0:0:0
     RDKit          3D

 94103  0  0  1  0  0  0  0  0999 V2000
  -27.2830  -23.6130   20.9310 C   0  0  0  0  0  0  0  0  0  0  0  0
  -28.6420  -23.8720   20.6330 C   0  0  0  0  0  0  0  0  0  0  0  0
  -27.5140  -21.3290   20.4450 C   0  0  0  0  0  0  0  0  0  0  0  0
  -28.9300  -21.4290   20.1780 C   0  0  0  0  0  0  0  0  0  0  0  0
  -26.3270  -24.6260   21.5540 C   0  0  0  0  0  1  0  0  0  0  0  0
  -26.6520  -20.0770   20.3910 C   0  0  0  0  0  1  0  0  0  0  0  0
  -26.7440  -22.3880   20.7940 N   0  0  0  0  0  0  0  0  0  0  0  0
  -29.4440  -22.7490   20.2740 N   0  0  0  0  0  0  0  0  0  0  0  0
  -29.7880  -20.2640   19.8240 N   0  0  0  0  0  0  0  0  0  0  0  0
  -30.7370  -20.4700   19.5300 H   0  0  0  0  0  0  0  0  0  0  0  0
  -29.5460  -18.1310   21.3510 C   0  0  0  0  0  2  0  0  0  0  0  0
  -29.1950  -16.8000   20.6480 C   0  0  0  0  0  2  0  0  0  0  0  0
  -29.4200  -18.7690   19.9730 C   0  0  0  0  0  3  0  0  0  0  0  0
  -29.8910  -17.2930   19.3450 C   0  0  0  0  0  3  0  0  0  0  0  0
  -31.7920  -15.3060   19.3890 C   0  0  0  0  0  0  0  0  0  0  0  0
  -31.5690  -12.8490   18.9140 C   0  0  0  0  0  2  0  0  0  0  0  0
  -30.5920  -12.5330   17.7600 C   0  0  0  0  0  2  0  0  0  0  0  0
  -29.1630  -12.3820   18.3010 C   0  0  0  0  0  2  0  0  0  0  0  0
  -28.7810  -13.5240   19.2810 C   0  0  0  0  0  3  0  0  0  0  0  0
  -29.8830  -13.8180   20.3180 C   0  0  0  0  0  2  0  0  0  0  0  0
  -31.1090  -14.1070   19.5690 N   0  0  0  0  0  0  0  0  0  0  0  0
  -32.9770  -15.2270   19.0650 O   0  0  0  0  0  0  0  0  0  0  0  0
  -31.2540  -16.6080   19.3560 N   0  0  0  0  0  0  0  0  0  0  0  0
  -31.9950  -17.2750   19.1950 H   0  0  0  0  0  0  0  0  0  0  0  0
  -26.5450  -14.2090   20.3230 C   0  0  0  0  0  0  0  0  0  0  0  0
  -25.4740  -13.4850   20.7610 C   0  0  0  0  0  0  0  0  0  0  0  0
  -25.8280  -12.1100   20.5900 C   0  0  0  0  0  0  0  0  0  0  0  0
  -27.4870  -13.2830   19.9090 N   0  0  0  0  0  0  0  0  0  0  0  0
  -27.0720  -12.0080   20.1340 N   0  0  0  0  0  0  0  0  0  0  0  0
  -25.0300  -10.8910   20.7740 C   0  0  0  0  0  0  0  0  0  0  0  0
  -25.3640   -9.9250   21.7480 C   0  0  0  0  0  3  0  0  0  0  0  0
  -24.5640   -8.7750   21.9200 C   0  0  0  0  0  3  0  0  0  0  0  0
  -23.4140   -8.5820   21.1200 C   0  0  0  0  0  0  0  0  0  0  0  0
  -23.1000   -9.5320   20.1330 C   0  0  0  0  0  3  0  0  0  0  0  0
  -23.9020  -10.6720   19.9590 C   0  0  0  0  0  3  0  0  0  0  0  0
  -22.5940   -7.4810   21.1960 O   0  0  0  0  0  0  0  0  0  0  0  0
  -22.2780   -6.9080   22.4010 C   0  0  0  0  0  0  0  0  0  0  0  0
  -21.6730   -7.6500   23.4400 C   0  0  0  0  0  3  0  0  0  0  0  0
  -21.2990   -7.0100   24.6380 C   0  0  0  0  0  3  0  0  0  0  0  0
  -21.5170   -5.6290   24.7950 C   0  0  0  0  0  0  0  0  0  0  0  0
  -22.1140   -4.8850   23.7610 C   0  0  0  0  0  3  0  0  0  0  0  0
  -22.4900   -5.5240   22.5660 C   0  0  0  0  0  0  0  0  0  0  0  0
  -23.0430   -4.8010   21.5620 F   0  0  0  0  0  0  0  0  0  0  0  0
  -21.1530   -5.0090   25.9410 F   0  0  0  0  0  0  0  0  0  0  0  0
  -24.1520  -14.0290   21.2140 C   0  0  0  0  0  0  0  0  0  0  0  0
  -23.5000  -13.3390   22.1440 N   0  0  0  0  0  0  0  0  0  0  0  0
  -23.7130  -15.0950   20.7780 O   0  0  0  0  0  0  0  0  0  0  0  0
  -22.5960  -13.6490   22.4690 H   0  0  0  0  0  0  0  0  0  0  0  0
  -23.8930  -12.4950   22.5390 H   0  0  0  0  0  0  0  0  0  0  0  0
  -26.7860  -15.5760   20.2130 N   0  0  0  0  0  0  0  0  0  0  0  0
  -26.0560  -16.2530   20.4050 H   0  0  0  0  0  0  0  0  0  0  0  0
  -27.6070  -15.9810   19.7840 H   0  0  0  0  0  0  0  0  0  0  0  0
  -29.2330  -25.3200   21.0550 C   0  0  0  0  0  2  0  0  0  0  0  0
  -29.0110  -26.6730   20.3940 O   0  0  0  0  0  0  0  0  0  0  0  0
  -24.7940  -31.9000   23.3670 C   0  0  0  0  0  0  0  0  0  0  0  0
  -27.8560  -27.4940   20.4480 C   0  0  0  0  0  0  0  0  0  0  0  0
  -23.8120  -30.5230   21.5680 C   0  0  0  0  0  3  0  0  0  0  0  0
  -25.4520  -29.0680   20.2450 C   0  0  0  0  0  0  0  0  0  0  0  0
  -26.3470  -30.9260   21.6470 C   0  0  0  0  0  2  0  0  0  0  0  0
  -26.5420  -29.5650   20.9730 C   0  0  0  0  0  0  0  0  0  0  0  0
  -27.7510  -28.7950   21.0590 C   0  0  0  0  0  3  0  0  0  0  0  0
  -26.7490  -27.0690   19.6890 C   0  0  0  0  0  3  0  0  0  0  0  0
  -25.5610  -27.8250   19.5960 C   0  0  0  0  0  3  0  0  0  0  0  0
  -24.1860  -29.9040   20.1960 C   0  0  0  0  0  2  0  0  0  0  0  0
  -24.9970  -31.1370   22.2500 N   0  0  0  0  0  0  0  0  0  0  0  0
  -23.6540  -32.1120   23.8060 O   0  0  0  0  0  0  0  0  0  0  0  0
  -23.1000  -29.4480   22.4250 C   0  0  0  0  0  0  0  0  0  0  0  0
  -21.7860  -29.2650   22.2050 N   0  0  0  0  0  0  0  0  0  0  0  0
  -23.7350  -28.7820   23.2460 O   0  0  0  0  0  0  0  0  0  0  0  0
  -21.3340  -29.8500   21.5160 H   0  0  0  0  0  0  0  0  0  0  0  0
  -18.3840  -28.0670   22.5030 C   0  0  0  0  0  0  0  0  0  0  0  0
  -20.9360  -28.2730   22.8660 C   0  0  0  0  0  3  0  0  0  0  0  0
  -21.0440  -26.8990   22.1660 C   0  0  0  0  0  2  0  0  0  0  0  0
  -19.9680  -26.6810   21.0970 C   0  0  0  0  0  2  0  0  0  0  0  0
  -18.5690  -26.7830   21.7110 C   0  0  0  0  0  2  0  0  0  0  0  0
  -19.4970  -28.7750   23.0310 C   0  0  0  0  0  0  0  0  0  0  0  0
  -19.2700  -29.9810   23.7300 C   0  0  0  0  0  3  0  0  0  0  0  0
  -17.9660  -30.4780   23.9060 C   0  0  0  0  0  3  0  0  0  0  0  0
  -16.8680  -29.7670   23.3940 C   0  0  0  0  0  3  0  0  0  0  0  0
  -17.0780  -28.5640   22.6970 C   0  0  0  0  0  3  0  0  0  0  0  0
  -25.9840  -32.5540   24.1320 C   0  0  0  0  0  3  0  0  0  0  0  0
  -25.6130  -33.9470   24.4230 N   0  0  0  0  0  0  0  0  0  0  0  0
  -25.9760  -35.0030   23.6830 C   0  0  0  0  0  0  0  0  0  0  0  0
  -26.7260  -34.9090   22.7070 O   0  0  0  0  0  0  0  0  0  0  0  0
  -24.9500  -34.0910   25.1710 H   0  0  0  0  0  0  0  0  0  0  0  0
  -24.2110  -36.7320   23.2090 C   0  0  0  0  0  1  0  0  0  0  0  0
  -25.4240  -36.3840   24.0890 C   0  0  0  0  0  3  0  0  0  0  0  0
  -27.4800  -37.3570   25.0110 C   0  0  0  0  0  1  0  0  0  0  0  0
  -26.4280  -37.4680   24.0030 N   0  0  0  0  0  0  0  0  0  0  0  0
  -25.9870  -38.3780   24.1010 H   0  0  0  0  0  0  0  0  0  0  0  0
  -26.3580  -31.7940   25.4640 C   0  0  1  0  0  0  0  0  0  0  0  0
  -25.1460  -31.5250   26.3850 C   0  0  0  0  0  1  0  0  0  0  0  0
  -27.0230  -30.4330   25.1570 C   0  0  0  0  0  1  0  0  0  0  0  0
  -27.3970  -32.6170   26.2610 C   0  0  0  0  0  1  0  0  0  0  0  0
  1  5  1  0
  2  1  2  0
  2 53  1  0
  3  7  2  0
  4  8  2  0
  4  3  1  0
  6  3  1  0
  7  1  1  0
  8  2  1  0
  9  4  1  0
 10  9  1  0
 12 11  1  0
 13  9  1  0
 13 11  1  0
 14 23  1  0
 14 13  1  0
 14 12  1  0
 15 21  1  0
 16 21  1  0
 17 18  1  0
 17 16  1  0
 19 18  1  0
 19 28  1  0
 19 20  1  0
 21 20  1  0
 22 15  2  0
 23 15  1  0
 24 23  1  0
 25 26  2  0
 26 45  1  0
 27 26  1  0
 27 30  1  0
 28 29  1  0
 28 25  1  0
 29 27  2  0
 30 31  1  0
 31 32  2  0
 33 36  1  0
 33 32  1  0
 34 33  2  0
 35 34  1  0
 35 30  2  0
 36 37  1  0
 37 42  2  0
 37 38  1  0
 38 39  2  0
 39 40  1  0
 40 44  1  0
 41 40  2  0
 42 41  1  0
 43 42  1  0
 45 46  1  0
 46 48  1  0
 46 49  1  0
 47 45  2  0
 50 25  1  0
 50 51  1  0
 52 50  1  0
 54 56  1  0
 54 53  1  0
 55 66  2  0
 56 61  1  0
 57 65  1  0
 57 67  1  0
 58 60  1  0
 59 65  1  0
 60 61  2  0
 60 59  1  0
 62 56  2  0
 63 62  1  0
 63 58  2  0
 64 58  1  0
 64 57  1  0
 65 55  1  0
 67 69  2  0
 68 67  1  0
 70 68  1  0
 71 80  2  0
 71 76  1  0
 72 68  1  0
 72 76  1  0
 73 72  1  0
 74 75  1  0
 74 73  1  0
 75 71  1  0
 76 77  2  0
 77 78  1  0
 79 78  2  0
 80 79  1  0
 81 55  1  0
 81 82  1  0
 81 91  1  0
 82 85  1  0
 83 87  1  0
 83 82  1  0
 84 83  2  0
 87 86  1  0
 89 87  1  0
 89 90  1  0
 89 88  1  0
 91 94  1  1
 91 92  1  0
 93 91  1  0
M  ISO  4  15 100  23 100  53 101  54 101
M  END
>  <TORSDO>  (1) 
F 18

>  <SCORE>  (1) 
-10.670

>  <name>  (1) 
0

>  <ligand_id>  (1) 
0

>  <original_smiles>  (1) 
[H]c1c([H])c([H])c2c(c1[H])C([H])([H])C([H])([H])C([H])([H])C2([H])N([H])C(=O)C1([H])N(C(=O)C([H])(N([H])C(=O)C([H])(N([H])C([H])([H])[H])C([H])([H])[H])C(C([H])([H])[H])(C([H])([H])[H])C([H])([H])[H])C([H])([H])c2c([H])c(OC([H])([H])c3nc(N([H])C4([H])C([H])([H])C([H])([H])C4([H])N([H])C(=O)N4C([H])([H])C([H])([H])C([H])([H])C([H])(n5nc(-c6c([H])c([H])c(Oc7c([H])c([H])c(F)c([H])c7F)c([H])c6[H])c(C(=O)N([H])[H])c5N([H])[H])C4([H])[H])c(C([H])([H])[H])nc3C([H])([H])[H])c([H])c([H])c2C1([H])[H]

>  <smiles>  (1) 
[H]c1c([H])c([H])c2c(c1[H])C([H])([H])C([H])([H])C([H])([H])C2([H])N([H])C(=O)C1([H])N(C(=O)C([H])(N([H])C(=O)C([H])(N([H])C([H])([H])[H])C([H])([H])[H])C(C([H])([H])[H])(C([H])([H])[H])C([H])([H])[H])C([H])([H])c2c([H])c(OC([H])([H])c3nc(N([H])C4([H])C([H])([H])C([H])([H])C4([H])N([H])C(=O)N4C([H])([H])C([H])([H])C([H])([H])C([H])(n5nc(-c6c([H])c([H])c(Oc7c([H])c([H])c(F)c([H])c7F)c([H])c6[H])c(C(=O)N([H])[H])c5N([H])[H])C4([H])[H])c(C([H])([H])[H])nc3C([H])([H])[H])c([H])c([H])c2C1([H])[H]

$$$$
1:0:0
     RDKit          3D

101111  0  0  1  0  0  0  0  0999 V2000
  -30.2300  -22.4150   19.5810 N   0  0  0  0  0  4  0  0  0  0  0  0
  -29.5130  -22.2660   18.8890 H   0  0  0  0  0  0  0  0  0  0  0  0
  -31.1070  -22.4660   19.0860 H   0  0  0  0  0  0  0  0  0  0  0  0
  -30.8360  -14.4290   20.4270 C   0  0  0  0  0  0  0  0  0  0  0  0
  -30.6700  -12.3190   19.1430 C   0  0  0  0  0  2  0  0  0  0  0  0
  -29.7540  -12.5380   17.9210 C   0  0  0  0  0  2  0  0  0  0  0  0
  -28.2700  -12.3410   18.2940 C   0  0  0  0  0  2  0  0  0  0  0  0
  -27.8710  -13.1260   19.5710 C   0  0  0  0  0  3  0  0  0  0  0  0
  -28.8870  -12.8520   20.7010 C   0  0  0  0  0  2  0  0  0  0  0  0
  -30.2310  -13.2270   20.2140 N   0  0  0  0  0  0  0  0  0  0  0  0
  -31.9160  -14.7350   19.9070 O   0  0  0  0  0  0  0  0  0  0  0  0
  -28.7010  -17.0100   21.8890 C   0  0  0  0  0  3  0  0  0  0  0  0
  -29.0960  -19.2730   21.2230 C   0  0  0  0  0  0  0  0  0  0  0  0
  -28.2790  -18.3600   21.9090 C   0  0  0  0  0  0  0  0  0  0  0  0
  -30.2400  -18.8240   20.5800 C   0  0  0  0  0  0  0  0  0  0  0  0
  -29.8810  -16.6190   21.2070 C   0  0  0  0  0  0  0  0  0  0  0  0
  -28.9020  -20.7620   21.0330 C   0  0  0  0  0  2  0  0  0  0  0  0
  -30.9440  -19.9550   19.8680 C   0  0  0  0  0  2  0  0  0  0  0  0
  -30.2710  -21.2220   20.4720 C   0  0  0  0  0  3  0  0  0  0  0  0
  -30.6500  -17.5360   20.5540 N   0  0  0  0  0  0  0  0  0  0  0  0
  -30.1500  -15.2260   21.2680 N   0  0  0  0  0  0  0  0  0  0  0  0
  -29.4430  -14.7130   21.7660 H   0  0  0  0  0  0  0  0  0  0  0  0
  -25.4430  -13.6780   20.2270 C   0  0  0  0  0  0  0  0  0  0  0  0
  -24.3730  -12.8800   20.5290 C   0  0  0  0  0  0  0  0  0  0  0  0
  -24.8500  -11.5350   20.4470 C   0  0  0  0  0  0  0  0  0  0  0  0
  -26.5050  -12.8190   19.9890 N   0  0  0  0  0  0  0  0  0  0  0  0
  -26.1490  -11.5230   20.1750 N   0  0  0  0  0  0  0  0  0  0  0  0
  -24.1340  -10.2580   20.5540 C   0  0  0  0  0  0  0  0  0  0  0  0
  -24.5940   -9.2250   21.4010 C   0  0  0  0  0  3  0  0  0  0  0  0
  -23.8800   -8.0120   21.5020 C   0  0  0  0  0  3  0  0  0  0  0  0
  -22.6940   -7.8230   20.7540 C   0  0  0  0  0  0  0  0  0  0  0  0
  -22.2530   -8.8460   19.8960 C   0  0  0  0  0  3  0  0  0  0  0  0
  -22.9670  -10.0520   19.7940 C   0  0  0  0  0  3  0  0  0  0  0  0
  -21.9510   -6.6670   20.7670 O   0  0  0  0  0  0  0  0  0  0  0  0
  -21.9730   -5.8090   21.8360 C   0  0  0  0  0  0  0  0  0  0  0  0
  -21.6660   -6.2410   23.1450 C   0  0  0  0  0  3  0  0  0  0  0  0
  -21.6320   -5.3120   24.2040 C   0  0  0  0  0  3  0  0  0  0  0  0
  -21.8970   -3.9510   23.9580 C   0  0  0  0  0  0  0  0  0  0  0  0
  -22.1990   -3.5190   22.6550 C   0  0  0  0  0  3  0  0  0  0  0  0
  -22.2340   -4.4440   21.5970 C   0  0  0  0  0  0  0  0  0  0  0  0
  -22.5050   -4.0180   20.3400 F   0  0  0  0  0  0  0  0  0  0  0  0
  -21.8580   -3.0570   24.9730 F   0  0  0  0  0  0  0  0  0  0  0  0
  -22.9620  -13.3290   20.7850 C   0  0  0  0  0  0  0  0  0  0  0  0
  -22.2190  -12.5900   21.6000 N   0  0  0  0  0  0  0  0  0  0  0  0
  -22.5240  -14.3690   20.2960 O   0  0  0  0  0  0  0  0  0  0  0  0
  -22.5840  -11.7470   22.0200 H   0  0  0  0  0  0  0  0  0  0  0  0
  -21.2740  -12.8740   21.8130 H   0  0  0  0  0  0  0  0  0  0  0  0
  -25.5950  -15.0560   20.1140 N   0  0  0  0  0  0  0  0  0  0  0  0
  -24.8160  -15.6940   20.2260 H   0  0  0  0  0  0  0  0  0  0  0  0
  -26.4490  -15.5180   19.8290 H   0  0  0  0  0  0  0  0  0  0  0  0
  -26.8760  -18.2240   24.0270 C   0  0  0  0  0  1  0  0  0  0  0  0
  -25.7680  -18.4230   21.7540 C   0  0  0  0  0  1  0  0  0  0  0  0
  -26.9910  -18.7900   22.6040 C   0  0  0  0  0  3  0  0  0  0  0  0
  -31.0510  -25.8620   19.5290 C   0  0  0  0  0  2  0  0  0  0  0  0
  -31.1630  -24.1290   21.1750 C   0  0  0  0  0  2  0  0  0  0  0  0
  -31.3380  -25.6390   21.0140 C   0  0  0  0  0  3  0  0  0  0  0  0
  -29.8960  -24.9030   19.2030 C   0  0  0  0  0  3  0  0  0  0  0  0
  -30.0020  -23.7370   20.2340 C   0  0  0  0  0  3  0  0  0  0  0  0
  -32.7100  -26.1570   21.4630 C   0  0  0  0  0  1  0  0  0  0  0  0
  -28.5180  -25.6130   19.1660 C   0  0  0  0  0  2  0  0  0  0  0  0
  -28.3860  -26.6850   20.1150 O   0  0  0  0  0  0  0  0  0  0  0  0
  -24.5720  -31.8210   23.2830 C   0  0  0  0  0  0  0  0  0  0  0  0
  -27.2000  -27.3990   20.1290 C   0  0  0  0  0  0  0  0  0  0  0  0
  -23.3610  -30.4390   21.6300 C   0  0  0  0  0  3  0  0  0  0  0  0
  -24.8070  -28.9150   20.1880 C   0  0  0  0  0  0  0  0  0  0  0  0
  -25.8900  -30.7860   21.4370 C   0  0  0  0  0  2  0  0  0  0  0  0
  -25.9680  -29.4210   20.7830 C   0  0  0  0  0  0  0  0  0  0  0  0
  -27.1630  -28.6640   20.7640 C   0  0  0  0  0  3  0  0  0  0  0  0
  -26.0090  -26.9080   19.5390 C   0  0  0  0  0  3  0  0  0  0  0  0
  -24.8200  -27.6550   19.5720 C   0  0  0  0  0  3  0  0  0  0  0  0
  -23.5680  -29.7790   20.2430 C   0  0  0  0  0  2  0  0  0  0  0  0
  -24.6270  -31.0300   22.1750 N   0  0  0  0  0  0  0  0  0  0  0  0
  -23.4930  -32.0910   23.8270 O   0  0  0  0  0  0  0  0  0  0  0  0
  -22.7100  -29.4060   22.5790 C   0  0  0  0  0  0  0  0  0  0  0  0
  -21.3830  -29.2370   22.4590 N   0  0  0  0  0  0  0  0  0  0  0  0
  -23.3940  -28.7640   23.3780 O   0  0  0  0  0  0  0  0  0  0  0  0
  -20.8930  -29.8070   21.7840 H   0  0  0  0  0  0  0  0  0  0  0  0
  -18.0050  -28.0550   22.9520 C   0  0  0  0  0  0  0  0  0  0  0  0
  -20.5640  -28.2960   23.2230 C   0  0  0  0  0  3  0  0  0  0  0  0
  -20.6590  -26.8700   22.6330 C   0  0  0  0  0  2  0  0  0  0  0  0
  -19.5530  -26.5640   21.6170 C   0  0  0  0  0  2  0  0  0  0  0  0
  -18.1730  -26.7110   22.2640 C   0  0  0  0  0  2  0  0  0  0  0  0
  -19.1280  -28.8060   23.3880 C   0  0  0  0  0  0  0  0  0  0  0  0
  -18.9180  -30.0660   23.9920 C   0  0  0  0  0  3  0  0  0  0  0  0
  -17.6170  -30.5730   24.1640 C   0  0  0  0  0  3  0  0  0  0  0  0
  -16.5070  -29.8190   23.7450 C   0  0  0  0  0  3  0  0  0  0  0  0
  -16.7020  -28.5610   23.1450 C   0  0  0  0  0  3  0  0  0  0  0  0
  -25.8620  -32.4420   23.9050 C   0  0  0  0  0  3  0  0  0  0  0  0
  -26.4110  -31.6290   25.1420 C   0  0  1  0  0  0  0  0  0  0  0  0
  -25.3420  -31.3450   26.2220 C   0  0  0  0  0  1  0  0  0  0  0  0
  -26.9930  -30.2690   24.6870 C   0  0  0  0  0  1  0  0  0  0  0  0
  -27.5710  -32.4060   25.8070 C   0  0  0  0  0  1  0  0  0  0  0  0
  -25.5440  -33.8230   24.2920 N   0  0  0  0  0  0  0  0  0  0  0  0
  -25.8520  -34.9040   23.5640 C   0  0  0  0  0  0  0  0  0  0  0  0
  -26.5070  -34.8460   22.5200 O   0  0  0  0  0  0  0  0  0  0  0  0
  -24.9610  -33.9430   25.1080 H   0  0  0  0  0  0  0  0  0  0  0  0
  -24.0920  -36.6820   23.3070 C   0  0  0  0  0  1  0  0  0  0  0  0
  -25.3560  -36.2700   24.0780 C   0  0  0  0  0  3  0  0  0  0  0  0
  -27.5030  -37.1510   24.8810 C   0  0  0  0  0  1  0  0  0  0  0  0
  -26.3720  -37.3400   23.9770 N   0  0  0  0  0  0  0  0  0  0  0  0
  -25.9580  -38.2480   24.1740 H   0  0  0  0  0  0  0  0  0  0  0  0
  2  1  1  0
  3  1  1  0
  4 21  1  0
  5 10  1  0
  6  7  1  0
  6  5  1  0
  8  7  1  0
  8 26  1  0
  8  9  1  0
 10  4  1  0
 10  9  1  0
 11  4  2  0
 12 14  1  0
 13 14  2  0
 14 53  1  0
 15 13  1  0
 16 21  1  0
 16 12  2  0
 17 13  1  0
 18 19  1  0
 18 15  1  0
 19  1  1  0
 19 17  1  0
 20 15  2  0
 20 16  1  0
 21 22  1  0
 23 24  2  0
 24 43  1  0
 25 24  1  0
 25 28  1  0
 26 27  1  0
 26 23  1  0
 27 25  2  0
 28 29  1  0
 29 30  2  0
 31 34  1  0
 31 30  1  0
 32 31  2  0
 33 32  1  0
 33 28  2  0
 34 35  1  0
 35 36  1  0
 36 37  2  0
 38 37  1  0
 38 42  1  0
 39 38  2  0
 40 35  2  0
 40 39  1  0
 41 40  1  0
 43 44  1  0
 44 47  1  0
 44 46  1  0
 45 43  2  0
 48 49  1  0
 48 23  1  0
 50 48  1  0
 52 53  1  0
 53 51  1  0
 54 56  1  0
 56 55  1  0
 56 59  1  0
 57 60  1  0
 57 54  1  0
 57 58  1  0
 58  1  1  0
 58 55  1  0
 60 61  1  0
 61 63  1  0
 62 73  2  0
 63 68  1  0
 64 72  1  0
 64 74  1  0
 65 71  1  0
 65 67  1  0
 66 72  1  0
 67 66  1  0
 68 67  2  0
 69 70  1  0
 69 63  2  0
 70 65  2  0
 71 64  1  0
 72 62  1  0
 74 76  2  0
 75 74  1  0
 77 75  1  0
 78 87  2  0
 78 83  1  0
 79 75  1  0
 79 83  1  0
 80 79  1  0
 81 82  1  0
 81 80  1  0
 82 78  1  0
 83 84  2  0
 84 85  1  0
 86 85  2  0
 87 86  1  0
 88 62  1  0
 88 93  1  0
 88 89  1  0
 89 92  1  1
 89 90  1  0
 91 89  1  0
 93 96  1  0
 94 98  1  0
 94 93  1  0
 95 94  2  0
 98 97  1  0
100 98  1  0
100101  1  0
100 99  1  0
M  ISO  4   4 100  21 100  60 101  61 101
M  END
>  <TORSDO>  (2) 
F 19

>  <SCORE>  (2) 
19.136

>  <name>  (2) 
1

>  <ligand_id>  (2) 
1

>  <original_smiles>  (2) 
[H]c1c([H])c([H])c2c(c1[H])C([H])([H])C([H])([H])C([H])([H])C2([H])N([H])C(=O)C1([H])N(C(=O)C([H])(N([H])C(=O)C([H])(N([H])C([H])([H])[H])C([H])([H])[H])C(C([H])([H])[H])(C([H])([H])[H])C([H])([H])[H])C([H])([H])c2c([H])c(OC([H])([H])C3([H])C([H])([H])C([H])(C([H])([H])[H])C([H])([H])C3([H])[N+]([H])([H])C3([H])C([H])([H])c4nc(N([H])C(=O)N5C([H])([H])C([H])([H])C([H])([H])C([H])(n6nc(-c7c([H])c([H])c(Oc8c([H])c([H])c(F)c([H])c8F)c([H])c7[H])c(C(=O)N([H])[H])c6N([H])[H])C5([H])[H])c([H])c(C([H])(C([H])([H])[H])C([H])([H])[H])c4C3([H])[H])c([H])c([H])c2C1([H])[H]

>  <smiles>  (2) 
[H]c1c([H])c([H])c2c(c1[H])C([H])([H])C([H])([H])C([H])([H])C2([H])N([H])C(=O)C1([H])N(C(=O)C([H])(N([H])C(=O)C([H])(N([H])C([H])([H])[H])C([H])([H])[H])C(C([H])([H])[H])(C([H])([H])[H])C([H])([H])[H])C([H])([H])c2c([H])c(OC([H])([H])C3([H])C([H])([H])C([H])(C([H])([H])[H])C([H])([H])C3([H])[N+]([H])([H])C3([H])C([H])([H])c4nc(N([H])C(=O)N5C([H])([H])C([H])([H])C([H])([H])C([H])(n6nc(-c7c([H])c([H])c(Oc8c([H])c([H])c(F)c([H])c8F)c([H])c7[H])c(C(=O)N([H])[H])c6N([H])[H])C5([H])[H])c([H])c(C([H])(C([H])([H])[H])C([H])([H])[H])c4C3([H])[H])c([H])c([H])c2C1([H])[H]

$$$$
2:0:0
     RDKit          3D

 98108  0  0  1  0  0  0  0  0999 V2000
  -31.8830  -23.7260   19.4990 C   0  0  0  0  0  3  0  0  0  0  0  0
  -31.8010  -22.3290   19.4720 C   0  0  0  0  0  0  0  0  0  0  0  0
  -30.7450  -24.5260   19.5370 C   0  0  0  0  0  0  0  0  0  0  0  0
  -32.8420  -21.4020   19.2850 C   0  0  0  0  0  0  0  0  0  0  0  0
  -29.4790  -23.9320   19.7400 C   0  0  0  0  0  0  0  0  0  0  0  0
  -32.2350  -20.2100   19.0500 C   0  0  0  0  0  0  0  0  0  0  0  0
  -30.5210  -21.6860   19.5690 C   0  0  0  0  0  0  0  0  0  0  0  0
  -30.9530  -26.0090   19.2590 C   0  0  0  0  0  1  0  0  0  0  0  0
  -34.3160  -21.7120   19.1860 C   0  0  0  0  0  1  0  0  0  0  0  0
  -33.0500  -19.0960   18.4690 C   0  0  0  0  0  1  0  0  0  0  0  0
  -29.3580  -22.5090   19.7580 N   0  0  0  0  0  0  0  0  0  0  0  0
  -30.8520  -20.2320   19.4110 N   0  0  0  0  0  0  0  0  0  0  0  0
  -30.8990  -14.9800   19.7080 C   0  0  0  0  0  0  0  0  0  0  0  0
  -30.6270  -12.7510   18.5870 C   0  0  0  0  0  2  0  0  0  0  0  0
  -29.5340  -12.8200   17.4980 C   0  0  0  0  0  2  0  0  0  0  0  0
  -28.1320  -12.5940   18.1020 C   0  0  0  0  0  2  0  0  0  0  0  0
  -27.9080  -13.3910   19.4160 C   0  0  0  0  0  3  0  0  0  0  0  0
  -29.1070  -13.2350   20.3640 C   0  0  0  0  0  2  0  0  0  0  0  0
  -30.2620  -13.7470   19.6260 N   0  0  0  0  0  0  0  0  0  0  0  0
  -32.0690  -15.0050   19.3110 O   0  0  0  0  0  0  0  0  0  0  0  0
  -29.6630  -18.4020   20.8560 C   0  0  0  0  0  2  0  0  0  0  0  0
  -30.7310  -17.4630   19.0710 C   0  0  0  0  0  2  0  0  0  0  0  0
  -30.0500  -18.8840   19.4710 C   0  0  0  0  0  3  0  0  0  0  0  0
  -29.2670  -16.8810   20.7180 C   0  0  0  0  0  3  0  0  0  0  0  0
  -30.1940  -16.2200   19.7460 N   0  0  0  0  0  0  0  0  0  0  0  0
  -25.6520  -13.8780   20.5080 C   0  0  0  0  0  0  0  0  0  0  0  0
  -24.6500  -13.0520   20.9420 C   0  0  0  0  0  0  0  0  0  0  0  0
  -25.1150  -11.7190   20.7370 C   0  0  0  0  0  0  0  0  0  0  0  0
  -26.6540  -13.0360   20.0610 N   0  0  0  0  0  0  0  0  0  0  0  0
  -26.3520  -11.7290   20.2620 N   0  0  0  0  0  0  0  0  0  0  0  0
  -24.4290  -10.4340   20.9130 C   0  0  0  0  0  0  0  0  0  0  0  0
  -24.8580   -9.4910   21.8700 C   0  0  0  0  0  3  0  0  0  0  0  0
  -24.1650   -8.2730   22.0370 C   0  0  0  0  0  3  0  0  0  0  0  0
  -23.0270   -7.9900   21.2450 C   0  0  0  0  0  0  0  0  0  0  0  0
  -22.6180   -8.9220   20.2750 C   0  0  0  0  0  3  0  0  0  0  0  0
  -23.3140  -10.1310   20.1070 C   0  0  0  0  0  3  0  0  0  0  0  0
  -22.3110   -6.8220   21.3180 O   0  0  0  0  0  0  0  0  0  0  0  0
  -22.0720   -6.1990   22.5170 C   0  0  0  0  0  0  0  0  0  0  0  0
  -21.4390   -6.8640   23.5910 C   0  0  0  0  0  3  0  0  0  0  0  0
  -21.1490   -6.1640   24.7770 C   0  0  0  0  0  3  0  0  0  0  0  0
  -21.4850   -4.8000   24.8920 C   0  0  0  0  0  0  0  0  0  0  0  0
  -22.1140   -4.1380   23.8230 C   0  0  0  0  0  3  0  0  0  0  0  0
  -22.4030   -4.8340   22.6370 C   0  0  0  0  0  0  0  0  0  0  0  0
  -22.9850   -4.1840   21.6020 F   0  0  0  0  0  0  0  0  0  0  0  0
  -21.2020   -4.1250   26.0310 F   0  0  0  0  0  0  0  0  0  0  0  0
  -23.2980  -13.4840   21.4220 C   0  0  0  0  0  0  0  0  0  0  0  0
  -22.7320  -12.7410   22.3640 N   0  0  0  0  0  0  0  0  0  0  0  0
  -22.7640  -14.5100   21.0070 O   0  0  0  0  0  0  0  0  0  0  0  0
  -23.1940  -11.9170   22.7230 H   0  0  0  0  0  0  0  0  0  0  0  0
  -21.8330  -12.9980   22.7380 H   0  0  0  0  0  0  0  0  0  0  0  0
  -25.7800  -15.2590   20.4380 N   0  0  0  0  0  0  0  0  0  0  0  0
  -25.0500  -15.8880   20.7530 H   0  0  0  0  0  0  0  0  0  0  0  0
  -26.5650  -15.7370   20.0200 H   0  0  0  0  0  0  0  0  0  0  0  0
  -29.1200  -16.2550   22.1130 C   0  0  0  0  0  2  0  0  0  0  0  0
  -30.3810  -15.8730   22.6350 O   0  0  0  0  0  0  0  0  0  0  0  0
  -30.3030  -15.8000   23.5800 H   0  0  0  0  0  0  0  0  0  0  0  0
  -28.2190  -24.9420   19.8590 C   0  0  0  0  0  2  0  0  0  0  0  0
  -28.4050  -26.4490   20.0360 O   0  0  0  0  0  0  0  0  0  0  0  0
  -24.6580  -31.8620   23.1750 C   0  0  0  0  0  0  0  0  0  0  0  0
  -27.3110  -27.3540   20.0060 C   0  0  0  0  0  0  0  0  0  0  0  0
  -23.4870  -30.5210   21.4670 C   0  0  0  0  0  3  0  0  0  0  0  0
  -24.9650  -29.0250   20.0060 C   0  0  0  0  0  0  0  0  0  0  0  0
  -26.0370  -30.8330   21.3450 C   0  0  0  0  0  2  0  0  0  0  0  0
  -26.1290  -29.4760   20.6440 C   0  0  0  0  0  0  0  0  0  0  0  0
  -27.3080  -28.6550   20.6300 C   0  0  0  0  0  3  0  0  0  0  0  0
  -26.1200  -26.9800   19.3510 C   0  0  0  0  0  3  0  0  0  0  0  0
  -24.9700  -27.7880   19.3490 C   0  0  0  0  0  3  0  0  0  0  0  0
  -23.7300  -29.9040   20.0650 C   0  0  0  0  0  2  0  0  0  0  0  0
  -24.7450  -31.0910   22.0510 N   0  0  0  0  0  0  0  0  0  0  0  0
  -23.5650  -32.1160   23.7010 O   0  0  0  0  0  0  0  0  0  0  0  0
  -22.8110  -29.4680   22.3770 C   0  0  0  0  0  0  0  0  0  0  0  0
  -21.4840  -29.3050   22.2400 N   0  0  0  0  0  0  0  0  0  0  0  0
  -23.4820  -28.8030   23.1700 O   0  0  0  0  0  0  0  0  0  0  0  0
  -21.0010  -29.8980   21.5810 H   0  0  0  0  0  0  0  0  0  0  0  0
  -18.0820  -28.1970   22.7840 C   0  0  0  0  0  0  0  0  0  0  0  0
  -20.6580  -28.3380   22.9670 C   0  0  0  0  0  3  0  0  0  0  0  0
  -20.6780  -26.9540   22.2750 C   0  0  0  0  0  2  0  0  0  0  0  0
  -19.5270  -26.7580   21.2840 C   0  0  0  0  0  2  0  0  0  0  0  0
  -18.1780  -26.9020   21.9940 C   0  0  0  0  0  2  0  0  0  0  0  0
  -19.2470  -28.8780   23.2280 C   0  0  0  0  0  0  0  0  0  0  0  0
  -19.1020  -30.0950   23.9280 C   0  0  0  0  0  3  0  0  0  0  0  0
  -17.8250  -30.6280   24.1880 C   0  0  0  0  0  3  0  0  0  0  0  0
  -16.6760  -29.9410   23.7610 C   0  0  0  0  0  3  0  0  0  0  0  0
  -16.8050  -28.7270   23.0640 C   0  0  0  0  0  3  0  0  0  0  0  0
  -25.9270  -32.4790   23.8390 C   0  0  0  0  0  3  0  0  0  0  0  0
  -26.4210  -31.6710   25.1030 C   0  0  1  0  0  0  0  0  0  0  0  0
  -25.3030  -31.3960   26.1340 C   0  0  0  0  0  1  0  0  0  0  0  0
  -27.0270  -30.3080   24.6910 C   0  0  0  0  0  1  0  0  0  0  0  0
  -27.5510  -32.4500   25.8170 C   0  0  0  0  0  1  0  0  0  0  0  0
  -25.6060  -33.8650   24.2080 N   0  0  0  0  0  0  0  0  0  0  0  0
  -25.8740  -34.9390   23.4540 C   0  0  0  0  0  0  0  0  0  0  0  0
  -26.4920  -34.8680   22.3870 O   0  0  0  0  0  0  0  0  0  0  0  0
  -25.0430  -33.9900   25.0380 H   0  0  0  0  0  0  0  0  0  0  0  0
  -24.0720  -36.6860   23.2540 C   0  0  0  0  0  1  0  0  0  0  0  0
  -25.3830  -36.3080   23.9630 C   0  0  0  0  0  3  0  0  0  0  0  0
  -27.5380  -37.2610   24.6510 C   0  0  0  0  0  1  0  0  0  0  0  0
  -26.3710  -37.3920   23.7830 N   0  0  0  0  0  0  0  0  0  0  0  0
  -25.9480  -38.3000   23.9580 H   0  0  0  0  0  0  0  0  0  0  0  0
  1  3  1  0
  2  1  2  0
  2  7  1  0
  3  5  2  0
  4  2  1  0
  5 11  1  0
  5 57  1  0
  6  4  2  0
  6 12  1  0
  7 11  2  0
  8  3  1  0
  9  4  1  0
 10  6  1  0
 12 23  1  0
 12  7  1  0
 13 25  1  0
 14 19  1  0
 15 16  1  0
 15 14  1  0
 17 16  1  0
 17 29  1  0
 17 18  1  0
 19 13  1  0
 19 18  1  0
 20 13  2  0
 22 25  1  0
 23 22  1  0
 23 21  1  0
 24 21  1  0
 24 54  1  0
 25 24  1  0
 26 27  2  0
 27 46  1  0
 28 31  1  0
 28 27  1  0
 29 30  1  0
 29 26  1  0
 30 28  2  0
 31 32  1  0
 32 33  2  0
 34 37  1  0
 34 33  1  0
 35 34  2  0
 36 35  1  0
 36 31  2  0
 37 38  1  0
 38 43  2  0
 38 39  1  0
 39 40  2  0
 40 41  1  0
 41 45  1  0
 42 41  2  0
 43 42  1  0
 44 43  1  0
 46 47  1  0
 47 49  1  0
 47 50  1  0
 48 46  2  0
 51 26  1  0
 51 52  1  0
 53 51  1  0
 54 55  1  0
 55 56  1  0
 57 58  1  0
 59 70  2  0
 60 58  1  0
 60 65  1  0
 61 69  1  0
 61 71  1  0
 62 68  1  0
 62 64  1  0
 63 69  1  0
 64 63  1  0
 65 64  2  0
 66 60  2  0
 67 66  1  0
 67 62  2  0
 68 61  1  0
 69 59  1  0
 71 73  2  0
 72 71  1  0
 74 72  1  0
 75 84  2  0
 75 80  1  0
 76 72  1  0
 76 80  1  0
 77 76  1  0
 78 79  1  0
 78 77  1  0
 79 75  1  0
 80 81  2  0
 81 82  1  0
 83 82  2  0
 84 83  1  0
 85 59  1  0
 85 90  1  0
 85 86  1  0
 86 89  1  1
 86 87  1  0
 88 86  1  0
 90 93  1  0
 91 95  1  0
 91 90  1  0
 92 91  2  0
 95 94  1  0
 97 98  1  0
 97 95  1  0
 97 96  1  0
M  ISO  4  13 100  25 100  57 101  58 101
M  END
>  <TORSDO>  (3) 
F 19

>  <SCORE>  (3) 
-11.867

>  <name>  (3) 
2

>  <ligand_id>  (3) 
2

>  <original_smiles>  (3) 
[H]OC([H])([H])C1([H])N(C(=O)N2C([H])([H])C([H])([H])C([H])([H])C([H])(n3nc(-c4c([H])c([H])c(Oc5c([H])c([H])c(F)c([H])c5F)c([H])c4[H])c(C(=O)N([H])[H])c3N([H])[H])C2([H])[H])C([H])([H])C([H])(n2c(C([H])([H])[H])c(C([H])([H])[H])c3c([H])c(C([H])([H])[H])c(C([H])([H])Oc4c([H])c([H])c5c(c4[H])C([H])([H])N(C(=O)C([H])(N([H])C(=O)C([H])(N([H])C([H])([H])[H])C([H])([H])[H])C(C([H])([H])[H])(C([H])([H])[H])C([H])([H])[H])C([H])(C(=O)N([H])C4([H])c6c([H])c([H])c([H])c([H])c6C([H])([H])C([H])([H])C4([H])[H])C5([H])[H])nc32)C1([H])[H]

>  <smiles>  (3) 
[H]OC([H])([H])C1([H])N(C(=O)N2C([H])([H])C([H])([H])C([H])([H])C([H])(n3nc(-c4c([H])c([H])c(Oc5c([H])c([H])c(F)c([H])c5F)c([H])c4[H])c(C(=O)N([H])[H])c3N([H])[H])C2([H])[H])C([H])([H])C([H])(n2c(C([H])([H])[H])c(C([H])([H])[H])c3c([H])c(C([H])([H])[H])c(C([H])([H])Oc4c([H])c([H])c5c(c4[H])C([H])([H])N(C(=O)C([H])(N([H])C(=O)C([H])(N([H])C([H])([H])[H])C([H])([H])[H])C(C([H])([H])[H])(C([H])([H])[H])C([H])([H])[H])C([H])(C(=O)N([H])C4([H])c6c([H])c([H])c([H])c([H])c6C([H])([H])C([H])([H])C4([H])[H])C5([H])[H])nc32)C1([H])[H]

$$$$
3:0:0
     RDKit          3D

 93102  0  0  1  0  0  0  0  0999 V2000
  -30.4040  -20.7640   18.4650 C   0  0  0  0  0  2  0  0  0  0  0  0
  -31.0290  -21.6160   19.5650 C   0  0  0  0  0  2  0  0  0  0  0  0
  -29.4720  -20.1270   19.5220 C   0  0  0  0  0  3  0  0  0  0  0  0
  -29.7290  -21.4500   20.3660 C   0  0  0  0  0  3  0  0  0  0  0  0
  -30.7410  -14.5630   20.3590 C   0  0  0  0  0  0  0  0  0  0  0  0
  -30.3990  -12.3600   19.3040 C   0  0  0  0  0  2  0  0  0  0  0  0
  -29.4510  -12.5250   18.1000 C   0  0  0  0  0  2  0  0  0  0  0  0
  -27.9830  -12.3940   18.5490 C   0  0  0  0  0  2  0  0  0  0  0  0
  -27.6530  -13.2580   19.7980 C   0  0  0  0  0  3  0  0  0  0  0  0
  -28.7300  -13.1200   20.8970 C   0  0  0  0  0  2  0  0  0  0  0  0
  -30.0280  -13.4040   20.2750 N   0  0  0  0  0  0  0  0  0  0  0  0
  -31.9500  -14.5720   20.1040 O   0  0  0  0  0  0  0  0  0  0  0  0
  -29.8150  -16.6330   21.3750 C   0  0  0  0  0  2  0  0  0  0  0  0
  -29.2050  -18.0620   21.0770 C   0  0  0  0  0  2  0  0  0  0  0  0
  -30.4900  -16.5300   19.0430 C   0  0  0  0  0  2  0  0  0  0  0  0
  -29.6460  -17.7790   18.7510 C   0  0  0  0  0  3  0  0  0  0  0  0
  -28.1890  -17.4480   18.3620 C   0  0  0  0  0  1  0  0  0  0  0  0
  -30.0470  -15.7370   20.2090 N   0  0  0  0  0  0  0  0  0  0  0  0
  -29.8030  -18.7000   19.8920 N   0  0  0  0  0  0  0  0  0  0  0  0
  -25.2810  -13.8540   20.5780 C   0  0  0  0  0  0  0  0  0  0  0  0
  -24.2180  -13.0790   20.9560 C   0  0  0  0  0  0  0  0  0  0  0  0
  -24.6740  -11.7270   20.9020 C   0  0  0  0  0  0  0  0  0  0  0  0
  -26.3170  -12.9740   20.3110 N   0  0  0  0  0  0  0  0  0  0  0  0
  -25.9590  -11.6900   20.5690 N   0  0  0  0  0  0  0  0  0  0  0  0
  -23.9460  -10.4650   21.0880 C   0  0  0  0  0  0  0  0  0  0  0  0
  -24.3910   -9.4830   21.9990 C   0  0  0  0  0  3  0  0  0  0  0  0
  -23.6630   -8.2860   22.1750 C   0  0  0  0  0  3  0  0  0  0  0  0
  -22.4740   -8.0630   21.4400 C   0  0  0  0  0  0  0  0  0  0  0  0
  -22.0490   -9.0340   20.5170 C   0  0  0  0  0  3  0  0  0  0  0  0
  -22.7770  -10.2230   20.3390 C   0  0  0  0  0  3  0  0  0  0  0  0
  -21.7150   -6.9210   21.5270 O   0  0  0  0  0  0  0  0  0  0  0  0
  -21.6840   -6.1640   22.6710 C   0  0  0  0  0  0  0  0  0  0  0  0
  -21.2620   -6.6990   23.9070 C   0  0  0  0  0  3  0  0  0  0  0  0
  -21.1750   -5.8670   25.0410 C   0  0  0  0  0  3  0  0  0  0  0  0
  -21.5010   -4.5020   24.9410 C   0  0  0  0  0  0  0  0  0  0  0  0
  -21.9170   -3.9660   23.7090 C   0  0  0  0  0  3  0  0  0  0  0  0
  -22.0050   -4.7950   22.5770 C   0  0  0  0  0  0  0  0  0  0  0  0
  -22.3840   -4.2690   21.3870 F   0  0  0  0  0  0  0  0  0  0  0  0
  -21.4120   -3.7000   26.0290 F   0  0  0  0  0  0  0  0  0  0  0  0
  -22.8260  -13.5590   21.2560 C   0  0  0  0  0  0  0  0  0  0  0  0
  -22.1090  -12.8610   22.1300 N   0  0  0  0  0  0  0  0  0  0  0  0
  -22.3860  -14.5900   20.7500 O   0  0  0  0  0  0  0  0  0  0  0  0
  -22.4810  -12.0290   22.5660 H   0  0  0  0  0  0  0  0  0  0  0  0
  -21.1740  -13.1650   22.3660 H   0  0  0  0  0  0  0  0  0  0  0  0
  -25.4500  -15.2250   20.4180 N   0  0  0  0  0  0  0  0  0  0  0  0
  -24.6930  -15.8840   20.5550 H   0  0  0  0  0  0  0  0  0  0  0  0
  -26.3050  -15.6610   20.1030 H   0  0  0  0  0  0  0  0  0  0  0  0
  -28.7450  -22.5770   20.1380 N   0  0  0  0  0  4  0  0  0  0  0  0
  -27.9080  -22.3480   20.6510 H   0  0  0  0  0  0  0  0  0  0  0  0
  -28.4890  -22.5600   19.1630 H   0  0  0  0  0  0  0  0  0  0  0  0
  -29.1460  -23.9960   20.4900 C   0  0  0  0  0  2  0  0  0  0  0  0
  -28.1040  -25.0790   20.0160 C   0  0  0  0  0  2  0  0  0  0  0  0
  -28.3410  -26.5060   20.2900 O   0  0  0  0  0  0  0  0  0  0  0  0
  -24.6290  -31.8900   23.2820 C   0  0  0  0  0  0  0  0  0  0  0  0
  -27.2260  -27.3520   20.2170 C   0  0  0  0  0  0  0  0  0  0  0  0
  -23.4250  -30.5050   21.6330 C   0  0  0  0  0  3  0  0  0  0  0  0
  -24.8710  -28.9620   20.2060 C   0  0  0  0  0  0  0  0  0  0  0  0
  -25.9660  -30.8160   21.4610 C   0  0  0  0  0  2  0  0  0  0  0  0
  -26.0390  -29.4430   20.8090 C   0  0  0  0  0  0  0  0  0  0  0  0
  -27.2210  -28.6500   20.8070 C   0  0  0  0  0  3  0  0  0  0  0  0
  -26.0360  -26.9270   19.5790 C   0  0  0  0  0  3  0  0  0  0  0  0
  -24.8710  -27.7090   19.5820 C   0  0  0  0  0  3  0  0  0  0  0  0
  -23.6390  -29.8380   20.2490 C   0  0  0  0  0  2  0  0  0  0  0  0
  -24.6920  -31.0860   22.1820 N   0  0  0  0  0  0  0  0  0  0  0  0
  -23.5460  -32.1720   23.8130 O   0  0  0  0  0  0  0  0  0  0  0  0
  -22.7570  -29.4840   22.5850 C   0  0  0  0  0  0  0  0  0  0  0  0
  -21.4320  -29.3130   22.4540 N   0  0  0  0  0  0  0  0  0  0  0  0
  -23.4310  -28.8480   23.3990 O   0  0  0  0  0  0  0  0  0  0  0  0
  -20.9480  -29.8800   21.7720 H   0  0  0  0  0  0  0  0  0  0  0  0
  -18.0450  -28.1500   22.9460 C   0  0  0  0  0  0  0  0  0  0  0  0
  -20.6040  -28.3820   23.2210 C   0  0  0  0  0  3  0  0  0  0  0  0
  -20.6910  -26.9510   22.6410 C   0  0  0  0  0  2  0  0  0  0  0  0
  -19.5860  -26.6430   21.6250 C   0  0  0  0  0  2  0  0  0  0  0  0
  -18.2060  -26.8010   22.2680 C   0  0  0  0  0  2  0  0  0  0  0  0
  -19.1700  -28.8990   23.3810 C   0  0  0  0  0  0  0  0  0  0  0  0
  -18.9630  -30.1630   23.9760 C   0  0  0  0  0  3  0  0  0  0  0  0
  -17.6630  -30.6760   24.1430 C   0  0  0  0  0  3  0  0  0  0  0  0
  -16.5510  -29.9250   23.7230 C   0  0  0  0  0  3  0  0  0  0  0  0
  -16.7440  -28.6640   23.1310 C   0  0  0  0  0  3  0  0  0  0  0  0
  -25.9140  -32.5150   23.9070 C   0  0  0  0  0  3  0  0  0  0  0  0
  -26.4120  -31.7500   25.1940 C   0  0  1  0  0  0  0  0  0  0  0  0
  -25.3060  -31.5280   26.2520 C   0  0  0  0  0  1  0  0  0  0  0  0
  -26.9890  -30.3640   24.8190 C   0  0  0  0  0  1  0  0  0  0  0  0
  -27.5610  -32.5400   25.8640 C   0  0  0  0  0  1  0  0  0  0  0  0
  -25.6150  -33.9180   24.2240 N   0  0  0  0  0  0  0  0  0  0  0  0
  -25.9490  -34.9600   23.4530 C   0  0  0  0  0  0  0  0  0  0  0  0
  -26.6150  -34.8420   22.4210 O   0  0  0  0  0  0  0  0  0  0  0  0
  -25.0230  -34.0830   25.0240 H   0  0  0  0  0  0  0  0  0  0  0  0
  -24.2270  -36.7580   23.0920 C   0  0  0  0  0  1  0  0  0  0  0  0
  -25.4720  -36.3560   23.9000 C   0  0  0  0  0  3  0  0  0  0  0  0
  -27.6130  -37.2420   24.7120 C   0  0  0  0  0  1  0  0  0  0  0  0
  -26.5090  -37.4020   23.7690 N   0  0  0  0  0  0  0  0  0  0  0  0
  -26.1070  -38.3260   23.9070 H   0  0  0  0  0  0  0  0  0  0  0  0
  1  2  1  0
  2  4  1  0
  3  1  1  0
  3 19  1  0
  3  4  1  0
  4 48  1  0
  6 11  1  0
  7  8  1  0
  7  6  1  0
  9  8  1  0
  9 23  1  0
  9 10  1  0
 11  5  1  0
 11 10  1  0
 12  5  2  0
 14 13  1  0
 15 18  1  0
 16 17  1  0
 16 15  1  0
 16 19  1  0
 18  5  1  0
 18 13  1  0
 19 14  1  0
 20 21  2  0
 21 40  1  0
 22 21  1  0
 22 25  1  0
 23 24  1  0
 23 20  1  0
 24 22  2  0
 25 26  1  0
 26 27  2  0
 28 31  1  0
 28 27  1  0
 29 28  2  0
 30 29  1  0
 30 25  2  0
 31 32  1  0
 32 33  1  0
 33 34  2  0
 35 34  1  0
 35 39  1  0
 36 35  2  0
 37 32  2  0
 37 36  1  0
 38 37  1  0
 40 41  1  0
 41 44  1  0
 41 43  1  0
 42 40  2  0
 45 46  1  0
 45 20  1  0
 47 45  1  0
 48 51  1  0
 48 49  1  0
 50 48  1  0
 52 53  1  0
 52 51  1  0
 54 65  2  0
 55 53  1  0
 55 60  1  0
 56 64  1  0
 56 66  1  0
 57 63  1  0
 57 59  1  0
 58 64  1  0
 59 58  1  0
 60 59  2  0
 61 62  1  0
 61 55  2  0
 62 57  2  0
 63 56  1  0
 64 54  1  0
 66 68  2  0
 67 66  1  0
 69 67  1  0
 70 79  2  0
 70 75  1  0
 71 67  1  0
 71 75  1  0
 72 71  1  0
 73 74  1  0
 73 72  1  0
 74 70  1  0
 75 76  2  0
 76 77  1  0
 78 77  2  0
 79 78  1  0
 80 54  1  0
 80 85  1  0
 80 81  1  0
 81 84  1  1
 81 82  1  0
 83 81  1  0
 85 88  1  0
 86 90  1  0
 86 85  1  0
 87 86  2  0
 90 89  1  0
 92 90  1  0
 92 93  1  0
 92 91  1  0
M  ISO  4   5 100  18 100  52 101  53 101
M  END
>  <TORSDO>  (4) 
F 19

>  <SCORE>  (4) 
-14.287

>  <name>  (4) 
3

>  <ligand_id>  (4) 
3

>  <original_smiles>  (4) 
[H]c1c([H])c([H])c2c(c1[H])C([H])([H])C([H])([H])C([H])([H])C2([H])N([H])C(=O)C1([H])N(C(=O)C([H])(N([H])C(=O)C([H])(N([H])C([H])([H])[H])C([H])([H])[H])C(C([H])([H])[H])(C([H])([H])[H])C([H])([H])[H])C([H])([H])c2c([H])c(OC([H])([H])C([H])([H])[N+]([H])([H])C3([H])C([H])([H])C([H])([H])C3([H])N3C([H])([H])C([H])([H])N(C(=O)N4C([H])([H])C([H])([H])C([H])([H])C([H])(n5nc(-c6c([H])c([H])c(Oc7c([H])c([H])c(F)c([H])c7F)c([H])c6[H])c(C(=O)N([H])[H])c5N([H])[H])C4([H])[H])C([H])([H])C3([H])C([H])([H])[H])c([H])c([H])c2C1([H])[H]

>  <smiles>  (4) 
[H]c1c([H])c([H])c2c(c1[H])C([H])([H])C([H])([H])C([H])([H])C2([H])N([H])C(=O)C1([H])N(C(=O)C([H])(N([H])C(=O)C([H])(N([H])C([H])([H])[H])C([H])([H])[H])C(C([H])([H])[H])(C([H])([H])[H])C([H])([H])[H])C([H])([H])c2c([H])c(OC([H])([H])C([H])([H])[N+]([H])([H])C3([H])C([H])([H])C([H])([H])C3([H])N3C([H])([H])C([H])([H])N(C(=O)N4C([H])([H])C([H])([H])C([H])([H])C([H])(n5nc(-c6c([H])c([H])c(Oc7c([H])c([H])c(F)c([H])c7F)c([H])c6[H])c(C(=O)N([H])[H])c5N([H])[H])C4([H])[H])C([H])([H])C3([H])C([H])([H])[H])c([H])c([H])c2C1([H])[H]

$$$$
4:0:0
     RDKit          3D

 96106  0  0  1  0  0  0  0  0999 V2000
  -29.4470  -22.5490   21.8480 C   0  0  0  0  0  0  0  0  0  0  0  0
  -29.1400  -21.9810   20.5700 C   0  0  0  0  0  0  0  0  0  0  0  0
  -29.4200  -23.9170   21.6600 C   0  0  0  0  0  0  0  0  0  0  0  0
  -29.6690  -25.0300   22.6330 C   0  0  0  0  0  1  0  0  0  0  0  0
  -28.9490  -22.9690   19.6800 N   0  0  0  0  0  0  0  0  0  0  0  0
  -29.0870  -24.1620   20.3350 N   0  0  0  0  0  0  0  0  0  0  0  0
  -30.9150  -22.0960   23.9830 C   0  0  0  0  0  2  0  0  0  0  0  0
  -30.7760  -20.7730   23.2770 C   0  0  0  0  0  2  0  0  0  0  0  0
  -29.6860  -21.8140   23.1450 C   0  0  0  0  0  3  0  0  0  0  0  0
  -28.8430  -20.5090   20.1740 C   0  0  0  0  0  2  0  0  0  0  0  0
  -30.9260  -17.6370   19.0810 C   0  0  0  0  0  2  0  0  0  0  0  0
  -30.7850  -19.1810   19.2150 C   0  0  0  0  0  2  0  0  0  0  0  0
  -29.4030  -18.1170   20.8200 C   0  0  0  0  0  2  0  0  0  0  0  0
  -30.4810  -17.0590   20.4330 C   0  0  0  0  0  3  0  0  0  0  0  0
  -29.9080  -19.4610   20.3830 N   0  0  2  0  0  4  0  0  0  0  0  0
  -30.5020  -19.8040   21.1220 H   0  0  0  0  0  0  0  0  0  0  0  0
  -30.7480  -14.5210   20.0940 C   0  0  0  0  0  0  0  0  0  0  0  0
  -30.3970  -12.3130   19.0290 C   0  0  0  0  0  2  0  0  0  0  0  0
  -29.3980  -12.4730   17.8620 C   0  0  0  0  0  2  0  0  0  0  0  0
  -27.9440  -12.3600   18.3610 C   0  0  0  0  0  2  0  0  0  0  0  0
  -27.6710  -13.2140   19.6280 C   0  0  0  0  0  3  0  0  0  0  0  0
  -28.7840  -13.0340   20.6840 C   0  0  0  0  0  2  0  0  0  0  0  0
  -30.0670  -13.3370   20.0350 N   0  0  0  0  0  0  0  0  0  0  0  0
  -31.8980  -14.6320   19.6670 O   0  0  0  0  0  0  0  0  0  0  0  0
  -30.0330  -15.6260   20.4460 N   0  0  0  0  0  0  0  0  0  0  0  0
  -29.0860  -15.4480   20.7440 H   0  0  0  0  0  0  0  0  0  0  0  0
  -25.3340  -13.8490   20.4880 C   0  0  0  0  0  0  0  0  0  0  0  0
  -24.2690  -13.0920   20.8920 C   0  0  0  0  0  0  0  0  0  0  0  0
  -24.6910  -11.7300   20.7940 C   0  0  0  0  0  0  0  0  0  0  0  0
  -26.3420  -12.9510   20.1750 N   0  0  0  0  0  0  0  0  0  0  0  0
  -25.9620  -11.6690   20.4180 N   0  0  0  0  0  0  0  0  0  0  0  0
  -23.9410  -10.4810   20.9820 C   0  0  0  0  0  0  0  0  0  0  0  0
  -24.3490   -9.5100   21.9220 C   0  0  0  0  0  3  0  0  0  0  0  0
  -23.6000   -8.3250   22.0980 C   0  0  0  0  0  3  0  0  0  0  0  0
  -22.4290   -8.1060   21.3360 C   0  0  0  0  0  0  0  0  0  0  0  0
  -22.0400   -9.0650   20.3850 C   0  0  0  0  0  3  0  0  0  0  0  0
  -22.7890  -10.2400   20.2060 C   0  0  0  0  0  3  0  0  0  0  0  0
  -21.6550   -6.9750   21.4210 O   0  0  0  0  0  0  0  0  0  0  0  0
  -21.5460   -6.2630   22.5880 C   0  0  0  0  0  0  0  0  0  0  0  0
  -21.0240   -6.8380   23.7670 C   0  0  0  0  0  3  0  0  0  0  0  0
  -20.8670   -6.0520   24.9260 C   0  0  0  0  0  3  0  0  0  0  0  0
  -21.2200   -4.6890   24.9050 C   0  0  0  0  0  0  0  0  0  0  0  0
  -21.7350   -4.1120   23.7310 C   0  0  0  0  0  3  0  0  0  0  0  0
  -21.8950   -4.8970   22.5760 C   0  0  0  0  0  0  0  0  0  0  0  0
  -22.3700   -4.3310   21.4400 F   0  0  0  0  0  0  0  0  0  0  0  0
  -21.0630   -3.9300   26.0160 F   0  0  0  0  0  0  0  0  0  0  0  0
  -22.9000  -13.5950   21.2510 C   0  0  0  0  0  0  0  0  0  0  0  0
  -22.1930  -12.8800   22.1180 N   0  0  0  0  0  0  0  0  0  0  0  0
  -22.4690  -14.6550   20.7970 O   0  0  0  0  0  0  0  0  0  0  0  0
  -22.5560  -12.0220   22.5050 H   0  0  0  0  0  0  0  0  0  0  0  0
  -21.2760  -13.1940   22.4010 H   0  0  0  0  0  0  0  0  0  0  0  0
  -25.5270  -15.2180   20.3370 N   0  0  0  0  0  0  0  0  0  0  0  0
  -24.7780  -15.8860   20.4860 H   0  0  0  0  0  0  0  0  0  0  0  0
  -26.3370  -15.6270   19.8910 H   0  0  0  0  0  0  0  0  0  0  0  0
  -28.9770  -25.4400   19.5710 C   0  0  0  0  0  2  0  0  0  0  0  0
  -28.7000  -26.5860   20.3830 O   0  0  0  0  0  0  0  0  0  0  0  0
  -24.5930  -31.7200   23.2160 C   0  0  0  0  0  0  0  0  0  0  0  0
  -27.5050  -27.3000   20.2650 C   0  0  0  0  0  0  0  0  0  0  0  0
  -23.5160  -30.2930   21.5140 C   0  0  0  0  0  3  0  0  0  0  0  0
  -25.0760  -28.8000   20.1570 C   0  0  0  0  0  0  0  0  0  0  0  0
  -26.0420  -30.7070   21.4420 C   0  0  0  0  0  2  0  0  0  0  0  0
  -26.1950  -29.3340   20.8070 C   0  0  0  0  0  0  0  0  0  0  0  0
  -27.4070  -28.5930   20.8540 C   0  0  0  0  0  3  0  0  0  0  0  0
  -26.3480  -26.7920   19.6260 C   0  0  0  0  0  3  0  0  0  0  0  0
  -25.1510  -27.5310   19.5630 C   0  0  0  0  0  3  0  0  0  0  0  0
  -23.8110  -29.6310   20.1440 C   0  0  0  0  0  2  0  0  0  0  0  0
  -24.7350  -30.9220   22.1190 N   0  0  0  0  0  0  0  0  0  0  0  0
  -23.4770  -31.9590   23.6970 O   0  0  0  0  0  0  0  0  0  0  0  0
  -22.8440  -29.2480   22.4350 C   0  0  0  0  0  0  0  0  0  0  0  0
  -21.5240  -29.0670   22.2700 N   0  0  0  0  0  0  0  0  0  0  0  0
  -23.5070  -28.6040   23.2520 O   0  0  0  0  0  0  0  0  0  0  0  0
  -21.0520  -29.6350   21.5800 H   0  0  0  0  0  0  0  0  0  0  0  0
  -18.1250  -27.9270   22.7370 C   0  0  0  0  0  0  0  0  0  0  0  0
  -20.6900  -28.1100   22.9980 C   0  0  0  0  0  3  0  0  0  0  0  0
  -20.7560  -26.7100   22.3460 C   0  0  0  0  0  2  0  0  0  0  0  0
  -19.6380  -26.4660   21.3270 C   0  0  0  0  0  2  0  0  0  0  0  0
  -18.2650  -26.6110   21.9900 C   0  0  0  0  0  2  0  0  0  0  0  0
  -19.2650  -28.6390   23.1950 C   0  0  0  0  0  0  0  0  0  0  0  0
  -19.0840  -29.8740   23.8530 C   0  0  0  0  0  3  0  0  0  0  0  0
  -17.7940  -30.3980   24.0580 C   0  0  0  0  0  3  0  0  0  0  0  0
  -16.6680  -29.6820   23.6180 C   0  0  0  0  0  3  0  0  0  0  0  0
  -16.8340  -28.4490   22.9610 C   0  0  0  0  0  3  0  0  0  0  0  0
  -25.8220  -32.3890   23.9050 C   0  0  0  0  0  3  0  0  0  0  0  0
  -26.2770  -31.6430   25.2170 C   0  0  1  0  0  0  0  0  0  0  0  0
  -25.1240  -31.3770   26.2140 C   0  0  0  0  0  1  0  0  0  0  0  0
  -26.9270  -30.2850   24.8670 C   0  0  0  0  0  1  0  0  0  0  0  0
  -27.3570  -32.4780   25.9460 C   0  0  0  0  0  1  0  0  0  0  0  0
  -25.4590  -33.7830   24.1970 N   0  0  0  0  0  0  0  0  0  0  0  0
  -25.8040  -34.8350   23.4430 C   0  0  0  0  0  0  0  0  0  0  0  0
  -26.5280  -34.7360   22.4490 O   0  0  0  0  0  0  0  0  0  0  0  0
  -24.8140  -33.9280   24.9600 H   0  0  0  0  0  0  0  0  0  0  0  0
  -24.0420  -36.5720   22.9880 C   0  0  0  0  0  1  0  0  0  0  0  0
  -25.2590  -36.2160   23.8560 C   0  0  0  0  0  3  0  0  0  0  0  0
  -27.3230  -37.1820   24.7700 C   0  0  0  0  0  1  0  0  0  0  0  0
  -26.2660  -37.2940   23.7680 N   0  0  0  0  0  0  0  0  0  0  0  0
  -25.8300  -38.2060   23.8730 H   0  0  0  0  0  0  0  0  0  0  0  0
  1  9  1  0
  2  1  1  0
  3  1  2  0
  3  4  1  0
  5  6  1  0
  5  2  2  0
  6  3  1  0
  8  7  1  0
  9  8  1  0
  9  7  1  0
 10 15  1  0
 10  2  1  0
 11 12  1  0
 11 14  1  0
 12 15  1  0
 14 25  1  0
 14 13  1  0
 15 13  1  0
 15 16  1  1
 17 25  1  0
 18 23  1  0
 19 20  1  0
 19 18  1  0
 21 20  1  0
 21 30  1  0
 21 22  1  0
 23 17  1  0
 23 22  1  0
 24 17  2  0
 25 26  1  0
 27 28  2  0
 28 47  1  0
 29 28  1  0
 29 32  1  0
 30 31  1  0
 30 27  1  0
 31 29  2  0
 32 33  1  0
 33 34  2  0
 35 38  1  0
 35 34  1  0
 36 35  2  0
 37 36  1  0
 37 32  2  0
 38 39  1  0
 39 40  1  0
 40 41  2  0
 42 41  1  0
 42 46  1  0
 43 42  2  0
 44 39  2  0
 44 43  1  0
 45 44  1  0
 47 48  1  0
 48 51  1  0
 48 50  1  0
 49 47  2  0
 52 53  1  0
 52 27  1  0
 54 52  1  0
 55  6  1  0
 55 56  1  0
 57 68  2  0
 58 56  1  0
 58 63  1  0
 59 67  1  0
 59 69  1  0
 60 62  1  0
 61 67  1  0
 62 63  2  0
 62 61  1  0
 64 58  2  0
 65 64  1  0
 65 60  2  0
 66 60  1  0
 66 59  1  0
 67 57  1  0
 69 71  2  0
 70 69  1  0
 72 70  1  0
 73 82  2  0
 73 78  1  0
 74 70  1  0
 74 78  1  0
 75 74  1  0
 76 77  1  0
 76 75  1  0
 77 73  1  0
 78 79  2  0
 79 80  1  0
 81 80  2  0
 82 81  1  0
 83 57  1  0
 83 88  1  0
 83 84  1  0
 84 87  1  1
 84 85  1  0
 86 84  1  0
 88 91  1  0
 89 93  1  0
 89 88  1  0
 90 89  2  0
 93 92  1  0
 95 93  1  0
 95 96  1  0
 95 94  1  0
M  ISO  4  17 100  25 100  55 101  56 101
M  END
>  <TORSDO>  (5) 
F 20

>  <SCORE>  (5) 
-14.114

>  <name>  (5) 
4

>  <ligand_id>  (5) 
4

>  <original_smiles>  (5) 
[H]c1c([H])c([H])c2c(c1[H])C([H])([H])C([H])([H])C([H])([H])C2([H])N([H])C(=O)C1([H])N(C(=O)C([H])(N([H])C(=O)C([H])(N([H])C([H])([H])[H])C([H])([H])[H])C(C([H])([H])[H])(C([H])([H])[H])C([H])([H])[H])C([H])([H])c2c([H])c(OC([H])([H])n3nc(C([H])([H])[N+]4([H])C([H])([H])C([H])([H])C([H])(N([H])C(=O)N5C([H])([H])C([H])([H])C([H])([H])C([H])(n6nc(-c7c([H])c([H])c(Oc8c([H])c([H])c(F)c([H])c8F)c([H])c7[H])c(C(=O)N([H])[H])c6N([H])[H])C5([H])[H])C4([H])[H])c(C4([H])C([H])([H])C4([H])[H])c3C([H])([H])[H])c([H])c([H])c2C1([H])[H]

>  <smiles>  (5) 
[H]c1c([H])c([H])c2c(c1[H])C([H])([H])C([H])([H])C([H])([H])C2([H])N([H])C(=O)C1([H])N(C(=O)C([H])(N([H])C(=O)C([H])(N([H])C([H])([H])[H])C([H])([H])[H])C(C([H])([H])[H])(C([H])([H])[H])C([H])([H])[H])C([H])([H])c2c([H])c(OC([H])([H])n3nc(C([H])([H])[N+]4([H])C([H])([H])C([H])([H])C([H])(N([H])C(=O)N5C([H])([H])C([H])([H])C([H])([H])C([H])(n6nc(-c7c([H])c([H])c(Oc8c([H])c([H])c(F)c([H])c8F)c([H])c7[H])c(C(=O)N([H])[H])c6N([H])[H])C5([H])[H])C4([H])[H])c(C4([H])C([H])([H])C4([H])[H])c3C([H])([H])[H])c([H])c([H])c2C1([H])[H]

$$$$
5:0:0
     RDKit          3D

 92102  0  0  1  0  0  0  0  0999 V2000
  -28.9220  -23.3150   20.8860 C   0  0  0  0  0  0  0  0  0  0  0  0
  -29.3820  -23.8470   22.1450 C   0  0  0  0  0  0  0  0  0  0  0  0
  -29.0880  -21.7460   20.8010 C   0  0  0  0  0  0  0  0  0  0  0  0
  -29.8230  -21.8260   23.0440 C   0  0  0  0  0  0  0  0  0  0  0  0
  -30.1350  -19.3520   20.0140 C   0  0  0  0  0  3  0  0  0  0  0  0
  -28.2050  -19.1990   20.3080 C   0  0  0  0  0  3  0  0  0  0  0  0
  -29.1920  -18.1100   19.6270 C   0  0  0  0  0  3  0  0  0  0  0  0
  -29.4720  -25.3300   22.5000 C   0  0  0  0  0  1  0  0  0  0  0  0
  -30.2900  -20.9970   24.2210 C   0  0  0  0  0  1  0  0  0  0  0  0
  -29.8120  -23.1190   23.1780 N   0  0  0  0  0  0  0  0  0  0  0  0
  -29.4910  -21.1810   21.9560 N   0  0  0  0  0  0  0  0  0  0  0  0
  -29.0280  -20.4300   19.9150 N   0  0  0  0  0  0  0  0  0  0  0  0
  -30.1520  -15.3830   19.9650 C   0  0  0  0  0  0  0  0  0  0  0  0
  -30.2270  -12.9350   19.1700 C   0  0  0  0  0  2  0  0  0  0  0  0
  -29.2560  -12.6910   17.9860 C   0  0  0  0  0  2  0  0  0  0  0  0
  -27.8410  -12.3700   18.4950 C   0  0  0  0  0  2  0  0  0  0  0  0
  -27.4020  -13.3290   19.6320 C   0  0  0  0  0  3  0  0  0  0  0  0
  -28.4930  -13.5220   20.7070 C   0  0  0  0  0  2  0  0  0  0  0  0
  -29.6820  -14.0500   20.0200 N   0  0  0  0  0  0  0  0  0  0  0  0
  -31.3210  -15.4950   19.5710 O   0  0  0  0  0  0  0  0  0  0  0  0
  -29.2990  -16.5550   20.1560 N   0  0  0  0  0  0  0  0  0  0  0  0
  -28.4300  -16.2650   20.5800 H   0  0  0  0  0  0  0  0  0  0  0  0
  -25.0690  -13.7810   20.5630 C   0  0  0  0  0  0  0  0  0  0  0  0
  -24.0570  -12.9550   20.9670 C   0  0  0  0  0  0  0  0  0  0  0  0
  -24.5610  -11.6230   20.8400 C   0  0  0  0  0  0  0  0  0  0  0  0
  -26.1170  -12.9520   20.2080 N   0  0  0  0  0  0  0  0  0  0  0  0
  -25.8270  -11.6450   20.4410 N   0  0  0  0  0  0  0  0  0  0  0  0
  -23.8860  -10.3310   21.0180 C   0  0  0  0  0  0  0  0  0  0  0  0
  -24.3490   -9.3750   21.9500 C   0  0  0  0  0  3  0  0  0  0  0  0
  -23.6690   -8.1500   22.1170 C   0  0  0  0  0  3  0  0  0  0  0  0
  -22.5110   -7.8690   21.3530 C   0  0  0  0  0  0  0  0  0  0  0  0
  -22.0670   -8.8130   20.4110 C   0  0  0  0  0  3  0  0  0  0  0  0
  -22.7480  -10.0310   20.2410 C   0  0  0  0  0  3  0  0  0  0  0  0
  -21.8010   -6.6950   21.4300 O   0  0  0  0  0  0  0  0  0  0  0  0
  -21.6860   -6.0000   22.6080 C   0  0  0  0  0  0  0  0  0  0  0  0
  -21.1120   -6.5770   23.7610 C   0  0  0  0  0  3  0  0  0  0  0  0
  -20.9490   -5.8060   24.9280 C   0  0  0  0  0  3  0  0  0  0  0  0
  -21.3520   -4.4560   24.9430 C   0  0  0  0  0  0  0  0  0  0  0  0
  -21.9190   -3.8780   23.7930 C   0  0  0  0  0  3  0  0  0  0  0  0
  -22.0820   -4.6480   22.6280 C   0  0  0  0  0  0  0  0  0  0  0  0
  -22.6100   -4.0790   21.5170 F   0  0  0  0  0  0  0  0  0  0  0  0
  -21.1890   -3.7110   26.0620 F   0  0  0  0  0  0  0  0  0  0  0  0
  -22.6690  -13.3740   21.3520 C   0  0  0  0  0  0  0  0  0  0  0  0
  -22.0270  -12.6240   22.2390 N   0  0  0  0  0  0  0  0  0  0  0  0
  -22.1640  -14.4010   20.9000 O   0  0  0  0  0  0  0  0  0  0  0  0
  -22.4490  -11.7930   22.6250 H   0  0  0  0  0  0  0  0  0  0  0  0
  -21.0980  -12.8850   22.5400 H   0  0  0  0  0  0  0  0  0  0  0  0
  -25.1780  -15.1640   20.4380 N   0  0  0  0  0  0  0  0  0  0  0  0
  -24.3950  -15.7830   20.6240 H   0  0  0  0  0  0  0  0  0  0  0  0
  -25.9670  -15.6400   20.0230 H   0  0  0  0  0  0  0  0  0  0  0  0
  -28.3130  -24.6140   19.9380 C   0  0  0  0  0  2  0  0  0  0  0  0
  -28.3080  -26.2340   20.1410 O   0  0  0  0  0  0  0  0  0  0  0  0
  -24.6330  -31.9720   23.1940 C   0  0  0  0  0  0  0  0  0  0  0  0
  -27.2350  -27.2420   20.0730 C   0  0  0  0  0  0  0  0  0  0  0  0
  -23.4370  -30.5820   21.5470 C   0  0  0  0  0  3  0  0  0  0  0  0
  -24.8930  -29.0300   20.0810 C   0  0  0  0  0  0  0  0  0  0  0  0
  -25.9920  -30.8570   21.3650 C   0  0  0  0  0  2  0  0  0  0  0  0
  -26.0760  -29.4650   20.6880 C   0  0  0  0  0  0  0  0  0  0  0  0
  -27.2410  -28.5910   20.6600 C   0  0  0  0  0  3  0  0  0  0  0  0
  -26.0210  -26.9340   19.4210 C   0  0  0  0  0  3  0  0  0  0  0  0
  -24.8840  -27.7850   19.4280 C   0  0  0  0  0  3  0  0  0  0  0  0
  -23.6570  -29.9220   20.1560 C   0  0  0  0  0  2  0  0  0  0  0  0
  -24.7080  -31.1630   22.0900 N   0  0  0  0  0  0  0  0  0  0  0  0
  -23.5470  -32.2360   23.7340 O   0  0  0  0  0  0  0  0  0  0  0  0
  -22.7750  -29.5600   22.5050 C   0  0  0  0  0  0  0  0  0  0  0  0
  -21.4560  -29.3400   22.3580 N   0  0  0  0  0  0  0  0  0  0  0  0
  -23.4550  -28.9640   23.3450 O   0  0  0  0  0  0  0  0  0  0  0  0
  -20.9620  -29.8740   21.6560 H   0  0  0  0  0  0  0  0  0  0  0  0
  -18.1300  -27.9560   22.7690 C   0  0  0  0  0  0  0  0  0  0  0  0
  -20.6580  -28.3720   23.1180 C   0  0  0  0  0  3  0  0  0  0  0  0
  -20.8600  -26.9370   22.5770 C   0  0  0  0  0  2  0  0  0  0  0  0
  -19.8170  -26.5350   21.5310 C   0  0  0  0  0  2  0  0  0  0  0  0
  -18.4060  -26.6090   22.1230 C   0  0  0  0  0  2  0  0  0  0  0  0
  -19.1860  -28.7910   23.2220 C   0  0  0  0  0  0  0  0  0  0  0  0
  -18.8720  -30.0460   23.7860 C   0  0  0  0  0  3  0  0  0  0  0  0
  -17.5350  -30.4700   23.9010 C   0  0  0  0  0  3  0  0  0  0  0  0
  -16.4920  -29.6330   23.4640 C   0  0  0  0  0  3  0  0  0  0  0  0
  -16.7900  -28.3780   22.9060 C   0  0  0  0  0  3  0  0  0  0  0  0
  -25.9060  -32.6200   23.8220 C   0  0  0  0  0  3  0  0  0  0  0  0
  -25.5790  -34.0150   24.1650 N   0  0  0  0  0  0  0  0  0  0  0  0
  -25.8810  -35.0810   23.4120 C   0  0  0  0  0  0  0  0  0  0  0  0
  -26.5260  -34.9940   22.3650 O   0  0  0  0  0  0  0  0  0  0  0  0
  -25.0030  -34.1530   24.9810 H   0  0  0  0  0  0  0  0  0  0  0  0
  -24.1120  -36.8520   23.1370 C   0  0  0  0  0  1  0  0  0  0  0  0
  -25.3910  -36.4620   23.8950 C   0  0  0  0  0  3  0  0  0  0  0  0
  -27.5400  -37.3820   24.6490 C   0  0  0  0  0  1  0  0  0  0  0  0
  -26.4020  -37.5320   23.7460 N   0  0  0  0  0  0  0  0  0  0  0  0
  -25.9880  -38.4460   23.9070 H   0  0  0  0  0  0  0  0  0  0  0  0
  -26.4260  -31.8520   25.1010 C   0  0  1  0  0  0  0  0  0  0  0  0
  -25.3310  -31.6020   26.1650 C   0  0  0  0  0  1  0  0  0  0  0  0
  -27.0260  -30.4810   24.7140 C   0  0  0  0  0  1  0  0  0  0  0  0
  -27.5650  -32.6590   25.7670 C   0  0  0  0  0  1  0  0  0  0  0  0
  1  2  2  0
  2  8  1  0
  2 10  1  0
  3  1  1  0
  3 11  2  0
  4 10  2  0
  4  9  1  0
  5 12  1  0
  5  6  1  0
  6 12  1  0
  7  5  1  0
  7 21  1  0
  7  6  1  0
 11  4  1  0
 12  3  1  0
 13 19  1  0
 13 21  1  0
 14 19  1  0
 15 16  1  0
 15 14  1  0
 17 16  1  0
 17 26  1  0
 17 18  1  0
 19 18  1  0
 20 13  2  0
 21 22  1  0
 23 24  2  0
 24 43  1  0
 25 24  1  0
 25 28  1  0
 26 27  1  0
 26 23  1  0
 27 25  2  0
 28 29  1  0
 29 30  2  0
 31 34  1  0
 31 30  1  0
 32 31  2  0
 33 32  1  0
 33 28  2  0
 34 35  1  0
 35 40  2  0
 35 36  1  0
 36 37  2  0
 37 38  1  0
 38 42  1  0
 39 38  2  0
 40 39  1  0
 41 40  1  0
 43 44  1  0
 44 47  1  0
 44 46  1  0
 45 43  2  0
 48 23  1  0
 48 49  1  0
 50 48  1  0
 51 52  1  0
 51  1  1  0
 53 64  2  0
 54 52  1  0
 54 59  1  0
 55 63  1  0
 55 65  1  0
 56 62  1  0
 56 58  1  0
 57 63  1  0
 58 57  1  0
 59 58  2  0
 60 61  1  0
 60 54  2  0
 61 56  2  0
 62 55  1  0
 63 53  1  0
 65 67  2  0
 66 65  1  0
 68 66  1  0
 69 78  2  0
 69 74  1  0
 70 66  1  0
 70 74  1  0
 71 70  1  0
 72 73  1  0
 72 71  1  0
 73 69  1  0
 74 75  2  0
 75 76  1  0
 77 76  2  0
 78 77  1  0
 79 53  1  0
 79 80  1  0
 79 89  1  0
 80 83  1  0
 81 85  1  0
 81 80  1  0
 82 81  2  0
 85 84  1  0
 87 85  1  0
 87 88  1  0
 87 86  1  0
 89 92  1  1
 89 90  1  0
 91 89  1  0
M  ISO  4  13 100  21 100  51 101  52 101
M  END
>  <TORSDO>  (6) 
F 17

>  <SCORE>  (6) 
-16.159

>  <name>  (6) 
5

>  <ligand_id>  (6) 
5

>  <original_smiles>  (6) 
[H]c1c([H])c([H])c2c(c1[H])C([H])([H])C([H])([H])C([H])([H])C2([H])N([H])C(=O)C1([H])N(C(=O)C([H])(N([H])C(=O)C([H])(N([H])C([H])([H])[H])C([H])([H])[H])C(C([H])([H])[H])(C([H])([H])[H])C([H])([H])[H])C([H])([H])c2c([H])c(OC([H])([H])c3c(N4C([H])([H])C([H])(N([H])C(=O)N5C([H])([H])C([H])([H])C([H])([H])C([H])(n6nc(-c7c([H])c([H])c(Oc8c([H])c([H])c(F)c([H])c8F)c([H])c7[H])c(C(=O)N([H])[H])c6N([H])[H])C5([H])[H])C4([H])[H])nc(C([H])([H])[H])nc3C([H])([H])[H])c([H])c([H])c2C1([H])[H]

>  <smiles>  (6) 
[H]c1c([H])c([H])c2c(c1[H])C([H])([H])C([H])([H])C([H])([H])C2([H])N([H])C(=O)C1([H])N(C(=O)C([H])(N([H])C(=O)C([H])(N([H])C([H])([H])[H])C([H])([H])[H])C(C([H])([H])[H])(C([H])([H])[H])C([H])([H])[H])C([H])([H])c2c([H])c(OC([H])([H])c3c(N4C([H])([H])C([H])(N([H])C(=O)N5C([H])([H])C([H])([H])C([H])([H])C([H])(n6nc(-c7c([H])c([H])c(Oc8c([H])c([H])c(F)c([H])c8F)c([H])c7[H])c(C(=O)N([H])[H])c6N([H])[H])C5([H])[H])C4([H])[H])nc(C([H])([H])[H])nc3C([H])([H])[H])c([H])c([H])c2C1([H])[H]

$$$$
6:0:0
     RDKit          3D

 91100  0  0  1  0  0  0  0  0999 V2000
  -29.6500  -21.4360   21.7320 C   0  0  0  0  0  3  0  0  0  0  0  0
  -29.4510  -20.5110   20.6510 C   0  0  0  0  0  0  0  0  0  0  0  0
  -29.3570  -22.8530   21.6650 C   0  0  0  0  0  0  0  0  0  0  0  0
  -29.0750  -21.2400   19.4690 C   0  0  0  0  0  0  0  0  0  0  0  0
  -28.8070  -23.4450   20.4850 C   0  0  0  0  0  0  0  0  0  0  0  0
  -29.5960  -23.7050   22.9030 C   0  0  0  0  0  1  0  0  0  0  0  0
  -28.9930  -20.5630   18.1150 C   0  0  0  0  0  1  0  0  0  0  0  0
  -28.7480  -22.5870   19.4170 N   0  0  0  0  0  0  0  0  0  0  0  0
  -28.5730  -18.0210   20.1260 C   0  0  0  0  0  2  0  0  0  0  0  0
  -29.4990  -18.8900   20.9180 C   0  0  0  0  0  3  0  0  0  0  0  0
  -29.9790  -17.4850   20.1770 C   0  0  0  0  0  3  0  0  0  0  0  0
  -30.5960  -14.8800   20.2200 C   0  0  0  0  0  0  0  0  0  0  0  0
  -30.3580  -12.5940   19.1950 C   0  0  0  0  0  2  0  0  0  0  0  0
  -29.3830  -12.6430   17.9960 C   0  0  0  0  0  2  0  0  0  0  0  0
  -27.9250  -12.4750   18.4630 C   0  0  0  0  0  2  0  0  0  0  0  0
  -27.5850  -13.3490   19.6990 C   0  0  0  0  0  3  0  0  0  0  0  0
  -28.6780  -13.2780   20.7890 C   0  0  0  0  0  2  0  0  0  0  0  0
  -29.9600  -13.6480   20.1680 N   0  0  0  0  0  0  0  0  0  0  0  0
  -31.7350  -14.9870   19.7590 O   0  0  0  0  0  0  0  0  0  0  0  0
  -29.8660  -16.0160   20.5880 N   0  0  0  0  0  0  0  0  0  0  0  0
  -28.9810  -15.7840   21.0120 H   0  0  0  0  0  0  0  0  0  0  0  0
  -25.2210  -13.9190   20.5180 C   0  0  0  0  0  0  0  0  0  0  0  0
  -24.1640  -13.1370   20.9050 C   0  0  0  0  0  0  0  0  0  0  0  0
  -24.6220  -11.7870   20.8270 C   0  0  0  0  0  0  0  0  0  0  0  0
  -26.2530  -13.0430   20.2240 N   0  0  0  0  0  0  0  0  0  0  0  0
  -25.9020  -11.7540   20.4740 N   0  0  0  0  0  0  0  0  0  0  0  0
  -23.8960  -10.5210   21.0130 C   0  0  0  0  0  0  0  0  0  0  0  0
  -24.3370   -9.5470   21.9350 C   0  0  0  0  0  3  0  0  0  0  0  0
  -23.6150   -8.3460   22.1110 C   0  0  0  0  0  3  0  0  0  0  0  0
  -22.4350   -8.1130   21.3640 C   0  0  0  0  0  0  0  0  0  0  0  0
  -22.0140   -9.0740   20.4300 C   0  0  0  0  0  3  0  0  0  0  0  0
  -22.7370  -10.2660   20.2520 C   0  0  0  0  0  3  0  0  0  0  0  0
  -21.6830   -6.9660   21.4510 O   0  0  0  0  0  0  0  0  0  0  0  0
  -21.6150   -6.2340   22.6100 C   0  0  0  0  0  0  0  0  0  0  0  0
  -21.1460   -6.7920   23.8190 C   0  0  0  0  0  3  0  0  0  0  0  0
  -21.0300   -5.9850   24.9690 C   0  0  0  0  0  3  0  0  0  0  0  0
  -21.3700   -4.6210   24.9090 C   0  0  0  0  0  0  0  0  0  0  0  0
  -21.8310   -4.0610   23.7050 C   0  0  0  0  0  3  0  0  0  0  0  0
  -21.9500   -4.8660   22.5580 C   0  0  0  0  0  0  0  0  0  0  0  0
  -22.3750   -4.3170   21.3950 F   0  0  0  0  0  0  0  0  0  0  0  0
  -21.2510   -3.8430   26.0120 F   0  0  0  0  0  0  0  0  0  0  0  0
  -22.7780  -13.6120   21.2320 C   0  0  0  0  0  0  0  0  0  0  0  0
  -22.0700  -12.8960   22.1020 N   0  0  0  0  0  0  0  0  0  0  0  0
  -22.3270  -14.6500   20.7490 O   0  0  0  0  0  0  0  0  0  0  0  0
  -22.4460  -12.0560   22.5170 H   0  0  0  0  0  0  0  0  0  0  0  0
  -21.1400  -13.1950   22.3570 H   0  0  0  0  0  0  0  0  0  0  0  0
  -25.3870  -15.2920   20.3720 N   0  0  0  0  0  0  0  0  0  0  0  0
  -24.6470  -15.9590   20.5550 H   0  0  0  0  0  0  0  0  0  0  0  0
  -26.2280  -15.7250   20.0100 H   0  0  0  0  0  0  0  0  0  0  0  0
  -27.8930  -24.8010   20.4070 C   0  0  0  0  0  2  0  0  0  0  0  0
  -28.2760  -26.2860   20.3300 O   0  0  0  0  0  0  0  0  0  0  0  0
  -24.6210  -31.9270   23.2470 C   0  0  0  0  0  0  0  0  0  0  0  0
  -27.2050  -27.2430   20.2450 C   0  0  0  0  0  0  0  0  0  0  0  0
  -23.4180  -30.5320   21.6070 C   0  0  0  0  0  3  0  0  0  0  0  0
  -24.8660  -28.9630   20.1920 C   0  0  0  0  0  0  0  0  0  0  0  0
  -25.9690  -30.8070   21.4410 C   0  0  0  0  0  2  0  0  0  0  0  0
  -26.0430  -29.4160   20.7990 C   0  0  0  0  0  0  0  0  0  0  0  0
  -27.2110  -28.5720   20.8150 C   0  0  0  0  0  3  0  0  0  0  0  0
  -25.9920  -26.8820   19.6010 C   0  0  0  0  0  3  0  0  0  0  0  0
  -24.8480  -27.7030   19.5830 C   0  0  0  0  0  3  0  0  0  0  0  0
  -23.6390  -29.8570   20.2290 C   0  0  0  0  0  2  0  0  0  0  0  0
  -24.6900  -31.1090   22.1540 N   0  0  0  0  0  0  0  0  0  0  0  0
  -23.5370  -32.2140   23.7770 O   0  0  0  0  0  0  0  0  0  0  0  0
  -22.7420  -29.5240   22.5700 C   0  0  0  0  0  0  0  0  0  0  0  0
  -21.4140  -29.3520   22.4450 N   0  0  0  0  0  0  0  0  0  0  0  0
  -23.4140  -28.8990   23.3950 O   0  0  0  0  0  0  0  0  0  0  0  0
  -20.9280  -29.9100   21.7570 H   0  0  0  0  0  0  0  0  0  0  0  0
  -18.0290  -28.1660   22.9570 C   0  0  0  0  0  0  0  0  0  0  0  0
  -20.5900  -28.4200   23.2190 C   0  0  0  0  0  3  0  0  0  0  0  0
  -20.6840  -26.9850   22.6470 C   0  0  0  0  0  2  0  0  0  0  0  0
  -19.5790  -26.6640   21.6370 C   0  0  0  0  0  2  0  0  0  0  0  0
  -18.1990  -26.8160   22.2830 C   0  0  0  0  0  2  0  0  0  0  0  0
  -19.1520  -28.9260   23.3830 C   0  0  0  0  0  0  0  0  0  0  0  0
  -18.9370  -30.1890   23.9750 C   0  0  0  0  0  3  0  0  0  0  0  0
  -17.6340  -30.6930   24.1440 C   0  0  0  0  0  3  0  0  0  0  0  0
  -16.5260  -29.9310   23.7340 C   0  0  0  0  0  3  0  0  0  0  0  0
  -16.7250  -28.6690   23.1450 C   0  0  0  0  0  3  0  0  0  0  0  0
  -25.9030  -32.5580   23.8710 C   0  0  0  0  0  3  0  0  0  0  0  0
  -25.5980  -33.9590   24.1980 N   0  0  0  0  0  0  0  0  0  0  0  0
  -25.9160  -35.0110   23.4310 C   0  0  0  0  0  0  0  0  0  0  0  0
  -26.5680  -34.9060   22.3890 O   0  0  0  0  0  0  0  0  0  0  0  0
  -25.0190  -34.1180   25.0100 H   0  0  0  0  0  0  0  0  0  0  0  0
  -24.1770  -36.8010   23.1070 C   0  0  0  0  0  1  0  0  0  0  0  0
  -25.4340  -36.4000   23.8950 C   0  0  0  0  0  3  0  0  0  0  0  0
  -27.5940  -37.2830   24.6670 C   0  0  0  0  0  1  0  0  0  0  0  0
  -26.4580  -37.4600   23.7650 N   0  0  0  0  0  0  0  0  0  0  0  0
  -26.0510  -38.3720   23.9520 H   0  0  0  0  0  0  0  0  0  0  0  0
  -26.4120  -31.7930   25.1530 C   0  0  1  0  0  0  0  0  0  0  0  0
  -25.3160  -31.5710   26.2200 C   0  0  0  0  0  1  0  0  0  0  0  0
  -26.9900  -30.4090   24.7750 C   0  0  0  0  0  1  0  0  0  0  0  0
  -27.5650  -32.5850   25.8140 C   0  0  0  0  0  1  0  0  0  0  0  0
  2  1  2  0
  3  1  1  0
  3  6  1  0
  4  2  1  0
  5  3  2  0
  7  4  1  0
  8  4  2  0
  8  5  1  0
  9 11  1  0
  9 10  1  0
 10  2  1  0
 11 20  1  0
 11 10  1  0
 12 20  1  0
 13 18  1  0
 14 15  1  0
 14 13  1  0
 16 15  1  0
 16 25  1  0
 16 17  1  0
 18 12  1  0
 18 17  1  0
 19 12  2  0
 20 21  1  0
 22 23  2  0
 23 42  1  0
 24 23  1  0
 24 27  1  0
 25 26  1  0
 25 22  1  0
 26 24  2  0
 27 28  1  0
 28 29  2  0
 30 33  1  0
 30 29  1  0
 31 30  2  0
 32 31  1  0
 32 27  2  0
 33 34  1  0
 34 35  1  0
 35 36  2  0
 37 36  1  0
 37 41  1  0
 38 37  2  0
 39 34  2  0
 39 38  1  0
 40 39  1  0
 42 43  1  0
 43 46  1  0
 43 45  1  0
 44 42  2  0
 47 22  1  0
 47 48  1  0
 49 47  1  0
 50  5  1  0
 51 50  1  0
 52 63  2  0
 53 51  1  0
 53 58  1  0
 54 62  1  0
 54 64  1  0
 55 61  1  0
 55 57  1  0
 56 62  1  0
 57 58  2  0
 57 56  1  0
 59 53  2  0
 60 59  1  0
 60 55  2  0
 61 54  1  0
 62 52  1  0
 64 66  2  0
 65 64  1  0
 67 65  1  0
 68 77  2  0
 68 73  1  0
 69 65  1  0
 69 73  1  0
 70 69  1  0
 71 72  1  0
 71 70  1  0
 72 68  1  0
 73 74  2  0
 74 75  1  0
 76 75  2  0
 77 76  1  0
 78 52  1  0
 78 79  1  0
 78 88  1  0
 79 82  1  0
 80 84  1  0
 80 79  1  0
 81 80  2  0
 84 83  1  0
 86 84  1  0
 86 87  1  0
 86 85  1  0
 88 91  1  1
 88 89  1  0
 90 88  1  0
M  ISO  4  12 100  20 100  50 101  51 101
M  END
>  <TORSDO>  (7) 
F 18

>  <SCORE>  (7) 
-14.799

>  <name>  (7) 
6

>  <ligand_id>  (7) 
6

>  <original_smiles>  (7) 
[H]c1c([H])c([H])c2c(c1[H])C([H])([H])C([H])([H])C([H])([H])C2([H])N([H])C(=O)C1([H])N(C(=O)C([H])(N([H])C(=O)C([H])(N([H])C([H])([H])[H])C([H])([H])[H])C(C([H])([H])[H])(C([H])([H])[H])C([H])([H])[H])C([H])([H])c2c([H])c(OC([H])([H])c3nc(C([H])([H])[H])c(C4([H])C([H])([H])C4([H])N([H])C(=O)N4C([H])([H])C([H])([H])C([H])([H])C([H])(n5nc(-c6c([H])c([H])c(Oc7c([H])c([H])c(F)c([H])c7F)c([H])c6[H])c(C(=O)N([H])[H])c5N([H])[H])C4([H])[H])c([H])c3C([H])([H])[H])c([H])c([H])c2C1([H])[H]

>  <smiles>  (7) 
[H]c1c([H])c([H])c2c(c1[H])C([H])([H])C([H])([H])C([H])([H])C2([H])N([H])C(=O)C1([H])N(C(=O)C([H])(N([H])C(=O)C([H])(N([H])C([H])([H])[H])C([H])([H])[H])C(C([H])([H])[H])(C([H])([H])[H])C([H])([H])[H])C([H])([H])c2c([H])c(OC([H])([H])c3nc(C([H])([H])[H])c(C4([H])C([H])([H])C4([H])N([H])C(=O)N4C([H])([H])C([H])([H])C([H])([H])C([H])(n5nc(-c6c([H])c([H])c(Oc7c([H])c([H])c(F)c([H])c7F)c([H])c6[H])c(C(=O)N([H])[H])c5N([H])[H])C4([H])[H])c([H])c3C([H])([H])[H])c([H])c([H])c2C1([H])[H]

$$$$
7:0:0
     RDKit          3D

 96105  0  0  1  0  0  0  0  0999 V2000
  -29.6630  -23.4410   18.1310 C   0  0  0  0  0  3  0  0  0  0  0  0
  -30.2760  -22.1750   18.2520 C   0  0  0  0  0  0  0  0  0  0  0  0
  -29.4120  -24.2340   19.2700 C   0  0  0  0  0  0  0  0  0  0  0  0
  -30.6160  -21.7000   19.5400 C   0  0  0  0  0  0  0  0  0  0  0  0
  -29.7580  -23.6670   20.5230 C   0  0  0  0  0  0  0  0  0  0  0  0
  -30.5800  -21.3760   16.9930 C   0  0  0  0  0  1  0  0  0  0  0  0
  -29.5320  -24.3920   21.8370 C   0  0  0  0  0  1  0  0  0  0  0  0
  -30.3370  -22.4390   20.6420 N   0  0  0  0  0  0  0  0  0  0  0  0
  -28.8110  -25.6380   19.0200 C   0  0  0  0  0  2  0  0  0  0  0  0
  -28.4280  -26.4390   20.1570 O   0  0  0  0  0  0  0  0  0  0  0  0
  -24.6130  -31.6410   23.2190 C   0  0  0  0  0  0  0  0  0  0  0  0
  -27.2500  -27.1730   20.1280 C   0  0  0  0  0  0  0  0  0  0  0  0
  -23.4070  -30.2500   21.5690 C   0  0  0  0  0  3  0  0  0  0  0  0
  -24.8570  -28.7070   20.1480 C   0  0  0  0  0  0  0  0  0  0  0  0
  -25.9380  -30.5880   21.3850 C   0  0  0  0  0  2  0  0  0  0  0  0
  -26.0180  -29.2160   20.7410 C   0  0  0  0  0  0  0  0  0  0  0  0
  -27.2110  -28.4540   20.7350 C   0  0  0  0  0  3  0  0  0  0  0  0
  -26.0540  -26.6700   19.5610 C   0  0  0  0  0  3  0  0  0  0  0  0
  -24.8710  -27.4320   19.5590 C   0  0  0  0  0  3  0  0  0  0  0  0
  -23.6190  -29.5730   20.1880 C   0  0  0  0  0  2  0  0  0  0  0  0
  -24.6710  -30.8410   22.1150 N   0  0  0  0  0  0  0  0  0  0  0  0
  -23.5290  -31.9190   23.7530 O   0  0  0  0  0  0  0  0  0  0  0  0
  -22.7450  -29.2300   22.5240 C   0  0  0  0  0  0  0  0  0  0  0  0
  -21.4250  -29.0350   22.3710 N   0  0  0  0  0  0  0  0  0  0  0  0
  -23.4180  -28.6170   23.3570 O   0  0  0  0  0  0  0  0  0  0  0  0
  -20.9440  -29.5810   21.6700 H   0  0  0  0  0  0  0  0  0  0  0  0
  -18.0590  -27.7850   22.7840 C   0  0  0  0  0  0  0  0  0  0  0  0
  -20.6010  -28.0970   23.1330 C   0  0  0  0  0  3  0  0  0  0  0  0
  -20.7490  -26.6570   22.5880 C   0  0  0  0  0  2  0  0  0  0  0  0
  -19.6870  -26.2950   21.5440 C   0  0  0  0  0  2  0  0  0  0  0  0
  -18.2820  -26.4260   22.1400 C   0  0  0  0  0  2  0  0  0  0  0  0
  -19.1490  -28.5750   23.2350 C   0  0  0  0  0  0  0  0  0  0  0  0
  -18.8870  -29.8450   23.7940 C   0  0  0  0  0  3  0  0  0  0  0  0
  -17.5700  -30.3260   23.9070 C   0  0  0  0  0  3  0  0  0  0  0  0
  -16.4940  -29.5340   23.4710 C   0  0  0  0  0  3  0  0  0  0  0  0
  -16.7390  -28.2650   22.9150 C   0  0  0  0  0  3  0  0  0  0  0  0
  -25.8990  -32.2640   23.8440 C   0  0  0  0  0  3  0  0  0  0  0  0
  -26.3930  -31.5030   25.1360 C   0  0  1  0  0  0  0  0  0  0  0  0
  -25.2860  -31.2910   26.1930 C   0  0  0  0  0  1  0  0  0  0  0  0
  -26.9660  -30.1140   24.7660 C   0  0  0  0  0  1  0  0  0  0  0  0
  -27.5460  -32.2920   25.8000 C   0  0  0  0  0  1  0  0  0  0  0  0
  -25.6050  -33.6710   24.1530 N   0  0  0  0  0  0  0  0  0  0  0  0
  -25.9350  -34.7060   23.3690 C   0  0  0  0  0  0  0  0  0  0  0  0
  -26.5930  -34.5790   22.3320 O   0  0  0  0  0  0  0  0  0  0  0  0
  -25.0190  -33.8440   24.9570 H   0  0  0  0  0  0  0  0  0  0  0  0
  -24.2140  -36.5020   22.9980 C   0  0  0  0  0  1  0  0  0  0  0  0
  -25.4610  -36.1060   23.8050 C   0  0  0  0  0  3  0  0  0  0  0  0
  -27.6090  -36.9910   24.5980 C   0  0  0  0  0  1  0  0  0  0  0  0
  -26.4990  -37.1490   23.6620 N   0  0  0  0  0  0  0  0  0  0  0  0
  -26.1000  -38.0740   23.7970 H   0  0  0  0  0  0  0  0  0  0  0  0
  -31.4040  -20.3870   19.7520 C   0  0  0  0  0  2  0  0  0  0  0  0
  -31.4510  -17.7440   19.6620 C   0  0  0  0  0  2  0  0  0  0  0  0
  -30.3170  -16.7260   19.7780 C   0  0  0  0  0  3  0  0  0  0  0  0
  -30.6350  -19.0530   19.5260 C   0  0  0  0  0  3  0  0  0  0  0  0
  -29.3430  -17.4840   20.7100 C   0  0  1  0  0  0  0  0  0  0  0  0
  -27.8730  -17.1710   20.4100 C   0  0  0  0  0  1  0  0  0  0  0  0
  -29.6430  -17.2790   22.2060 C   0  0  0  0  0  1  0  0  0  0  0  0
  -29.5630  -18.8730   20.4490 O   0  0  0  0  0  0  0  0  0  0  0  0
  -31.2110  -14.3470   19.5880 C   0  0  0  0  0  0  0  0  0  0  0  0
  -30.7860  -12.1380   18.5680 C   0  0  0  0  0  2  0  0  0  0  0  0
  -29.7440  -12.3200   17.4410 C   0  0  0  0  0  2  0  0  0  0  0  0
  -28.3060  -12.2570   17.9950 C   0  0  0  0  0  2  0  0  0  0  0  0
  -28.1090  -13.1600   19.2420 C   0  0  0  0  0  3  0  0  0  0  0  0
  -29.2420  -12.9220   20.2670 C   0  0  0  0  0  2  0  0  0  0  0  0
  -30.5330  -13.1640   19.5930 N   0  0  0  0  0  0  0  0  0  0  0  0
  -32.2390  -14.5340   18.9340 O   0  0  0  0  0  0  0  0  0  0  0  0
  -30.5800  -15.3440   20.2340 N   0  0  0  0  0  0  0  0  0  0  0  0
  -29.8610  -14.9960   20.8490 H   0  0  0  0  0  0  0  0  0  0  0  0
  -25.8300  -13.9150   20.1790 C   0  0  0  0  0  0  0  0  0  0  0  0
  -24.7500  -13.2110   20.6390 C   0  0  0  0  0  0  0  0  0  0  0  0
  -25.1080  -11.8320   20.5370 C   0  0  0  0  0  0  0  0  0  0  0  0
  -26.7860  -12.9710   19.8370 N   0  0  0  0  0  0  0  0  0  0  0  0
  -26.3580  -11.7100   20.1060 N   0  0  0  0  0  0  0  0  0  0  0  0
  -24.3150  -10.6190   20.7730 C   0  0  0  0  0  0  0  0  0  0  0  0
  -24.7180   -9.6440   21.7110 C   0  0  0  0  0  3  0  0  0  0  0  0
  -23.9310   -8.4940   21.9310 C   0  0  0  0  0  3  0  0  0  0  0  0
  -22.7250   -8.3120   21.2130 C   0  0  0  0  0  0  0  0  0  0  0  0
  -22.3390   -9.2760   20.2650 C   0  0  0  0  0  3  0  0  0  0  0  0
  -23.1280  -10.4170   20.0420 C   0  0  0  0  0  3  0  0  0  0  0  0
  -21.9080   -7.2150   21.3450 O   0  0  0  0  0  0  0  0  0  0  0  0
  -21.7800   -6.5510   22.5380 C   0  0  0  0  0  0  0  0  0  0  0  0
  -21.3520   -7.2070   23.7130 C   0  0  0  0  0  3  0  0  0  0  0  0
  -21.1660   -6.4720   24.9010 C   0  0  0  0  0  3  0  0  0  0  0  0
  -21.3990   -5.0830   24.9140 C   0  0  0  0  0  0  0  0  0  0  0  0
  -21.8210   -4.4280   23.7440 C   0  0  0  0  0  3  0  0  0  0  0  0
  -22.0070   -5.1600   22.5580 C   0  0  0  0  0  0  0  0  0  0  0  0
  -22.3930   -4.5210   21.4280 F   0  0  0  0  0  0  0  0  0  0  0  0
  -21.2150   -4.3760   26.0530 F   0  0  0  0  0  0  0  0  0  0  0  0
  -23.4230  -13.7790   21.0560 C   0  0  0  0  0  0  0  0  0  0  0  0
  -22.7440  -13.1250   21.9920 N   0  0  0  0  0  0  0  0  0  0  0  0
  -23.0020  -14.8350   20.5860 O   0  0  0  0  0  0  0  0  0  0  0  0
  -23.0980  -12.2710   22.3960 H   0  0  0  0  0  0  0  0  0  0  0  0
  -21.8570  -13.4870   22.3120 H   0  0  0  0  0  0  0  0  0  0  0  0
  -26.0670  -15.2730   20.0020 N   0  0  0  0  0  0  0  0  0  0  0  0
  -25.3640  -15.9750   20.2050 H   0  0  0  0  0  0  0  0  0  0  0  0
  -26.9080  -15.6580   19.5950 H   0  0  0  0  0  0  0  0  0  0  0  0
  1  2  2  0
  1  3  1  0
  2  4  1  0
  3  5  2  0
  4 51  1  0
  4  8  2  0
  5  8  1  0
  5  7  1  0
  6  2  1  0
  9  3  1  0
  9 10  1  0
 11 22  2  0
 12 10  1  0
 12 17  1  0
 13 21  1  0
 13 23  1  0
 14 20  1  0
 14 16  1  0
 15 21  1  0
 16 15  1  0
 17 16  2  0
 18 12  2  0
 19 18  1  0
 19 14  2  0
 20 13  1  0
 21 11  1  0
 23 25  2  0
 24 23  1  0
 26 24  1  0
 27 36  2  0
 27 32  1  0
 28 24  1  0
 28 32  1  0
 29 28  1  0
 30 31  1  0
 30 29  1  0
 31 27  1  0
 32 33  2  0
 33 34  1  0
 35 34  2  0
 36 35  1  0
 37 11  1  0
 37 42  1  0
 37 38  1  0
 38 41  1  1
 38 39  1  0
 40 38  1  0
 42 45  1  0
 43 47  1  0
 43 42  1  0
 44 43  2  0
 47 46  1  0
 49 50  1  0
 49 47  1  0
 49 48  1  0
 52 53  1  0
 53 67  1  0
 53 55  1  0
 54 52  1  0
 54 51  1  0
 54 58  1  0
 55 57  1  1
 56 55  1  0
 58 55  1  0
 59 65  1  0
 59 67  1  0
 60 65  1  0
 61 62  1  0
 61 60  1  0
 63 62  1  0
 63 72  1  0
 63 64  1  0
 65 64  1  0
 66 59  2  0
 67 68  1  0
 69 70  2  0
 70 89  1  0
 71 70  1  0
 71 74  1  0
 72 73  1  0
 72 69  1  0
 73 71  2  0
 74 75  1  0
 75 76  2  0
 77 80  1  0
 77 76  1  0
 78 77  2  0
 79 78  1  0
 79 74  2  0
 80 81  1  0
 81 86  2  0
 81 82  1  0
 82 83  2  0
 83 84  1  0
 84 88  1  0
 85 84  2  0
 86 85  1  0
 87 86  1  0
 89 90  1  0
 90 93  1  0
 90 92  1  0
 91 89  2  0
 94 69  1  0
 94 95  1  0
 96 94  1  0
M  ISO  4   9 101  10 101  59 100  67 100
M  END
>  <TORSDO>  (8) 
F 19

>  <SCORE>  (8) 
-12.852

>  <name>  (8) 
7

>  <ligand_id>  (8) 
7

>  <original_smiles>  (8) 
[H]c1c([H])c([H])c2c(c1[H])C([H])([H])C([H])([H])C([H])([H])C2([H])N([H])C(=O)C1([H])N(C(=O)C([H])(N([H])C(=O)C([H])(N([H])C([H])([H])[H])C([H])([H])[H])C(C([H])([H])[H])(C([H])([H])[H])C([H])([H])[H])C([H])([H])c2c([H])c(OC([H])([H])c3c(C([H])([H])[H])nc(C([H])([H])C4([H])OC(C([H])([H])[H])(C([H])([H])[H])C([H])(N([H])C(=O)N5C([H])([H])C([H])([H])C([H])([H])C([H])(n6nc(-c7c([H])c([H])c(Oc8c([H])c([H])c(F)c([H])c8F)c([H])c7[H])c(C(=O)N([H])[H])c6N([H])[H])C5([H])[H])C4([H])[H])c(C([H])([H])[H])c3[H])c([H])c([H])c2C1([H])[H]

>  <smiles>  (8) 
[H]c1c([H])c([H])c2c(c1[H])C([H])([H])C([H])([H])C([H])([H])C2([H])N([H])C(=O)C1([H])N(C(=O)C([H])(N([H])C(=O)C([H])(N([H])C([H])([H])[H])C([H])([H])[H])C(C([H])([H])[H])(C([H])([H])[H])C([H])([H])[H])C([H])([H])c2c([H])c(OC([H])([H])c3c(C([H])([H])[H])nc(C([H])([H])C4([H])OC(C([H])([H])[H])(C([H])([H])[H])C([H])(N([H])C(=O)N5C([H])([H])C([H])([H])C([H])([H])C([H])(n6nc(-c7c([H])c([H])c(Oc8c([H])c([H])c(F)c([H])c8F)c([H])c7[H])c(C(=O)N([H])[H])c6N([H])[H])C5([H])[H])C4([H])[H])c(C([H])([H])[H])c3[H])c([H])c([H])c2C1([H])[H]

$$$$
8:0:0
     RDKit          3D

 94103  0  0  1  0  0  0  0  0999 V2000
  -28.1600  -21.7100   20.5290 C   0  0  0  0  0  3  0  0  0  0  0  0
  -27.8740  -23.0990   20.3620 C   0  0  0  0  0  0  0  0  0  0  0  0
  -29.3980  -21.1600   20.0970 C   0  0  0  0  0  0  0  0  0  0  0  0
  -28.8310  -23.9570   19.7560 C   0  0  0  0  0  0  0  0  0  0  0  0
  -30.3040  -22.1160   19.5640 C   0  0  0  0  0  0  0  0  0  0  0  0
  -26.5220  -23.6320   20.8020 C   0  0  0  0  0  1  0  0  0  0  0  0
  -30.0320  -23.4410   19.3970 N   0  0  0  0  0  0  0  0  0  0  0  0
  -32.7610  -22.0140   20.1790 C   0  0  0  0  0  1  0  0  0  0  0  0
  -31.6990  -21.6970   19.1200 C   0  0  0  0  0  2  0  0  0  0  0  0
  -28.5280  -25.4130   19.2360 C   0  0  0  0  0  2  0  0  0  0  0  0
  -28.3270  -26.5320   20.1670 O   0  0  0  0  0  0  0  0  0  0  0  0
  -24.6100  -31.8510   23.2590 C   0  0  0  0  0  0  0  0  0  0  0  0
  -27.1860  -27.3440   20.1110 C   0  0  0  0  0  0  0  0  0  0  0  0
  -23.3870  -30.4810   21.6080 C   0  0  0  0  0  3  0  0  0  0  0  0
  -24.8190  -28.9480   20.1500 C   0  0  0  0  0  0  0  0  0  0  0  0
  -25.9250  -30.7940   21.4120 C   0  0  0  0  0  2  0  0  0  0  0  0
  -25.9920  -29.4260   20.7470 C   0  0  0  0  0  0  0  0  0  0  0  0
  -27.1730  -28.6310   20.7280 C   0  0  0  0  0  3  0  0  0  0  0  0
  -25.9830  -26.9090   19.5060 C   0  0  0  0  0  3  0  0  0  0  0  0
  -24.8160  -27.6930   19.5250 C   0  0  0  0  0  3  0  0  0  0  0  0
  -23.5870  -29.8250   20.2160 C   0  0  0  0  0  2  0  0  0  0  0  0
  -24.6600  -31.0580   22.1490 N   0  0  0  0  0  0  0  0  0  0  0  0
  -23.5330  -32.1280   23.8040 O   0  0  0  0  0  0  0  0  0  0  0  0
  -22.7280  -29.4540   22.5570 C   0  0  0  0  0  0  0  0  0  0  0  0
  -21.3990  -29.2860   22.4350 N   0  0  0  0  0  0  0  0  0  0  0  0
  -23.4080  -28.8120   23.3620 O   0  0  0  0  0  0  0  0  0  0  0  0
  -20.9110  -29.8550   21.7580 H   0  0  0  0  0  0  0  0  0  0  0  0
  -18.0170  -28.1120   22.9380 C   0  0  0  0  0  0  0  0  0  0  0  0
  -20.5780  -28.3450   23.1980 C   0  0  0  0  0  3  0  0  0  0  0  0
  -20.6660  -26.9210   22.6020 C   0  0  0  0  0  2  0  0  0  0  0  0
  -19.5560  -26.6210   21.5900 C   0  0  0  0  0  2  0  0  0  0  0  0
  -18.1780  -26.7710   22.2430 C   0  0  0  0  0  2  0  0  0  0  0  0
  -19.1450  -28.8590   23.3720 C   0  0  0  0  0  0  0  0  0  0  0  0
  -18.9400  -30.1150   23.9820 C   0  0  0  0  0  3  0  0  0  0  0  0
  -17.6410  -30.6260   24.1620 C   0  0  0  0  0  3  0  0  0  0  0  0
  -16.5280  -29.8760   23.7440 C   0  0  0  0  0  3  0  0  0  0  0  0
  -16.7160  -28.6210   23.1390 C   0  0  0  0  0  3  0  0  0  0  0  0
  -25.9020  -32.4660   23.8810 C   0  0  0  0  0  3  0  0  0  0  0  0
  -26.4190  -31.6750   25.1450 C   0  0  1  0  0  0  0  0  0  0  0  0
  -25.3290  -31.4300   26.2140 C   0  0  0  0  0  1  0  0  0  0  0  0
  -26.9930  -30.2980   24.7340 C   0  0  0  0  0  1  0  0  0  0  0  0
  -27.5780  -32.4540   25.8110 C   0  0  0  0  0  1  0  0  0  0  0  0
  -25.6040  -33.8620   24.2280 N   0  0  0  0  0  0  0  0  0  0  0  0
  -25.9190  -34.9200   23.4700 C   0  0  0  0  0  0  0  0  0  0  0  0
  -26.5630  -34.8250   22.4210 O   0  0  0  0  0  0  0  0  0  0  0  0
  -25.0280  -34.0120   25.0440 H   0  0  0  0  0  0  0  0  0  0  0  0
  -24.1770  -36.7120   23.1790 C   0  0  0  0  0  1  0  0  0  0  0  0
  -25.4430  -36.3050   23.9500 C   0  0  0  0  0  3  0  0  0  0  0  0
  -27.6050  -37.1850   24.7140 C   0  0  0  0  0  1  0  0  0  0  0  0
  -26.4670  -37.3650   23.8170 N   0  0  0  0  0  0  0  0  0  0  0  0
  -26.0620  -38.2780   24.0050 H   0  0  0  0  0  0  0  0  0  0  0  0
  -29.8020  -19.8090   20.1820 O   0  0  0  0  0  0  0  0  0  0  0  0
  -30.7150  -14.6210   19.9640 C   0  0  0  0  0  0  0  0  0  0  0  0
  -30.3840  -12.4060   18.9100 C   0  0  0  0  0  2  0  0  0  0  0  0
  -29.3740  -12.5520   17.7540 C   0  0  0  0  0  2  0  0  0  0  0  0
  -27.9320  -12.3970   18.2750 C   0  0  0  0  0  2  0  0  0  0  0  0
  -27.6520  -13.2560   19.5380 C   0  0  0  0  0  3  0  0  0  0  0  0
  -28.7790  -13.1210   20.5850 C   0  0  0  0  0  2  0  0  0  0  0  0
  -30.0440  -13.4330   19.9120 N   0  0  0  0  0  0  0  0  0  0  0  0
  -31.8820  -14.7120   19.5650 O   0  0  0  0  0  0  0  0  0  0  0  0
  -28.7440  -17.7790   19.1400 C   0  0  0  0  0  2  0  0  0  0  0  0
  -29.2910  -17.7780   21.5820 C   0  0  0  0  0  2  0  0  0  0  0  0
  -29.8200  -16.6570   18.9780 C   0  0  0  0  0  2  0  0  0  0  0  0
  -30.3420  -16.6580   21.2840 C   0  0  0  0  0  2  0  0  0  0  0  0
  -28.8910  -18.6890   20.3880 C   0  0  0  0  0  3  0  0  0  0  0  0
  -29.9770  -15.7690   20.1570 N   0  0  0  0  0  0  0  0  0  0  0  0
  -25.3180  -13.8390   20.4330 C   0  0  0  0  0  0  0  0  0  0  0  0
  -24.2740  -13.0560   20.8470 C   0  0  0  0  0  0  0  0  0  0  0  0
  -24.7280  -11.7060   20.7510 C   0  0  0  0  0  0  0  0  0  0  0  0
  -26.3410  -12.9630   20.1080 N   0  0  0  0  0  0  0  0  0  0  0  0
  -25.9970  -11.6740   20.3610 N   0  0  0  0  0  0  0  0  0  0  0  0
  -24.0110  -10.4390   20.9530 C   0  0  0  0  0  0  0  0  0  0  0  0
  -24.4510   -9.4830   21.8950 C   0  0  0  0  0  3  0  0  0  0  0  0
  -23.7320   -8.2820   22.0840 C   0  0  0  0  0  3  0  0  0  0  0  0
  -22.5600   -8.0300   21.3310 C   0  0  0  0  0  0  0  0  0  0  0  0
  -22.1400   -8.9750   20.3790 C   0  0  0  0  0  3  0  0  0  0  0  0
  -22.8590  -10.1670   20.1890 C   0  0  0  0  0  3  0  0  0  0  0  0
  -21.8130   -6.8810   21.4300 O   0  0  0  0  0  0  0  0  0  0  0  0
  -21.7060   -6.1910   22.6100 C   0  0  0  0  0  0  0  0  0  0  0  0
  -21.1760   -6.7860   23.7770 C   0  0  0  0  0  3  0  0  0  0  0  0
  -21.0200   -6.0200   24.9490 C   0  0  0  0  0  3  0  0  0  0  0  0
  -21.3820   -4.6600   24.9560 C   0  0  0  0  0  0  0  0  0  0  0  0
  -21.9050   -4.0640   23.7950 C   0  0  0  0  0  3  0  0  0  0  0  0
  -22.0630   -4.8270   22.6250 C   0  0  0  0  0  0  0  0  0  0  0  0
  -22.5470   -4.2420   21.5030 F   0  0  0  0  0  0  0  0  0  0  0  0
  -21.2250   -3.9220   26.0810 F   0  0  0  0  0  0  0  0  0  0  0  0
  -22.8990  -13.5280   21.2210 C   0  0  0  0  0  0  0  0  0  0  0  0
  -22.2280  -12.8130   22.1160 N   0  0  0  0  0  0  0  0  0  0  0  0
  -22.4300  -14.5660   20.7530 O   0  0  0  0  0  0  0  0  0  0  0  0
  -22.6220  -11.9720   22.5130 H   0  0  0  0  0  0  0  0  0  0  0  0
  -21.3090  -13.1120   22.4120 H   0  0  0  0  0  0  0  0  0  0  0  0
  -25.4790  -15.2130   20.2850 N   0  0  0  0  0  0  0  0  0  0  0  0
  -24.7330  -15.8730   20.4770 H   0  0  0  0  0  0  0  0  0  0  0  0
  -26.3270  -15.6540   19.9560 H   0  0  0  0  0  0  0  0  0  0  0  0
  2  1  1  0
  2  6  1  0
  3 52  1  0
  3  1  2  0
  4  2  2  0
  5  3  1  0
  7  5  2  0
  7  4  1  0
  9  5  1  0
  9  8  1  0
 10  4  1  0
 10 11  1  0
 12 23  2  0
 13 11  1  0
 13 18  1  0
 14 22  1  0
 14 24  1  0
 15 21  1  0
 15 17  1  0
 16 22  1  0
 17 16  1  0
 18 17  2  0
 19 20  1  0
 19 13  2  0
 20 15  2  0
 21 14  1  0
 22 12  1  0
 24 26  2  0
 25 24  1  0
 27 25  1  0
 28 37  2  0
 28 33  1  0
 29 25  1  0
 29 33  1  0
 30 29  1  0
 31 32  1  0
 31 30  1  0
 32 28  1  0
 33 34  2  0
 34 35  1  0
 36 35  2  0
 37 36  1  0
 38 12  1  0
 38 43  1  0
 38 39  1  0
 39 42  1  1
 39 40  1  0
 41 39  1  0
 43 46  1  0
 44 48  1  0
 44 43  1  0
 45 44  2  0
 48 47  1  0
 50 48  1  0
 50 51  1  0
 50 49  1  0
 53 66  1  0
 54 59  1  0
 55 56  1  0
 55 54  1  0
 57 56  1  0
 57 70  1  0
 57 58  1  0
 59 53  1  0
 59 58  1  0
 60 53  2  0
 61 65  1  0
 63 61  1  0
 63 66  1  0
 64 62  1  0
 65 52  1  0
 65 62  1  0
 66 64  1  0
 67 68  2  0
 68 87  1  0
 69 68  1  0
 69 72  1  0
 70 71  1  0
 70 67  1  0
 71 69  2  0
 72 73  1  0
 73 74  2  0
 75 78  1  0
 75 74  1  0
 76 75  2  0
 77 76  1  0
 77 72  2  0
 78 79  1  0
 79 84  2  0
 79 80  1  0
 80 81  2  0
 81 82  1  0
 82 86  1  0
 83 82  2  0
 84 83  1  0
 85 84  1  0
 87 88  1  0
 88 91  1  0
 88 90  1  0
 89 87  2  0
 92 67  1  0
 92 93  1  0
 94 92  1  0
M  ISO  4  10 101  11 101  53 100  66 100
M  END
>  <TORSDO>  (9) 
F 19

>  <SCORE>  (9) 
-13.900

>  <name>  (9) 
8

>  <ligand_id>  (9) 
8

>  <original_smiles>  (9) 
[H]c1c([H])c([H])c2c(c1[H])C([H])([H])C([H])([H])C([H])([H])C2([H])N([H])C(=O)C1([H])N(C(=O)C([H])(N([H])C(=O)C([H])(N([H])C([H])([H])[H])C([H])([H])[H])C(C([H])([H])[H])(C([H])([H])[H])C([H])([H])[H])C([H])([H])c2c([H])c(OC([H])([H])c3nc(C([H])([H])C([H])([H])[H])c(OC4([H])C([H])([H])C([H])([H])N(C(=O)N5C([H])([H])C([H])([H])C([H])([H])C([H])(n6nc(-c7c([H])c([H])c(Oc8c([H])c([H])c(F)c([H])c8F)c([H])c7[H])c(C(=O)N([H])[H])c6N([H])[H])C5([H])[H])C([H])([H])C4([H])[H])c([H])c3C([H])([H])[H])c([H])c([H])c2C1([H])[H]

>  <smiles>  (9) 
[H]c1c([H])c([H])c2c(c1[H])C([H])([H])C([H])([H])C([H])([H])C2([H])N([H])C(=O)C1([H])N(C(=O)C([H])(N([H])C(=O)C([H])(N([H])C([H])([H])[H])C([H])([H])[H])C(C([H])([H])[H])(C([H])([H])[H])C([H])([H])[H])C([H])([H])c2c([H])c(OC([H])([H])c3nc(C([H])([H])C([H])([H])[H])c(OC4([H])C([H])([H])C([H])([H])N(C(=O)N5C([H])([H])C([H])([H])C([H])([H])C([H])(n6nc(-c7c([H])c([H])c(Oc8c([H])c([H])c(F)c([H])c8F)c([H])c7[H])c(C(=O)N([H])[H])c6N([H])[H])C5([H])[H])C([H])([H])C4([H])[H])c([H])c3C([H])([H])[H])c([H])c([H])c2C1([H])[H]

$$$$
9:0:0
     RDKit          3D

 98107  0  0  1  0  0  0  0  0999 V2000
  -29.1950  -23.6900   21.4110 C   0  0  0  0  0  3  0  0  0  0  0  0
  -29.4640  -22.3280   21.7250 C   0  0  0  0  0  0  0  0  0  0  0  0
  -28.9370  -24.1110   20.0890 C   0  0  0  0  0  0  0  0  0  0  0  0
  -29.1550  -23.1500   19.0600 C   0  0  0  0  0  0  0  0  0  0  0  0
  -29.3210  -21.7600   19.3710 C   0  0  0  0  0  0  0  0  0  0  0  0
  -29.3980  -21.3070   20.7270 C   0  0  0  0  0  0  0  0  0  0  0  0
  -29.7340  -21.9910   23.1800 C   0  0  0  0  0  1  0  0  0  0  0  0
  -29.1100  -23.6020   17.6020 C   0  0  0  0  0  1  0  0  0  0  0  0
  -29.3310  -20.7680   18.2140 C   0  0  0  0  0  1  0  0  0  0  0  0
  -29.1410  -19.8070   21.1460 C   0  0  0  0  0  2  0  0  0  0  0  0
  -30.1830  -18.6370   20.8890 C   0  0  0  0  0  2  0  0  0  0  0  0
  -30.9480  -15.0050   20.9070 C   0  0  0  0  0  0  0  0  0  0  0  0
  -30.6680  -12.8290   19.7830 C   0  0  0  0  0  2  0  0  0  0  0  0
  -29.8240  -12.9990   18.5070 C   0  0  0  0  0  2  0  0  0  0  0  0
  -28.3280  -12.8300   18.8390 C   0  0  0  0  0  2  0  0  0  0  0  0
  -27.8780  -13.6620   20.0730 C   0  0  0  0  0  3  0  0  0  0  0  0
  -28.8780  -13.5670   21.2480 C   0  0  0  0  0  2  0  0  0  0  0  0
  -30.2050  -13.8770   20.7050 N   0  0  0  0  0  0  0  0  0  0  0  0
  -32.1600  -14.8930   21.0760 O   0  0  0  0  0  0  0  0  0  0  0  0
  -31.5420  -16.5770   19.1400 C   0  0  0  0  0  2  0  0  0  0  0  0
  -28.7280  -17.3810   19.1270 C   0  0  0  0  0  2  0  0  0  0  0  0
  -29.5910  -17.2150   20.4210 C   0  0  0  0  0  3  0  0  0  0  0  0
  -30.8710  -16.9190   17.7940 C   0  0  0  0  0  3  0  0  0  0  0  0
  -31.5390  -18.1410   17.1410 C   0  0  0  0  0  1  0  0  0  0  0  0
  -30.5840  -16.1130   20.1630 N   0  0  0  0  0  0  0  0  0  0  0  0
  -29.3930  -17.0300   17.8450 N   0  0  0  0  0  4  0  0  0  0  0  0
  -29.0820  -17.6680   17.1300 H   0  0  0  0  0  0  0  0  0  0  0  0
  -29.0340  -16.1290   17.5760 H   0  0  0  0  0  0  0  0  0  0  0  0
  -25.4250  -14.2130   20.5880 C   0  0  0  0  0  0  0  0  0  0  0  0
  -24.3480  -13.4220   20.8790 C   0  0  0  0  0  0  0  0  0  0  0  0
  -24.8470  -12.0850   20.9340 C   0  0  0  0  0  0  0  0  0  0  0  0
  -26.5080  -13.3570   20.4710 N   0  0  0  0  0  0  0  0  0  0  0  0
  -26.1610  -12.0740   20.7470 N   0  0  0  0  0  0  0  0  0  0  0  0
  -24.1380  -10.8090   21.0960 C   0  0  0  0  0  0  0  0  0  0  0  0
  -24.5480   -9.8540   22.0510 C   0  0  0  0  0  3  0  0  0  0  0  0
  -23.8370   -8.6440   22.2020 C   0  0  0  0  0  3  0  0  0  0  0  0
  -22.7040   -8.3810   21.3970 C   0  0  0  0  0  0  0  0  0  0  0  0
  -22.3150   -9.3260   20.4300 C   0  0  0  0  0  3  0  0  0  0  0  0
  -23.0280  -10.5270   20.2770 C   0  0  0  0  0  3  0  0  0  0  0  0
  -21.9670   -7.2230   21.4570 O   0  0  0  0  0  0  0  0  0  0  0  0
  -21.8640   -6.4950   22.6150 C   0  0  0  0  0  0  0  0  0  0  0  0
  -21.3010   -7.0410   23.7910 C   0  0  0  0  0  3  0  0  0  0  0  0
  -21.1490   -6.2350   24.9380 C   0  0  0  0  0  3  0  0  0  0  0  0
  -21.5480   -4.8860   24.9090 C   0  0  0  0  0  0  0  0  0  0  0  0
  -22.1010   -4.3400   23.7370 C   0  0  0  0  0  3  0  0  0  0  0  0
  -22.2560   -5.1420   22.5940 C   0  0  0  0  0  0  0  0  0  0  0  0
  -22.7710   -4.6040   21.4610 F   0  0  0  0  0  0  0  0  0  0  0  0
  -21.3950   -4.1090   26.0080 F   0  0  0  0  0  0  0  0  0  0  0  0
  -22.9190  -13.8690   21.0050 C   0  0  0  0  0  0  0  0  0  0  0  0
  -22.1410  -13.2070   21.8540 N   0  0  0  0  0  0  0  0  0  0  0  0
  -22.4970  -14.8440   20.3840 O   0  0  0  0  0  0  0  0  0  0  0  0
  -22.4920  -12.4230   22.3820 H   0  0  0  0  0  0  0  0  0  0  0  0
  -21.1770  -13.4890   21.9760 H   0  0  0  0  0  0  0  0  0  0  0  0
  -25.5640  -15.5840   20.3940 N   0  0  0  0  0  0  0  0  0  0  0  0
  -24.7690  -16.2090   20.4590 H   0  0  0  0  0  0  0  0  0  0  0  0
  -26.4440  -16.0630   20.2830 H   0  0  0  0  0  0  0  0  0  0  0  0
  -28.0290  -25.3540   19.8230 C   0  0  0  0  0  2  0  0  0  0  0  0
  -28.3640  -26.7620   20.0920 O   0  0  0  0  0  0  0  0  0  0  0  0
  -24.5920  -32.0180   23.3220 C   0  0  0  0  0  0  0  0  0  0  0  0
  -27.2440  -27.6230   20.0750 C   0  0  0  0  0  0  0  0  0  0  0  0
  -23.3980  -30.6640   21.6500 C   0  0  0  0  0  3  0  0  0  0  0  0
  -24.8550  -29.2070   20.1540 C   0  0  0  0  0  0  0  0  0  0  0  0
  -25.9380  -31.0230   21.4630 C   0  0  0  0  0  2  0  0  0  0  0  0
  -26.0290  -29.6810   20.7520 C   0  0  0  0  0  0  0  0  0  0  0  0
  -27.2290  -28.9040   20.7030 C   0  0  0  0  0  3  0  0  0  0  0  0
  -26.0300  -27.2140   19.4580 C   0  0  0  0  0  3  0  0  0  0  0  0
  -24.8560  -27.9740   19.5030 C   0  0  0  0  0  3  0  0  0  0  0  0
  -23.6090  -30.0580   20.2420 C   0  0  0  0  0  2  0  0  0  0  0  0
  -24.6620  -31.2490   22.2020 N   0  0  0  0  0  0  0  0  0  0  0  0
  -23.5080  -32.2650   23.8690 O   0  0  0  0  0  0  0  0  0  0  0  0
  -22.7590  -29.5930   22.5680 C   0  0  0  0  0  0  0  0  0  0  0  0
  -21.4400  -29.3890   22.4290 N   0  0  0  0  0  0  0  0  0  0  0  0
  -23.4510  -28.9540   23.3660 O   0  0  0  0  0  0  0  0  0  0  0  0
  -20.9410  -29.9530   21.7540 H   0  0  0  0  0  0  0  0  0  0  0  0
  -18.0820  -28.1200   22.8850 C   0  0  0  0  0  0  0  0  0  0  0  0
  -20.6360  -28.4170   23.1700 C   0  0  0  0  0  3  0  0  0  0  0  0
  -20.7640  -27.0030   22.5560 C   0  0  0  0  0  2  0  0  0  0  0  0
  -19.6720  -26.6900   21.5290 C   0  0  0  0  0  2  0  0  0  0  0  0
  -18.2860  -26.7930   22.1730 C   0  0  0  0  0  2  0  0  0  0  0  0
  -19.1880  -28.8900   23.3380 C   0  0  0  0  0  0  0  0  0  0  0  0
  -18.9440  -30.1350   23.9620 C   0  0  0  0  0  3  0  0  0  0  0  0
  -17.6300  -30.6070   24.1400 C   0  0  0  0  0  3  0  0  0  0  0  0
  -16.5410  -29.8330   23.7020 C   0  0  0  0  0  3  0  0  0  0  0  0
  -16.7680  -28.5910   23.0810 C   0  0  0  0  0  3  0  0  0  0  0  0
  -25.8710  -32.6440   23.9530 C   0  0  0  0  0  3  0  0  0  0  0  0
  -26.3710  -31.8760   25.2370 C   0  0  1  0  0  0  0  0  0  0  0  0
  -25.2650  -31.6490   26.2920 C   0  0  0  0  0  1  0  0  0  0  0  0
  -26.9480  -30.4920   24.8590 C   0  0  0  0  0  1  0  0  0  0  0  0
  -27.5210  -32.6640   25.9070 C   0  0  0  0  0  1  0  0  0  0  0  0
  -25.5630  -34.0430   24.2750 N   0  0  0  0  0  0  0  0  0  0  0  0
  -25.9460  -35.0950   23.5380 C   0  0  0  0  0  0  0  0  0  0  0  0
  -26.6670  -34.9890   22.5440 O   0  0  0  0  0  0  0  0  0  0  0  0
  -24.9230  -34.2010   25.0390 H   0  0  0  0  0  0  0  0  0  0  0  0
  -24.2600  -36.9070   23.0980 C   0  0  0  0  0  1  0  0  0  0  0  0
  -25.4480  -36.4840   23.9760 C   0  0  0  0  0  3  0  0  0  0  0  0
  -27.5320  -37.3470   24.9460 C   0  0  0  0  0  1  0  0  0  0  0  0
  -26.4980  -37.5270   23.9300 N   0  0  0  0  0  0  0  0  0  0  0  0
  -26.0930  -38.4510   24.0530 H   0  0  0  0  0  0  0  0  0  0  0  0
  1  2  1  0
  2  7  1  0
  3  1  2  0
  4  5  2  0
  4  3  1  0
  5  6  1  0
  6 10  1  0
  6  2  2  0
  8  4  1  0
  9  5  1  0
 11 10  1  0
 12 19  2  0
 13 18  1  0
 14 15  1  0
 14 13  1  0
 16 15  1  0
 16 32  1  0
 16 17  1  0
 18 12  1  0
 18 17  1  0
 20 25  1  0
 21 22  1  0
 22 11  1  0
 23 24  1  0
 23 26  1  0
 23 20  1  0
 25 22  1  0
 25 12  1  0
 26 21  1  0
 27 26  1  0
 28 26  1  0
 29 30  2  0
 30 31  1  0
 30 49  1  0
 31 34  1  0
 32 29  1  0
 32 33  1  0
 33 31  2  0
 34 35  1  0
 35 36  2  0
 37 40  1  0
 37 36  1  0
 38 37  2  0
 39 38  1  0
 39 34  2  0
 40 41  1  0
 41 42  1  0
 42 43  2  0
 44 43  1  0
 44 48  1  0
 45 44  2  0
 46 41  2  0
 46 45  1  0
 47 46  1  0
 49 50  1  0
 50 53  1  0
 50 52  1  0
 51 49  2  0
 54 55  1  0
 54 29  1  0
 56 54  1  0
 57  3  1  0
 57 58  1  0
 59 70  2  0
 60 58  1  0
 60 65  1  0
 61 69  1  0
 61 71  1  0
 62 68  1  0
 62 64  1  0
 63 69  1  0
 64 63  1  0
 65 64  2  0
 66 67  1  0
 66 60  2  0
 67 62  2  0
 68 61  1  0
 69 59  1  0
 71 73  2  0
 72 71  1  0
 74 72  1  0
 75 84  2  0
 75 80  1  0
 76 72  1  0
 76 80  1  0
 77 76  1  0
 78 79  1  0
 78 77  1  0
 79 75  1  0
 80 81  2  0
 81 82  1  0
 83 82  2  0
 84 83  1  0
 85 59  1  0
 85 90  1  0
 85 86  1  0
 86 89  1  1
 86 87  1  0
 88 86  1  0
 90 93  1  0
 91 95  1  0
 91 90  1  0
 92 91  2  0
 95 94  1  0
 97 95  1  0
 97 98  1  0
 97 96  1  0
M  ISO  4  12 100  25 100  57 101  58 101
M  END
>  <TORSDO>  (10) 
F 19

>  <SCORE>  (10) 
-13.873

>  <name>  (10) 
9

>  <ligand_id>  (10) 
9

>  <original_smiles>  (10) 
[H]c1c([H])c([H])c2c(c1[H])C([H])([H])C([H])([H])C([H])([H])C2([H])N([H])C(=O)C1([H])N(C(=O)C([H])(N([H])C(=O)C([H])(N([H])C([H])([H])[H])C([H])([H])[H])C(C([H])([H])[H])(C([H])([H])[H])C([H])([H])[H])C([H])([H])c2c([H])c(OC([H])([H])c3c([H])c(C([H])([H])[H])c(C([H])([H])C([H])([H])C4([H])N(C(=O)N5C([H])([H])C([H])([H])C([H])([H])C([H])(n6nc(-c7c([H])c([H])c(Oc8c([H])c([H])c(F)c([H])c8F)c([H])c7[H])c(C(=O)N([H])[H])c6N([H])[H])C5([H])[H])C([H])([H])C([H])(C([H])([H])[H])[N+]([H])([H])C4([H])[H])c(C([H])([H])[H])c3C([H])([H])[H])c([H])c([H])c2C1([H])[H]

>  <smiles>  (10) 
[H]c1c([H])c([H])c2c(c1[H])C([H])([H])C([H])([H])C([H])([H])C2([H])N([H])C(=O)C1([H])N(C(=O)C([H])(N([H])C(=O)C([H])(N([H])C([H])([H])[H])C([H])([H])[H])C(C([H])([H])[H])(C([H])([H])[H])C([H])([H])[H])C([H])([H])c2c([H])c(OC([H])([H])c3c([H])c(C([H])([H])[H])c(C([H])([H])C([H])([H])C4([H])N(C(=O)N5C([H])([H])C([H])([H])C([H])([H])C([H])(n6nc(-c7c([H])c([H])c(Oc8c([H])c([H])c(F)c([H])c8F)c([H])c7[H])c(C(=O)N([H])[H])c6N([H])[H])C5([H])[H])C([H])([H])C([H])(C([H])([H])[H])[N+]([H])([H])C4([H])[H])c(C([H])([H])[H])c3C([H])([H])[H])c([H])c([H])c2C1([H])[H]

$$$$
10:0:0
     RDKit          3D

 98107  0  0  1  0  0  0  0  0999 V2000
  -28.4010  -22.5610   19.6990 C   0  0  0  0  0  0  0  0  0  0  0  0
  -28.7730  -23.9560   19.8060 C   0  0  0  0  0  0  0  0  0  0  0  0
  -29.3790  -21.5700   19.2970 C   0  0  0  0  0  0  0  0  0  0  0  0
  -30.9080  -23.3140   19.2710 C   0  0  0  0  0  0  0  0  0  0  0  0
  -26.9480  -22.1820   19.9750 C   0  0  0  0  0  1  0  0  0  0  0  0
  -32.3550  -23.7130   19.0870 C   0  0  0  0  0  1  0  0  0  0  0  0
  -30.0600  -24.2880   19.6010 N   0  0  0  0  0  0  0  0  0  0  0  0
  -30.6240  -22.0280   19.0680 N   0  0  0  0  0  0  0  0  0  0  0  0
  -28.3080  -20.1800   17.4860 C   0  0  0  0  0  1  0  0  0  0  0  0
  -29.0180  -20.0640   18.8550 C   0  0  0  0  0  3  0  0  0  0  0  0
  -31.4720  -19.0530   18.2590 C   0  0  0  0  0  2  0  0  0  0  0  0
  -32.2810  -19.1660   19.5460 C   0  0  0  0  0  2  0  0  0  0  0  0
  -30.0370  -18.7740   18.7100 C   0  0  0  0  0  3  0  0  0  0  0  0
  -31.6410  -18.1740   20.5380 C   0  0  0  0  0  3  0  0  0  0  0  0
  -30.2690  -17.7670   19.9330 C   0  0  0  0  0  3  0  0  0  0  0  0
  -30.9320  -15.1660   19.4950 C   0  0  0  0  0  0  0  0  0  0  0  0
  -30.6910  -12.8180   18.6690 C   0  0  0  0  0  2  0  0  0  0  0  0
  -29.6500  -12.7930   17.5290 C   0  0  0  0  0  2  0  0  0  0  0  0
  -28.2190  -12.6560   18.0900 C   0  0  0  0  0  2  0  0  0  0  0  0
  -27.9390  -13.6400   19.2570 C   0  0  0  0  0  3  0  0  0  0  0  0
  -29.0880  -13.6230   20.2910 C   0  0  0  0  0  2  0  0  0  0  0  0
  -30.3300  -13.9320   19.5700 N   0  0  0  0  0  0  0  0  0  0  0  0
  -32.0810  -15.2820   19.0630 O   0  0  0  0  0  0  0  0  0  0  0  0
  -30.1210  -16.2520   19.7600 N   0  0  0  0  0  0  0  0  0  0  0  0
  -29.1940  -15.9410   20.0050 H   0  0  0  0  0  0  0  0  0  0  0  0
  -25.6780  -14.3210   20.2680 C   0  0  0  0  0  0  0  0  0  0  0  0
  -24.6140  -13.5860   20.7150 C   0  0  0  0  0  0  0  0  0  0  0  0
  -24.9920  -12.2170   20.5700 C   0  0  0  0  0  0  0  0  0  0  0  0
  -26.6380  -13.4010   19.8770 N   0  0  0  0  0  0  0  0  0  0  0  0
  -26.2380  -12.1260   20.1190 N   0  0  0  0  0  0  0  0  0  0  0  0
  -24.2170  -10.9860   20.7750 C   0  0  0  0  0  0  0  0  0  0  0  0
  -24.6260  -10.0010   21.7010 C   0  0  0  0  0  3  0  0  0  0  0  0
  -23.8530   -8.8360   21.8940 C   0  0  0  0  0  3  0  0  0  0  0  0
  -22.6580   -8.6460   21.1610 C   0  0  0  0  0  0  0  0  0  0  0  0
  -22.2670   -9.6190   20.2230 C   0  0  0  0  0  3  0  0  0  0  0  0
  -23.0400  -10.7760   20.0280 C   0  0  0  0  0  3  0  0  0  0  0  0
  -21.8560   -7.5350   21.2650 O   0  0  0  0  0  0  0  0  0  0  0  0
  -21.7250   -6.8500   22.4460 C   0  0  0  0  0  0  0  0  0  0  0  0
  -21.1900   -7.4560   23.6040 C   0  0  0  0  0  3  0  0  0  0  0  0
  -21.0090   -6.6960   24.7760 C   0  0  0  0  0  3  0  0  0  0  0  0
  -21.3520   -5.3300   24.7910 C   0  0  0  0  0  0  0  0  0  0  0  0
  -21.8770   -4.7240   23.6370 C   0  0  0  0  0  3  0  0  0  0  0  0
  -22.0600   -5.4810   22.4670 C   0  0  0  0  0  0  0  0  0  0  0  0
  -22.5490   -4.8860   21.3520 F   0  0  0  0  0  0  0  0  0  0  0  0
  -21.1700   -4.5990   25.9150 F   0  0  0  0  0  0  0  0  0  0  0  0
  -23.2820  -14.1210   21.1570 C   0  0  0  0  0  0  0  0  0  0  0  0
  -22.6090  -13.4220   22.0660 N   0  0  0  0  0  0  0  0  0  0  0  0
  -22.8520  -15.1930   20.7340 O   0  0  0  0  0  0  0  0  0  0  0  0
  -22.9690  -12.5540   22.4330 H   0  0  0  0  0  0  0  0  0  0  0  0
  -21.7190  -13.7630   22.3990 H   0  0  0  0  0  0  0  0  0  0  0  0
  -25.8990  -15.6890   20.1390 N   0  0  0  0  0  0  0  0  0  0  0  0
  -25.1780  -16.3670   20.3640 H   0  0  0  0  0  0  0  0  0  0  0  0
  -26.7110  -16.1060   19.7050 H   0  0  0  0  0  0  0  0  0  0  0  0
  -32.9760  -18.7030   22.6420 C   0  0  0  0  0  1  0  0  0  0  0  0
  -30.8950  -20.0630   22.1830 C   0  0  0  0  0  1  0  0  0  0  0  0
  -31.5800  -18.6900   22.0020 C   0  0  0  0  0  3  0  0  0  0  0  0
  -27.7210  -25.1310   19.9990 C   0  0  0  0  0  2  0  0  0  0  0  0
  -28.0530  -26.5770   20.2470 O   0  0  0  0  0  0  0  0  0  0  0  0
  -24.3420  -32.0300   23.3090 C   0  0  0  0  0  0  0  0  0  0  0  0
  -26.9580  -27.4750   20.2020 C   0  0  0  0  0  0  0  0  0  0  0  0
  -23.1390  -30.6300   21.6760 C   0  0  0  0  0  3  0  0  0  0  0  0
  -24.5880  -29.1060   20.2280 C   0  0  0  0  0  0  0  0  0  0  0  0
  -25.6800  -30.9590   21.4770 C   0  0  0  0  0  2  0  0  0  0  0  0
  -25.7650  -29.5850   20.8170 C   0  0  0  0  0  0  0  0  0  0  0  0
  -26.9530  -28.7840   20.7950 C   0  0  0  0  0  3  0  0  0  0  0  0
  -25.7480  -27.0730   19.5820 C   0  0  0  0  0  3  0  0  0  0  0  0
  -24.5840  -27.8570   19.6020 C   0  0  0  0  0  3  0  0  0  0  0  0
  -23.3470  -29.9720   20.2900 C   0  0  0  0  0  2  0  0  0  0  0  0
  -24.4060  -31.2230   22.2100 N   0  0  0  0  0  0  0  0  0  0  0  0
  -23.2590  -32.2970   23.8500 O   0  0  0  0  0  0  0  0  0  0  0  0
  -22.4900  -29.6020   22.6340 C   0  0  0  0  0  0  0  0  0  0  0  0
  -21.1820  -29.3490   22.4590 N   0  0  0  0  0  0  0  0  0  0  0  0
  -23.1660  -29.0320   23.4940 O   0  0  0  0  0  0  0  0  0  0  0  0
  -20.6940  -29.8610   21.7370 H   0  0  0  0  0  0  0  0  0  0  0  0
  -17.8670  -27.9410   22.8180 C   0  0  0  0  0  0  0  0  0  0  0  0
  -20.3810  -28.3900   23.2220 C   0  0  0  0  0  3  0  0  0  0  0  0
  -20.6140  -26.9460   22.7210 C   0  0  0  0  0  2  0  0  0  0  0  0
  -19.6000  -26.5040   21.6610 C   0  0  0  0  0  2  0  0  0  0  0  0
  -18.1750  -26.5790   22.2160 C   0  0  0  0  0  2  0  0  0  0  0  0
  -18.9040  -28.7970   23.2750 C   0  0  0  0  0  0  0  0  0  0  0  0
  -18.5640  -30.0640   23.7950 C   0  0  0  0  0  3  0  0  0  0  0  0
  -17.2210  -30.4790   23.8640 C   0  0  0  0  0  3  0  0  0  0  0  0
  -16.1980  -29.6210   23.4240 C   0  0  0  0  0  3  0  0  0  0  0  0
  -16.5210  -28.3540   22.9070 C   0  0  0  0  0  3  0  0  0  0  0  0
  -25.6220  -32.6740   23.9240 C   0  0  0  0  0  3  0  0  0  0  0  0
  -26.1220  -31.9370   25.2270 C   0  0  1  0  0  0  0  0  0  0  0  0
  -25.0070  -31.6980   26.2720 C   0  0  0  0  0  1  0  0  0  0  0  0
  -26.7410  -30.5640   24.8780 C   0  0  0  0  0  1  0  0  0  0  0  0
  -27.2390  -32.7680   25.9000 C   0  0  0  0  0  1  0  0  0  0  0  0
  -25.3160  -34.0820   24.2100 N   0  0  0  0  0  0  0  0  0  0  0  0
  -25.6330  -35.1100   23.4120 C   0  0  0  0  0  0  0  0  0  0  0  0
  -26.2820  -34.9720   22.3710 O   0  0  0  0  0  0  0  0  0  0  0  0
  -24.7400  -34.2640   25.0190 H   0  0  0  0  0  0  0  0  0  0  0  0
  -23.8970  -36.8910   23.0300 C   0  0  0  0  0  1  0  0  0  0  0  0
  -25.1540  -36.5130   23.8310 C   0  0  0  0  0  3  0  0  0  0  0  0
  -27.2930  -37.4370   24.6040 C   0  0  0  0  0  1  0  0  0  0  0  0
  -26.1830  -37.5610   23.6640 N   0  0  0  0  0  0  0  0  0  0  0  0
  -25.7770  -38.4860   23.7740 H   0  0  0  0  0  0  0  0  0  0  0  0
  1  2  2  0
  1  5  1  0
  2 57  1  0
  3  1  1  0
  4  7  2  0
  6  4  1  0
  7  2  1  0
  8  4  1  0
  8  3  2  0
 10  9  1  0
 10  3  1  0
 11 13  1  0
 11 12  1  0
 12 14  1  0
 13 10  1  0
 13 15  1  0
 14 56  1  0
 15 24  1  0
 15 14  1  0
 16 22  1  0
 16 24  1  0
 17 22  1  0
 18 19  1  0
 18 17  1  0
 20 19  1  0
 20 29  1  0
 20 21  1  0
 22 21  1  0
 23 16  2  0
 24 25  1  0
 26 27  2  0
 27 46  1  0
 28 27  1  0
 28 31  1  0
 29 30  1  0
 29 26  1  0
 30 28  2  0
 31 32  1  0
 32 33  2  0
 34 37  1  0
 34 33  1  0
 35 34  2  0
 36 35  1  0
 36 31  2  0
 37 38  1  0
 38 43  2  0
 38 39  1  0
 39 40  2  0
 40 41  1  0
 41 45  1  0
 42 41  2  0
 43 42  1  0
 44 43  1  0
 46 47  1  0
 47 50  1  0
 47 49  1  0
 48 46  2  0
 51 26  1  0
 51 52  1  0
 53 51  1  0
 56 55  1  0
 56 54  1  0
 57 58  1  0
 59 70  2  0
 60 58  1  0
 60 65  1  0
 61 69  1  0
 61 71  1  0
 62 68  1  0
 62 64  1  0
 63 69  1  0
 64 63  1  0
 65 64  2  0
 66 67  1  0
 66 60  2  0
 67 62  2  0
 68 61  1  0
 69 59  1  0
 71 73  2  0
 72 71  1  0
 74 72  1  0
 75 84  2  0
 75 80  1  0
 76 72  1  0
 76 80  1  0
 77 76  1  0
 78 79  1  0
 78 77  1  0
 79 75  1  0
 80 81  2  0
 81 82  1  0
 83 82  2  0
 84 83  1  0
 85 59  1  0
 85 90  1  0
 85 86  1  0
 86 89  1  1
 86 87  1  0
 88 86  1  0
 90 93  1  0
 91 95  1  0
 91 90  1  0
 92 91  2  0
 95 94  1  0
 97 98  1  0
 97 95  1  0
 97 96  1  0
M  ISO  4  16 100  24 100  57 101  58 101
M  END
>  <TORSDO>  (11) 
F 20

>  <SCORE>  (11) 
-11.313

>  <name>  (11) 
10

>  <ligand_id>  (11) 
10

>  <original_smiles>  (11) 
[H]c1c([H])c([H])c2c(c1[H])C([H])([H])C([H])([H])C([H])([H])C2([H])N([H])C(=O)C1([H])N(C(=O)C([H])(N([H])C(=O)C([H])(N([H])C([H])([H])[H])C([H])([H])[H])C(C([H])([H])[H])(C([H])([H])[H])C([H])([H])[H])C([H])([H])c2c([H])c(OC([H])([H])c3nc(C([H])([H])[H])nc(C([H])(C([H])([H])[H])C4([H])C([H])([H])C([H])([H])C([H])(C([H])(C([H])([H])[H])C([H])([H])[H])C4([H])N([H])C(=O)N4C([H])([H])C([H])([H])C([H])([H])C([H])(n5nc(-c6c([H])c([H])c(Oc7c([H])c([H])c(F)c([H])c7F)c([H])c6[H])c(C(=O)N([H])[H])c5N([H])[H])C4([H])[H])c3C([H])([H])[H])c([H])c([H])c2C1([H])[H]

>  <smiles>  (11) 
[H]c1c([H])c([H])c2c(c1[H])C([H])([H])C([H])([H])C([H])([H])C2([H])N([H])C(=O)C1([H])N(C(=O)C([H])(N([H])C(=O)C([H])(N([H])C([H])([H])[H])C([H])([H])[H])C(C([H])([H])[H])(C([H])([H])[H])C([H])([H])[H])C([H])([H])c2c([H])c(OC([H])([H])c3nc(C([H])([H])[H])nc(C([H])(C([H])([H])[H])C4([H])C([H])([H])C([H])([H])C([H])(C([H])(C([H])([H])[H])C([H])([H])[H])C4([H])N([H])C(=O)N4C([H])([H])C([H])([H])C([H])([H])C([H])(n5nc(-c6c([H])c([H])c(Oc7c([H])c([H])c(F)c([H])c7F)c([H])c6[H])c(C(=O)N([H])[H])c5N([H])[H])C4([H])[H])c3C([H])([H])[H])c([H])c([H])c2C1([H])[H]

$$$$
11:0:0
     RDKit          3D

 90 99  0  0  1  0  0  0  0  0999 V2000
  -30.5420  -21.2270   20.0600 C   0  0  0  0  0  3  0  0  0  0  0  0
  -28.8600  -19.5750   20.3900 C   0  0  0  0  0  3  0  0  0  0  0  0
  -29.1530  -21.1040   20.2790 C   0  0  0  0  0  0  0  0  0  0  0  0
  -31.4170  -20.1100   19.9600 C   0  0  0  0  0  0  0  0  0  0  0  0
  -29.8180  -18.3520   20.2900 C   0  0  0  0  0  0  0  0  0  0  0  0
  -32.8860  -20.3420   19.6630 C   0  0  0  0  0  1  0  0  0  0  0  0
  -31.0810  -18.7890   20.0730 N   0  0  0  0  0  0  0  0  0  0  0  0
  -30.3690  -15.4370   20.2200 C   0  0  0  0  0  0  0  0  0  0  0  0
  -30.3620  -12.9700   19.3380 C   0  0  0  0  0  2  0  0  0  0  0  0
  -29.4390  -12.7360   18.1150 C   0  0  0  0  0  2  0  0  0  0  0  0
  -27.9960  -12.4500   18.5620 C   0  0  0  0  0  2  0  0  0  0  0  0
  -27.5450  -13.4070   19.6920 C   0  0  0  0  0  3  0  0  0  0  0  0
  -28.6000  -13.5780   20.8070 C   0  0  0  0  0  2  0  0  0  0  0  0
  -29.8120  -14.1170   20.1650 N   0  0  0  0  0  0  0  0  0  0  0  0
  -31.5890  -15.4060   19.9730 O   0  0  0  0  0  0  0  0  0  0  0  0
  -29.6010  -16.7260   20.3720 N   0  0  0  0  0  0  0  0  0  0  0  0
  -28.6380  -16.5050   20.5640 H   0  0  0  0  0  0  0  0  0  0  0  0
  -25.1840  -13.9500   20.4770 C   0  0  0  0  0  0  0  0  0  0  0  0
  -24.1300  -13.1670   20.8540 C   0  0  0  0  0  0  0  0  0  0  0  0
  -24.6020  -11.8200   20.8150 C   0  0  0  0  0  0  0  0  0  0  0  0
  -26.2260  -13.0790   20.2160 N   0  0  0  0  0  0  0  0  0  0  0  0
  -25.8900  -11.7910   20.4890 N   0  0  0  0  0  0  0  0  0  0  0  0
  -23.8800  -10.5530   21.0080 C   0  0  0  0  0  0  0  0  0  0  0  0
  -24.3240   -9.5810   21.9310 C   0  0  0  0  0  3  0  0  0  0  0  0
  -23.5990   -8.3830   22.1150 C   0  0  0  0  0  3  0  0  0  0  0  0
  -22.4160   -8.1490   21.3750 C   0  0  0  0  0  0  0  0  0  0  0  0
  -21.9910   -9.1090   20.4400 C   0  0  0  0  0  3  0  0  0  0  0  0
  -22.7170  -10.2970   20.2540 C   0  0  0  0  0  3  0  0  0  0  0  0
  -21.6630   -7.0040   21.4680 O   0  0  0  0  0  0  0  0  0  0  0  0
  -21.6360   -6.2500   22.6150 C   0  0  0  0  0  0  0  0  0  0  0  0
  -21.2300   -6.7930   23.8530 C   0  0  0  0  0  3  0  0  0  0  0  0
  -21.1510   -5.9660   24.9920 C   0  0  0  0  0  3  0  0  0  0  0  0
  -21.4680   -4.5980   24.8930 C   0  0  0  0  0  0  0  0  0  0  0  0
  -21.8700   -4.0550   23.6590 C   0  0  0  0  0  3  0  0  0  0  0  0
  -21.9500   -4.8800   22.5230 C   0  0  0  0  0  0  0  0  0  0  0  0
  -22.3150   -4.3470   21.3310 F   0  0  0  0  0  0  0  0  0  0  0  0
  -21.3860   -3.8010   25.9840 F   0  0  0  0  0  0  0  0  0  0  0  0
  -22.7330  -13.6380   21.1360 C   0  0  0  0  0  0  0  0  0  0  0  0
  -22.0140  -12.9390   22.0070 N   0  0  0  0  0  0  0  0  0  0  0  0
  -22.2900  -14.6620   20.6190 O   0  0  0  0  0  0  0  0  0  0  0  0
  -22.3860  -12.1100   22.4460 H   0  0  0  0  0  0  0  0  0  0  0  0
  -21.0760  -13.2390   22.2410 H   0  0  0  0  0  0  0  0  0  0  0  0
  -25.3360  -15.3220   20.2960 N   0  0  0  0  0  0  0  0  0  0  0  0
  -24.5620  -15.9660   20.4090 H   0  0  0  0  0  0  0  0  0  0  0  0
  -26.1560  -15.7580   19.8980 H   0  0  0  0  0  0  0  0  0  0  0  0
  -26.9310  -22.4470   19.4150 C   0  0  0  0  0  2  0  0  0  0  0  0
  -26.8210  -22.3760   20.9040 C   0  0  0  0  0  2  0  0  0  0  0  0
  -28.1780  -22.6060   20.2630 C   0  0  1  0  0  0  0  0  0  0  0  0
  -28.6370  -24.3300   20.5210 C   0  0  0  0  0  2  0  0  0  0  0  0
  -28.3090  -25.9440   20.1520 O   0  0  0  0  0  0  0  0  0  0  0  0
  -24.6160  -31.8680   23.2170 C   0  0  0  0  0  0  0  0  0  0  0  0
  -27.2140  -26.9640   20.2470 C   0  0  0  0  0  0  0  0  0  0  0  0
  -23.4380  -30.4640   21.5750 C   0  0  0  0  0  3  0  0  0  0  0  0
  -24.8990  -28.8500   20.1730 C   0  0  0  0  0  0  0  0  0  0  0  0
  -26.0060  -30.6830   21.4350 C   0  0  0  0  0  2  0  0  0  0  0  0
  -26.0830  -29.2640   20.7930 C   0  0  0  0  0  0  0  0  0  0  0  0
  -27.2360  -28.3480   20.7920 C   0  0  0  0  0  3  0  0  0  0  0  0
  -25.9910  -26.7030   19.5860 C   0  0  0  0  0  3  0  0  0  0  0  0
  -24.8780  -27.5910   19.5500 C   0  0  0  0  0  3  0  0  0  0  0  0
  -23.6750  -29.7720   20.2060 C   0  0  0  0  0  2  0  0  0  0  0  0
  -24.7070  -31.0330   22.1310 N   0  0  0  0  0  0  0  0  0  0  0  0
  -23.5240  -32.1530   23.7350 O   0  0  0  0  0  0  0  0  0  0  0  0
  -22.7470  -29.4670   22.5430 C   0  0  0  0  0  0  0  0  0  0  0  0
  -21.4180  -29.2980   22.4200 N   0  0  0  0  0  0  0  0  0  0  0  0
  -23.4170  -28.8450   23.3730 O   0  0  0  0  0  0  0  0  0  0  0  0
  -20.9300  -29.8430   21.7240 H   0  0  0  0  0  0  0  0  0  0  0  0
  -18.0450  -28.0680   22.9360 C   0  0  0  0  0  0  0  0  0  0  0  0
  -20.6040  -28.3530   23.1920 C   0  0  0  0  0  3  0  0  0  0  0  0
  -20.7140  -26.9230   22.6130 C   0  0  0  0  0  2  0  0  0  0  0  0
  -19.6100  -26.5950   21.6020 C   0  0  0  0  0  2  0  0  0  0  0  0
  -18.2300  -26.7250   22.2500 C   0  0  0  0  0  2  0  0  0  0  0  0
  -19.1580  -28.8390   23.3630 C   0  0  0  0  0  0  0  0  0  0  0  0
  -18.9290  -30.0940   23.9660 C   0  0  0  0  0  3  0  0  0  0  0  0
  -17.6190  -30.5790   24.1450 C   0  0  0  0  0  3  0  0  0  0  0  0
  -16.5210  -29.8070   23.7310 C   0  0  0  0  0  3  0  0  0  0  0  0
  -16.7350  -28.5540   23.1310 C   0  0  0  0  0  3  0  0  0  0  0  0
  -25.8820  -32.5220   23.8520 C   0  0  0  0  0  3  0  0  0  0  0  0
  -25.5500  -33.9180   24.1930 N   0  0  0  0  0  0  0  0  0  0  0  0
  -25.8600  -34.9860   23.4440 C   0  0  0  0  0  0  0  0  0  0  0  0
  -26.5150  -34.9000   22.4040 O   0  0  0  0  0  0  0  0  0  0  0  0
  -24.9660  -34.0580   25.0040 H   0  0  0  0  0  0  0  0  0  0  0  0
  -24.0980  -36.7610   23.1500 C   0  0  0  0  0  1  0  0  0  0  0  0
  -25.3670  -36.3670   23.9240 C   0  0  0  0  0  3  0  0  0  0  0  0
  -27.5070  -37.2850   24.7070 C   0  0  0  0  0  1  0  0  0  0  0  0
  -26.3830  -37.4350   23.7860 N   0  0  0  0  0  0  0  0  0  0  0  0
  -25.9660  -38.3510   23.9380 H   0  0  0  0  0  0  0  0  0  0  0  0
  -26.3900  -31.7590   25.1370 C   0  0  1  0  0  0  0  0  0  0  0  0
  -25.2890  -31.5200   26.1970 C   0  0  0  0  0  1  0  0  0  0  0  0
  -26.9860  -30.3840   24.7630 C   0  0  0  0  0  1  0  0  0  0  0  0
  -27.5310  -32.5620   25.8060 C   0  0  0  0  0  1  0  0  0  0  0  0
  1  3  1  0
  3  2  2  0
  4  1  2  0
  4  7  1  0
  5 16  1  0
  5  2  1  0
  6  4  1  0
  7  5  2  0
  8 16  1  0
  9 14  1  0
 10 11  1  0
 10  9  1  0
 12 11  1  0
 12 21  1  0
 12 13  1  0
 14  8  1  0
 14 13  1  0
 15  8  2  0
 16 17  1  0
 18 19  2  0
 19 38  1  0
 20 19  1  0
 20 23  1  0
 21 18  1  0
 21 22  1  0
 22 20  2  0
 23 24  1  0
 24 25  2  0
 26 29  1  0
 26 25  1  0
 27 26  2  0
 28 27  1  0
 28 23  2  0
 29 30  1  0
 30 31  1  0
 31 32  2  0
 33 32  1  0
 33 37  1  0
 34 33  2  0
 35 30  2  0
 35 34  1  0
 36 35  1  0
 38 39  1  0
 39 42  1  0
 39 41  1  0
 40 38  2  0
 43 44  1  0
 43 18  1  0
 45 43  1  0
 46 48  1  0
 46 47  1  0
 48  3  1  0
 48 49  1  1
 48 47  1  0
 50 52  1  0
 50 49  1  0
 51 62  2  0
 52 57  1  0
 53 61  1  0
 53 63  1  0
 54 60  1  0
 54 56  1  0
 55 61  1  0
 56 55  1  0
 57 56  2  0
 58 52  2  0
 59 58  1  0
 59 54  2  0
 60 53  1  0
 61 51  1  0
 63 65  2  0
 64 63  1  0
 66 64  1  0
 67 76  2  0
 67 72  1  0
 68 64  1  0
 68 72  1  0
 69 68  1  0
 70 71  1  0
 70 69  1  0
 71 67  1  0
 72 73  2  0
 73 74  1  0
 75 74  2  0
 76 75  1  0
 77 51  1  0
 77 78  1  0
 77 87  1  0
 78 81  1  0
 79 83  1  0
 79 78  1  0
 80 79  2  0
 83 82  1  0
 85 83  1  0
 85 86  1  0
 85 84  1  0
 87 90  1  1
 87 88  1  0
 89 87  1  0
M  ISO  4   8 100  16 100  49 101  50 101
M  END
>  <TORSDO>  (12) 
F 18

>  <SCORE>  (12) 
-16.134

>  <name>  (12) 
11

>  <ligand_id>  (12) 
11

>  <original_smiles>  (12) 
[H]c1c([H])c([H])c2c(c1[H])C([H])([H])C([H])([H])C([H])([H])C2([H])N([H])C(=O)C1([H])N(C(=O)C([H])(N([H])C(=O)C([H])(N([H])C([H])([H])[H])C([H])([H])[H])C(C([H])([H])[H])(C([H])([H])[H])C([H])([H])[H])C([H])([H])c2c([H])c(OC([H])([H])C3(c4c([H])c(N([H])C(=O)N5C([H])([H])C([H])([H])C([H])([H])C([H])(n6nc(-c7c([H])c([H])c(Oc8c([H])c([H])c(F)c([H])c8F)c([H])c7[H])c(C(=O)N([H])[H])c6N([H])[H])C5([H])[H])nc(C([H])([H])[H])c4[H])C([H])([H])C3([H])[H])c([H])c([H])c2C1([H])[H]

>  <smiles>  (12) 
[H]c1c([H])c([H])c2c(c1[H])C([H])([H])C([H])([H])C([H])([H])C2([H])N([H])C(=O)C1([H])N(C(=O)C([H])(N([H])C(=O)C([H])(N([H])C([H])([H])[H])C([H])([H])[H])C(C([H])([H])[H])(C([H])([H])[H])C([H])([H])[H])C([H])([H])c2c([H])c(OC([H])([H])C3(c4c([H])c(N([H])C(=O)N5C([H])([H])C([H])([H])C([H])([H])C([H])(n6nc(-c7c([H])c([H])c(Oc8c([H])c([H])c(F)c([H])c8F)c([H])c7[H])c(C(=O)N([H])[H])c6N([H])[H])C5([H])[H])nc(C([H])([H])[H])c4[H])C([H])([H])C3([H])[H])c([H])c([H])c2C1([H])[H]

$$$$
12:0:0
     RDKit          3D

 99105  0  0  1  0  0  0  0  0999 V2000
  -30.2770  -22.8980   20.1680 C   0  0  0  0  0  2  0  0  0  0  0  0
  -29.0900  -21.0560   19.7570 C   0  0  0  0  0  3  0  0  0  0  0  0
  -28.9420  -22.8580   19.4170 C   0  0  0  0  0  3  0  0  0  0  0  0
  -30.5880  -21.4290   19.8650 C   0  0  0  0  0  3  0  0  0  0  0  0
  -31.5450  -14.7350   21.5870 C   0  0  0  0  0  0  0  0  0  0  0  0
  -31.3770  -13.7100   19.3130 C   0  0  0  0  0  1  0  0  0  0  0  0
  -30.0430  -13.7280   17.8120 C   0  0  0  0  0 15  0  0  0  0  0  0
  -28.0850  -13.5600   18.2940 C   0  0  0  0  0  1  0  0  0  0  0  0
  -27.6490  -13.5530   20.2070 C   0  0  0  0  0  2  0  0  0  0  0  0
  -29.0930  -13.4090   21.6010 C   0  0  0  0  0  1  0  0  0  0  0  0
  -30.8150  -13.7250   21.0570 N   0  0  0  0  0  0  0  0  0  0  0  0
  -32.6860  -14.9340   21.1890 O   0  0  0  0  0  0  0  0  0  0  0  0
  -29.8870  -17.7730   21.0760 C   0  0  0  0  0  2  0  0  0  0  0  0
  -29.3380  -17.8990   19.7650 C   0  0  0  0  0  3  0  0  0  0  0  0
  -29.2800  -16.5450   19.0070 C   0  0  0  0  0  3  0  0  0  0  0  0
  -29.3960  -15.0660   19.6760 C   0  0  0  0  0  2  0  0  0  0  0  0
  -29.9240  -16.4350   21.4860 C   0  0  0  0  0  3  0  0  0  0  0  0
  -29.1590  -18.8090   17.6710 C   0  0  0  0  0  2  0  0  0  0  0  0
  -28.8610  -19.3510   19.1180 C   0  0  0  0  0  3  0  0  0  0  0  0
  -29.0710  -17.1690   17.5880 C   0  0  0  0  0  3  0  0  0  0  0  0
  -29.5450  -12.3700   19.5910 C   0  0  0  0  0 15  0  0  0  0  0  0
  -27.7520  -16.7710   16.9150 C   0  0  0  0  0  1  0  0  0  0  0  0
  -29.0330  -15.7260   20.8390 N   0  0  0  0  0  2  0  0  0  0  0  0
  -30.9230  -15.7620   22.2080 N   0  0  0  0  0  0  0  0  0  0  0  0
  -31.5570  -16.3720   22.6980 H   0  0  0  0  0  0  0  0  0  0  0  0
  -25.3350  -14.0210   20.7340 C   0  0  0  0  0  0  0  0  0  0  0  0
  -24.3230  -13.1830   20.9750 C   0  0  0  0  0  0  0  0  0  0  0  0
  -24.8670  -11.8620   20.9720 C   0  0  0  0  0  0  0  0  0  0  0  0
  -26.4040  -13.1630   20.5810 N   0  0  0  0  0  0  0  0  0  0  0  0
  -26.1650  -11.8620   20.7560 N   0  0  0  0  0  0  0  0  0  0  0  0
  -24.2030  -10.5860   21.0930 C   0  0  0  0  0  0  0  0  0  0  0  0
  -24.5970   -9.6430   22.0640 C   0  0  0  0  0  3  0  0  0  0  0  0
  -23.8910   -8.4320   22.1870 C   0  0  0  0  0  3  0  0  0  0  0  0
  -22.7890   -8.1730   21.3380 C   0  0  0  0  0  0  0  0  0  0  0  0
  -22.4310   -9.1080   20.3520 C   0  0  0  0  0  3  0  0  0  0  0  0
  -23.1370  -10.3080   20.2250 C   0  0  0  0  0  3  0  0  0  0  0  0
  -22.0460   -7.0220   21.3760 O   0  0  0  0  0  0  0  0  0  0  0  0
  -21.9100   -6.3020   22.5320 C   0  0  0  0  0  0  0  0  0  0  0  0
  -21.3450   -6.8630   23.7010 C   0  0  0  0  0  3  0  0  0  0  0  0
  -21.1590   -6.0610   24.8420 C   0  0  0  0  0  3  0  0  0  0  0  0
  -21.5280   -4.7020   24.8150 C   0  0  0  0  0  0  0  0  0  0  0  0
  -22.0870   -4.1440   23.6510 C   0  0  0  0  0  3  0  0  0  0  0  0
  -22.2760   -4.9430   22.5120 C   0  0  0  0  0  0  0  0  0  0  0  0
  -22.8000   -4.4020   21.3860 F   0  0  0  0  0  0  0  0  0  0  0  0
  -21.3410   -3.9270   25.9090 F   0  0  0  0  0  0  0  0  0  0  0  0
  -22.9180  -13.6310   21.1000 C   0  0  0  0  0  0  0  0  0  0  0  0
  -22.1630  -12.9550   21.9470 N   0  0  0  0  0  0  0  0  0  0  0  0
  -22.5180  -14.6360   20.5100 O   0  0  0  0  0  0  0  0  0  0  0  0
  -22.5440  -12.1740   22.4640 H   0  0  0  0  0  0  0  0  0  0  0  0
  -21.2060  -13.2350   22.1070 H   0  0  0  0  0  0  0  0  0  0  0  0
  -25.3990  -15.4200   20.6060 N   0  0  0  0  0  0  0  0  0  0  0  0
  -24.5890  -16.0250   20.6940 H   0  0  0  0  0  0  0  0  0  0  0  0
  -26.2680  -15.9160   20.4360 H   0  0  0  0  0  0  0  0  0  0  0  0
  -31.3390  -20.7630   20.9490 N   0  0  0  0  0  4  0  0  0  0  0  0
  -30.8720  -20.8670   21.8330 H   0  0  0  0  0  0  0  0  0  0  0  0
  -32.2660  -21.1440   21.0390 H   0  0  0  0  0  0  0  0  0  0  0  0
  -31.4350  -19.7810   20.7580 H   0  0  0  0  0  0  0  0  0  0  0  0
  -27.9940  -24.3390   19.8740 C   0  0  0  0  0  2  0  0  0  0  0  0
  -28.2960  -25.9670   20.1150 O   0  0  0  0  0  0  0  0  0  0  0  0
  -24.6730  -31.9780   23.2430 C   0  0  0  0  0  0  0  0  0  0  0  0
  -27.2970  -27.0830   20.1890 C   0  0  0  0  0  0  0  0  0  0  0  0
  -23.5160  -30.5440   21.6240 C   0  0  0  0  0  3  0  0  0  0  0  0
  -24.9870  -28.9480   20.2300 C   0  0  0  0  0  0  0  0  0  0  0  0
  -26.0890  -30.7770   21.4880 C   0  0  0  0  0  2  0  0  0  0  0  0
  -26.1800  -29.3610   20.8330 C   0  0  0  0  0  0  0  0  0  0  0  0
  -27.3370  -28.4460   20.7920 C   0  0  0  0  0  3  0  0  0  0  0  0
  -26.0540  -26.8310   19.5790 C   0  0  0  0  0  3  0  0  0  0  0  0
  -24.9460  -27.7030   19.5970 C   0  0  0  0  0  3  0  0  0  0  0  0
  -23.7620  -29.8540   20.2600 C   0  0  0  0  0  2  0  0  0  0  0  0
  -24.7830  -31.1270   22.1710 N   0  0  0  0  0  0  0  0  0  0  0  0
  -23.5710  -32.2550   23.7500 O   0  0  0  0  0  0  0  0  0  0  0  0
  -22.8340  -29.5420   22.5940 C   0  0  0  0  0  0  0  0  0  0  0  0
  -21.5050  -29.3590   22.4690 N   0  0  0  0  0  0  0  0  0  0  0  0
  -23.5080  -28.9310   23.4270 O   0  0  0  0  0  0  0  0  0  0  0  0
  -21.0120  -29.9020   21.7740 H   0  0  0  0  0  0  0  0  0  0  0  0
  -18.1390  -28.1140   22.9900 C   0  0  0  0  0  0  0  0  0  0  0  0
  -20.6950  -28.4160   23.2480 C   0  0  0  0  0  3  0  0  0  0  0  0
  -20.8140  -26.9810   22.6870 C   0  0  0  0  0  2  0  0  0  0  0  0
  -19.7170  -26.6370   21.6740 C   0  0  0  0  0  2  0  0  0  0  0  0
  -18.3340  -26.7650   22.3200 C   0  0  0  0  0  2  0  0  0  0  0  0
  -19.2470  -28.8970   23.4120 C   0  0  0  0  0  0  0  0  0  0  0  0
  -19.0090  -30.1580   24.0010 C   0  0  0  0  0  3  0  0  0  0  0  0
  -17.6960  -30.6360   24.1710 C   0  0  0  0  0  3  0  0  0  0  0  0
  -16.6030  -29.8520   23.7630 C   0  0  0  0  0  3  0  0  0  0  0  0
  -16.8250  -28.5920   23.1790 C   0  0  0  0  0  3  0  0  0  0  0  0
  -25.9220  -32.6600   23.8760 C   0  0  0  0  0  3  0  0  0  0  0  0
  -26.4310  -31.9250   25.1780 C   0  0  1  0  0  0  0  0  0  0  0  0
  -25.3230  -31.6860   26.2320 C   0  0  0  0  0  1  0  0  0  0  0  0
  -27.0490  -30.5500   24.8330 C   0  0  0  0  0  1  0  0  0  0  0  0
  -27.5540  -32.7530   25.8430 C   0  0  0  0  0  1  0  0  0  0  0  0
  -25.5680  -34.0550   24.1880 N   0  0  0  0  0  0  0  0  0  0  0  0
  -25.9130  -35.1190   23.4500 C   0  0  0  0  0  0  0  0  0  0  0  0
  -26.6240  -35.0290   22.4470 O   0  0  0  0  0  0  0  0  0  0  0  0
  -24.9350  -34.1960   24.9630 H   0  0  0  0  0  0  0  0  0  0  0  0
  -24.1730  -36.8950   23.0400 C   0  0  0  0  0  1  0  0  0  0  0  0
  -25.3900  -36.5000   23.8940 C   0  0  0  0  0  3  0  0  0  0  0  0
  -27.4770  -37.4220   24.8050 C   0  0  0  0  0  1  0  0  0  0  0  0
  -26.4080  -37.5710   23.8200 N   0  0  0  0  0  0  0  0  0  0  0  0
  -25.9810  -38.4830   23.9540 H   0  0  0  0  0  0  0  0  0  0  0  0
  2 19  1  0
  2  4  1  0
  3  2  1  0
  3 58  1  0
  3  1  1  0
  4  1  1  0
  4 54  1  0
  5 24  1  0
  6 11  1  0
  8  9  1  0
  9 29  1  0
 11  5  1  0
 11 10  1  0
 12  5  2  0
 13 17  1  0
 14 13  1  0
 15 16  1  0
 15 14  1  0
 16 23  1  0
 17 24  1  0
 19 18  1  0
 19 14  1  0
 20 22  1  0
 20 18  1  0
 20 15  1  0
 23 17  1  0
 24 25  1  0
 26 27  2  0
 27 46  1  0
 28 27  1  0
 28 31  1  0
 29 26  1  0
 29 30  1  0
 30 28  2  0
 31 32  1  0
 32 33  2  0
 34 37  1  0
 34 33  1  0
 35 34  2  0
 36 35  1  0
 36 31  2  0
 37 38  1  0
 38 39  1  0
 39 40  2  0
 41 40  1  0
 41 45  1  0
 42 41  2  0
 43 38  2  0
 43 42  1  0
 44 43  1  0
 46 47  1  0
 47 50  1  0
 47 49  1  0
 48 46  2  0
 51 52  1  0
 51 26  1  0
 53 51  1  0
 54 56  1  0
 54 55  1  0
 57 54  1  0
 58 59  1  0
 59 61  1  0
 60 71  2  0
 61 66  1  0
 62 70  1  0
 62 72  1  0
 63 69  1  0
 63 65  1  0
 64 70  1  0
 65 64  1  0
 66 65  2  0
 67 68  1  0
 67 61  2  0
 68 63  2  0
 69 62  1  0
 70 60  1  0
 72 74  2  0
 73 72  1  0
 75 73  1  0
 76 85  2  0
 76 81  1  0
 77 73  1  0
 77 81  1  0
 78 77  1  0
 79 80  1  0
 79 78  1  0
 80 76  1  0
 81 82  2  0
 82 83  1  0
 84 83  2  0
 85 84  1  0
 86 60  1  0
 86 91  1  0
 86 87  1  0
 87 90  1  1
 87 88  1  0
 89 87  1  0
 91 94  1  0
 92 96  1  0
 92 91  1  0
 93 92  2  0
 96 95  1  0
 98 96  1  0
 98 99  1  0
 98 97  1  0
M  ISO  4   5 100  24 100  58 101  59 101
M  END
>  <TORSDO>  (13) 
F 18

>  <SCORE>  (13) 
-10.105

>  <name>  (13) 
12

>  <ligand_id>  (13) 
12

>  <original_smiles>  (13) 
[H]c1c([H])c([H])c2c(c1[H])C([H])([H])C([H])([H])C([H])([H])C2([H])N([H])C(=O)C1([H])N(C(=O)C([H])(N([H])C(=O)C([H])(N([H])C([H])([H])[H])C([H])([H])[H])C(C([H])([H])[H])(C([H])([H])[H])C([H])([H])[H])C([H])([H])c2c([H])c(OC([H])([H])C3([H])C([H])([H])C([H])([N+]([H])([H])[H])C3([H])C3([H])c4c([H])c(N([H])C(=O)N5C([H])([H])C([H])([H])C([H])([H])C([H])(n6nc(-c7c([H])c([H])c(Oc8c([H])c([H])c(F)c([H])c8F)c([H])c7[H])c(C(=O)N([H])[H])c6N([H])[H])C5([H])[H])nc(C([H])([H])[H])c4C([H])(C([H])([H])[H])C3([H])[H])c([H])c([H])c2C1([H])[H]

>  <smiles>  (13) 
[H]c1c([H])c([H])c2c(c1[H])C([H])([H])C([H])([H])C([H])([H])C2([H])N([H])C(=O)C1([H])N(C(=O)C([H])(N([H])C(=O)C([H])(N([H])C([H])([H])[H])C([H])([H])[H])C(C([H])([H])[H])(C([H])([H])[H])C([H])([H])[H])C([H])([H])c2c([H])c(OC([H])([H])C3([H])C([H])([H])C([H])([N+]([H])([H])[H])C3([H])C3([H])c4c([H])c(N([H])C(=O)N5C([H])([H])C([H])([H])C([H])([H])C([H])(n6nc(-c7c([H])c([H])c(Oc8c([H])c([H])c(F)c([H])c8F)c([H])c7[H])c(C(=O)N([H])[H])c6N([H])[H])C5([H])[H])nc(C([H])([H])[H])c4C([H])(C([H])([H])[H])C3([H])[H])c([H])c([H])c2C1([H])[H]

$$$$
13:0:0
     RDKit          3D

 95105  0  0  1  0  0  0  0  0999 V2000
  -30.2910  -23.5620   19.5760 C   0  0  0  0  0  3  0  0  0  0  0  0
  -31.1720  -22.5410   19.1840 C   0  0  0  0  0  0  0  0  0  0  0  0
  -30.8470  -21.1780   19.2720 C   0  0  0  0  0  0  0  0  0  0  0  0
  -29.6490  -20.7150   19.8850 C   0  0  0  0  0  0  0  0  0  0  0  0
  -29.0240  -23.2240   20.0660 C   0  0  0  0  0  0  0  0  0  0  0  0
  -33.0780  -21.3500   18.3710 C   0  0  0  0  0  2  0  0  0  0  0  0
  -31.9010  -20.3680   18.5430 C   0  0  0  0  0  3  0  0  0  0  0  0
  -32.5270  -22.7840   18.5540 C   0  0  1  0  0  0  0  0  0  0  0  0
  -31.3920  -19.9050   17.1640 C   0  0  0  0  0  1  0  0  0  0  0  0
  -32.3690  -23.5090   17.2040 C   0  0  0  0  0  1  0  0  0  0  0  0
  -33.4380  -23.6000   19.4890 C   0  0  0  0  0  1  0  0  0  0  0  0
  -28.7520  -21.8030   20.2280 N   0  0  0  0  0  0  0  0  0  0  0  0
  -30.6020  -15.0720   19.9300 C   0  0  0  0  0  0  0  0  0  0  0  0
  -30.3900  -12.7250   18.9420 C   0  0  0  0  0  2  0  0  0  0  0  0
  -29.3840  -12.6840   17.7700 C   0  0  0  0  0  2  0  0  0  0  0  0
  -27.9600  -12.4370   18.2970 C   0  0  0  0  0  2  0  0  0  0  0  0
  -27.6220  -13.3350   19.5170 C   0  0  0  0  0  3  0  0  0  0  0  0
  -28.7540  -13.3550   20.5670 C   0  0  0  0  0  2  0  0  0  0  0  0
  -29.9640  -13.8190   19.8760 N   0  0  0  0  0  0  0  0  0  0  0  0
  -31.7710  -15.0760   19.5240 O   0  0  0  0  0  0  0  0  0  0  0  0
  -29.0540  -18.3750   21.3650 C   0  0  0  0  0  2  0  0  0  0  0  0
  -29.0460  -16.7840   21.1990 C   0  0  0  0  0  2  0  0  0  0  0  0
  -30.2920  -17.7570   19.5330 C   0  0  0  0  0  2  0  0  0  0  0  0
  -29.3310  -19.0410   19.9970 C   0  0  0  0  0  3  0  0  0  0  0  0
  -29.9190  -16.3470   20.0850 N   0  0  0  0  0  0  0  0  0  0  0  0
  -25.3030  -13.8650   20.4470 C   0  0  0  0  0  0  0  0  0  0  0  0
  -24.2710  -13.0710   20.8670 C   0  0  0  0  0  0  0  0  0  0  0  0
  -24.7370  -11.7260   20.7540 C   0  0  0  0  0  0  0  0  0  0  0  0
  -26.3280  -13.0040   20.1010 N   0  0  0  0  0  0  0  0  0  0  0  0
  -26.0030  -11.7090   20.3510 N   0  0  0  0  0  0  0  0  0  0  0  0
  -24.0260  -10.4540   20.9470 C   0  0  0  0  0  0  0  0  0  0  0  0
  -24.4800   -9.4840   21.8670 C   0  0  0  0  0  3  0  0  0  0  0  0
  -23.7660   -8.2810   22.0510 C   0  0  0  0  0  3  0  0  0  0  0  0
  -22.5830   -8.0370   21.3140 C   0  0  0  0  0  0  0  0  0  0  0  0
  -22.1480   -8.9950   20.3820 C   0  0  0  0  0  3  0  0  0  0  0  0
  -22.8630  -10.1910   20.1950 C   0  0  0  0  0  3  0  0  0  0  0  0
  -21.8360   -6.8870   21.4110 O   0  0  0  0  0  0  0  0  0  0  0  0
  -21.7530   -6.1790   22.5830 C   0  0  0  0  0  0  0  0  0  0  0  0
  -21.2750   -6.7640   23.7770 C   0  0  0  0  0  3  0  0  0  0  0  0
  -21.1420   -5.9800   24.9410 C   0  0  0  0  0  3  0  0  0  0  0  0
  -21.4760   -4.6130   24.9120 C   0  0  0  0  0  0  0  0  0  0  0  0
  -21.9470   -4.0270   23.7240 C   0  0  0  0  0  3  0  0  0  0  0  0
  -22.0820   -4.8080   22.5620 C   0  0  0  0  0  0  0  0  0  0  0  0
  -22.5160   -4.2330   21.4150 F   0  0  0  0  0  0  0  0  0  0  0  0
  -21.3400   -3.8590   26.0270 F   0  0  0  0  0  0  0  0  0  0  0  0
  -22.8950  -13.5330   21.2480 C   0  0  0  0  0  0  0  0  0  0  0  0
  -22.2340  -12.8160   22.1520 N   0  0  0  0  0  0  0  0  0  0  0  0
  -22.4150  -14.5640   20.7780 O   0  0  0  0  0  0  0  0  0  0  0  0
  -22.6360  -11.9830   22.5560 H   0  0  0  0  0  0  0  0  0  0  0  0
  -21.3100  -13.1030   22.4410 H   0  0  0  0  0  0  0  0  0  0  0  0
  -25.4460  -15.2420   20.3060 N   0  0  0  0  0  0  0  0  0  0  0  0
  -24.6890  -15.8850   20.5100 H   0  0  0  0  0  0  0  0  0  0  0  0
  -26.2640  -15.6990   19.9250 H   0  0  0  0  0  0  0  0  0  0  0  0
  -27.9770  -24.5130   20.3110 C   0  0  0  0  0  2  0  0  0  0  0  0
  -28.2950  -26.0700   20.2040 O   0  0  0  0  0  0  0  0  0  0  0  0
  -24.6680  -31.8500   23.1930 C   0  0  0  0  0  0  0  0  0  0  0  0
  -27.2550  -27.0920   20.1620 C   0  0  0  0  0  0  0  0  0  0  0  0
  -23.4800  -30.4560   21.5480 C   0  0  0  0  0  3  0  0  0  0  0  0
  -24.9350  -28.8810   20.1230 C   0  0  0  0  0  0  0  0  0  0  0  0
  -26.0390  -30.7060   21.3990 C   0  0  0  0  0  2  0  0  0  0  0  0
  -26.1160  -29.3120   20.7420 C   0  0  0  0  0  0  0  0  0  0  0  0
  -27.2760  -28.4360   20.7390 C   0  0  0  0  0  3  0  0  0  0  0  0
  -26.0470  -26.7870   19.4960 C   0  0  0  0  0  3  0  0  0  0  0  0
  -24.9190  -27.6360   19.4810 C   0  0  0  0  0  3  0  0  0  0  0  0
  -23.7070  -29.7800   20.1690 C   0  0  0  0  0  2  0  0  0  0  0  0
  -24.7500  -31.0260   22.1010 N   0  0  0  0  0  0  0  0  0  0  0  0
  -23.5780  -32.1340   23.7130 O   0  0  0  0  0  0  0  0  0  0  0  0
  -22.7940  -29.4480   22.5050 C   0  0  0  0  0  0  0  0  0  0  0  0
  -21.4640  -29.2880   22.3800 N   0  0  0  0  0  0  0  0  0  0  0  0
  -23.4630  -28.8100   23.3220 O   0  0  0  0  0  0  0  0  0  0  0  0
  -20.9800  -29.8550   21.6980 H   0  0  0  0  0  0  0  0  0  0  0  0
  -18.0710  -28.1240   22.9080 C   0  0  0  0  0  0  0  0  0  0  0  0
  -20.6370  -28.3480   23.1460 C   0  0  0  0  0  3  0  0  0  0  0  0
  -20.7110  -26.9240   22.5460 C   0  0  0  0  0  2  0  0  0  0  0  0
  -19.5930  -26.6330   21.5420 C   0  0  0  0  0  2  0  0  0  0  0  0
  -18.2220  -26.7850   22.2050 C   0  0  0  0  0  2  0  0  0  0  0  0
  -19.2050  -28.8650   23.3350 C   0  0  0  0  0  0  0  0  0  0  0  0
  -19.0090  -30.1180   23.9530 C   0  0  0  0  0  3  0  0  0  0  0  0
  -17.7120  -30.6310   24.1490 C   0  0  0  0  0  3  0  0  0  0  0  0
  -16.5930  -29.8860   23.7380 C   0  0  0  0  0  3  0  0  0  0  0  0
  -16.7740  -28.6340   23.1250 C   0  0  0  0  0  3  0  0  0  0  0  0
  -25.9390  -32.4890   23.8290 C   0  0  0  0  0  3  0  0  0  0  0  0
  -25.6140  -33.8820   24.1800 N   0  0  0  0  0  0  0  0  0  0  0  0
  -25.9130  -34.9510   23.4300 C   0  0  0  0  0  0  0  0  0  0  0  0
  -26.5550  -34.8700   22.3810 O   0  0  0  0  0  0  0  0  0  0  0  0
  -25.0380  -34.0170   24.9980 H   0  0  0  0  0  0  0  0  0  0  0  0
  -24.1420  -36.7210   23.1640 C   0  0  0  0  0  1  0  0  0  0  0  0
  -25.4220  -36.3290   23.9200 C   0  0  0  0  0  3  0  0  0  0  0  0
  -27.5720  -37.2460   24.6730 C   0  0  0  0  0  1  0  0  0  0  0  0
  -26.4320  -37.4010   23.7740 N   0  0  0  0  0  0  0  0  0  0  0  0
  -26.0170  -38.3140   23.9410 H   0  0  0  0  0  0  0  0  0  0  0  0
  -26.4540  -31.7090   25.1010 C   0  0  1  0  0  0  0  0  0  0  0  0
  -25.3580  -31.4540   26.1630 C   0  0  0  0  0  1  0  0  0  0  0  0
  -27.0460  -30.3380   24.7040 C   0  0  0  0  0  1  0  0  0  0  0  0
  -27.5980  -32.5030   25.7760 C   0  0  0  0  0  1  0  0  0  0  0  0
  1  5  1  0
  2  3  1  0
  2  1  2  0
  3  4  2  0
  4 12  1  0
  5 12  2  0
  5 54  1  0
  6  7  1  0
  6  8  1  0
  7  9  1  0
  7  3  1  0
  8  2  1  0
  8 11  1  1
 10  8  1  0
 13 25  1  0
 14 19  1  0
 15 16  1  0
 15 14  1  0
 17 16  1  0
 17 29  1  0
 17 18  1  0
 19 13  1  0
 19 18  1  0
 20 13  2  0
 22 21  1  0
 23 24  1  0
 23 25  1  0
 24  4  1  0
 24 21  1  0
 25 22  1  0
 26 27  2  0
 27 46  1  0
 28 27  1  0
 28 31  1  0
 29 30  1  0
 29 26  1  0
 30 28  2  0
 31 32  1  0
 32 33  2  0
 34 37  1  0
 34 33  1  0
 35 34  2  0
 36 35  1  0
 36 31  2  0
 37 38  1  0
 38 39  1  0
 39 40  2  0
 41 40  1  0
 41 45  1  0
 42 41  2  0
 43 38  2  0
 43 42  1  0
 44 43  1  0
 46 47  1  0
 47 50  1  0
 47 49  1  0
 48 46  2  0
 51 26  1  0
 51 52  1  0
 53 51  1  0
 55 54  1  0
 56 67  2  0
 57 55  1  0
 57 62  1  0
 58 66  1  0
 58 68  1  0
 59 65  1  0
 59 61  1  0
 60 66  1  0
 61 60  1  0
 62 61  2  0
 63 57  2  0
 64 63  1  0
 64 59  2  0
 65 58  1  0
 66 56  1  0
 68 70  2  0
 69 68  1  0
 71 69  1  0
 72 81  2  0
 72 77  1  0
 73 69  1  0
 73 77  1  0
 74 73  1  0
 75 76  1  0
 75 74  1  0
 76 72  1  0
 77 78  2  0
 78 79  1  0
 80 79  2  0
 81 80  1  0
 82 56  1  0
 82 83  1  0
 82 92  1  0
 83 86  1  0
 84 88  1  0
 84 83  1  0
 85 84  2  0
 88 87  1  0
 90 88  1  0
 90 91  1  0
 90 89  1  0
 92 95  1  1
 92 93  1  0
 94 92  1  0
M  ISO  4  13 100  25 100  54 101  55 101
M  END
>  <TORSDO>  (14) 
F 17

>  <SCORE>  (14) 
-14.780

>  <name>  (14) 
13

>  <ligand_id>  (14) 
13

>  <original_smiles>  (14) 
[H]c1c([H])c([H])c2c(c1[H])C([H])([H])C([H])([H])C([H])([H])C2([H])N([H])C(=O)C1([H])N(C(=O)C([H])(N([H])C(=O)C([H])(N([H])C([H])([H])[H])C([H])([H])[H])C(C([H])([H])[H])(C([H])([H])[H])C([H])([H])[H])C([H])([H])c2c([H])c(OC([H])([H])c3nc(C4([H])C([H])([H])N(C(=O)N5C([H])([H])C([H])([H])C([H])([H])C([H])(n6nc(-c7c([H])c([H])c(Oc8c([H])c([H])c(F)c([H])c8F)c([H])c7[H])c(C(=O)N([H])[H])c6N([H])[H])C5([H])[H])C([H])([H])C4([H])[H])c4c(c3[H])C(C([H])([H])[H])(C([H])([H])[H])C([H])([H])C4([H])C([H])([H])[H])c([H])c([H])c2C1([H])[H]

>  <smiles>  (14) 
[H]c1c([H])c([H])c2c(c1[H])C([H])([H])C([H])([H])C([H])([H])C2([H])N([H])C(=O)C1([H])N(C(=O)C([H])(N([H])C(=O)C([H])(N([H])C([H])([H])[H])C([H])([H])[H])C(C([H])([H])[H])(C([H])([H])[H])C([H])([H])[H])C([H])([H])c2c([H])c(OC([H])([H])c3nc(C4([H])C([H])([H])N(C(=O)N5C([H])([H])C([H])([H])C([H])([H])C([H])(n6nc(-c7c([H])c([H])c(Oc8c([H])c([H])c(F)c([H])c8F)c([H])c7[H])c(C(=O)N([H])[H])c6N([H])[H])C5([H])[H])C([H])([H])C4([H])[H])c4c(c3[H])C(C([H])([H])[H])(C([H])([H])[H])C([H])([H])C4([H])C([H])([H])[H])c([H])c([H])c2C1([H])[H]

$$$$
14:0:0
     RDKit          3D

 92 95  0  0  1  0  0  0  0  0999 V2000
  -31.1830  -19.3770   19.4130 C   0  0  0  0  0 15  0  0  0  0  0  0
  -29.7710  -18.2240   18.2530 C   0  0  0  0  0  1  0  0  0  0  0  0
  -27.8420  -18.6250   19.1300 C   0  0  0  0  0  1  0  0  0  0  0  0
  -28.7890  -21.6080   20.6790 C   0  0  0  0  0  2  0  0  0  0  0  0
  -30.4470  -20.7580   20.6000 N   0  0  0  0  0  1  0  0  0  0  0  0
  -27.6990  -20.1410   20.3500 N   0  0  0  0  0  1  0  0  0  0  0  0
  -29.6270  -18.0100   20.5200 C   0  0  0  0  0  2  0  0  0  0  0  0
  -30.4450  -14.9540   19.6920 C   0  0  0  0  0  2  0  0  0  0  0  0
  -29.9300  -13.7230   18.7300 C   0  0  0  0  0  2  0  0  0  0  0  0
  -28.7910  -12.8640   19.2890 C   0  0  0  0  0  2  0  0  0  0  0  0
  -27.9620  -13.8230   20.1350 C   0  0  0  0  0  3  0  0  0  0  0  0
  -28.7620  -14.9630   21.0180 C   0  0  0  0  0  2  0  0  0  0  0  0
  -29.4810  -16.2350   20.2620 N   0  0  0  0  0  0  0  0  0  0  0  0
  -30.7920  -17.4510   20.8810 O   0  0  0  0  0  1  0  0  0  0  0  0
  -28.4820  -19.4680   16.4700 C   0  0  0  0  0  2  0  0  0  0  0  0
  -30.7710  -19.9700   16.7460 C   0  0  0  0  0  2  0  0  0  0  0  0
  -28.2340  -20.5480   17.6130 C   0  0  0  0  0  2  0  0  0  0  0  0
  -30.2490  -21.0220   17.8150 C   0  0  0  0  0  2  0  0  0  0  0  0
  -29.8180  -18.7340   16.7840 C   0  0  0  0  0  3  0  0  0  0  0  0
  -29.2510  -20.2160   18.7970 N   0  0  0  0  0  2  0  0  0  0  0  0
  -25.6020  -13.9540   21.0120 C   0  0  0  0  0  0  0  0  0  0  0  0
  -24.5790  -13.0990   21.2620 C   0  0  0  0  0  0  0  0  0  0  0  0
  -25.1160  -11.7880   21.0910 C   0  0  0  0  0  0  0  0  0  0  0  0
  -26.7150  -13.2200   20.6840 N   0  0  0  0  0  0  0  0  0  0  0  0
  -26.4240  -11.8740   20.7590 N   0  0  0  0  0  0  0  0  0  0  0  0
  -24.4080  -10.4920   21.1910 C   0  0  0  0  0  0  0  0  0  0  0  0
  -24.6550   -9.5830   22.2440 C   0  0  0  0  0  3  0  0  0  0  0  0
  -23.9230   -8.3780   22.3470 C   0  0  0  0  0  3  0  0  0  0  0  0
  -22.9230   -8.0650   21.3960 C   0  0  0  0  0  0  0  0  0  0  0  0
  -22.6840   -8.9650   20.3420 C   0  0  0  0  0  3  0  0  0  0  0  0
  -23.4180  -10.1620   20.2380 C   0  0  0  0  0  3  0  0  0  0  0  0
  -22.1900   -6.9010   21.3970 O   0  0  0  0  0  0  0  0  0  0  0  0
  -21.7250   -6.3370   22.5590 C   0  0  0  0  0  0  0  0  0  0  0  0
  -20.8150   -7.0140   23.4000 C   0  0  0  0  0  3  0  0  0  0  0  0
  -20.3080   -6.3740   24.5500 C   0  0  0  0  0  3  0  0  0  0  0  0
  -20.7010   -5.0580   24.8550 C   0  0  0  0  0  0  0  0  0  0  0  0
  -21.6000   -4.3780   24.0140 C   0  0  0  0  0  3  0  0  0  0  0  0
  -22.1090   -5.0160   22.8680 C   0  0  0  0  0  0  0  0  0  0  0  0
  -22.9580   -4.3480   22.0510 F   0  0  0  0  0  0  0  0  0  0  0  0
  -20.2090   -4.4400   25.9540 F   0  0  0  0  0  0  0  0  0  0  0  0
  -23.1670  -13.5120   21.5600 C   0  0  0  0  0  0  0  0  0  0  0  0
  -22.4730  -12.7650   22.4080 N   0  0  0  0  0  0  0  0  0  0  0  0
  -22.6940  -14.5470   21.0870 O   0  0  0  0  0  0  0  0  0  0  0  0
  -22.8710  -11.9310   22.8150 H   0  0  0  0  0  0  0  0  0  0  0  0
  -21.5300  -13.0290   22.6550 H   0  0  0  0  0  0  0  0  0  0  0  0
  -25.6610  -15.3250   21.0210 N   0  0  0  0  0  0  0  0  0  0  0  0
  -24.8370  -15.8960   21.1630 H   0  0  0  0  0  0  0  0  0  0  0  0
  -26.4890  -15.8520   20.7880 H   0  0  0  0  0  0  0  0  0  0  0  0
  -25.2410  -18.4660   19.3490 C   0  0  0  0  0  2  0  0  0  0  0  0
  -25.6810  -17.0810   18.8920 C   0  0  0  0  0  2  0  0  0  0  0  0
  -26.4770  -18.2830   18.5310 C   0  0  0  0  0  3  0  0  0  0  0  0
  -28.4470  -23.6790   20.8020 O   0  0  0  0  0 15  0  0  0  0  0  0
  -24.8870  -31.8040   23.3970 C   0  0  0  0  0  0  0  0  0  0  0  0
  -27.5220  -25.4610   20.7740 C   0  0  0  0  0  3  0  0  0  0  0  0
  -23.8200  -30.3020   21.7820 C   0  0  0  0  0  3  0  0  0  0  0  0
  -25.3280  -28.3180   20.5740 C   0  0  0  0  0  0  0  0  0  0  0  0
  -26.4220  -30.0540   21.9270 C   0  0  0  0  0  2  0  0  0  0  0  0
  -26.5090  -28.4480   21.3110 C   0  0  0  0  0  0  0  0  0  0  0  0
  -27.5070  -27.1100   21.3410 C   0  0  0  0  0  3  0  0  0  0  0  0
  -26.3040  -25.8970   19.9790 C   0  0  0  0  0  3  0  0  0  0  0  0
  -25.3430  -27.0630   19.8880 C   0  0  0  0  0  3  0  0  0  0  0  0
  -24.1740  -29.4290   20.5070 C   0  0  0  0  0  2  0  0  0  0  0  0
  -25.0880  -30.7890   22.4230 N   0  0  0  0  0  0  0  0  0  0  0  0
  -23.7500  -32.1710   23.7720 O   0  0  0  0  0  0  0  0  0  0  0  0
  -22.9300  -29.5040   22.7860 C   0  0  0  0  0  0  0  0  0  0  0  0
  -21.6030  -29.3570   22.5690 N   0  0  0  0  0  0  0  0  0  0  0  0
  -23.4780  -28.9930   23.7640 O   0  0  0  0  0  0  0  0  0  0  0  0
  -21.1900  -29.8160   21.7690 H   0  0  0  0  0  0  0  0  0  0  0  0
  -18.2050  -28.0280   22.9410 C   0  0  0  0  0  0  0  0  0  0  0  0
  -20.7300  -28.4560   23.3480 C   0  0  0  0  0  3  0  0  0  0  0  0
  -20.9290  -26.9870   22.9020 C   0  0  0  0  0  2  0  0  0  0  0  0
  -19.9270  -26.5440   21.8310 C   0  0  0  0  0  2  0  0  0  0  0  0
  -18.4950  -26.6540   22.3610 C   0  0  0  0  0  2  0  0  0  0  0  0
  -19.2530  -28.8820   23.3850 C   0  0  0  0  0  0  0  0  0  0  0  0
  -18.9200  -30.1540   23.8990 C   0  0  0  0  0  3  0  0  0  0  0  0
  -17.5780  -30.5790   23.9650 C   0  0  0  0  0  3  0  0  0  0  0  0
  -16.5480  -29.7270   23.5290 C   0  0  0  0  0  3  0  0  0  0  0  0
  -16.8620  -28.4540   23.0230 C   0  0  0  0  0  3  0  0  0  0  0  0
  -26.0460  -32.5740   24.1240 C   0  0  0  0  0  3  0  0  0  0  0  0
  -25.6800  -34.0080   24.3330 N   0  0  0  0  0  0  0  0  0  0  0  0
  -26.0490  -35.0510   23.5690 C   0  0  0  0  0  0  0  0  0  0  0  0
  -26.7500  -34.9070   22.5670 O   0  0  0  0  0  0  0  0  0  0  0  0
  -25.0490  -34.1920   25.0990 H   0  0  0  0  0  0  0  0  0  0  0  0
  -24.3300  -36.8650   23.1620 C   0  0  0  0  0  1  0  0  0  0  0  0
  -25.5820  -36.4770   23.9670 C   0  0  0  0  0  3  0  0  0  0  0  0
  -27.7210  -37.4310   24.7250 C   0  0  0  0  0  1  0  0  0  0  0  0
  -26.6150  -37.5240   23.7770 N   0  0  0  0  0  0  0  0  0  0  0  0
  -26.2070  -38.4520   23.8570 H   0  0  0  0  0  0  0  0  0  0  0  0
  -26.3930  -31.9530   25.5360 C   0  0  1  0  0  0  0  0  0  0  0  0
  -25.1700  -31.7930   26.4730 C   0  0  0  0  0  1  0  0  0  0  0  0
  -27.0370  -30.5630   25.3880 C   0  0  0  0  0  1  0  0  0  0  0  0
  -27.4390  -32.8340   26.2600 C   0  0  0  0  0  1  0  0  0  0  0  0
  5  4  1  0
  6  4  1  0
  7 14  1  0
  8 13  1  0
  9 10  1  0
  9  8  1  0
 11 10  1  0
 11 24  1  0
 11 12  1  0
 13  7  1  0
 13 12  1  0
 15 19  1  0
 15 17  1  0
 16 19  1  0
 16 18  1  0
 17 20  1  0
 18 20  1  0
 19  2  1  0
 21 46  1  0
 21 22  2  0
 22 41  1  0
 23 26  1  0
 23 22  1  0
 24 25  1  0
 24 21  1  0
 25 23  2  0
 26 27  1  0
 27 28  2  0
 29 32  1  0
 29 28  1  0
 30 29  2  0
 31 30  1  0
 31 26  2  0
 32 33  1  0
 33 38  2  0
 33 34  1  0
 34 35  2  0
 35 36  1  0
 36 40  1  0
 37 36  2  0
 38 37  1  0
 39 38  1  0
 41 42  1  0
 42 45  1  0
 42 44  1  0
 43 41  2  0
 46 47  1  0
 48 46  1  0
 50 49  1  0
 51 50  1  0
 51  3  1  0
 51 49  1  0
 53 64  2  0
 54 59  1  0
 55 63  1  0
 55 65  1  0
 56 58  1  0
 57 63  1  0
 58 59  2  0
 58 57  1  0
 60 54  2  0
 61 60  1  0
 61 56  2  0
 62 56  1  0
 62 55  1  0
 63 53  1  0
 65 67  2  0
 66 65  1  0
 68 66  1  0
 69 78  2  0
 69 74  1  0
 70 66  1  0
 70 74  1  0
 71 70  1  0
 72 73  1  0
 72 71  1  0
 73 69  1  0
 74 75  2  0
 75 76  1  0
 77 76  2  0
 78 77  1  0
 79 53  1  0
 79 80  1  0
 79 89  1  0
 80 83  1  0
 81 85  1  0
 81 80  1  0
 82 81  2  0
 85 84  1  0
 87 88  1  0
 87 85  1  0
 87 86  1  0
 89 92  1  1
 89 90  1  0
 91 89  1  0
M  ISO  4   4 101   7 100  20 100  52 101
M  END
>  <TORSDO>  (15) 
F 17

>  <SCORE>  (15) 
-10.962

>  <name>  (15) 
14

>  <ligand_id>  (15) 
14

>  <original_smiles>  (15) 
[H]c1nc(Oc2c([H])c([H])c3c(c2[H])C([H])([H])N(C(=O)C([H])(N([H])C(=O)C([H])(N([H])C([H])([H])[H])C([H])([H])[H])C(C([H])([H])[H])(C([H])([H])[H])C([H])([H])[H])C([H])(C(=O)N([H])C2([H])c4c([H])c([H])c([H])c([H])c4C([H])([H])C([H])([H])C2([H])[H])C3([H])[H])nc(C2([H])C([H])([H])C2([H])[H])c1C1([H])C([H])([H])C([H])([H])N(C(=O)N2C([H])([H])C([H])([H])C([H])([H])C([H])(n3nc(-c4c([H])c([H])c(Oc5c([H])c([H])c(F)c([H])c5F)c([H])c4[H])c(C(=O)N([H])[H])c3N([H])[H])C2([H])[H])C([H])([H])C1([H])[H]

>  <smiles>  (15) 
[H]c1nc(Oc2c([H])c([H])c3c(c2[H])C([H])([H])N(C(=O)C([H])(N([H])C(=O)C([H])(N([H])C([H])([H])[H])C([H])([H])[H])C(C([H])([H])[H])(C([H])([H])[H])C([H])([H])[H])C([H])(C(=O)N([H])C2([H])c4c([H])c([H])c([H])c([H])c4C([H])([H])C([H])([H])C2([H])[H])C3([H])[H])nc(C2([H])C([H])([H])C2([H])[H])c1C1([H])C([H])([H])C([H])([H])N(C(=O)N2C([H])([H])C([H])([H])C([H])([H])C([H])(n3nc(-c4c([H])c([H])c(Oc5c([H])c([H])c(F)c([H])c5F)c([H])c4[H])c(C(=O)N([H])[H])c3N([H])[H])C2([H])[H])C([H])([H])C1([H])[H]

$$$$
15:0:0
     RDKit          3D

 91100  0  0  1  0  0  0  0  0999 V2000
  -27.3890  -22.4530   19.6190 C   0  0  0  0  0  0  0  0  0  0  0  0
  -28.4030  -23.0920   20.3820 C   0  0  0  0  0  0  0  0  0  0  0  0
  -27.7400  -21.1270   19.3880 C   0  0  0  0  0  0  0  0  0  0  0  0
  -26.1220  -23.1280   19.1680 C   0  0  0  0  0  1  0  0  0  0  0  0
  -27.0210  -20.2550   18.4260 C   0  0  0  0  0  1  0  0  0  0  0  0
  -29.2360  -21.9840   20.7260 N   0  0  0  0  0  0  0  0  0  0  0  0
  -28.8320  -20.6950   20.1730 N   0  0  0  0  0  0  0  0  0  0  0  0
  -30.5590  -15.2070   20.1020 C   0  0  0  0  0  0  0  0  0  0  0  0
  -30.3850  -12.8230   19.1690 C   0  0  0  0  0  2  0  0  0  0  0  0
  -29.4400  -12.6300   17.9600 C   0  0  0  0  0  2  0  0  0  0  0  0
  -28.0340  -12.2960   18.4720 C   0  0  0  0  0  2  0  0  0  0  0  0
  -27.5810  -13.3110   19.5550 C   0  0  0  0  0  3  0  0  0  0  0  0
  -28.6360  -13.5550   20.6560 C   0  0  0  0  0  2  0  0  0  0  0  0
  -29.8880  -13.9670   20.0130 N   0  0  0  0  0  0  0  0  0  0  0  0
  -31.7550  -15.1350   19.7820 O   0  0  0  0  0  0  0  0  0  0  0  0
  -30.3410  -18.8560   21.5570 C   0  0  0  0  0  2  0  0  0  0  0  0
  -30.8970  -17.3770   21.4000 C   0  0  0  0  0  2  0  0  0  0  0  0
  -29.6180  -19.2380   20.2370 C   0  0  0  0  0  3  0  0  0  0  0  0
  -29.0780  -17.6400   19.9370 C   0  0  0  0  0  3  0  0  0  0  0  0
  -28.5680  -17.3060   18.4870 C   0  0  0  0  0  1  0  0  0  0  0  0
  -30.0220  -16.5030   20.5330 N   0  0  0  0  0  0  0  0  0  0  0  0
  -25.2600  -13.8740   20.4290 C   0  0  0  0  0  0  0  0  0  0  0  0
  -24.2090  -13.1000   20.8460 C   0  0  0  0  0  0  0  0  0  0  0  0
  -24.6680  -11.7510   20.7790 C   0  0  0  0  0  0  0  0  0  0  0  0
  -26.2800  -12.9930   20.1210 N   0  0  0  0  0  0  0  0  0  0  0  0
  -25.9450  -11.7090   20.4080 N   0  0  0  0  0  0  0  0  0  0  0  0
  -23.9460  -10.4900   20.9790 C   0  0  0  0  0  0  0  0  0  0  0  0
  -24.3980   -9.5260   21.9030 C   0  0  0  0  0  3  0  0  0  0  0  0
  -23.6860   -8.3230   22.0870 C   0  0  0  0  0  3  0  0  0  0  0  0
  -22.5030   -8.0810   21.3480 C   0  0  0  0  0  0  0  0  0  0  0  0
  -22.0710   -9.0320   20.4110 C   0  0  0  0  0  3  0  0  0  0  0  0
  -22.7850  -10.2270   20.2240 C   0  0  0  0  0  3  0  0  0  0  0  0
  -21.7540   -6.9340   21.4450 O   0  0  0  0  0  0  0  0  0  0  0  0
  -21.6990   -6.2110   22.6070 C   0  0  0  0  0  0  0  0  0  0  0  0
  -21.2340   -6.7710   23.8170 C   0  0  0  0  0  3  0  0  0  0  0  0
  -21.1290   -5.9680   24.9710 C   0  0  0  0  0  3  0  0  0  0  0  0
  -21.4820   -4.6080   24.9140 C   0  0  0  0  0  0  0  0  0  0  0  0
  -21.9420   -4.0470   23.7100 C   0  0  0  0  0  3  0  0  0  0  0  0
  -22.0480   -4.8460   22.5600 C   0  0  0  0  0  0  0  0  0  0  0  0
  -22.4730   -4.2940   21.3980 F   0  0  0  0  0  0  0  0  0  0  0  0
  -21.3700   -3.8350   26.0210 F   0  0  0  0  0  0  0  0  0  0  0  0
  -22.8290  -13.5870   21.1700 C   0  0  0  0  0  0  0  0  0  0  0  0
  -22.1220  -12.8800   22.0490 N   0  0  0  0  0  0  0  0  0  0  0  0
  -22.3840  -14.6230   20.6870 O   0  0  0  0  0  0  0  0  0  0  0  0
  -22.4970  -12.0490   22.4760 H   0  0  0  0  0  0  0  0  0  0  0  0
  -21.1940  -13.1900   22.2990 H   0  0  0  0  0  0  0  0  0  0  0  0
  -25.4230  -15.2380   20.2430 N   0  0  0  0  0  0  0  0  0  0  0  0
  -24.6560  -15.8960   20.3290 H   0  0  0  0  0  0  0  0  0  0  0  0
  -26.2130  -15.6100   19.7300 H   0  0  0  0  0  0  0  0  0  0  0  0
  -28.3360  -24.6880   20.9770 C   0  0  0  0  0  2  0  0  0  0  0  0
  -28.3400  -26.1050   20.2480 O   0  0  0  0  0  0  0  0  0  0  0  0
  -24.6330  -31.8720   23.2140 C   0  0  0  0  0  0  0  0  0  0  0  0
  -27.2750  -27.1100   20.2660 C   0  0  0  0  0  0  0  0  0  0  0  0
  -23.4610  -30.4610   21.5690 C   0  0  0  0  0  3  0  0  0  0  0  0
  -24.9360  -28.8770   20.1750 C   0  0  0  0  0  0  0  0  0  0  0  0
  -26.0180  -30.7310   21.4310 C   0  0  0  0  0  2  0  0  0  0  0  0
  -26.1090  -29.3260   20.7990 C   0  0  0  0  0  0  0  0  0  0  0  0
  -27.2800  -28.4630   20.8250 C   0  0  0  0  0  3  0  0  0  0  0  0
  -26.0890  -26.8000   19.5680 C   0  0  0  0  0  3  0  0  0  0  0  0
  -24.9420  -27.6290   19.5380 C   0  0  0  0  0  3  0  0  0  0  0  0
  -23.7060  -29.7750   20.1980 C   0  0  0  0  0  2  0  0  0  0  0  0
  -24.7240  -31.0470   22.1240 N   0  0  0  0  0  0  0  0  0  0  0  0
  -23.5400  -32.1480   23.7320 O   0  0  0  0  0  0  0  0  0  0  0  0
  -22.7740  -29.4560   22.5290 C   0  0  0  0  0  0  0  0  0  0  0  0
  -21.4450  -29.2880   22.4070 N   0  0  0  0  0  0  0  0  0  0  0  0
  -23.4450  -28.8250   23.3520 O   0  0  0  0  0  0  0  0  0  0  0  0
  -20.9550  -29.8540   21.7280 H   0  0  0  0  0  0  0  0  0  0  0  0
  -18.0580  -28.1000   22.9260 C   0  0  0  0  0  0  0  0  0  0  0  0
  -20.6210  -28.3460   23.1710 C   0  0  0  0  0  3  0  0  0  0  0  0
  -20.7110  -26.9190   22.5840 C   0  0  0  0  0  2  0  0  0  0  0  0
  -19.6000  -26.6140   21.5760 C   0  0  0  0  0  2  0  0  0  0  0  0
  -18.2230  -26.7580   22.2330 C   0  0  0  0  0  2  0  0  0  0  0  0
  -19.1860  -28.8540   23.3520 C   0  0  0  0  0  0  0  0  0  0  0  0
  -18.9760  -30.1100   23.9610 C   0  0  0  0  0  3  0  0  0  0  0  0
  -17.6740  -30.6100   24.1480 C   0  0  0  0  0  3  0  0  0  0  0  0
  -16.5640  -29.8520   23.7350 C   0  0  0  0  0  3  0  0  0  0  0  0
  -16.7580  -28.5990   23.1290 C   0  0  0  0  0  3  0  0  0  0  0  0
  -25.8980  -32.5180   23.8550 C   0  0  0  0  0  3  0  0  0  0  0  0
  -25.5720  -33.9160   24.1820 N   0  0  0  0  0  0  0  0  0  0  0  0
  -25.8870  -34.9750   23.4230 C   0  0  0  0  0  0  0  0  0  0  0  0
  -26.5490  -34.8790   22.3870 O   0  0  0  0  0  0  0  0  0  0  0  0
  -24.9930  -34.0670   24.9940 H   0  0  0  0  0  0  0  0  0  0  0  0
  -24.1390  -36.7560   23.0850 C   0  0  0  0  0  1  0  0  0  0  0  0
  -25.3890  -36.3600   23.8860 C   0  0  0  0  0  3  0  0  0  0  0  0
  -27.5170  -37.2730   24.7030 C   0  0  0  0  0  1  0  0  0  0  0  0
  -26.4080  -37.4250   23.7640 N   0  0  0  0  0  0  0  0  0  0  0  0
  -25.9940  -38.3410   23.9090 H   0  0  0  0  0  0  0  0  0  0  0  0
  -26.4020  -31.7580   25.1440 C   0  0  1  0  0  0  0  0  0  0  0  0
  -25.2990  -31.5270   26.2010 C   0  0  0  0  0  1  0  0  0  0  0  0
  -26.9950  -30.3790   24.7760 C   0  0  0  0  0  1  0  0  0  0  0  0
  -27.5450  -32.5580   25.8130 C   0  0  0  0  0  1  0  0  0  0  0  0
  1  2  1  0
  2  6  2  0
  2 50  1  0
  3  1  2  0
  3  7  1  0
  4  1  1  0
  5  3  1  0
  7  6  1  0
  8 21  1  0
  9 14  1  0
 10 11  1  0
 10  9  1  0
 12 11  1  0
 12 25  1  0
 12 13  1  0
 14  8  1  0
 14 13  1  0
 15  8  2  0
 17 16  1  0
 18  7  1  0
 18 16  1  0
 19 20  1  0
 19 18  1  0
 19 21  1  0
 21 17  1  0
 22 23  2  0
 23 42  1  0
 24 23  1  0
 24 27  1  0
 25 26  1  0
 25 22  1  0
 26 24  2  0
 27 28  1  0
 28 29  2  0
 30 33  1  0
 30 29  1  0
 31 30  2  0
 32 31  1  0
 32 27  2  0
 33 34  1  0
 34 35  1  0
 35 36  2  0
 37 36  1  0
 37 41  1  0
 38 37  2  0
 39 34  2  0
 39 38  1  0
 40 39  1  0
 42 43  1  0
 43 46  1  0
 43 45  1  0
 44 42  2  0
 47 48  1  0
 47 22  1  0
 49 47  1  0
 51 53  1  0
 51 50  1  0
 52 63  2  0
 53 58  1  0
 54 62  1  0
 54 64  1  0
 55 61  1  0
 55 57  1  0
 56 62  1  0
 57 58  2  0
 57 56  1  0
 59 53  2  0
 60 59  1  0
 60 55  2  0
 61 54  1  0
 62 52  1  0
 64 66  2  0
 65 64  1  0
 67 65  1  0
 68 77  2  0
 68 73  1  0
 69 65  1  0
 69 73  1  0
 70 69  1  0
 71 72  1  0
 71 70  1  0
 72 68  1  0
 73 74  2  0
 74 75  1  0
 76 75  2  0
 77 76  1  0
 78 52  1  0
 78 79  1  0
 78 88  1  0
 79 82  1  0
 80 84  1  0
 80 79  1  0
 81 80  2  0
 84 83  1  0
 86 84  1  0
 86 87  1  0
 86 85  1  0
 88 91  1  1
 88 89  1  0
 90 88  1  0
M  ISO  4   8 100  21 100  50 101  51 101
M  END
>  <TORSDO>  (16) 
F 17

>  <SCORE>  (16) 
-16.050

>  <name>  (16) 
15

>  <ligand_id>  (16) 
15

>  <original_smiles>  (16) 
[H]c1c([H])c([H])c2c(c1[H])C([H])([H])C([H])([H])C([H])([H])C2([H])N([H])C(=O)C1([H])N(C(=O)C([H])(N([H])C(=O)C([H])(N([H])C([H])([H])[H])C([H])([H])[H])C(C([H])([H])[H])(C([H])([H])[H])C([H])([H])[H])C([H])([H])c2c([H])c(OC([H])([H])c3nn(C4([H])C([H])([H])C([H])([H])N(C(=O)N5C([H])([H])C([H])([H])C([H])([H])C([H])(n6nc(-c7c([H])c([H])c(Oc8c([H])c([H])c(F)c([H])c8F)c([H])c7[H])c(C(=O)N([H])[H])c6N([H])[H])C5([H])[H])C4([H])C([H])([H])[H])c(C([H])([H])[H])c3C([H])([H])[H])c([H])c([H])c2C1([H])[H]

>  <smiles>  (16) 
[H]c1c([H])c([H])c2c(c1[H])C([H])([H])C([H])([H])C([H])([H])C2([H])N([H])C(=O)C1([H])N(C(=O)C([H])(N([H])C(=O)C([H])(N([H])C([H])([H])[H])C([H])([H])[H])C(C([H])([H])[H])(C([H])([H])[H])C([H])([H])[H])C([H])([H])c2c([H])c(OC([H])([H])c3nn(C4([H])C([H])([H])C([H])([H])N(C(=O)N5C([H])([H])C([H])([H])C([H])([H])C([H])(n6nc(-c7c([H])c([H])c(Oc8c([H])c([H])c(F)c([H])c8F)c([H])c7[H])c(C(=O)N([H])[H])c6N([H])[H])C5([H])[H])C4([H])C([H])([H])[H])c(C([H])([H])[H])c3C([H])([H])[H])c([H])c([H])c2C1([H])[H]

$$$$
16:0:0
     RDKit          3D

 94103  0  0  1  0  0  0  0  0999 V2000
  -29.6190  -23.6210   21.0100 C   0  0  0  0  0  2  0  0  0  0  0  0
  -29.7080  -21.9870   21.2210 C   0  0  0  0  0  2  0  0  0  0  0  0
  -28.8070  -21.6270   19.1010 C   0  0  0  0  0  2  0  0  0  0  0  0
  -28.5140  -24.3300   20.0840 C   0  0  0  0  0  3  0  0  0  0  0  0
  -28.6780  -23.2850   18.8310 C   0  0  1  0  0  0  0  0  0  0  0  0
  -29.8700  -23.7530   17.9620 C   0  0  0  0  0  1  0  0  0  0  0  0
  -27.4150  -23.4220   17.9550 C   0  0  0  0  0  1  0  0  0  0  0  0
  -29.8750  -21.0180   20.0240 N   0  0  2  0  0  4  0  0  0  0  0  0
  -30.7710  -21.2390   19.6140 H   0  0  0  0  0  0  0  0  0  0  0  0
  -31.6600  -17.7220   21.9350 C   0  0  0  0  0  2  0  0  0  0  0  0
  -30.1460  -17.7800   22.3240 C   0  0  0  0  0  2  0  0  0  0  0  0
  -31.9790  -17.7960   20.4060 C   0  0  0  0  0  2  0  0  0  0  0  0
  -29.2790  -18.8690   21.6080 C   0  0  0  0  0  2  0  0  0  0  0  0
  -30.6910  -17.9660   19.5440 C   0  0  0  0  0  3  0  0  0  0  0  0
  -29.9470  -19.3790   20.3190 C   0  0  0  0  0  3  0  0  0  0  0  0
  -30.8820  -15.1210   19.3040 C   0  0  0  0  0  0  0  0  0  0  0  0
  -30.6090  -12.6940   18.5120 C   0  0  0  0  0  2  0  0  0  0  0  0
  -29.5460  -12.5670   17.3960 C   0  0  0  0  0  2  0  0  0  0  0  0
  -28.1420  -12.3970   18.0070 C   0  0  0  0  0  2  0  0  0  0  0  0
  -27.8820  -13.4030   19.1570 C   0  0  0  0  0  3  0  0  0  0  0  0
  -29.0610  -13.4760   20.1520 C   0  0  0  0  0  2  0  0  0  0  0  0
  -30.2440  -13.8670   19.3730 N   0  0  0  0  0  0  0  0  0  0  0  0
  -32.0450  -15.0860   18.8830 O   0  0  0  0  0  0  0  0  0  0  0  0
  -30.2160  -16.3970   19.5280 N   0  0  0  0  0  0  0  0  0  0  0  0
  -29.2500  -16.2750   19.7910 H   0  0  0  0  0  0  0  0  0  0  0  0
  -25.6860  -14.1120   20.2550 C   0  0  0  0  0  0  0  0  0  0  0  0
  -24.6150  -13.4010   20.7230 C   0  0  0  0  0  0  0  0  0  0  0  0
  -24.9470  -12.0230   20.5450 C   0  0  0  0  0  0  0  0  0  0  0  0
  -26.6050  -13.1720   19.8200 N   0  0  0  0  0  0  0  0  0  0  0  0
  -26.1760  -11.9040   20.0550 N   0  0  0  0  0  0  0  0  0  0  0  0
  -24.1380  -10.8150   20.7550 C   0  0  0  0  0  0  0  0  0  0  0  0
  -24.5290   -9.8130   21.6710 C   0  0  0  0  0  3  0  0  0  0  0  0
  -23.7220   -8.6720   21.8720 C   0  0  0  0  0  3  0  0  0  0  0  0
  -22.5100   -8.5240   21.1560 C   0  0  0  0  0  0  0  0  0  0  0  0
  -22.1360   -9.5120   20.2300 C   0  0  0  0  0  3  0  0  0  0  0  0
  -22.9430  -10.6460   20.0270 C   0  0  0  0  0  3  0  0  0  0  0  0
  -21.6750   -7.4380   21.2690 O   0  0  0  0  0  0  0  0  0  0  0  0
  -21.5280   -6.7640   22.4530 C   0  0  0  0  0  0  0  0  0  0  0  0
  -21.1010   -7.4130   23.6320 C   0  0  0  0  0  3  0  0  0  0  0  0
  -20.8940   -6.6690   24.8100 C   0  0  0  0  0  3  0  0  0  0  0  0
  -21.1030   -5.2780   24.8120 C   0  0  0  0  0  0  0  0  0  0  0  0
  -21.5220   -4.6270   23.6370 C   0  0  0  0  0  3  0  0  0  0  0  0
  -21.7300   -5.3680   22.4610 C   0  0  0  0  0  0  0  0  0  0  0  0
  -22.1140   -4.7350   21.3270 F   0  0  0  0  0  0  0  0  0  0  0  0
  -20.8970   -4.5600   25.9410 F   0  0  0  0  0  0  0  0  0  0  0  0
  -23.3170  -13.9720   21.2120 C   0  0  0  0  0  0  0  0  0  0  0  0
  -22.6730  -13.3030   22.1640 N   0  0  0  0  0  0  0  0  0  0  0  0
  -22.8880  -15.0430   20.7870 O   0  0  0  0  0  0  0  0  0  0  0  0
  -23.0380  -12.4380   22.5310 H   0  0  0  0  0  0  0  0  0  0  0  0
  -21.8080  -13.6680   22.5360 H   0  0  0  0  0  0  0  0  0  0  0  0
  -25.9440  -15.4730   20.1320 N   0  0  0  0  0  0  0  0  0  0  0  0
  -25.2450  -16.1700   20.3690 H   0  0  0  0  0  0  0  0  0  0  0  0
  -26.7320  -15.8620   19.6290 H   0  0  0  0  0  0  0  0  0  0  0  0
  -28.5550  -25.9500   19.9980 O   0  0  0  0  0  0  0  0  0  0  0  0
  -24.5020  -31.4960   22.9530 C   0  0  0  0  0  0  0  0  0  0  0  0
  -27.4360  -26.9040   19.9620 C   0  0  0  0  0  0  0  0  0  0  0  0
  -23.4290  -30.0230   21.2960 C   0  0  0  0  0  3  0  0  0  0  0  0
  -25.0040  -28.5580   19.8850 C   0  0  0  0  0  0  0  0  0  0  0  0
  -25.9670  -30.4600   21.1620 C   0  0  0  0  0  2  0  0  0  0  0  0
  -26.1500  -29.0690   20.5040 C   0  0  0  0  0  0  0  0  0  0  0  0
  -27.3700  -28.2660   20.5060 C   0  0  0  0  0  3  0  0  0  0  0  0
  -26.2420  -26.5120   19.3240 C   0  0  0  0  0  3  0  0  0  0  0  0
  -25.0690  -27.3010   19.2700 C   0  0  0  0  0  3  0  0  0  0  0  0
  -23.7180  -29.3730   19.9170 C   0  0  0  0  0  2  0  0  0  0  0  0
  -24.6510  -30.6860   21.8580 N   0  0  0  0  0  0  0  0  0  0  0  0
  -23.3910  -31.6910   23.4730 O   0  0  0  0  0  0  0  0  0  0  0  0
  -22.8150  -28.9630   22.2480 C   0  0  0  0  0  0  0  0  0  0  0  0
  -21.4960  -28.7170   22.1330 N   0  0  0  0  0  0  0  0  0  0  0  0
  -23.5270  -28.3680   23.0610 O   0  0  0  0  0  0  0  0  0  0  0  0
  -20.9730  -29.2500   21.4530 H   0  0  0  0  0  0  0  0  0  0  0  0
  -18.2000  -27.2890   22.6390 C   0  0  0  0  0  0  0  0  0  0  0  0
  -20.7380  -27.7210   22.8990 C   0  0  0  0  0  3  0  0  0  0  0  0
  -20.9320  -26.3030   22.3120 C   0  0  0  0  0  2  0  0  0  0  0  0
  -19.8490  -25.9170   21.2980 C   0  0  0  0  0  2  0  0  0  0  0  0
  -18.4640  -25.9620   21.9480 C   0  0  0  0  0  2  0  0  0  0  0  0
  -19.2670  -28.1210   23.0720 C   0  0  0  0  0  0  0  0  0  0  0  0
  -18.9630  -29.3580   23.6820 C   0  0  0  0  0  3  0  0  0  0  0  0
  -17.6270  -29.7650   23.8600 C   0  0  0  0  0  3  0  0  0  0  0  0
  -16.5760  -28.9310   23.4420 C   0  0  0  0  0  3  0  0  0  0  0  0
  -16.8630  -27.6930   22.8370 C   0  0  0  0  0  3  0  0  0  0  0  0
  -25.7190  -32.2290   23.5960 C   0  0  0  0  0  3  0  0  0  0  0  0
  -25.2810  -33.5820   23.9750 N   0  0  0  0  0  0  0  0  0  0  0  0
  -25.5580  -34.6970   23.2880 C   0  0  0  0  0  0  0  0  0  0  0  0
  -26.2700  -34.6990   22.2790 O   0  0  0  0  0  0  0  0  0  0  0  0
  -24.6500  -33.6500   24.7610 H   0  0  0  0  0  0  0  0  0  0  0  0
  -23.7150  -36.3770   22.9490 C   0  0  0  0  0  1  0  0  0  0  0  0
  -24.9490  -36.0210   23.7930 C   0  0  0  0  0  3  0  0  0  0  0  0
  -26.9780  -37.0130   24.7590 C   0  0  0  0  0  1  0  0  0  0  0  0
  -25.9030  -37.1520   23.7800 N   0  0  0  0  0  0  0  0  0  0  0  0
  -25.4240  -38.0310   23.9560 H   0  0  0  0  0  0  0  0  0  0  0  0
  -26.3050  -31.4720   24.8520 C   0  0  1  0  0  0  0  0  0  0  0  0
  -25.2360  -31.1040   25.9080 C   0  0  0  0  0  1  0  0  0  0  0  0
  -27.0140  -30.1650   24.4320 C   0  0  0  0  0  1  0  0  0  0  0  0
  -27.3800  -32.3490   25.5380 C   0  0  0  0  0  1  0  0  0  0  0  0
  1  2  1  0
  3  8  1  0
  4 54  1  0
  4  1  1  0
  5  3  1  0
  5  4  1  0
  5  6  1  6
  7  5  1  0
  8  9  1  6
  8 15  1  0
  8  2  1  0
 10 11  1  0
 12 10  1  0
 13 11  1  0
 14 24  1  0
 14 15  1  0
 14 12  1  0
 15 13  1  0
 16 22  1  0
 16 24  1  0
 17 22  1  0
 18 19  1  0
 18 17  1  0
 20 19  1  0
 20 29  1  0
 20 21  1  0
 22 21  1  0
 23 16  2  0
 24 25  1  0
 26 27  2  0
 27 46  1  0
 28 27  1  0
 28 31  1  0
 29 30  1  0
 29 26  1  0
 30 28  2  0
 31 32  1  0
 32 33  2  0
 34 37  1  0
 34 33  1  0
 35 34  2  0
 36 35  1  0
 36 31  2  0
 37 38  1  0
 38 43  2  0
 38 39  1  0
 39 40  2  0
 40 41  1  0
 41 45  1  0
 42 41  2  0
 43 42  1  0
 44 43  1  0
 46 47  1  0
 47 49  1  0
 47 50  1  0
 48 46  2  0
 51 26  1  0
 51 52  1  0
 53 51  1  0
 55 66  2  0
 56 54  1  0
 56 61  1  0
 57 65  1  0
 57 67  1  0
 58 64  1  0
 58 60  1  0
 59 65  1  0
 60 61  2  0
 60 59  1  0
 62 56  2  0
 63 62  1  0
 63 58  2  0
 64 57  1  0
 65 55  1  0
 67 69  2  0
 68 67  1  0
 70 68  1  0
 71 80  2  0
 71 76  1  0
 72 68  1  0
 72 76  1  0
 73 72  1  0
 74 75  1  0
 74 73  1  0
 75 71  1  0
 76 77  2  0
 77 78  1  0
 79 78  2  0
 80 79  1  0
 81 55  1  0
 81 82  1  0
 81 91  1  0
 82 85  1  0
 83 87  1  0
 83 82  1  0
 84 83  2  0
 87 86  1  0
 89 87  1  0
 89 90  1  0
 89 88  1  0
 91 94  1  1
 91 92  1  0
 93 91  1  0
M  ISO  4   4 101  16 100  24 100  54 101
M  END
>  <TORSDO>  (17) 
F 17

>  <SCORE>  (17) 
-11.898

>  <name>  (17) 
16

>  <ligand_id>  (17) 
16

>  <original_smiles>  (17) 
[H]c1c([H])c([H])c2c(c1[H])C([H])([H])C([H])([H])C([H])([H])C2([H])N([H])C(=O)C1([H])N(C(=O)C([H])(N([H])C(=O)C([H])(N([H])C([H])([H])[H])C([H])([H])[H])C(C([H])([H])[H])(C([H])([H])[H])C([H])([H])[H])C([H])([H])c2c([H])c(OC3([H])C([H])([H])C([H])([H])[N+]([H])(C4([H])C([H])([H])C([H])([H])C([H])([H])C([H])([H])C4([H])N([H])C(=O)N4C([H])([H])C([H])([H])C([H])([H])C([H])(n5nc(-c6c([H])c([H])c(Oc7c([H])c([H])c(F)c([H])c7F)c([H])c6[H])c(C(=O)N([H])[H])c5N([H])[H])C4([H])[H])C([H])([H])C3(C([H])([H])[H])C([H])([H])[H])c([H])c([H])c2C1([H])[H]

>  <smiles>  (17) 
[H]c1c([H])c([H])c2c(c1[H])C([H])([H])C([H])([H])C([H])([H])C2([H])N([H])C(=O)C1([H])N(C(=O)C([H])(N([H])C(=O)C([H])(N([H])C([H])([H])[H])C([H])([H])[H])C(C([H])([H])[H])(C([H])([H])[H])C([H])([H])[H])C([H])([H])c2c([H])c(OC3([H])C([H])([H])C([H])([H])[N+]([H])(C4([H])C([H])([H])C([H])([H])C([H])([H])C([H])([H])C4([H])N([H])C(=O)N4C([H])([H])C([H])([H])C([H])([H])C([H])(n5nc(-c6c([H])c([H])c(Oc7c([H])c([H])c(F)c([H])c7F)c([H])c6[H])c(C(=O)N([H])[H])c5N([H])[H])C4([H])[H])C([H])([H])C3(C([H])([H])[H])C([H])([H])[H])c([H])c([H])c2C1([H])[H]

$$$$
17:0:0
     RDKit          3D

 96105  0  0  1  0  0  0  0  0999 V2000
  -29.0580  -21.5960   21.4160 C   0  0  0  0  0  3  0  0  0  0  0  0
  -28.7330  -22.9650   21.6470 C   0  0  0  0  0  0  0  0  0  0  0  0
  -28.7520  -23.9010   20.5650 C   0  0  0  0  0  0  0  0  0  0  0  0
  -29.4070  -21.1650   20.1180 C   0  0  0  0  0  0  0  0  0  0  0  0
  -29.5690  -18.5830   20.6910 C   0  0  0  0  0  2  0  0  0  0  0  0
  -30.5020  -19.4060   18.6400 C   0  0  0  0  0  2  0  0  0  0  0  0
  -30.5000  -17.4210   20.1440 C   0  0  0  0  0  3  0  0  0  0  0  0
  -30.6430  -17.8560   18.6700 C   0  0  0  0  0  3  0  0  0  0  0  0
  -28.3540  -23.3920   23.0580 C   0  0  0  0  0  1  0  0  0  0  0  0
  -29.1080  -23.4280   19.3290 N   0  0  0  0  0  0  0  0  0  0  0  0
  -29.4330  -22.1150   19.1250 N   0  0  0  0  0  0  0  0  0  0  0  0
  -29.7300  -19.7860   19.8190 N   0  0  0  0  0  0  0  0  0  0  0  0
  -30.7910  -14.8350   20.0650 C   0  0  0  0  0  0  0  0  0  0  0  0
  -30.5580  -12.5540   19.0990 C   0  0  0  0  0  2  0  0  0  0  0  0
  -29.6020  -12.6120   17.8890 C   0  0  0  0  0  2  0  0  0  0  0  0
  -28.1390  -12.4440   18.3450 C   0  0  0  0  0  2  0  0  0  0  0  0
  -27.7800  -13.3540   19.5500 C   0  0  0  0  0  3  0  0  0  0  0  0
  -28.8580  -13.2920   20.6580 C   0  0  0  0  0  2  0  0  0  0  0  0
  -30.1500  -13.6210   20.0400 N   0  0  0  0  0  0  0  0  0  0  0  0
  -31.9460  -14.9540   19.6450 O   0  0  0  0  0  0  0  0  0  0  0  0
  -30.0590  -15.9730   20.3160 N   0  0  0  0  0  0  0  0  0  0  0  0
  -29.1010  -15.8300   20.6020 H   0  0  0  0  0  0  0  0  0  0  0  0
  -25.4050  -13.9420   20.3290 C   0  0  0  0  0  0  0  0  0  0  0  0
  -24.3470  -13.1670   20.7200 C   0  0  0  0  0  0  0  0  0  0  0  0
  -24.8100  -11.8160   20.6750 C   0  0  0  0  0  0  0  0  0  0  0  0
  -26.4450  -13.0640   20.0680 N   0  0  0  0  0  0  0  0  0  0  0  0
  -26.0930  -11.7790   20.3370 N   0  0  0  0  0  0  0  0  0  0  0  0
  -24.0860  -10.5530   20.8760 C   0  0  0  0  0  0  0  0  0  0  0  0
  -24.5120   -9.6010   21.8290 C   0  0  0  0  0  3  0  0  0  0  0  0
  -23.7890   -8.4030   22.0180 C   0  0  0  0  0  3  0  0  0  0  0  0
  -22.6240   -8.1490   21.2540 C   0  0  0  0  0  0  0  0  0  0  0  0
  -22.2170   -9.0900   20.2910 C   0  0  0  0  0  3  0  0  0  0  0  0
  -22.9410  -10.2790   20.1010 C   0  0  0  0  0  3  0  0  0  0  0  0
  -21.8720   -7.0040   21.3520 O   0  0  0  0  0  0  0  0  0  0  0  0
  -21.7940   -6.2920   22.5230 C   0  0  0  0  0  0  0  0  0  0  0  0
  -21.2710   -6.8590   23.7060 C   0  0  0  0  0  3  0  0  0  0  0  0
  -21.1440   -6.0700   24.8670 C   0  0  0  0  0  3  0  0  0  0  0  0
  -21.5300   -4.7160   24.8450 C   0  0  0  0  0  0  0  0  0  0  0  0
  -22.0450   -4.1480   23.6670 C   0  0  0  0  0  3  0  0  0  0  0  0
  -22.1750   -4.9340   22.5080 C   0  0  0  0  0  0  0  0  0  0  0  0
  -22.6510   -4.3780   21.3690 F   0  0  0  0  0  0  0  0  0  0  0  0
  -21.4000   -3.9560   25.9570 F   0  0  0  0  0  0  0  0  0  0  0  0
  -22.9570  -13.6430   21.0230 C   0  0  0  0  0  0  0  0  0  0  0  0
  -22.2410  -12.9410   21.8930 N   0  0  0  0  0  0  0  0  0  0  0  0
  -22.5130  -14.6740   20.5200 O   0  0  0  0  0  0  0  0  0  0  0  0
  -22.6100  -12.1050   22.3230 H   0  0  0  0  0  0  0  0  0  0  0  0
  -21.3090  -13.2460   22.1360 H   0  0  0  0  0  0  0  0  0  0  0  0
  -25.5640  -15.3140   20.1520 N   0  0  0  0  0  0  0  0  0  0  0  0
  -24.7920  -15.9610   20.2730 H   0  0  0  0  0  0  0  0  0  0  0  0
  -26.3960  -15.7540   19.7800 H   0  0  0  0  0  0  0  0  0  0  0  0
  -31.8900  -17.3670   18.0580 N   0  0  0  0  0  4  0  0  0  0  0  0
  -32.6740  -17.9240   18.3500 H   0  0  0  0  0  0  0  0  0  0  0  0
  -31.8350  -17.3840   17.0560 H   0  0  0  0  0  0  0  0  0  0  0  0
  -32.0540  -16.4160   18.3680 H   0  0  0  0  0  0  0  0  0  0  0  0
  -28.2620  -25.3990   20.8290 C   0  0  0  0  0  2  0  0  0  0  0  0
  -28.4370  -26.5580   19.9200 O   0  0  0  0  0  0  0  0  0  0  0  0
  -24.6340  -31.8270   23.1320 C   0  0  0  0  0  0  0  0  0  0  0  0
  -27.3440  -27.4400   19.9170 C   0  0  0  0  0  0  0  0  0  0  0  0
  -23.4610  -30.4700   21.4340 C   0  0  0  0  0  3  0  0  0  0  0  0
  -24.9490  -29.0010   19.9550 C   0  0  0  0  0  0  0  0  0  0  0  0
  -25.9950  -30.8440   21.2710 C   0  0  0  0  0  2  0  0  0  0  0  0
  -26.1070  -29.4920   20.5750 C   0  0  0  0  0  0  0  0  0  0  0  0
  -27.3110  -28.7240   20.5480 C   0  0  0  0  0  3  0  0  0  0  0  0
  -26.1690  -27.0050   19.2720 C   0  0  0  0  0  3  0  0  0  0  0  0
  -24.9820  -27.7630   19.2930 C   0  0  0  0  0  3  0  0  0  0  0  0
  -23.6940  -29.8490   20.0310 C   0  0  0  0  0  2  0  0  0  0  0  0
  -24.7140  -31.0620   22.0040 N   0  0  0  0  0  0  0  0  0  0  0  0
  -23.5430  -32.0630   23.6740 O   0  0  0  0  0  0  0  0  0  0  0  0
  -22.8120  -29.4070   22.3540 C   0  0  0  0  0  0  0  0  0  0  0  0
  -21.4900  -29.2080   22.2150 N   0  0  0  0  0  0  0  0  0  0  0  0
  -23.4990  -28.7650   23.1520 O   0  0  0  0  0  0  0  0  0  0  0  0
  -20.9930  -29.7790   21.5470 H   0  0  0  0  0  0  0  0  0  0  0  0
  -18.1350  -27.9320   22.6610 C   0  0  0  0  0  0  0  0  0  0  0  0
  -20.6870  -28.2270   22.9480 C   0  0  0  0  0  3  0  0  0  0  0  0
  -20.8160  -26.8210   22.3180 C   0  0  0  0  0  2  0  0  0  0  0  0
  -19.7220  -26.5180   21.2890 C   0  0  0  0  0  2  0  0  0  0  0  0
  -18.3370  -26.6140   21.9340 C   0  0  0  0  0  2  0  0  0  0  0  0
  -19.2390  -28.6980   23.1230 C   0  0  0  0  0  0  0  0  0  0  0  0
  -18.9970  -29.9320   23.7620 C   0  0  0  0  0  3  0  0  0  0  0  0
  -17.6830  -30.4030   23.9430 C   0  0  0  0  0  3  0  0  0  0  0  0
  -16.5930  -29.6360   23.4980 C   0  0  0  0  0  3  0  0  0  0  0  0
  -16.8190  -28.4020   22.8630 C   0  0  0  0  0  3  0  0  0  0  0  0
  -25.9010  -32.4610   23.7810 C   0  0  0  0  0  3  0  0  0  0  0  0
  -26.4010  -31.6770   25.0570 C   0  0  1  0  0  0  0  0  0  0  0  0
  -25.2920  -31.4160   26.1030 C   0  0  0  0  0  1  0  0  0  0  0  0
  -27.0010  -30.3080   24.6570 C   0  0  0  0  0  1  0  0  0  0  0  0
  -27.5340  -32.4700   25.7490 C   0  0  0  0  0  1  0  0  0  0  0  0
  -25.5780  -33.8530   24.1250 N   0  0  0  0  0  0  0  0  0  0  0  0
  -25.9230  -34.9190   23.3920 C   0  0  0  0  0  0  0  0  0  0  0  0
  -26.6180  -34.8330   22.3740 O   0  0  0  0  0  0  0  0  0  0  0  0
  -24.9650  -33.9920   24.9150 H   0  0  0  0  0  0  0  0  0  0  0  0
  -24.2110  -36.7220   23.0050 C   0  0  0  0  0  1  0  0  0  0  0  0
  -25.4190  -36.2980   23.8570 C   0  0  0  0  0  3  0  0  0  0  0  0
  -27.5170  -37.1670   24.7940 C   0  0  0  0  0  1  0  0  0  0  0  0
  -26.4540  -37.3550   23.8100 N   0  0  0  0  0  0  0  0  0  0  0  0
  -26.0400  -38.2720   23.9620 H   0  0  0  0  0  0  0  0  0  0  0  0
  1  2  1  0
  2  9  1  0
  3 55  1  0
  3  2  2  0
  4  1  2  0
  6  8  1  0
  6 12  1  0
  7 21  1  0
  7  5  1  0
  8 51  1  0
  8  7  1  0
 10  3  1  0
 11 10  2  0
 11  4  1  0
 12  4  1  0
 12  5  1  0
 13 21  1  0
 14 19  1  0
 15 16  1  0
 15 14  1  0
 17 16  1  0
 17 26  1  0
 17 18  1  0
 19 13  1  0
 19 18  1  0
 20 13  2  0
 21 22  1  0
 23 24  2  0
 24 43  1  0
 25 24  1  0
 25 28  1  0
 26 23  1  0
 26 27  1  0
 27 25  2  0
 28 29  1  0
 29 30  2  0
 31 34  1  0
 31 30  1  0
 32 31  2  0
 33 32  1  0
 33 28  2  0
 34 35  1  0
 35 36  1  0
 36 37  2  0
 38 37  1  0
 38 42  1  0
 39 38  2  0
 40 35  2  0
 40 39  1  0
 41 40  1  0
 43 44  1  0
 44 47  1  0
 44 46  1  0
 45 43  2  0
 48 49  1  0
 48 23  1  0
 50 48  1  0
 51 52  1  0
 51 54  1  0
 53 51  1  0
 56 55  1  0
 57 68  2  0
 58 56  1  0
 58 63  1  0
 59 67  1  0
 59 69  1  0
 60 66  1  0
 60 62  1  0
 61 67  1  0
 62 61  1  0
 63 62  2  0
 64 65  1  0
 64 58  2  0
 65 60  2  0
 66 59  1  0
 67 57  1  0
 69 71  2  0
 70 69  1  0
 72 70  1  0
 73 82  2  0
 73 78  1  0
 74 70  1  0
 74 78  1  0
 75 74  1  0
 76 77  1  0
 76 75  1  0
 77 73  1  0
 78 79  2  0
 79 80  1  0
 81 80  2  0
 82 81  1  0
 83 57  1  0
 83 88  1  0
 83 84  1  0
 84 87  1  1
 84 85  1  0
 86 84  1  0
 88 91  1  0
 89 93  1  0
 89 88  1  0
 90 89  2  0
 93 92  1  0
 95 93  1  0
 95 96  1  0
 95 94  1  0
M  ISO  4  13 100  21 100  55 101  56 101
M  END
>  <TORSDO>  (18) 
F 18

>  <SCORE>  (18) 
-14.016

>  <name>  (18) 
17

>  <ligand_id>  (18) 
17

>  <original_smiles>  (18) 
[H]c1c([H])c([H])c2c(c1[H])C([H])([H])C([H])([H])C([H])([H])C2([H])N([H])C(=O)C1([H])N(C(=O)C([H])(N([H])C(=O)C([H])(N([H])C([H])([H])[H])C([H])([H])[H])C(C([H])([H])[H])(C([H])([H])[H])C([H])([H])[H])C([H])([H])c2c([H])c(OC([H])([H])c3nnc(N4C([H])([H])C([H])(N([H])C(=O)N5C([H])([H])C([H])([H])C([H])([H])C([H])(n6nc(-c7c([H])c([H])c(Oc8c([H])c([H])c(F)c([H])c8F)c([H])c7[H])c(C(=O)N([H])[H])c6N([H])[H])C5([H])[H])C([H])([N+]([H])([H])[H])C4([H])[H])c([H])c3C([H])([H])[H])c([H])c([H])c2C1([H])[H]

>  <smiles>  (18) 
[H]c1c([H])c([H])c2c(c1[H])C([H])([H])C([H])([H])C([H])([H])C2([H])N([H])C(=O)C1([H])N(C(=O)C([H])(N([H])C(=O)C([H])(N([H])C([H])([H])[H])C([H])([H])[H])C(C([H])([H])[H])(C([H])([H])[H])C([H])([H])[H])C([H])([H])c2c([H])c(OC([H])([H])c3nnc(N4C([H])([H])C([H])(N([H])C(=O)N5C([H])([H])C([H])([H])C([H])([H])C([H])(n6nc(-c7c([H])c([H])c(Oc8c([H])c([H])c(F)c([H])c8F)c([H])c7[H])c(C(=O)N([H])[H])c6N([H])[H])C5([H])[H])C([H])([N+]([H])([H])[H])C4([H])[H])c([H])c3C([H])([H])[H])c([H])c([H])c2C1([H])[H]

$$$$
18:0:0
     RDKit          3D

 93102  0  0  1  0  0  0  0  0999 V2000
  -29.8250  -21.6650   21.2480 C   0  0  0  0  0  0  0  0  0  0  0  0
  -29.8940  -21.3110   19.8500 C   0  0  0  0  0  0  0  0  0  0  0  0
  -30.8500  -19.9520   19.6730 C   0  0  0  0  0  0  0  0  0  0  0  0
  -31.0870  -21.6720   21.8980 C   0  0  0  0  0  0  0  0  0  0  0  0
  -32.1010  -20.2830   20.2710 C   0  0  0  0  0  0  0  0  0  0  0  0
  -31.3170  -22.5380   23.1580 C   0  0  0  0  0  1  0  0  0  0  0  0
  -33.4160  -19.6310   19.8390 C   0  0  0  0  0  1  0  0  0  0  0  0
  -32.1990  -21.1110   21.3490 N   0  0  0  0  0  0  0  0  0  0  0  0
  -31.5630  -16.8420   19.7730 C   0  0  0  0  0  0  0  0  0  0  0  0
  -31.8190  -14.1800   19.3370 C   0  0  0  0  0  2  0  0  0  0  0  0
  -31.0170  -13.4240   18.2290 C   0  0  0  0  0  2  0  0  0  0  0  0
  -29.6150  -13.0490   18.7210 C   0  0  0  0  0  2  0  0  0  0  0  0
  -28.9800  -14.2140   19.5050 C   0  0  0  0  0  3  0  0  0  0  0  0
  -29.9270  -14.8580   20.5540 C   0  0  0  0  0  2  0  0  0  0  0  0
  -31.0870  -15.4440   19.8410 N   0  0  0  0  0  0  0  0  0  0  0  0
  -32.7970  -16.7730   19.6400 O   0  0  0  0  0  0  0  0  0  0  0  0
  -30.7560  -18.2020   19.6240 N   0  0  0  0  0  0  0  0  0  0  0  0
  -29.7950  -17.9340   19.5080 H   0  0  0  0  0  0  0  0  0  0  0  0
  -26.6600  -14.7480   20.3790 C   0  0  0  0  0  0  0  0  0  0  0  0
  -25.5920  -13.9680   20.7410 C   0  0  0  0  0  0  0  0  0  0  0  0
  -26.0350  -12.6180   20.6290 C   0  0  0  0  0  0  0  0  0  0  0  0
  -27.6760  -13.8720   20.0590 N   0  0  0  0  0  0  0  0  0  0  0  0
  -27.3190  -12.5770   20.2750 N   0  0  0  0  0  0  0  0  0  0  0  0
  -25.2880  -11.3580   20.7760 C   0  0  0  0  0  0  0  0  0  0  0  0
  -25.5760  -10.4410   21.8110 C   0  0  0  0  0  3  0  0  0  0  0  0
  -24.8220   -9.2550   21.9510 C   0  0  0  0  0  3  0  0  0  0  0  0
  -23.7650   -8.9770   21.0540 C   0  0  0  0  0  0  0  0  0  0  0  0
  -23.4930   -9.8820   20.0140 C   0  0  0  0  0  3  0  0  0  0  0  0
  -24.2460  -11.0580   19.8730 C   0  0  0  0  0  3  0  0  0  0  0  0
  -22.9980   -7.8350   21.0980 O   0  0  0  0  0  0  0  0  0  0  0  0
  -22.5320   -7.3250   22.2800 C   0  0  0  0  0  0  0  0  0  0  0  0
  -21.6990   -8.0760   23.1390 C   0  0  0  0  0  3  0  0  0  0  0  0
  -21.1870   -7.4880   24.3140 C   0  0  0  0  0  3  0  0  0  0  0  0
  -21.4960   -6.1500   24.6230 C   0  0  0  0  0  0  0  0  0  0  0  0
  -22.3210   -5.4010   23.7700 C   0  0  0  0  0  3  0  0  0  0  0  0
  -22.8350   -5.9850   22.5970 C   0  0  0  0  0  0  0  0  0  0  0  0
  -23.6100   -5.2510   21.7640 F   0  0  0  0  0  0  0  0  0  0  0  0
  -20.9990   -5.5840   25.7480 F   0  0  0  0  0  0  0  0  0  0  0  0
  -24.2170  -14.4630   21.0720 C   0  0  0  0  0  0  0  0  0  0  0  0
  -23.5170  -13.7650   21.9640 N   0  0  0  0  0  0  0  0  0  0  0  0
  -23.7710  -15.4950   20.5770 O   0  0  0  0  0  0  0  0  0  0  0  0
  -23.8820  -12.9210   22.3770 H   0  0  0  0  0  0  0  0  0  0  0  0
  -22.5970  -14.0790   22.2350 H   0  0  0  0  0  0  0  0  0  0  0  0
  -26.8420  -16.1190   20.2640 N   0  0  0  0  0  0  0  0  0  0  0  0
  -26.1000  -16.7840   20.4580 H   0  0  0  0  0  0  0  0  0  0  0  0
  -27.6870  -16.5650   19.9290 H   0  0  0  0  0  0  0  0  0  0  0  0
  -27.6860  -21.6360   22.9040 C   0  0  0  0  0  2  0  0  0  0  0  0
  -27.1540  -22.2150   21.6240 C   0  0  0  0  0  2  0  0  0  0  0  0
  -28.6400  -22.3810   21.9540 C   0  0  0  0  0  3  0  0  0  0  0  0
  -30.8670  -23.3390   18.2040 C   0  0  0  0  0  1  0  0  0  0  0  0
  -29.5660  -22.9270   18.9440 C   0  0  0  0  0  3  0  0  0  0  0  0
  -28.6130  -24.6190   19.2720 C   0  0  0  0  0  2  0  0  0  0  0  0
  -28.1080  -26.1730   18.5650 O   0  0  0  0  0  0  0  0  0  0  0  0
  -24.6310  -31.6540   22.8630 C   0  0  0  0  0  0  0  0  0  0  0  0
  -27.0370  -27.2700   18.8630 C   0  0  0  0  0  0  0  0  0  0  0  0
  -23.3150  -30.4440   21.1760 C   0  0  0  0  0  3  0  0  0  0  0  0
  -24.6540  -29.1250   19.3660 C   0  0  0  0  0  0  0  0  0  0  0  0
  -25.8380  -30.7970   20.7550 C   0  0  0  0  0  2  0  0  0  0  0  0
  -25.9040  -29.4750   19.8960 C   0  0  0  0  0  0  0  0  0  0  0  0
  -27.0700  -28.5890   19.6080 C   0  0  0  0  0  3  0  0  0  0  0  0
  -25.7310  -27.1330   18.3090 C   0  0  0  0  0  3  0  0  0  0  0  0
  -24.6020  -27.9820   18.5490 C   0  0  0  0  0  3  0  0  0  0  0  0
  -23.4140  -29.9780   19.6940 C   0  0  0  0  0  2  0  0  0  0  0  0
  -24.6250  -30.9840   21.6560 N   0  0  0  0  0  0  0  0  0  0  0  0
  -23.5990  -31.7940   23.5430 O   0  0  0  0  0  0  0  0  0  0  0  0
  -22.7790  -29.2820   22.0580 C   0  0  0  0  0  0  0  0  0  0  0  0
  -21.4650  -28.9950   21.9920 N   0  0  0  0  0  0  0  0  0  0  0  0
  -23.5570  -28.6410   22.7670 O   0  0  0  0  0  0  0  0  0  0  0  0
  -20.8770  -29.5790   21.4160 H   0  0  0  0  0  0  0  0  0  0  0  0
  -18.2730  -27.3380   22.5360 C   0  0  0  0  0  0  0  0  0  0  0  0
  -20.8020  -27.8810   22.6920 C   0  0  0  0  0  3  0  0  0  0  0  0
  -21.0230  -26.5470   21.9420 C   0  0  0  0  0  2  0  0  0  0  0  0
  -19.8970  -26.2170   20.9570 C   0  0  0  0  0  2  0  0  0  0  0  0
  -18.5530  -26.1120   21.6850 C   0  0  0  0  0  2  0  0  0  0  0  0
  -19.3260  -28.1740   22.9960 C   0  0  0  0  0  0  0  0  0  0  0  0
  -19.0100  -29.3130   23.7620 C   0  0  0  0  0  3  0  0  0  0  0  0
  -17.6720  -29.6240   24.0740 C   0  0  0  0  0  3  0  0  0  0  0  0
  -16.6350  -28.7860   23.6290 C   0  0  0  0  0  3  0  0  0  0  0  0
  -16.9370  -27.6450   22.8640 C   0  0  0  0  0  3  0  0  0  0  0  0
  -25.9290  -32.2850   23.4440 C   0  0  0  0  0  3  0  0  0  0  0  0
  -26.5730  -31.4140   24.5920 C   0  0  1  0  0  0  0  0  0  0  0  0
  -25.5860  -31.0450   25.7250 C   0  0  0  0  0  1  0  0  0  0  0  0
  -27.1450  -30.0970   24.0190 C   0  0  0  0  0  1  0  0  0  0  0  0
  -27.7660  -32.1730   25.2220 C   0  0  0  0  0  1  0  0  0  0  0  0
  -25.6000  -33.6280   23.9640 N   0  0  0  0  0  0  0  0  0  0  0  0
  -25.8300  -34.7810   23.3210 C   0  0  0  0  0  0  0  0  0  0  0  0
  -26.4050  -34.8320   22.2310 O   0  0  0  0  0  0  0  0  0  0  0  0
  -25.0890  -33.6630   24.8360 H   0  0  0  0  0  0  0  0  0  0  0  0
  -24.0240  -36.5410   23.3620 C   0  0  0  0  0  1  0  0  0  0  0  0
  -25.3520  -36.0900   23.9920 C   0  0  0  0  0  3  0  0  0  0  0  0
  -27.5330  -36.9560   24.7100 C   0  0  0  0  0  1  0  0  0  0  0  0
  -26.3340  -37.1940   23.9090 N   0  0  0  0  0  0  0  0  0  0  0  0
  -25.9160  -38.0660   24.2190 H   0  0  0  0  0  0  0  0  0  0  0  0
  1  4  1  0
  1 49  1  0
  2  1  2  0
  3  2  1  0
  3  5  2  0
  4  6  1  0
  5  8  1  0
  7  5  1  0
  8  4  2  0
  9 15  1  0
 10 15  1  0
 11 12  1  0
 11 10  1  0
 13 12  1  0
 13 22  1  0
 13 14  1  0
 15 14  1  0
 16  9  2  0
 17  3  1  0
 17  9  1  0
 18 17  1  0
 19 20  2  0
 20 39  1  0
 21 20  1  0
 21 24  1  0
 22 23  1  0
 22 19  1  0
 23 21  2  0
 24 25  1  0
 25 26  2  0
 27 30  1  0
 27 26  1  0
 28 27  2  0
 29 28  1  0
 29 24  2  0
 30 31  1  0
 31 36  2  0
 31 32  1  0
 32 33  2  0
 33 34  1  0
 34 38  1  0
 35 34  2  0
 36 35  1  0
 37 36  1  0
 39 40  1  0
 40 43  1  0
 40 42  1  0
 41 39  2  0
 44 19  1  0
 44 45  1  0
 46 44  1  0
 48 49  1  0
 48 47  1  0
 49 47  1  0
 51 50  1  0
 51 52  1  0
 51  2  1  0
 53 55  1  0
 53 52  1  0
 54 65  2  0
 55 60  1  0
 56 64  1  0
 56 66  1  0
 57 63  1  0
 57 59  1  0
 58 64  1  0
 59 58  1  0
 60 59  2  0
 61 62  1  0
 61 55  2  0
 62 57  2  0
 63 56  1  0
 64 54  1  0
 66 68  2  0
 67 66  1  0
 69 67  1  0
 70 79  2  0
 70 75  1  0
 71 67  1  0
 71 75  1  0
 72 71  1  0
 73 74  1  0
 73 72  1  0
 74 70  1  0
 75 76  2  0
 76 77  1  0
 78 77  2  0
 79 78  1  0
 80 54  1  0
 80 85  1  0
 80 81  1  0
 81 84  1  1
 81 82  1  0
 83 81  1  0
 85 88  1  0
 86 85  1  0
 86 90  1  0
 87 86  2  0
 90 89  1  0
 92 90  1  0
 92 93  1  0
 92 91  1  0
M  ISO  4   9 100  17 100  52 101  53 101
M  END
>  <TORSDO>  (19) 
F 19

>  <SCORE>  (19) 
-7.276

>  <name>  (19) 
18

>  <ligand_id>  (19) 
18

>  <original_smiles>  (19) 
[H]c1c([H])c([H])c2c(c1[H])C([H])([H])C([H])([H])C([H])([H])C2([H])N([H])C(=O)C1([H])N(C(=O)C([H])(N([H])C(=O)C([H])(N([H])C([H])([H])[H])C([H])([H])[H])C(C([H])([H])[H])(C([H])([H])[H])C([H])([H])[H])C([H])([H])c2c([H])c(OC([H])([H])C([H])(c3c(N([H])C(=O)N4C([H])([H])C([H])([H])C([H])([H])C([H])(n5nc(-c6c([H])c([H])c(Oc7c([H])c([H])c(F)c([H])c7F)c([H])c6[H])c(C(=O)N([H])[H])c5N([H])[H])C4([H])[H])c(C([H])([H])[H])nc(C([H])([H])[H])c3C3([H])C([H])([H])C3([H])[H])C([H])([H])[H])c([H])c([H])c2C1([H])[H]

>  <smiles>  (19) 
[H]c1c([H])c([H])c2c(c1[H])C([H])([H])C([H])([H])C([H])([H])C2([H])N([H])C(=O)C1([H])N(C(=O)C([H])(N([H])C(=O)C([H])(N([H])C([H])([H])[H])C([H])([H])[H])C(C([H])([H])[H])(C([H])([H])[H])C([H])([H])[H])C([H])([H])c2c([H])c(OC([H])([H])C([H])(c3c(N([H])C(=O)N4C([H])([H])C([H])([H])C([H])([H])C([H])(n5nc(-c6c([H])c([H])c(Oc7c([H])c([H])c(F)c([H])c7F)c([H])c6[H])c(C(=O)N([H])[H])c5N([H])[H])C4([H])[H])c(C([H])([H])[H])nc(C([H])([H])[H])c3C3([H])C([H])([H])C3([H])[H])C([H])([H])[H])c([H])c([H])c2C1([H])[H]

$$$$
19:0:0
     RDKit          3D

 90 99  0  0  1  0  0  0  0  0999 V2000
  -30.4870  -15.3990   20.3760 C   0  0  0  0  0  0  0  0  0  0  0  0
  -30.3710  -12.9570   19.4570 C   0  0  0  0  0  2  0  0  0  0  0  0
  -29.4750  -12.6420   18.2400 C   0  0  0  0  0  2  0  0  0  0  0  0
  -28.0430  -12.3380   18.7000 C   0  0  0  0  0  2  0  0  0  0  0  0
  -27.5630  -13.3340   19.7830 C   0  0  0  0  0  3  0  0  0  0  0  0
  -28.6060  -13.6070   20.8910 C   0  0  0  0  0  2  0  0  0  0  0  0
  -29.7930  -14.1530   20.2010 N   0  0  0  0  0  0  0  0  0  0  0  0
  -31.7050  -15.1460   20.3250 O   0  0  0  0  0  0  0  0  0  0  0  0
  -28.4640  -21.1290   20.6800 C   0  0  0  0  0  3  0  0  0  0  0  0
  -29.1650  -19.8140   20.2580 C   0  0  0  0  0  0  0  0  0  0  0  0
  -28.6860  -22.5760   20.1680 C   0  0  0  0  0  0  0  0  0  0  0  0
  -30.0810  -20.0900   19.2470 C   0  0  0  0  0  0  0  0  0  0  0  0
  -29.7100  -22.4960   19.1860 C   0  0  0  0  0  0  0  0  0  0  0  0
  -29.0860  -18.1040   20.6640 C   0  0  0  0  0  2  0  0  0  0  0  0
  -30.7770  -18.8850   18.5970 C   0  0  0  0  0  2  0  0  0  0  0  0
  -31.1850  -17.6950   19.5480 C   0  0  0  0  0  3  0  0  0  0  0  0
  -30.1630  -23.7550   18.4760 C   0  0  0  0  0  1  0  0  0  0  0  0
  -32.1770  -18.1840   20.6360 C   0  0  0  0  0  1  0  0  0  0  0  0
  -30.3410  -21.3460   18.7660 N   0  0  0  0  0  0  0  0  0  0  0  0
  -30.0750  -16.8620   20.1440 N   0  0  0  0  0  0  0  0  0  0  0  0
  -25.1930  -13.8630   20.5380 C   0  0  0  0  0  0  0  0  0  0  0  0
  -24.1360  -13.0750   20.8970 C   0  0  0  0  0  0  0  0  0  0  0  0
  -24.6180  -11.7290   20.8760 C   0  0  0  0  0  0  0  0  0  0  0  0
  -26.2460  -12.9990   20.3050 N   0  0  0  0  0  0  0  0  0  0  0  0
  -25.9140  -11.7080   20.5790 N   0  0  0  0  0  0  0  0  0  0  0  0
  -23.9020  -10.4600   21.0590 C   0  0  0  0  0  0  0  0  0  0  0  0
  -24.3360   -9.4930   21.9920 C   0  0  0  0  0  3  0  0  0  0  0  0
  -23.6130   -8.2930   22.1680 C   0  0  0  0  0  3  0  0  0  0  0  0
  -22.4440   -8.0500   21.4080 C   0  0  0  0  0  0  0  0  0  0  0  0
  -22.0300   -9.0040   20.4630 C   0  0  0  0  0  3  0  0  0  0  0  0
  -22.7520  -10.1970   20.2860 C   0  0  0  0  0  3  0  0  0  0  0  0
  -21.6940   -6.9010   21.4930 O   0  0  0  0  0  0  0  0  0  0  0  0
  -21.6470   -6.1550   22.6440 C   0  0  0  0  0  0  0  0  0  0  0  0
  -21.2270   -6.7070   23.8740 C   0  0  0  0  0  3  0  0  0  0  0  0
  -21.1280   -5.8870   25.0160 C   0  0  0  0  0  3  0  0  0  0  0  0
  -21.4380   -4.5170   24.9290 C   0  0  0  0  0  0  0  0  0  0  0  0
  -21.8500   -3.9640   23.7040 C   0  0  0  0  0  3  0  0  0  0  0  0
  -21.9510   -4.7800   22.5640 C   0  0  0  0  0  0  0  0  0  0  0  0
  -22.3290   -4.2380   21.3810 F   0  0  0  0  0  0  0  0  0  0  0  0
  -21.3350   -3.7280   26.0240 F   0  0  0  0  0  0  0  0  0  0  0  0
  -22.7310  -13.5380   21.1430 C   0  0  0  0  0  0  0  0  0  0  0  0
  -22.0000  -12.8470   22.0090 N   0  0  0  0  0  0  0  0  0  0  0  0
  -22.2910  -14.5520   20.6010 O   0  0  0  0  0  0  0  0  0  0  0  0
  -22.3710  -12.0290   22.4700 H   0  0  0  0  0  0  0  0  0  0  0  0
  -21.0560  -13.1410   22.2140 H   0  0  0  0  0  0  0  0  0  0  0  0
  -25.3440  -15.2340   20.3570 N   0  0  0  0  0  0  0  0  0  0  0  0
  -24.5680  -15.8800   20.4610 H   0  0  0  0  0  0  0  0  0  0  0  0
  -26.1930  -15.6810   20.0350 H   0  0  0  0  0  0  0  0  0  0  0  0
  -27.8290  -24.1140   20.4520 C   0  0  0  0  0  2  0  0  0  0  0  0
  -28.1630  -25.7510   20.2890 O   0  0  0  0  0  0  0  0  0  0  0  0
  -24.6540  -31.8710   23.2100 C   0  0  0  0  0  0  0  0  0  0  0  0
  -27.1760  -26.8930   20.2590 C   0  0  0  0  0  0  0  0  0  0  0  0
  -23.4550  -30.4580   21.5940 C   0  0  0  0  0  3  0  0  0  0  0  0
  -24.8950  -28.8240   20.1910 C   0  0  0  0  0  0  0  0  0  0  0  0
  -26.0270  -30.6430   21.4450 C   0  0  0  0  0  2  0  0  0  0  0  0
  -26.0900  -29.2190   20.8070 C   0  0  0  0  0  0  0  0  0  0  0  0
  -27.2250  -28.2780   20.8110 C   0  0  0  0  0  3  0  0  0  0  0  0
  -25.9500  -26.6700   19.5910 C   0  0  0  0  0  3  0  0  0  0  0  0
  -24.8540  -27.5720   19.5610 C   0  0  0  0  0  3  0  0  0  0  0  0
  -23.6830  -29.7570   20.2260 C   0  0  0  0  0  2  0  0  0  0  0  0
  -24.7350  -31.0200   22.1350 N   0  0  0  0  0  0  0  0  0  0  0  0
  -23.5650  -32.1720   23.7270 O   0  0  0  0  0  0  0  0  0  0  0  0
  -22.7560  -29.4780   22.5730 C   0  0  0  0  0  0  0  0  0  0  0  0
  -21.4250  -29.3190   22.4540 N   0  0  0  0  0  0  0  0  0  0  0  0
  -23.4190  -28.8620   23.4100 O   0  0  0  0  0  0  0  0  0  0  0  0
  -20.9410  -29.8660   21.7540 H   0  0  0  0  0  0  0  0  0  0  0  0
  -18.0410  -28.1130   22.9780 C   0  0  0  0  0  0  0  0  0  0  0  0
  -20.6010  -28.3930   23.2390 C   0  0  0  0  0  3  0  0  0  0  0  0
  -20.7050  -26.9510   22.6880 C   0  0  0  0  0  2  0  0  0  0  0  0
  -19.6060  -26.6090   21.6790 C   0  0  0  0  0  2  0  0  0  0  0  0
  -18.2230  -26.7560   22.3200 C   0  0  0  0  0  2  0  0  0  0  0  0
  -19.1560  -28.8880   23.3950 C   0  0  0  0  0  0  0  0  0  0  0  0
  -18.9290  -30.1550   23.9760 C   0  0  0  0  0  3  0  0  0  0  0  0
  -17.6210  -30.6480   24.1400 C   0  0  0  0  0  3  0  0  0  0  0  0
  -16.5210  -29.8730   23.7370 C   0  0  0  0  0  3  0  0  0  0  0  0
  -16.7320  -28.6070   23.1620 C   0  0  0  0  0  3  0  0  0  0  0  0
  -25.9250  -32.5220   23.8350 C   0  0  0  0  0  3  0  0  0  0  0  0
  -25.6010  -33.9200   24.1730 N   0  0  0  0  0  0  0  0  0  0  0  0
  -25.9150  -34.9850   23.4240 C   0  0  0  0  0  0  0  0  0  0  0  0
  -26.5700  -34.8950   22.3820 O   0  0  0  0  0  0  0  0  0  0  0  0
  -25.0150  -34.0620   24.9820 H   0  0  0  0  0  0  0  0  0  0  0  0
  -24.1660  -36.7740   23.1290 C   0  0  0  0  0  1  0  0  0  0  0  0
  -25.4310  -36.3700   23.9030 C   0  0  0  0  0  3  0  0  0  0  0  0
  -27.5810  -37.2690   24.6810 C   0  0  0  0  0  1  0  0  0  0  0  0
  -26.4530  -37.4320   23.7690 N   0  0  0  0  0  0  0  0  0  0  0  0
  -26.0430  -38.3490   23.9310 H   0  0  0  0  0  0  0  0  0  0  0  0
  -26.4400  -31.7620   25.1190 C   0  0  1  0  0  0  0  0  0  0  0  0
  -25.3480  -31.5350   26.1910 C   0  0  0  0  0  1  0  0  0  0  0  0
  -27.0240  -30.3790   24.7480 C   0  0  0  0  0  1  0  0  0  0  0  0
  -27.5920  -32.5620   25.7740 C   0  0  0  0  0  1  0  0  0  0  0  0
  2  7  1  0
  3  4  1  0
  3  2  1  0
  5  4  1  0
  5 24  1  0
  5  6  1  0
  7  1  1  0
  7  6  1  0
  8  1  2  0
 10 14  1  0
 10  9  1  0
 11 49  1  0
 11  9  2  0
 12 10  2  0
 13 11  1  0
 15 12  1  0
 15 16  1  0
 16 20  1  0
 16 18  1  0
 17 13  1  0
 19 13  2  0
 19 12  1  0
 20  1  1  0
 20 14  1  0
 21 22  2  0
 22 41  1  0
 23 22  1  0
 23 26  1  0
 24 21  1  0
 24 25  1  0
 25 23  2  0
 26 27  1  0
 27 28  2  0
 29 32  1  0
 29 28  1  0
 30 29  2  0
 31 30  1  0
 31 26  2  0
 32 33  1  0
 33 34  1  0
 34 35  2  0
 36 35  1  0
 36 40  1  0
 37 36  2  0
 38 33  2  0
 38 37  1  0
 39 38  1  0
 41 42  1  0
 42 45  1  0
 42 44  1  0
 43 41  2  0
 46 47  1  0
 46 21  1  0
 48 46  1  0
 50 49  1  0
 51 62  2  0
 52 50  1  0
 52 57  1  0
 53 61  1  0
 53 63  1  0
 54 60  1  0
 54 56  1  0
 55 61  1  0
 56 57  2  0
 56 55  1  0
 58 52  2  0
 59 58  1  0
 59 54  2  0
 60 53  1  0
 61 51  1  0
 63 65  2  0
 64 63  1  0
 66 64  1  0
 67 76  2  0
 67 72  1  0
 68 64  1  0
 68 72  1  0
 69 68  1  0
 70 71  1  0
 70 69  1  0
 71 67  1  0
 72 73  2  0
 73 74  1  0
 75 74  2  0
 76 75  1  0
 77 51  1  0
 77 78  1  0
 77 87  1  0
 78 81  1  0
 79 83  1  0
 79 78  1  0
 80 79  2  0
 83 82  1  0
 85 83  1  0
 85 86  1  0
 85 84  1  0
 87 90  1  1
 87 88  1  0
 89 87  1  0
M  ISO  4   1 100  20 100  49 101  50 101
M  END
>  <TORSDO>  (20) 
F 16

>  <SCORE>  (20) 
-16.934

>  <name>  (20) 
19

>  <ligand_id>  (20) 
19

>  <original_smiles>  (20) 
[H]c1c([H])c([H])c2c(c1[H])C([H])([H])C([H])([H])C([H])([H])C2([H])N([H])C(=O)C1([H])N(C(=O)C([H])(N([H])C(=O)C([H])(N([H])C([H])([H])[H])C([H])([H])[H])C(C([H])([H])[H])(C([H])([H])[H])C([H])([H])[H])C([H])([H])c2c([H])c(OC([H])([H])c3c(C([H])([H])[H])nc4c(c3[H])C([H])([H])N(C(=O)N3C([H])([H])C([H])([H])C([H])([H])C([H])(n5nc(-c6c([H])c([H])c(Oc7c([H])c([H])c(F)c([H])c7F)c([H])c6[H])c(C(=O)N([H])[H])c5N([H])[H])C3([H])[H])C([H])(C([H])([H])[H])C4([H])[H])c([H])c([H])c2C1([H])[H]

>  <smiles>  (20) 
[H]c1c([H])c([H])c2c(c1[H])C([H])([H])C([H])([H])C([H])([H])C2([H])N([H])C(=O)C1([H])N(C(=O)C([H])(N([H])C(=O)C([H])(N([H])C([H])([H])[H])C([H])([H])[H])C(C([H])([H])[H])(C([H])([H])[H])C([H])([H])[H])C([H])([H])c2c([H])c(OC([H])([H])c3c(C([H])([H])[H])nc4c(c3[H])C([H])([H])N(C(=O)N3C([H])([H])C([H])([H])C([H])([H])C([H])(n5nc(-c6c([H])c([H])c(Oc7c([H])c([H])c(F)c([H])c7F)c([H])c6[H])c(C(=O)N([H])[H])c5N([H])[H])C3([H])[H])C([H])(C([H])([H])[H])C4([H])[H])c([H])c([H])c2C1([H])[H]

$$$$
20:0:0
     RDKit          3D

 97106  0  0  1  0  0  0  0  0999 V2000
  -27.4350  -20.3260   19.9740 C   0  0  0  0  0  3  0  0  0  0  0  0
  -27.2780  -21.6850   19.8790 C   0  0  0  0  0  0  0  0  0  0  0  0
  -28.5830  -22.2120   19.6200 C   0  0  0  0  0  0  0  0  0  0  0  0
  -25.9630  -22.4100   20.0210 C   0  0  0  0  0  1  0  0  0  0  0  0
  -29.4650  -21.1370   19.5990 N   0  0  0  0  0  0  0  0  0  0  0  0
  -28.7570  -19.9440   19.8180 N   0  0  0  0  0  0  0  0  0  0  0  0
  -31.6030  -17.8790   19.3180 C   0  0  0  0  0  2  0  0  0  0  0  0
  -29.6910  -18.3330   21.5500 C   0  0  0  0  0  2  0  0  0  0  0  0
  -31.9290  -18.9290   20.4100 C   0  0  0  0  0  3  0  0  0  0  0  0
  -29.1950  -18.4790   20.0970 C   0  0  0  0  0  3  0  0  0  0  0  0
  -30.1080  -17.4780   19.2130 C   0  0  0  0  0  3  0  0  0  0  0  0
  -31.1990  -18.6700   21.7710 C   0  0  2  0  0  0  0  0  0  0  0  0
  -33.4560  -19.1150   20.5220 C   0  0  0  0  0  1  0  0  0  0  0  0
  -31.8670  -17.5040   22.5370 C   0  0  0  0  0  1  0  0  0  0  0  0
  -31.2630  -19.9280   22.6650 C   0  0  0  0  0  1  0  0  0  0  0  0
  -30.7830  -14.8900   19.4910 C   0  0  0  0  0  0  0  0  0  0  0  0
  -30.6870  -12.4540   18.9530 C   0  0  0  0  0  2  0  0  0  0  0  0
  -29.6930  -12.2360   17.7900 C   0  0  0  0  0  2  0  0  0  0  0  0
  -28.2600  -12.0560   18.3270 C   0  0  0  0  0  2  0  0  0  0  0  0
  -27.8780  -13.1460   19.3620 C   0  0  0  0  0  3  0  0  0  0  0  0
  -28.9840  -13.3490   20.4230 C   0  0  0  0  0  2  0  0  0  0  0  0
  -30.2360  -13.6450   19.7090 N   0  0  0  0  0  0  0  0  0  0  0  0
  -31.9230  -14.9960   19.0380 O   0  0  0  0  0  0  0  0  0  0  0  0
  -29.9500  -15.9920   19.6110 N   0  0  0  0  0  0  0  0  0  0  0  0
  -29.0470  -15.7610   19.9960 H   0  0  0  0  0  0  0  0  0  0  0  0
  -25.6010  -13.8050   20.3460 C   0  0  0  0  0  0  0  0  0  0  0  0
  -24.5390  -13.0570   20.7820 C   0  0  0  0  0  0  0  0  0  0  0  0
  -24.9340  -11.6910   20.6470 C   0  0  0  0  0  0  0  0  0  0  0  0
  -26.5730  -12.8920   19.9680 N   0  0  0  0  0  0  0  0  0  0  0  0
  -26.1850  -11.6130   20.2130 N   0  0  0  0  0  0  0  0  0  0  0  0
  -24.1720  -10.4510   20.8510 C   0  0  0  0  0  0  0  0  0  0  0  0
  -24.5820   -9.4790   21.7900 C   0  0  0  0  0  3  0  0  0  0  0  0
  -23.8240   -8.3040   21.9820 C   0  0  0  0  0  3  0  0  0  0  0  0
  -22.6420   -8.0920   21.2330 C   0  0  0  0  0  0  0  0  0  0  0  0
  -22.2510   -9.0520   20.2830 C   0  0  0  0  0  3  0  0  0  0  0  0
  -23.0080  -10.2200   20.0900 C   0  0  0  0  0  3  0  0  0  0  0  0
  -21.8580   -6.9690   21.3310 O   0  0  0  0  0  0  0  0  0  0  0  0
  -21.7110   -6.2940   22.5170 C   0  0  0  0  0  0  0  0  0  0  0  0
  -21.1980   -6.9210   23.6730 C   0  0  0  0  0  3  0  0  0  0  0  0
  -21.0020   -6.1730   24.8510 C   0  0  0  0  0  3  0  0  0  0  0  0
  -21.3080   -4.7990   24.8720 C   0  0  0  0  0  0  0  0  0  0  0  0
  -21.8160   -4.1720   23.7210 C   0  0  0  0  0  3  0  0  0  0  0  0
  -22.0140   -4.9180   22.5450 C   0  0  0  0  0  0  0  0  0  0  0  0
  -22.4830   -4.3040   21.4330 F   0  0  0  0  0  0  0  0  0  0  0  0
  -21.1120   -4.0780   26.0010 F   0  0  0  0  0  0  0  0  0  0  0  0
  -23.1970  -13.5810   21.2070 C   0  0  0  0  0  0  0  0  0  0  0  0
  -22.5270  -12.8860   22.1210 N   0  0  0  0  0  0  0  0  0  0  0  0
  -22.7550  -14.6380   20.7630 O   0  0  0  0  0  0  0  0  0  0  0  0
  -22.8940  -12.0260   22.4970 H   0  0  0  0  0  0  0  0  0  0  0  0
  -21.6360  -13.2290   22.4500 H   0  0  0  0  0  0  0  0  0  0  0  0
  -25.8140  -15.1730   20.2100 N   0  0  0  0  0  0  0  0  0  0  0  0
  -25.0850  -15.8510   20.4110 H   0  0  0  0  0  0  0  0  0  0  0  0
  -26.5990  -15.5770   19.7180 H   0  0  0  0  0  0  0  0  0  0  0  0
  -29.0260  -23.8630   17.7470 C   0  0  0  0  0  1  0  0  0  0  0  0
  -28.9530  -23.7430   19.2750 C   0  0  0  0  0  3  0  0  0  0  0  0
  -28.0300  -24.9870   19.8010 C   0  0  0  0  0  2  0  0  0  0  0  0
  -28.3310  -26.4610   19.5450 O   0  0  0  0  0  0  0  0  0  0  0  0
  -24.7340  -31.7050   23.1150 C   0  0  0  0  0  0  0  0  0  0  0  0
  -27.2620  -27.3960   19.5860 C   0  0  0  0  0  0  0  0  0  0  0  0
  -23.4990  -30.4550   21.3880 C   0  0  0  0  0  3  0  0  0  0  0  0
  -24.9190  -29.0580   19.7750 C   0  0  0  0  0  0  0  0  0  0  0  0
  -26.0400  -30.7790   21.1810 C   0  0  0  0  0  2  0  0  0  0  0  0
  -26.1040  -29.4650   20.4020 C   0  0  0  0  0  0  0  0  0  0  0  0
  -27.2820  -28.6480   20.2980 C   0  0  0  0  0  3  0  0  0  0  0  0
  -26.0620  -27.0900   18.9060 C   0  0  0  0  0  3  0  0  0  0  0  0
  -24.9080  -27.8840   19.0110 C   0  0  0  0  0  3  0  0  0  0  0  0
  -23.6810  -29.9180   19.9430 C   0  0  0  0  0  2  0  0  0  0  0  0
  -24.7780  -30.9940   21.9510 N   0  0  0  0  0  0  0  0  0  0  0  0
  -23.6620  -31.9240   23.6970 O   0  0  0  0  0  0  0  0  0  0  0  0
  -22.8680  -29.3460   22.2670 C   0  0  0  0  0  0  0  0  0  0  0  0
  -21.5380  -29.1700   22.1600 N   0  0  0  0  0  0  0  0  0  0  0  0
  -23.5710  -28.6540   23.0070 O   0  0  0  0  0  0  0  0  0  0  0  0
  -21.0270  -29.7830   21.5420 H   0  0  0  0  0  0  0  0  0  0  0  0
  -18.1850  -27.8800   22.6200 C   0  0  0  0  0  0  0  0  0  0  0  0
  -20.7450  -28.1550   22.8580 C   0  0  0  0  0  3  0  0  0  0  0  0
  -20.8500  -26.7830   22.1520 C   0  0  0  0  0  2  0  0  0  0  0  0
  -19.7290  -26.5280   21.1380 C   0  0  0  0  0  2  0  0  0  0  0  0
  -18.3650  -26.5960   21.8270 C   0  0  0  0  0  2  0  0  0  0  0  0
  -19.3030  -28.6190   23.0920 C   0  0  0  0  0  0  0  0  0  0  0  0
  -19.0780  -29.8190   23.8000 C   0  0  0  0  0  3  0  0  0  0  0  0
  -17.7700  -30.2840   24.0360 C   0  0  0  0  0  3  0  0  0  0  0  0
  -16.6690  -29.5410   23.5760 C   0  0  0  0  0  3  0  0  0  0  0  0
  -16.8770  -28.3380   22.8790 C   0  0  0  0  0  3  0  0  0  0  0  0
  -26.0260  -32.2900   23.7590 C   0  0  0  0  0  3  0  0  0  0  0  0
  -26.5690  -31.4140   24.9550 C   0  0  1  0  0  0  0  0  0  0  0  0
  -25.4990  -31.0930   26.0260 C   0  0  0  0  0  1  0  0  0  0  0  0
  -27.1390  -30.0700   24.4420 C   0  0  0  0  0  1  0  0  0  0  0  0
  -27.7410  -32.1510   25.6440 C   0  0  0  0  0  1  0  0  0  0  0  0
  -25.7170  -33.6530   24.2200 N   0  0  0  0  0  0  0  0  0  0  0  0
  -26.0260  -34.7720   23.5510 C   0  0  0  0  0  0  0  0  0  0  0  0
  -26.6750  -34.7650   22.5020 O   0  0  0  0  0  0  0  0  0  0  0  0
  -25.1420  -33.7320   25.0450 H   0  0  0  0  0  0  0  0  0  0  0  0
  -24.2810  -36.5770   23.3940 C   0  0  0  0  0  1  0  0  0  0  0  0
  -25.5440  -36.1120   24.1380 C   0  0  0  0  0  3  0  0  0  0  0  0
  -27.6930  -36.9390   24.9950 C   0  0  0  0  0  1  0  0  0  0  0  0
  -26.5680  -37.1780   24.0930 N   0  0  0  0  0  0  0  0  0  0  0  0
  -26.1610  -38.0810   24.3280 H   0  0  0  0  0  0  0  0  0  0  0  0
  2  1  2  0
  2  4  1  0
  3  2  1  0
  5  3  2  0
  5  6  1  0
  6  1  1  0
  7  9  1  0
  8 12  1  0
  9 13  1  0
  9 12  1  0
 10  6  1  0
 10  8  1  0
 11  7  1  0
 11 24  1  0
 11 10  1  0
 12 14  1  1
 12 15  1  0
 16 24  1  0
 16 22  1  0
 17 22  1  0
 18 19  1  0
 18 17  1  0
 20 19  1  0
 20 29  1  0
 20 21  1  0
 22 21  1  0
 23 16  2  0
 24 25  1  0
 26 27  2  0
 27 46  1  0
 28 27  1  0
 28 31  1  0
 29 30  1  0
 29 26  1  0
 30 28  2  0
 31 32  1  0
 32 33  2  0
 34 37  1  0
 34 33  1  0
 35 34  2  0
 36 35  1  0
 36 31  2  0
 37 38  1  0
 38 43  2  0
 38 39  1  0
 39 40  2  0
 40 41  1  0
 41 45  1  0
 42 41  2  0
 43 42  1  0
 44 43  1  0
 46 47  1  0
 47 50  1  0
 47 49  1  0
 48 46  2  0
 51 26  1  0
 51 52  1  0
 53 51  1  0
 55 54  1  0
 55  3  1  0
 55 56  1  0
 57 59  1  0
 57 56  1  0
 58 69  2  0
 59 64  1  0
 60 68  1  0
 60 70  1  0
 61 67  1  0
 61 63  1  0
 62 68  1  0
 63 62  1  0
 64 63  2  0
 65 66  1  0
 65 59  2  0
 66 61  2  0
 67 60  1  0
 68 58  1  0
 70 72  2  0
 71 70  1  0
 73 71  1  0
 74 83  2  0
 74 79  1  0
 75 71  1  0
 75 79  1  0
 76 75  1  0
 77 78  1  0
 77 76  1  0
 78 74  1  0
 79 80  2  0
 80 81  1  0
 82 81  2  0
 83 82  1  0
 84 58  1  0
 84 89  1  0
 84 85  1  0
 85 88  1  1
 85 86  1  0
 87 85  1  0
 89 92  1  0
 90 94  1  0
 90 89  1  0
 91 90  2  0
 94 93  1  0
 96 94  1  0
 96 97  1  0
 96 95  1  0
M  ISO  4  16 100  24 100  56 101  57 101
M  END
>  <TORSDO>  (21) 
F 19

>  <SCORE>  (21) 
-11.836

>  <name>  (21) 
20

>  <ligand_id>  (21) 
20

>  <original_smiles>  (21) 
[H]c1c([H])c([H])c2c(c1[H])C([H])([H])C([H])([H])C([H])([H])C2([H])N([H])C(=O)C1([H])N(C(=O)C([H])(N([H])C(=O)C([H])(N([H])C([H])([H])[H])C([H])([H])[H])C(C([H])([H])[H])(C([H])([H])[H])C([H])([H])[H])C([H])([H])c2c([H])c(OC([H])([H])C([H])(c3nn(C4([H])C([H])([H])C(C([H])([H])[H])(C([H])([H])[H])C([H])(C([H])([H])[H])C([H])([H])C4([H])N([H])C(=O)N4C([H])([H])C([H])([H])C([H])([H])C([H])(n5nc(-c6c([H])c([H])c(Oc7c([H])c([H])c(F)c([H])c7F)c([H])c6[H])c(C(=O)N([H])[H])c5N([H])[H])C4([H])[H])c([H])c3C([H])([H])[H])C([H])([H])[H])c([H])c([H])c2C1([H])[H]

>  <smiles>  (21) 
[H]c1c([H])c([H])c2c(c1[H])C([H])([H])C([H])([H])C([H])([H])C2([H])N([H])C(=O)C1([H])N(C(=O)C([H])(N([H])C(=O)C([H])(N([H])C([H])([H])[H])C([H])([H])[H])C(C([H])([H])[H])(C([H])([H])[H])C([H])([H])[H])C([H])([H])c2c([H])c(OC([H])([H])C([H])(c3nn(C4([H])C([H])([H])C(C([H])([H])[H])(C([H])([H])[H])C([H])(C([H])([H])[H])C([H])([H])C4([H])N([H])C(=O)N4C([H])([H])C([H])([H])C([H])([H])C([H])(n5nc(-c6c([H])c([H])c(Oc7c([H])c([H])c(F)c([H])c7F)c([H])c6[H])c(C(=O)N([H])[H])c5N([H])[H])C4([H])[H])c([H])c3C([H])([H])[H])C([H])([H])[H])c([H])c([H])c2C1([H])[H]

$$$$
21:0:0
     RDKit          3D

 91100  0  0  1  0  0  0  0  0999 V2000
  -29.0270  -22.2240   19.8760 C   0  0  0  0  0  0  0  0  0  0  0  0
  -28.4780  -21.2580   20.7340 C   0  0  0  0  0  0  0  0  0  0  0  0
  -29.9300  -21.6100   18.9670 C   0  0  0  0  0  0  0  0  0  0  0  0
  -29.7580  -19.4080   19.9550 C   0  0  0  0  0  0  0  0  0  0  0  0
  -27.3260  -21.8890   21.4790 C   0  0  0  0  0  2  0  0  0  0  0  0
  -27.0550  -23.2640   20.7650 C   0  0  0  0  0  2  0  0  0  0  0  0
  -28.2720  -23.6700   19.8630 C   0  0  0  0  0  3  0  0  0  0  0  0
  -30.4830  -22.3920   17.7940 C   0  0  0  0  0  1  0  0  0  0  0  0
  -28.8300  -19.9120   20.8160 N   0  0  0  0  0  0  0  0  0  0  0  0
  -30.2780  -20.2680   19.0400 N   0  0  0  0  0  0  0  0  0  0  0  0
  -30.5320  -17.9570   20.1470 C   0  0  0  0  0  2  0  0  0  0  0  0
  -30.7640  -15.2800   19.9870 C   0  0  0  0  0  0  0  0  0  0  0  0
  -30.5930  -12.9340   19.0470 C   0  0  0  0  0  2  0  0  0  0  0  0
  -29.6090  -12.8830   17.8580 C   0  0  0  0  0  2  0  0  0  0  0  0
  -28.1710  -12.6650   18.3660 C   0  0  0  0  0  2  0  0  0  0  0  0
  -27.8160  -13.6090   19.5440 C   0  0  0  0  0  3  0  0  0  0  0  0
  -28.9140  -13.6320   20.6250 C   0  0  0  0  0  2  0  0  0  0  0  0
  -30.1550  -14.0300   19.9550 N   0  0  0  0  0  0  0  0  0  0  0  0
  -31.9570  -15.3270   19.6750 O   0  0  0  0  0  0  0  0  0  0  0  0
  -30.0190  -16.4750   20.1640 N   0  0  0  0  0  0  0  0  0  0  0  0
  -29.0340  -16.3720   20.3490 H   0  0  0  0  0  0  0  0  0  0  0  0
  -25.4970  -14.2120   20.4440 C   0  0  0  0  0  0  0  0  0  0  0  0
  -24.4400  -13.4440   20.8340 C   0  0  0  0  0  0  0  0  0  0  0  0
  -24.8700  -12.0840   20.7230 C   0  0  0  0  0  0  0  0  0  0  0  0
  -26.5040  -13.3200   20.1060 N   0  0  0  0  0  0  0  0  0  0  0  0
  -26.1420  -12.0340   20.3460 N   0  0  0  0  0  0  0  0  0  0  0  0
  -24.1250  -10.8320   20.9050 C   0  0  0  0  0  0  0  0  0  0  0  0
  -24.5500   -9.8460   21.8220 C   0  0  0  0  0  3  0  0  0  0  0  0
  -23.8090   -8.6560   21.9880 C   0  0  0  0  0  3  0  0  0  0  0  0
  -22.6270   -8.4460   21.2370 C   0  0  0  0  0  0  0  0  0  0  0  0
  -22.2210   -9.4220   20.3100 C   0  0  0  0  0  3  0  0  0  0  0  0
  -22.9620  -10.6020   20.1420 C   0  0  0  0  0  3  0  0  0  0  0  0
  -21.8550   -7.3100   21.3120 O   0  0  0  0  0  0  0  0  0  0  0  0
  -21.7680   -6.5790   22.4680 C   0  0  0  0  0  0  0  0  0  0  0  0
  -21.2580   -7.1330   23.6640 C   0  0  0  0  0  3  0  0  0  0  0  0
  -21.1190   -6.3230   24.8100 C   0  0  0  0  0  3  0  0  0  0  0  0
  -21.4810   -4.9640   24.7630 C   0  0  0  0  0  0  0  0  0  0  0  0
  -21.9830   -4.4100   23.5710 C   0  0  0  0  0  3  0  0  0  0  0  0
  -22.1220   -5.2160   22.4260 C   0  0  0  0  0  0  0  0  0  0  0  0
  -22.5870   -4.6740   21.2750 F   0  0  0  0  0  0  0  0  0  0  0  0
  -21.3400   -4.1840   25.8590 F   0  0  0  0  0  0  0  0  0  0  0  0
  -23.0690  -13.9390   21.1940 C   0  0  0  0  0  0  0  0  0  0  0  0
  -22.3810  -13.2300   22.0810 N   0  0  0  0  0  0  0  0  0  0  0  0
  -22.6190  -14.9840   20.7250 O   0  0  0  0  0  0  0  0  0  0  0  0
  -22.7580  -12.3800   22.4730 H   0  0  0  0  0  0  0  0  0  0  0  0
  -21.4600  -13.5350   22.3680 H   0  0  0  0  0  0  0  0  0  0  0  0
  -25.6850  -15.5860   20.3150 N   0  0  0  0  0  0  0  0  0  0  0  0
  -24.9430  -16.2480   20.5060 H   0  0  0  0  0  0  0  0  0  0  0  0
  -26.5110  -16.0290   19.9350 H   0  0  0  0  0  0  0  0  0  0  0  0
  -28.8630  -25.1590   20.3640 C   0  0  0  0  0  2  0  0  0  0  0  0
  -28.6240  -26.6160   19.8800 O   0  0  0  0  0  0  0  0  0  0  0  0
  -24.6400  -31.8820   23.1880 C   0  0  0  0  0  0  0  0  0  0  0  0
  -27.4620  -27.4420   20.0030 C   0  0  0  0  0  0  0  0  0  0  0  0
  -23.5130  -30.4900   21.4940 C   0  0  0  0  0  3  0  0  0  0  0  0
  -25.0410  -29.0380   20.0220 C   0  0  0  0  0  0  0  0  0  0  0  0
  -26.0460  -30.8990   21.3380 C   0  0  0  0  0  2  0  0  0  0  0  0
  -26.1940  -29.5370   20.6410 C   0  0  0  0  0  0  0  0  0  0  0  0
  -27.4080  -28.7630   20.5990 C   0  0  0  0  0  3  0  0  0  0  0  0
  -26.2790  -27.0210   19.3690 C   0  0  0  0  0  3  0  0  0  0  0  0
  -25.0950  -27.7960   19.3660 C   0  0  0  0  0  3  0  0  0  0  0  0
  -23.7690  -29.8730   20.0930 C   0  0  0  0  0  2  0  0  0  0  0  0
  -24.7530  -31.1120   22.0620 N   0  0  0  0  0  0  0  0  0  0  0  0
  -23.5440  -32.0880   23.7270 O   0  0  0  0  0  0  0  0  0  0  0  0
  -22.8890  -29.4120   22.4140 C   0  0  0  0  0  0  0  0  0  0  0  0
  -21.5740  -29.1680   22.2720 N   0  0  0  0  0  0  0  0  0  0  0  0
  -23.5900  -28.7950   23.2200 O   0  0  0  0  0  0  0  0  0  0  0  0
  -21.0560  -29.7300   21.6100 H   0  0  0  0  0  0  0  0  0  0  0  0
  -18.2650  -27.7460   22.6820 C   0  0  0  0  0  0  0  0  0  0  0  0
  -20.8040  -28.1440   22.9830 C   0  0  0  0  0  3  0  0  0  0  0  0
  -20.9970  -26.7550   22.3260 C   0  0  0  0  0  2  0  0  0  0  0  0
  -19.9040  -26.4010   21.3140 C   0  0  0  0  0  2  0  0  0  0  0  0
  -18.5200  -26.4350   21.9610 C   0  0  0  0  0  2  0  0  0  0  0  0
  -19.3350  -28.5540   23.1520 C   0  0  0  0  0  0  0  0  0  0  0  0
  -19.0390  -29.7790   23.7900 C   0  0  0  0  0  3  0  0  0  0  0  0
  -17.7030  -30.1950   23.9590 C   0  0  0  0  0  3  0  0  0  0  0  0
  -16.6480  -29.3820   23.5070 C   0  0  0  0  0  3  0  0  0  0  0  0
  -16.9310  -28.1590   22.8780 C   0  0  0  0  0  3  0  0  0  0  0  0
  -25.8840  -32.5590   23.8410 C   0  0  0  0  0  3  0  0  0  0  0  0
  -25.5200  -33.9460   24.1690 N   0  0  0  0  0  0  0  0  0  0  0  0
  -25.8190  -35.0150   23.4180 C   0  0  0  0  0  0  0  0  0  0  0  0
  -26.5020  -34.9400   22.3920 O   0  0  0  0  0  0  0  0  0  0  0  0
  -24.9170  -34.0770   24.9680 H   0  0  0  0  0  0  0  0  0  0  0  0
  -24.0360  -36.7530   23.0570 C   0  0  0  0  0  1  0  0  0  0  0  0
  -25.2830  -36.3860   23.8760 C   0  0  0  0  0  3  0  0  0  0  0  0
  -27.3720  -37.3500   24.7390 C   0  0  0  0  0  1  0  0  0  0  0  0
  -26.2820  -37.4740   23.7760 N   0  0  0  0  0  0  0  0  0  0  0  0
  -25.8400  -38.3790   23.9130 H   0  0  0  0  0  0  0  0  0  0  0  0
  -26.3930  -31.8090   25.1330 C   0  0  1  0  0  0  0  0  0  0  0  0
  -25.2820  -31.5290   26.1730 C   0  0  0  0  0  1  0  0  0  0  0  0
  -27.0350  -30.4520   24.7600 C   0  0  0  0  0  1  0  0  0  0  0  0
  -27.4950  -32.6470   25.8240 C   0  0  0  0  0  1  0  0  0  0  0  0
  1  2  2  0
  2  9  1  0
  2  5  1  0
  3 10  2  0
  3  1  1  0
  4 11  1  0
  4  9  2  0
  6  5  1  0
  7  1  1  0
  7 50  1  0
  7  6  1  0
  8  3  1  0
 10  4  1  0
 11 20  1  0
 12 20  1  0
 13 18  1  0
 14 15  1  0
 14 13  1  0
 16 15  1  0
 16 25  1  0
 16 17  1  0
 18 12  1  0
 18 17  1  0
 19 12  2  0
 20 21  1  0
 22 23  2  0
 23 42  1  0
 24 23  1  0
 24 27  1  0
 25 26  1  0
 25 22  1  0
 26 24  2  0
 27 28  1  0
 28 29  2  0
 30 33  1  0
 30 29  1  0
 31 30  2  0
 32 31  1  0
 32 27  2  0
 33 34  1  0
 34 35  1  0
 35 36  2  0
 37 36  1  0
 37 41  1  0
 38 37  2  0
 39 34  2  0
 39 38  1  0
 40 39  1  0
 42 43  1  0
 43 46  1  0
 43 45  1  0
 44 42  2  0
 47 22  1  0
 47 48  1  0
 49 47  1  0
 51 53  1  0
 51 50  1  0
 52 63  2  0
 53 58  1  0
 54 62  1  0
 54 64  1  0
 55 61  1  0
 55 57  1  0
 56 62  1  0
 57 56  1  0
 58 57  2  0
 59 53  2  0
 60 59  1  0
 60 55  2  0
 61 54  1  0
 62 52  1  0
 64 66  2  0
 65 64  1  0
 67 65  1  0
 68 77  2  0
 68 73  1  0
 69 65  1  0
 69 73  1  0
 70 69  1  0
 71 72  1  0
 71 70  1  0
 72 68  1  0
 73 74  2  0
 74 75  1  0
 76 75  2  0
 77 76  1  0
 78 52  1  0
 78 79  1  0
 78 88  1  0
 79 82  1  0
 80 84  1  0
 80 79  1  0
 81 80  2  0
 84 83  1  0
 86 84  1  0
 86 87  1  0
 86 85  1  0
 88 91  1  1
 88 89  1  0
 90 88  1  0
M  ISO  4  12 100  20 100  50 101  51 101
M  END
>  <TORSDO>  (22) 
F 18

>  <SCORE>  (22) 
-13.778

>  <name>  (22) 
21

>  <ligand_id>  (22) 
21

>  <original_smiles>  (22) 
[H]c1c([H])c([H])c2c(c1[H])C([H])([H])C([H])([H])C([H])([H])C2([H])N([H])C(=O)C1([H])N(C(=O)C([H])(N([H])C(=O)C([H])(N([H])C([H])([H])[H])C([H])([H])[H])C(C([H])([H])[H])(C([H])([H])[H])C([H])([H])[H])C([H])([H])c2c([H])c(OC([H])([H])C3([H])c4c(C([H])([H])[H])nc(C([H])([H])N([H])C(=O)N5C([H])([H])C([H])([H])C([H])([H])C([H])(n6nc(-c7c([H])c([H])c(Oc8c([H])c([H])c(F)c([H])c8F)c([H])c7[H])c(C(=O)N([H])[H])c6N([H])[H])C5([H])[H])nc4C([H])([H])C3([H])[H])c([H])c([H])c2C1([H])[H]

>  <smiles>  (22) 
[H]c1c([H])c([H])c2c(c1[H])C([H])([H])C([H])([H])C([H])([H])C2([H])N([H])C(=O)C1([H])N(C(=O)C([H])(N([H])C(=O)C([H])(N([H])C([H])([H])[H])C([H])([H])[H])C(C([H])([H])[H])(C([H])([H])[H])C([H])([H])[H])C([H])([H])c2c([H])c(OC([H])([H])C3([H])c4c(C([H])([H])[H])nc(C([H])([H])N([H])C(=O)N5C([H])([H])C([H])([H])C([H])([H])C([H])(n6nc(-c7c([H])c([H])c(Oc8c([H])c([H])c(F)c([H])c8F)c([H])c7[H])c(C(=O)N([H])[H])c6N([H])[H])C5([H])[H])nc4C([H])([H])C3([H])[H])c([H])c([H])c2C1([H])[H]

$$$$
22:0:0
     RDKit          3D

 91100  0  0  1  0  0  0  0  0999 V2000
  -28.6540  -23.3900   20.3310 C   0  0  0  0  0  0  0  0  0  0  0  0
  -28.5320  -22.0310   19.8920 C   0  0  0  0  0  0  0  0  0  0  0  0
  -29.8360  -21.9950   21.5910 C   0  0  0  0  0  0  0  0  0  0  0  0
  -27.7090  -21.5210   18.7550 C   0  0  0  0  0  1  0  0  0  0  0  0
  -30.7140  -21.5630   22.7230 C   0  0  0  0  0  1  0  0  0  0  0  0
  -29.5200  -23.2970   21.4170 N   0  0  0  0  0  0  0  0  0  0  0  0
  -29.2770  -21.1050   20.7220 N   0  0  0  0  0  0  0  0  0  0  0  0
  -30.6330  -14.9640   20.2930 C   0  0  0  0  0  0  0  0  0  0  0  0
  -30.3370  -12.6490   19.3350 C   0  0  0  0  0  2  0  0  0  0  0  0
  -29.4020  -12.6030   18.1120 C   0  0  0  0  0  2  0  0  0  0  0  0
  -27.9510  -12.3920   18.5690 C   0  0  0  0  0  2  0  0  0  0  0  0
  -27.5580  -13.3300   19.7380 C   0  0  0  0  0  3  0  0  0  0  0  0
  -28.6320  -13.4070   20.8470 C   0  0  0  0  0  2  0  0  0  0  0  0
  -29.8930  -13.7860   20.1980 N   0  0  0  0  0  0  0  0  0  0  0  0
  -31.8370  -14.8390   20.0540 O   0  0  0  0  0  0  0  0  0  0  0  0
  -30.8060  -18.9200   20.2820 C   0  0  0  0  0  2  0  0  0  0  0  0
  -28.4650  -18.4620   20.2140 C   0  0  0  0  0  2  0  0  0  0  0  0
  -31.1140  -17.4220   20.7360 C   0  0  0  0  0  2  0  0  0  0  0  0
  -28.7370  -16.8790   20.5150 C   0  0  0  0  0  2  0  0  0  0  0  0
  -29.4710  -19.5290   20.8030 C   0  0  0  0  0  3  0  0  0  0  0  0
  -30.1320  -16.3000   20.4660 N   0  0  0  0  0  0  0  0  0  0  0  0
  -25.1990  -13.9030   20.5390 C   0  0  0  0  0  0  0  0  0  0  0  0
  -24.1390  -13.1230   20.9100 C   0  0  0  0  0  0  0  0  0  0  0  0
  -24.6000  -11.7720   20.8490 C   0  0  0  0  0  0  0  0  0  0  0  0
  -26.2350  -13.0260   20.2650 N   0  0  0  0  0  0  0  0  0  0  0  0
  -25.8870  -11.7390   20.5210 N   0  0  0  0  0  0  0  0  0  0  0  0
  -23.8730  -10.5090   21.0260 C   0  0  0  0  0  0  0  0  0  0  0  0
  -24.2970   -9.5380   21.9600 C   0  0  0  0  0  3  0  0  0  0  0  0
  -23.5680   -8.3410   22.1290 C   0  0  0  0  0  3  0  0  0  0  0  0
  -22.4020   -8.1060   21.3630 C   0  0  0  0  0  0  0  0  0  0  0  0
  -21.9980   -9.0640   20.4180 C   0  0  0  0  0  3  0  0  0  0  0  0
  -22.7260  -10.2540   20.2470 C   0  0  0  0  0  3  0  0  0  0  0  0
  -21.6460   -6.9610   21.4400 O   0  0  0  0  0  0  0  0  0  0  0  0
  -21.5630   -6.2300   22.5980 C   0  0  0  0  0  0  0  0  0  0  0  0
  -21.0620   -6.7850   23.7960 C   0  0  0  0  0  3  0  0  0  0  0  0
  -20.9290   -5.9780   24.9430 C   0  0  0  0  0  3  0  0  0  0  0  0
  -21.2870   -4.6170   24.8940 C   0  0  0  0  0  0  0  0  0  0  0  0
  -21.7800   -4.0610   23.7000 C   0  0  0  0  0  3  0  0  0  0  0  0
  -21.9150   -4.8660   22.5550 C   0  0  0  0  0  0  0  0  0  0  0  0
  -22.3710   -4.3210   21.4020 F   0  0  0  0  0  0  0  0  0  0  0  0
  -21.1520   -3.8410   25.9940 F   0  0  0  0  0  0  0  0  0  0  0  0
  -22.7470  -13.5990   21.2030 C   0  0  0  0  0  0  0  0  0  0  0  0
  -22.0290  -12.8920   22.0690 N   0  0  0  0  0  0  0  0  0  0  0  0
  -22.3050  -14.6310   20.7010 O   0  0  0  0  0  0  0  0  0  0  0  0
  -22.4020  -12.0590   22.4990 H   0  0  0  0  0  0  0  0  0  0  0  0
  -21.0920  -13.1890   22.3050 H   0  0  0  0  0  0  0  0  0  0  0  0
  -25.3590  -15.2760   20.3840 N   0  0  0  0  0  0  0  0  0  0  0  0
  -24.5930  -15.9230   20.5340 H   0  0  0  0  0  0  0  0  0  0  0  0
  -26.1990  -15.7270   20.0470 H   0  0  0  0  0  0  0  0  0  0  0  0
  -27.8860  -24.7610   19.8910 C   0  0  0  0  0  2  0  0  0  0  0  0
  -28.2100  -26.2260   20.2760 O   0  0  0  0  0  0  0  0  0  0  0  0
  -24.6160  -31.9000   23.2590 C   0  0  0  0  0  0  0  0  0  0  0  0
  -27.1770  -27.2250   20.1820 C   0  0  0  0  0  0  0  0  0  0  0  0
  -23.4090  -30.5180   21.6160 C   0  0  0  0  0  3  0  0  0  0  0  0
  -24.8510  -28.9650   20.1690 C   0  0  0  0  0  0  0  0  0  0  0  0
  -25.9620  -30.7860   21.4450 C   0  0  0  0  0  2  0  0  0  0  0  0
  -26.0310  -29.4020   20.7840 C   0  0  0  0  0  0  0  0  0  0  0  0
  -27.1940  -28.5460   20.7810 C   0  0  0  0  0  3  0  0  0  0  0  0
  -25.9760  -26.9040   19.5050 C   0  0  0  0  0  3  0  0  0  0  0  0
  -24.8350  -27.7280   19.5140 C   0  0  0  0  0  3  0  0  0  0  0  0
  -23.6240  -29.8570   20.2290 C   0  0  0  0  0  2  0  0  0  0  0  0
  -24.6830  -31.0900   22.1600 N   0  0  0  0  0  0  0  0  0  0  0  0
  -23.5320  -32.1820   23.7920 O   0  0  0  0  0  0  0  0  0  0  0  0
  -22.7370  -29.5000   22.5720 C   0  0  0  0  0  0  0  0  0  0  0  0
  -21.4110  -29.3190   22.4410 N   0  0  0  0  0  0  0  0  0  0  0  0
  -23.4100  -28.8780   23.3980 O   0  0  0  0  0  0  0  0  0  0  0  0
  -20.9250  -29.8680   21.7460 H   0  0  0  0  0  0  0  0  0  0  0  0
  -18.0370  -28.1030   22.9420 C   0  0  0  0  0  0  0  0  0  0  0  0
  -20.5940  -28.3770   23.2100 C   0  0  0  0  0  3  0  0  0  0  0  0
  -20.7040  -26.9450   22.6350 C   0  0  0  0  0  2  0  0  0  0  0  0
  -19.6040  -26.6180   21.6200 C   0  0  0  0  0  2  0  0  0  0  0  0
  -18.2200  -26.7560   22.2620 C   0  0  0  0  0  2  0  0  0  0  0  0
  -19.1520  -28.8700   23.3720 C   0  0  0  0  0  0  0  0  0  0  0  0
  -18.9250  -30.1290   23.9700 C   0  0  0  0  0  3  0  0  0  0  0  0
  -17.6170  -30.6220   24.1370 C   0  0  0  0  0  3  0  0  0  0  0  0
  -16.5160  -29.8530   23.7190 C   0  0  0  0  0  3  0  0  0  0  0  0
  -16.7270  -28.5940   23.1280 C   0  0  0  0  0  3  0  0  0  0  0  0
  -25.8970  -32.5310   23.8840 C   0  0  0  0  0  3  0  0  0  0  0  0
  -25.5890  -33.9310   24.2150 N   0  0  0  0  0  0  0  0  0  0  0  0
  -25.8910  -34.9840   23.4450 C   0  0  0  0  0  0  0  0  0  0  0  0
  -26.5280  -34.8810   22.3940 O   0  0  0  0  0  0  0  0  0  0  0  0
  -25.0200  -34.0860   25.0350 H   0  0  0  0  0  0  0  0  0  0  0  0
  -24.1380  -36.7660   23.1530 C   0  0  0  0  0  1  0  0  0  0  0  0
  -25.4140  -36.3740   23.9160 C   0  0  0  0  0  3  0  0  0  0  0  0
  -27.5700  -37.2810   24.6620 C   0  0  0  0  0  1  0  0  0  0  0  0
  -26.4340  -37.4320   23.7570 N   0  0  0  0  0  0  0  0  0  0  0  0
  -26.0270  -38.3520   23.9080 H   0  0  0  0  0  0  0  0  0  0  0  0
  -26.4070  -31.7610   25.1640 C   0  0  1  0  0  0  0  0  0  0  0  0
  -25.3090  -31.5270   26.2280 C   0  0  0  0  0  1  0  0  0  0  0  0
  -26.9900  -30.3810   24.7820 C   0  0  0  0  0  1  0  0  0  0  0  0
  -27.5570  -32.5530   25.8290 C   0  0  0  0  0  1  0  0  0  0  0  0
  1  6  1  0
  2  1  2  0
  2  7  1  0
  3  5  1  0
  4  2  1  0
  6  3  2  0
  7 20  1  0
  7  3  1  0
  8 21  1  0
  9 14  1  0
 10 11  1  0
 10  9  1  0
 12 11  1  0
 12 25  1  0
 12 13  1  0
 14  8  1  0
 14 13  1  0
 15  8  2  0
 16 18  1  0
 16 20  1  0
 17 19  1  0
 20 17  1  0
 21 19  1  0
 21 18  1  0
 22 23  2  0
 23 42  1  0
 24 23  1  0
 24 27  1  0
 25 26  1  0
 25 22  1  0
 26 24  2  0
 27 28  1  0
 28 29  2  0
 30 33  1  0
 30 29  1  0
 31 30  2  0
 32 31  1  0
 32 27  2  0
 33 34  1  0
 34 35  1  0
 35 36  2  0
 37 36  1  0
 37 41  1  0
 38 37  2  0
 39 34  2  0
 39 38  1  0
 40 39  1  0
 42 43  1  0
 43 46  1  0
 43 45  1  0
 44 42  2  0
 47 48  1  0
 47 22  1  0
 49 47  1  0
 50 51  1  0
 50  1  1  0
 52 63  2  0
 53 51  1  0
 53 58  1  0
 54 62  1  0
 54 64  1  0
 55 61  1  0
 55 57  1  0
 56 62  1  0
 57 56  1  0
 58 57  2  0
 59 60  1  0
 59 53  2  0
 60 55  2  0
 61 54  1  0
 62 52  1  0
 64 66  2  0
 65 64  1  0
 67 65  1  0
 68 77  2  0
 68 73  1  0
 69 65  1  0
 69 73  1  0
 70 69  1  0
 71 72  1  0
 71 70  1  0
 72 68  1  0
 73 74  2  0
 74 75  1  0
 76 75  2  0
 77 76  1  0
 78 52  1  0
 78 79  1  0
 78 88  1  0
 79 82  1  0
 80 84  1  0
 80 79  1  0
 81 80  2  0
 84 83  1  0
 86 87  1  0
 86 84  1  0
 86 85  1  0
 88 91  1  1
 88 89  1  0
 90 88  1  0
M  ISO  4   8 100  21 100  50 101  51 101
M  END
>  <TORSDO>  (23) 
F 17

>  <SCORE>  (23) 
-15.503

>  <name>  (23) 
22

>  <ligand_id>  (23) 
22

>  <original_smiles>  (23) 
[H]c1c([H])c([H])c2c(c1[H])C([H])([H])C([H])([H])C([H])([H])C2([H])N([H])C(=O)C1([H])N(C(=O)C([H])(N([H])C(=O)C([H])(N([H])C([H])([H])[H])C([H])([H])[H])C(C([H])([H])[H])(C([H])([H])[H])C([H])([H])[H])C([H])([H])c2c([H])c(OC([H])([H])c3nc(C([H])([H])[H])n(C4([H])C([H])([H])C([H])([H])N(C(=O)N5C([H])([H])C([H])([H])C([H])([H])C([H])(n6nc(-c7c([H])c([H])c(Oc8c([H])c([H])c(F)c([H])c8F)c([H])c7[H])c(C(=O)N([H])[H])c6N([H])[H])C5([H])[H])C([H])([H])C4([H])[H])c3C([H])([H])[H])c([H])c([H])c2C1([H])[H]

>  <smiles>  (23) 
[H]c1c([H])c([H])c2c(c1[H])C([H])([H])C([H])([H])C([H])([H])C2([H])N([H])C(=O)C1([H])N(C(=O)C([H])(N([H])C(=O)C([H])(N([H])C([H])([H])[H])C([H])([H])[H])C(C([H])([H])[H])(C([H])([H])[H])C([H])([H])[H])C([H])([H])c2c([H])c(OC([H])([H])c3nc(C([H])([H])[H])n(C4([H])C([H])([H])C([H])([H])N(C(=O)N5C([H])([H])C([H])([H])C([H])([H])C([H])(n6nc(-c7c([H])c([H])c(Oc8c([H])c([H])c(F)c([H])c8F)c([H])c7[H])c(C(=O)N([H])[H])c6N([H])[H])C5([H])[H])C([H])([H])C4([H])[H])c3C([H])([H])[H])c([H])c([H])c2C1([H])[H]

$$$$
23:0:0
     RDKit          3D

 96106  0  0  1  0  0  0  0  0999 V2000
  -28.1100  -21.8990   19.4400 C   0  0  0  0  0  3  0  0  0  0  0  0
  -29.1450  -21.0180   19.8440 C   0  0  0  0  0  0  0  0  0  0  0  0
  -30.0880  -21.9830   20.3710 C   0  0  0  0  0  0  0  0  0  0  0  0
  -29.6020  -23.2780   20.2850 C   0  0  0  0  0  0  0  0  0  0  0  0
  -30.2920  -24.4930   20.8180 C   0  0  0  0  0  2  0  0  0  0  0  0
  -31.7610  -24.1840   21.1670 C   0  0  0  0  0  2  0  0  0  0  0  0
  -31.4630  -21.7090   20.9730 C   0  0  0  0  0  3  0  0  0  0  0  0
  -32.5000  -21.3800   19.8820 C   0  0  0  0  0  1  0  0  0  0  0  0
  -28.3520  -23.3100   19.6970 N   0  0  0  0  0  0  0  0  0  0  0  0
  -31.9010  -22.8540   21.8150 N   0  0  0  0  0  4  0  0  0  0  0  0
  -31.3370  -22.8560   22.6480 H   0  0  0  0  0  0  0  0  0  0  0  0
  -32.8550  -22.7130   22.0990 H   0  0  0  0  0  0  0  0  0  0  0  0
  -30.3910  -14.8020   19.5220 C   0  0  0  0  0  0  0  0  0  0  0  0
  -30.0920  -12.4560   18.6340 C   0  0  0  0  0  2  0  0  0  0  0  0
  -29.0030  -12.3880   17.5420 C   0  0  0  0  0  2  0  0  0  0  0  0
  -27.6210  -12.1690   18.1830 C   0  0  0  0  0  2  0  0  0  0  0  0
  -27.3710  -13.1070   19.3930 C   0  0  0  0  0  3  0  0  0  0  0  0
  -28.5760  -13.1700   20.3560 C   0  0  0  0  0  2  0  0  0  0  0  0
  -29.7340  -13.5750   19.5530 N   0  0  0  0  0  0  0  0  0  0  0  0
  -31.5500  -14.7780   19.0890 O   0  0  0  0  0  0  0  0  0  0  0  0
  -28.7190  -18.3280   20.7280 C   0  0  0  0  0  3  0  0  0  0  0  0
  -29.4460  -18.5680   18.4660 C   0  0  0  0  0  3  0  0  0  0  0  0
  -29.3230  -16.8180   20.7940 C   0  0  0  0  0  2  0  0  0  0  0  0
  -30.1310  -17.1130   18.5300 C   0  0  0  0  0  3  0  0  0  0  0  0
  -29.4380  -19.3770   19.7980 C   0  0  0  0  0  0  0  0  0  0  0  0
  -29.7120  -16.0660   19.5430 N   0  0  0  0  0  0  0  0  0  0  0  0
  -25.1470  -13.6530   20.5320 C   0  0  0  0  0  0  0  0  0  0  0  0
  -24.1430  -12.8630   21.0180 C   0  0  0  0  0  0  0  0  0  0  0  0
  -24.5780  -11.5140   20.8420 C   0  0  0  0  0  0  0  0  0  0  0  0
  -26.1280  -12.7840   20.0830 N   0  0  0  0  0  0  0  0  0  0  0  0
  -25.8050  -11.4890   20.3340 N   0  0  0  0  0  0  0  0  0  0  0  0
  -23.8710  -10.2460   21.0720 C   0  0  0  0  0  0  0  0  0  0  0  0
  -24.3820   -9.2620   21.9470 C   0  0  0  0  0  3  0  0  0  0  0  0
  -23.6720   -8.0620   22.1680 C   0  0  0  0  0  3  0  0  0  0  0  0
  -22.4370   -7.8370   21.5140 C   0  0  0  0  0  0  0  0  0  0  0  0
  -21.9450   -8.8090   20.6270 C   0  0  0  0  0  3  0  0  0  0  0  0
  -22.6540  -10.0010   20.4030 C   0  0  0  0  0  3  0  0  0  0  0  0
  -21.6920   -6.6900   21.6490 O   0  0  0  0  0  0  0  0  0  0  0  0
  -21.7050   -5.9550   22.8060 C   0  0  0  0  0  0  0  0  0  0  0  0
  -21.2540   -6.4880   24.0330 C   0  0  0  0  0  3  0  0  0  0  0  0
  -21.2190   -5.6740   25.1840 C   0  0  0  0  0  3  0  0  0  0  0  0
  -21.6250   -4.3290   25.1080 C   0  0  0  0  0  0  0  0  0  0  0  0
  -22.0690   -3.7950   23.8860 C   0  0  0  0  0  3  0  0  0  0  0  0
  -22.1060   -4.6050   22.7380 C   0  0  0  0  0  0  0  0  0  0  0  0
  -22.5150   -4.0790   21.5580 F   0  0  0  0  0  0  0  0  0  0  0  0
  -21.5850   -3.5460   26.2120 F   0  0  0  0  0  0  0  0  0  0  0  0
  -22.8110  -13.3320   21.5260 C   0  0  0  0  0  0  0  0  0  0  0  0
  -22.2110  -12.5900   22.4510 N   0  0  0  0  0  0  0  0  0  0  0  0
  -22.3160  -14.3910   21.1410 O   0  0  0  0  0  0  0  0  0  0  0  0
  -22.6280  -11.7320   22.7820 H   0  0  0  0  0  0  0  0  0  0  0  0
  -21.3230  -12.8830   22.8320 H   0  0  0  0  0  0  0  0  0  0  0  0
  -25.3030  -15.0300   20.4080 N   0  0  0  0  0  0  0  0  0  0  0  0
  -24.5780  -15.6850   20.6810 H   0  0  0  0  0  0  0  0  0  0  0  0
  -26.1090  -15.4820   19.9950 H   0  0  0  0  0  0  0  0  0  0  0  0
  -27.4090  -24.5390   19.4250 C   0  0  0  0  0  2  0  0  0  0  0  0
  -27.8090  -25.9900   19.6510 O   0  0  0  0  0  0  0  0  0  0  0  0
  -24.3440  -31.6160   22.9130 C   0  0  0  0  0  0  0  0  0  0  0  0
  -26.7730  -26.9980   19.6360 C   0  0  0  0  0  0  0  0  0  0  0  0
  -23.0700  -30.2640   21.2960 C   0  0  0  0  0  3  0  0  0  0  0  0
  -24.4510  -28.7430   19.7600 C   0  0  0  0  0  0  0  0  0  0  0  0
  -25.6150  -30.5390   21.0230 C   0  0  0  0  0  2  0  0  0  0  0  0
  -25.6580  -29.1680   20.3290 C   0  0  0  0  0  0  0  0  0  0  0  0
  -26.8190  -28.3090   20.2580 C   0  0  0  0  0  3  0  0  0  0  0  0
  -25.5410  -26.6910   19.0110 C   0  0  0  0  0  3  0  0  0  0  0  0
  -24.4050  -27.5180   19.0840 C   0  0  0  0  0  3  0  0  0  0  0  0
  -23.2270  -29.6320   19.8890 C   0  0  0  0  0  2  0  0  0  0  0  0
  -24.3660  -30.8260   21.7980 N   0  0  0  0  0  0  0  0  0  0  0  0
  -23.2830  -31.8850   23.4980 O   0  0  0  0  0  0  0  0  0  0  0  0
  -22.4390  -29.2250   22.2580 C   0  0  0  0  0  0  0  0  0  0  0  0
  -21.1120  -29.0300   22.1660 N   0  0  0  0  0  0  0  0  0  0  0  0
  -23.1470  -28.6000   23.0530 O   0  0  0  0  0  0  0  0  0  0  0  0
  -20.5970  -29.5880   21.4990 H   0  0  0  0  0  0  0  0  0  0  0  0
  -17.7700  -27.7530   22.7360 C   0  0  0  0  0  0  0  0  0  0  0  0
  -20.3290  -28.0680   22.9460 C   0  0  0  0  0  3  0  0  0  0  0  0
  -20.4480  -26.6450   22.3560 C   0  0  0  0  0  2  0  0  0  0  0  0
  -19.3300  -26.3060   21.3640 C   0  0  0  0  0  2  0  0  0  0  0  0
  -17.9610  -26.4140   22.0410 C   0  0  0  0  0  2  0  0  0  0  0  0
  -18.8820  -28.5370   23.1460 C   0  0  0  0  0  0  0  0  0  0  0  0
  -18.6480  -29.7860   23.7580 C   0  0  0  0  0  3  0  0  0  0  0  0
  -17.3360  -30.2550   23.9620 C   0  0  0  0  0  3  0  0  0  0  0  0
  -16.2410  -29.4690   23.5660 C   0  0  0  0  0  3  0  0  0  0  0  0
  -16.4580  -28.2200   22.9590 C   0  0  0  0  0  3  0  0  0  0  0  0
  -25.6490  -32.2390   23.4950 C   0  0  0  0  0  3  0  0  0  0  0  0
  -25.3260  -33.5940   23.9660 N   0  0  0  0  0  0  0  0  0  0  0  0
  -25.5970  -34.7210   23.2950 C   0  0  0  0  0  0  0  0  0  0  0  0
  -26.2120  -34.7290   22.2250 O   0  0  0  0  0  0  0  0  0  0  0  0
  -24.7720  -33.6600   24.8070 H   0  0  0  0  0  0  0  0  0  0  0  0
  -23.8150  -36.4970   23.2060 C   0  0  0  0  0  1  0  0  0  0  0  0
  -25.1100  -36.0510   23.9050 C   0  0  0  0  0  3  0  0  0  0  0  0
  -27.2600  -36.9240   24.7100 C   0  0  0  0  0  1  0  0  0  0  0  0
  -26.1130  -37.1360   23.8310 N   0  0  0  0  0  0  0  0  0  0  0  0
  -25.6940  -38.0310   24.0660 H   0  0  0  0  0  0  0  0  0  0  0  0
  -26.2740  -31.3830   24.6660 C   0  0  1  0  0  0  0  0  0  0  0  0
  -25.2640  -31.0250   25.7820 C   0  0  0  0  0  1  0  0  0  0  0  0
  -26.8660  -30.0600   24.1270 C   0  0  0  0  0  1  0  0  0  0  0  0
  -27.4460  -32.1590   25.3120 C   0  0  0  0  0  1  0  0  0  0  0  0
  1  9  1  0
  1  2  2  0
  2  3  1  0
  3  7  1  0
  4  3  2  0
  4  5  1  0
  5  6  1  0
  6 10  1  0
  7  8  1  0
  7 10  1  0
  9  4  1  0
 10 12  1  0
 10 11  1  0
 13 26  1  0
 13 19  1  0
 14 19  1  0
 15 16  1  0
 15 14  1  0
 17 16  1  0
 17 30  1  0
 17 18  1  0
 19 18  1  0
 20 13  2  0
 21 23  1  0
 22 24  2  0
 22 25  1  0
 24 26  1  0
 25  2  1  0
 25 21  2  0
 26 23  1  0
 27 28  2  0
 28 47  1  0
 29 28  1  0
 29 32  1  0
 30 31  1  0
 30 27  1  0
 31 29  2  0
 32 33  1  0
 33 34  2  0
 35 38  1  0
 35 34  1  0
 36 35  2  0
 37 36  1  0
 37 32  2  0
 38 39  1  0
 39 40  1  0
 40 41  2  0
 42 41  1  0
 42 46  1  0
 43 42  2  0
 44 39  2  0
 44 43  1  0
 45 44  1  0
 47 48  1  0
 48 50  1  0
 48 51  1  0
 49 47  2  0
 52 27  1  0
 52 53  1  0
 54 52  1  0
 55 56  1  0
 55  9  1  0
 57 68  2  0
 58 56  1  0
 58 63  1  0
 59 67  1  0
 59 69  1  0
 60 66  1  0
 60 62  1  0
 61 67  1  0
 62 61  1  0
 63 62  2  0
 64 65  1  0
 64 58  2  0
 65 60  2  0
 66 59  1  0
 67 57  1  0
 69 71  2  0
 70 69  1  0
 72 70  1  0
 73 82  2  0
 73 78  1  0
 74 70  1  0
 74 78  1  0
 75 74  1  0
 76 77  1  0
 76 75  1  0
 77 73  1  0
 78 79  2  0
 79 80  1  0
 81 80  2  0
 82 81  1  0
 83 57  1  0
 83 84  1  0
 83 93  1  0
 84 87  1  0
 85 89  1  0
 85 84  1  0
 86 85  2  0
 89 88  1  0
 91 89  1  0
 91 92  1  0
 91 90  1  0
 93 96  1  1
 93 94  1  0
 95 93  1  0
M  ISO  4  13 100  26 100  55 101  56 101
M  END
>  <TORSDO>  (24) 
F 17

>  <SCORE>  (24) 
-12.944

>  <name>  (24) 
23

>  <ligand_id>  (24) 
23

>  <original_smiles>  (24) 
[H]c1c([H])c([H])c2c(c1[H])C([H])([H])C([H])([H])C([H])([H])C2([H])N([H])C(=O)C1([H])N(C(=O)C([H])(N([H])C(=O)C([H])(N([H])C([H])([H])[H])C([H])([H])[H])C(C([H])([H])[H])(C([H])([H])[H])C([H])([H])[H])C([H])([H])c2c([H])c(OC([H])([H])n3c([H])c(C4([H])C([H])([H])C([H])([H])N(C(=O)N5C([H])([H])C([H])([H])C([H])([H])C([H])(n6nc(-c7c([H])c([H])c(Oc8c([H])c([H])c(F)c([H])c8F)c([H])c7[H])c(C(=O)N([H])[H])c6N([H])[H])C5([H])[H])C([H])([H])C4([H])[H])c4c3C([H])([H])C([H])([H])[N+]([H])([H])C4([H])C([H])([H])[H])c([H])c([H])c2C1([H])[H]

>  <smiles>  (24) 
[H]c1c([H])c([H])c2c(c1[H])C([H])([H])C([H])([H])C([H])([H])C2([H])N([H])C(=O)C1([H])N(C(=O)C([H])(N([H])C(=O)C([H])(N([H])C([H])([H])[H])C([H])([H])[H])C(C([H])([H])[H])(C([H])([H])[H])C([H])([H])[H])C([H])([H])c2c([H])c(OC([H])([H])n3c([H])c(C4([H])C([H])([H])C([H])([H])N(C(=O)N5C([H])([H])C([H])([H])C([H])([H])C([H])(n6nc(-c7c([H])c([H])c(Oc8c([H])c([H])c(F)c([H])c8F)c([H])c7[H])c(C(=O)N([H])[H])c6N([H])[H])C5([H])[H])C([H])([H])C4([H])[H])c4c3C([H])([H])C([H])([H])[N+]([H])([H])C4([H])C([H])([H])[H])c([H])c([H])c2C1([H])[H]

$$$$
24:0:0
     RDKit          3D

 91100  0  0  1  0  0  0  0  0999 V2000
  -28.9270  -23.6360   18.2360 C   0  0  0  0  0  3  0  0  0  0  0  0
  -28.6730  -23.1280   19.4790 C   0  0  0  0  0  0  0  0  0  0  0  0
  -29.3520  -21.4690   18.0320 C   0  0  0  0  0  3  0  0  0  0  0  0
  -29.6920  -20.2860   17.1580 C   0  0  0  0  0  1  0  0  0  0  0  0
  -29.0080  -21.6160   19.3570 N   0  0  0  0  0  0  0  0  0  0  0  0
  -29.3260  -22.6470   17.4200 N   0  0  0  0  0  0  0  0  0  0  0  0
  -29.5520  -22.7860   16.4420 H   0  0  0  0  0  0  0  0  0  0  0  0
  -30.5290  -15.2120   20.2660 C   0  0  0  0  0  0  0  0  0  0  0  0
  -30.3970  -12.7980   19.3790 C   0  0  0  0  0  2  0  0  0  0  0  0
  -29.4760  -12.5880   18.1550 C   0  0  0  0  0  2  0  0  0  0  0  0
  -28.0350  -12.3220   18.6200 C   0  0  0  0  0  2  0  0  0  0  0  0
  -27.5870  -13.3060   19.7320 C   0  0  0  0  0  3  0  0  0  0  0  0
  -28.6430  -13.4960   20.8410 C   0  0  0  0  0  2  0  0  0  0  0  0
  -29.8630  -13.9650   20.1710 N   0  0  0  0  0  0  0  0  0  0  0  0
  -31.7560  -15.0920   20.1370 O   0  0  0  0  0  0  0  0  0  0  0  0
  -30.5460  -19.3850   20.3180 C   0  0  0  0  0  2  0  0  0  0  0  0
  -28.3150  -18.7940   19.6820 C   0  0  0  0  0  2  0  0  0  0  0  0
  -30.7740  -17.8110   20.7980 C   0  0  0  0  0  2  0  0  0  0  0  0
  -28.5830  -17.2230   20.1900 C   0  0  0  0  0  2  0  0  0  0  0  0
  -29.1150  -20.1360   20.1820 C   0  0  0  0  0  3  0  0  0  0  0  0
  -29.9660  -16.5880   20.3370 N   0  0  0  0  0  0  0  0  0  0  0  0
  -25.2200  -13.8610   20.4950 C   0  0  0  0  0  0  0  0  0  0  0  0
  -24.1590  -13.0810   20.8600 C   0  0  0  0  0  0  0  0  0  0  0  0
  -24.6320  -11.7330   20.8340 C   0  0  0  0  0  0  0  0  0  0  0  0
  -26.2650  -12.9900   20.2550 N   0  0  0  0  0  0  0  0  0  0  0  0
  -25.9240  -11.7030   20.5280 N   0  0  0  0  0  0  0  0  0  0  0  0
  -23.9110  -10.4670   21.0220 C   0  0  0  0  0  0  0  0  0  0  0  0
  -24.3450   -9.5000   21.9570 C   0  0  0  0  0  3  0  0  0  0  0  0
  -23.6210   -8.3020   22.1350 C   0  0  0  0  0  3  0  0  0  0  0  0
  -22.4490   -8.0610   21.3800 C   0  0  0  0  0  0  0  0  0  0  0  0
  -22.0320   -9.0160   20.4360 C   0  0  0  0  0  3  0  0  0  0  0  0
  -22.7580  -10.2060   20.2560 C   0  0  0  0  0  3  0  0  0  0  0  0
  -21.6940   -6.9160   21.4690 O   0  0  0  0  0  0  0  0  0  0  0  0
  -21.6500   -6.1700   22.6200 C   0  0  0  0  0  0  0  0  0  0  0  0
  -21.2240   -6.7190   23.8490 C   0  0  0  0  0  3  0  0  0  0  0  0
  -21.1310   -5.9000   24.9920 C   0  0  0  0  0  3  0  0  0  0  0  0
  -21.4500   -4.5320   24.9050 C   0  0  0  0  0  0  0  0  0  0  0  0
  -21.8700   -3.9820   23.6820 C   0  0  0  0  0  3  0  0  0  0  0  0
  -21.9660   -4.7980   22.5410 C   0  0  0  0  0  0  0  0  0  0  0  0
  -22.3490   -4.2590   21.3600 F   0  0  0  0  0  0  0  0  0  0  0  0
  -21.3530   -3.7430   26.0010 F   0  0  0  0  0  0  0  0  0  0  0  0
  -22.7580  -13.5530   21.1180 C   0  0  0  0  0  0  0  0  0  0  0  0
  -22.0270  -12.8570   21.9810 N   0  0  0  0  0  0  0  0  0  0  0  0
  -22.3230  -14.5750   20.5890 O   0  0  0  0  0  0  0  0  0  0  0  0
  -22.3880  -12.0290   22.4300 H   0  0  0  0  0  0  0  0  0  0  0  0
  -21.0870  -13.1570   22.1970 H   0  0  0  0  0  0  0  0  0  0  0  0
  -25.3810  -15.2310   20.3180 N   0  0  0  0  0  0  0  0  0  0  0  0
  -24.6210  -15.8880   20.4530 H   0  0  0  0  0  0  0  0  0  0  0  0
  -26.2410  -15.6700   20.0210 H   0  0  0  0  0  0  0  0  0  0  0  0
  -28.0770  -24.3750   20.4460 C   0  0  0  0  0  2  0  0  0  0  0  0
  -28.2440  -25.9740   20.1750 O   0  0  0  0  0  0  0  0  0  0  0  0
  -24.6370  -31.8500   23.1830 C   0  0  0  0  0  0  0  0  0  0  0  0
  -27.1990  -27.0120   20.1860 C   0  0  0  0  0  0  0  0  0  0  0  0
  -23.4390  -30.4420   21.5550 C   0  0  0  0  0  3  0  0  0  0  0  0
  -24.8830  -28.8360   20.1450 C   0  0  0  0  0  0  0  0  0  0  0  0
  -26.0000  -30.6730   21.3990 C   0  0  0  0  0  2  0  0  0  0  0  0
  -26.0710  -29.2650   20.7540 C   0  0  0  0  0  0  0  0  0  0  0  0
  -27.2250  -28.3730   20.7500 C   0  0  0  0  0  3  0  0  0  0  0  0
  -25.9840  -26.7160   19.5340 C   0  0  0  0  0  3  0  0  0  0  0  0
  -24.8610  -27.5810   19.5170 C   0  0  0  0  0  3  0  0  0  0  0  0
  -23.6620  -29.7490   20.1840 C   0  0  0  0  0  2  0  0  0  0  0  0
  -24.7140  -31.0170   22.0980 N   0  0  0  0  0  0  0  0  0  0  0  0
  -23.5470  -32.1390   23.7040 O   0  0  0  0  0  0  0  0  0  0  0  0
  -22.7540  -29.4500   22.5280 C   0  0  0  0  0  0  0  0  0  0  0  0
  -21.4260  -29.2830   22.4060 N   0  0  0  0  0  0  0  0  0  0  0  0
  -23.4230  -28.8310   23.3610 O   0  0  0  0  0  0  0  0  0  0  0  0
  -20.9430  -29.8370   21.7150 H   0  0  0  0  0  0  0  0  0  0  0  0
  -18.0430  -28.0750   22.9320 C   0  0  0  0  0  0  0  0  0  0  0  0
  -20.6030  -28.3490   23.1790 C   0  0  0  0  0  3  0  0  0  0  0  0
  -20.7040  -26.9150   22.6130 C   0  0  0  0  0  2  0  0  0  0  0  0
  -19.5990  -26.5820   21.6060 C   0  0  0  0  0  2  0  0  0  0  0  0
  -18.2190  -26.7250   22.2550 C   0  0  0  0  0  2  0  0  0  0  0  0
  -19.1620  -28.8440   23.3490 C   0  0  0  0  0  0  0  0  0  0  0  0
  -18.9430  -30.1040   23.9460 C   0  0  0  0  0  3  0  0  0  0  0  0
  -17.6380  -30.5990   24.1220 C   0  0  0  0  0  3  0  0  0  0  0  0
  -16.5340  -29.8290   23.7180 C   0  0  0  0  0  3  0  0  0  0  0  0
  -16.7360  -28.5680   23.1310 C   0  0  0  0  0  3  0  0  0  0  0  0
  -25.9090  -32.4970   23.8120 C   0  0  0  0  0  3  0  0  0  0  0  0
  -25.5880  -33.8960   24.1470 N   0  0  0  0  0  0  0  0  0  0  0  0
  -25.9040  -34.9580   23.3950 C   0  0  0  0  0  0  0  0  0  0  0  0
  -26.5640  -34.8680   22.3580 O   0  0  0  0  0  0  0  0  0  0  0  0
  -25.0230  -34.0440   24.9690 H   0  0  0  0  0  0  0  0  0  0  0  0
  -24.1620  -36.7480   23.0700 C   0  0  0  0  0  1  0  0  0  0  0  0
  -25.4110  -36.3410   23.8700 C   0  0  0  0  0  3  0  0  0  0  0  0
  -27.5450  -37.2320   24.6950 C   0  0  0  0  0  1  0  0  0  0  0  0
  -26.4350  -37.4020   23.7610 N   0  0  0  0  0  0  0  0  0  0  0  0
  -26.0230  -38.3170   23.9160 H   0  0  0  0  0  0  0  0  0  0  0  0
  -26.4260  -31.7390   25.0970 C   0  0  1  0  0  0  0  0  0  0  0  0
  -25.3330  -31.5060   26.1660 C   0  0  0  0  0  1  0  0  0  0  0  0
  -27.0230  -30.3600   24.7300 C   0  0  0  0  0  1  0  0  0  0  0  0
  -27.5710  -32.5470   25.7540 C   0  0  0  0  0  1  0  0  0  0  0  0
  1  2  2  0
  2 50  1  0
  3  4  1  0
  3  5  1  0
  5  2  1  0
  6  3  1  0
  6  1  1  0
  7  6  1  0
  8 21  1  0
  9 14  1  0
 10 11  1  0
 10  9  1  0
 12 11  1  0
 12 25  1  0
 12 13  1  0
 14  8  1  0
 14 13  1  0
 15  8  2  0
 16 18  1  0
 17 20  1  0
 17 19  1  0
 19 21  1  0
 20  5  1  0
 20 16  1  0
 21 18  1  0
 22 23  2  0
 23 42  1  0
 24 23  1  0
 24 27  1  0
 25 22  1  0
 25 26  1  0
 26 24  2  0
 27 28  1  0
 28 29  2  0
 30 33  1  0
 30 29  1  0
 31 30  2  0
 32 31  1  0
 32 27  2  0
 33 34  1  0
 34 35  1  0
 35 36  2  0
 37 36  1  0
 37 41  1  0
 38 37  2  0
 39 34  2  0
 39 38  1  0
 40 39  1  0
 42 43  1  0
 43 46  1  0
 43 45  1  0
 44 42  2  0
 47 48  1  0
 47 22  1  0
 49 47  1  0
 51 53  1  0
 51 50  1  0
 52 63  2  0
 53 58  1  0
 54 62  1  0
 54 64  1  0
 55 61  1  0
 55 57  1  0
 56 62  1  0
 57 56  1  0
 58 57  2  0
 59 53  2  0
 60 59  1  0
 60 55  2  0
 61 54  1  0
 62 52  1  0
 64 66  2  0
 65 64  1  0
 67 65  1  0
 68 77  2  0
 68 73  1  0
 69 65  1  0
 69 73  1  0
 70 69  1  0
 71 72  1  0
 71 70  1  0
 72 68  1  0
 73 74  2  0
 74 75  1  0
 76 75  2  0
 77 76  1  0
 78 52  1  0
 78 79  1  0
 78 88  1  0
 79 82  1  0
 80 84  1  0
 80 79  1  0
 81 80  2  0
 84 83  1  0
 86 84  1  0
 86 87  1  0
 86 85  1  0
 88 91  1  1
 88 89  1  0
 90 88  1  0
M  ISO  4   8 100  21 100  50 101  51 101
M  END
>  <TORSDO>  (25) 
F 17

>  <SCORE>  (25) 
-15.663

>  <name>  (25) 
24

>  <ligand_id>  (25) 
24

>  <original_smiles>  (25) 
[H]c1c([H])c([H])c2c(c1[H])C([H])([H])C([H])([H])C([H])([H])C2([H])N([H])C(=O)C1([H])N(C(=O)C([H])(N([H])C(=O)C([H])(N([H])C([H])([H])[H])C([H])([H])[H])C(C([H])([H])[H])(C([H])([H])[H])C([H])([H])[H])C([H])([H])c2c([H])c(OC([H])([H])c3c([H])[n+]([H])c(C([H])([H])[H])n3C3([H])C([H])([H])C([H])([H])N(C(=O)N4C([H])([H])C([H])([H])C([H])([H])C([H])(n5nc(-c6c([H])c([H])c(Oc7c([H])c([H])c(F)c([H])c7F)c([H])c6[H])c(C(=O)N([H])[H])c5N([H])[H])C4([H])[H])C([H])([H])C3([H])[H])c([H])c([H])c2C1([H])[H]

>  <smiles>  (25) 
[H]c1c([H])c([H])c2c(c1[H])C([H])([H])C([H])([H])C([H])([H])C2([H])N([H])C(=O)C1([H])N(C(=O)C([H])(N([H])C(=O)C([H])(N([H])C([H])([H])[H])C([H])([H])[H])C(C([H])([H])[H])(C([H])([H])[H])C([H])([H])[H])C([H])([H])c2c([H])c(OC([H])([H])c3c([H])[n+]([H])c(C([H])([H])[H])n3C3([H])C([H])([H])C([H])([H])N(C(=O)N4C([H])([H])C([H])([H])C([H])([H])C([H])(n5nc(-c6c([H])c([H])c(Oc7c([H])c([H])c(F)c([H])c7F)c([H])c6[H])c(C(=O)N([H])[H])c5N([H])[H])C4([H])[H])C([H])([H])C3([H])[H])c([H])c([H])c2C1([H])[H]

$$$$
25:0:0
     RDKit          3D

 93102  0  0  1  0  0  0  0  0999 V2000
  -28.4480  -23.2220   19.4470 C   0  0  0  0  0  0  0  0  0  0  0  0
  -27.3080  -22.7680   18.7060 C   0  0  0  0  0  0  0  0  0  0  0  0
  -29.3590  -22.0670   19.7660 C   0  0  0  0  0  0  0  0  0  0  0  0
  -27.1280  -21.3900   18.3940 C   0  0  0  0  0  0  0  0  0  0  0  0
  -29.1230  -20.6400   19.3690 C   0  0  0  0  0  0  0  0  0  0  0  0
  -26.2700  -23.7360   18.1400 C   0  0  0  0  0  1  0  0  0  0  0  0
  -30.6500  -22.3680   20.5110 C   0  0  0  0  0  1  0  0  0  0  0  0
  -25.9090  -20.8890   17.6320 C   0  0  0  0  0  1  0  0  0  0  0  0
  -27.9990  -20.4050   18.6810 N   0  0  0  0  0  0  0  0  0  0  0  0
  -28.7590  -24.8800   19.4960 C   0  0  0  0  0  2  0  0  0  0  0  0
  -28.2280  -26.1000   20.3300 O   0  0  0  0  0  0  0  0  0  0  0  0
  -24.4550  -31.7220   23.2080 C   0  0  0  0  0  0  0  0  0  0  0  0
  -27.1650  -27.0690   20.1450 C   0  0  0  0  0  0  0  0  0  0  0  0
  -23.3060  -30.3260   21.5310 C   0  0  0  0  0  3  0  0  0  0  0  0
  -24.8050  -28.7920   20.1020 C   0  0  0  0  0  0  0  0  0  0  0  0
  -25.8580  -30.6260   21.4180 C   0  0  0  0  0  2  0  0  0  0  0  0
  -25.9630  -29.2430   20.7430 C   0  0  0  0  0  0  0  0  0  0  0  0
  -27.1350  -28.3940   20.7540 C   0  0  0  0  0  3  0  0  0  0  0  0
  -25.9760  -26.7230   19.4760 C   0  0  0  0  0  3  0  0  0  0  0  0
  -24.8240  -27.5440   19.4550 C   0  0  0  0  0  3  0  0  0  0  0  0
  -23.5630  -29.6700   20.1460 C   0  0  0  0  0  2  0  0  0  0  0  0
  -24.5590  -30.9130   22.1070 N   0  0  0  0  0  0  0  0  0  0  0  0
  -23.3560  -31.9860   23.7200 O   0  0  0  0  0  0  0  0  0  0  0  0
  -22.6230  -29.3000   22.4720 C   0  0  0  0  0  0  0  0  0  0  0  0
  -21.3020  -29.1030   22.3150 N   0  0  0  0  0  0  0  0  0  0  0  0
  -23.2880  -28.6850   23.3090 O   0  0  0  0  0  0  0  0  0  0  0  0
  -20.8180  -29.6520   21.6180 H   0  0  0  0  0  0  0  0  0  0  0  0
  -17.9420  -27.8070   22.7140 C   0  0  0  0  0  0  0  0  0  0  0  0
  -20.4830  -28.1430   23.0630 C   0  0  0  0  0  3  0  0  0  0  0  0
  -20.6440  -26.7130   22.4950 C   0  0  0  0  0  2  0  0  0  0  0  0
  -19.5860  -26.3580   21.4460 C   0  0  0  0  0  2  0  0  0  0  0  0
  -18.1790  -26.4630   22.0440 C   0  0  0  0  0  2  0  0  0  0  0  0
  -19.0230  -28.6020   23.1780 C   0  0  0  0  0  0  0  0  0  0  0  0
  -18.7480  -29.8560   23.7640 C   0  0  0  0  0  3  0  0  0  0  0  0
  -17.4230  -30.3170   23.8910 C   0  0  0  0  0  3  0  0  0  0  0  0
  -16.3550  -29.5190   23.4430 C   0  0  0  0  0  3  0  0  0  0  0  0
  -16.6160  -28.2670   22.8590 C   0  0  0  0  0  3  0  0  0  0  0  0
  -25.7120  -32.3730   23.8640 C   0  0  0  0  0  3  0  0  0  0  0  0
  -25.3840  -33.7740   24.1750 N   0  0  0  0  0  0  0  0  0  0  0  0
  -25.7260  -34.8250   23.4190 C   0  0  0  0  0  0  0  0  0  0  0  0
  -26.4140  -34.7160   22.4000 O   0  0  0  0  0  0  0  0  0  0  0  0
  -24.7730  -33.9320   24.9630 H   0  0  0  0  0  0  0  0  0  0  0  0
  -24.0000  -36.6120   23.0230 C   0  0  0  0  0  1  0  0  0  0  0  0
  -25.2270  -36.2150   23.8580 C   0  0  0  0  0  3  0  0  0  0  0  0
  -27.3420  -37.1170   24.7230 C   0  0  0  0  0  1  0  0  0  0  0  0
  -26.2580  -37.2710   23.7560 N   0  0  0  0  0  0  0  0  0  0  0  0
  -25.8460  -38.1920   23.8870 H   0  0  0  0  0  0  0  0  0  0  0  0
  -26.1900  -31.6190   25.1680 C   0  0  1  0  0  0  0  0  0  0  0  0
  -25.0640  -31.3920   26.2030 C   0  0  0  0  0  1  0  0  0  0  0  0
  -26.7900  -30.2380   24.8200 C   0  0  0  0  0  1  0  0  0  0  0  0
  -27.3180  -32.4250   25.8560 C   0  0  0  0  0  1  0  0  0  0  0  0
  -30.0430  -19.2490   19.5660 C   0  0  0  0  0  2  0  0  0  0  0  0
  -30.7130  -15.0270   19.4490 C   0  0  0  0  0  0  0  0  0  0  0  0
  -30.4370  -12.6540   18.5340 C   0  0  0  0  0  2  0  0  0  0  0  0
  -29.3780  -12.6030   17.4040 C   0  0  0  0  0  2  0  0  0  0  0  0
  -27.9610  -12.4170   17.9780 C   0  0  0  0  0  2  0  0  0  0  0  0
  -27.6990  -13.3480   19.1880 C   0  0  0  0  0  3  0  0  0  0  0  0
  -28.8650  -13.3380   20.1960 C   0  0  0  0  0  2  0  0  0  0  0  0
  -30.0790  -13.7670   19.4780 N   0  0  0  0  0  0  0  0  0  0  0  0
  -31.8050  -15.0580   18.8690 O   0  0  0  0  0  0  0  0  0  0  0  0
  -28.3640  -16.9760   21.3710 C   0  0  0  0  0  2  0  0  0  0  0  0
  -28.1260  -17.5310   19.9610 C   0  0  0  0  0  2  0  0  0  0  0  0
  -29.7740  -16.3790   21.3370 C   0  0  0  0  0  2  0  0  0  0  0  0
  -29.5180  -17.6280   19.3250 C   0  0  0  0  0  3  0  0  0  0  0  0
  -30.1070  -16.2550   19.9200 N   0  0  0  0  0  0  0  0  0  0  0  0
  -25.4410  -13.9720   20.2200 C   0  0  0  0  0  0  0  0  0  0  0  0
  -24.4000  -13.2250   20.6880 C   0  0  0  0  0  0  0  0  0  0  0  0
  -24.8080  -11.8630   20.5600 C   0  0  0  0  0  0  0  0  0  0  0  0
  -26.4180  -13.0730   19.8300 N   0  0  0  0  0  0  0  0  0  0  0  0
  -26.0530  -11.7920   20.0990 N   0  0  0  0  0  0  0  0  0  0  0  0
  -24.0560  -10.6240   20.7930 C   0  0  0  0  0  0  0  0  0  0  0  0
  -24.5000   -9.6520   21.7150 C   0  0  0  0  0  3  0  0  0  0  0  0
  -23.7460   -8.4790   21.9340 C   0  0  0  0  0  3  0  0  0  0  0  0
  -22.5340   -8.2740   21.2330 C   0  0  0  0  0  0  0  0  0  0  0  0
  -22.1090   -9.2340   20.3000 C   0  0  0  0  0  3  0  0  0  0  0  0
  -22.8630  -10.3990   20.0780 C   0  0  0  0  0  3  0  0  0  0  0  0
  -21.7490   -7.1530   21.3640 O   0  0  0  0  0  0  0  0  0  0  0  0
  -21.6550   -6.4760   22.5530 C   0  0  0  0  0  0  0  0  0  0  0  0
  -21.2180   -7.1070   23.7380 C   0  0  0  0  0  3  0  0  0  0  0  0
  -21.0720   -6.3580   24.9230 C   0  0  0  0  0  3  0  0  0  0  0  0
  -21.3500   -4.9780   24.9220 C   0  0  0  0  0  0  0  0  0  0  0  0
  -21.7770   -4.3460   23.7410 C   0  0  0  0  0  3  0  0  0  0  0  0
  -21.9270   -5.0930   22.5590 C   0  0  0  0  0  0  0  0  0  0  0  0
  -22.3210   -4.4770   21.4190 F   0  0  0  0  0  0  0  0  0  0  0  0
  -21.2020   -4.2550   26.0560 F   0  0  0  0  0  0  0  0  0  0  0  0
  -23.0670  -13.7470   21.1380 C   0  0  0  0  0  0  0  0  0  0  0  0
  -22.4230  -13.0570   22.0730 N   0  0  0  0  0  0  0  0  0  0  0  0
  -22.6100  -14.8000   20.6940 O   0  0  0  0  0  0  0  0  0  0  0  0
  -22.8060  -12.2010   22.4470 H   0  0  0  0  0  0  0  0  0  0  0  0
  -21.5330  -13.3890   22.4160 H   0  0  0  0  0  0  0  0  0  0  0  0
  -25.6200  -15.3380   20.0720 N   0  0  0  0  0  0  0  0  0  0  0  0
  -24.9040  -16.0130   20.3180 H   0  0  0  0  0  0  0  0  0  0  0  0
  -26.4750  -15.7630   19.7400 H   0  0  0  0  0  0  0  0  0  0  0  0
  1 10  1  0
  1  3  1  0
  2  1  2  0
  3  7  1  0
  4  9  2  0
  4  2  1  0
  5 52  1  0
  5  3  2  0
  6  2  1  0
  8  4  1  0
  9  5  1  0
 10 11  1  0
 12 23  2  0
 13 11  1  0
 13 18  1  0
 14 22  1  0
 14 24  1  0
 15 21  1  0
 15 17  1  0
 16 22  1  0
 17 18  2  0
 17 16  1  0
 19 13  2  0
 20 19  1  0
 20 15  2  0
 21 14  1  0
 22 12  1  0
 24 26  2  0
 25 24  1  0
 27 25  1  0
 28 37  2  0
 28 33  1  0
 29 25  1  0
 29 33  1  0
 30 29  1  0
 31 32  1  0
 31 30  1  0
 32 28  1  0
 33 34  2  0
 34 35  1  0
 36 35  2  0
 37 36  1  0
 38 12  1  0
 38 39  1  0
 38 48  1  0
 39 42  1  0
 40 44  1  0
 40 39  1  0
 41 40  2  0
 44 43  1  0
 46 44  1  0
 46 47  1  0
 46 45  1  0
 48 51  1  1
 48 49  1  0
 50 48  1  0
 53 59  1  0
 53 65  1  0
 54 59  1  0
 55 56  1  0
 55 54  1  0
 57 56  1  0
 57 69  1  0
 57 58  1  0
 59 58  1  0
 60 53  2  0
 62 61  1  0
 63 61  1  0
 64 52  1  0
 64 65  1  0
 64 62  1  0
 65 63  1  0
 66 67  2  0
 67 86  1  0
 68 67  1  0
 68 71  1  0
 69 70  1  0
 69 66  1  0
 70 68  2  0
 71 72  1  0
 72 73  2  0
 74 77  1  0
 74 73  1  0
 75 74  2  0
 76 75  1  0
 76 71  2  0
 77 78  1  0
 78 83  2  0
 78 79  1  0
 79 80  2  0
 81 80  1  0
 81 85  1  0
 82 81  2  0
 83 82  1  0
 84 83  1  0
 86 87  1  0
 87 90  1  0
 87 89  1  0
 88 86  2  0
 91 66  1  0
 91 92  1  0
 93 91  1  0
M  ISO  4  10 101  11 101  53 100  65 100
M  END
>  <TORSDO>  (26) 
F 18

>  <SCORE>  (26) 
-13.959

>  <name>  (26) 
25

>  <ligand_id>  (26) 
25

>  <original_smiles>  (26) 
[H]c1c([H])c([H])c2c(c1[H])C([H])([H])C([H])([H])C([H])([H])C2([H])N([H])C(=O)C1([H])N(C(=O)C([H])(N([H])C(=O)C([H])(N([H])C([H])([H])[H])C([H])([H])[H])C(C([H])([H])[H])(C([H])([H])[H])C([H])([H])[H])C([H])([H])c2c([H])c(OC([H])([H])c3c(C([H])([H])[H])c(C([H])([H])[H])nc(C([H])([H])C4([H])N(C(=O)N5C([H])([H])C([H])([H])C([H])([H])C([H])(n6nc(-c7c([H])c([H])c(Oc8c([H])c([H])c(F)c([H])c8F)c([H])c7[H])c(C(=O)N([H])[H])c6N([H])[H])C5([H])[H])C([H])([H])C([H])([H])C4([H])[H])c3C([H])([H])[H])c([H])c([H])c2C1([H])[H]

>  <smiles>  (26) 
[H]c1c([H])c([H])c2c(c1[H])C([H])([H])C([H])([H])C([H])([H])C2([H])N([H])C(=O)C1([H])N(C(=O)C([H])(N([H])C(=O)C([H])(N([H])C([H])([H])[H])C([H])([H])[H])C(C([H])([H])[H])(C([H])([H])[H])C([H])([H])[H])C([H])([H])c2c([H])c(OC([H])([H])c3c(C([H])([H])[H])c(C([H])([H])[H])nc(C([H])([H])C4([H])N(C(=O)N5C([H])([H])C([H])([H])C([H])([H])C([H])(n6nc(-c7c([H])c([H])c(Oc8c([H])c([H])c(F)c([H])c8F)c([H])c7[H])c(C(=O)N([H])[H])c6N([H])[H])C5([H])[H])C([H])([H])C([H])([H])C4([H])[H])c3C([H])([H])[H])c([H])c([H])c2C1([H])[H]

$$$$
26:0:0
     RDKit          3D

 92102  0  0  1  0  0  0  0  0999 V2000
  -28.7590  -21.6670   19.8360 C   0  0  0  0  0  0  0  0  0  0  0  0
  -29.2660  -20.4500   20.5780 C   0  0  0  0  0  0  0  0  0  0  0  0
  -28.7430  -23.0590   20.4240 C   0  0  0  0  0  0  0  0  0  0  0  0
  -29.7170  -22.0240   22.2730 C   0  0  0  0  0  0  0  0  0  0  0  0
  -30.2820  -22.2730   23.6640 C   0  0  0  0  0  1  0  0  0  0  0  0
  -29.7280  -20.7580   21.8180 N   0  0  0  0  0  0  0  0  0  0  0  0
  -29.2670  -23.1270   21.6640 N   0  0  0  0  0  0  0  0  0  0  0  0
  -30.5690  -15.1790   20.2250 C   0  0  0  0  0  0  0  0  0  0  0  0
  -30.3780  -12.8040   19.2680 C   0  0  0  0  0  2  0  0  0  0  0  0
  -29.4240  -12.6620   18.0620 C   0  0  0  0  0  2  0  0  0  0  0  0
  -27.9940  -12.4020   18.5520 C   0  0  0  0  0  2  0  0  0  0  0  0
  -27.5910  -13.3630   19.6970 C   0  0  0  0  0  3  0  0  0  0  0  0
  -28.6690  -13.4970   20.7920 C   0  0  0  0  0  2  0  0  0  0  0  0
  -29.8890  -13.9490   20.1140 N   0  0  0  0  0  0  0  0  0  0  0  0
  -31.7820  -15.0960   19.9990 O   0  0  0  0  0  0  0  0  0  0  0  0
  -30.7350  -17.8640   20.1420 C   0  0  0  0  0  2  0  0  0  0  0  0
  -28.8490  -17.3840   20.7730 C   0  0  0  0  0  2  0  0  0  0  0  0
  -29.4250  -18.7840   20.1740 C   0  0  0  0  0  3  0  0  0  0  0  0
  -29.9930  -16.5310   20.2120 N   0  0  0  0  0  0  0  0  0  0  0  0
  -25.2390  -13.9220   20.5010 C   0  0  0  0  0  0  0  0  0  0  0  0
  -24.1840  -13.1400   20.8750 C   0  0  0  0  0  0  0  0  0  0  0  0
  -24.6520  -11.7910   20.8280 C   0  0  0  0  0  0  0  0  0  0  0  0
  -26.2760  -13.0480   20.2340 N   0  0  0  0  0  0  0  0  0  0  0  0
  -25.9400  -11.7620   20.5040 N   0  0  0  0  0  0  0  0  0  0  0  0
  -23.9300  -10.5270   21.0160 C   0  0  0  0  0  0  0  0  0  0  0  0
  -24.3700   -9.5580   21.9460 C   0  0  0  0  0  3  0  0  0  0  0  0
  -23.6450   -8.3600   22.1250 C   0  0  0  0  0  3  0  0  0  0  0  0
  -22.4690   -8.1200   21.3770 C   0  0  0  0  0  0  0  0  0  0  0  0
  -22.0500   -9.0780   20.4350 C   0  0  0  0  0  3  0  0  0  0  0  0
  -22.7740  -10.2680   20.2530 C   0  0  0  0  0  3  0  0  0  0  0  0
  -21.7170   -6.9730   21.4650 O   0  0  0  0  0  0  0  0  0  0  0  0
  -21.6620   -6.2380   22.6220 C   0  0  0  0  0  0  0  0  0  0  0  0
  -21.2050   -6.7930   23.8390 C   0  0  0  0  0  3  0  0  0  0  0  0
  -21.0980   -5.9810   24.9860 C   0  0  0  0  0  3  0  0  0  0  0  0
  -21.4380   -4.6180   24.9200 C   0  0  0  0  0  0  0  0  0  0  0  0
  -21.8850   -4.0620   23.7080 C   0  0  0  0  0  3  0  0  0  0  0  0
  -21.9970   -4.8720   22.5620 C   0  0  0  0  0  0  0  0  0  0  0  0
  -22.4090   -4.3230   21.3930 F   0  0  0  0  0  0  0  0  0  0  0  0
  -21.3280   -3.8370   26.0210 F   0  0  0  0  0  0  0  0  0  0  0  0
  -22.7930  -13.6150   21.1680 C   0  0  0  0  0  0  0  0  0  0  0  0
  -22.0770  -12.9160   22.0420 N   0  0  0  0  0  0  0  0  0  0  0  0
  -22.3520  -14.6450   20.6590 O   0  0  0  0  0  0  0  0  0  0  0  0
  -22.4450  -12.0770   22.4640 H   0  0  0  0  0  0  0  0  0  0  0  0
  -21.1470  -13.2240   22.2880 H   0  0  0  0  0  0  0  0  0  0  0  0
  -25.3950  -15.2950   20.3280 N   0  0  0  0  0  0  0  0  0  0  0  0
  -24.6200  -15.9390   20.4410 H   0  0  0  0  0  0  0  0  0  0  0  0
  -26.2310  -15.7400   19.9750 H   0  0  0  0  0  0  0  0  0  0  0  0
  -28.8150  -20.6490   17.3730 C   0  0  0  0  0  2  0  0  0  0  0  0
  -28.8820  -22.1460   17.2460 C   0  0  0  0  0  2  0  0  0  0  0  0
  -28.1900  -21.5210   18.4460 C   0  0  0  0  0  3  0  0  0  0  0  0
  -28.0620  -24.5100   19.8460 C   0  0  0  0  0  2  0  0  0  0  0  0
  -28.2290  -26.0290   20.3440 O   0  0  0  0  0  0  0  0  0  0  0  0
  -24.6440  -31.8860   23.2540 C   0  0  0  0  0  0  0  0  0  0  0  0
  -27.2150  -27.0870   20.2300 C   0  0  0  0  0  0  0  0  0  0  0  0
  -23.4520  -30.4900   21.6090 C   0  0  0  0  0  3  0  0  0  0  0  0
  -24.9040  -28.9060   20.1810 C   0  0  0  0  0  0  0  0  0  0  0  0
  -26.0100  -30.7250   21.4600 C   0  0  0  0  0  2  0  0  0  0  0  0
  -26.0830  -29.3240   20.8110 C   0  0  0  0  0  0  0  0  0  0  0  0
  -27.2300  -28.4290   20.8240 C   0  0  0  0  0  3  0  0  0  0  0  0
  -26.0140  -26.8100   19.5350 C   0  0  0  0  0  3  0  0  0  0  0  0
  -24.8890  -27.6680   19.5250 C   0  0  0  0  0  3  0  0  0  0  0  0
  -23.6800  -29.8110   20.2330 C   0  0  0  0  0  2  0  0  0  0  0  0
  -24.7230  -31.0600   22.1620 N   0  0  0  0  0  0  0  0  0  0  0  0
  -23.5530  -32.1760   23.7710 O   0  0  0  0  0  0  0  0  0  0  0  0
  -22.7580  -29.4880   22.5670 C   0  0  0  0  0  0  0  0  0  0  0  0
  -21.4280  -29.3270   22.4370 N   0  0  0  0  0  0  0  0  0  0  0  0
  -23.4200  -28.8560   23.3950 O   0  0  0  0  0  0  0  0  0  0  0  0
  -20.9440  -29.8880   21.7480 H   0  0  0  0  0  0  0  0  0  0  0  0
  -18.0430  -28.1320   22.9420 C   0  0  0  0  0  0  0  0  0  0  0  0
  -20.6040  -28.3870   23.2050 C   0  0  0  0  0  3  0  0  0  0  0  0
  -20.7010  -26.9590   22.6210 C   0  0  0  0  0  2  0  0  0  0  0  0
  -19.5970  -26.6490   21.6040 C   0  0  0  0  0  2  0  0  0  0  0  0
  -18.2150  -26.7900   22.2510 C   0  0  0  0  0  2  0  0  0  0  0  0
  -19.1650  -28.8890   23.3740 C   0  0  0  0  0  0  0  0  0  0  0  0
  -18.9480  -30.1450   23.9810 C   0  0  0  0  0  3  0  0  0  0  0  0
  -17.6460  -30.6490   24.1540 C   0  0  0  0  0  3  0  0  0  0  0  0
  -16.5380  -29.8890   23.7370 C   0  0  0  0  0  3  0  0  0  0  0  0
  -16.7390  -28.6310   23.1410 C   0  0  0  0  0  3  0  0  0  0  0  0
  -25.9160  -32.5250   23.8900 C   0  0  0  0  0  3  0  0  0  0  0  0
  -25.6090  -33.9280   24.2120 N   0  0  0  0  0  0  0  0  0  0  0  0
  -25.9270  -34.9790   23.4450 C   0  0  0  0  0  0  0  0  0  0  0  0
  -26.5810  -34.8700   22.4040 O   0  0  0  0  0  0  0  0  0  0  0  0
  -25.0320  -34.0920   25.0270 H   0  0  0  0  0  0  0  0  0  0  0  0
  -24.1810  -36.7640   23.1170 C   0  0  0  0  0  1  0  0  0  0  0  0
  -25.4420  -36.3700   23.9020 C   0  0  0  0  0  3  0  0  0  0  0  0
  -27.6080  -37.2520   24.6590 C   0  0  0  0  0  1  0  0  0  0  0  0
  -26.4610  -37.4360   23.7730 N   0  0  0  0  0  0  0  0  0  0  0  0
  -26.0520  -38.3410   23.9850 H   0  0  0  0  0  0  0  0  0  0  0  0
  -26.4150  -31.7610   25.1790 C   0  0  1  0  0  0  0  0  0  0  0  0
  -25.3050  -31.5310   26.2300 C   0  0  0  0  0  1  0  0  0  0  0  0
  -27.0000  -30.3800   24.8070 C   0  0  0  0  0  1  0  0  0  0  0  0
  -27.5630  -32.5530   25.8480 C   0  0  0  0  0  1  0  0  0  0  0  0
  1  3  1  0
  1  2  2  0
  2  6  1  0
  3  7  2  0
  4  5  1  0
  6  4  2  0
  7  4  1  0
  9 14  1  0
 10 11  1  0
 10  9  1  0
 12 11  1  0
 12 23  1  0
 12 13  1  0
 14  8  1  0
 14 13  1  0
 15  8  2  0
 16 18  1  0
 16 19  1  0
 18  2  1  0
 18 17  1  0
 19  8  1  0
 19 17  1  0
 20 21  2  0
 21 40  1  0
 22 21  1  0
 22 25  1  0
 23 20  1  0
 23 24  1  0
 24 22  2  0
 25 26  1  0
 26 27  2  0
 28 31  1  0
 28 27  1  0
 29 28  2  0
 30 29  1  0
 30 25  2  0
 31 32  1  0
 32 33  1  0
 33 34  2  0
 35 34  1  0
 35 39  1  0
 36 35  2  0
 37 32  2  0
 37 36  1  0
 38 37  1  0
 40 41  1  0
 41 44  1  0
 41 43  1  0
 42 40  2  0
 45 46  1  0
 45 20  1  0
 47 45  1  0
 48 50  1  0
 49 48  1  0
 49 50  1  0
 50  1  1  0
 51 52  1  0
 51  3  1  0
 53 64  2  0
 54 52  1  0
 54 59  1  0
 55 63  1  0
 55 65  1  0
 56 62  1  0
 56 58  1  0
 57 63  1  0
 58 59  2  0
 58 57  1  0
 60 54  2  0
 61 60  1  0
 61 56  2  0
 62 55  1  0
 63 53  1  0
 65 67  2  0
 66 65  1  0
 68 66  1  0
 69 78  2  0
 69 74  1  0
 70 66  1  0
 70 74  1  0
 71 70  1  0
 72 73  1  0
 72 71  1  0
 73 69  1  0
 74 75  2  0
 75 76  1  0
 77 76  2  0
 78 77  1  0
 79 53  1  0
 79 80  1  0
 79 89  1  0
 80 83  1  0
 81 85  1  0
 81 80  1  0
 82 81  2  0
 85 84  1  0
 87 85  1  0
 87 88  1  0
 87 86  1  0
 89 92  1  1
 89 90  1  0
 91 89  1  0
M  ISO  4   8 100  19 100  51 101  52 101
M  END
>  <TORSDO>  (27) 
F 18

>  <SCORE>  (27) 
-16.327

>  <name>  (27) 
26

>  <ligand_id>  (27) 
26

>  <original_smiles>  (27) 
[H]c1c([H])c([H])c2c(c1[H])C([H])([H])C([H])([H])C([H])([H])C2([H])N([H])C(=O)C1([H])N(C(=O)C([H])(N([H])C(=O)C([H])(N([H])C([H])([H])[H])C([H])([H])[H])C(C([H])([H])[H])(C([H])([H])[H])C([H])([H])[H])C([H])([H])c2c([H])c(OC([H])([H])c3nc(C([H])([H])[H])nc(C4([H])C([H])([H])N(C(=O)N5C([H])([H])C([H])([H])C([H])([H])C([H])(n6nc(-c7c([H])c([H])c(Oc8c([H])c([H])c(F)c([H])c8F)c([H])c7[H])c(C(=O)N([H])[H])c6N([H])[H])C5([H])[H])C4([H])[H])c3C3([H])C([H])([H])C3([H])[H])c([H])c([H])c2C1([H])[H]

>  <smiles>  (27) 
[H]c1c([H])c([H])c2c(c1[H])C([H])([H])C([H])([H])C([H])([H])C2([H])N([H])C(=O)C1([H])N(C(=O)C([H])(N([H])C(=O)C([H])(N([H])C([H])([H])[H])C([H])([H])[H])C(C([H])([H])[H])(C([H])([H])[H])C([H])([H])[H])C([H])([H])c2c([H])c(OC([H])([H])c3nc(C([H])([H])[H])nc(C4([H])C([H])([H])N(C(=O)N5C([H])([H])C([H])([H])C([H])([H])C([H])(n6nc(-c7c([H])c([H])c(Oc8c([H])c([H])c(F)c([H])c8F)c([H])c7[H])c(C(=O)N([H])[H])c6N([H])[H])C5([H])[H])C4([H])[H])c3C3([H])C([H])([H])C3([H])[H])c([H])c([H])c2C1([H])[H]

$$$$
27:0:0
     RDKit          3D

 98108  0  0  1  0  0  0  0  0999 V2000
  -28.5890  -20.7950   21.1060 C   0  0  0  0  0  3  0  0  0  0  0  0
  -28.4010  -22.2010   21.2450 C   0  0  0  0  0  3  0  0  0  0  0  0
  -30.7680  -21.1640   20.1070 C   0  0  0  0  0  3  0  0  0  0  0  0
  -29.7650  -20.2420   20.5250 C   0  0  0  0  0  0  0  0  0  0  0  0
  -29.3990  -23.0940   20.7890 C   0  0  0  0  0  0  0  0  0  0  0  0
  -30.5620  -22.5620   20.2330 C   0  0  0  0  0  0  0  0  0  0  0  0
  -30.8660  -24.9540   20.3460 C   0  0  0  0  0  2  0  0  0  0  0  0
  -29.4470  -24.6360   20.9070 C   0  0  2  0  0  0  0  0  0  0  0  0
  -31.5170  -23.6500   19.7940 C   0  0  1  0  0  0  0  0  0  0  0  0
  -29.3390  -25.0310   22.3920 C   0  0  0  0  0  1  0  0  0  0  0  0
  -32.9220  -23.4340   20.3840 C   0  0  0  0  0  1  0  0  0  0  0  0
  -31.5920  -23.6930   18.2560 C   0  0  0  0  0  1  0  0  0  0  0  0
  -30.9000  -15.0550   21.0550 C   0  0  0  0  0  0  0  0  0  0  0  0
  -30.8170  -12.7070   20.2610 C   0  0  0  0  0  2  0  0  0  0  0  0
  -30.0360  -12.6000   18.9310 C   0  0  0  0  0  2  0  0  0  0  0  0
  -28.5060  -12.5580   19.1650 C   0  0  0  0  0  2  0  0  0  0  0  0
  -27.9760  -13.5070   20.2800 C   0  0  0  0  0  3  0  0  0  0  0  0
  -28.9090  -13.5420   21.5080 C   0  0  0  0  0  2  0  0  0  0  0  0
  -30.2650  -13.8380   21.0250 N   0  0  0  0  0  0  0  0  0  0  0  0
  -32.1290  -15.1170   21.1130 O   0  0  0  0  0  0  0  0  0  0  0  0
  -30.6580  -18.4860   18.8710 C   0  0  0  0  0  2  0  0  0  0  0  0
  -29.6720  -16.1780   19.2780 C   0  0  0  0  0  2  0  0  0  0  0  0
  -29.8310  -18.7230   20.1520 C   0  0  0  0  0  3  0  0  0  0  0  0
  -30.5150  -17.0530   18.3330 C   0  0  0  0  0  3  0  0  0  0  0  0
  -30.1990  -17.5940   21.2260 C   0  0  0  0  0  3  0  0  0  0  0  0
  -29.9320  -17.0260   16.9110 C   0  0  0  0  0  1  0  0  0  0  0  0
  -31.5010  -17.9450   21.9730 C   0  0  0  0  0  1  0  0  0  0  0  0
  -30.1660  -16.1690   20.6710 N   0  0  0  0  0  0  0  0  0  0  0  0
  -25.5180  -14.1160   20.6950 C   0  0  0  0  0  0  0  0  0  0  0  0
  -24.4200  -13.3420   20.9470 C   0  0  0  0  0  0  0  0  0  0  0  0
  -24.8950  -11.9960   21.0250 C   0  0  0  0  0  0  0  0  0  0  0  0
  -26.5900  -13.2340   20.6270 N   0  0  0  0  0  0  0  0  0  0  0  0
  -26.2130  -11.9610   20.8920 N   0  0  0  0  0  0  0  0  0  0  0  0
  -24.1670  -10.7310   21.1640 C   0  0  0  0  0  0  0  0  0  0  0  0
  -24.5180   -9.7820   22.1480 C   0  0  0  0  0  3  0  0  0  0  0  0
  -23.7900   -8.5820   22.2770 C   0  0  0  0  0  3  0  0  0  0  0  0
  -22.6970   -8.3200   21.4170 C   0  0  0  0  0  0  0  0  0  0  0  0
  -22.3650   -9.2570   20.4220 C   0  0  0  0  0  3  0  0  0  0  0  0
  -23.0950  -10.4500   20.2920 C   0  0  0  0  0  3  0  0  0  0  0  0
  -21.9480   -7.1700   21.4510 O   0  0  0  0  0  0  0  0  0  0  0  0
  -21.7910   -6.4470   22.6060 C   0  0  0  0  0  0  0  0  0  0  0  0
  -21.2210   -7.0140   23.7670 C   0  0  0  0  0  3  0  0  0  0  0  0
  -21.0160   -6.2170   24.9110 C   0  0  0  0  0  3  0  0  0  0  0  0
  -21.3700   -4.8540   24.8920 C   0  0  0  0  0  0  0  0  0  0  0  0
  -21.9320   -4.2870   23.7360 C   0  0  0  0  0  3  0  0  0  0  0  0
  -22.1410   -5.0820   22.5940 C   0  0  0  0  0  0  0  0  0  0  0  0
  -22.6660   -4.5270   21.4750 F   0  0  0  0  0  0  0  0  0  0  0  0
  -21.1630   -4.0860   25.9860 F   0  0  0  0  0  0  0  0  0  0  0  0
  -22.9950  -13.8080   21.0190 C   0  0  0  0  0  0  0  0  0  0  0  0
  -22.1770  -13.1500   21.8320 N   0  0  0  0  0  0  0  0  0  0  0  0
  -22.6110  -14.7920   20.3890 O   0  0  0  0  0  0  0  0  0  0  0  0
  -22.4980  -12.3560   22.3660 H   0  0  0  0  0  0  0  0  0  0  0  0
  -21.2180  -13.4490   21.9290 H   0  0  0  0  0  0  0  0  0  0  0  0
  -25.6950  -15.4830   20.4920 N   0  0  0  0  0  0  0  0  0  0  0  0
  -24.9230  -16.1400   20.4980 H   0  0  0  0  0  0  0  0  0  0  0  0
  -26.5860  -15.9210   20.3000 H   0  0  0  0  0  0  0  0  0  0  0  0
  -28.3550  -25.4310   20.1040 C   0  0  0  0  0  2  0  0  0  0  0  0
  -28.4830  -26.8890   20.1880 O   0  0  0  0  0  0  0  0  0  0  0  0
  -24.5940  -32.0310   23.3080 C   0  0  0  0  0  0  0  0  0  0  0  0
  -27.3200  -27.6550   20.1500 C   0  0  0  0  0  0  0  0  0  0  0  0
  -23.4210  -30.6360   21.6400 C   0  0  0  0  0  3  0  0  0  0  0  0
  -24.9060  -29.1620   20.1790 C   0  0  0  0  0  0  0  0  0  0  0  0
  -25.9430  -31.0410   21.4530 C   0  0  0  0  0  2  0  0  0  0  0  0
  -26.0590  -29.6820   20.7810 C   0  0  0  0  0  0  0  0  0  0  0  0
  -27.2690  -28.9390   20.7590 C   0  0  0  0  0  3  0  0  0  0  0  0
  -26.1480  -27.1740   19.5240 C   0  0  0  0  0  3  0  0  0  0  0  0
  -24.9500  -27.9110   19.5420 C   0  0  0  0  0  3  0  0  0  0  0  0
  -23.6440  -29.9950   20.2460 C   0  0  0  0  0  2  0  0  0  0  0  0
  -24.6710  -31.2520   22.1920 N   0  0  0  0  0  0  0  0  0  0  0  0
  -23.5060  -32.2700   23.8510 O   0  0  0  0  0  0  0  0  0  0  0  0
  -22.7920  -29.5820   22.5810 C   0  0  0  0  0  0  0  0  0  0  0  0
  -21.4720  -29.3660   22.4450 N   0  0  0  0  0  0  0  0  0  0  0  0
  -23.4880  -28.9610   23.3890 O   0  0  0  0  0  0  0  0  0  0  0  0
  -20.9690  -29.9200   21.7660 H   0  0  0  0  0  0  0  0  0  0  0  0
  -18.1290  -28.0740   22.9130 C   0  0  0  0  0  0  0  0  0  0  0  0
  -20.6780  -28.3930   23.1950 C   0  0  0  0  0  3  0  0  0  0  0  0
  -20.8200  -26.9760   22.5920 C   0  0  0  0  0  2  0  0  0  0  0  0
  -19.7290  -26.6450   21.5700 C   0  0  0  0  0  2  0  0  0  0  0  0
  -18.3420  -26.7420   22.2130 C   0  0  0  0  0  2  0  0  0  0  0  0
  -19.2270  -28.8560   23.3600 C   0  0  0  0  0  0  0  0  0  0  0  0
  -18.9740  -30.1020   23.9730 C   0  0  0  0  0  3  0  0  0  0  0  0
  -17.6570  -30.5670   24.1450 C   0  0  0  0  0  3  0  0  0  0  0  0
  -16.5730  -29.7820   23.7150 C   0  0  0  0  0  3  0  0  0  0  0  0
  -16.8110  -28.5360   23.1040 C   0  0  0  0  0  3  0  0  0  0  0  0
  -25.8630  -32.6810   23.9410 C   0  0  0  0  0  3  0  0  0  0  0  0
  -25.5410  -34.0830   24.2410 N   0  0  0  0  0  0  0  0  0  0  0  0
  -25.8870  -35.1250   23.4740 C   0  0  0  0  0  0  0  0  0  0  0  0
  -26.5830  -35.0080   22.4620 O   0  0  0  0  0  0  0  0  0  0  0  0
  -24.9250  -34.2480   25.0250 H   0  0  0  0  0  0  0  0  0  0  0  0
  -24.1550  -36.9000   23.0550 C   0  0  0  0  0  1  0  0  0  0  0  0
  -25.3830  -36.5180   23.8980 C   0  0  0  0  0  3  0  0  0  0  0  0
  -27.4940  -37.4330   24.7560 C   0  0  0  0  0  1  0  0  0  0  0  0
  -26.4120  -37.5750   23.7860 N   0  0  0  0  0  0  0  0  0  0  0  0
  -25.9960  -38.4950   23.9070 H   0  0  0  0  0  0  0  0  0  0  0  0
  -26.3630  -31.9340   25.2380 C   0  0  1  0  0  0  0  0  0  0  0  0
  -25.2470  -31.6800   26.2770 C   0  0  0  0  0  1  0  0  0  0  0  0
  -26.9870  -30.5660   24.8740 C   0  0  0  0  0  1  0  0  0  0  0  0
  -27.4770  -32.7600   25.9220 C   0  0  0  0  0  1  0  0  0  0  0  0
  1  2  1  0
  3  6  2  0
  3  4  1  0
  4  1  2  0
  5  8  1  0
  5  2  2  0
  6  5  1  0
  7  8  1  0
  8 10  1  1
  9  6  1  0
  9  7  1  0
  9 11  1  1
 12  9  1  0
 13 20  2  0
 14 19  1  0
 15 16  1  0
 15 14  1  0
 17 16  1  0
 17 32  1  0
 17 18  1  0
 19 13  1  0
 19 18  1  0
 21 23  1  0
 22 28  1  0
 23  4  1  0
 23 25  1  0
 24 26  1  0
 24 21  1  0
 24 22  1  0
 25 27  1  0
 28 13  1  0
 28 25  1  0
 29 30  2  0
 30 49  1  0
 30 31  1  0
 31 34  1  0
 32 29  1  0
 32 33  1  0
 33 31  2  0
 34 35  1  0
 35 36  2  0
 37 40  1  0
 37 36  1  0
 38 37  2  0
 39 38  1  0
 39 34  2  0
 40 41  1  0
 41 42  1  0
 42 43  2  0
 44 43  1  0
 44 48  1  0
 45 44  2  0
 46 41  2  0
 46 45  1  0
 47 46  1  0
 49 50  1  0
 50 53  1  0
 50 52  1  0
 51 49  2  0
 54 55  1  0
 54 29  1  0
 56 54  1  0
 57 58  1  0
 57  8  1  0
 59 70  2  0
 60 58  1  0
 60 65  1  0
 61 69  1  0
 61 71  1  0
 62 68  1  0
 62 64  1  0
 63 69  1  0
 64 63  1  0
 65 64  2  0
 66 67  1  0
 66 60  2  0
 67 62  2  0
 68 61  1  0
 69 59  1  0
 71 73  2  0
 72 71  1  0
 74 72  1  0
 75 84  2  0
 75 80  1  0
 76 72  1  0
 76 80  1  0
 77 76  1  0
 78 79  1  0
 78 77  1  0
 79 75  1  0
 80 81  2  0
 81 82  1  0
 83 82  2  0
 84 83  1  0
 85 59  1  0
 85 86  1  0
 85 95  1  0
 86 89  1  0
 87 91  1  0
 87 86  1  0
 88 87  2  0
 91 90  1  0
 93 91  1  0
 93 94  1  0
 93 92  1  0
 95 98  1  1
 95 96  1  0
 97 95  1  0
M  ISO  4  13 100  28 100  57 101  58 101
M  END
>  <TORSDO>  (28) 
F 17

>  <SCORE>  (28) 
-13.134

>  <name>  (28) 
27

>  <ligand_id>  (28) 
27

>  <original_smiles>  (28) 
[H]c1c([H])c([H])c2c(c1[H])C([H])([H])C([H])([H])C([H])([H])C2([H])N([H])C(=O)C1([H])N(C(=O)C([H])(N([H])C(=O)C([H])(N([H])C([H])([H])[H])C([H])([H])[H])C(C([H])([H])[H])(C([H])([H])[H])C([H])([H])[H])C([H])([H])c2c([H])c(OC([H])([H])C3(C([H])([H])[H])c4c([H])c([H])c(C5([H])C([H])([H])C([H])(C([H])([H])[H])C([H])([H])N(C(=O)N6C([H])([H])C([H])([H])C([H])([H])C([H])(n7nc(-c8c([H])c([H])c(Oc9c([H])c([H])c(F)c([H])c9F)c([H])c8[H])c(C(=O)N([H])[H])c7N([H])[H])C6([H])[H])C5([H])C([H])([H])[H])c([H])c4C(C([H])([H])[H])(C([H])([H])[H])C3([H])[H])c([H])c([H])c2C1([H])[H]

>  <smiles>  (28) 
[H]c1c([H])c([H])c2c(c1[H])C([H])([H])C([H])([H])C([H])([H])C2([H])N([H])C(=O)C1([H])N(C(=O)C([H])(N([H])C(=O)C([H])(N([H])C([H])([H])[H])C([H])([H])[H])C(C([H])([H])[H])(C([H])([H])[H])C([H])([H])[H])C([H])([H])c2c([H])c(OC([H])([H])C3(C([H])([H])[H])c4c([H])c([H])c(C5([H])C([H])([H])C([H])(C([H])([H])[H])C([H])([H])N(C(=O)N6C([H])([H])C([H])([H])C([H])([H])C([H])(n7nc(-c8c([H])c([H])c(Oc9c([H])c([H])c(F)c([H])c9F)c([H])c8[H])c(C(=O)N([H])[H])c7N([H])[H])C6([H])[H])C5([H])C([H])([H])[H])c([H])c4C(C([H])([H])[H])(C([H])([H])[H])C3([H])[H])c([H])c([H])c2C1([H])[H]

$$$$
28:0:0
     RDKit          3D

 91100  0  0  1  0  0  0  0  0999 V2000
  -28.4710  -20.2540   19.4350 C   0  0  0  0  0  3  0  0  0  0  0  0
  -29.4180  -19.7110   20.3810 C   0  0  0  0  0  0  0  0  0  0  0  0
  -28.0330  -21.6680   19.3470 C   0  0  0  0  0  0  0  0  0  0  0  0
  -29.8240  -20.8780   21.1760 C   0  0  0  0  0  0  0  0  0  0  0  0
  -28.4890  -22.7710   20.1960 C   0  0  0  0  0  0  0  0  0  0  0  0
  -30.8960  -20.6610   22.2270 C   0  0  0  0  0  2  0  0  0  0  0  0
  -31.8680  -19.5310   21.8570 C   0  0  0  0  0  2  0  0  0  0  0  0
  -31.1490  -18.1860   21.6680 C   0  0  0  0  0  2  0  0  0  0  0  0
  -30.1820  -18.1380   20.4640 C   0  0  0  0  0  3  0  0  0  0  0  0
  -26.9910  -21.9740   18.2820 C   0  0  0  0  0  1  0  0  0  0  0  0
  -29.3880  -22.2370   21.1130 N   0  0  0  0  0  0  0  0  0  0  0  0
  -30.4630  -15.2670   20.2520 C   0  0  0  0  0  0  0  0  0  0  0  0
  -30.4030  -12.8430   19.3610 C   0  0  0  0  0  2  0  0  0  0  0  0
  -29.4670  -12.6500   18.1420 C   0  0  0  0  0  2  0  0  0  0  0  0
  -28.0250  -12.3790   18.6030 C   0  0  0  0  0  2  0  0  0  0  0  0
  -27.5870  -13.3380   19.7380 C   0  0  0  0  0  3  0  0  0  0  0  0
  -28.6500  -13.4850   20.8480 C   0  0  0  0  0  2  0  0  0  0  0  0
  -29.8730  -13.9790   20.1960 N   0  0  0  0  0  0  0  0  0  0  0  0
  -31.6790  -15.2540   20.0200 O   0  0  0  0  0  0  0  0  0  0  0  0
  -29.7360  -16.5490   20.3720 N   0  0  0  0  0  0  0  0  0  0  0  0
  -28.7400  -16.4110   20.4630 H   0  0  0  0  0  0  0  0  0  0  0  0
  -25.2230  -13.8760   20.5300 C   0  0  0  0  0  0  0  0  0  0  0  0
  -24.1710  -13.0880   20.9050 C   0  0  0  0  0  0  0  0  0  0  0  0
  -24.6470  -11.7420   20.8570 C   0  0  0  0  0  0  0  0  0  0  0  0
  -26.2680  -13.0100   20.2650 N   0  0  0  0  0  0  0  0  0  0  0  0
  -25.9360  -11.7200   20.5310 N   0  0  0  0  0  0  0  0  0  0  0  0
  -23.9310  -10.4730   21.0440 C   0  0  0  0  0  0  0  0  0  0  0  0
  -24.3750   -9.5030   21.9690 C   0  0  0  0  0  3  0  0  0  0  0  0
  -23.6550   -8.3000   22.1460 C   0  0  0  0  0  3  0  0  0  0  0  0
  -22.4790   -8.0600   21.3980 C   0  0  0  0  0  0  0  0  0  0  0  0
  -22.0540   -9.0190   20.4620 C   0  0  0  0  0  3  0  0  0  0  0  0
  -22.7740  -10.2120   20.2820 C   0  0  0  0  0  3  0  0  0  0  0  0
  -21.7300   -6.9100   21.4840 O   0  0  0  0  0  0  0  0  0  0  0  0
  -21.6830   -6.1670   22.6370 C   0  0  0  0  0  0  0  0  0  0  0  0
  -21.2350   -6.7170   23.8580 C   0  0  0  0  0  3  0  0  0  0  0  0
  -21.1350   -5.9010   25.0020 C   0  0  0  0  0  3  0  0  0  0  0  0
  -21.4720   -4.5370   24.9270 C   0  0  0  0  0  0  0  0  0  0  0  0
  -21.9130   -3.9860   23.7100 C   0  0  0  0  0  3  0  0  0  0  0  0
  -22.0140   -4.7990   22.5680 C   0  0  0  0  0  0  0  0  0  0  0  0
  -22.4180   -4.2590   21.3920 F   0  0  0  0  0  0  0  0  0  0  0  0
  -21.3690   -3.7510   26.0230 F   0  0  0  0  0  0  0  0  0  0  0  0
  -22.7740  -13.5530   21.1930 C   0  0  0  0  0  0  0  0  0  0  0  0
  -22.0640  -12.8520   22.0690 N   0  0  0  0  0  0  0  0  0  0  0  0
  -22.3230  -14.5760   20.6780 O   0  0  0  0  0  0  0  0  0  0  0  0
  -22.4430  -12.0260   22.5060 H   0  0  0  0  0  0  0  0  0  0  0  0
  -21.1270  -13.1460   22.3060 H   0  0  0  0  0  0  0  0  0  0  0  0
  -25.3720  -15.2490   20.3610 N   0  0  0  0  0  0  0  0  0  0  0  0
  -24.5990  -15.8940   20.4810 H   0  0  0  0  0  0  0  0  0  0  0  0
  -26.2060  -15.6960   20.0030 H   0  0  0  0  0  0  0  0  0  0  0  0
  -27.7280  -24.3440   20.2720 C   0  0  0  0  0  2  0  0  0  0  0  0
  -28.1610  -25.9170   20.2870 O   0  0  0  0  0  0  0  0  0  0  0  0
  -24.6480  -31.8930   23.2570 C   0  0  0  0  0  0  0  0  0  0  0  0
  -27.1700  -27.0270   20.2340 C   0  0  0  0  0  0  0  0  0  0  0  0
  -23.4450  -30.5040   21.6220 C   0  0  0  0  0  3  0  0  0  0  0  0
  -24.8820  -28.9050   20.1960 C   0  0  0  0  0  0  0  0  0  0  0  0
  -26.0130  -30.7080   21.4740 C   0  0  0  0  0  2  0  0  0  0  0  0
  -26.0750  -29.3030   20.8140 C   0  0  0  0  0  0  0  0  0  0  0  0
  -27.2160  -28.3850   20.8110 C   0  0  0  0  0  3  0  0  0  0  0  0
  -25.9500  -26.7830   19.5590 C   0  0  0  0  0  3  0  0  0  0  0  0
  -24.8430  -27.6640   19.5490 C   0  0  0  0  0  3  0  0  0  0  0  0
  -23.6690  -29.8280   20.2440 C   0  0  0  0  0  2  0  0  0  0  0  0
  -24.7230  -31.0600   22.1710 N   0  0  0  0  0  0  0  0  0  0  0  0
  -23.5600  -32.1880   23.7800 O   0  0  0  0  0  0  0  0  0  0  0  0
  -22.7490  -29.5060   22.5840 C   0  0  0  0  0  0  0  0  0  0  0  0
  -21.4190  -29.3430   22.4570 N   0  0  0  0  0  0  0  0  0  0  0  0
  -23.4120  -28.8810   23.4170 O   0  0  0  0  0  0  0  0  0  0  0  0
  -20.9380  -29.8970   21.7630 H   0  0  0  0  0  0  0  0  0  0  0  0
  -18.0330  -28.1380   22.9550 C   0  0  0  0  0  0  0  0  0  0  0  0
  -20.5920  -28.4100   23.2300 C   0  0  0  0  0  3  0  0  0  0  0  0
  -20.6970  -26.9730   22.6650 C   0  0  0  0  0  2  0  0  0  0  0  0
  -19.6000  -26.6430   21.6490 C   0  0  0  0  0  2  0  0  0  0  0  0
  -18.2150  -26.7860   22.2850 C   0  0  0  0  0  2  0  0  0  0  0  0
  -19.1480  -28.9060   23.3840 C   0  0  0  0  0  0  0  0  0  0  0  0
  -18.9220  -30.1690   23.9750 C   0  0  0  0  0  3  0  0  0  0  0  0
  -17.6150  -30.6640   24.1370 C   0  0  0  0  0  3  0  0  0  0  0  0
  -16.5140  -29.8940   23.7240 C   0  0  0  0  0  3  0  0  0  0  0  0
  -16.7240  -28.6320   23.1390 C   0  0  0  0  0  3  0  0  0  0  0  0
  -25.9240  -32.5270   23.8870 C   0  0  0  0  0  3  0  0  0  0  0  0
  -25.6120  -33.9280   24.2240 N   0  0  0  0  0  0  0  0  0  0  0  0
  -25.9270  -34.9880   23.4700 C   0  0  0  0  0  0  0  0  0  0  0  0
  -26.5770  -34.8910   22.4260 O   0  0  0  0  0  0  0  0  0  0  0  0
  -25.0310  -34.0760   25.0360 H   0  0  0  0  0  0  0  0  0  0  0  0
  -24.1830  -36.7790   23.1800 C   0  0  0  0  0  1  0  0  0  0  0  0
  -25.4520  -36.3750   23.9490 C   0  0  0  0  0  3  0  0  0  0  0  0
  -27.6060  -37.2650   24.7160 C   0  0  0  0  0  1  0  0  0  0  0  0
  -26.4760  -37.4320   23.8070 N   0  0  0  0  0  0  0  0  0  0  0  0
  -26.0710  -38.3500   23.9730 H   0  0  0  0  0  0  0  0  0  0  0  0
  -26.4280  -31.7600   25.1720 C   0  0  1  0  0  0  0  0  0  0  0  0
  -25.3280  -31.5330   26.2350 C   0  0  0  0  0  1  0  0  0  0  0  0
  -27.0080  -30.3780   24.7980 C   0  0  0  0  0  1  0  0  0  0  0  0
  -27.5800  -32.5530   25.8360 C   0  0  0  0  0  1  0  0  0  0  0  0
  1  2  1  0
  2  9  1  0
  2  4  2  0
  3  1  2  0
  3  5  1  0
  4  6  1  0
  5 50  1  0
  5 11  2  0
  7  6  1  0
  8  7  1  0
  9 20  1  0
  9  8  1  0
 10  3  1  0
 11  4  1  0
 12 20  1  0
 13 18  1  0
 14 15  1  0
 14 13  1  0
 16 15  1  0
 16 25  1  0
 16 17  1  0
 18 12  1  0
 18 17  1  0
 19 12  2  0
 20 21  1  0
 22 23  2  0
 23 42  1  0
 24 23  1  0
 24 27  1  0
 25 22  1  0
 25 26  1  0
 26 24  2  0
 27 28  1  0
 28 29  2  0
 30 33  1  0
 30 29  1  0
 31 30  2  0
 32 31  1  0
 32 27  2  0
 33 34  1  0
 34 35  1  0
 35 36  2  0
 37 36  1  0
 37 41  1  0
 38 37  2  0
 39 34  2  0
 39 38  1  0
 40 39  1  0
 42 43  1  0
 43 46  1  0
 43 45  1  0
 44 42  2  0
 47 48  1  0
 47 22  1  0
 49 47  1  0
 50 51  1  0
 52 63  2  0
 53 51  1  0
 53 58  1  0
 54 62  1  0
 54 64  1  0
 55 61  1  0
 55 57  1  0
 56 62  1  0
 57 56  1  0
 58 57  2  0
 59 53  2  0
 60 59  1  0
 60 55  2  0
 61 54  1  0
 62 52  1  0
 64 66  2  0
 65 64  1  0
 67 65  1  0
 68 77  2  0
 68 73  1  0
 69 65  1  0
 69 73  1  0
 70 69  1  0
 71 72  1  0
 71 70  1  0
 72 68  1  0
 73 74  2  0
 74 75  1  0
 76 75  2  0
 77 76  1  0
 78 52  1  0
 78 79  1  0
 78 88  1  0
 79 82  1  0
 80 84  1  0
 80 79  1  0
 81 80  2  0
 84 83  1  0
 86 84  1  0
 86 87  1  0
 86 85  1  0
 88 91  1  1
 88 89  1  0
 90 88  1  0
M  ISO  4  12 100  20 100  50 101  51 101
M  END
>  <TORSDO>  (29) 
F 17

>  <SCORE>  (29) 
-16.212

>  <name>  (29) 
28

>  <ligand_id>  (29) 
28

>  <original_smiles>  (29) 
[H]c1c([H])c([H])c2c(c1[H])C([H])([H])C([H])([H])C([H])([H])C2([H])N([H])C(=O)C1([H])N(C(=O)C([H])(N([H])C(=O)C([H])(N([H])C([H])([H])[H])C([H])([H])[H])C(C([H])([H])[H])(C([H])([H])[H])C([H])([H])[H])C([H])([H])c2c([H])c(OC([H])([H])c3nc4c(c([H])c3C([H])([H])[H])C([H])(N([H])C(=O)N3C([H])([H])C([H])([H])C([H])([H])C([H])(n5nc(-c6c([H])c([H])c(Oc7c([H])c([H])c(F)c([H])c7F)c([H])c6[H])c(C(=O)N([H])[H])c5N([H])[H])C3([H])[H])C([H])([H])C([H])([H])C4([H])[H])c([H])c([H])c2C1([H])[H]

>  <smiles>  (29) 
[H]c1c([H])c([H])c2c(c1[H])C([H])([H])C([H])([H])C([H])([H])C2([H])N([H])C(=O)C1([H])N(C(=O)C([H])(N([H])C(=O)C([H])(N([H])C([H])([H])[H])C([H])([H])[H])C(C([H])([H])[H])(C([H])([H])[H])C([H])([H])[H])C([H])([H])c2c([H])c(OC([H])([H])c3nc4c(c([H])c3C([H])([H])[H])C([H])(N([H])C(=O)N3C([H])([H])C([H])([H])C([H])([H])C([H])(n5nc(-c6c([H])c([H])c(Oc7c([H])c([H])c(F)c([H])c7F)c([H])c6[H])c(C(=O)N([H])[H])c5N([H])[H])C3([H])[H])C([H])([H])C([H])([H])C4([H])[H])c([H])c([H])c2C1([H])[H]

$$$$
29:0:0
     RDKit          3D

 91100  0  0  1  0  0  0  0  0999 V2000
  -30.0330  -22.0200   21.5310 C   0  0  0  0  0  0  0  0  0  0  0  0
  -29.4650  -21.1850   20.5780 C   0  0  0  0  0  0  0  0  0  0  0  0
  -28.7440  -23.4300   20.3830 C   0  0  0  0  0  0  0  0  0  0  0  0
  -31.0370  -21.6600   22.5820 C   0  0  0  0  0  1  0  0  0  0  0  0
  -27.7920  -21.7970   18.7230 C   0  0  0  0  0  1  0  0  0  0  0  0
  -29.5940  -23.3640   21.4120 N   0  0  0  0  0  0  0  0  0  0  0  0
  -28.6360  -22.1310   19.8550 N   0  0  0  0  0  0  0  0  0  0  0  0
  -30.4410  -18.7280   21.1440 C   0  0  0  0  0  2  0  0  0  0  0  0
  -28.8480  -18.5950   19.8620 C   0  0  0  0  0  2  0  0  0  0  0  0
  -30.0600  -17.5840   20.1170 C   0  0  0  0  0  3  0  0  0  0  0  0
  -29.7520  -19.7150   20.2530 N   0  0  0  0  0  0  0  0  0  0  0  0
  -30.5510  -14.9210   20.3290 C   0  0  0  0  0  0  0  0  0  0  0  0
  -30.3760  -12.5950   19.3650 C   0  0  0  0  0  2  0  0  0  0  0  0
  -29.4300  -12.6040   18.1420 C   0  0  0  0  0  2  0  0  0  0  0  0
  -27.9680  -12.4060   18.5860 C   0  0  0  0  0  2  0  0  0  0  0  0
  -27.5880  -13.3110   19.7880 C   0  0  0  0  0  3  0  0  0  0  0  0
  -28.6570  -13.2850   20.9030 C   0  0  0  0  0  2  0  0  0  0  0  0
  -29.9350  -13.6740   20.2920 N   0  0  0  0  0  0  0  0  0  0  0  0
  -31.7300  -14.9910   19.9690 O   0  0  0  0  0  0  0  0  0  0  0  0
  -29.7990  -16.0960   20.5450 N   0  0  0  0  0  0  0  0  0  0  0  0
  -28.8580  -15.9190   20.8640 H   0  0  0  0  0  0  0  0  0  0  0  0
  -25.2130  -13.8920   20.5520 C   0  0  0  0  0  0  0  0  0  0  0  0
  -24.1510  -13.1160   20.9290 C   0  0  0  0  0  0  0  0  0  0  0  0
  -24.6120  -11.7650   20.8830 C   0  0  0  0  0  0  0  0  0  0  0  0
  -26.2520  -13.0130   20.2940 N   0  0  0  0  0  0  0  0  0  0  0  0
  -25.8990  -11.7270   20.5580 N   0  0  0  0  0  0  0  0  0  0  0  0
  -23.8830  -10.5030   21.0730 C   0  0  0  0  0  0  0  0  0  0  0  0
  -24.3270   -9.5230   21.9880 C   0  0  0  0  0  3  0  0  0  0  0  0
  -23.5990   -8.3270   22.1680 C   0  0  0  0  0  3  0  0  0  0  0  0
  -22.4120   -8.1020   21.4300 C   0  0  0  0  0  0  0  0  0  0  0  0
  -21.9880   -9.0690   20.5030 C   0  0  0  0  0  3  0  0  0  0  0  0
  -22.7170  -10.2560   20.3220 C   0  0  0  0  0  3  0  0  0  0  0  0
  -21.6550   -6.9590   21.5200 O   0  0  0  0  0  0  0  0  0  0  0  0
  -21.6260   -6.2010   22.6630 C   0  0  0  0  0  0  0  0  0  0  0  0
  -21.2270   -6.7420   23.9050 C   0  0  0  0  0  3  0  0  0  0  0  0
  -21.1460   -5.9110   25.0400 C   0  0  0  0  0  3  0  0  0  0  0  0
  -21.4520   -4.5410   24.9350 C   0  0  0  0  0  0  0  0  0  0  0  0
  -21.8430   -4.0000   23.6970 C   0  0  0  0  0  3  0  0  0  0  0  0
  -21.9260   -4.8280   22.5640 C   0  0  0  0  0  0  0  0  0  0  0  0
  -22.2820   -4.2980   21.3700 F   0  0  0  0  0  0  0  0  0  0  0  0
  -21.3670   -3.7400   26.0230 F   0  0  0  0  0  0  0  0  0  0  0  0
  -22.7580  -13.5950   21.2180 C   0  0  0  0  0  0  0  0  0  0  0  0
  -22.0360  -12.8950   22.0860 N   0  0  0  0  0  0  0  0  0  0  0  0
  -22.3180  -14.6250   20.7080 O   0  0  0  0  0  0  0  0  0  0  0  0
  -22.4040  -12.0620   22.5210 H   0  0  0  0  0  0  0  0  0  0  0  0
  -21.1010  -13.1970   22.3200 H   0  0  0  0  0  0  0  0  0  0  0  0
  -25.3760  -15.2630   20.3810 N   0  0  0  0  0  0  0  0  0  0  0  0
  -24.6080  -15.9140   20.5000 H   0  0  0  0  0  0  0  0  0  0  0  0
  -26.2120  -15.6990   20.0140 H   0  0  0  0  0  0  0  0  0  0  0  0
  -27.8860  -24.7280   19.9070 C   0  0  0  0  0  2  0  0  0  0  0  0
  -28.2160  -26.1900   20.2940 O   0  0  0  0  0  0  0  0  0  0  0  0
  -24.6150  -31.8920   23.2270 C   0  0  0  0  0  0  0  0  0  0  0  0
  -27.1820  -27.1910   20.1910 C   0  0  0  0  0  0  0  0  0  0  0  0
  -23.4120  -30.5020   21.5870 C   0  0  0  0  0  3  0  0  0  0  0  0
  -24.8580  -28.9350   20.1580 C   0  0  0  0  0  0  0  0  0  0  0  0
  -25.9670  -30.7640   21.4270 C   0  0  0  0  0  2  0  0  0  0  0  0
  -26.0370  -29.3750   20.7730 C   0  0  0  0  0  0  0  0  0  0  0  0
  -27.1990  -28.5170   20.7800 C   0  0  0  0  0  3  0  0  0  0  0  0
  -25.9820  -26.8650   19.5150 C   0  0  0  0  0  3  0  0  0  0  0  0
  -24.8430  -27.6920   19.5140 C   0  0  0  0  0  3  0  0  0  0  0  0
  -23.6310  -29.8290   20.2070 C   0  0  0  0  0  2  0  0  0  0  0  0
  -24.6840  -31.0730   22.1350 N   0  0  0  0  0  0  0  0  0  0  0  0
  -23.5310  -32.1790   23.7540 O   0  0  0  0  0  0  0  0  0  0  0  0
  -22.7310  -29.4930   22.5460 C   0  0  0  0  0  0  0  0  0  0  0  0
  -21.4010  -29.3320   22.4240 N   0  0  0  0  0  0  0  0  0  0  0  0
  -23.4020  -28.8580   23.3640 O   0  0  0  0  0  0  0  0  0  0  0  0
  -20.9180  -29.8960   21.7390 H   0  0  0  0  0  0  0  0  0  0  0  0
  -18.0110  -28.1660   22.9410 C   0  0  0  0  0  0  0  0  0  0  0  0
  -20.5740  -28.4010   23.1960 C   0  0  0  0  0  3  0  0  0  0  0  0
  -20.6580  -26.9700   22.6160 C   0  0  0  0  0  2  0  0  0  0  0  0
  -19.5470  -26.6610   21.6070 C   0  0  0  0  0  2  0  0  0  0  0  0
  -18.1700  -26.8180   22.2580 C   0  0  0  0  0  2  0  0  0  0  0  0
  -19.1400  -28.9160   23.3670 C   0  0  0  0  0  0  0  0  0  0  0  0
  -18.9350  -30.1780   23.9670 C   0  0  0  0  0  3  0  0  0  0  0  0
  -17.6350  -30.6890   24.1450 C   0  0  0  0  0  3  0  0  0  0  0  0
  -16.5220  -29.9360   23.7340 C   0  0  0  0  0  3  0  0  0  0  0  0
  -16.7110  -28.6760   23.1380 C   0  0  0  0  0  3  0  0  0  0  0  0
  -25.8960  -32.5220   23.8550 C   0  0  0  0  0  3  0  0  0  0  0  0
  -25.5840  -33.9190   24.1950 N   0  0  0  0  0  0  0  0  0  0  0  0
  -25.8940  -34.9780   23.4370 C   0  0  0  0  0  0  0  0  0  0  0  0
  -26.5390  -34.8840   22.3890 O   0  0  0  0  0  0  0  0  0  0  0  0
  -25.0080  -34.0670   25.0110 H   0  0  0  0  0  0  0  0  0  0  0  0
  -24.1460  -36.7650   23.1430 C   0  0  0  0  0  1  0  0  0  0  0  0
  -25.4140  -36.3640   23.9140 C   0  0  0  0  0  3  0  0  0  0  0  0
  -27.5680  -37.2600   24.6800 C   0  0  0  0  0  1  0  0  0  0  0  0
  -26.4360  -37.4230   23.7720 N   0  0  0  0  0  0  0  0  0  0  0  0
  -26.0290  -38.3410   23.9340 H   0  0  0  0  0  0  0  0  0  0  0  0
  -26.4090  -31.7450   25.1290 C   0  0  1  0  0  0  0  0  0  0  0  0
  -25.3140  -31.5070   26.1950 C   0  0  0  0  0  1  0  0  0  0  0  0
  -26.9890  -30.3670   24.7390 C   0  0  0  0  0  1  0  0  0  0  0  0
  -27.5600  -32.5360   25.7950 C   0  0  0  0  0  1  0  0  0  0  0  0
  1  4  1  0
  2  1  2  0
  3  6  2  0
  5  7  1  0
  6  1  1  0
  7  3  1  0
  7  2  1  0
  9 10  1  0
  9 11  1  0
 10 20  1  0
 10  8  1  0
 11  2  1  0
 11  8  1  0
 12 20  1  0
 13 18  1  0
 14 15  1  0
 14 13  1  0
 16 15  1  0
 16 25  1  0
 16 17  1  0
 18 12  1  0
 18 17  1  0
 19 12  2  0
 20 21  1  0
 22 23  2  0
 23 42  1  0
 24 23  1  0
 24 27  1  0
 25 22  1  0
 25 26  1  0
 26 24  2  0
 27 28  1  0
 28 29  2  0
 30 33  1  0
 30 29  1  0
 31 30  2  0
 32 31  1  0
 32 27  2  0
 33 34  1  0
 34 35  1  0
 35 36  2  0
 37 36  1  0
 37 41  1  0
 38 37  2  0
 39 34  2  0
 39 38  1  0
 40 39  1  0
 42 43  1  0
 43 46  1  0
 43 45  1  0
 44 42  2  0
 47 48  1  0
 47 22  1  0
 49 47  1  0
 50 51  1  0
 50  3  1  0
 52 63  2  0
 53 51  1  0
 53 58  1  0
 54 62  1  0
 54 64  1  0
 55 61  1  0
 55 57  1  0
 56 62  1  0
 57 58  2  0
 57 56  1  0
 59 53  2  0
 60 59  1  0
 60 55  2  0
 61 54  1  0
 62 52  1  0
 64 66  2  0
 65 64  1  0
 67 65  1  0
 68 77  2  0
 68 73  1  0
 69 65  1  0
 69 73  1  0
 70 69  1  0
 71 72  1  0
 71 70  1  0
 72 68  1  0
 73 74  2  0
 74 75  1  0
 76 75  2  0
 77 76  1  0
 78 52  1  0
 78 79  1  0
 78 88  1  0
 79 82  1  0
 80 84  1  0
 80 79  1  0
 81 80  2  0
 84 83  1  0
 86 84  1  0
 86 87  1  0
 86 85  1  0
 88 91  1  1
 88 89  1  0
 90 88  1  0
M  ISO  4  12 100  20 100  50 101  51 101
M  END
>  <TORSDO>  (30) 
F 18

>  <SCORE>  (30) 
-14.862

>  <name>  (30) 
29

>  <ligand_id>  (30) 
29

>  <original_smiles>  (30) 
[H]c1c([H])c([H])c2c(c1[H])C([H])([H])C([H])([H])C([H])([H])C2([H])N([H])C(=O)C1([H])N(C(=O)C([H])(N([H])C(=O)C([H])(N([H])C([H])([H])[H])C([H])([H])[H])C(C([H])([H])[H])(C([H])([H])[H])C([H])([H])[H])C([H])([H])c2c([H])c(OC([H])([H])c3nc(C([H])([H])[H])c(N4C([H])([H])C([H])(N([H])C(=O)N5C([H])([H])C([H])([H])C([H])([H])C([H])(n6nc(-c7c([H])c([H])c(Oc8c([H])c([H])c(F)c([H])c8F)c([H])c7[H])c(C(=O)N([H])[H])c6N([H])[H])C5([H])[H])C4([H])[H])n3C([H])([H])[H])c([H])c([H])c2C1([H])[H]

>  <smiles>  (30) 
[H]c1c([H])c([H])c2c(c1[H])C([H])([H])C([H])([H])C([H])([H])C2([H])N([H])C(=O)C1([H])N(C(=O)C([H])(N([H])C(=O)C([H])(N([H])C([H])([H])[H])C([H])([H])[H])C(C([H])([H])[H])(C([H])([H])[H])C([H])([H])[H])C([H])([H])c2c([H])c(OC([H])([H])c3nc(C([H])([H])[H])c(N4C([H])([H])C([H])(N([H])C(=O)N5C([H])([H])C([H])([H])C([H])([H])C([H])(n6nc(-c7c([H])c([H])c(Oc8c([H])c([H])c(F)c([H])c8F)c([H])c7[H])c(C(=O)N([H])[H])c6N([H])[H])C5([H])[H])C4([H])[H])n3C([H])([H])[H])c([H])c([H])c2C1([H])[H]

$$$$
30:0:0
     RDKit          3D

 96104  0  0  1  0  0  0  0  0999 V2000
  -30.1050  -19.0370   20.2410 C   0  0  0  0  0  3  0  0  0  0  0  0
  -29.7390  -20.3620   20.8610 C   0  0  0  0  0  3  0  0  0  0  0  0
  -31.4820  -19.0540   19.9020 C   0  0  0  0  0  0  0  0  0  0  0  0
  -30.5940  -20.6610   21.9500 C   0  0  0  0  0  0  0  0  0  0  0  0
  -32.3550  -19.6460   20.8530 C   0  0  0  0  0  0  0  0  0  0  0  0
  -30.1820  -21.4470   23.1760 C   0  0  0  0  0  1  0  0  0  0  0  0
  -33.8680  -19.6400   20.7420 C   0  0  0  0  0  1  0  0  0  0  0  0
  -31.8850  -20.2760   21.9500 N   0  0  0  0  0  0  0  0  0  0  0  0
  -28.8620  -21.6320   20.2330 C   0  0  0  0  0  2  0  0  0  0  0  0
  -28.9990  -23.2950   20.6220 C   0  0  0  0  0  3  0  0  0  0  0  0
  -28.0020  -24.5930   20.1520 C   0  0  0  0  0  3  0  0  0  0  0  0
  -28.2370  -26.1380   20.3290 O   0  0  0  0  0  0  0  0  0  0  0  0
  -24.6000  -31.8780   23.2210 C   0  0  0  0  0  0  0  0  0  0  0  0
  -27.1830  -27.1300   20.2290 C   0  0  0  0  0  0  0  0  0  0  0  0
  -23.4060  -30.4830   21.5820 C   0  0  0  0  0  3  0  0  0  0  0  0
  -24.8590  -28.8960   20.1690 C   0  0  0  0  0  0  0  0  0  0  0  0
  -25.9630  -30.7370   21.4240 C   0  0  0  0  0  2  0  0  0  0  0  0
  -26.0400  -29.3400   20.7780 C   0  0  0  0  0  0  0  0  0  0  0  0
  -27.2000  -28.4730   20.7880 C   0  0  0  0  0  3  0  0  0  0  0  0
  -25.9720  -26.7860   19.5820 C   0  0  0  0  0  3  0  0  0  0  0  0
  -24.8370  -27.6330   19.5630 C   0  0  0  0  0  3  0  0  0  0  0  0
  -23.6290  -29.7960   20.2090 C   0  0  0  0  0  2  0  0  0  0  0  0
  -24.6780  -31.0520   22.1330 N   0  0  0  0  0  0  0  0  0  0  0  0
  -23.5110  -32.1650   23.7430 O   0  0  0  0  0  0  0  0  0  0  0  0
  -22.7200  -29.4770   22.5440 C   0  0  0  0  0  0  0  0  0  0  0  0
  -21.3890  -29.3190   22.4260 N   0  0  0  0  0  0  0  0  0  0  0  0
  -23.3910  -28.8420   23.3600 O   0  0  0  0  0  0  0  0  0  0  0  0
  -20.8980  -29.8760   21.7420 H   0  0  0  0  0  0  0  0  0  0  0  0
  -18.0000  -28.1580   22.9290 C   0  0  0  0  0  0  0  0  0  0  0  0
  -20.5620  -28.3860   23.1960 C   0  0  0  0  0  3  0  0  0  0  0  0
  -20.6500  -26.9560   22.6130 C   0  0  0  0  0  2  0  0  0  0  0  0
  -19.5420  -26.6510   21.6040 C   0  0  0  0  0  2  0  0  0  0  0  0
  -18.1610  -26.8110   22.2470 C   0  0  0  0  0  2  0  0  0  0  0  0
  -19.1270  -28.9070   23.3600 C   0  0  0  0  0  0  0  0  0  0  0  0
  -18.9220  -30.1720   23.9520 C   0  0  0  0  0  3  0  0  0  0  0  0
  -17.6210  -30.6800   24.1350 C   0  0  0  0  0  3  0  0  0  0  0  0
  -16.5090  -29.9270   23.7250 C   0  0  0  0  0  3  0  0  0  0  0  0
  -16.6980  -28.6720   23.1200 C   0  0  0  0  0  3  0  0  0  0  0  0
  -25.8750  -32.5150   23.8540 C   0  0  0  0  0  3  0  0  0  0  0  0
  -25.5620  -33.9150   24.1790 N   0  0  0  0  0  0  0  0  0  0  0  0
  -25.9020  -34.9680   23.4260 C   0  0  0  0  0  0  0  0  0  0  0  0
  -26.5740  -34.8630   22.3950 O   0  0  0  0  0  0  0  0  0  0  0  0
  -24.9680  -34.0720   24.9800 H   0  0  0  0  0  0  0  0  0  0  0  0
  -24.1810  -36.7760   23.0880 C   0  0  0  0  0  1  0  0  0  0  0  0
  -25.4240  -36.3580   23.8890 C   0  0  0  0  0  3  0  0  0  0  0  0
  -27.5620  -37.2440   24.7090 C   0  0  0  0  0  1  0  0  0  0  0  0
  -26.4570  -37.4100   23.7710 N   0  0  0  0  0  0  0  0  0  0  0  0
  -26.0490  -38.3280   23.9230 H   0  0  0  0  0  0  0  0  0  0  0  0
  -26.3720  -31.7510   25.1430 C   0  0  1  0  0  0  0  0  0  0  0  0
  -25.2650  -31.5420   26.2020 C   0  0  0  0  0  1  0  0  0  0  0  0
  -26.9560  -30.3670   24.7770 C   0  0  0  0  0  1  0  0  0  0  0  0
  -27.5170  -32.5470   25.8140 C   0  0  0  0  0  1  0  0  0  0  0  0
  -29.8920  -17.5970   21.0230 C   0  0  0  0  0  2  0  0  0  0  0  0
  -30.5560  -14.9490   20.4130 C   0  0  0  0  0  0  0  0  0  0  0  0
  -30.4290  -12.6130   19.4250 C   0  0  0  0  0  2  0  0  0  0  0  0
  -29.5070  -12.5930   18.1840 C   0  0  0  0  0  2  0  0  0  0  0  0
  -28.0300  -12.4160   18.5880 C   0  0  0  0  0  2  0  0  0  0  0  0
  -27.6230  -13.3170   19.7840 C   0  0  0  0  0  3  0  0  0  0  0  0
  -28.6730  -13.2900   20.9170 C   0  0  0  0  0  2  0  0  0  0  0  0
  -29.9510  -13.6990   20.3180 N   0  0  0  0  0  0  0  0  0  0  0  0
  -31.7700  -15.0410   20.1980 O   0  0  0  0  0  0  0  0  0  0  0  0
  -29.7610  -16.1140   20.4870 N   0  0  0  0  0  0  0  0  0  0  0  0
  -28.7880  -15.8570   20.4330 H   0  0  0  0  0  0  0  0  0  0  0  0
  -25.2270  -13.9020   20.4780 C   0  0  0  0  0  0  0  0  0  0  0  0
  -24.1560  -13.1320   20.8380 C   0  0  0  0  0  0  0  0  0  0  0  0
  -24.6240  -11.7820   20.8320 C   0  0  0  0  0  0  0  0  0  0  0  0
  -26.2770  -13.0230   20.2680 N   0  0  0  0  0  0  0  0  0  0  0  0
  -25.9200  -11.7420   20.5480 N   0  0  0  0  0  0  0  0  0  0  0  0
  -23.8940  -10.5200   21.0220 C   0  0  0  0  0  0  0  0  0  0  0  0
  -24.3120   -9.5580   21.9700 C   0  0  0  0  0  3  0  0  0  0  0  0
  -23.5780   -8.3650   22.1480 C   0  0  0  0  0  3  0  0  0  0  0  0
  -22.4140   -8.1240   21.3800 C   0  0  0  0  0  0  0  0  0  0  0  0
  -22.0170   -9.0750   20.4230 C   0  0  0  0  0  3  0  0  0  0  0  0
  -22.7510  -10.2600   20.2410 C   0  0  0  0  0  3  0  0  0  0  0  0
  -21.6540   -6.9830   21.4680 O   0  0  0  0  0  0  0  0  0  0  0  0
  -21.5900   -6.2470   22.6220 C   0  0  0  0  0  0  0  0  0  0  0  0
  -21.1610   -6.8120   23.8450 C   0  0  0  0  0  3  0  0  0  0  0  0
  -21.0450   -6.0030   24.9930 C   0  0  0  0  0  3  0  0  0  0  0  0
  -21.3490   -4.6310   24.9230 C   0  0  0  0  0  0  0  0  0  0  0  0
  -21.7710   -4.0650   23.7060 C   0  0  0  0  0  3  0  0  0  0  0  0
  -21.8900   -4.8700   22.5600 C   0  0  0  0  0  0  0  0  0  0  0  0
  -22.2750   -4.3150   21.3850 F   0  0  0  0  0  0  0  0  0  0  0  0
  -21.2300   -3.8520   26.0220 F   0  0  0  0  0  0  0  0  0  0  0  0
  -22.7530  -13.6110   21.0720 C   0  0  0  0  0  0  0  0  0  0  0  0
  -22.0060  -12.9270   21.9310 N   0  0  0  0  0  0  0  0  0  0  0  0
  -22.3260  -14.6280   20.5280 O   0  0  0  0  0  0  0  0  0  0  0  0
  -22.3620  -12.1040   22.3930 H   0  0  0  0  0  0  0  0  0  0  0  0
  -21.0640  -13.2320   22.1330 H   0  0  0  0  0  0  0  0  0  0  0  0
  -25.3870  -15.2750   20.2860 N   0  0  0  0  0  0  0  0  0  0  0  0
  -24.6170  -15.9260   20.3850 H   0  0  0  0  0  0  0  0  0  0  0  0
  -26.2250  -15.7170   19.9380 H   0  0  0  0  0  0  0  0  0  0  0  0
  -31.9860  -18.4320   18.6000 C   0  0  0  0  0  2  0  0  0  0  0  0
  -32.8140  -17.2210   18.7780 N   0  0  0  0  0  4  0  0  0  0  0  0
  -33.6680  -17.4130   19.2690 H   0  0  0  0  0  0  0  0  0  0  0  0
  -33.0660  -16.8710   17.8680 H   0  0  0  0  0  0  0  0  0  0  0  0
  -32.3320  -16.4780   19.2780 H   0  0  0  0  0  0  0  0  0  0  0  0
  1  2  1  0
  1 53  1  0
  2  9  1  0
  2  4  1  0
  3  1  1  0
  3  5  2  0
  4  8  2  0
  4  6  1  0
  5  8  1  0
  7  5  1  0
  9 10  1  0
 11 12  1  0
 11 10  2  0
 13 24  2  0
 14 12  1  0
 14 19  1  0
 15 23  1  0
 15 25  1  0
 16 22  1  0
 16 18  1  0
 17 23  1  0
 18 19  2  0
 18 17  1  0
 20 14  2  0
 21 20  1  0
 21 16  2  0
 22 15  1  0
 23 13  1  0
 25 27  2  0
 26 25  1  0
 28 26  1  0
 29 38  2  0
 29 34  1  0
 30 26  1  0
 30 34  1  0
 31 30  1  0
 32 33  1  0
 32 31  1  0
 33 29  1  0
 34 35  2  0
 35 36  1  0
 37 36  2  0
 38 37  1  0
 39 13  1  0
 39 40  1  0
 39 49  1  0
 40 43  1  0
 41 45  1  0
 41 40  1  0
 42 41  2  0
 45 44  1  0
 47 45  1  0
 47 48  1  0
 47 46  1  0
 49 52  1  1
 49 50  1  0
 51 49  1  0
 54 62  1  0
 55 60  1  0
 56 57  1  0
 56 55  1  0
 58 57  1  0
 58 67  1  0
 58 59  1  0
 60 54  1  0
 60 59  1  0
 61 54  2  0
 62 53  1  0
 63 62  1  0
 64 65  2  0
 65 84  1  0
 66 65  1  0
 66 69  1  0
 67 64  1  0
 67 68  1  0
 68 66  2  0
 69 70  1  0
 70 71  2  0
 72 75  1  0
 72 71  1  0
 73 72  2  0
 74 73  1  0
 74 69  2  0
 75 76  1  0
 76 77  1  0
 77 78  2  0
 79 78  1  0
 79 83  1  0
 80 79  2  0
 81 76  2  0
 81 80  1  0
 82 81  1  0
 84 85  1  0
 85 88  1  0
 85 87  1  0
 86 84  2  0
 89 90  1  0
 89 64  1  0
 91 89  1  0
 92 93  1  0
 92  3  1  0
 93 94  1  0
 93 96  1  0
 95 93  1  0
M  ISO  4  11 101  12 101  54 100  62 100
M  END
>  <TORSDO>  (31) 
F 22

>  <SCORE>  (31) 
-14.825

>  <name>  (31) 
30

>  <ligand_id>  (31) 
30

>  <original_smiles>  (31) 
[H]c1c([H])c([H])c2c(c1[H])C([H])([H])C([H])([H])C([H])([H])C2([H])N([H])C(=O)C1([H])N(C(=O)C([H])(N([H])C(=O)C([H])(N([H])C([H])([H])[H])C([H])([H])[H])C(C([H])([H])[H])(C([H])([H])[H])C([H])([H])[H])C([H])([H])c2c([H])c(OC([H])([H])C([H])([H])C([H])([H])c3c(C([H])([H])[H])nc(C([H])([H])[H])c(C([H])([H])[N+]([H])([H])[H])c3C([H])([H])N([H])C(=O)N3C([H])([H])C([H])([H])C([H])([H])C([H])(n4nc(-c5c([H])c([H])c(Oc6c([H])c([H])c(F)c([H])c6F)c([H])c5[H])c(C(=O)N([H])[H])c4N([H])[H])C3([H])[H])c([H])c([H])c2C1([H])[H]

>  <smiles>  (31) 
[H]c1c([H])c([H])c2c(c1[H])C([H])([H])C([H])([H])C([H])([H])C2([H])N([H])C(=O)C1([H])N(C(=O)C([H])(N([H])C(=O)C([H])(N([H])C([H])([H])[H])C([H])([H])[H])C(C([H])([H])[H])(C([H])([H])[H])C([H])([H])[H])C([H])([H])c2c([H])c(OC([H])([H])C([H])([H])C([H])([H])c3c(C([H])([H])[H])nc(C([H])([H])[H])c(C([H])([H])[N+]([H])([H])[H])c3C([H])([H])N([H])C(=O)N3C([H])([H])C([H])([H])C([H])([H])C([H])(n4nc(-c5c([H])c([H])c(Oc6c([H])c([H])c(F)c([H])c6F)c([H])c5[H])c(C(=O)N([H])[H])c4N([H])[H])C3([H])[H])c([H])c([H])c2C1([H])[H]

$$$$
31:0:0
     RDKit          3D

 90 99  0  0  1  0  0  0  0  0999 V2000
  -29.5730  -20.8500   21.7250 C   0  0  0  0  0  3  0  0  0  0  0  0
  -29.0250  -23.1560   21.7140 C   0  0  0  0  0  3  0  0  0  0  0  0
  -29.3860  -20.6360   20.3400 C   0  0  0  0  0  0  0  0  0  0  0  0
  -28.7980  -23.2350   20.3250 C   0  0  0  0  0  0  0  0  0  0  0  0
  -29.0050  -21.9140   19.6400 C   0  0  0  0  0  0  0  0  0  0  0  0
  -28.8420  -21.8590   18.1250 C   0  0  0  0  0  1  0  0  0  0  0  0
  -29.4020  -22.0260   22.3720 N   0  0  0  0  0  0  0  0  0  0  0  0
  -30.5510  -15.1090   20.2020 C   0  0  0  0  0  0  0  0  0  0  0  0
  -30.4210  -12.7210   19.3660 C   0  0  0  0  0  2  0  0  0  0  0  0
  -29.4900  -12.6130   18.1390 C   0  0  0  0  0  2  0  0  0  0  0  0
  -28.0230  -12.4050   18.5720 C   0  0  0  0  0  2  0  0  0  0  0  0
  -27.6040  -13.3330   19.7450 C   0  0  0  0  0  3  0  0  0  0  0  0
  -28.6740  -13.4410   20.8490 C   0  0  0  0  0  2  0  0  0  0  0  0
  -29.9220  -13.8550   20.1890 N   0  0  0  0  0  0  0  0  0  0  0  0
  -31.7840  -15.0950   20.1150 O   0  0  0  0  0  0  0  0  0  0  0  0
  -28.5950  -18.2880   19.0050 C   0  0  0  0  0  2  0  0  0  0  0  0
  -29.0420  -16.7690   18.9270 C   0  0  0  0  0  2  0  0  0  0  0  0
  -30.2110  -17.7890   20.6540 C   0  0  0  0  0  2  0  0  0  0  0  0
  -29.6840  -19.0810   19.7620 C   0  0  0  0  0  3  0  0  0  0  0  0
  -29.8380  -16.3660   20.1180 N   0  0  0  0  0  0  0  0  0  0  0  0
  -25.2270  -13.9000   20.5010 C   0  0  0  0  0  0  0  0  0  0  0  0
  -24.1690  -13.1210   20.8750 C   0  0  0  0  0  0  0  0  0  0  0  0
  -24.6430  -11.7720   20.8510 C   0  0  0  0  0  0  0  0  0  0  0  0
  -26.2760  -13.0260   20.2620 N   0  0  0  0  0  0  0  0  0  0  0  0
  -25.9330  -11.7420   20.5370 N   0  0  0  0  0  0  0  0  0  0  0  0
  -23.9240  -10.5090   21.0450 C   0  0  0  0  0  0  0  0  0  0  0  0
  -24.3650   -9.5450   21.9740 C   0  0  0  0  0  3  0  0  0  0  0  0
  -23.6480   -8.3430   22.1570 C   0  0  0  0  0  3  0  0  0  0  0  0
  -22.4740   -8.0960   21.4070 C   0  0  0  0  0  0  0  0  0  0  0  0
  -22.0550   -9.0530   20.4650 C   0  0  0  0  0  3  0  0  0  0  0  0
  -22.7730  -10.2460   20.2810 C   0  0  0  0  0  3  0  0  0  0  0  0
  -21.7280   -6.9460   21.4990 O   0  0  0  0  0  0  0  0  0  0  0  0
  -21.6880   -6.2000   22.6510 C   0  0  0  0  0  0  0  0  0  0  0  0
  -21.2600   -6.7480   23.8790 C   0  0  0  0  0  3  0  0  0  0  0  0
  -21.1700   -5.9290   25.0220 C   0  0  0  0  0  3  0  0  0  0  0  0
  -21.4950   -4.5610   24.9370 C   0  0  0  0  0  0  0  0  0  0  0  0
  -21.9150   -4.0130   23.7110 C   0  0  0  0  0  3  0  0  0  0  0  0
  -22.0090   -4.8300   22.5720 C   0  0  0  0  0  0  0  0  0  0  0  0
  -22.3880   -4.2880   21.3900 F   0  0  0  0  0  0  0  0  0  0  0  0
  -21.4040   -3.7700   26.0330 F   0  0  0  0  0  0  0  0  0  0  0  0
  -22.7690  -13.5920   21.1390 C   0  0  0  0  0  0  0  0  0  0  0  0
  -22.0420  -12.8960   22.0060 N   0  0  0  0  0  0  0  0  0  0  0  0
  -22.3250  -14.6150   20.6170 O   0  0  0  0  0  0  0  0  0  0  0  0
  -22.4090  -12.0740   22.4660 H   0  0  0  0  0  0  0  0  0  0  0  0
  -21.1020  -13.1970   22.2220 H   0  0  0  0  0  0  0  0  0  0  0  0
  -25.3900  -15.2710   20.3120 N   0  0  0  0  0  0  0  0  0  0  0  0
  -24.6330  -15.9320   20.4150 H   0  0  0  0  0  0  0  0  0  0  0  0
  -26.2430  -15.7030   19.9890 H   0  0  0  0  0  0  0  0  0  0  0  0
  -28.2540  -24.6900   19.6890 C   0  0  0  0  0  2  0  0  0  0  0  0
  -28.2670  -26.1470   20.3140 O   0  0  0  0  0  0  0  0  0  0  0  0
  -24.6470  -31.9260   23.2450 C   0  0  0  0  0  0  0  0  0  0  0  0
  -27.2140  -27.1540   20.2080 C   0  0  0  0  0  0  0  0  0  0  0  0
  -23.4460  -30.5370   21.6000 C   0  0  0  0  0  3  0  0  0  0  0  0
  -24.8920  -28.9390   20.1850 C   0  0  0  0  0  0  0  0  0  0  0  0
  -26.0070  -30.7700   21.4520 C   0  0  0  0  0  2  0  0  0  0  0  0
  -26.0750  -29.3670   20.8000 C   0  0  0  0  0  0  0  0  0  0  0  0
  -27.2260  -28.4880   20.8020 C   0  0  0  0  0  3  0  0  0  0  0  0
  -25.9990  -26.8390   19.5530 C   0  0  0  0  0  3  0  0  0  0  0  0
  -24.8680  -27.6870   19.5500 C   0  0  0  0  0  3  0  0  0  0  0  0
  -23.6750  -29.8530   20.2210 C   0  0  0  0  0  2  0  0  0  0  0  0
  -24.7210  -31.0980   22.1540 N   0  0  0  0  0  0  0  0  0  0  0  0
  -23.5590  -32.2150   23.7640 O   0  0  0  0  0  0  0  0  0  0  0  0
  -22.7530  -29.5360   22.5640 C   0  0  0  0  0  0  0  0  0  0  0  0
  -21.4240  -29.3730   22.4340 N   0  0  0  0  0  0  0  0  0  0  0  0
  -23.4160  -28.9110   23.3950 O   0  0  0  0  0  0  0  0  0  0  0  0
  -20.9400  -29.9440   21.7560 H   0  0  0  0  0  0  0  0  0  0  0  0
  -18.0340  -28.1700   22.9220 C   0  0  0  0  0  0  0  0  0  0  0  0
  -20.5930  -28.4390   23.2040 C   0  0  0  0  0  3  0  0  0  0  0  0
  -20.6940  -27.0010   22.6420 C   0  0  0  0  0  2  0  0  0  0  0  0
  -19.6010  -26.6670   21.6220 C   0  0  0  0  0  2  0  0  0  0  0  0
  -18.2180  -26.8170   22.2580 C   0  0  0  0  0  2  0  0  0  0  0  0
  -19.1510  -28.9390   23.3530 C   0  0  0  0  0  0  0  0  0  0  0  0
  -18.9250  -30.2020   23.9410 C   0  0  0  0  0  3  0  0  0  0  0  0
  -17.6180  -30.6980   24.1000 C   0  0  0  0  0  3  0  0  0  0  0  0
  -16.5170  -29.9300   23.6820 C   0  0  0  0  0  3  0  0  0  0  0  0
  -16.7270  -28.6670   23.0990 C   0  0  0  0  0  3  0  0  0  0  0  0
  -25.9210  -32.5620   23.8790 C   0  0  0  0  0  3  0  0  0  0  0  0
  -25.6060  -33.9660   24.1990 N   0  0  0  0  0  0  0  0  0  0  0  0
  -25.9350  -35.0210   23.4400 C   0  0  0  0  0  0  0  0  0  0  0  0
  -26.5960  -34.9130   22.4040 O   0  0  0  0  0  0  0  0  0  0  0  0
  -25.0150  -34.1230   25.0010 H   0  0  0  0  0  0  0  0  0  0  0  0
  -24.2090  -36.8280   23.1090 C   0  0  0  0  0  1  0  0  0  0  0  0
  -25.4610  -36.4160   23.9000 C   0  0  0  0  0  3  0  0  0  0  0  0
  -27.6140  -37.3030   24.6840 C   0  0  0  0  0  1  0  0  0  0  0  0
  -26.4920  -37.4670   23.7650 N   0  0  0  0  0  0  0  0  0  0  0  0
  -26.0930  -38.3880   23.9100 H   0  0  0  0  0  0  0  0  0  0  0  0
  -26.4190  -31.8040   25.1690 C   0  0  1  0  0  0  0  0  0  0  0  0
  -25.3150  -31.5880   26.2330 C   0  0  0  0  0  1  0  0  0  0  0  0
  -26.9920  -30.4150   24.8040 C   0  0  0  0  0  1  0  0  0  0  0  0
  -27.5660  -32.5990   25.8330 C   0  0  0  0  0  1  0  0  0  0  0  0
  1  7  1  0
  2  7  2  0
  3  1  2  0
  4  2  1  0
  5  4  2  0
  5  3  1  0
  6  5  1  0
  9 14  1  0
 10 11  1  0
 10  9  1  0
 12 11  1  0
 12 24  1  0
 12 13  1  0
 14  8  1  0
 14 13  1  0
 15  8  2  0
 16 19  1  0
 17 16  1  0
 17 20  1  0
 19  3  1  0
 19 18  1  0
 20  8  1  0
 20 18  1  0
 21 22  2  0
 22 41  1  0
 23 22  1  0
 23 26  1  0
 24 21  1  0
 24 25  1  0
 25 23  2  0
 26 27  1  0
 27 28  2  0
 29 32  1  0
 29 28  1  0
 30 29  2  0
 31 30  1  0
 31 26  2  0
 32 33  1  0
 33 34  1  0
 34 35  2  0
 36 35  1  0
 36 40  1  0
 37 36  2  0
 38 33  2  0
 38 37  1  0
 39 38  1  0
 41 42  1  0
 42 45  1  0
 42 44  1  0
 43 41  2  0
 46 47  1  0
 46 21  1  0
 48 46  1  0
 49 50  1  0
 49  4  1  0
 51 62  2  0
 52 50  1  0
 52 57  1  0
 53 61  1  0
 53 63  1  0
 54 60  1  0
 54 56  1  0
 55 61  1  0
 56 57  2  0
 56 55  1  0
 58 52  2  0
 59 58  1  0
 59 54  2  0
 60 53  1  0
 61 51  1  0
 63 65  2  0
 64 63  1  0
 66 64  1  0
 67 76  2  0
 67 72  1  0
 68 64  1  0
 68 72  1  0
 69 68  1  0
 70 71  1  0
 70 69  1  0
 71 67  1  0
 72 73  2  0
 73 74  1  0
 75 74  2  0
 76 75  1  0
 77 51  1  0
 77 78  1  0
 77 87  1  0
 78 81  1  0
 79 83  1  0
 79 78  1  0
 80 79  2  0
 83 82  1  0
 85 83  1  0
 85 86  1  0
 85 84  1  0
 87 90  1  1
 87 88  1  0
 89 87  1  0
M  ISO  4   8 100  20 100  49 101  50 101
M  END
>  <TORSDO>  (32) 
F 17

>  <SCORE>  (32) 
-15.230

>  <name>  (32) 
31

>  <ligand_id>  (32) 
31

>  <original_smiles>  (32) 
[H]c1nc([H])c(C2([H])C([H])([H])N(C(=O)N3C([H])([H])C([H])([H])C([H])([H])C([H])(n4nc(-c5c([H])c([H])c(Oc6c([H])c([H])c(F)c([H])c6F)c([H])c5[H])c(C(=O)N([H])[H])c4N([H])[H])C3([H])[H])C([H])([H])C2([H])[H])c(C([H])([H])[H])c1C([H])([H])Oc1c([H])c([H])c2c(c1[H])C([H])([H])N(C(=O)C([H])(N([H])C(=O)C([H])(N([H])C([H])([H])[H])C([H])([H])[H])C(C([H])([H])[H])(C([H])([H])[H])C([H])([H])[H])C([H])(C(=O)N([H])C1([H])c3c([H])c([H])c([H])c([H])c3C([H])([H])C([H])([H])C1([H])[H])C2([H])[H]

>  <smiles>  (32) 
[H]c1nc([H])c(C2([H])C([H])([H])N(C(=O)N3C([H])([H])C([H])([H])C([H])([H])C([H])(n4nc(-c5c([H])c([H])c(Oc6c([H])c([H])c(F)c([H])c6F)c([H])c5[H])c(C(=O)N([H])[H])c4N([H])[H])C3([H])[H])C([H])([H])C2([H])[H])c(C([H])([H])[H])c1C([H])([H])Oc1c([H])c([H])c2c(c1[H])C([H])([H])N(C(=O)C([H])(N([H])C(=O)C([H])(N([H])C([H])([H])[H])C([H])([H])[H])C(C([H])([H])[H])(C([H])([H])[H])C([H])([H])[H])C([H])(C(=O)N([H])C1([H])c3c([H])c([H])c([H])c([H])c3C([H])([H])C([H])([H])C1([H])[H])C2([H])[H]

$$$$
32:0:0
     RDKit          3D

 95103  0  0  1  0  0  0  0  0999 V2000
  -28.6000  -21.7000   20.3780 C   0  0  0  0  0  3  0  0  0  0  0  0
  -31.3470  -18.0910   20.9770 C   0  0  0  0  0  3  0  0  0  0  0  0
  -29.1790  -18.8860   20.3070 C   0  0  0  0  0  0  0  0  0  0  0  0
  -29.5630  -20.3240   20.5360 C   0  0  0  0  0  0  0  0  0  0  0  0
  -30.0650  -17.7070   20.5480 C   0  0  0  0  0  0  0  0  0  0  0  0
  -30.9040  -20.4210   21.0070 C   0  0  0  0  0  0  0  0  0  0  0  0
  -31.5500  -21.7320   21.4190 C   0  0  0  0  0  1  0  0  0  0  0  0
  -31.7350  -19.3660   21.1900 N   0  0  0  0  0  0  0  0  0  0  0  0
  -30.5390  -15.0400   20.1290 C   0  0  0  0  0  0  0  0  0  0  0  0
  -30.3800  -12.7720   18.9960 C   0  0  0  0  0  2  0  0  0  0  0  0
  -29.3720  -12.8290   17.8240 C   0  0  0  0  0  2  0  0  0  0  0  0
  -27.9400  -12.5620   18.3250 C   0  0  0  0  0  2  0  0  0  0  0  0
  -27.6020  -13.3660   19.6060 C   0  0  0  0  0  3  0  0  0  0  0  0
  -28.7280  -13.2970   20.6600 C   0  0  0  0  0  2  0  0  0  0  0  0
  -29.9520  -13.7800   20.0090 N   0  0  0  0  0  0  0  0  0  0  0  0
  -31.7180  -15.1360   19.7670 O   0  0  0  0  0  0  0  0  0  0  0  0
  -29.7570  -16.1970   20.4310 N   0  0  0  0  0  0  0  0  0  0  0  0
  -28.7950  -15.9590   20.6170 H   0  0  0  0  0  0  0  0  0  0  0  0
  -25.2430  -13.8260   20.4800 C   0  0  0  0  0  0  0  0  0  0  0  0
  -24.2310  -13.0010   20.8810 C   0  0  0  0  0  0  0  0  0  0  0  0
  -24.7410  -11.6700   20.7760 C   0  0  0  0  0  0  0  0  0  0  0  0
  -26.3050  -12.9980   20.1590 N   0  0  0  0  0  0  0  0  0  0  0  0
  -26.0140  -11.6940   20.4000 N   0  0  0  0  0  0  0  0  0  0  0  0
  -24.0680  -10.3770   20.9570 C   0  0  0  0  0  0  0  0  0  0  0  0
  -24.5030   -9.4450   21.9260 C   0  0  0  0  0  3  0  0  0  0  0  0
  -23.8250   -8.2180   22.0940 C   0  0  0  0  0  3  0  0  0  0  0  0
  -22.6990   -7.9130   21.2920 C   0  0  0  0  0  0  0  0  0  0  0  0
  -22.2840   -8.8340   20.3150 C   0  0  0  0  0  3  0  0  0  0  0  0
  -22.9620  -10.0530   20.1460 C   0  0  0  0  0  3  0  0  0  0  0  0
  -21.9960   -6.7340   21.3690 O   0  0  0  0  0  0  0  0  0  0  0  0
  -21.8310   -6.0700   22.5560 C   0  0  0  0  0  0  0  0  0  0  0  0
  -21.1830   -6.6650   23.6600 C   0  0  0  0  0  3  0  0  0  0  0  0
  -20.9740   -5.9230   24.8390 C   0  0  0  0  0  3  0  0  0  0  0  0
  -21.4030   -4.5840   24.9140 C   0  0  0  0  0  0  0  0  0  0  0  0
  -22.0440   -3.9870   23.8140 C   0  0  0  0  0  3  0  0  0  0  0  0
  -22.2560   -4.7280   22.6370 C   0  0  0  0  0  0  0  0  0  0  0  0
  -22.8560   -4.1410   21.5730 F   0  0  0  0  0  0  0  0  0  0  0  0
  -21.1950   -3.8670   26.0420 F   0  0  0  0  0  0  0  0  0  0  0  0
  -22.8350  -13.4180   21.2410 C   0  0  0  0  0  0  0  0  0  0  0  0
  -22.1860  -12.6780   22.1330 N   0  0  0  0  0  0  0  0  0  0  0  0
  -22.3300  -14.4350   20.7650 O   0  0  0  0  0  0  0  0  0  0  0  0
  -22.6110  -11.8550   22.5350 H   0  0  0  0  0  0  0  0  0  0  0  0
  -21.2520  -12.9360   22.4160 H   0  0  0  0  0  0  0  0  0  0  0  0
  -25.3440  -15.2060   20.3310 N   0  0  0  0  0  0  0  0  0  0  0  0
  -24.5410  -15.8100   20.4710 H   0  0  0  0  0  0  0  0  0  0  0  0
  -26.1140  -15.6740   19.8770 H   0  0  0  0  0  0  0  0  0  0  0  0
  -26.9900  -17.6560   20.7380 C   0  0  0  0  0  1  0  0  0  0  0  0
  -27.7770  -18.5770   19.7970 C   0  0  0  0  0  2  0  0  0  0  0  0
  -27.7060  -21.7380   21.5530 N   0  0  0  0  0  4  0  0  0  0  0  0
  -28.2160  -21.9550   22.3930 H   0  0  0  0  0  0  0  0  0  0  0  0
  -27.2440  -20.8600   21.6900 H   0  0  0  0  0  0  0  0  0  0  0  0
  -26.9940  -22.4350   21.4320 H   0  0  0  0  0  0  0  0  0  0  0  0
  -29.0780  -23.3170   20.0850 C   0  0  0  0  0  3  0  0  0  0  0  0
  -28.0560  -24.6570   19.8700 C   0  0  0  0  0  3  0  0  0  0  0  0
  -28.3830  -26.1890   19.9030 O   0  0  0  0  0  0  0  0  0  0  0  0
  -24.8330  -31.7150   23.2620 C   0  0  0  0  0  0  0  0  0  0  0  0
  -27.3460  -27.1970   19.9030 C   0  0  0  0  0  0  0  0  0  0  0  0
  -23.6160  -30.4690   21.5170 C   0  0  0  0  0  3  0  0  0  0  0  0
  -25.0460  -28.9850   19.9820 C   0  0  0  0  0  0  0  0  0  0  0  0
  -26.1740  -30.7050   21.3780 C   0  0  0  0  0  2  0  0  0  0  0  0
  -26.2290  -29.3630   20.6300 C   0  0  0  0  0  0  0  0  0  0  0  0
  -27.3800  -28.4870   20.5730 C   0  0  0  0  0  3  0  0  0  0  0  0
  -26.1410  -26.9310   19.2140 C   0  0  0  0  0  3  0  0  0  0  0  0
  -25.0190  -27.7850   19.2550 C   0  0  0  0  0  3  0  0  0  0  0  0
  -23.8300  -29.8940   20.0910 C   0  0  0  0  0  2  0  0  0  0  0  0
  -24.8950  -30.9820   22.1090 N   0  0  0  0  0  0  0  0  0  0  0  0
  -23.7490  -31.9770   23.8080 O   0  0  0  0  0  0  0  0  0  0  0  0
  -22.9160  -29.4040   22.3970 C   0  0  0  0  0  0  0  0  0  0  0  0
  -21.5850  -29.2700   22.2560 N   0  0  0  0  0  0  0  0  0  0  0  0
  -23.5740  -28.7030   23.1700 O   0  0  0  0  0  0  0  0  0  0  0  0
  -21.1120  -29.8850   21.6100 H   0  0  0  0  0  0  0  0  0  0  0  0
  -18.1740  -28.1410   22.7140 C   0  0  0  0  0  0  0  0  0  0  0  0
  -20.7450  -28.2930   22.9530 C   0  0  0  0  0  3  0  0  0  0  0  0
  -20.7870  -26.9180   22.2450 C   0  0  0  0  0  2  0  0  0  0  0  0
  -19.6580  -26.7300   21.2270 C   0  0  0  0  0  2  0  0  0  0  0  0
  -18.2930  -26.8580   21.9080 C   0  0  0  0  0  2  0  0  0  0  0  0
  -19.3260  -28.8230   23.1900 C   0  0  0  0  0  0  0  0  0  0  0  0
  -19.1610  -30.0270   23.9080 C   0  0  0  0  0  3  0  0  0  0  0  0
  -17.8780  -30.5520   24.1480 C   0  0  0  0  0  3  0  0  0  0  0  0
  -16.7400  -29.8690   23.6830 C   0  0  0  0  0  3  0  0  0  0  0  0
  -16.8900  -28.6630   22.9760 C   0  0  0  0  0  3  0  0  0  0  0  0
  -26.1200  -32.2790   23.9390 C   0  0  0  0  0  3  0  0  0  0  0  0
  -25.8370  -33.6630   24.3540 N   0  0  0  0  0  0  0  0  0  0  0  0
  -26.1490  -34.7530   23.6410 C   0  0  0  0  0  0  0  0  0  0  0  0
  -26.7700  -34.6980   22.5770 O   0  0  0  0  0  0  0  0  0  0  0  0
  -25.2790  -33.7810   25.1870 H   0  0  0  0  0  0  0  0  0  0  0  0
  -24.4060  -36.5650   23.4950 C   0  0  0  0  0  1  0  0  0  0  0  0
  -25.7020  -36.1210   24.1950 C   0  0  0  0  0  3  0  0  0  0  0  0
  -27.8850  -36.9760   24.9220 C   0  0  0  0  0  1  0  0  0  0  0  0
  -26.7280  -37.1780   24.0550 N   0  0  0  0  0  0  0  0  0  0  0  0
  -26.3340  -38.0930   24.2620 H   0  0  0  0  0  0  0  0  0  0  0  0
  -26.5970  -31.4180   25.1720 C   0  0  1  0  0  0  0  0  0  0  0  0
  -25.4820  -31.1400   26.2070 C   0  0  0  0  0  1  0  0  0  0  0  0
  -27.1550  -30.0530   24.7060 C   0  0  0  0  0  1  0  0  0  0  0  0
  -27.7580  -32.1400   25.8970 C   0  0  0  0  0  1  0  0  0  0  0  0
  1 53  1  0
  1  4  1  0
  1 49  1  0
  2  8  1  0
  3  4  2  0
  3  5  1  0
  4  6  1  0
  5  2  2  0
  6  8  2  0
  6  7  1  0
  9 17  1  0
 10 15  1  0
 11 12  1  0
 11 10  1  0
 13 12  1  0
 13 22  1  0
 13 14  1  0
 15  9  1  0
 15 14  1  0
 16  9  2  0
 17  5  1  0
 17 18  1  0
 19 20  2  0
 20 39  1  0
 21 20  1  0
 21 24  1  0
 22 23  1  0
 22 19  1  0
 23 21  2  0
 24 25  1  0
 25 26  2  0
 27 30  1  0
 27 26  1  0
 28 27  2  0
 29 28  1  0
 29 24  2  0
 30 31  1  0
 31 36  2  0
 31 32  1  0
 32 33  2  0
 33 34  1  0
 34 38  1  0
 35 34  2  0
 36 35  1  0
 37 36  1  0
 39 40  1  0
 40 43  1  0
 40 42  1  0
 41 39  2  0
 44 45  1  0
 44 19  1  0
 46 44  1  0
 48  3  1  0
 48 47  1  0
 49 51  1  0
 49 50  1  0
 52 49  1  0
 54 55  1  0
 54 53  2  0
 55 57  1  0
 56 67  2  0
 57 62  1  0
 58 66  1  0
 58 68  1  0
 59 65  1  0
 59 61  1  0
 60 66  1  0
 61 60  1  0
 62 61  2  0
 63 64  1  0
 63 57  2  0
 64 59  2  0
 65 58  1  0
 66 56  1  0
 68 70  2  0
 69 68  1  0
 71 69  1  0
 72 81  2  0
 72 77  1  0
 73 69  1  0
 73 77  1  0
 74 73  1  0
 75 76  1  0
 75 74  1  0
 76 72  1  0
 77 78  2  0
 78 79  1  0
 80 79  2  0
 81 80  1  0
 82 56  1  0
 82 83  1  0
 82 92  1  0
 83 86  1  0
 84 88  1  0
 84 83  1  0
 85 84  2  0
 88 87  1  0
 90 88  1  0
 90 91  1  0
 90 89  1  0
 92 95  1  1
 92 93  1  0
 94 92  1  0
M  ISO  4   9 100  17 100  54 101  55 101
M  END
>  <TORSDO>  (33) 
F 21

>  <SCORE>  (33) 
-13.899

>  <name>  (33) 
32

>  <ligand_id>  (33) 
32

>  <original_smiles>  (33) 
[H]c1nc(C([H])([H])[H])c(C([H])(C([H])([H])C([H])([H])Oc2c([H])c([H])c3c(c2[H])C([H])([H])N(C(=O)C([H])(N([H])C(=O)C([H])(N([H])C([H])([H])[H])C([H])([H])[H])C(C([H])([H])[H])(C([H])([H])[H])C([H])([H])[H])C([H])(C(=O)N([H])C2([H])c4c([H])c([H])c([H])c([H])c4C([H])([H])C([H])([H])C2([H])[H])C3([H])[H])[N+]([H])([H])[H])c(C([H])([H])C([H])([H])[H])c1N([H])C(=O)N1C([H])([H])C([H])([H])C([H])([H])C([H])(n2nc(-c3c([H])c([H])c(Oc4c([H])c([H])c(F)c([H])c4F)c([H])c3[H])c(C(=O)N([H])[H])c2N([H])[H])C1([H])[H]

>  <smiles>  (33) 
[H]c1nc(C([H])([H])[H])c(C([H])(C([H])([H])C([H])([H])Oc2c([H])c([H])c3c(c2[H])C([H])([H])N(C(=O)C([H])(N([H])C(=O)C([H])(N([H])C([H])([H])[H])C([H])([H])[H])C(C([H])([H])[H])(C([H])([H])[H])C([H])([H])[H])C([H])(C(=O)N([H])C2([H])c4c([H])c([H])c([H])c([H])c4C([H])([H])C([H])([H])C2([H])[H])C3([H])[H])[N+]([H])([H])[H])c(C([H])([H])C([H])([H])[H])c1N([H])C(=O)N1C([H])([H])C([H])([H])C([H])([H])C([H])(n2nc(-c3c([H])c([H])c(Oc4c([H])c([H])c(F)c([H])c4F)c([H])c3[H])c(C(=O)N([H])[H])c2N([H])[H])C1([H])[H]

$$$$
33:0:0
     RDKit          3D

 91100  0  0  1  0  0  0  0  0999 V2000
  -30.8560  -15.6940   19.9570 C   0  0  0  0  0  0  0  0  0  0  0  0
  -30.8630  -13.1870   19.1640 C   0  0  0  0  0  2  0  0  0  0  0  0
  -29.9350  -12.8610   17.9630 C   0  0  0  0  0  2  0  0  0  0  0  0
  -28.4950  -12.5840   18.4240 C   0  0  0  0  0  2  0  0  0  0  0  0
  -28.0490  -13.5720   19.5280 C   0  0  0  0  0  3  0  0  0  0  0  0
  -29.1170  -13.7610   20.6280 C   0  0  0  0  0  2  0  0  0  0  0  0
  -30.2950  -14.3590   19.9530 N   0  0  0  0  0  0  0  0  0  0  0  0
  -32.0610  -15.6290   19.6600 O   0  0  0  0  0  0  0  0  0  0  0  0
  -27.6520  -20.9580   20.9910 C   0  0  0  0  0  3  0  0  0  0  0  0
  -28.4650  -19.8620   20.5840 C   0  0  0  0  0  0  0  0  0  0  0  0
  -27.8760  -22.3250   20.6310 C   0  0  0  0  0  0  0  0  0  0  0  0
  -29.5930  -20.0960   19.8050 C   0  0  0  0  0  0  0  0  0  0  0  0
  -28.9550  -22.7320   19.8020 C   0  0  0  0  0  0  0  0  0  0  0  0
  -28.0710  -18.4060   20.9200 C   0  0  0  0  0  3  0  0  0  0  0  0
  -29.1890  -17.3080   21.1220 C   0  0  0  0  0  2  0  0  0  0  0  0
  -30.4900  -18.6180   19.5040 C   0  0  0  0  0  0  0  0  0  0  0  0
  -26.8640  -23.3600   21.0960 C   0  0  0  0  0  1  0  0  0  0  0  0
  -29.7860  -21.5380   19.4350 N   0  0  0  0  0  0  0  0  0  0  0  0
  -30.1480  -17.0500   20.0180 N   0  0  0  0  0  0  0  0  0  0  0  0
  -25.7260  -14.1670   20.3880 C   0  0  0  0  0  0  0  0  0  0  0  0
  -24.6420  -13.4120   20.7340 C   0  0  0  0  0  0  0  0  0  0  0  0
  -25.0510  -12.0480   20.5970 C   0  0  0  0  0  0  0  0  0  0  0  0
  -26.7250  -13.2700   20.0570 N   0  0  0  0  0  0  0  0  0  0  0  0
  -26.3310  -11.9840   20.2470 N   0  0  0  0  0  0  0  0  0  0  0  0
  -24.2750  -10.8080   20.7240 C   0  0  0  0  0  0  0  0  0  0  0  0
  -24.7270   -9.7280   21.5150 C   0  0  0  0  0  3  0  0  0  0  0  0
  -23.9510   -8.5570   21.6410 C   0  0  0  0  0  3  0  0  0  0  0  0
  -22.7070   -8.4550   20.9730 C   0  0  0  0  0  0  0  0  0  0  0  0
  -22.2700   -9.5220   20.1690 C   0  0  0  0  0  3  0  0  0  0  0  0
  -23.0470  -10.6860   20.0420 C   0  0  0  0  0  3  0  0  0  0  0  0
  -21.9000   -7.3430   21.0120 O   0  0  0  0  0  0  0  0  0  0  0  0
  -21.9610   -6.4450   22.0460 C   0  0  0  0  0  0  0  0  0  0  0  0
  -21.7570   -6.8390   23.3870 C   0  0  0  0  0  3  0  0  0  0  0  0
  -21.7600   -5.8720   24.4120 C   0  0  0  0  0  3  0  0  0  0  0  0
  -21.9560   -4.5130   24.1010 C   0  0  0  0  0  0  0  0  0  0  0  0
  -22.1550   -4.1200   22.7660 C   0  0  0  0  0  3  0  0  0  0  0  0
  -22.1530   -5.0830   21.7420 C   0  0  0  0  0  0  0  0  0  0  0  0
  -22.3230   -4.6940   20.4550 F   0  0  0  0  0  0  0  0  0  0  0  0
  -21.9520   -3.5860   25.0850 F   0  0  0  0  0  0  0  0  0  0  0  0
  -23.2770  -13.9290   21.0770 C   0  0  0  0  0  0  0  0  0  0  0  0
  -22.5520  -13.2210   21.9340 N   0  0  0  0  0  0  0  0  0  0  0  0
  -22.8650  -14.9960   20.6220 O   0  0  0  0  0  0  0  0  0  0  0  0
  -22.8970  -12.3530   22.3130 H   0  0  0  0  0  0  0  0  0  0  0  0
  -21.6390  -13.5530   22.2130 H   0  0  0  0  0  0  0  0  0  0  0  0
  -25.9420  -15.5390   20.2990 N   0  0  0  0  0  0  0  0  0  0  0  0
  -25.2060  -16.2130   20.4790 H   0  0  0  0  0  0  0  0  0  0  0  0
  -26.7830  -15.9580   19.9210 H   0  0  0  0  0  0  0  0  0  0  0  0
  -29.8610  -17.9620   17.0540 C   0  0  0  0  0  1  0  0  0  0  0  0
  -30.9070  -18.5600   18.0130 C   0  0  0  0  0  2  0  0  0  0  0  0
  -28.9060  -24.4110   19.1590 C   0  0  0  0  0  2  0  0  0  0  0  0
  -28.7160  -25.9870   19.7460 O   0  0  0  0  0  0  0  0  0  0  0  0
  -24.6380  -31.5850   22.9010 C   0  0  0  0  0  0  0  0  0  0  0  0
  -27.6370  -27.0470   19.6540 C   0  0  0  0  0  0  0  0  0  0  0  0
  -23.5940  -30.2000   21.1550 C   0  0  0  0  0  3  0  0  0  0  0  0
  -25.1940  -28.7870   19.6710 C   0  0  0  0  0  0  0  0  0  0  0  0
  -26.1420  -30.5940   21.0890 C   0  0  0  0  0  2  0  0  0  0  0  0
  -26.3350  -29.2290   20.3520 C   0  0  0  0  0  0  0  0  0  0  0  0
  -27.5400  -28.3770   20.3280 C   0  0  0  0  0  3  0  0  0  0  0  0
  -26.4530  -26.7790   18.9270 C   0  0  0  0  0  3  0  0  0  0  0  0
  -25.2800  -27.5870   18.9420 C   0  0  0  0  0  3  0  0  0  0  0  0
  -23.9040  -29.6130   19.7480 C   0  0  0  0  0  2  0  0  0  0  0  0
  -24.8110  -30.8220   21.7700 N   0  0  0  0  0  0  0  0  0  0  0  0
  -23.5180  -31.7590   23.4080 O   0  0  0  0  0  0  0  0  0  0  0  0
  -22.9530  -29.1030   22.0480 C   0  0  0  0  0  0  0  0  0  0  0  0
  -21.6210  -28.9220   21.9630 N   0  0  0  0  0  0  0  0  0  0  0  0
  -23.6620  -28.4160   22.7880 O   0  0  0  0  0  0  0  0  0  0  0  0
  -21.0980  -29.5310   21.3490 H   0  0  0  0  0  0  0  0  0  0  0  0
  -18.2810  -27.6180   22.5270 C   0  0  0  0  0  0  0  0  0  0  0  0
  -20.8510  -27.8940   22.6700 C   0  0  0  0  0  3  0  0  0  0  0  0
  -20.9290  -26.5360   21.9330 C   0  0  0  0  0  2  0  0  0  0  0  0
  -19.7720  -26.3130   20.9530 C   0  0  0  0  0  2  0  0  0  0  0  0
  -18.4300  -26.3610   21.6870 C   0  0  0  0  0  2  0  0  0  0  0  0
  -19.4160  -28.3460   22.9750 C   0  0  0  0  0  0  0  0  0  0  0  0
  -19.2170  -29.5250   23.7260 C   0  0  0  0  0  3  0  0  0  0  0  0
  -17.9180  -29.9760   24.0290 C   0  0  0  0  0  3  0  0  0  0  0  0
  -16.7990  -29.2430   23.5950 C   0  0  0  0  0  3  0  0  0  0  0  0
  -16.9830  -28.0650   22.8500 C   0  0  0  0  0  3  0  0  0  0  0  0
  -25.8370  -32.2890   23.6080 C   0  0  0  0  0  3  0  0  0  0  0  0
  -25.4180  -33.6570   23.9680 N   0  0  0  0  0  0  0  0  0  0  0  0
  -25.7440  -34.7670   23.2900 C   0  0  0  0  0  0  0  0  0  0  0  0
  -26.4900  -34.7490   22.3090 O   0  0  0  0  0  0  0  0  0  0  0  0
  -24.7660  -33.7400   24.7340 H   0  0  0  0  0  0  0  0  0  0  0  0
  -23.9500  -36.4890   22.8970 C   0  0  0  0  0  1  0  0  0  0  0  0
  -25.1530  -36.1080   23.7750 C   0  0  0  0  0  3  0  0  0  0  0  0
  -27.1730  -37.0670   24.7950 C   0  0  0  0  0  1  0  0  0  0  0  0
  -26.1330  -37.2170   23.7810 N   0  0  0  0  0  0  0  0  0  0  0  0
  -25.6670  -38.1080   23.9330 H   0  0  0  0  0  0  0  0  0  0  0  0
  -26.3330  -31.5230   24.8970 C   0  0  1  0  0  0  0  0  0  0  0  0
  -25.2060  -31.2080   25.9110 C   0  0  0  0  0  1  0  0  0  0  0  0
  -27.0040  -30.1830   24.5200 C   0  0  0  0  0  1  0  0  0  0  0  0
  -27.4170  -32.3600   25.6150 C   0  0  0  0  0  1  0  0  0  0  0  0
  1 19  1  0
  2  7  1  0
  3  4  1  0
  3  2  1  0
  5  4  1  0
  5 23  1  0
  5  6  1  0
  7  1  1  0
  7  6  1  0
  8  1  2  0
 10 14  2  0
 10  9  1  0
 11  9  2  0
 11 17  1  0
 12 10  1  0
 13 11  1  0
 14 15  1  0
 16 12  2  0
 16 19  1  0
 18 13  2  0
 18 12  1  0
 19 15  1  0
 20 21  2  0
 21 40  1  0
 22 25  1  0
 22 21  1  0
 23 24  1  0
 23 20  1  0
 24 22  2  0
 25 26  1  0
 26 27  2  0
 28 31  1  0
 28 27  1  0
 29 28  2  0
 30 29  1  0
 30 25  2  0
 31 32  1  0
 32 33  1  0
 33 34  2  0
 35 34  1  0
 35 39  1  0
 36 35  2  0
 37 32  2  0
 37 36  1  0
 38 37  1  0
 40 41  1  0
 41 44  1  0
 41 43  1  0
 42 40  2  0
 45 20  1  0
 45 46  1  0
 47 45  1  0
 48 49  1  0
 49 16  1  0
 50 51  1  0
 50 13  1  0
 52 63  2  0
 53 51  1  0
 53 58  1  0
 54 62  1  0
 54 64  1  0
 55 61  1  0
 55 57  1  0
 56 62  1  0
 57 56  1  0
 58 57  2  0
 59 60  1  0
 59 53  2  0
 60 55  2  0
 61 54  1  0
 62 52  1  0
 64 66  2  0
 65 64  1  0
 67 65  1  0
 68 77  2  0
 68 73  1  0
 69 65  1  0
 69 73  1  0
 70 69  1  0
 71 72  1  0
 71 70  1  0
 72 68  1  0
 73 74  2  0
 74 75  1  0
 76 75  2  0
 77 76  1  0
 78 52  1  0
 78 79  1  0
 78 88  1  0
 79 82  1  0
 80 84  1  0
 80 79  1  0
 81 80  2  0
 84 83  1  0
 84 86  1  0
 86 87  1  0
 86 85  1  0
 88 91  1  1
 88 89  1  0
 90 88  1  0
M  ISO  4   1 100  19 100  50 101  51 101
M  END
>  <TORSDO>  (34) 
F 17

>  <SCORE>  (34) 
-13.796

>  <name>  (34) 
33

>  <ligand_id>  (34) 
33

>  <original_smiles>  (34) 
[H]c1c([H])c([H])c2c(c1[H])C([H])([H])C([H])([H])C([H])([H])C2([H])N([H])C(=O)C1([H])N(C(=O)C([H])(N([H])C(=O)C([H])(N([H])C([H])([H])[H])C([H])([H])[H])C(C([H])([H])[H])(C([H])([H])[H])C([H])([H])[H])C([H])([H])c2c([H])c(OC([H])([H])c3nc4c(c([H])c3C([H])([H])[H])C([H])([H])C([H])([H])N(C(=O)N3C([H])([H])C([H])([H])C([H])([H])C([H])(n5nc(-c6c([H])c([H])c(Oc7c([H])c([H])c(F)c([H])c7F)c([H])c6[H])c(C(=O)N([H])[H])c5N([H])[H])C3([H])[H])C4([H])C([H])([H])C([H])([H])[H])c([H])c([H])c2C1([H])[H]

>  <smiles>  (34) 
[H]c1c([H])c([H])c2c(c1[H])C([H])([H])C([H])([H])C([H])([H])C2([H])N([H])C(=O)C1([H])N(C(=O)C([H])(N([H])C(=O)C([H])(N([H])C([H])([H])[H])C([H])([H])[H])C(C([H])([H])[H])(C([H])([H])[H])C([H])([H])[H])C([H])([H])c2c([H])c(OC([H])([H])c3nc4c(c([H])c3C([H])([H])[H])C([H])([H])C([H])([H])N(C(=O)N3C([H])([H])C([H])([H])C([H])([H])C([H])(n5nc(-c6c([H])c([H])c(Oc7c([H])c([H])c(F)c([H])c7F)c([H])c6[H])c(C(=O)N([H])[H])c5N([H])[H])C3([H])[H])C4([H])C([H])([H])C([H])([H])[H])c([H])c([H])c2C1([H])[H]

$$$$
34:0:0
     RDKit          3D

 92101  0  0  1  0  0  0  0  0999 V2000
  -30.9480  -20.4210   20.4100 C   0  0  0  0  0  3  0  0  0  0  0  0
  -29.5900  -20.1100   20.5360 C   0  0  0  0  0  0  0  0  0  0  0  0
  -31.3180  -21.7560   20.2130 C   0  0  0  0  0  0  0  0  0  0  0  0
  -29.1220  -22.4620   20.3210 C   0  0  0  0  0  0  0  0  0  0  0  0
  -32.7610  -22.1600   20.0090 C   0  0  0  0  0  1  0  0  0  0  0  0
  -28.6880  -21.1680   20.4770 N   0  0  0  0  0  0  0  0  0  0  0  0
  -30.4100  -22.7500   20.1660 N   0  0  0  0  0  0  0  0  0  0  0  0
  -28.7450  -17.8460   19.4670 C   0  0  0  0  0  2  0  0  0  0  0  0
  -29.1440  -18.5970   20.6990 C   0  0  0  0  0  3  0  0  0  0  0  0
  -29.9270  -17.2640   20.2300 C   0  0  0  0  0  3  0  0  0  0  0  0
  -30.5270  -14.7320   20.3880 C   0  0  0  0  0  0  0  0  0  0  0  0
  -30.3450  -12.4640   19.3630 C   0  0  0  0  0  2  0  0  0  0  0  0
  -29.4200  -12.5770   18.1310 C   0  0  0  0  0  2  0  0  0  0  0  0
  -27.9400  -12.4280   18.5460 C   0  0  0  0  0  2  0  0  0  0  0  0
  -27.5710  -13.2860   19.7870 C   0  0  0  0  0  3  0  0  0  0  0  0
  -28.6230  -13.1470   20.9100 C   0  0  0  0  0  2  0  0  0  0  0  0
  -29.9250  -13.4980   20.3340 N   0  0  0  0  0  0  0  0  0  0  0  0
  -31.6980  -14.8680   20.0160 O   0  0  0  0  0  0  0  0  0  0  0  0
  -29.7120  -15.8270   20.6190 N   0  0  0  0  0  0  0  0  0  0  0  0
  -28.7820  -15.5960   20.9350 H   0  0  0  0  0  0  0  0  0  0  0  0
  -25.1830  -13.8860   20.5130 C   0  0  0  0  0  0  0  0  0  0  0  0
  -24.1160  -13.1170   20.8870 C   0  0  0  0  0  0  0  0  0  0  0  0
  -24.5750  -11.7630   20.8560 C   0  0  0  0  0  0  0  0  0  0  0  0
  -26.2230  -13.0030   20.2710 N   0  0  0  0  0  0  0  0  0  0  0  0
  -25.8640  -11.7210   20.5400 N   0  0  0  0  0  0  0  0  0  0  0  0
  -23.8450  -10.5040   21.0500 C   0  0  0  0  0  0  0  0  0  0  0  0
  -24.2820   -9.5310   21.9760 C   0  0  0  0  0  3  0  0  0  0  0  0
  -23.5520   -8.3380   22.1600 C   0  0  0  0  0  3  0  0  0  0  0  0
  -22.3690   -8.1100   21.4170 C   0  0  0  0  0  0  0  0  0  0  0  0
  -21.9470   -9.0730   20.4830 C   0  0  0  0  0  3  0  0  0  0  0  0
  -22.6790  -10.2570   20.2970 C   0  0  0  0  0  3  0  0  0  0  0  0
  -21.6100   -6.9680   21.5080 O   0  0  0  0  0  0  0  0  0  0  0  0
  -21.5800   -6.2120   22.6530 C   0  0  0  0  0  0  0  0  0  0  0  0
  -21.1930   -6.7590   23.8960 C   0  0  0  0  0  3  0  0  0  0  0  0
  -21.1090   -5.9310   25.0340 C   0  0  0  0  0  3  0  0  0  0  0  0
  -21.4020   -4.5580   24.9290 C   0  0  0  0  0  0  0  0  0  0  0  0
  -21.7810   -4.0110   23.6910 C   0  0  0  0  0  3  0  0  0  0  0  0
  -21.8670   -4.8360   22.5550 C   0  0  0  0  0  0  0  0  0  0  0  0
  -22.2130   -4.3000   21.3610 F   0  0  0  0  0  0  0  0  0  0  0  0
  -21.3150   -3.7610   26.0200 F   0  0  0  0  0  0  0  0  0  0  0  0
  -22.7210  -13.6010   21.1580 C   0  0  0  0  0  0  0  0  0  0  0  0
  -21.9860  -12.9130   22.0240 N   0  0  0  0  0  0  0  0  0  0  0  0
  -22.2900  -14.6290   20.6370 O   0  0  0  0  0  0  0  0  0  0  0  0
  -22.3460  -12.0840   22.4730 H   0  0  0  0  0  0  0  0  0  0  0  0
  -21.0510  -13.2270   22.2440 H   0  0  0  0  0  0  0  0  0  0  0  0
  -25.3480  -15.2580   20.3370 N   0  0  0  0  0  0  0  0  0  0  0  0
  -24.5730  -15.9010   20.4510 H   0  0  0  0  0  0  0  0  0  0  0  0
  -26.1740  -15.6960   19.9510 H   0  0  0  0  0  0  0  0  0  0  0  0
  -26.6850  -23.2490   20.2070 C   0  0  0  0  0  1  0  0  0  0  0  0
  -28.1480  -23.7010   20.0290 C   0  0  0  0  0  3  0  0  0  0  0  0
  -28.3750  -25.1110   20.8080 C   0  0  0  0  0  2  0  0  0  0  0  0
  -28.3770  -26.4690   20.1690 O   0  0  0  0  0  0  0  0  0  0  0  0
  -24.6390  -31.8920   23.2380 C   0  0  0  0  0  0  0  0  0  0  0  0
  -27.2510  -27.3060   20.2060 C   0  0  0  0  0  0  0  0  0  0  0  0
  -23.4350  -30.4870   21.6030 C   0  0  0  0  0  3  0  0  0  0  0  0
  -24.8870  -28.9230   20.1870 C   0  0  0  0  0  0  0  0  0  0  0  0
  -25.9760  -30.8000   21.4190 C   0  0  0  0  0  2  0  0  0  0  0  0
  -26.0570  -29.4160   20.7820 C   0  0  0  0  0  0  0  0  0  0  0  0
  -27.2440  -28.6190   20.7800 C   0  0  0  0  0  3  0  0  0  0  0  0
  -26.0670  -26.8710   19.5820 C   0  0  0  0  0  3  0  0  0  0  0  0
  -24.8940  -27.6550   19.5800 C   0  0  0  0  0  3  0  0  0  0  0  0
  -23.6530  -29.8020   20.2280 C   0  0  0  0  0  2  0  0  0  0  0  0
  -24.7030  -31.0800   22.1420 N   0  0  0  0  0  0  0  0  0  0  0  0
  -23.5560  -32.1720   23.7720 O   0  0  0  0  0  0  0  0  0  0  0  0
  -22.7760  -29.4740   22.5700 C   0  0  0  0  0  0  0  0  0  0  0  0
  -21.4500  -29.2950   22.4470 N   0  0  0  0  0  0  0  0  0  0  0  0
  -23.4570  -28.8500   23.3870 O   0  0  0  0  0  0  0  0  0  0  0  0
  -20.9600  -29.8530   21.7630 H   0  0  0  0  0  0  0  0  0  0  0  0
  -18.0750  -28.0950   22.9570 C   0  0  0  0  0  0  0  0  0  0  0  0
  -20.6320  -28.3580   23.2200 C   0  0  0  0  0  3  0  0  0  0  0  0
  -20.7350  -26.9240   22.6470 C   0  0  0  0  0  2  0  0  0  0  0  0
  -19.6310  -26.5990   21.6360 C   0  0  0  0  0  2  0  0  0  0  0  0
  -18.2510  -26.7440   22.2830 C   0  0  0  0  0  2  0  0  0  0  0  0
  -19.1930  -28.8600   23.3820 C   0  0  0  0  0  0  0  0  0  0  0  0
  -18.9740  -30.1240   23.9720 C   0  0  0  0  0  3  0  0  0  0  0  0
  -17.6690  -30.6230   24.1410 C   0  0  0  0  0  3  0  0  0  0  0  0
  -16.5640  -29.8560   23.7290 C   0  0  0  0  0  3  0  0  0  0  0  0
  -16.7680  -28.5930   23.1440 C   0  0  0  0  0  3  0  0  0  0  0  0
  -25.9210  -32.5290   23.8580 C   0  0  0  0  0  3  0  0  0  0  0  0
  -26.4430  -31.7570   25.1340 C   0  0  1  0  0  0  0  0  0  0  0  0
  -25.3550  -31.5150   26.2060 C   0  0  0  0  0  1  0  0  0  0  0  0
  -27.0250  -30.3800   24.7410 C   0  0  0  0  0  1  0  0  0  0  0  0
  -27.5970  -32.5520   25.7890 C   0  0  0  0  0  1  0  0  0  0  0  0
  -25.6070  -33.9260   24.1910 N   0  0  0  0  0  0  0  0  0  0  0  0
  -25.9320  -34.9820   23.4340 C   0  0  0  0  0  0  0  0  0  0  0  0
  -26.5960  -34.8830   22.3980 O   0  0  0  0  0  0  0  0  0  0  0  0
  -25.0130  -34.0750   24.9940 H   0  0  0  0  0  0  0  0  0  0  0  0
  -24.1930  -36.7690   23.0980 C   0  0  0  0  0  1  0  0  0  0  0  0
  -25.4440  -36.3690   23.8960 C   0  0  0  0  0  3  0  0  0  0  0  0
  -27.5840  -37.2610   24.7020 C   0  0  0  0  0  1  0  0  0  0  0  0
  -26.4720  -37.4260   23.7710 N   0  0  0  0  0  0  0  0  0  0  0  0
  -26.0660  -38.3460   23.9210 H   0  0  0  0  0  0  0  0  0  0  0  0
  1  2  2  0
  3  1  1  0
  4  6  2  0
  5  3  1  0
  6  2  1  0
  7  3  2  0
  7  4  1  0
  8 10  1  0
  8  9  1  0
  9  2  1  0
 10 19  1  0
 10  9  1  0
 11 19  1  0
 12 17  1  0
 13 14  1  0
 13 12  1  0
 15 14  1  0
 15 24  1  0
 15 16  1  0
 17 11  1  0
 17 16  1  0
 18 11  2  0
 19 20  1  0
 21 22  2  0
 22 41  1  0
 23 22  1  0
 23 26  1  0
 24 21  1  0
 24 25  1  0
 25 23  2  0
 26 27  1  0
 27 28  2  0
 29 32  1  0
 29 28  1  0
 30 29  2  0
 31 30  1  0
 31 26  2  0
 32 33  1  0
 33 34  1  0
 34 35  2  0
 36 35  1  0
 36 40  1  0
 37 36  2  0
 38 33  2  0
 38 37  1  0
 39 38  1  0
 41 42  1  0
 42 45  1  0
 42 44  1  0
 43 41  2  0
 46 47  1  0
 46 21  1  0
 48 46  1  0
 50 49  1  0
 50  4  1  0
 50 51  1  0
 52 54  1  0
 52 51  1  0
 53 64  2  0
 54 59  1  0
 55 63  1  0
 55 65  1  0
 56 62  1  0
 56 58  1  0
 57 63  1  0
 58 57  1  0
 59 58  2  0
 60 54  2  0
 61 60  1  0
 61 56  2  0
 62 55  1  0
 63 53  1  0
 65 67  2  0
 66 65  1  0
 68 66  1  0
 69 78  2  0
 69 74  1  0
 70 66  1  0
 70 74  1  0
 71 70  1  0
 72 73  1  0
 72 71  1  0
 73 69  1  0
 74 75  2  0
 75 76  1  0
 77 76  2  0
 78 77  1  0
 79 53  1  0
 79 84  1  0
 79 80  1  0
 80 83  1  1
 80 81  1  0
 82 80  1  0
 84 87  1  0
 85 89  1  0
 85 84  1  0
 86 85  2  0
 89 88  1  0
 91 89  1  0
 91 92  1  0
 91 90  1  0
M  ISO  4  11 100  19 100  51 101  52 101
M  END
>  <TORSDO>  (35) 
F 19

>  <SCORE>  (35) 
-14.399

>  <name>  (35) 
34

>  <ligand_id>  (35) 
34

>  <original_smiles>  (35) 
[H]c1c(C([H])([H])[H])nc(C([H])(C([H])([H])[H])C([H])([H])Oc2c([H])c([H])c3c(c2[H])C([H])([H])N(C(=O)C([H])(N([H])C(=O)C([H])(N([H])C([H])([H])[H])C([H])([H])[H])C(C([H])([H])[H])(C([H])([H])[H])C([H])([H])[H])C([H])(C(=O)N([H])C2([H])c4c([H])c([H])c([H])c([H])c4C([H])([H])C([H])([H])C2([H])[H])C3([H])[H])nc1C1([H])C([H])([H])C1([H])N([H])C(=O)N1C([H])([H])C([H])([H])C([H])([H])C([H])(n2nc(-c3c([H])c([H])c(Oc4c([H])c([H])c(F)c([H])c4F)c([H])c3[H])c(C(=O)N([H])[H])c2N([H])[H])C1([H])[H]

>  <smiles>  (35) 
[H]c1c(C([H])([H])[H])nc(C([H])(C([H])([H])[H])C([H])([H])Oc2c([H])c([H])c3c(c2[H])C([H])([H])N(C(=O)C([H])(N([H])C(=O)C([H])(N([H])C([H])([H])[H])C([H])([H])[H])C(C([H])([H])[H])(C([H])([H])[H])C([H])([H])[H])C([H])(C(=O)N([H])C2([H])c4c([H])c([H])c([H])c([H])c4C([H])([H])C([H])([H])C2([H])[H])C3([H])[H])nc1C1([H])C([H])([H])C1([H])N([H])C(=O)N1C([H])([H])C([H])([H])C([H])([H])C([H])(n2nc(-c3c([H])c([H])c(Oc4c([H])c([H])c(F)c([H])c4F)c([H])c3[H])c(C(=O)N([H])[H])c2N([H])[H])C1([H])[H]

$$$$
35:0:0
     RDKit          3D

 93102  0  0  1  0  0  0  0  0999 V2000
  -30.4050  -22.2630   20.0930 C   0  0  0  0  0  0  0  0  0  0  0  0
  -29.2930  -21.5950   20.5740 C   0  0  0  0  0  0  0  0  0  0  0  0
  -28.8280  -23.7950   20.2430 C   0  0  0  0  0  0  0  0  0  0  0  0
  -31.7630  -21.7280   19.7580 C   0  0  0  0  0  1  0  0  0  0  0  0
  -26.9690  -22.4030   21.2300 C   0  0  0  0  0  1  0  0  0  0  0  0
  -30.1050  -23.6250   19.8890 N   0  0  0  0  0  0  0  0  0  0  0  0
  -28.3200  -22.6130   20.7220 N   0  0  0  0  0  0  0  0  0  0  0  0
  -28.9810  -20.2320   20.9060 N   0  0  0  0  0  0  0  0  0  0  0  0
  -28.0720  -20.0510   21.3170 H   0  0  0  0  0  0  0  0  0  0  0  0
  -30.7000  -14.6600   20.1690 C   0  0  0  0  0  0  0  0  0  0  0  0
  -30.3420  -12.4540   19.0910 C   0  0  0  0  0  2  0  0  0  0  0  0
  -29.3670  -12.6120   17.9070 C   0  0  0  0  0  2  0  0  0  0  0  0
  -27.9130  -12.4610   18.3910 C   0  0  0  0  0  2  0  0  0  0  0  0
  -27.6060  -13.3160   19.6500 C   0  0  0  0  0  3  0  0  0  0  0  0
  -28.7070  -13.1860   20.7250 C   0  0  0  0  0  2  0  0  0  0  0  0
  -29.9910  -13.4910   20.0850 N   0  0  0  0  0  0  0  0  0  0  0  0
  -31.8710  -14.7080   19.7810 O   0  0  0  0  0  0  0  0  0  0  0  0
  -29.1260  -18.1190   19.4950 C   0  0  0  0  0  2  0  0  0  0  0  0
  -29.8220  -18.0310   21.8220 C   0  0  0  0  0  2  0  0  0  0  0  0
  -29.8470  -16.7450   19.2470 C   0  0  0  0  0  2  0  0  0  0  0  0
  -30.5420  -16.6620   21.5580 C   0  0  0  0  0  2  0  0  0  0  0  0
  -29.7620  -18.9920   20.6060 C   0  0  0  0  0  3  0  0  0  0  0  0
  -30.0330  -15.8450   20.4240 N   0  0  0  0  0  0  0  0  0  0  0  0
  -25.2500  -13.9050   20.4790 C   0  0  0  0  0  0  0  0  0  0  0  0
  -24.1930  -13.1290   20.8700 C   0  0  0  0  0  0  0  0  0  0  0  0
  -24.6460  -11.7760   20.7950 C   0  0  0  0  0  0  0  0  0  0  0  0
  -26.2790  -13.0260   20.1880 N   0  0  0  0  0  0  0  0  0  0  0  0
  -25.9260  -11.7390   20.4400 N   0  0  0  0  0  0  0  0  0  0  0  0
  -23.9190  -10.5130   20.9860 C   0  0  0  0  0  0  0  0  0  0  0  0
  -24.3520   -9.5460   21.9210 C   0  0  0  0  0  3  0  0  0  0  0  0
  -23.6250   -8.3490   22.1010 C   0  0  0  0  0  3  0  0  0  0  0  0
  -22.4520   -8.1100   21.3450 C   0  0  0  0  0  0  0  0  0  0  0  0
  -22.0390   -9.0660   20.4010 C   0  0  0  0  0  3  0  0  0  0  0  0
  -22.7670  -10.2540   20.2200 C   0  0  0  0  0  3  0  0  0  0  0  0
  -21.6960   -6.9660   21.4350 O   0  0  0  0  0  0  0  0  0  0  0  0
  -21.6080   -6.2500   22.6010 C   0  0  0  0  0  0  0  0  0  0  0  0
  -21.1330   -6.8300   23.7980 C   0  0  0  0  0  3  0  0  0  0  0  0
  -20.9960   -6.0400   24.9560 C   0  0  0  0  0  3  0  0  0  0  0  0
  -21.3200   -4.6710   24.9190 C   0  0  0  0  0  0  0  0  0  0  0  0
  -21.7860   -4.0890   23.7260 C   0  0  0  0  0  3  0  0  0  0  0  0
  -21.9270   -4.8770   22.5700 C   0  0  0  0  0  0  0  0  0  0  0  0
  -22.3570   -4.3080   21.4190 F   0  0  0  0  0  0  0  0  0  0  0  0
  -21.1810   -3.9100   26.0290 F   0  0  0  0  0  0  0  0  0  0  0  0
  -22.8090  -13.6080   21.2010 C   0  0  0  0  0  0  0  0  0  0  0  0
  -22.1080  -12.8970   22.0790 N   0  0  0  0  0  0  0  0  0  0  0  0
  -22.3580  -14.6450   20.7190 O   0  0  0  0  0  0  0  0  0  0  0  0
  -22.4870  -12.0570   22.4920 H   0  0  0  0  0  0  0  0  0  0  0  0
  -21.1800  -13.1970   22.3430 H   0  0  0  0  0  0  0  0  0  0  0  0
  -25.4200  -15.2780   20.3240 N   0  0  0  0  0  0  0  0  0  0  0  0
  -24.6730  -15.9430   20.4830 H   0  0  0  0  0  0  0  0  0  0  0  0
  -26.2790  -15.7120   20.0100 H   0  0  0  0  0  0  0  0  0  0  0  0
  -27.9110  -25.0010   19.8780 C   0  0  0  0  0  2  0  0  0  0  0  0
  -28.3060  -26.4050   20.1870 O   0  0  0  0  0  0  0  0  0  0  0  0
  -24.6430  -31.8740   23.2150 C   0  0  0  0  0  0  0  0  0  0  0  0
  -27.2350  -27.3260   20.1060 C   0  0  0  0  0  0  0  0  0  0  0  0
  -23.4340  -30.4870   21.5750 C   0  0  0  0  0  3  0  0  0  0  0  0
  -24.8800  -28.9670   20.1230 C   0  0  0  0  0  0  0  0  0  0  0  0
  -25.9790  -30.8000   21.3900 C   0  0  0  0  0  2  0  0  0  0  0  0
  -26.0550  -29.4310   20.7260 C   0  0  0  0  0  0  0  0  0  0  0  0
  -27.2350  -28.6210   20.7180 C   0  0  0  0  0  3  0  0  0  0  0  0
  -26.0370  -26.9550   19.4370 C   0  0  0  0  0  3  0  0  0  0  0  0
  -24.8740  -27.7330   19.4690 C   0  0  0  0  0  3  0  0  0  0  0  0
  -23.6420  -29.8330   20.1870 C   0  0  0  0  0  2  0  0  0  0  0  0
  -24.7040  -31.0700   22.1150 N   0  0  0  0  0  0  0  0  0  0  0  0
  -23.5610  -32.1480   23.7550 O   0  0  0  0  0  0  0  0  0  0  0  0
  -22.7790  -29.4570   22.5280 C   0  0  0  0  0  0  0  0  0  0  0  0
  -21.4530  -29.2800   22.4060 N   0  0  0  0  0  0  0  0  0  0  0  0
  -23.4630  -28.8230   23.3350 O   0  0  0  0  0  0  0  0  0  0  0  0
  -20.9580  -29.8400   21.7260 H   0  0  0  0  0  0  0  0  0  0  0  0
  -18.0770  -28.0900   22.9300 C   0  0  0  0  0  0  0  0  0  0  0  0
  -20.6390  -28.3370   23.1760 C   0  0  0  0  0  3  0  0  0  0  0  0
  -20.7300  -26.9100   22.5880 C   0  0  0  0  0  2  0  0  0  0  0  0
  -19.6160  -26.6010   21.5830 C   0  0  0  0  0  2  0  0  0  0  0  0
  -18.2400  -26.7470   22.2400 C   0  0  0  0  0  2  0  0  0  0  0  0
  -19.2030  -28.8440   23.3560 C   0  0  0  0  0  0  0  0  0  0  0  0
  -18.9940  -30.1030   23.9610 C   0  0  0  0  0  3  0  0  0  0  0  0
  -17.6930  -30.6070   24.1460 C   0  0  0  0  0  3  0  0  0  0  0  0
  -16.5820  -29.8490   23.7380 C   0  0  0  0  0  3  0  0  0  0  0  0
  -16.7740  -28.5920   23.1370 C   0  0  0  0  0  3  0  0  0  0  0  0
  -25.9280  -32.5050   23.8320 C   0  0  0  0  0  3  0  0  0  0  0  0
  -25.6130  -33.8980   24.1820 N   0  0  0  0  0  0  0  0  0  0  0  0
  -25.9130  -34.9600   23.4240 C   0  0  0  0  0  0  0  0  0  0  0  0
  -26.5570  -34.8730   22.3750 O   0  0  0  0  0  0  0  0  0  0  0  0
  -25.0430  -34.0390   25.0040 H   0  0  0  0  0  0  0  0  0  0  0  0
  -24.1510  -36.7330   23.1370 C   0  0  0  0  0  1  0  0  0  0  0  0
  -25.4210  -36.3390   23.9060 C   0  0  0  0  0  3  0  0  0  0  0  0
  -27.5680  -37.2470   24.6770 C   0  0  0  0  0  1  0  0  0  0  0  0
  -26.4350  -37.4080   23.7700 N   0  0  0  0  0  0  0  0  0  0  0  0
  -26.0200  -38.3190   23.9400 H   0  0  0  0  0  0  0  0  0  0  0  0
  -26.4590  -31.7220   25.0940 C   0  0  1  0  0  0  0  0  0  0  0  0
  -25.3760  -31.4610   26.1680 C   0  0  0  0  0  1  0  0  0  0  0  0
  -27.0490  -30.3520   24.6830 C   0  0  0  0  0  1  0  0  0  0  0  0
  -27.6090  -32.5160   25.7560 C   0  0  0  0  0  1  0  0  0  0  0  0
  1  2  2  0
  2  7  1  0
  2  8  1  0
  3  7  1  0
  4  1  1  0
  6  1  1  0
  6  3  2  0
  7  5  1  0
  8  9  1  0
 10 23  1  0
 11 16  1  0
 12 13  1  0
 12 11  1  0
 14 13  1  0
 14 27  1  0
 14 15  1  0
 16 10  1  0
 16 15  1  0
 17 10  2  0
 18 22  1  0
 20 18  1  0
 20 23  1  0
 21 19  1  0
 22  8  1  0
 22 19  1  0
 23 21  1  0
 24 25  2  0
 25 44  1  0
 26 25  1  0
 26 29  1  0
 27 28  1  0
 27 24  1  0
 28 26  2  0
 29 30  1  0
 30 31  2  0
 32 35  1  0
 32 31  1  0
 33 32  2  0
 34 33  1  0
 34 29  2  0
 35 36  1  0
 36 37  1  0
 37 38  2  0
 39 38  1  0
 39 43  1  0
 40 39  2  0
 41 36  2  0
 41 40  1  0
 42 41  1  0
 44 45  1  0
 45 48  1  0
 45 47  1  0
 46 44  2  0
 49 24  1  0
 49 50  1  0
 51 49  1  0
 52 53  1  0
 52  3  1  0
 54 65  2  0
 55 53  1  0
 55 60  1  0
 56 64  1  0
 56 66  1  0
 57 63  1  0
 57 59  1  0
 58 64  1  0
 59 58  1  0
 60 59  2  0
 61 62  1  0
 61 55  2  0
 62 57  2  0
 63 56  1  0
 64 54  1  0
 66 68  2  0
 67 66  1  0
 69 67  1  0
 70 79  2  0
 70 75  1  0
 71 67  1  0
 71 75  1  0
 72 71  1  0
 73 74  1  0
 73 72  1  0
 74 70  1  0
 75 76  2  0
 76 77  1  0
 78 77  2  0
 79 78  1  0
 80 54  1  0
 80 81  1  0
 80 90  1  0
 81 84  1  0
 82 86  1  0
 82 81  1  0
 83 82  2  0
 86 85  1  0
 88 86  1  0
 88 89  1  0
 88 87  1  0
 90 93  1  1
 90 91  1  0
 92 90  1  0
M  ISO  4  10 100  23 100  52 101  53 101
M  END
>  <TORSDO>  (36) 
F 18

>  <SCORE>  (36) 
-14.474

>  <name>  (36) 
35

>  <ligand_id>  (36) 
35

>  <original_smiles>  (36) 
[H]c1c([H])c([H])c2c(c1[H])C([H])([H])C([H])([H])C([H])([H])C2([H])N([H])C(=O)C1([H])N(C(=O)C([H])(N([H])C(=O)C([H])(N([H])C([H])([H])[H])C([H])([H])[H])C(C([H])([H])[H])(C([H])([H])[H])C([H])([H])[H])C([H])([H])c2c([H])c(OC([H])([H])c3nc(C([H])([H])[H])c(N([H])C4([H])C([H])([H])C([H])([H])N(C(=O)N5C([H])([H])C([H])([H])C([H])([H])C([H])(n6nc(-c7c([H])c([H])c(Oc8c([H])c([H])c(F)c([H])c8F)c([H])c7[H])c(C(=O)N([H])[H])c6N([H])[H])C5([H])[H])C([H])([H])C4([H])[H])n3C([H])([H])[H])c([H])c([H])c2C1([H])[H]

>  <smiles>  (36) 
[H]c1c([H])c([H])c2c(c1[H])C([H])([H])C([H])([H])C([H])([H])C2([H])N([H])C(=O)C1([H])N(C(=O)C([H])(N([H])C(=O)C([H])(N([H])C([H])([H])[H])C([H])([H])[H])C(C([H])([H])[H])(C([H])([H])[H])C([H])([H])[H])C([H])([H])c2c([H])c(OC([H])([H])c3nc(C([H])([H])[H])c(N([H])C4([H])C([H])([H])C([H])([H])N(C(=O)N5C([H])([H])C([H])([H])C([H])([H])C([H])(n6nc(-c7c([H])c([H])c(Oc8c([H])c([H])c(F)c([H])c8F)c([H])c7[H])c(C(=O)N([H])[H])c6N([H])[H])C5([H])[H])C([H])([H])C4([H])[H])n3C([H])([H])[H])c([H])c([H])c2C1([H])[H]

$$$$
36:0:0
     RDKit          3D

 94103  0  0  1  0  0  0  0  0999 V2000
  -28.5950  -22.4570   21.9270 C   0  0  0  0  0  2  0  0  0  0  0  0
  -29.3590  -21.3430   22.6570 C   0  0  0  0  0  2  0  0  0  0  0  0
  -30.0200  -21.2010   20.3510 C   0  0  0  0  0  3  0  0  0  0  0  0
  -29.3800  -22.7310   20.6350 C   0  0  2  0  0  0  0  0  0  0  0  0
  -30.6360  -23.6050   20.9760 C   0  0  0  0  0  1  0  0  0  0  0  0
  -30.4140  -20.8730   21.7350 N   0  0  0  0  0  4  0  0  0  0  0  0
  -30.5900  -19.8880   21.8400 H   0  0  0  0  0  0  0  0  0  0  0  0
  -31.2610  -21.3750   21.9450 H   0  0  0  0  0  0  0  0  0  0  0  0
  -30.9940  -15.2160   19.8250 C   0  0  0  0  0  0  0  0  0  0  0  0
  -30.7210  -12.8670   18.9830 C   0  0  0  0  0  2  0  0  0  0  0  0
  -29.7360  -12.7840   17.8000 C   0  0  0  0  0  2  0  0  0  0  0  0
  -28.2960  -12.6110   18.3160 C   0  0  0  0  0  2  0  0  0  0  0  0
  -27.9530  -13.5930   19.4690 C   0  0  0  0  0  3  0  0  0  0  0  0
  -29.0660  -13.6440   20.5370 C   0  0  0  0  0  2  0  0  0  0  0  0
  -30.2970  -14.0160   19.8310 N   0  0  0  0  0  0  0  0  0  0  0  0
  -32.1930  -15.1460   19.5370 O   0  0  0  0  0  0  0  0  0  0  0  0
  -29.0950  -18.5710   20.7740 C   0  0  0  0  0  2  0  0  0  0  0  0
  -30.4340  -18.9950   18.7900 C   0  0  0  0  0  2  0  0  0  0  0  0
  -29.0890  -17.0440   20.2740 C   0  0  0  0  0  2  0  0  0  0  0  0
  -31.2000  -17.6920   19.3090 C   0  0  0  0  0  2  0  0  0  0  0  0
  -29.4270  -19.7610   19.7450 C   0  0  2  0  0  0  0  0  0  0  0  0
  -28.1460  -20.1020   18.9630 C   0  0  0  0  0  1  0  0  0  0  0  0
  -30.3940  -16.5060   19.7750 N   0  0  0  0  0  0  0  0  0  0  0  0
  -25.6470  -14.2140   20.3920 C   0  0  0  0  0  0  0  0  0  0  0  0
  -24.5830  -13.4550   20.7970 C   0  0  0  0  0  0  0  0  0  0  0  0
  -25.0000  -12.0940   20.6760 C   0  0  0  0  0  0  0  0  0  0  0  0
  -26.6430  -13.3170   20.0460 N   0  0  0  0  0  0  0  0  0  0  0  0
  -26.2660  -12.0320   20.2800 N   0  0  0  0  0  0  0  0  0  0  0  0
  -24.2450  -10.8470   20.8570 C   0  0  0  0  0  0  0  0  0  0  0  0
  -24.6510   -9.8670   21.7900 C   0  0  0  0  0  3  0  0  0  0  0  0
  -23.8960   -8.6860   21.9610 C   0  0  0  0  0  3  0  0  0  0  0  0
  -22.7220   -8.4760   21.1990 C   0  0  0  0  0  0  0  0  0  0  0  0
  -22.3360   -9.4440   20.2550 C   0  0  0  0  0  3  0  0  0  0  0  0
  -23.0900  -10.6170   20.0820 C   0  0  0  0  0  3  0  0  0  0  0  0
  -21.9430   -7.3480   21.2790 O   0  0  0  0  0  0  0  0  0  0  0  0
  -21.7910   -6.6600   22.4550 C   0  0  0  0  0  0  0  0  0  0  0  0
  -21.2530   -7.2690   23.6110 C   0  0  0  0  0  3  0  0  0  0  0  0
  -21.0480   -6.5080   24.7780 C   0  0  0  0  0  3  0  0  0  0  0  0
  -21.3710   -5.1370   24.7910 C   0  0  0  0  0  0  0  0  0  0  0  0
  -21.9020   -4.5280   23.6410 C   0  0  0  0  0  3  0  0  0  0  0  0
  -22.1090   -5.2870   22.4760 C   0  0  0  0  0  0  0  0  0  0  0  0
  -22.6000   -4.6890   21.3640 F   0  0  0  0  0  0  0  0  0  0  0  0
  -21.1670   -4.4040   25.9110 F   0  0  0  0  0  0  0  0  0  0  0  0
  -23.2230  -13.9630   21.1770 C   0  0  0  0  0  0  0  0  0  0  0  0
  -22.5360  -13.2610   22.0710 N   0  0  0  0  0  0  0  0  0  0  0  0
  -22.7820  -15.0160   20.7180 O   0  0  0  0  0  0  0  0  0  0  0  0
  -22.9100  -12.4100   22.4650 H   0  0  0  0  0  0  0  0  0  0  0  0
  -21.6250  -13.5810   22.3670 H   0  0  0  0  0  0  0  0  0  0  0  0
  -25.8400  -15.5850   20.2640 N   0  0  0  0  0  0  0  0  0  0  0  0
  -25.0990  -16.2500   20.4540 H   0  0  0  0  0  0  0  0  0  0  0  0
  -26.6770  -16.0180   19.8990 H   0  0  0  0  0  0  0  0  0  0  0  0
  -28.5630  -23.7940   19.6810 C   0  0  0  0  0  2  0  0  0  0  0  0
  -28.0120  -25.2190   20.3250 C   0  0  0  0  0  2  0  0  0  0  0  0
  -28.2110  -26.6280   19.7960 O   0  0  0  0  0  0  0  0  0  0  0  0
  -24.5610  -31.9440   23.2270 C   0  0  0  0  0  0  0  0  0  0  0  0
  -27.1210  -27.5350   19.8590 C   0  0  0  0  0  0  0  0  0  0  0  0
  -23.3260  -30.6160   21.5550 C   0  0  0  0  0  3  0  0  0  0  0  0
  -24.7510  -29.1620   19.9990 C   0  0  0  0  0  0  0  0  0  0  0  0
  -25.8580  -30.9710   21.3080 C   0  0  0  0  0  2  0  0  0  0  0  0
  -25.9380  -29.6230   20.5850 C   0  0  0  0  0  0  0  0  0  0  0  0
  -27.1280  -28.8250   20.4980 C   0  0  0  0  0  3  0  0  0  0  0  0
  -25.9130  -27.1540   19.2390 C   0  0  0  0  0  3  0  0  0  0  0  0
  -24.7450  -27.9380   19.3120 C   0  0  0  0  0  3  0  0  0  0  0  0
  -23.5080  -30.0210   20.1340 C   0  0  0  0  0  2  0  0  0  0  0  0
  -24.6030  -31.1930   22.0870 N   0  0  0  0  0  0  0  0  0  0  0  0
  -23.4900  -32.1730   23.8110 O   0  0  0  0  0  0  0  0  0  0  0  0
  -22.7090  -29.5380   22.4810 C   0  0  0  0  0  0  0  0  0  0  0  0
  -21.3950  -29.2930   22.3380 N   0  0  0  0  0  0  0  0  0  0  0  0
  -23.4130  -28.9280   23.2900 O   0  0  0  0  0  0  0  0  0  0  0  0
  -20.8800  -29.8410   21.6620 H   0  0  0  0  0  0  0  0  0  0  0  0
  -18.1060  -27.8300   22.7110 C   0  0  0  0  0  0  0  0  0  0  0  0
  -20.6230  -28.2910   23.0770 C   0  0  0  0  0  3  0  0  0  0  0  0
  -20.8590  -26.8740   22.5030 C   0  0  0  0  0  2  0  0  0  0  0  0
  -19.8250  -26.4710   21.4480 C   0  0  0  0  0  2  0  0  0  0  0  0
  -18.4120  -26.5030   22.0390 C   0  0  0  0  0  2  0  0  0  0  0  0
  -19.1430  -28.6760   23.1850 C   0  0  0  0  0  0  0  0  0  0  0  0
  -18.8020  -29.9130   23.7720 C   0  0  0  0  0  3  0  0  0  0  0  0
  -17.4550  -30.3080   23.8910 C   0  0  0  0  0  3  0  0  0  0  0  0
  -16.4310  -29.4600   23.4330 C   0  0  0  0  0  3  0  0  0  0  0  0
  -16.7570  -28.2220   22.8500 C   0  0  0  0  0  3  0  0  0  0  0  0
  -25.8510  -32.5670   23.8420 C   0  0  0  0  0  3  0  0  0  0  0  0
  -25.5540  -33.9680   24.1750 N   0  0  0  0  0  0  0  0  0  0  0  0
  -25.8930  -35.0210   23.4180 C   0  0  0  0  0  0  0  0  0  0  0  0
  -26.5600  -34.9130   22.3850 O   0  0  0  0  0  0  0  0  0  0  0  0
  -24.9640  -34.1270   24.9790 H   0  0  0  0  0  0  0  0  0  0  0  0
  -24.1870  -36.8350   23.0720 C   0  0  0  0  0  1  0  0  0  0  0  0
  -25.4230  -36.4130   23.8820 C   0  0  0  0  0  3  0  0  0  0  0  0
  -27.5650  -37.2740   24.7190 C   0  0  0  0  0  1  0  0  0  0  0  0
  -26.4680  -37.4550   23.7720 N   0  0  0  0  0  0  0  0  0  0  0  0
  -26.0720  -38.3790   23.9170 H   0  0  0  0  0  0  0  0  0  0  0  0
  -26.3670  -31.7940   25.1180 C   0  0  1  0  0  0  0  0  0  0  0  0
  -25.2710  -31.5500   26.1820 C   0  0  0  0  0  1  0  0  0  0  0  0
  -26.9550  -30.4210   24.7250 C   0  0  0  0  0  1  0  0  0  0  0  0
  -27.5110  -32.5910   25.7850 C   0  0  0  0  0  1  0  0  0  0  0  0
  1  2  1  0
  3  4  1  0
  3  6  1  0
  4  5  1  1
  4  1  1  0
  6  7  1  0
  6  8  1  0
  6  2  1  0
  9 15  1  0
 10 15  1  0
 11 12  1  0
 11 10  1  0
 13 12  1  0
 13 27  1  0
 13 14  1  0
 15 14  1  0
 16  9  2  0
 18 20  1  0
 18 21  1  0
 19 17  1  0
 20 23  1  0
 21 22  1  6
 21  3  1  0
 21 17  1  0
 23  9  1  0
 23 19  1  0
 24 25  2  0
 25 44  1  0
 26 25  1  0
 26 29  1  0
 27 28  1  0
 27 24  1  0
 28 26  2  0
 29 30  1  0
 30 31  2  0
 32 35  1  0
 32 31  1  0
 33 32  2  0
 34 33  1  0
 34 29  2  0
 35 36  1  0
 36 41  2  0
 36 37  1  0
 37 38  2  0
 38 39  1  0
 39 43  1  0
 40 39  2  0
 41 40  1  0
 42 41  1  0
 44 45  1  0
 45 48  1  0
 45 47  1  0
 46 44  2  0
 49 24  1  0
 49 50  1  0
 51 49  1  0
 52 53  1  0
 52  4  1  0
 54 56  1  0
 54 53  1  0
 55 66  2  0
 56 61  1  0
 57 65  1  0
 57 67  1  0
 58 64  1  0
 58 60  1  0
 59 65  1  0
 60 59  1  0
 61 60  2  0
 62 63  1  0
 62 56  2  0
 63 58  2  0
 64 57  1  0
 65 55  1  0
 67 69  2  0
 68 67  1  0
 70 68  1  0
 71 80  2  0
 71 76  1  0
 72 68  1  0
 72 76  1  0
 73 72  1  0
 74 75  1  0
 74 73  1  0
 75 71  1  0
 76 77  2  0
 77 78  1  0
 79 78  2  0
 80 79  1  0
 81 55  1  0
 81 82  1  0
 81 91  1  0
 82 85  1  0
 83 87  1  0
 83 82  1  0
 84 83  2  0
 87 86  1  0
 89 87  1  0
 89 90  1  0
 89 88  1  0
 91 94  1  1
 91 92  1  0
 93 91  1  0
M  ISO  4   9 100  23 100  53 101  54 101
M  END
>  <TORSDO>  (37) 
F 18

>  <SCORE>  (37) 
-14.172

>  <name>  (37) 
36

>  <ligand_id>  (37) 
36

>  <original_smiles>  (37) 
[H]c1c([H])c([H])c2c(c1[H])C([H])([H])C([H])([H])C([H])([H])C2([H])N([H])C(=O)C1([H])N(C(=O)C([H])(N([H])C(=O)C([H])(N([H])C([H])([H])[H])C([H])([H])[H])C(C([H])([H])[H])(C([H])([H])[H])C([H])([H])[H])C([H])([H])c2c([H])c(OC([H])([H])C([H])([H])C3(C([H])([H])[H])C([H])([H])C([H])([H])[N+]([H])([H])C3([H])C3(C([H])([H])[H])C([H])([H])C([H])([H])N(C(=O)N4C([H])([H])C([H])([H])C([H])([H])C([H])(n5nc(-c6c([H])c([H])c(Oc7c([H])c([H])c(F)c([H])c7F)c([H])c6[H])c(C(=O)N([H])[H])c5N([H])[H])C4([H])[H])C([H])([H])C3([H])[H])c([H])c([H])c2C1([H])[H]

>  <smiles>  (37) 
[H]c1c([H])c([H])c2c(c1[H])C([H])([H])C([H])([H])C([H])([H])C2([H])N([H])C(=O)C1([H])N(C(=O)C([H])(N([H])C(=O)C([H])(N([H])C([H])([H])[H])C([H])([H])[H])C(C([H])([H])[H])(C([H])([H])[H])C([H])([H])[H])C([H])([H])c2c([H])c(OC([H])([H])C([H])([H])C3(C([H])([H])[H])C([H])([H])C([H])([H])[N+]([H])([H])C3([H])C3(C([H])([H])[H])C([H])([H])C([H])([H])N(C(=O)N4C([H])([H])C([H])([H])C([H])([H])C([H])(n5nc(-c6c([H])c([H])c(Oc7c([H])c([H])c(F)c([H])c7F)c([H])c6[H])c(C(=O)N([H])[H])c5N([H])[H])C4([H])[H])C([H])([H])C3([H])[H])c([H])c([H])c2C1([H])[H]

$$$$
37:0:0
     RDKit          3D

 97107  0  0  1  0  0  0  0  0999 V2000
  -29.5580  -21.1120   20.5860 C   0  0  0  0  0  0  0  0  0  0  0  0
  -29.6540  -19.9010   19.7620 C   0  0  0  0  0  0  0  0  0  0  0  0
  -30.1690  -18.6350   20.2890 C   0  0  0  0  0  0  0  0  0  0  0  0
  -30.0640  -20.9480   21.9070 C   0  0  0  0  0  0  0  0  0  0  0  0
  -30.6270  -18.6830   21.6230 C   0  0  0  0  0  0  0  0  0  0  0  0
  -29.2220  -19.9470   18.3000 C   0  0  0  0  0  1  0  0  0  0  0  0
  -30.5520  -19.7880   22.3760 N   0  0  0  0  0  0  0  0  0  0  0  0
  -28.3050  -22.8360   18.8090 C   0  0  0  0  0  2  0  0  0  0  0  0
  -27.8590  -24.3330   18.7840 C   0  0  0  0  0  2  0  0  0  0  0  0
  -29.2730  -23.9540   20.6640 C   0  0  0  0  0  2  0  0  0  0  0  0
  -28.7850  -22.4960   20.2410 C   0  0  0  0  0  3  0  0  0  0  0  0
  -28.1550  -24.9480   20.1650 C   0  0  0  0  0  3  0  0  0  0  0  0
  -28.3420  -26.4360   20.1770 O   0  0  0  0  0  0  0  0  0  0  0  0
  -24.6470  -31.9030   23.1600 C   0  0  0  0  0  0  0  0  0  0  0  0
  -27.2230  -27.2950   20.1110 C   0  0  0  0  0  0  0  0  0  0  0  0
  -23.4190  -30.4720   21.5700 C   0  0  0  0  0  3  0  0  0  0  0  0
  -24.8490  -28.9140   20.1260 C   0  0  0  0  0  0  0  0  0  0  0  0
  -25.9560  -30.7950   21.3320 C   0  0  0  0  0  2  0  0  0  0  0  0
  -26.0300  -29.4110   20.6960 C   0  0  0  0  0  0  0  0  0  0  0  0
  -27.2170  -28.6130   20.6770 C   0  0  0  0  0  3  0  0  0  0  0  0
  -26.0210  -26.8700   19.4980 C   0  0  0  0  0  3  0  0  0  0  0  0
  -24.8510  -27.6510   19.5150 C   0  0  0  0  0  3  0  0  0  0  0  0
  -23.6050  -29.7790   20.1950 C   0  0  0  0  0  2  0  0  0  0  0  0
  -24.6930  -31.0760   22.0740 N   0  0  0  0  0  0  0  0  0  0  0  0
  -23.5710  -32.1840   23.7110 O   0  0  0  0  0  0  0  0  0  0  0  0
  -22.7810  -29.4650   22.5590 C   0  0  0  0  0  0  0  0  0  0  0  0
  -21.4630  -29.2430   22.4290 N   0  0  0  0  0  0  0  0  0  0  0  0
  -23.4720  -28.8870   23.4010 O   0  0  0  0  0  0  0  0  0  0  0  0
  -20.9650  -29.7580   21.7170 H   0  0  0  0  0  0  0  0  0  0  0  0
  -18.1350  -27.8980   22.8910 C   0  0  0  0  0  0  0  0  0  0  0  0
  -20.6670  -28.3080   23.2240 C   0  0  0  0  0  3  0  0  0  0  0  0
  -20.8640  -26.8570   22.7310 C   0  0  0  0  0  2  0  0  0  0  0  0
  -19.8150  -26.4220   21.7030 C   0  0  0  0  0  2  0  0  0  0  0  0
  -18.4040  -26.5260   22.2940 C   0  0  0  0  0  2  0  0  0  0  0  0
  -19.1990  -28.7410   23.3110 C   0  0  0  0  0  0  0  0  0  0  0  0
  -18.8970  -30.0190   23.8280 C   0  0  0  0  0  3  0  0  0  0  0  0
  -17.5650  -30.4590   23.9310 C   0  0  0  0  0  3  0  0  0  0  0  0
  -16.5140  -29.6160   23.5290 C   0  0  0  0  0  3  0  0  0  0  0  0
  -16.8000  -28.3380   23.0140 C   0  0  0  0  0  3  0  0  0  0  0  0
  -25.9360  -32.5550   23.7460 C   0  0  0  0  0  3  0  0  0  0  0  0
  -26.5120  -31.7780   24.9940 C   0  0  1  0  0  0  0  0  0  0  0  0
  -25.4550  -31.4860   26.0860 C   0  0  0  0  0  1  0  0  0  0  0  0
  -27.1270  -30.4260   24.5660 C   0  0  0  0  0  1  0  0  0  0  0  0
  -27.6590  -32.5960   25.6330 C   0  0  0  0  0  1  0  0  0  0  0  0
  -25.6050  -33.9400   24.1090 N   0  0  0  0  0  0  0  0  0  0  0  0
  -25.9150  -35.0170   23.3730 C   0  0  0  0  0  0  0  0  0  0  0  0
  -26.5770  -34.9470   22.3340 O   0  0  0  0  0  0  0  0  0  0  0  0
  -25.0080  -34.0680   24.9130 H   0  0  0  0  0  0  0  0  0  0  0  0
  -24.1600  -36.7960   23.0800 C   0  0  0  0  0  1  0  0  0  0  0  0
  -25.4130  -36.3870   23.8690 C   0  0  0  0  0  3  0  0  0  0  0  0
  -27.5430  -37.2810   24.7010 C   0  0  0  0  0  1  0  0  0  0  0  0
  -26.4290  -37.4570   23.7720 N   0  0  0  0  0  0  0  0  0  0  0  0
  -26.0140  -38.3680   23.9460 H   0  0  0  0  0  0  0  0  0  0  0  0
  -31.3200  -22.9140   23.0810 C   0  0  0  0  0  2  0  0  0  0  0  0
  -31.0080  -21.9470   24.1880 C   0  0  0  0  0  2  0  0  0  0  0  0
  -30.0990  -22.0180   22.9690 C   0  0  0  0  0  3  0  0  0  0  0  0
  -30.2420  -16.6770   23.1310 C   0  0  0  0  0  1  0  0  0  0  0  0
  -31.2740  -17.5260   22.3720 C   0  0  0  0  0  2  0  0  0  0  0  0
  -30.3210  -17.2970   19.4290 C   0  0  0  0  0  2  0  0  0  0  0  0
  -30.7980  -14.7680   19.7160 C   0  0  0  0  0  0  0  0  0  0  0  0
  -30.5070  -12.4880   18.7800 C   0  0  0  0  0  2  0  0  0  0  0  0
  -29.4950  -12.5630   17.6150 C   0  0  0  0  0  2  0  0  0  0  0  0
  -28.0560  -12.4070   18.1420 C   0  0  0  0  0  2  0  0  0  0  0  0
  -27.7630  -13.3150   19.3650 C   0  0  0  0  0  3  0  0  0  0  0  0
  -28.8920  -13.2480   20.4200 C   0  0  0  0  0  2  0  0  0  0  0  0
  -30.1560  -13.5560   19.7410 N   0  0  0  0  0  0  0  0  0  0  0  0
  -31.9450  -14.8630   19.2710 O   0  0  0  0  0  0  0  0  0  0  0  0
  -30.0500  -15.8970   19.9520 N   0  0  0  0  0  0  0  0  0  0  0  0
  -29.1180  -15.7270   20.2990 H   0  0  0  0  0  0  0  0  0  0  0  0
  -25.4420  -13.9180   20.2760 C   0  0  0  0  0  0  0  0  0  0  0  0
  -24.3950  -13.1470   20.7020 C   0  0  0  0  0  0  0  0  0  0  0  0
  -24.8350  -11.7930   20.6050 C   0  0  0  0  0  0  0  0  0  0  0  0
  -26.4540  -13.0320   19.9440 N   0  0  0  0  0  0  0  0  0  0  0  0
  -26.1000  -11.7460   20.2050 N   0  0  0  0  0  0  0  0  0  0  0  0
  -24.1060  -10.5340   20.8140 C   0  0  0  0  0  0  0  0  0  0  0  0
  -24.5520   -9.5660   21.7390 C   0  0  0  0  0  3  0  0  0  0  0  0
  -23.8220   -8.3750   21.9370 C   0  0  0  0  0  3  0  0  0  0  0  0
  -22.6320   -8.1410   21.2090 C   0  0  0  0  0  0  0  0  0  0  0  0
  -22.2050   -9.0980   20.2710 C   0  0  0  0  0  3  0  0  0  0  0  0
  -22.9350  -10.2820   20.0710 C   0  0  0  0  0  3  0  0  0  0  0  0
  -21.8710   -7.0030   21.3160 O   0  0  0  0  0  0  0  0  0  0  0  0
  -21.7860   -6.3020   22.4930 C   0  0  0  0  0  0  0  0  0  0  0  0
  -21.3360   -6.9040   23.6880 C   0  0  0  0  0  3  0  0  0  0  0  0
  -21.1980   -6.1320   24.8580 C   0  0  0  0  0  3  0  0  0  0  0  0
  -21.5020   -4.7570   24.8340 C   0  0  0  0  0  0  0  0  0  0  0  0
  -21.9450   -4.1550   23.6430 C   0  0  0  0  0  3  0  0  0  0  0  0
  -22.0840   -4.9250   22.4760 C   0  0  0  0  0  0  0  0  0  0  0  0
  -22.4930   -4.3350   21.3260 F   0  0  0  0  0  0  0  0  0  0  0  0
  -21.3620   -4.0110   25.9560 F   0  0  0  0  0  0  0  0  0  0  0  0
  -23.0270  -13.6350   21.0850 C   0  0  0  0  0  0  0  0  0  0  0  0
  -22.3610  -12.9320   21.9950 N   0  0  0  0  0  0  0  0  0  0  0  0
  -22.5640  -14.6720   20.6140 O   0  0  0  0  0  0  0  0  0  0  0  0
  -22.7560  -12.0940   22.3950 H   0  0  0  0  0  0  0  0  0  0  0  0
  -21.4480  -13.2380   22.2970 H   0  0  0  0  0  0  0  0  0  0  0  0
  -25.6110  -15.2900   20.1180 N   0  0  0  0  0  0  0  0  0  0  0  0
  -24.8560  -15.9460   20.2870 H   0  0  0  0  0  0  0  0  0  0  0  0
  -26.4270  -15.7270   19.7100 H   0  0  0  0  0  0  0  0  0  0  0  0
  1  4  1  0
  2  3  1  0
  2  1  2  0
  3  5  2  0
  4  7  2  0
  4 56  1  0
  5 58  1  0
  5  7  1  0
  6  2  1  0
  8 11  1  0
  9  8  1  0
  9 12  1  0
 11  1  1  0
 11 10  1  0
 12 13  1  0
 12 10  1  0
 14 25  2  0
 15 13  1  0
 15 20  1  0
 16 24  1  0
 16 26  1  0
 17 23  1  0
 17 19  1  0
 18 24  1  0
 19 18  1  0
 20 19  2  0
 21 22  1  0
 21 15  2  0
 22 17  2  0
 23 16  1  0
 24 14  1  0
 26 28  2  0
 27 26  1  0
 29 27  1  0
 30 39  2  0
 30 35  1  0
 31 27  1  0
 31 35  1  0
 32 31  1  0
 33 34  1  0
 33 32  1  0
 34 30  1  0
 35 36  2  0
 36 37  1  0
 38 37  2  0
 39 38  1  0
 40 14  1  0
 40 45  1  0
 40 41  1  0
 41 44  1  1
 41 42  1  0
 43 41  1  0
 45 48  1  0
 46 50  1  0
 46 45  1  0
 47 46  2  0
 50 49  1  0
 52 50  1  0
 52 53  1  0
 52 51  1  0
 54 55  1  0
 56 54  1  0
 56 55  1  0
 58 57  1  0
 59 68  1  0
 59  3  1  0
 60 66  1  0
 60 68  1  0
 61 66  1  0
 62 63  1  0
 62 61  1  0
 64 63  1  0
 64 73  1  0
 64 65  1  0
 66 65  1  0
 67 60  2  0
 68 69  1  0
 70 71  2  0
 71 90  1  0
 72 71  1  0
 72 75  1  0
 73 74  1  0
 73 70  1  0
 74 72  2  0
 75 76  1  0
 76 77  2  0
 78 81  1  0
 78 77  1  0
 79 78  2  0
 80 79  1  0
 80 75  2  0
 81 82  1  0
 82 83  1  0
 83 84  2  0
 85 84  1  0
 85 89  1  0
 86 85  2  0
 87 82  2  0
 87 86  1  0
 88 87  1  0
 90 91  1  0
 91 94  1  0
 91 93  1  0
 92 90  2  0
 95 70  1  0
 95 96  1  0
 97 95  1  0
M  ISO  4  12 101  13 101  60 100  68 100
M  END
>  <TORSDO>  (38) 
F 20

>  <SCORE>  (38) 
-11.483

>  <name>  (38) 
37

>  <ligand_id>  (38) 
37

>  <original_smiles>  (38) 
[H]c1c([H])c([H])c2c(c1[H])C([H])([H])C([H])([H])C([H])([H])C2([H])N([H])C(=O)C1([H])N(C(=O)C([H])(N([H])C(=O)C([H])(N([H])C([H])([H])[H])C([H])([H])[H])C(C([H])([H])[H])(C([H])([H])[H])C([H])([H])[H])C([H])([H])c2c([H])c(OC3([H])C([H])([H])C([H])([H])C([H])(c4c(C5([H])C([H])([H])C5([H])[H])nc(C([H])([H])C([H])([H])[H])c(C([H])([H])N([H])C(=O)N5C([H])([H])C([H])([H])C([H])([H])C([H])(n6nc(-c7c([H])c([H])c(Oc8c([H])c([H])c(F)c([H])c8F)c([H])c7[H])c(C(=O)N([H])[H])c6N([H])[H])C5([H])[H])c4C([H])([H])[H])C3([H])[H])c([H])c([H])c2C1([H])[H]

>  <smiles>  (38) 
[H]c1c([H])c([H])c2c(c1[H])C([H])([H])C([H])([H])C([H])([H])C2([H])N([H])C(=O)C1([H])N(C(=O)C([H])(N([H])C(=O)C([H])(N([H])C([H])([H])[H])C([H])([H])[H])C(C([H])([H])[H])(C([H])([H])[H])C([H])([H])[H])C([H])([H])c2c([H])c(OC3([H])C([H])([H])C([H])([H])C([H])(c4c(C5([H])C([H])([H])C5([H])[H])nc(C([H])([H])C([H])([H])[H])c(C([H])([H])N([H])C(=O)N5C([H])([H])C([H])([H])C([H])([H])C([H])(n6nc(-c7c([H])c([H])c(Oc8c([H])c([H])c(F)c([H])c8F)c([H])c7[H])c(C(=O)N([H])[H])c6N([H])[H])C5([H])[H])c4C([H])([H])[H])C3([H])[H])c([H])c([H])c2C1([H])[H]

$$$$
38:0:0
     RDKit          3D

 93102  0  0  1  0  0  0  0  0999 V2000
  -30.1430  -21.4000   20.9770 C   0  0  0  0  0  0  0  0  0  0  0  0
  -29.0210  -21.9670   20.3450 C   0  0  0  0  0  0  0  0  0  0  0  0
  -30.4860  -19.9950   20.9240 C   0  0  0  0  0  0  0  0  0  0  0  0
  -28.2560  -20.9800   19.6410 C   0  0  0  0  0  0  0  0  0  0  0  0
  -29.6940  -19.0640   20.1700 C   0  0  0  0  0  0  0  0  0  0  0  0
  -30.8940  -22.4790   21.7210 C   0  0  0  0  0  2  0  0  0  0  0  0
  -30.2370  -23.8210   21.2890 C   0  0  0  0  0  2  0  0  0  0  0  0
  -28.8110  -23.5400   20.7440 C   0  0  2  0  0  0  0  0  0  0  0  0
  -31.7360  -19.5160   21.6490 C   0  0  0  0  0  1  0  0  0  0  0  0
  -26.9700  -21.3740   18.9440 C   0  0  0  0  0  1  0  0  0  0  0  0
  -27.8210  -23.5550   21.9240 C   0  0  0  0  0  1  0  0  0  0  0  0
  -28.5960  -19.6260   19.5480 N   0  0  0  0  0  0  0  0  0  0  0  0
  -30.2200  -17.5660   19.7440 C   0  0  0  0  0  2  0  0  0  0  0  0
  -30.6400  -14.9650   20.1610 C   0  0  0  0  0  0  0  0  0  0  0  0
  -30.4450  -12.6480   19.1960 C   0  0  0  0  0  2  0  0  0  0  0  0
  -29.4990  -12.6740   17.9730 C   0  0  0  0  0  2  0  0  0  0  0  0
  -28.0380  -12.4840   18.4200 C   0  0  0  0  0  2  0  0  0  0  0  0
  -27.6660  -13.3850   19.6270 C   0  0  0  0  0  3  0  0  0  0  0  0
  -28.7350  -13.3450   20.7410 C   0  0  0  0  0  2  0  0  0  0  0  0
  -30.0130  -13.7270   20.1270 N   0  0  0  0  0  0  0  0  0  0  0  0
  -31.8240  -15.0150   19.8180 O   0  0  0  0  0  0  0  0  0  0  0  0
  -29.9030  -16.1560   20.3330 N   0  0  0  0  0  0  0  0  0  0  0  0
  -28.9520  -16.0380   20.6440 H   0  0  0  0  0  0  0  0  0  0  0  0
  -25.2880  -13.9740   20.3690 C   0  0  0  0  0  0  0  0  0  0  0  0
  -24.2270  -13.2030   20.7560 C   0  0  0  0  0  0  0  0  0  0  0  0
  -24.6910  -11.8520   20.7380 C   0  0  0  0  0  0  0  0  0  0  0  0
  -26.3300  -13.0940   20.1350 N   0  0  0  0  0  0  0  0  0  0  0  0
  -25.9800  -11.8130   20.4210 N   0  0  0  0  0  0  0  0  0  0  0  0
  -23.9670  -10.5910   20.9470 C   0  0  0  0  0  0  0  0  0  0  0  0
  -24.4020   -9.6360   21.8900 C   0  0  0  0  0  3  0  0  0  0  0  0
  -23.6770   -8.4400   22.0860 C   0  0  0  0  0  3  0  0  0  0  0  0
  -22.5010   -8.1930   21.3380 C   0  0  0  0  0  0  0  0  0  0  0  0
  -22.0840   -9.1370   20.3850 C   0  0  0  0  0  3  0  0  0  0  0  0
  -22.8100  -10.3230   20.1860 C   0  0  0  0  0  3  0  0  0  0  0  0
  -21.7470   -7.0490   21.4430 O   0  0  0  0  0  0  0  0  0  0  0  0
  -21.7050   -6.3190   22.6040 C   0  0  0  0  0  0  0  0  0  0  0  0
  -21.2750   -6.8840   23.8240 C   0  0  0  0  0  3  0  0  0  0  0  0
  -21.1800   -6.0810   24.9780 C   0  0  0  0  0  3  0  0  0  0  0  0
  -21.5050   -4.7120   24.9120 C   0  0  0  0  0  0  0  0  0  0  0  0
  -21.9270   -4.1460   23.6960 C   0  0  0  0  0  3  0  0  0  0  0  0
  -22.0240   -4.9470   22.5460 C   0  0  0  0  0  0  0  0  0  0  0  0
  -22.4120   -4.3920   21.3720 F   0  0  0  0  0  0  0  0  0  0  0  0
  -21.4070   -3.9380   26.0190 F   0  0  0  0  0  0  0  0  0  0  0  0
  -22.8310  -13.6830   21.0280 C   0  0  0  0  0  0  0  0  0  0  0  0
  -22.1080  -12.9980   21.9060 N   0  0  0  0  0  0  0  0  0  0  0  0
  -22.3900  -14.7020   20.4960 O   0  0  0  0  0  0  0  0  0  0  0  0
  -22.4790  -12.1750   22.3580 H   0  0  0  0  0  0  0  0  0  0  0  0
  -21.1710  -13.3010   22.1310 H   0  0  0  0  0  0  0  0  0  0  0  0
  -25.4510  -15.3420   20.1710 N   0  0  0  0  0  0  0  0  0  0  0  0
  -24.6830  -15.9960   20.2720 H   0  0  0  0  0  0  0  0  0  0  0  0
  -26.2860  -15.7700   19.7930 H   0  0  0  0  0  0  0  0  0  0  0  0
  -28.3440  -24.8090   19.7690 C   0  0  0  0  0  2  0  0  0  0  0  0
  -28.3910  -26.3030   20.1910 O   0  0  0  0  0  0  0  0  0  0  0  0
  -24.6430  -31.8620   23.1660 C   0  0  0  0  0  0  0  0  0  0  0  0
  -27.3040  -27.2390   20.0930 C   0  0  0  0  0  0  0  0  0  0  0  0
  -23.4740  -30.4740   21.4970 C   0  0  0  0  0  3  0  0  0  0  0  0
  -24.9520  -28.9420   20.0600 C   0  0  0  0  0  0  0  0  0  0  0  0
  -26.0230  -30.7760   21.3610 C   0  0  0  0  0  2  0  0  0  0  0  0
  -26.1170  -29.3960   20.6910 C   0  0  0  0  0  0  0  0  0  0  0  0
  -27.2900  -28.5580   20.6970 C   0  0  0  0  0  3  0  0  0  0  0  0
  -26.1180  -26.8880   19.4100 C   0  0  0  0  0  3  0  0  0  0  0  0
  -24.9650  -27.7020   19.4050 C   0  0  0  0  0  3  0  0  0  0  0  0
  -23.7140  -29.8190   20.1110 C   0  0  0  0  0  2  0  0  0  0  0  0
  -24.7320  -31.0590   22.0630 N   0  0  0  0  0  0  0  0  0  0  0  0
  -23.5500  -32.1280   23.6870 O   0  0  0  0  0  0  0  0  0  0  0  0
  -22.8000  -29.4450   22.4390 C   0  0  0  0  0  0  0  0  0  0  0  0
  -21.4710  -29.2860   22.3180 N   0  0  0  0  0  0  0  0  0  0  0  0
  -23.4750  -28.7940   23.2400 O   0  0  0  0  0  0  0  0  0  0  0  0
  -20.9840  -29.8640   21.6480 H   0  0  0  0  0  0  0  0  0  0  0  0
  -18.0800  -28.1270   22.8450 C   0  0  0  0  0  0  0  0  0  0  0  0
  -20.6470  -28.3350   23.0700 C   0  0  0  0  0  3  0  0  0  0  0  0
  -20.7120  -26.9240   22.4420 C   0  0  0  0  0  2  0  0  0  0  0  0
  -19.5850  -26.6550   21.4410 C   0  0  0  0  0  2  0  0  0  0  0  0
  -18.2190  -26.8010   22.1170 C   0  0  0  0  0  2  0  0  0  0  0  0
  -19.2200  -28.8550   23.2780 C   0  0  0  0  0  0  0  0  0  0  0  0
  -19.0350  -30.0970   23.9230 C   0  0  0  0  0  3  0  0  0  0  0  0
  -17.7420  -30.6120   24.1360 C   0  0  0  0  0  3  0  0  0  0  0  0
  -16.6170  -29.8800   23.7190 C   0  0  0  0  0  3  0  0  0  0  0  0
  -16.7860  -28.6390   23.0790 C   0  0  0  0  0  3  0  0  0  0  0  0
  -25.9090  -32.5030   23.8140 C   0  0  0  0  0  3  0  0  0  0  0  0
  -25.5800  -33.8940   24.1590 N   0  0  0  0  0  0  0  0  0  0  0  0
  -25.9020  -34.9610   23.4160 C   0  0  0  0  0  0  0  0  0  0  0  0
  -26.5740  -34.8790   22.3840 O   0  0  0  0  0  0  0  0  0  0  0  0
  -24.9840  -34.0310   24.9610 H   0  0  0  0  0  0  0  0  0  0  0  0
  -24.1520  -36.7410   23.0900 C   0  0  0  0  0  1  0  0  0  0  0  0
  -25.4000  -36.3400   23.8930 C   0  0  0  0  0  3  0  0  0  0  0  0
  -27.5240  -37.2440   24.7300 C   0  0  0  0  0  1  0  0  0  0  0  0
  -26.4210  -37.4060   23.7880 N   0  0  0  0  0  0  0  0  0  0  0  0
  -26.0040  -38.3200   23.9430 H   0  0  0  0  0  0  0  0  0  0  0  0
  -26.4130  -31.7250   25.0920 C   0  0  1  0  0  0  0  0  0  0  0  0
  -25.3070  -31.4710   26.1430 C   0  0  0  0  0  1  0  0  0  0  0  0
  -27.0120  -30.3540   24.7020 C   0  0  0  0  0  1  0  0  0  0  0  0
  -27.5490  -32.5220   25.7760 C   0  0  0  0  0  1  0  0  0  0  0  0
  1  6  1  0
  2  8  1  0
  2  1  2  0
  3  1  1  0
  3  9  1  0
  4  2  1  0
  5  3  2  0
  7  6  1  0
  8  7  1  0
  8 11  1  1
 10  4  1  0
 12  4  2  0
 12  5  1  0
 13  5  1  0
 13 22  1  0
 14 22  1  0
 15 20  1  0
 16 17  1  0
 16 15  1  0
 18 17  1  0
 18 27  1  0
 18 19  1  0
 20 14  1  0
 20 19  1  0
 21 14  2  0
 22 23  1  0
 24 25  2  0
 25 44  1  0
 26 25  1  0
 26 29  1  0
 27 24  1  0
 27 28  1  0
 28 26  2  0
 29 30  1  0
 30 31  2  0
 32 35  1  0
 32 31  1  0
 33 32  2  0
 34 33  1  0
 34 29  2  0
 35 36  1  0
 36 37  1  0
 37 38  2  0
 39 38  1  0
 39 43  1  0
 40 39  2  0
 41 36  2  0
 41 40  1  0
 42 41  1  0
 44 45  1  0
 45 48  1  0
 45 47  1  0
 46 44  2  0
 49 50  1  0
 49 24  1  0
 51 49  1  0
 52 53  1  0
 52  8  1  0
 54 65  2  0
 55 53  1  0
 55 60  1  0
 56 64  1  0
 56 66  1  0
 57 63  1  0
 57 59  1  0
 58 64  1  0
 59 60  2  0
 59 58  1  0
 61 55  2  0
 62 61  1  0
 62 57  2  0
 63 56  1  0
 64 54  1  0
 66 68  2  0
 67 66  1  0
 69 67  1  0
 70 79  2  0
 70 75  1  0
 71 67  1  0
 71 75  1  0
 72 71  1  0
 73 74  1  0
 73 72  1  0
 74 70  1  0
 75 76  2  0
 76 77  1  0
 78 77  2  0
 79 78  1  0
 80 54  1  0
 80 81  1  0
 80 90  1  0
 81 84  1  0
 82 86  1  0
 82 81  1  0
 83 82  2  0
 86 85  1  0
 88 86  1  0
 88 89  1  0
 88 87  1  0
 90 93  1  1
 90 91  1  0
 92 90  1  0
M  ISO  4  14 100  22 100  52 101  53 101
M  END
>  <TORSDO>  (39) 
F 18

>  <SCORE>  (39) 
-14.910

>  <name>  (39) 
38

>  <ligand_id>  (39) 
38

>  <original_smiles>  (39) 
[H]c1c([H])c([H])c2c(c1[H])C([H])([H])C([H])([H])C([H])([H])C2([H])N([H])C(=O)C1([H])N(C(=O)C([H])(N([H])C(=O)C([H])(N([H])C([H])([H])[H])C([H])([H])[H])C(C([H])([H])[H])(C([H])([H])[H])C([H])([H])[H])C([H])([H])c2c([H])c(OC([H])([H])C3(C([H])([H])[H])c4c(C([H])([H])[H])nc(C([H])([H])N([H])C(=O)N5C([H])([H])C([H])([H])C([H])([H])C([H])(n6nc(-c7c([H])c([H])c(Oc8c([H])c([H])c(F)c([H])c8F)c([H])c7[H])c(C(=O)N([H])[H])c6N([H])[H])C5([H])[H])c(C([H])([H])[H])c4C([H])([H])C3([H])[H])c([H])c([H])c2C1([H])[H]

>  <smiles>  (39) 
[H]c1c([H])c([H])c2c(c1[H])C([H])([H])C([H])([H])C([H])([H])C2([H])N([H])C(=O)C1([H])N(C(=O)C([H])(N([H])C(=O)C([H])(N([H])C([H])([H])[H])C([H])([H])[H])C(C([H])([H])[H])(C([H])([H])[H])C([H])([H])[H])C([H])([H])c2c([H])c(OC([H])([H])C3(C([H])([H])[H])c4c(C([H])([H])[H])nc(C([H])([H])N([H])C(=O)N5C([H])([H])C([H])([H])C([H])([H])C([H])(n6nc(-c7c([H])c([H])c(Oc8c([H])c([H])c(F)c([H])c8F)c([H])c7[H])c(C(=O)N([H])[H])c6N([H])[H])C5([H])[H])c(C([H])([H])[H])c4C([H])([H])C3([H])[H])c([H])c([H])c2C1([H])[H]

$$$$
39:0:0
     RDKit          3D

106117  0  0  1  0  0  0  0  0999 V2000
  -31.1400  -18.4080   19.8550 C   0  0  0  0  0  0  0  0  0  0  0  0
  -30.3980  -20.6940   20.1940 C   0  0  0  0  0  0  0  0  0  0  0  0
  -31.3550  -19.6770   20.4900 C   0  0  0  0  0  0  0  0  0  0  0  0
  -29.8390  -18.0770   19.3830 C   0  0  0  0  0  3  0  0  0  0  0  0
  -29.2000  -20.3880   19.4920 C   0  0  0  0  0  0  0  0  0  0  0  0
  -30.6960  -22.1450   20.5850 C   0  0  0  0  0  1  0  0  0  0  0  0
  -28.9480  -19.0860   19.2070 N   0  0  0  0  0  0  0  0  0  0  0  0
  -28.0680  -18.8680   18.7390 H   0  0  0  0  0  0  0  0  0  0  0  0
  -33.6340  -19.2930   21.6390 C   0  0  0  0  0  2  0  0  0  0  0  0
  -32.0600  -20.0410   22.7970 C   0  0  0  0  0  2  0  0  0  0  0  0
  -33.5600  -19.8630   23.0650 C   0  0  0  0  0  3  0  0  0  0  0  0
  -32.4220  -20.0660   21.3820 N   0  0  0  0  0  0  0  0  0  0  0  0
  -34.2530  -21.1580   23.2670 N   0  0  0  0  0  4  0  0  0  0  0  0
  -33.7230  -21.8550   22.7680 H   0  0  0  0  0  0  0  0  0  0  0  0
  -34.2140  -21.3980   24.2430 H   0  0  0  0  0  0  0  0  0  0  0  0
  -36.6080  -21.8160   23.7890 C   0  0  0  0  0  2  0  0  0  0  0  0
  -36.6250  -20.3190   23.5490 C   0  0  0  0  0  2  0  0  0  0  0  0
  -35.6540  -21.1970   22.7900 C   0  0  0  0  0  3  0  0  0  0  0  0
  -33.4460  -17.9680   18.6580 C   0  0  0  0  0  2  0  0  0  0  0  0
  -32.4940  -16.9630   18.1040 C   0  0  0  0  0  2  0  0  0  0  0  0
  -32.2870  -17.4810   19.5250 C   0  0  0  0  0  3  0  0  0  0  0  0
  -29.4110  -16.6680   18.8950 C   0  0  0  0  0  2  0  0  0  0  0  0
  -30.0670  -14.4330   19.8060 C   0  0  0  0  0  0  0  0  0  0  0  0
  -29.8420  -12.0800   19.1360 C   0  0  0  0  0  2  0  0  0  0  0  0
  -28.8550  -12.0240   17.9540 C   0  0  0  0  0  2  0  0  0  0  0  0
  -27.4190  -11.8480   18.4810 C   0  0  0  0  0  2  0  0  0  0  0  0
  -27.0650  -12.8610   19.6030 C   0  0  0  0  0  3  0  0  0  0  0  0
  -28.1810  -12.9710   20.6690 C   0  0  0  0  0  2  0  0  0  0  0  0
  -29.4520  -13.2270   19.9770 N   0  0  0  0  0  0  0  0  0  0  0  0
  -31.1970  -14.5160   19.3390 O   0  0  0  0  0  0  0  0  0  0  0  0
  -29.2940  -15.5400   19.8680 N   0  0  0  0  0  0  0  0  0  0  0  0
  -28.3940  -15.4240   20.3070 H   0  0  0  0  0  0  0  0  0  0  0  0
  -24.7270  -13.4200   20.5180 C   0  0  0  0  0  0  0  0  0  0  0  0
  -23.7080  -12.6300   20.9730 C   0  0  0  0  0  0  0  0  0  0  0  0
  -24.1870  -11.2870   20.9020 C   0  0  0  0  0  0  0  0  0  0  0  0
  -25.7650  -12.5580   20.2010 N   0  0  0  0  0  0  0  0  0  0  0  0
  -25.4500  -11.2700   20.4920 N   0  0  0  0  0  0  0  0  0  0  0  0
  -23.4980  -10.0140   21.1510 C   0  0  0  0  0  0  0  0  0  0  0  0
  -24.0230   -9.0520   22.0430 C   0  0  0  0  0  3  0  0  0  0  0  0
  -23.3350   -7.8420   22.2790 C   0  0  0  0  0  3  0  0  0  0  0  0
  -22.1050   -7.5890   21.6270 C   0  0  0  0  0  0  0  0  0  0  0  0
  -21.5970   -8.5390   20.7220 C   0  0  0  0  0  3  0  0  0  0  0  0
  -22.2860   -9.7400   20.4840 C   0  0  0  0  0  3  0  0  0  0  0  0
  -21.3750   -6.4360   21.7800 O   0  0  0  0  0  0  0  0  0  0  0  0
  -21.4710   -5.6640   22.9110 C   0  0  0  0  0  0  0  0  0  0  0  0
  -21.1450   -6.1720   24.1870 C   0  0  0  0  0  3  0  0  0  0  0  0
  -21.1920   -5.3280   25.3140 C   0  0  0  0  0  3  0  0  0  0  0  0
  -21.5530   -3.9740   25.1680 C   0  0  0  0  0  0  0  0  0  0  0  0
  -21.8680   -3.4650   23.8950 C   0  0  0  0  0  3  0  0  0  0  0  0
  -21.8240   -4.3080   22.7700 C   0  0  0  0  0  0  0  0  0  0  0  0
  -22.1120   -3.8060   21.5450 F   0  0  0  0  0  0  0  0  0  0  0  0
  -21.5900   -3.1620   26.2500 F   0  0  0  0  0  0  0  0  0  0  0  0
  -22.3300  -13.0850   21.3600 C   0  0  0  0  0  0  0  0  0  0  0  0
  -21.6940  -12.3930   22.2990 N   0  0  0  0  0  0  0  0  0  0  0  0
  -21.8280  -14.0920   20.8630 O   0  0  0  0  0  0  0  0  0  0  0  0
  -22.1170  -11.5790   22.7210 H   0  0  0  0  0  0  0  0  0  0  0  0
  -20.7680  -12.6770   22.5920 H   0  0  0  0  0  0  0  0  0  0  0  0
  -24.8530  -14.7940   20.3260 N   0  0  0  0  0  0  0  0  0  0  0  0
  -24.0840  -15.4340   20.4900 H   0  0  0  0  0  0  0  0  0  0  0  0
  -25.6630  -15.2480   19.9270 H   0  0  0  0  0  0  0  0  0  0  0  0
  -28.2380  -21.4490   18.8960 C   0  0  0  0  0  2  0  0  0  0  0  0
  -27.8440  -22.6050   19.7300 N   0  0  0  0  0  0  0  0  0  0  0  0
  -28.5540  -22.7740   20.4340 H   0  0  0  0  0  0  0  0  0  0  0  0
  -27.6010  -23.8260   18.9300 C   0  0  0  0  0  2  0  0  0  0  0  0
  -27.3690  -25.1000   19.8020 C   0  0  0  0  0  2  0  0  0  0  0  0
  -27.2960  -26.3380   19.0520 O   0  0  0  0  0  0  0  0  0  0  0  0
  -24.3700  -31.3160   23.2690 C   0  0  0  0  0  0  0  0  0  0  0  0
  -26.2070  -27.1460   19.3240 C   0  0  0  0  0  0  0  0  0  0  0  0
  -22.8340  -30.1630   21.7090 C   0  0  0  0  0  3  0  0  0  0  0  0
  -23.9440  -28.7540   19.8950 C   0  0  0  0  0  0  0  0  0  0  0  0
  -25.3130  -30.4410   21.1330 C   0  0  0  0  0  2  0  0  0  0  0  0
  -25.2120  -29.1570   20.3310 C   0  0  0  0  0  0  0  0  0  0  0  0
  -26.3500  -28.3640   20.0340 C   0  0  0  0  0  3  0  0  0  0  0  0
  -24.9210  -26.7660   18.8860 C   0  0  0  0  0  3  0  0  0  0  0  0
  -23.7930  -27.5590   19.1690 C   0  0  0  0  0  3  0  0  0  0  0  0
  -22.7780  -29.6490   20.2480 C   0  0  0  0  0  2  0  0  0  0  0  0
  -24.2000  -30.6480   22.0900 N   0  0  0  0  0  0  0  0  0  0  0  0
  -23.4100  -31.5650   24.0080 O   0  0  0  0  0  0  0  0  0  0  0  0
  -22.2900  -29.0630   22.6490 C   0  0  0  0  0  0  0  0  0  0  0  0
  -21.0520  -28.6100   22.3910 N   0  0  0  0  0  0  0  0  0  0  0  0
  -22.9840  -28.6160   23.5660 O   0  0  0  0  0  0  0  0  0  0  0  0
  -20.5450  -29.0320   21.6240 H   0  0  0  0  0  0  0  0  0  0  0  0
  -18.1600  -26.4400   22.3220 C   0  0  0  0  0  0  0  0  0  0  0  0
  -20.3510  -27.5530   23.1190 C   0  0  0  0  0  3  0  0  0  0  0  0
  -21.0170  -26.1780   22.8800 C   0  0  0  0  0  2  0  0  0  0  0  0
  -20.3870  -25.3970   21.7230 C   0  0  0  0  0  2  0  0  0  0  0  0
  -18.8970  -25.1550   21.9860 C   0  0  0  0  0  2  0  0  0  0  0  0
  -18.8450  -27.5720   22.8360 C   0  0  0  0  0  0  0  0  0  0  0  0
  -18.1160  -28.7540   23.0950 C   0  0  0  0  0  3  0  0  0  0  0  0
  -16.7320  -28.8140   22.8500 C   0  0  0  0  0  3  0  0  0  0  0  0
  -16.0570  -27.6860   22.3540 C   0  0  0  0  0  3  0  0  0  0  0  0
  -16.7690  -26.5020   22.0950 C   0  0  0  0  0  3  0  0  0  0  0  0
  -25.7740  -31.8220   23.7260 C   0  0  0  0  0  3  0  0  0  0  0  0
  -26.3790  -30.9890   24.9240 C   0  0  1  0  0  0  0  0  0  0  0  0
  -25.4150  -30.8330   26.1230 C   0  0  0  0  0  1  0  0  0  0  0  0
  -26.7810  -29.5710   24.4590 C   0  0  0  0  0  1  0  0  0  0  0  0
  -27.6750  -31.6640   25.4300 C   0  0  0  0  0  1  0  0  0  0  0  0
  -25.6350  -33.2380   24.0950 N   0  0  0  0  0  0  0  0  0  0  0  0
  -26.1080  -34.2630   23.3720 C   0  0  0  0  0  0  0  0  0  0  0  0
  -26.7750  -34.1070   22.3460 O   0  0  0  0  0  0  0  0  0  0  0  0
  -25.0570  -33.4430   24.8960 H   0  0  0  0  0  0  0  0  0  0  0  0
  -24.7100  -36.3140   22.9660 C   0  0  0  0  0  1  0  0  0  0  0  0
  -25.7870  -35.6860   23.8660 C   0  0  0  0  0  3  0  0  0  0  0  0
  -27.9270  -36.1930   24.9540 C   0  0  0  0  0  1  0  0  0  0  0  0
  -26.9700  -36.5710   23.9180 N   0  0  0  0  0  0  0  0  0  0  0  0
  -26.6920  -37.5350   24.0810 H   0  0  0  0  0  0  0  0  0  0  0  0
  1  3  2  0
  2  3  1  0
  2  6  1  0
  3 12  1  0
  4 22  1  0
  4  1  1  0
  5  2  2  0
  7  4  1  0
  7  5  1  0
  8  7  1  0
  9 11  1  0
 10 11  1  0
 11 13  1  0
 12  9  1  0
 12 10  1  0
 13 15  1  0
 14 13  1  0
 17 16  1  0
 18 13  1  0
 18 17  1  0
 18 16  1  0
 19 21  1  0
 20 19  1  0
 20 21  1  0
 21  1  1  0
 22 31  1  0
 23 31  1  0
 23 29  1  0
 24 29  1  0
 25 26  1  0
 25 24  1  0
 27 26  1  0
 27 36  1  0
 27 28  1  0
 29 28  1  0
 30 23  2  0
 31 32  1  0
 33 34  2  0
 34 53  1  0
 35 34  1  0
 35 38  1  0
 36 37  1  0
 36 33  1  0
 37 35  2  0
 38 39  1  0
 39 40  2  0
 41 44  1  0
 41 40  1  0
 42 41  2  0
 43 42  1  0
 43 38  2  0
 44 45  1  0
 45 46  1  0
 46 47  2  0
 48 47  1  0
 48 52  1  0
 49 48  2  0
 50 45  2  0
 50 49  1  0
 51 50  1  0
 53 54  1  0
 54 57  1  0
 54 56  1  0
 55 53  2  0
 58 59  1  0
 58 33  1  0
 60 58  1  0
 61  5  1  0
 61 62  1  0
 62 63  1  0
 64 62  1  0
 64 65  1  0
 66 68  1  0
 66 65  1  0
 67 78  2  0
 68 73  1  0
 69 77  1  0
 69 79  1  0
 70 76  1  0
 70 72  1  0
 71 77  1  0
 72 71  1  0
 73 72  2  0
 74 75  1  0
 74 68  2  0
 75 70  2  0
 76 69  1  0
 77 67  1  0
 79 81  2  0
 80 79  1  0
 82 80  1  0
 83 88  1  0
 84 80  1  0
 85 84  1  0
 86 87  1  0
 86 85  1  0
 87 83  1  0
 88 89  2  0
 88 84  1  0
 90 89  1  0
 91 90  2  0
 92 83  2  0
 92 91  1  0
 93 67  1  0
 93 98  1  0
 93 94  1  0
 94 97  1  1
 94 95  1  0
 96 94  1  0
 98101  1  0
 99103  1  0
 99 98  1  0
100 99  2  0
103102  1  0
103105  1  0
105106  1  0
105104  1  0
M  ISO  4  23 100  31 100  65 101  66 101
M  END
>  <TORSDO>  (40) 
F 25

>  <SCORE>  (40) 
-9.729

>  <name>  (40) 
39

>  <ligand_id>  (40) 
39

>  <original_smiles>  (40) 
[H]c1c([H])c([H])c2c(c1[H])C([H])([H])C([H])([H])C([H])([H])C2([H])N([H])C(=O)C1([H])N(C(=O)C([H])(N([H])C(=O)C([H])(N([H])C([H])([H])[H])C([H])([H])[H])C(C([H])([H])[H])(C([H])([H])[H])C([H])([H])[H])C([H])([H])c2c([H])c(OC([H])([H])C([H])([H])N([H])C([H])([H])c3c(C([H])([H])[H])c(N4C([H])([H])C([H])([N+]([H])([H])C5([H])C([H])([H])C5([H])[H])C4([H])[H])c(C4([H])C([H])([H])C4([H])[H])c(C([H])([H])N([H])C(=O)N4C([H])([H])C([H])([H])C([H])([H])C([H])(n5nc(-c6c([H])c([H])c(Oc7c([H])c([H])c(F)c([H])c7F)c([H])c6[H])c(C(=O)N([H])[H])c5N([H])[H])C4([H])[H])[n+]3[H])c([H])c([H])c2C1([H])[H]

>  <smiles>  (40) 
[H]c1c([H])c([H])c2c(c1[H])C([H])([H])C([H])([H])C([H])([H])C2([H])N([H])C(=O)C1([H])N(C(=O)C([H])(N([H])C(=O)C([H])(N([H])C([H])([H])[H])C([H])([H])[H])C(C([H])([H])[H])(C([H])([H])[H])C([H])([H])[H])C([H])([H])c2c([H])c(OC([H])([H])C([H])([H])N([H])C([H])([H])c3c(C([H])([H])[H])c(N4C([H])([H])C([H])([N+]([H])([H])C5([H])C([H])([H])C5([H])[H])C4([H])[H])c(C4([H])C([H])([H])C4([H])[H])c(C([H])([H])N([H])C(=O)N4C([H])([H])C([H])([H])C([H])([H])C([H])(n5nc(-c6c([H])c([H])c(Oc7c([H])c([H])c(F)c([H])c7F)c([H])c6[H])c(C(=O)N([H])[H])c5N([H])[H])C4([H])[H])[n+]3[H])c([H])c([H])c2C1([H])[H]

$$$$
40:0:0
     RDKit          3D

 91100  0  0  1  0  0  0  0  0999 V2000
  -30.2170  -22.2340   22.2230 C   0  0  0  0  0  3  0  0  0  0  0  0
  -30.0670  -20.9100   21.7650 C   0  0  0  0  0  0  0  0  0  0  0  0
  -29.6850  -23.3570   21.5680 C   0  0  0  0  0  0  0  0  0  0  0  0
  -29.3710  -20.6210   20.5590 C   0  0  0  0  0  0  0  0  0  0  0  0
  -28.8790  -23.2030   20.4230 C   0  0  0  0  0  0  0  0  0  0  0  0
  -30.7420  -19.8840   22.6640 C   0  0  0  0  0  1  0  0  0  0  0  0
  -30.0320  -24.7150   22.1500 C   0  0  0  0  0  1  0  0  0  0  0  0
  -28.7710  -21.8150   19.9510 N   0  0  0  0  0  0  0  0  0  0  0  0
  -30.5380  -15.3630   19.8870 C   0  0  0  0  0  0  0  0  0  0  0  0
  -30.3950  -12.9730   18.9460 C   0  0  0  0  0  2  0  0  0  0  0  0
  -29.4040  -12.8030   17.7710 C   0  0  0  0  0  2  0  0  0  0  0  0
  -27.9870  -12.5250   18.3050 C   0  0  0  0  0  2  0  0  0  0  0  0
  -27.5970  -13.4690   19.4730 C   0  0  0  0  0  3  0  0  0  0  0  0
  -28.7240  -13.5940   20.5270 C   0  0  0  0  0  2  0  0  0  0  0  0
  -29.9050  -14.1020   19.8090 N   0  0  0  0  0  0  0  0  0  0  0  0
  -31.7480  -15.3150   19.6170 O   0  0  0  0  0  0  0  0  0  0  0  0
  -30.5620  -18.0310   19.5310 C   0  0  0  0  0  2  0  0  0  0  0  0
  -29.3570  -18.9770   20.0240 C   0  0  0  0  0  3  0  0  0  0  0  0
  -29.0340  -17.5600   20.7730 C   0  0  0  0  0  3  0  0  0  0  0  0
  -27.6050  -17.1010   20.8040 C   0  0  0  0  0  1  0  0  0  0  0  0
  -29.8860  -16.6840   19.8400 N   0  0  0  0  0  0  0  0  0  0  0  0
  -25.2510  -13.9730   20.3860 C   0  0  0  0  0  0  0  0  0  0  0  0
  -24.2430  -13.1780   20.8340 C   0  0  0  0  0  0  0  0  0  0  0  0
  -24.7280  -11.8420   20.7300 C   0  0  0  0  0  0  0  0  0  0  0  0
  -26.3060  -13.1330   20.0650 N   0  0  0  0  0  0  0  0  0  0  0  0
  -25.9990  -11.8350   20.3350 N   0  0  0  0  0  0  0  0  0  0  0  0
  -24.0260  -10.5740   20.9180 C   0  0  0  0  0  0  0  0  0  0  0  0
  -24.4750   -9.6130   21.8480 C   0  0  0  0  0  3  0  0  0  0  0  0
  -23.7640   -8.4060   22.0250 C   0  0  0  0  0  3  0  0  0  0  0  0
  -22.5900   -8.1580   21.2760 C   0  0  0  0  0  0  0  0  0  0  0  0
  -22.1600   -9.1100   20.3340 C   0  0  0  0  0  3  0  0  0  0  0  0
  -22.8740  -10.3060   20.1530 C   0  0  0  0  0  3  0  0  0  0  0  0
  -21.8470   -7.0060   21.3630 O   0  0  0  0  0  0  0  0  0  0  0  0
  -21.7330   -6.3180   22.5440 C   0  0  0  0  0  0  0  0  0  0  0  0
  -21.1800   -6.9090   23.7000 C   0  0  0  0  0  3  0  0  0  0  0  0
  -21.0190   -6.1440   24.8720 C   0  0  0  0  0  3  0  0  0  0  0  0
  -21.3960   -4.7880   24.8860 C   0  0  0  0  0  0  0  0  0  0  0  0
  -21.9420   -4.1970   23.7320 C   0  0  0  0  0  3  0  0  0  0  0  0
  -22.1070   -4.9600   22.5630 C   0  0  0  0  0  0  0  0  0  0  0  0
  -22.6170   -4.3820   21.4500 F   0  0  0  0  0  0  0  0  0  0  0  0
  -21.2320   -4.0520   26.0090 F   0  0  0  0  0  0  0  0  0  0  0  0
  -22.8660  -13.6400   21.2090 C   0  0  0  0  0  0  0  0  0  0  0  0
  -22.2090  -12.9380   22.1250 N   0  0  0  0  0  0  0  0  0  0  0  0
  -22.3840  -14.6690   20.7340 O   0  0  0  0  0  0  0  0  0  0  0  0
  -22.6190  -12.1160   22.5430 H   0  0  0  0  0  0  0  0  0  0  0  0
  -21.2870  -13.2300   22.4150 H   0  0  0  0  0  0  0  0  0  0  0  0
  -25.2980  -15.3400   20.1910 N   0  0  0  0  0  0  0  0  0  0  0  0
  -24.5050  -15.9350   20.4030 H   0  0  0  0  0  0  0  0  0  0  0  0
  -26.0770  -15.8380   19.7850 H   0  0  0  0  0  0  0  0  0  0  0  0
  -28.1090  -24.6150   19.8200 C   0  0  0  0  0  2  0  0  0  0  0  0
  -28.2650  -26.1580   20.2760 O   0  0  0  0  0  0  0  0  0  0  0  0
  -24.6570  -31.9640   23.2860 C   0  0  0  0  0  0  0  0  0  0  0  0
  -27.2390  -27.2120   20.1880 C   0  0  0  0  0  0  0  0  0  0  0  0
  -23.4630  -30.5850   21.6310 C   0  0  0  0  0  3  0  0  0  0  0  0
  -24.9180  -29.0220   20.1770 C   0  0  0  0  0  0  0  0  0  0  0  0
  -26.0230  -30.8370   21.4730 C   0  0  0  0  0  2  0  0  0  0  0  0
  -26.1000  -29.4430   20.7990 C   0  0  0  0  0  0  0  0  0  0  0  0
  -27.2570  -28.5560   20.7840 C   0  0  0  0  0  3  0  0  0  0  0  0
  -26.0320  -26.9300   19.5120 C   0  0  0  0  0  3  0  0  0  0  0  0
  -24.9030  -27.7860   19.5160 C   0  0  0  0  0  3  0  0  0  0  0  0
  -23.6880  -29.9220   20.2440 C   0  0  0  0  0  2  0  0  0  0  0  0
  -24.7360  -31.1540   22.1840 N   0  0  0  0  0  0  0  0  0  0  0  0
  -23.5710  -32.2380   23.8180 O   0  0  0  0  0  0  0  0  0  0  0  0
  -22.7830  -29.5690   22.5840 C   0  0  0  0  0  0  0  0  0  0  0  0
  -21.4570  -29.3810   22.4470 N   0  0  0  0  0  0  0  0  0  0  0  0
  -23.4530  -28.9490   23.4150 O   0  0  0  0  0  0  0  0  0  0  0  0
  -20.9720  -29.9280   21.7500 H   0  0  0  0  0  0  0  0  0  0  0  0
  -18.0900  -28.1220   22.9170 C   0  0  0  0  0  0  0  0  0  0  0  0
  -20.6430  -28.4270   23.2060 C   0  0  0  0  0  3  0  0  0  0  0  0
  -20.7720  -27.0000   22.6240 C   0  0  0  0  0  2  0  0  0  0  0  0
  -19.6830  -26.6650   21.5990 C   0  0  0  0  0  2  0  0  0  0  0  0
  -18.2950  -26.7820   22.2320 C   0  0  0  0  0  2  0  0  0  0  0  0
  -19.1920  -28.9010   23.3600 C   0  0  0  0  0  0  0  0  0  0  0  0
  -18.9440  -30.1540   23.9620 C   0  0  0  0  0  3  0  0  0  0  0  0
  -17.6280  -30.6280   24.1240 C   0  0  0  0  0  3  0  0  0  0  0  0
  -16.5420  -29.8450   23.6960 C   0  0  0  0  0  3  0  0  0  0  0  0
  -16.7730  -28.5940   23.0990 C   0  0  0  0  0  3  0  0  0  0  0  0
  -25.9320  -32.6010   23.9220 C   0  0  0  0  0  3  0  0  0  0  0  0
  -25.6250  -34.0060   24.2350 N   0  0  0  0  0  0  0  0  0  0  0  0
  -25.9460  -35.0520   23.4620 C   0  0  0  0  0  0  0  0  0  0  0  0
  -26.5950  -34.9340   22.4180 O   0  0  0  0  0  0  0  0  0  0  0  0
  -25.0430  -34.1710   25.0440 H   0  0  0  0  0  0  0  0  0  0  0  0
  -24.2070  -36.8430   23.1400 C   0  0  0  0  0  1  0  0  0  0  0  0
  -25.4760  -36.4500   23.9130 C   0  0  0  0  0  3  0  0  0  0  0  0
  -27.6290  -37.3600   24.6640 C   0  0  0  0  0  1  0  0  0  0  0  0
  -26.5040  -37.5000   23.7450 N   0  0  0  0  0  0  0  0  0  0  0  0
  -26.1000  -38.4250   23.8740 H   0  0  0  0  0  0  0  0  0  0  0  0
  -26.4190  -31.8440   25.2190 C   0  0  1  0  0  0  0  0  0  0  0  0
  -25.3050  -31.6230   26.2670 C   0  0  0  0  0  1  0  0  0  0  0  0
  -27.0060  -30.4580   24.8630 C   0  0  0  0  0  1  0  0  0  0  0  0
  -27.5630  -32.6420   25.8910 C   0  0  0  0  0  1  0  0  0  0  0  0
  2  1  1  0
  2  6  1  0
  3  7  1  0
  3  1  2  0
  4  2  2  0
  5  3  1  0
  8  5  2  0
  8  4  1  0
 10 15  1  0
 11 12  1  0
 11 10  1  0
 13 12  1  0
 13 25  1  0
 13 14  1  0
 15  9  1  0
 15 14  1  0
 16  9  2  0
 17 21  1  0
 17 18  1  0
 18  4  1  0
 18 19  1  0
 19 20  1  0
 21  9  1  0
 21 19  1  0
 22 23  2  0
 23 42  1  0
 24 23  1  0
 24 27  1  0
 25 26  1  0
 25 22  1  0
 26 24  2  0
 27 28  1  0
 28 29  2  0
 30 33  1  0
 30 29  1  0
 31 30  2  0
 32 31  1  0
 32 27  2  0
 33 34  1  0
 34 39  2  0
 34 35  1  0
 35 36  2  0
 36 37  1  0
 37 41  1  0
 38 37  2  0
 39 38  1  0
 40 39  1  0
 42 43  1  0
 43 46  1  0
 43 45  1  0
 44 42  2  0
 47 22  1  0
 47 48  1  0
 49 47  1  0
 50 51  1  0
 50  5  1  0
 52 63  2  0
 53 51  1  0
 53 58  1  0
 54 62  1  0
 54 64  1  0
 55 61  1  0
 55 57  1  0
 56 62  1  0
 57 56  1  0
 58 57  2  0
 59 60  1  0
 59 53  2  0
 60 55  2  0
 61 54  1  0
 62 52  1  0
 64 66  2  0
 65 64  1  0
 67 65  1  0
 68 77  2  0
 68 73  1  0
 69 65  1  0
 69 73  1  0
 70 69  1  0
 71 72  1  0
 71 70  1  0
 72 68  1  0
 73 74  2  0
 74 75  1  0
 76 75  2  0
 77 76  1  0
 78 52  1  0
 78 79  1  0
 78 88  1  0
 79 82  1  0
 80 84  1  0
 80 79  1  0
 81 80  2  0
 84 83  1  0
 86 87  1  0
 86 84  1  0
 86 85  1  0
 88 91  1  1
 88 89  1  0
 90 88  1  0
M  ISO  4   9 100  21 100  50 101  51 101
M  END
>  <TORSDO>  (41) 
F 17

>  <SCORE>  (41) 
-15.749

>  <name>  (41) 
40

>  <ligand_id>  (41) 
40

>  <original_smiles>  (41) 
[H]c1c([H])c([H])c2c(c1[H])C([H])([H])C([H])([H])C([H])([H])C2([H])N([H])C(=O)C1([H])N(C(=O)C([H])(N([H])C(=O)C([H])(N([H])C([H])([H])[H])C([H])([H])[H])C(C([H])([H])[H])(C([H])([H])[H])C([H])([H])[H])C([H])([H])c2c([H])c(OC([H])([H])c3nc(C4([H])C([H])([H])N(C(=O)N5C([H])([H])C([H])([H])C([H])([H])C([H])(n6nc(-c7c([H])c([H])c(Oc8c([H])c([H])c(F)c([H])c8F)c([H])c7[H])c(C(=O)N([H])[H])c6N([H])[H])C5([H])[H])C4([H])C([H])([H])[H])c(C([H])([H])[H])c([H])c3C([H])([H])[H])c([H])c([H])c2C1([H])[H]

>  <smiles>  (41) 
[H]c1c([H])c([H])c2c(c1[H])C([H])([H])C([H])([H])C([H])([H])C2([H])N([H])C(=O)C1([H])N(C(=O)C([H])(N([H])C(=O)C([H])(N([H])C([H])([H])[H])C([H])([H])[H])C(C([H])([H])[H])(C([H])([H])[H])C([H])([H])[H])C([H])([H])c2c([H])c(OC([H])([H])c3nc(C4([H])C([H])([H])N(C(=O)N5C([H])([H])C([H])([H])C([H])([H])C([H])(n6nc(-c7c([H])c([H])c(Oc8c([H])c([H])c(F)c([H])c8F)c([H])c7[H])c(C(=O)N([H])[H])c6N([H])[H])C5([H])[H])C4([H])C([H])([H])[H])c(C([H])([H])[H])c([H])c3C([H])([H])[H])c([H])c([H])c2C1([H])[H]

$$$$
41:0:0
     RDKit          3D

 94104  0  0  1  0  0  0  0  0999 V2000
  -28.4700  -21.1700   19.0470 C   0  0  0  0  0  0  0  0  0  0  0  0
  -28.3260  -22.6210   19.1940 C   0  0  0  0  0  0  0  0  0  0  0  0
  -28.8240  -23.3410   20.3270 C   0  0  0  0  0  0  0  0  0  0  0  0
  -29.2450  -20.3770   19.9800 C   0  0  0  0  0  0  0  0  0  0  0  0
  -29.5980  -22.4680   21.1740 C   0  0  0  0  0  0  0  0  0  0  0  0
  -27.5890  -23.4490   18.1490 C   0  0  0  0  0  1  0  0  0  0  0  0
  -30.2280  -23.0180   22.4390 C   0  0  0  0  0  1  0  0  0  0  0  0
  -29.8120  -21.1030   20.9950 N   0  0  0  0  0  0  0  0  0  0  0  0
  -30.7780  -14.9740   19.8990 C   0  0  0  0  0  0  0  0  0  0  0  0
  -30.5250  -12.6720   18.8660 C   0  0  0  0  0  2  0  0  0  0  0  0
  -29.4990  -12.6740   17.7080 C   0  0  0  0  0  2  0  0  0  0  0  0
  -28.0710  -12.4560   18.2420 C   0  0  0  0  0  2  0  0  0  0  0  0
  -27.7660  -13.3360   19.4810 C   0  0  0  0  0  3  0  0  0  0  0  0
  -28.9070  -13.2770   20.5200 C   0  0  0  0  0  2  0  0  0  0  0  0
  -30.1270  -13.7360   19.8360 N   0  0  0  0  0  0  0  0  0  0  0  0
  -31.9380  -15.0010   19.4740 O   0  0  0  0  0  0  0  0  0  0  0  0
  -28.6910  -18.0000   21.1980 C   0  0  0  0  0  2  0  0  0  0  0  0
  -28.9530  -16.4610   21.0220 C   0  0  0  0  0  2  0  0  0  0  0  0
  -30.5170  -17.6630   19.7480 C   0  0  0  0  0  2  0  0  0  0  0  0
  -29.3020  -18.7120   19.9910 C   0  0  0  0  0  3  0  0  0  0  0  0
  -30.1030  -16.2170   20.1290 N   0  0  0  0  0  0  0  0  0  0  0  0
  -25.4420  -13.9000   20.4020 C   0  0  0  0  0  0  0  0  0  0  0  0
  -24.4070  -13.1170   20.8320 C   0  0  0  0  0  0  0  0  0  0  0  0
  -24.8640  -11.7680   20.7270 C   0  0  0  0  0  0  0  0  0  0  0  0
  -26.4650  -13.0290   20.0660 N   0  0  0  0  0  0  0  0  0  0  0  0
  -26.1300  -11.7380   20.3240 N   0  0  0  0  0  0  0  0  0  0  0  0
  -24.1470  -10.5030   20.9300 C   0  0  0  0  0  0  0  0  0  0  0  0
  -24.5760   -9.5550   21.8850 C   0  0  0  0  0  3  0  0  0  0  0  0
  -23.8570   -8.3550   22.0750 C   0  0  0  0  0  3  0  0  0  0  0  0
  -22.6940   -8.0960   21.3100 C   0  0  0  0  0  0  0  0  0  0  0  0
  -22.2860   -9.0320   20.3450 C   0  0  0  0  0  3  0  0  0  0  0  0
  -23.0060  -10.2240   20.1520 C   0  0  0  0  0  3  0  0  0  0  0  0
  -21.9470   -6.9470   21.4080 O   0  0  0  0  0  0  0  0  0  0  0  0
  -21.8000   -6.2860   22.6010 C   0  0  0  0  0  0  0  0  0  0  0  0
  -21.2310   -6.9090   23.7330 C   0  0  0  0  0  3  0  0  0  0  0  0
  -21.0340   -6.1720   24.9190 C   0  0  0  0  0  3  0  0  0  0  0  0
  -21.3940   -4.8110   24.9700 C   0  0  0  0  0  0  0  0  0  0  0  0
  -21.9550   -4.1890   23.8430 C   0  0  0  0  0  3  0  0  0  0  0  0
  -22.1540   -4.9220   22.6600 C   0  0  0  0  0  0  0  0  0  0  0  0
  -22.6750   -4.3110   21.5690 F   0  0  0  0  0  0  0  0  0  0  0  0
  -21.1970   -4.1010   26.1060 F   0  0  0  0  0  0  0  0  0  0  0  0
  -23.0370  -13.5900   21.2180 C   0  0  0  0  0  0  0  0  0  0  0  0
  -22.3730  -12.8760   22.1200 N   0  0  0  0  0  0  0  0  0  0  0  0
  -22.5660  -14.6290   20.7560 O   0  0  0  0  0  0  0  0  0  0  0  0
  -22.7700  -12.0360   22.5150 H   0  0  0  0  0  0  0  0  0  0  0  0
  -21.4560  -13.1740   22.4210 H   0  0  0  0  0  0  0  0  0  0  0  0
  -25.5800  -15.2750   20.2420 N   0  0  0  0  0  0  0  0  0  0  0  0
  -24.8090  -15.9110   20.4150 H   0  0  0  0  0  0  0  0  0  0  0  0
  -26.3750  -15.7250   19.8130 H   0  0  0  0  0  0  0  0  0  0  0  0
  -26.3010  -20.6980   17.5530 C   0  0  0  0  0  2  0  0  0  0  0  0
  -26.7350  -19.3790   18.1110 C   0  0  0  0  0  2  0  0  0  0  0  0
  -27.7680  -20.4740   17.8930 C   0  0  0  0  0  3  0  0  0  0  0  0
  -28.2580  -24.8260   20.7890 C   0  0  0  0  0  2  0  0  0  0  0  0
  -28.5700  -26.2400   20.2560 O   0  0  0  0  0  0  0  0  0  0  0  0
  -24.6530  -31.7820   23.1430 C   0  0  0  0  0  0  0  0  0  0  0  0
  -27.4930  -27.1910   20.1990 C   0  0  0  0  0  0  0  0  0  0  0  0
  -23.5530  -30.3410   21.4730 C   0  0  0  0  0  3  0  0  0  0  0  0
  -25.1010  -28.8260   20.0940 C   0  0  0  0  0  0  0  0  0  0  0  0
  -26.0970  -30.7100   21.3800 C   0  0  0  0  0  2  0  0  0  0  0  0
  -26.2440  -29.3230   20.7360 C   0  0  0  0  0  0  0  0  0  0  0  0
  -27.4450  -28.5220   20.7700 C   0  0  0  0  0  3  0  0  0  0  0  0
  -26.3280  -26.7940   19.5090 C   0  0  0  0  0  3  0  0  0  0  0  0
  -25.1530  -27.5740   19.4660 C   0  0  0  0  0  3  0  0  0  0  0  0
  -23.8380  -29.6730   20.1020 C   0  0  0  0  0  2  0  0  0  0  0  0
  -24.7860  -30.9660   22.0540 N   0  0  0  0  0  0  0  0  0  0  0  0
  -23.5420  -32.0260   23.6390 O   0  0  0  0  0  0  0  0  0  0  0  0
  -22.8870  -29.3080   22.4160 C   0  0  0  0  0  0  0  0  0  0  0  0
  -21.5650  -29.1050   22.2660 N   0  0  0  0  0  0  0  0  0  0  0  0
  -23.5610  -28.6930   23.2450 O   0  0  0  0  0  0  0  0  0  0  0  0
  -21.0770  -29.6550   21.5730 H   0  0  0  0  0  0  0  0  0  0  0  0
  -18.2030  -27.8370   22.7230 C   0  0  0  0  0  0  0  0  0  0  0  0
  -20.7540  -28.1440   23.0190 C   0  0  0  0  0  3  0  0  0  0  0  0
  -20.8890  -26.7210   22.4280 C   0  0  0  0  0  2  0  0  0  0  0  0
  -19.8030  -26.3890   21.4000 C   0  0  0  0  0  2  0  0  0  0  0  0
  -18.4130  -26.5000   22.0320 C   0  0  0  0  0  2  0  0  0  0  0  0
  -19.3030  -28.6160   23.1720 C   0  0  0  0  0  0  0  0  0  0  0  0
  -19.0540  -29.8650   23.7790 C   0  0  0  0  0  3  0  0  0  0  0  0
  -17.7370  -30.3380   23.9410 C   0  0  0  0  0  3  0  0  0  0  0  0
  -16.6520  -29.5560   23.5070 C   0  0  0  0  0  3  0  0  0  0  0  0
  -16.8860  -28.3070   22.9040 C   0  0  0  0  0  3  0  0  0  0  0  0
  -25.8890  -32.4650   23.8040 C   0  0  0  0  0  3  0  0  0  0  0  0
  -25.5120  -33.8480   24.1340 N   0  0  0  0  0  0  0  0  0  0  0  0
  -25.8180  -34.9210   23.3910 C   0  0  0  0  0  0  0  0  0  0  0  0
  -26.5140  -34.8520   22.3740 O   0  0  0  0  0  0  0  0  0  0  0  0
  -24.8940  -33.9720   24.9220 H   0  0  0  0  0  0  0  0  0  0  0  0
  -24.0280  -36.6490   23.0130 C   0  0  0  0  0  1  0  0  0  0  0  0
  -25.2670  -36.2870   23.8480 C   0  0  0  0  0  3  0  0  0  0  0  0
  -27.3440  -37.2530   24.7340 C   0  0  0  0  0  1  0  0  0  0  0  0
  -26.2600  -37.3800   23.7630 N   0  0  0  0  0  0  0  0  0  0  0  0
  -25.8130  -38.2830   23.9030 H   0  0  0  0  0  0  0  0  0  0  0  0
  -26.3960  -31.7110   25.0950 C   0  0  1  0  0  0  0  0  0  0  0  0
  -25.2810  -31.4270   26.1290 C   0  0  0  0  0  1  0  0  0  0  0  0
  -27.0450  -30.3580   24.7240 C   0  0  0  0  0  1  0  0  0  0  0  0
  -27.4930  -32.5490   25.7930 C   0  0  0  0  0  1  0  0  0  0  0  0
  1  2  2  0
  1  4  1  0
  2  3  1  0
  3 53  1  0
  3  5  2  0
  4  8  2  0
  5  7  1  0
  6  2  1  0
  8  5  1  0
  9 21  1  0
 10 15  1  0
 11 12  1  0
 11 10  1  0
 13 12  1  0
 13 25  1  0
 13 14  1  0
 15  9  1  0
 15 14  1  0
 16  9  2  0
 18 17  1  0
 19 20  1  0
 19 21  1  0
 20  4  1  0
 20 17  1  0
 21 18  1  0
 22 23  2  0
 23 42  1  0
 24 23  1  0
 24 27  1  0
 25 26  1  0
 25 22  1  0
 26 24  2  0
 27 28  1  0
 28 29  2  0
 30 33  1  0
 30 29  1  0
 31 30  2  0
 32 31  1  0
 32 27  2  0
 33 34  1  0
 34 39  2  0
 34 35  1  0
 35 36  2  0
 36 37  1  0
 37 41  1  0
 38 37  2  0
 39 38  1  0
 40 39  1  0
 42 43  1  0
 43 46  1  0
 43 45  1  0
 44 42  2  0
 47 22  1  0
 47 48  1  0
 49 47  1  0
 50 52  1  0
 50 51  1  0
 52 51  1  0
 52  1  1  0
 54 53  1  0
 55 66  2  0
 56 54  1  0
 56 61  1  0
 57 65  1  0
 57 67  1  0
 58 64  1  0
 58 60  1  0
 59 65  1  0
 60 61  2  0
 60 59  1  0
 62 56  2  0
 63 62  1  0
 63 58  2  0
 64 57  1  0
 65 55  1  0
 67 69  2  0
 68 67  1  0
 70 68  1  0
 71 80  2  0
 71 76  1  0
 72 68  1  0
 72 76  1  0
 73 72  1  0
 74 75  1  0
 74 73  1  0
 75 71  1  0
 76 77  2  0
 77 78  1  0
 79 78  2  0
 80 79  1  0
 81 55  1  0
 81 82  1  0
 81 91  1  0
 82 85  1  0
 83 87  1  0
 83 82  1  0
 84 83  2  0
 87 86  1  0
 89 87  1  0
 89 90  1  0
 89 88  1  0
 91 94  1  1
 91 92  1  0
 93 91  1  0
M  ISO  4   9 100  21 100  53 101  54 101
M  END
>  <TORSDO>  (42) 
F 18

>  <SCORE>  (42) 
-13.979

>  <name>  (42) 
41

>  <ligand_id>  (42) 
41

>  <original_smiles>  (42) 
[H]c1c([H])c([H])c2c(c1[H])C([H])([H])C([H])([H])C([H])([H])C2([H])N([H])C(=O)C1([H])N(C(=O)C([H])(N([H])C(=O)C([H])(N([H])C([H])([H])[H])C([H])([H])[H])C(C([H])([H])[H])(C([H])([H])[H])C([H])([H])[H])C([H])([H])c2c([H])c(OC([H])([H])c3c(C([H])([H])[H])nc(C4([H])C([H])([H])N(C(=O)N5C([H])([H])C([H])([H])C([H])([H])C([H])(n6nc(-c7c([H])c([H])c(Oc8c([H])c([H])c(F)c([H])c8F)c([H])c7[H])c(C(=O)N([H])[H])c6N([H])[H])C5([H])[H])C([H])([H])C4([H])[H])c(C4([H])C([H])([H])C4([H])[H])c3C([H])([H])[H])c([H])c([H])c2C1([H])[H]

>  <smiles>  (42) 
[H]c1c([H])c([H])c2c(c1[H])C([H])([H])C([H])([H])C([H])([H])C2([H])N([H])C(=O)C1([H])N(C(=O)C([H])(N([H])C(=O)C([H])(N([H])C([H])([H])[H])C([H])([H])[H])C(C([H])([H])[H])(C([H])([H])[H])C([H])([H])[H])C([H])([H])c2c([H])c(OC([H])([H])c3c(C([H])([H])[H])nc(C4([H])C([H])([H])N(C(=O)N5C([H])([H])C([H])([H])C([H])([H])C([H])(n6nc(-c7c([H])c([H])c(Oc8c([H])c([H])c(F)c([H])c8F)c([H])c7[H])c(C(=O)N([H])[H])c6N([H])[H])C5([H])[H])C([H])([H])C4([H])[H])c(C4([H])C([H])([H])C4([H])[H])c3C([H])([H])[H])c([H])c([H])c2C1([H])[H]

$$$$
42:0:0
     RDKit          3D

 96105  0  0  1  0  0  0  0  0999 V2000
  -29.4880  -23.3860   22.0760 C   0  0  0  0  0  3  0  0  0  0  0  0
  -28.9120  -24.0040   20.9430 C   0  0  0  0  0  0  0  0  0  0  0  0
  -29.9880  -22.0580   22.0220 C   0  0  0  0  0  0  0  0  0  0  0  0
  -28.8490  -23.2010   19.7760 C   0  0  0  0  0  0  0  0  0  0  0  0
  -29.9030  -21.3480   20.7970 C   0  0  0  0  0  0  0  0  0  0  0  0
  -28.1810  -23.7180   18.5180 C   0  0  0  0  0  1  0  0  0  0  0  0
  -29.3330  -21.9220   19.7080 N   0  0  0  0  0  0  0  0  0  0  0  0
  -29.4630  -21.3100   24.3840 C   0  0  0  0  0  1  0  0  0  0  0  0
  -31.7870  -22.1710   23.8320 C   0  0  0  0  0  1  0  0  0  0  0  0
  -30.5500  -21.4260   23.3020 C   0  0  0  0  0  3  0  0  0  0  0  0
  -30.5420  -20.0910   20.6310 N   0  0  0  0  0  0  0  0  0  0  0  0
  -31.3020  -19.9820   21.2900 H   0  0  0  0  0  0  0  0  0  0  0  0
  -30.8260  -14.6260   20.0380 C   0  0  0  0  0  0  0  0  0  0  0  0
  -30.5010  -12.4310   18.9440 C   0  0  0  0  0  2  0  0  0  0  0  0
  -29.4930  -12.6100   17.7890 C   0  0  0  0  0  2  0  0  0  0  0  0
  -28.0450  -12.4570   18.3000 C   0  0  0  0  0  2  0  0  0  0  0  0
  -27.7670  -13.2860   19.5820 C   0  0  0  0  0  3  0  0  0  0  0  0
  -28.8910  -13.1010   20.6270 C   0  0  0  0  0  2  0  0  0  0  0  0
  -30.1640  -13.4310   19.9730 N   0  0  0  0  0  0  0  0  0  0  0  0
  -31.9720  -14.7470   19.5940 O   0  0  0  0  0  0  0  0  0  0  0  0
  -30.0860  -17.8220   21.6120 C   0  0  0  0  0  2  0  0  0  0  0  0
  -30.3860  -18.0730   19.1690 C   0  0  0  0  0  2  0  0  0  0  0  0
  -29.5790  -16.3560   21.4000 C   0  0  0  0  0  2  0  0  0  0  0  0
  -29.8190  -16.6390   18.9800 C   0  0  0  0  0  2  0  0  0  0  0  0
  -29.8490  -18.7990   20.4240 C   0  0  0  0  0  3  0  0  0  0  0  0
  -30.0320  -15.7420   20.1370 N   0  0  0  0  0  0  0  0  0  0  0  0
  -25.4250  -13.8690   20.4610 C   0  0  0  0  0  0  0  0  0  0  0  0
  -24.3780  -13.0870   20.8710 C   0  0  0  0  0  0  0  0  0  0  0  0
  -24.8320  -11.7360   20.7740 C   0  0  0  0  0  0  0  0  0  0  0  0
  -26.4500  -12.9940   20.1400 N   0  0  0  0  0  0  0  0  0  0  0  0
  -26.1020  -11.7040   20.3870 N   0  0  0  0  0  0  0  0  0  0  0  0
  -24.1150  -10.4710   20.9710 C   0  0  0  0  0  0  0  0  0  0  0  0
  -24.5620   -9.5070   21.9020 C   0  0  0  0  0  3  0  0  0  0  0  0
  -23.8460   -8.3050   22.0880 C   0  0  0  0  0  3  0  0  0  0  0  0
  -22.6680   -8.0580   21.3430 C   0  0  0  0  0  0  0  0  0  0  0  0
  -22.2400   -9.0120   20.4020 C   0  0  0  0  0  3  0  0  0  0  0  0
  -22.9570  -10.2050   20.2150 C   0  0  0  0  0  3  0  0  0  0  0  0
  -21.9210   -6.9090   21.4390 O   0  0  0  0  0  0  0  0  0  0  0  0
  -21.8290   -6.2050   22.6130 C   0  0  0  0  0  0  0  0  0  0  0  0
  -21.3270   -6.7900   23.7970 C   0  0  0  0  0  3  0  0  0  0  0  0
  -21.1880   -6.0110   24.9620 C   0  0  0  0  0  3  0  0  0  0  0  0
  -21.5390   -4.6480   24.9440 C   0  0  0  0  0  0  0  0  0  0  0  0
  -22.0330   -4.0620   23.7660 C   0  0  0  0  0  3  0  0  0  0  0  0
  -22.1750   -4.8390   22.6030 C   0  0  0  0  0  0  0  0  0  0  0  0
  -22.6340   -4.2650   21.4640 F   0  0  0  0  0  0  0  0  0  0  0  0
  -21.3970   -3.8970   26.0610 F   0  0  0  0  0  0  0  0  0  0  0  0
  -23.0020  -13.5590   21.2420 C   0  0  0  0  0  0  0  0  0  0  0  0
  -22.3260  -12.8430   22.1330 N   0  0  0  0  0  0  0  0  0  0  0  0
  -22.5370  -14.5990   20.7760 O   0  0  0  0  0  0  0  0  0  0  0  0
  -22.7150  -12.0020   22.5320 H   0  0  0  0  0  0  0  0  0  0  0  0
  -21.4060  -13.1460   22.4200 H   0  0  0  0  0  0  0  0  0  0  0  0
  -25.5850  -15.2430   20.3120 N   0  0  0  0  0  0  0  0  0  0  0  0
  -24.8320  -15.9010   20.4810 H   0  0  0  0  0  0  0  0  0  0  0  0
  -26.4280  -15.6830   19.9650 H   0  0  0  0  0  0  0  0  0  0  0  0
  -28.1720  -25.3640   21.1350 C   0  0  0  0  0  2  0  0  0  0  0  0
  -28.5200  -26.5570   20.3590 O   0  0  0  0  0  0  0  0  0  0  0  0
  -24.6960  -31.8600   23.3080 C   0  0  0  0  0  0  0  0  0  0  0  0
  -27.4320  -27.4200   20.2570 C   0  0  0  0  0  0  0  0  0  0  0  0
  -23.5340  -30.4410   21.6530 C   0  0  0  0  0  3  0  0  0  0  0  0
  -25.0320  -28.9420   20.2260 C   0  0  0  0  0  0  0  0  0  0  0  0
  -26.0620  -30.8330   21.4860 C   0  0  0  0  0  2  0  0  0  0  0  0
  -26.1810  -29.4650   20.8350 C   0  0  0  0  0  0  0  0  0  0  0  0
  -27.3900  -28.7140   20.8460 C   0  0  0  0  0  3  0  0  0  0  0  0
  -26.2730  -26.9470   19.6040 C   0  0  0  0  0  3  0  0  0  0  0  0
  -25.0780  -27.6860   19.6000 C   0  0  0  0  0  3  0  0  0  0  0  0
  -23.7710  -29.7780   20.2710 C   0  0  0  0  0  2  0  0  0  0  0  0
  -24.7820  -31.0620   22.2060 N   0  0  0  0  0  0  0  0  0  0  0  0
  -23.6030  -32.1110   23.8370 O   0  0  0  0  0  0  0  0  0  0  0  0
  -22.8920  -29.4050   22.6040 C   0  0  0  0  0  0  0  0  0  0  0  0
  -21.5810  -29.1620   22.4310 N   0  0  0  0  0  0  0  0  0  0  0  0
  -23.5700  -28.8240   23.4550 O   0  0  0  0  0  0  0  0  0  0  0  0
  -21.0940  -29.6830   21.7160 H   0  0  0  0  0  0  0  0  0  0  0  0
  -18.2630  -27.7640   22.7730 C   0  0  0  0  0  0  0  0  0  0  0  0
  -20.7780  -28.1980   23.1860 C   0  0  0  0  0  3  0  0  0  0  0  0
  -21.0060  -26.7580   22.6680 C   0  0  0  0  0  2  0  0  0  0  0  0
  -19.9910  -26.3320   21.6040 C   0  0  0  0  0  2  0  0  0  0  0  0
  -18.5660  -26.4070   22.1600 C   0  0  0  0  0  2  0  0  0  0  0  0
  -19.3030  -28.6110   23.2400 C   0  0  0  0  0  0  0  0  0  0  0  0
  -18.9680  -29.8760   23.7700 C   0  0  0  0  0  3  0  0  0  0  0  0
  -17.6260  -30.2950   23.8410 C   0  0  0  0  0  3  0  0  0  0  0  0
  -16.6000  -29.4460   23.3910 C   0  0  0  0  0  3  0  0  0  0  0  0
  -16.9190  -28.1820   22.8630 C   0  0  0  0  0  3  0  0  0  0  0  0
  -25.9620  -32.5170   23.9420 C   0  0  0  0  0  3  0  0  0  0  0  0
  -26.4620  -31.7740   25.2410 C   0  0  1  0  0  0  0  0  0  0  0  0
  -25.3500  -31.5380   26.2900 C   0  0  0  0  0  1  0  0  0  0  0  0
  -27.0710  -30.3970   24.8860 C   0  0  0  0  0  1  0  0  0  0  0  0
  -27.5870  -32.5950   25.9130 C   0  0  0  0  0  1  0  0  0  0  0  0
  -25.6330  -33.9180   24.2390 N   0  0  0  0  0  0  0  0  0  0  0  0
  -25.9750  -34.9590   23.4680 C   0  0  0  0  0  0  0  0  0  0  0  0
  -26.6700  -34.8420   22.4560 O   0  0  0  0  0  0  0  0  0  0  0  0
  -25.0170  -34.0810   25.0220 H   0  0  0  0  0  0  0  0  0  0  0  0
  -24.2410  -36.7300   23.0400 C   0  0  0  0  0  1  0  0  0  0  0  0
  -25.4650  -36.3510   23.8890 C   0  0  0  0  0  3  0  0  0  0  0  0
  -27.5710  -37.2710   24.7540 C   0  0  0  0  0  1  0  0  0  0  0  0
  -26.4910  -37.4110   23.7800 N   0  0  0  0  0  0  0  0  0  0  0  0
  -26.0740  -38.3310   23.8980 H   0  0  0  0  0  0  0  0  0  0  0  0
  2 55  1  0
  2  1  2  0
  3  1  1  0
  3 10  1  0
  4  2  1  0
  5  3  2  0
  6  4  1  0
  7  4  2  0
  7  5  1  0
 10  9  1  0
 10  8  1  0
 11  5  1  0
 11 12  1  0
 13 26  1  0
 14 19  1  0
 15 16  1  0
 15 14  1  0
 17 16  1  0
 17 30  1  0
 17 18  1  0
 19 13  1  0
 19 18  1  0
 20 13  2  0
 22 25  1  0
 23 21  1  0
 24 22  1  0
 24 26  1  0
 25 11  1  0
 25 21  1  0
 26 23  1  0
 27 28  2  0
 28 47  1  0
 29 28  1  0
 29 32  1  0
 30 31  1  0
 30 27  1  0
 31 29  2  0
 32 33  1  0
 33 34  2  0
 35 38  1  0
 35 34  1  0
 36 35  2  0
 37 36  1  0
 37 32  2  0
 38 39  1  0
 39 40  1  0
 40 41  2  0
 42 41  1  0
 42 46  1  0
 43 42  2  0
 44 39  2  0
 44 43  1  0
 45 44  1  0
 47 48  1  0
 48 51  1  0
 48 50  1  0
 49 47  2  0
 52 27  1  0
 52 53  1  0
 54 52  1  0
 56 55  1  0
 57 68  2  0
 58 56  1  0
 58 63  1  0
 59 67  1  0
 59 69  1  0
 60 66  1  0
 60 62  1  0
 61 67  1  0
 62 63  2  0
 62 61  1  0
 64 58  2  0
 65 64  1  0
 65 60  2  0
 66 59  1  0
 67 57  1  0
 69 71  2  0
 70 69  1  0
 72 70  1  0
 73 82  2  0
 73 78  1  0
 74 70  1  0
 74 78  1  0
 75 74  1  0
 76 77  1  0
 76 75  1  0
 77 73  1  0
 78 79  2  0
 79 80  1  0
 81 80  2  0
 82 81  1  0
 83 57  1  0
 83 88  1  0
 83 84  1  0
 84 87  1  1
 84 85  1  0
 86 84  1  0
 88 91  1  0
 89 93  1  0
 89 88  1  0
 90 89  2  0
 93 92  1  0
 95 93  1  0
 95 96  1  0
 95 94  1  0
M  ISO  4  13 100  26 100  55 101  56 101
M  END
>  <TORSDO>  (43) 
F 19

>  <SCORE>  (43) 
-12.917

>  <name>  (43) 
42

>  <ligand_id>  (43) 
42

>  <original_smiles>  (43) 
[H]c1c([H])c([H])c2c(c1[H])C([H])([H])C([H])([H])C([H])([H])C2([H])N([H])C(=O)C1([H])N(C(=O)C([H])(N([H])C(=O)C([H])(N([H])C([H])([H])[H])C([H])([H])[H])C(C([H])([H])[H])(C([H])([H])[H])C([H])([H])[H])C([H])([H])c2c([H])c(OC([H])([H])c3c(C([H])([H])[H])nc(N([H])C4([H])C([H])([H])C([H])([H])N(C(=O)N5C([H])([H])C([H])([H])C([H])([H])C([H])(n6nc(-c7c([H])c([H])c(Oc8c([H])c([H])c(F)c([H])c8F)c([H])c7[H])c(C(=O)N([H])[H])c6N([H])[H])C5([H])[H])C([H])([H])C4([H])[H])c(C([H])(C([H])([H])[H])C([H])([H])[H])c3[H])c([H])c([H])c2C1([H])[H]

>  <smiles>  (43) 
[H]c1c([H])c([H])c2c(c1[H])C([H])([H])C([H])([H])C([H])([H])C2([H])N([H])C(=O)C1([H])N(C(=O)C([H])(N([H])C(=O)C([H])(N([H])C([H])([H])[H])C([H])([H])[H])C(C([H])([H])[H])(C([H])([H])[H])C([H])([H])[H])C([H])([H])c2c([H])c(OC([H])([H])c3c(C([H])([H])[H])nc(N([H])C4([H])C([H])([H])C([H])([H])N(C(=O)N5C([H])([H])C([H])([H])C([H])([H])C([H])(n6nc(-c7c([H])c([H])c(Oc8c([H])c([H])c(F)c([H])c8F)c([H])c7[H])c(C(=O)N([H])[H])c6N([H])[H])C5([H])[H])C([H])([H])C4([H])[H])c(C([H])(C([H])([H])[H])C([H])([H])[H])c3[H])c([H])c([H])c2C1([H])[H]

$$$$
43:0:0
     RDKit          3D

 95104  0  0  1  0  0  0  0  0999 V2000
  -30.3420  -23.7940   21.3800 C   0  0  0  0  0  2  0  0  0  0  0  0
  -30.0660  -25.2430   20.9700 C   0  0  0  0  0  2  0  0  0  0  0  0
  -29.7890  -22.9200   20.2370 C   0  0  0  0  0  3  0  0  0  0  0  0
  -28.6590  -25.2470   20.3630 C   0  0  0  0  0  3  0  0  0  0  0  0
  -28.6160  -23.8280   19.6150 C   0  0  1  0  0  0  0  0  0  0  0  0
  -28.8820  -24.0490   18.1060 C   0  0  0  0  0  1  0  0  0  0  0  0
  -27.2420  -23.1480   19.7850 C   0  0  0  0  0  1  0  0  0  0  0  0
  -29.8060  -19.2540   21.8190 C   0  0  0  0  0  3  0  0  0  0  0  0
  -29.6900  -20.6740   21.7590 C   0  0  0  0  0  0  0  0  0  0  0  0
  -29.9130  -18.4440   20.6640 C   0  0  0  0  0  0  0  0  0  0  0  0
  -29.6930  -21.3420   20.4960 C   0  0  0  0  0  0  0  0  0  0  0  0
  -29.8610  -19.1840   19.4490 C   0  0  0  0  0  0  0  0  0  0  0  0
  -29.5920  -21.3950   23.0930 C   0  0  0  0  0  1  0  0  0  0  0  0
  -29.9060  -18.4990   18.0970 C   0  0  0  0  0  1  0  0  0  0  0  0
  -29.7670  -20.5520   19.3860 N   0  0  0  0  0  0  0  0  0  0  0  0
  -30.0080  -16.8670   20.8740 C   0  0  0  0  0  2  0  0  0  0  0  0
  -31.2610  -14.7450   20.0180 C   0  0  0  0  0  0  0  0  0  0  0  0
  -30.8440  -12.5620   18.9250 C   0  0  0  0  0  2  0  0  0  0  0  0
  -29.8470  -12.7440   17.7620 C   0  0  0  0  0  2  0  0  0  0  0  0
  -28.3980  -12.6310   18.2730 C   0  0  0  0  0  2  0  0  0  0  0  0
  -28.1360  -13.4680   19.5550 C   0  0  0  0  0  3  0  0  0  0  0  0
  -29.2570  -13.2960   20.6030 C   0  0  0  0  0  2  0  0  0  0  0  0
  -30.5230  -13.5960   19.9290 N   0  0  0  0  0  0  0  0  0  0  0  0
  -32.4460  -14.7510   19.6840 O   0  0  0  0  0  0  0  0  0  0  0  0
  -30.6170  -15.9450   19.8670 N   0  0  0  0  0  0  0  0  0  0  0  0
  -31.1730  -16.4850   19.2250 H   0  0  0  0  0  0  0  0  0  0  0  0
  -25.8280  -14.0970   20.4780 C   0  0  0  0  0  0  0  0  0  0  0  0
  -24.7540  -13.3430   20.8590 C   0  0  0  0  0  0  0  0  0  0  0  0
  -25.1500  -11.9800   20.7020 C   0  0  0  0  0  0  0  0  0  0  0  0
  -26.8150  -13.1970   20.1120 N   0  0  0  0  0  0  0  0  0  0  0  0
  -26.4170  -11.9120   20.3060 N   0  0  0  0  0  0  0  0  0  0  0  0
  -24.3810  -10.7400   20.8450 C   0  0  0  0  0  0  0  0  0  0  0  0
  -24.7610   -9.7340   21.7590 C   0  0  0  0  0  3  0  0  0  0  0  0
  -23.9910   -8.5590   21.8940 C   0  0  0  0  0  3  0  0  0  0  0  0
  -22.8250   -8.3790   21.1130 C   0  0  0  0  0  0  0  0  0  0  0  0
  -22.4620   -9.3750   20.1870 C   0  0  0  0  0  3  0  0  0  0  0  0
  -23.2330  -10.5420   20.0520 C   0  0  0  0  0  3  0  0  0  0  0  0
  -22.0310   -7.2600   21.1570 O   0  0  0  0  0  0  0  0  0  0  0  0
  -21.8600   -6.5440   22.3150 C   0  0  0  0  0  0  0  0  0  0  0  0
  -21.3350   -7.1340   23.4860 C   0  0  0  0  0  3  0  0  0  0  0  0
  -21.1150   -6.3440   24.6330 C   0  0  0  0  0  3  0  0  0  0  0  0
  -21.4060   -4.9680   24.6070 C   0  0  0  0  0  0  0  0  0  0  0  0
  -21.9240   -4.3790   23.4410 C   0  0  0  0  0  3  0  0  0  0  0  0
  -22.1480   -5.1650   22.2970 C   0  0  0  0  0  0  0  0  0  0  0  0
  -22.6270   -4.5880   21.1690 F   0  0  0  0  0  0  0  0  0  0  0  0
  -21.1860   -4.2090   25.7070 F   0  0  0  0  0  0  0  0  0  0  0  0
  -23.3990  -13.8570   21.2510 C   0  0  0  0  0  0  0  0  0  0  0  0
  -22.7050  -13.1490   22.1350 N   0  0  0  0  0  0  0  0  0  0  0  0
  -22.9700  -14.9220   20.8090 O   0  0  0  0  0  0  0  0  0  0  0  0
  -23.0680  -12.2870   22.5180 H   0  0  0  0  0  0  0  0  0  0  0  0
  -21.7960  -13.4720   22.4340 H   0  0  0  0  0  0  0  0  0  0  0  0
  -26.0450  -15.4690   20.3910 N   0  0  0  0  0  0  0  0  0  0  0  0
  -25.3160  -16.1450   20.5860 H   0  0  0  0  0  0  0  0  0  0  0  0
  -26.8900  -15.8910   20.0280 H   0  0  0  0  0  0  0  0  0  0  0  0
  -28.5450  -26.5470   19.6760 O   0  0  0  0  0  0  0  0  0  0  0  0
  -24.7010  -31.7050   22.9950 C   0  0  0  0  0  0  0  0  0  0  0  0
  -27.3820  -27.3100   19.7800 C   0  0  0  0  0  0  0  0  0  0  0  0
  -23.5110  -30.3300   21.3230 C   0  0  0  0  0  3  0  0  0  0  0  0
  -24.9780  -28.8430   19.8520 C   0  0  0  0  0  0  0  0  0  0  0  0
  -26.0390  -30.7120   21.1250 C   0  0  0  0  0  2  0  0  0  0  0  0
  -26.1410  -29.3510   20.4450 C   0  0  0  0  0  0  0  0  0  0  0  0
  -27.3490  -28.5980   20.3950 C   0  0  0  0  0  3  0  0  0  0  0  0
  -26.1990  -26.8420   19.1780 C   0  0  0  0  0  3  0  0  0  0  0  0
  -25.0060  -27.5920   19.2120 C   0  0  0  0  0  3  0  0  0  0  0  0
  -23.7250  -29.6920   19.9260 C   0  0  0  0  0  2  0  0  0  0  0  0
  -24.7690  -30.9320   21.8720 N   0  0  0  0  0  0  0  0  0  0  0  0
  -23.6160  -31.9450   23.5450 O   0  0  0  0  0  0  0  0  0  0  0  0
  -22.8760  -29.2740   22.2600 C   0  0  0  0  0  0  0  0  0  0  0  0
  -21.5500  -29.0890   22.1480 N   0  0  0  0  0  0  0  0  0  0  0  0
  -23.5760  -28.6250   23.0430 O   0  0  0  0  0  0  0  0  0  0  0  0
  -21.0490  -29.6670   21.4870 H   0  0  0  0  0  0  0  0  0  0  0  0
  -18.1870  -27.8640   22.6750 C   0  0  0  0  0  0  0  0  0  0  0  0
  -20.7500  -28.1170   22.8950 C   0  0  0  0  0  3  0  0  0  0  0  0
  -20.8390  -26.7130   22.2540 C   0  0  0  0  0  2  0  0  0  0  0  0
  -19.7130  -26.4310   21.2550 C   0  0  0  0  0  2  0  0  0  0  0  0
  -18.3470  -26.5460   21.9380 C   0  0  0  0  0  2  0  0  0  0  0  0
  -19.3160  -28.6090   23.1100 C   0  0  0  0  0  0  0  0  0  0  0  0
  -19.1100  -29.8450   23.7620 C   0  0  0  0  0  3  0  0  0  0  0  0
  -17.8090  -30.3370   23.9800 C   0  0  0  0  0  3  0  0  0  0  0  0
  -16.6960  -29.5880   23.5600 C   0  0  0  0  0  3  0  0  0  0  0  0
  -16.8860  -28.3530   22.9150 C   0  0  0  0  0  3  0  0  0  0  0  0
  -25.9770  -32.3420   23.6300 C   0  0  0  0  0  3  0  0  0  0  0  0
  -25.6330  -33.7120   24.0370 N   0  0  0  0  0  0  0  0  0  0  0  0
  -25.9460  -34.8140   23.3400 C   0  0  0  0  0  0  0  0  0  0  0  0
  -26.6250  -34.7830   22.3110 O   0  0  0  0  0  0  0  0  0  0  0  0
  -25.0370  -33.8070   24.8450 H   0  0  0  0  0  0  0  0  0  0  0  0
  -24.1910  -36.5930   23.0610 C   0  0  0  0  0  1  0  0  0  0  0  0
  -25.4220  -36.1620   23.8730 C   0  0  0  0  0  3  0  0  0  0  0  0
  -27.5200  -37.0300   24.8060 C   0  0  0  0  0  1  0  0  0  0  0  0
  -26.4370  -37.2380   23.8480 N   0  0  0  0  0  0  0  0  0  0  0  0
  -26.0130  -38.1410   24.0380 H   0  0  0  0  0  0  0  0  0  0  0  0
  -26.5340  -31.5220   24.8580 C   0  0  1  0  0  0  0  0  0  0  0  0
  -25.4650  -31.1970   25.9290 C   0  0  0  0  0  1  0  0  0  0  0  0
  -27.1500  -30.1840   24.3840 C   0  0  0  0  0  1  0  0  0  0  0  0
  -27.6730  -32.3140   25.5400 C   0  0  0  0  0  1  0  0  0  0  0  0
  2  1  1  0
  3 11  1  0
  3  1  1  0
  4 55  1  0
  4  2  1  0
  5  7  1  6
  5  3  1  0
  5  4  1  0
  6  5  1  0
  9  8  1  0
  9 13  1  0
 10 16  1  0
 10  8  2  0
 11  9  2  0
 12 10  1  0
 14 12  1  0
 15 12  2  0
 15 11  1  0
 18 23  1  0
 19 20  1  0
 19 18  1  0
 21 20  1  0
 21 30  1  0
 21 22  1  0
 23 17  1  0
 23 22  1  0
 24 17  2  0
 25 17  1  0
 25 16  1  0
 26 25  1  0
 27 28  2  0
 28 47  1  0
 29 32  1  0
 29 28  1  0
 30 31  1  0
 30 27  1  0
 31 29  2  0
 32 33  1  0
 33 34  2  0
 35 38  1  0
 35 34  1  0
 36 35  2  0
 37 36  1  0
 37 32  2  0
 38 39  1  0
 39 40  1  0
 40 41  2  0
 42 41  1  0
 42 46  1  0
 43 42  2  0
 44 39  2  0
 44 43  1  0
 45 44  1  0
 47 48  1  0
 48 51  1  0
 48 50  1  0
 49 47  2  0
 52 27  1  0
 52 53  1  0
 54 52  1  0
 55 57  1  0
 56 67  2  0
 57 62  1  0
 58 66  1  0
 58 68  1  0
 59 65  1  0
 59 61  1  0
 60 66  1  0
 61 60  1  0
 62 61  2  0
 63 64  1  0
 63 57  2  0
 64 59  2  0
 65 58  1  0
 66 56  1  0
 68 70  2  0
 69 68  1  0
 71 69  1  0
 72 81  2  0
 72 77  1  0
 73 69  1  0
 73 77  1  0
 74 73  1  0
 75 76  1  0
 75 74  1  0
 76 72  1  0
 77 78  2  0
 78 79  1  0
 80 79  2  0
 81 80  1  0
 82 56  1  0
 82 83  1  0
 82 92  1  0
 83 86  1  0
 84 88  1  0
 84 83  1  0
 85 84  2  0
 88 87  1  0
 90 88  1  0
 90 91  1  0
 90 89  1  0
 92 95  1  1
 92 93  1  0
 94 92  1  0
M  ISO  4   4 101  17 100  25 100  55 101
M  END
>  <TORSDO>  (44) 
F 18

>  <SCORE>  (44) 
-13.218

>  <name>  (44) 
43

>  <ligand_id>  (44) 
43

>  <original_smiles>  (44) 
[H]c1c([H])c([H])c2c(c1[H])C([H])([H])C([H])([H])C([H])([H])C2([H])N([H])C(=O)C1([H])N(C(=O)C([H])(N([H])C(=O)C([H])(N([H])C([H])([H])[H])C([H])([H])[H])C(C([H])([H])[H])(C([H])([H])[H])C([H])([H])[H])C([H])([H])c2c([H])c(OC3([H])C([H])([H])C([H])([H])C([H])(c4nc(C([H])([H])[H])c(C([H])([H])N([H])C(=O)N5C([H])([H])C([H])([H])C([H])([H])C([H])(n6nc(-c7c([H])c([H])c(Oc8c([H])c([H])c(F)c([H])c8F)c([H])c7[H])c(C(=O)N([H])[H])c6N([H])[H])C5([H])[H])c([H])c4C([H])([H])[H])C3(C([H])([H])[H])C([H])([H])[H])c([H])c([H])c2C1([H])[H]

>  <smiles>  (44) 
[H]c1c([H])c([H])c2c(c1[H])C([H])([H])C([H])([H])C([H])([H])C2([H])N([H])C(=O)C1([H])N(C(=O)C([H])(N([H])C(=O)C([H])(N([H])C([H])([H])[H])C([H])([H])[H])C(C([H])([H])[H])(C([H])([H])[H])C([H])([H])[H])C([H])([H])c2c([H])c(OC3([H])C([H])([H])C([H])([H])C([H])(c4nc(C([H])([H])[H])c(C([H])([H])N([H])C(=O)N5C([H])([H])C([H])([H])C([H])([H])C([H])(n6nc(-c7c([H])c([H])c(Oc8c([H])c([H])c(F)c([H])c8F)c([H])c7[H])c(C(=O)N([H])[H])c6N([H])[H])C5([H])[H])c([H])c4C([H])([H])[H])C3(C([H])([H])[H])C([H])([H])[H])c([H])c([H])c2C1([H])[H]

$$$$
44:0:0
     RDKit          3D

 93101  0  0  1  0  0  0  0  0999 V2000
  -29.9720  -17.8090   21.0160 C   0  0  0  0  0  0  0  0  0  0  0  0
  -30.7010  -17.3850   18.8500 C   0  0  0  0  0  0  0  0  0  0  0  0
  -30.3990  -19.2280   20.3850 C   0  0  0  0  0  3  0  0  0  0  0  0
  -29.9370  -16.6100   19.9570 C   0  0  2  0  0  0  0  0  0  0  0  0
  -28.4820  -16.5480   19.4830 C   0  0  0  0  0  1  0  0  0  0  0  0
  -29.6810  -17.6610   22.2420 N   0  0  0  0  0  0  0  0  0  0  0  0
  -31.0170  -18.6790   19.1620 N   0  0  0  0  0  0  0  0  0  0  0  0
  -30.9560  -16.8490   17.7640 O   0  0  0  0  0  0  0  0  0  0  0  0
  -29.7640  -18.5200   22.7760 H   0  0  0  0  0  0  0  0  0  0  0  0
  -30.6660  -15.0860   20.1400 C   0  0  0  0  0  0  0  0  0  0  0  0
  -30.5000  -12.7290   19.2130 C   0  0  0  0  0  2  0  0  0  0  0  0
  -29.5480  -12.6620   17.9960 C   0  0  0  0  0  2  0  0  0  0  0  0
  -28.0980  -12.4080   18.4540 C   0  0  0  0  0  2  0  0  0  0  0  0
  -27.6860  -13.3330   19.6200 C   0  0  0  0  0  3  0  0  0  0  0  0
  -28.7660  -13.4260   20.7240 C   0  0  0  0  0  2  0  0  0  0  0  0
  -30.0350  -13.8360   20.1000 N   0  0  0  0  0  0  0  0  0  0  0  0
  -31.9000  -15.0280   20.0350 O   0  0  0  0  0  0  0  0  0  0  0  0
  -25.3180  -13.9370   20.3870 C   0  0  0  0  0  0  0  0  0  0  0  0
  -24.2600  -13.1680   20.7710 C   0  0  0  0  0  0  0  0  0  0  0  0
  -24.7310  -11.8200   20.7530 C   0  0  0  0  0  0  0  0  0  0  0  0
  -26.3620  -13.0540   20.1490 N   0  0  0  0  0  0  0  0  0  0  0  0
  -26.0180  -11.7770   20.4390 N   0  0  0  0  0  0  0  0  0  0  0  0
  -24.0120  -10.5610   20.9550 C   0  0  0  0  0  0  0  0  0  0  0  0
  -24.4500   -9.6100   21.9030 C   0  0  0  0  0  3  0  0  0  0  0  0
  -23.7340   -8.4110   22.0940 C   0  0  0  0  0  3  0  0  0  0  0  0
  -22.5680   -8.1550   21.3320 C   0  0  0  0  0  0  0  0  0  0  0  0
  -22.1490   -9.0950   20.3740 C   0  0  0  0  0  3  0  0  0  0  0  0
  -22.8660  -10.2880   20.1840 C   0  0  0  0  0  3  0  0  0  0  0  0
  -21.8210   -7.0060   21.4300 O   0  0  0  0  0  0  0  0  0  0  0  0
  -21.7650   -6.2860   22.5960 C   0  0  0  0  0  0  0  0  0  0  0  0
  -21.3040   -6.8560   23.8020 C   0  0  0  0  0  3  0  0  0  0  0  0
  -21.1950   -6.0590   24.9600 C   0  0  0  0  0  3  0  0  0  0  0  0
  -21.5380   -4.6950   24.9100 C   0  0  0  0  0  0  0  0  0  0  0  0
  -21.9940   -4.1260   23.7080 C   0  0  0  0  0  3  0  0  0  0  0  0
  -22.1030   -4.9190   22.5520 C   0  0  0  0  0  0  0  0  0  0  0  0
  -22.5190   -4.3610   21.3890 F   0  0  0  0  0  0  0  0  0  0  0  0
  -21.4280   -3.9270   26.0190 F   0  0  0  0  0  0  0  0  0  0  0  0
  -22.8640  -13.6470   21.0400 C   0  0  0  0  0  0  0  0  0  0  0  0
  -22.1430  -12.9580   21.9180 N   0  0  0  0  0  0  0  0  0  0  0  0
  -22.4220  -14.6670   20.5120 O   0  0  0  0  0  0  0  0  0  0  0  0
  -22.5160  -12.1330   22.3670 H   0  0  0  0  0  0  0  0  0  0  0  0
  -21.2070  -13.2630   22.1450 H   0  0  0  0  0  0  0  0  0  0  0  0
  -25.4560  -15.3060   20.1870 N   0  0  0  0  0  0  0  0  0  0  0  0
  -24.6760  -15.9460   20.2890 H   0  0  0  0  0  0  0  0  0  0  0  0
  -26.2950  -15.7630   19.8600 H   0  0  0  0  0  0  0  0  0  0  0  0
  -33.0780  -18.8430   17.6370 C   0  0  0  0  0  1  0  0  0  0  0  0
  -31.9870  -19.5530   18.4650 C   0  0  0  0  0  2  0  0  0  0  0  0
  -29.3570  -20.5200   20.0620 C   0  0  0  0  0  2  0  0  0  0  0  0
  -28.5470  -21.9280   22.0790 C   0  0  0  0  0  1  0  0  0  0  0  0
  -29.3390  -22.0460   20.7680 C   0  0  0  0  0  3  0  0  0  0  0  0
  -28.8570  -23.4630   19.9970 C   0  0  0  0  0  2  0  0  0  0  0  0
  -28.4250  -24.8960   20.7640 C   0  0  0  0  0  2  0  0  0  0  0  0
  -28.5040  -26.3540   20.2540 O   0  0  0  0  0  0  0  0  0  0  0  0
  -24.6880  -31.9110   23.2400 C   0  0  0  0  0  0  0  0  0  0  0  0
  -27.3920  -27.2570   20.2660 C   0  0  0  0  0  0  0  0  0  0  0  0
  -23.5280  -30.4900   21.5900 C   0  0  0  0  0  3  0  0  0  0  0  0
  -25.0240  -28.9300   20.1950 C   0  0  0  0  0  0  0  0  0  0  0  0
  -26.0740  -30.8030   21.4550 C   0  0  0  0  0  2  0  0  0  0  0  0
  -26.1830  -29.4110   20.8160 C   0  0  0  0  0  0  0  0  0  0  0  0
  -27.3690  -28.5900   20.8320 C   0  0  0  0  0  3  0  0  0  0  0  0
  -26.2040  -26.8580   19.6160 C   0  0  0  0  0  3  0  0  0  0  0  0
  -25.0420  -27.6660   19.5830 C   0  0  0  0  0  3  0  0  0  0  0  0
  -23.7790  -29.8080   20.2170 C   0  0  0  0  0  2  0  0  0  0  0  0
  -24.7810  -31.0900   22.1510 N   0  0  0  0  0  0  0  0  0  0  0  0
  -23.5930  -32.1810   23.7550 O   0  0  0  0  0  0  0  0  0  0  0  0
  -22.8570  -29.4760   22.5480 C   0  0  0  0  0  0  0  0  0  0  0  0
  -21.5310  -29.2920   22.4150 N   0  0  0  0  0  0  0  0  0  0  0  0
  -23.5290  -28.8560   23.3760 O   0  0  0  0  0  0  0  0  0  0  0  0
  -21.0440  -29.8430   21.7210 H   0  0  0  0  0  0  0  0  0  0  0  0
  -18.1580  -28.0730   22.9030 C   0  0  0  0  0  0  0  0  0  0  0  0
  -20.7130  -28.3490   23.1810 C   0  0  0  0  0  3  0  0  0  0  0  0
  -20.8280  -26.9200   22.6030 C   0  0  0  0  0  2  0  0  0  0  0  0
  -19.7320  -26.5930   21.5840 C   0  0  0  0  0  2  0  0  0  0  0  0
  -18.3460  -26.7280   22.2210 C   0  0  0  0  0  2  0  0  0  0  0  0
  -19.2700  -28.8410   23.3400 C   0  0  0  0  0  0  0  0  0  0  0  0
  -19.0390  -30.1000   23.9370 C   0  0  0  0  0  3  0  0  0  0  0  0
  -17.7310  -30.5900   24.1010 C   0  0  0  0  0  3  0  0  0  0  0  0
  -16.6330  -29.8180   23.6800 C   0  0  0  0  0  3  0  0  0  0  0  0
  -16.8470  -28.5610   23.0870 C   0  0  0  0  0  3  0  0  0  0  0  0
  -25.9510  -32.5680   23.8780 C   0  0  0  0  0  3  0  0  0  0  0  0
  -25.6230  -33.9660   24.1930 N   0  0  0  0  0  0  0  0  0  0  0  0
  -25.9490  -35.0160   23.4290 C   0  0  0  0  0  0  0  0  0  0  0  0
  -26.6230  -34.9090   22.4020 O   0  0  0  0  0  0  0  0  0  0  0  0
  -25.0360  -34.1220   24.9990 H   0  0  0  0  0  0  0  0  0  0  0  0
  -24.2010  -36.7870   23.0410 C   0  0  0  0  0  1  0  0  0  0  0  0
  -25.4420  -36.4050   23.8690 C   0  0  0  0  0  3  0  0  0  0  0  0
  -27.5560  -37.3240   24.7140 C   0  0  0  0  0  1  0  0  0  0  0  0
  -26.4640  -37.4680   23.7540 N   0  0  0  0  0  0  0  0  0  0  0  0
  -26.0480  -38.3860   23.8860 H   0  0  0  0  0  0  0  0  0  0  0  0
  -26.4460  -31.8170   25.1770 C   0  0  1  0  0  0  0  0  0  0  0  0
  -25.3310  -31.5860   26.2240 C   0  0  0  0  0  1  0  0  0  0  0  0
  -27.0480  -30.4370   24.8210 C   0  0  0  0  0  1  0  0  0  0  0  0
  -27.5780  -32.6290   25.8500 C   0  0  0  0  0  1  0  0  0  0  0  0
  1  6  2  0
  2  7  1  0
  2  4  1  0
  3 48  1  0
  3  1  1  0
  4  5  1  6
  4 10  1  0
  4  1  1  0
  6  9  1  0
  7  3  1  0
  8  2  2  0
 11 16  1  0
 12 13  1  0
 12 11  1  0
 14 13  1  0
 14 21  1  0
 14 15  1  0
 16 10  1  0
 16 15  1  0
 17 10  2  0
 18 19  2  0
 19 38  1  0
 20 19  1  0
 20 23  1  0
 21 18  1  0
 21 22  1  0
 22 20  2  0
 23 24  1  0
 24 25  2  0
 26 29  1  0
 26 25  1  0
 27 26  2  0
 28 27  1  0
 28 23  2  0
 29 30  1  0
 30 31  1  0
 31 32  2  0
 33 32  1  0
 33 37  1  0
 34 33  2  0
 35 30  2  0
 35 34  1  0
 36 35  1  0
 38 39  1  0
 39 42  1  0
 39 41  1  0
 40 38  2  0
 43 44  1  0
 43 18  1  0
 45 43  1  0
 46 47  1  0
 47  7  1  0
 48 50  1  0
 50 49  1  0
 51 52  1  0
 51 50  1  0
 53 55  1  0
 53 52  1  0
 54 65  2  0
 55 60  1  0
 56 64  1  0
 56 66  1  0
 57 63  1  0
 57 59  1  0
 58 64  1  0
 59 60  2  0
 59 58  1  0
 61 55  2  0
 62 61  1  0
 62 57  2  0
 63 56  1  0
 64 54  1  0
 66 68  2  0
 67 66  1  0
 69 67  1  0
 70 79  2  0
 70 75  1  0
 71 67  1  0
 71 75  1  0
 72 71  1  0
 73 74  1  0
 73 72  1  0
 74 70  1  0
 75 76  2  0
 76 77  1  0
 78 77  2  0
 79 78  1  0
 80 54  1  0
 80 81  1  0
 80 90  1  0
 81 84  1  0
 82 86  1  0
 82 81  1  0
 83 82  2  0
 86 85  1  0
 88 86  1  0
 88 89  1  0
 88 87  1  0
 90 93  1  1
 90 91  1  0
 92 90  1  0
M  ISO  4   4 100  10 100  52 101  53 101
M  END
>  <TORSDO>  (45) 
F 21

>  <SCORE>  (45) 
-13.780

>  <name>  (45) 
44

>  <ligand_id>  (45) 
44

>  <original_smiles>  (45) 
[H]N=C1C(C(=O)N2C([H])([H])C([H])([H])C([H])([H])C([H])(n3nc(-c4c([H])c([H])c(Oc5c([H])c([H])c(F)c([H])c5F)c([H])c4[H])c(C(=O)N([H])[H])c3N([H])[H])C2([H])[H])(C([H])([H])[H])C(=O)N(C([H])([H])C([H])([H])[H])C1([H])C([H])([H])C([H])(C([H])([H])[H])C([H])([H])C([H])([H])Oc1c([H])c([H])c2c(c1[H])C([H])([H])N(C(=O)C([H])(N([H])C(=O)C([H])(N([H])C([H])([H])[H])C([H])([H])[H])C(C([H])([H])[H])(C([H])([H])[H])C([H])([H])[H])C([H])(C(=O)N([H])C1([H])c3c([H])c([H])c([H])c([H])c3C([H])([H])C([H])([H])C1([H])[H])C2([H])[H]

>  <smiles>  (45) 
[H]N=C1C(C(=O)N2C([H])([H])C([H])([H])C([H])([H])C([H])(n3nc(-c4c([H])c([H])c(Oc5c([H])c([H])c(F)c([H])c5F)c([H])c4[H])c(C(=O)N([H])[H])c3N([H])[H])C2([H])[H])(C([H])([H])[H])C(=O)N(C([H])([H])C([H])([H])[H])C1([H])C([H])([H])C([H])(C([H])([H])[H])C([H])([H])C([H])([H])Oc1c([H])c([H])c2c(c1[H])C([H])([H])N(C(=O)C([H])(N([H])C(=O)C([H])(N([H])C([H])([H])[H])C([H])([H])[H])C(C([H])([H])[H])(C([H])([H])[H])C([H])([H])[H])C([H])(C(=O)N([H])C1([H])c3c([H])c([H])c([H])c([H])c3C([H])([H])C([H])([H])C1([H])[H])C2([H])[H]

$$$$
45:0:0
     RDKit          3D

 97106  0  0  1  0  0  0  0  0999 V2000
  -29.2830  -24.1500   19.8610 C   0  0  0  0  0  0  0  0  0  0  0  0
  -30.5890  -24.2170   19.3090 C   0  0  0  0  0  0  0  0  0  0  0  0
  -28.8810  -22.8880   20.4480 C   0  0  0  0  0  0  0  0  0  0  0  0
  -31.3910  -23.0520   19.3020 C   0  0  0  0  0  0  0  0  0  0  0  0
  -29.7530  -21.7500   20.3290 C   0  0  0  0  0  0  0  0  0  0  0  0
  -31.0880  -25.5220   18.6830 C   0  0  0  0  0  1  0  0  0  0  0  0
  -32.7790  -23.0350   18.6790 C   0  0  0  0  0  1  0  0  0  0  0  0
  -30.9750  -21.8610   19.7820 N   0  0  0  0  0  0  0  0  0  0  0  0
  -26.3250  -22.5180   20.2600 C   0  0  0  0  0  1  0  0  0  0  0  0
  -27.2960  -23.7320   22.3360 C   0  0  0  0  0  1  0  0  0  0  0  0
  -27.5340  -22.7180   21.1960 C   0  0  0  0  0  3  0  0  0  0  0  0
  -29.3710  -20.4420   20.7560 N   0  0  0  0  0  0  0  0  0  0  0  0
  -28.4550  -20.3550   21.1760 H   0  0  0  0  0  0  0  0  0  0  0  0
  -30.9850  -14.8550   20.2590 C   0  0  0  0  0  0  0  0  0  0  0  0
  -30.6630  -12.6110   19.2680 C   0  0  0  0  0  2  0  0  0  0  0  0
  -29.7250  -12.7200   18.0500 C   0  0  0  0  0  2  0  0  0  0  0  0
  -28.2590  -12.5740   18.4940 C   0  0  0  0  0  2  0  0  0  0  0  0
  -27.9060  -13.4710   19.7120 C   0  0  0  0  0  3  0  0  0  0  0  0
  -28.9780  -13.4020   20.8220 C   0  0  0  0  0  2  0  0  0  0  0  0
  -30.2800  -13.6850   20.2050 N   0  0  0  0  0  0  0  0  0  0  0  0
  -32.1620  -14.9020   19.8860 O   0  0  0  0  0  0  0  0  0  0  0  0
  -29.4720  -18.2820   19.4260 C   0  0  0  0  0  2  0  0  0  0  0  0
  -30.0580  -18.2460   21.7900 C   0  0  0  0  0  2  0  0  0  0  0  0
  -30.1760  -16.8970   19.2490 C   0  0  0  0  0  2  0  0  0  0  0  0
  -30.7820  -16.8730   21.6000 C   0  0  0  0  0  2  0  0  0  0  0  0
  -30.0920  -19.1560   20.5390 C   0  0  0  0  0  3  0  0  0  0  0  0
  -30.3120  -16.0400   20.4640 N   0  0  0  0  0  0  0  0  0  0  0  0
  -25.5350  -14.0630   20.4950 C   0  0  0  0  0  0  0  0  0  0  0  0
  -24.4670  -13.2890   20.8620 C   0  0  0  0  0  0  0  0  0  0  0  0
  -24.9170  -11.9350   20.7890 C   0  0  0  0  0  0  0  0  0  0  0  0
  -26.5670  -13.1820   20.2200 N   0  0  0  0  0  0  0  0  0  0  0  0
  -26.2020  -11.8950   20.4550 N   0  0  0  0  0  0  0  0  0  0  0  0
  -24.1810  -10.6740   20.9560 C   0  0  0  0  0  0  0  0  0  0  0  0
  -24.5520   -9.7240   21.9320 C   0  0  0  0  0  3  0  0  0  0  0  0
  -23.8150   -8.5310   22.0880 C   0  0  0  0  0  3  0  0  0  0  0  0
  -22.6920   -8.2770   21.2650 C   0  0  0  0  0  0  0  0  0  0  0  0
  -22.3420   -9.2150   20.2780 C   0  0  0  0  0  3  0  0  0  0  0  0
  -23.0790  -10.4000   20.1210 C   0  0  0  0  0  3  0  0  0  0  0  0
  -21.9340   -7.1330   21.3280 O   0  0  0  0  0  0  0  0  0  0  0  0
  -21.7290   -6.4660   22.5080 C   0  0  0  0  0  0  0  0  0  0  0  0
  -21.0800   -7.0730   23.6050 C   0  0  0  0  0  3  0  0  0  0  0  0
  -20.8350   -6.3310   24.7780 C   0  0  0  0  0  3  0  0  0  0  0  0
  -21.2250   -4.9800   24.8520 C   0  0  0  0  0  0  0  0  0  0  0  0
  -21.8690   -4.3720   23.7600 C   0  0  0  0  0  3  0  0  0  0  0  0
  -22.1190   -5.1130   22.5910 C   0  0  0  0  0  0  0  0  0  0  0  0
  -22.7180   -4.5150   21.5320 F   0  0  0  0  0  0  0  0  0  0  0  0
  -20.9820   -4.2650   25.9760 F   0  0  0  0  0  0  0  0  0  0  0  0
  -23.0800  -13.7710   21.1740 C   0  0  0  0  0  0  0  0  0  0  0  0
  -22.3630  -13.0600   22.0350 N   0  0  0  0  0  0  0  0  0  0  0  0
  -22.6410  -14.8130   20.6870 O   0  0  0  0  0  0  0  0  0  0  0  0
  -22.7320  -12.2160   22.4500 H   0  0  0  0  0  0  0  0  0  0  0  0
  -21.4330  -13.3630   22.2870 H   0  0  0  0  0  0  0  0  0  0  0  0
  -25.7120  -15.4360   20.3510 N   0  0  0  0  0  0  0  0  0  0  0  0
  -24.9670  -16.1100   20.4950 H   0  0  0  0  0  0  0  0  0  0  0  0
  -26.5800  -15.8670   20.0580 H   0  0  0  0  0  0  0  0  0  0  0  0
  -28.2660  -25.2970   19.5510 C   0  0  0  0  0  2  0  0  0  0  0  0
  -28.5280  -26.7220   19.8280 O   0  0  0  0  0  0  0  0  0  0  0  0
  -24.5630  -31.7740   23.0920 C   0  0  0  0  0  0  0  0  0  0  0  0
  -27.3840  -27.5370   19.7970 C   0  0  0  0  0  0  0  0  0  0  0  0
  -23.4260  -30.4200   21.3720 C   0  0  0  0  0  3  0  0  0  0  0  0
  -24.9480  -29.0320   19.8700 C   0  0  0  0  0  0  0  0  0  0  0  0
  -25.9490  -30.8690   21.2180 C   0  0  0  0  0  2  0  0  0  0  0  0
  -26.0940  -29.5350   20.4980 C   0  0  0  0  0  0  0  0  0  0  0  0
  -27.3160  -28.8000   20.4570 C   0  0  0  0  0  3  0  0  0  0  0  0
  -26.2090  -27.1000   19.1320 C   0  0  0  0  0  3  0  0  0  0  0  0
  -25.0060  -27.8180   19.1800 C   0  0  0  0  0  3  0  0  0  0  0  0
  -23.6710  -29.8380   19.9590 C   0  0  0  0  0  2  0  0  0  0  0  0
  -24.6640  -31.0320   21.9520 N   0  0  0  0  0  0  0  0  0  0  0  0
  -23.4660  -31.9750   23.6330 O   0  0  0  0  0  0  0  0  0  0  0  0
  -22.8090  -29.3190   22.2650 C   0  0  0  0  0  0  0  0  0  0  0  0
  -21.4890  -29.1090   22.1390 N   0  0  0  0  0  0  0  0  0  0  0  0
  -23.5160  -28.6630   23.0360 O   0  0  0  0  0  0  0  0  0  0  0  0
  -20.9780  -29.6900   21.4870 H   0  0  0  0  0  0  0  0  0  0  0  0
  -18.1450  -27.8250   22.6360 C   0  0  0  0  0  0  0  0  0  0  0  0
  -20.7060  -28.1020   22.8550 C   0  0  0  0  0  3  0  0  0  0  0  0
  -20.8110  -26.7220   22.1650 C   0  0  0  0  0  2  0  0  0  0  0  0
  -19.6830  -26.4620   21.1610 C   0  0  0  0  0  2  0  0  0  0  0  0
  -18.3180  -26.5360   21.8510 C   0  0  0  0  0  2  0  0  0  0  0  0
  -19.2650  -28.5680   23.0930 C   0  0  0  0  0  0  0  0  0  0  0  0
  -19.0470  -29.7770   23.7900 C   0  0  0  0  0  3  0  0  0  0  0  0
  -17.7410  -30.2450   24.0290 C   0  0  0  0  0  3  0  0  0  0  0  0
  -16.6360  -29.4990   23.5860 C   0  0  0  0  0  3  0  0  0  0  0  0
  -16.8380  -28.2890   22.8970 C   0  0  0  0  0  3  0  0  0  0  0  0
  -25.8150  -32.4260   23.7550 C   0  0  0  0  0  3  0  0  0  0  0  0
  -26.3250  -31.6340   25.0220 C   0  0  1  0  0  0  0  0  0  0  0  0
  -25.2150  -31.3270   26.0560 C   0  0  0  0  0  1  0  0  0  0  0  0
  -26.9620  -30.2880   24.6060 C   0  0  0  0  0  1  0  0  0  0  0  0
  -27.4360  -32.4440   25.7340 C   0  0  0  0  0  1  0  0  0  0  0  0
  -25.4590  -33.8060   24.1130 N   0  0  0  0  0  0  0  0  0  0  0  0
  -25.7670  -34.8840   23.3790 C   0  0  0  0  0  0  0  0  0  0  0  0
  -26.4520  -34.8240   22.3540 O   0  0  0  0  0  0  0  0  0  0  0  0
  -24.8510  -33.9260   24.9090 H   0  0  0  0  0  0  0  0  0  0  0  0
  -23.9960  -36.6350   23.0320 C   0  0  0  0  0  1  0  0  0  0  0  0
  -25.2320  -36.2470   23.8590 C   0  0  0  0  0  3  0  0  0  0  0  0
  -27.3160  -37.1770   24.7640 C   0  0  0  0  0  1  0  0  0  0  0  0
  -26.2360  -37.3310   23.7920 N   0  0  0  0  0  0  0  0  0  0  0  0
  -25.7980  -38.2350   23.9480 H   0  0  0  0  0  0  0  0  0  0  0  0
  1  3  1  0
  2  1  2  0
  3 11  1  0
  4  2  1  0
  4  8  2  0
  5  3  2  0
  5 12  1  0
  6  2  1  0
  7  4  1  0
  8  5  1  0
  9 11  1  0
 11 10  1  0
 12 13  1  0
 14 27  1  0
 15 20  1  0
 16 17  1  0
 16 15  1  0
 18 17  1  0
 18 31  1  0
 18 19  1  0
 20 14  1  0
 20 19  1  0
 21 14  2  0
 22 26  1  0
 24 22  1  0
 24 27  1  0
 25 23  1  0
 26 12  1  0
 26 23  1  0
 27 25  1  0
 28 29  2  0
 29 48  1  0
 30 29  1  0
 30 33  1  0
 31 32  1  0
 31 28  1  0
 32 30  2  0
 33 34  1  0
 34 35  2  0
 36 39  1  0
 36 35  1  0
 37 36  2  0
 38 37  1  0
 38 33  2  0
 39 40  1  0
 40 45  2  0
 40 41  1  0
 41 42  2  0
 42 43  1  0
 43 47  1  0
 44 43  2  0
 45 44  1  0
 46 45  1  0
 48 49  1  0
 49 52  1  0
 49 51  1  0
 50 48  2  0
 53 54  1  0
 53 28  1  0
 55 53  1  0
 56 57  1  0
 56  1  1  0
 58 69  2  0
 59 57  1  0
 59 64  1  0
 60 68  1  0
 60 70  1  0
 61 67  1  0
 61 63  1  0
 62 68  1  0
 63 62  1  0
 64 63  2  0
 65 66  1  0
 65 59  2  0
 66 61  2  0
 67 60  1  0
 68 58  1  0
 70 72  2  0
 71 70  1  0
 73 71  1  0
 74 83  2  0
 74 79  1  0
 75 71  1  0
 75 79  1  0
 76 75  1  0
 77 78  1  0
 77 76  1  0
 78 74  1  0
 79 80  2  0
 80 81  1  0
 82 81  2  0
 83 82  1  0
 84 58  1  0
 84 89  1  0
 84 85  1  0
 85 88  1  1
 85 86  1  0
 87 85  1  0
 89 92  1  0
 90 94  1  0
 90 89  1  0
 91 90  2  0
 94 93  1  0
 96 94  1  0
 96 97  1  0
 96 95  1  0
M  ISO  4  14 100  27 100  56 101  57 101
M  END
>  <TORSDO>  (46) 
F 19

>  <SCORE>  (46) 
-13.294

>  <name>  (46) 
45

>  <ligand_id>  (46) 
45

>  <original_smiles>  (46) 
[H]c1c([H])c([H])c2c(c1[H])C([H])([H])C([H])([H])C([H])([H])C2([H])N([H])C(=O)C1([H])N(C(=O)C([H])(N([H])C(=O)C([H])(N([H])C([H])([H])[H])C([H])([H])[H])C(C([H])([H])[H])(C([H])([H])[H])C([H])([H])[H])C([H])([H])c2c([H])c(OC([H])([H])c3c(C([H])([H])[H])c(C([H])([H])[H])nc(N([H])C4([H])C([H])([H])C([H])([H])N(C(=O)N5C([H])([H])C([H])([H])C([H])([H])C([H])(n6nc(-c7c([H])c([H])c(Oc8c([H])c([H])c(F)c([H])c8F)c([H])c7[H])c(C(=O)N([H])[H])c6N([H])[H])C5([H])[H])C([H])([H])C4([H])[H])c3C([H])(C([H])([H])[H])C([H])([H])[H])c([H])c([H])c2C1([H])[H]

>  <smiles>  (46) 
[H]c1c([H])c([H])c2c(c1[H])C([H])([H])C([H])([H])C([H])([H])C2([H])N([H])C(=O)C1([H])N(C(=O)C([H])(N([H])C(=O)C([H])(N([H])C([H])([H])[H])C([H])([H])[H])C(C([H])([H])[H])(C([H])([H])[H])C([H])([H])[H])C([H])([H])c2c([H])c(OC([H])([H])c3c(C([H])([H])[H])c(C([H])([H])[H])nc(N([H])C4([H])C([H])([H])C([H])([H])N(C(=O)N5C([H])([H])C([H])([H])C([H])([H])C([H])(n6nc(-c7c([H])c([H])c(Oc8c([H])c([H])c(F)c([H])c8F)c([H])c7[H])c(C(=O)N([H])[H])c6N([H])[H])C5([H])[H])C([H])([H])C4([H])[H])c3C([H])(C([H])([H])[H])C([H])([H])[H])c([H])c([H])c2C1([H])[H]

$$$$
46:0:0
     RDKit          3D

 95104  0  0  1  0  0  0  0  0999 V2000
  -28.4370  -24.8870   18.2750 C   0  0  0  0  0  3  0  0  0  0  0  0
  -28.7020  -23.6340   17.7050 C   0  0  0  0  0  0  0  0  0  0  0  0
  -28.3630  -24.9920   19.6670 C   0  0  0  0  0  0  0  0  0  0  0  0
  -28.7920  -22.6170   19.7710 C   0  0  0  0  0  0  0  0  0  0  0  0
  -28.8410  -23.4760   16.2050 C   0  0  0  0  0  1  0  0  0  0  0  0
  -28.8730  -22.5180   18.4450 N   0  0  0  0  0  0  0  0  0  0  0  0
  -28.5630  -23.8250   20.4060 N   0  0  0  0  0  0  0  0  0  0  0  0
  -28.2830  -26.2940   20.2700 O   0  0  0  0  0  0  0  0  0  0  0  0
  -24.6030  -31.8270   23.2070 C   0  0  0  0  0  0  0  0  0  0  0  0
  -27.1940  -27.2010   20.1550 C   0  0  0  0  0  0  0  0  0  0  0  0
  -23.3990  -30.4350   21.5630 C   0  0  0  0  0  3  0  0  0  0  0  0
  -24.8470  -28.8730   20.1330 C   0  0  0  0  0  0  0  0  0  0  0  0
  -25.9440  -30.7270   21.3890 C   0  0  0  0  0  2  0  0  0  0  0  0
  -26.0180  -29.3420   20.7390 C   0  0  0  0  0  0  0  0  0  0  0  0
  -27.1910  -28.5170   20.7420 C   0  0  0  0  0  3  0  0  0  0  0  0
  -25.9940  -26.8010   19.5260 C   0  0  0  0  0  3  0  0  0  0  0  0
  -24.8400  -27.6120   19.5160 C   0  0  0  0  0  3  0  0  0  0  0  0
  -23.6160  -29.7600   20.1810 C   0  0  0  0  0  2  0  0  0  0  0  0
  -24.6680  -31.0170   22.1080 N   0  0  0  0  0  0  0  0  0  0  0  0
  -23.5200  -32.1080   23.7390 O   0  0  0  0  0  0  0  0  0  0  0  0
  -22.7280  -29.4210   22.5220 C   0  0  0  0  0  0  0  0  0  0  0  0
  -21.3980  -29.2630   22.4110 N   0  0  0  0  0  0  0  0  0  0  0  0
  -23.4070  -28.7800   23.3300 O   0  0  0  0  0  0  0  0  0  0  0  0
  -20.9090  -29.8350   21.7370 H   0  0  0  0  0  0  0  0  0  0  0  0
  -18.0110  -28.1010   22.9380 C   0  0  0  0  0  0  0  0  0  0  0  0
  -20.5760  -28.3290   23.1830 C   0  0  0  0  0  3  0  0  0  0  0  0
  -20.6550  -26.9010   22.5980 C   0  0  0  0  0  2  0  0  0  0  0  0
  -19.5390  -26.5970   21.5930 C   0  0  0  0  0  2  0  0  0  0  0  0
  -18.1650  -26.7540   22.2510 C   0  0  0  0  0  2  0  0  0  0  0  0
  -19.1430  -28.8470   23.3620 C   0  0  0  0  0  0  0  0  0  0  0  0
  -18.9450  -30.1070   23.9660 C   0  0  0  0  0  3  0  0  0  0  0  0
  -17.6480  -30.6230   24.1480 C   0  0  0  0  0  3  0  0  0  0  0  0
  -16.5300  -29.8720   23.7400 C   0  0  0  0  0  3  0  0  0  0  0  0
  -16.7130  -28.6140   23.1410 C   0  0  0  0  0  3  0  0  0  0  0  0
  -25.8850  -32.4600   23.8310 C   0  0  0  0  0  3  0  0  0  0  0  0
  -26.4030  -31.6860   25.1050 C   0  0  1  0  0  0  0  0  0  0  0  0
  -25.3130  -31.4470   26.1760 C   0  0  0  0  0  1  0  0  0  0  0  0
  -26.9840  -30.3090   24.7100 C   0  0  0  0  0  1  0  0  0  0  0  0
  -27.5540  -32.4770   25.7690 C   0  0  0  0  0  1  0  0  0  0  0  0
  -25.5750  -33.8570   24.1720 N   0  0  0  0  0  0  0  0  0  0  0  0
  -25.8970  -34.9160   23.4160 C   0  0  0  0  0  0  0  0  0  0  0  0
  -26.5550  -34.8210   22.3770 O   0  0  0  0  0  0  0  0  0  0  0  0
  -24.9940  -34.0050   24.9830 H   0  0  0  0  0  0  0  0  0  0  0  0
  -24.1560  -36.7060   23.0990 C   0  0  0  0  0  1  0  0  0  0  0  0
  -25.4110  -36.3010   23.8880 C   0  0  0  0  0  3  0  0  0  0  0  0
  -27.5550  -37.1900   24.6910 C   0  0  0  0  0  1  0  0  0  0  0  0
  -26.4370  -37.3600   23.7660 N   0  0  0  0  0  0  0  0  0  0  0  0
  -26.0300  -38.2760   23.9290 H   0  0  0  0  0  0  0  0  0  0  0  0
  -28.9030  -21.2090   20.5290 C   0  0  0  0  0  2  0  0  0  0  0  0
  -29.5110  -19.9980   19.7890 N   0  0  0  0  0  4  0  0  0  0  0  0
  -30.5050  -20.1490   19.7920 H   0  0  0  0  0  0  0  0  0  0  0  0
  -29.2200  -20.1490   18.8350 H   0  0  0  0  0  0  0  0  0  0  0  0
  -27.9430  -18.0450   19.4350 C   0  0  0  0  0  1  0  0  0  0  0  0
  -29.1830  -18.5330   20.2010 C   0  0  0  0  0  3  0  0  0  0  0  0
  -30.6650  -14.7450   19.9990 C   0  0  0  0  0  0  0  0  0  0  0  0
  -30.3680  -12.4750   18.9530 C   0  0  0  0  0  2  0  0  0  0  0  0
  -29.3720  -12.5580   17.7740 C   0  0  0  0  0  2  0  0  0  0  0  0
  -27.9250  -12.3860   18.2740 C   0  0  0  0  0  2  0  0  0  0  0  0
  -27.6190  -13.2590   19.5200 C   0  0  0  0  0  3  0  0  0  0  0  0
  -28.7330  -13.1570   20.5840 C   0  0  0  0  0  2  0  0  0  0  0  0
  -29.9980  -13.5300   19.9360 N   0  0  0  0  0  0  0  0  0  0  0  0
  -31.7690  -14.8350   19.4530 O   0  0  0  0  0  0  0  0  0  0  0  0
  -30.9510  -17.0290   22.4550 C   0  0  0  0  0  2  0  0  0  0  0  0
  -31.4260  -17.7280   21.1800 C   0  0  0  0  0  2  0  0  0  0  0  0
  -29.9790  -15.9350   21.9820 C   0  0  0  0  0  2  0  0  0  0  0  0
  -30.3550  -17.3730   20.1440 C   0  0  0  0  0  3  0  0  0  0  0  0
  -30.0360  -15.8970   20.5130 N   0  0  0  0  0  0  0  0  0  0  0  0
  -25.2750  -13.8480   20.3800 C   0  0  0  0  0  0  0  0  0  0  0  0
  -24.2290  -13.0760   20.7990 C   0  0  0  0  0  0  0  0  0  0  0  0
  -24.6840  -11.7220   20.7310 C   0  0  0  0  0  0  0  0  0  0  0  0
  -26.3020  -12.9680   20.0790 N   0  0  0  0  0  0  0  0  0  0  0  0
  -25.9560  -11.6840   20.3510 N   0  0  0  0  0  0  0  0  0  0  0  0
  -23.9600  -10.4620   20.9450 C   0  0  0  0  0  0  0  0  0  0  0  0
  -24.4130   -9.4950   21.8710 C   0  0  0  0  0  3  0  0  0  0  0  0
  -23.6880   -8.3000   22.0730 C   0  0  0  0  0  3  0  0  0  0  0  0
  -22.4930   -8.0640   21.3510 C   0  0  0  0  0  0  0  0  0  0  0  0
  -22.0580   -9.0200   20.4140 C   0  0  0  0  0  3  0  0  0  0  0  0
  -22.7850  -10.2050   20.2100 C   0  0  0  0  0  3  0  0  0  0  0  0
  -21.7410   -6.9200   21.4640 O   0  0  0  0  0  0  0  0  0  0  0  0
  -21.6950   -6.2000   22.6300 C   0  0  0  0  0  0  0  0  0  0  0  0
  -21.2870   -6.7830   23.8510 C   0  0  0  0  0  3  0  0  0  0  0  0
  -21.1880   -5.9880   25.0100 C   0  0  0  0  0  3  0  0  0  0  0  0
  -21.4850   -4.6140   24.9500 C   0  0  0  0  0  0  0  0  0  0  0  0
  -21.8850   -4.0310   23.7360 C   0  0  0  0  0  3  0  0  0  0  0  0
  -21.9860   -4.8210   22.5780 C   0  0  0  0  0  0  0  0  0  0  0  0
  -22.3500   -4.2500   21.4040 F   0  0  0  0  0  0  0  0  0  0  0  0
  -21.3830   -3.8500   26.0640 F   0  0  0  0  0  0  0  0  0  0  0  0
  -22.8490  -13.5570   21.1490 C   0  0  0  0  0  0  0  0  0  0  0  0
  -22.1650  -12.8640   22.0510 N   0  0  0  0  0  0  0  0  0  0  0  0
  -22.3860  -14.5840   20.6550 O   0  0  0  0  0  0  0  0  0  0  0  0
  -22.5500  -12.0340   22.4780 H   0  0  0  0  0  0  0  0  0  0  0  0
  -21.2430  -13.1730   22.3250 H   0  0  0  0  0  0  0  0  0  0  0  0
  -25.4330  -15.2190   20.2050 N   0  0  0  0  0  0  0  0  0  0  0  0
  -24.6680  -15.8670   20.3500 H   0  0  0  0  0  0  0  0  0  0  0  0
  -26.2570  -15.6570   19.8180 H   0  0  0  0  0  0  0  0  0  0  0  0
  1  3  1  0
  2  1  2  0
  2  6  1  0
  3  8  1  0
  3  7  2  0
  4  7  1  0
  4 49  1  0
  5  2  1  0
  6  4  2  0
  9 20  2  0
 10  8  1  0
 10 15  1  0
 11 19  1  0
 11 21  1  0
 12 18  1  0
 12 14  1  0
 13 19  1  0
 14 15  2  0
 14 13  1  0
 16 10  2  0
 17 16  1  0
 17 12  2  0
 18 11  1  0
 19  9  1  0
 21 23  2  0
 22 21  1  0
 24 22  1  0
 25 34  2  0
 25 30  1  0
 26 22  1  0
 26 30  1  0
 27 26  1  0
 28 29  1  0
 28 27  1  0
 29 25  1  0
 30 31  2  0
 31 32  1  0
 33 32  2  0
 34 33  1  0
 35  9  1  0
 35 40  1  0
 35 36  1  0
 36 39  1  1
 36 37  1  0
 38 36  1  0
 40 43  1  0
 41 45  1  0
 41 40  1  0
 42 41  2  0
 45 44  1  0
 47 45  1  0
 47 48  1  0
 47 46  1  0
 50 51  1  0
 50 54  1  0
 50 49  1  0
 52 50  1  0
 54 53  1  0
 55 67  1  0
 56 61  1  0
 57 58  1  0
 57 56  1  0
 59 58  1  0
 59 71  1  0
 59 60  1  0
 61 55  1  0
 61 60  1  0
 62 55  2  0
 64 63  1  0
 65 63  1  0
 66 54  1  0
 66 67  1  0
 66 64  1  0
 67 65  1  0
 68 69  2  0
 69 88  1  0
 70 69  1  0
 70 73  1  0
 71 72  1  0
 71 68  1  0
 72 70  2  0
 73 74  1  0
 74 75  2  0
 76 79  1  0
 76 75  1  0
 77 76  2  0
 78 77  1  0
 78 73  2  0
 79 80  1  0
 80 81  1  0
 81 82  2  0
 83 82  1  0
 83 87  1  0
 84 83  2  0
 85 80  2  0
 85 84  1  0
 86 85  1  0
 88 89  1  0
 89 92  1  0
 89 91  1  0
 90 88  2  0
 93 94  1  0
 93 68  1  0
 95 93  1  0
M  ISO  4   3 101   8 101  55 100  67 100
M  END
>  <TORSDO>  (47) 
F 19

>  <SCORE>  (47) 
-13.746

>  <name>  (47) 
46

>  <ligand_id>  (47) 
46

>  <original_smiles>  (47) 
[H]c1c(Oc2c([H])c([H])c3c(c2[H])C([H])([H])N(C(=O)C([H])(N([H])C(=O)C([H])(N([H])C([H])([H])[H])C([H])([H])[H])C(C([H])([H])[H])(C([H])([H])[H])C([H])([H])[H])C([H])(C(=O)N([H])C2([H])c4c([H])c([H])c([H])c([H])c4C([H])([H])C([H])([H])C2([H])[H])C3([H])[H])nc(C([H])([H])[N+]([H])([H])C([H])(C([H])([H])[H])C2([H])N(C(=O)N3C([H])([H])C([H])([H])C([H])([H])C([H])(n4nc(-c5c([H])c([H])c(Oc6c([H])c([H])c(F)c([H])c6F)c([H])c5[H])c(C(=O)N([H])[H])c4N([H])[H])C3([H])[H])C([H])([H])C([H])([H])C2([H])[H])nc1C([H])([H])[H]

>  <smiles>  (47) 
[H]c1c(Oc2c([H])c([H])c3c(c2[H])C([H])([H])N(C(=O)C([H])(N([H])C(=O)C([H])(N([H])C([H])([H])[H])C([H])([H])[H])C(C([H])([H])[H])(C([H])([H])[H])C([H])([H])[H])C([H])(C(=O)N([H])C2([H])c4c([H])c([H])c([H])c([H])c4C([H])([H])C([H])([H])C2([H])[H])C3([H])[H])nc(C([H])([H])[N+]([H])([H])C([H])(C([H])([H])[H])C2([H])N(C(=O)N3C([H])([H])C([H])([H])C([H])([H])C([H])(n4nc(-c5c([H])c([H])c(Oc6c([H])c([H])c(F)c([H])c6F)c([H])c5[H])c(C(=O)N([H])[H])c4N([H])[H])C3([H])[H])C([H])([H])C([H])([H])C2([H])[H])nc1C([H])([H])[H]

$$$$
47:0:0
     RDKit          3D

 99109  0  0  1  0  0  0  0  0999 V2000
  -28.8780  -22.0890   20.3500 C   0  0  0  0  0  3  0  0  0  0  0  0
  -29.2680  -20.9430   19.5080 C   0  0  0  0  0  0  0  0  0  0  0  0
  -29.4100  -21.3320   18.1350 C   0  0  0  0  0  0  0  0  0  0  0  0
  -29.3570  -22.6970   17.7520 C   0  0  0  0  0  0  0  0  0  0  0  0
  -28.7250  -23.4760   19.8510 C   0  0  0  0  0  0  0  0  0  0  0  0
  -29.7240  -23.0750   16.3210 C   0  0  0  0  0  2  0  0  0  0  0  0
  -30.6280  -20.7980   15.9190 C   0  0  0  0  0  2  0  0  0  0  0  0
  -29.5700  -20.3440   16.9610 C   0  0  0  0  0  3  0  0  0  0  0  0
  -28.2090  -20.0760   16.2860 C   0  0  0  0  0  1  0  0  0  0  0  0
  -29.0330  -23.7220   18.5660 N   0  0  0  0  0  0  0  0  0  0  0  0
  -30.8930  -22.2670   15.8900 N   0  0  1  0  0  4  0  0  0  0  0  0
  -31.5420  -22.4040   16.6490 H   0  0  0  0  0  0  0  0  0  0  0  0
  -30.6670  -14.9040   20.4230 C   0  0  0  0  0  0  0  0  0  0  0  0
  -30.4680  -12.5810   19.4670 C   0  0  0  0  0  2  0  0  0  0  0  0
  -29.5650  -12.5320   18.2170 C   0  0  0  0  0  2  0  0  0  0  0  0
  -28.1000  -12.3110   18.6290 C   0  0  0  0  0  2  0  0  0  0  0  0
  -27.6640  -13.2530   19.7780 C   0  0  0  0  0  3  0  0  0  0  0  0
  -28.6990  -13.3190   20.9240 C   0  0  0  0  0  2  0  0  0  0  0  0
  -29.9840  -13.6970   20.3270 N   0  0  0  0  0  0  0  0  0  0  0  0
  -31.8890  -14.8610   20.2470 O   0  0  0  0  0  0  0  0  0  0  0  0
  -30.1970  -18.8430   21.2200 C   0  0  0  0  0  2  0  0  0  0  0  0
  -28.5450  -18.2430   19.6060 C   0  0  0  0  0  2  0  0  0  0  0  0
  -30.8130  -17.3480   21.1550 C   0  0  0  0  0  2  0  0  0  0  0  0
  -28.9990  -16.7000   19.6270 C   0  0  0  0  0  2  0  0  0  0  0  0
  -29.6000  -19.3650   19.8800 C   0  0  0  0  0  3  0  0  0  0  0  0
  -30.0360  -16.1780   20.5820 N   0  0  0  0  0  0  0  0  0  0  0  0
  -25.2740  -13.8470   20.4690 C   0  0  0  0  0  0  0  0  0  0  0  0
  -24.2030  -13.0750   20.8240 C   0  0  0  0  0  0  0  0  0  0  0  0
  -24.6730  -11.7260   20.8240 C   0  0  0  0  0  0  0  0  0  0  0  0
  -26.3220  -12.9660   20.2620 N   0  0  0  0  0  0  0  0  0  0  0  0
  -25.9700  -11.6880   20.5470 N   0  0  0  0  0  0  0  0  0  0  0  0
  -23.9470  -10.4640   21.0120 C   0  0  0  0  0  0  0  0  0  0  0  0
  -24.3530   -9.5180   21.9790 C   0  0  0  0  0  3  0  0  0  0  0  0
  -23.6280   -8.3200   22.1540 C   0  0  0  0  0  3  0  0  0  0  0  0
  -22.4830   -8.0610   21.3640 C   0  0  0  0  0  0  0  0  0  0  0  0
  -22.0960   -8.9970   20.3880 C   0  0  0  0  0  3  0  0  0  0  0  0
  -22.8220  -10.1870   20.2120 C   0  0  0  0  0  3  0  0  0  0  0  0
  -21.7330   -6.9120   21.4450 O   0  0  0  0  0  0  0  0  0  0  0  0
  -21.6400   -6.1980   22.6110 C   0  0  0  0  0  0  0  0  0  0  0  0
  -21.1400   -6.7720   23.8000 C   0  0  0  0  0  3  0  0  0  0  0  0
  -20.9950   -5.9830   24.9580 C   0  0  0  0  0  3  0  0  0  0  0  0
  -21.3390   -4.6180   24.9270 C   0  0  0  0  0  0  0  0  0  0  0  0
  -21.8330   -4.0430   23.7440 C   0  0  0  0  0  3  0  0  0  0  0  0
  -21.9800   -4.8300   22.5880 C   0  0  0  0  0  0  0  0  0  0  0  0
  -22.4350   -4.2660   21.4430 F   0  0  0  0  0  0  0  0  0  0  0  0
  -21.1930   -3.8560   26.0370 F   0  0  0  0  0  0  0  0  0  0  0  0
  -22.7990  -13.5510   21.0500 C   0  0  0  0  0  0  0  0  0  0  0  0
  -22.0480  -12.8650   21.9030 N   0  0  0  0  0  0  0  0  0  0  0  0
  -22.3730  -14.5680   20.5030 O   0  0  0  0  0  0  0  0  0  0  0  0
  -22.4040  -12.0450   22.3710 H   0  0  0  0  0  0  0  0  0  0  0  0
  -21.1050  -13.1690   22.0950 H   0  0  0  0  0  0  0  0  0  0  0  0
  -25.4340  -15.2160   20.2770 N   0  0  0  0  0  0  0  0  0  0  0  0
  -24.6610  -15.8670   20.3590 H   0  0  0  0  0  0  0  0  0  0  0  0
  -26.2970  -15.6610   19.9970 H   0  0  0  0  0  0  0  0  0  0  0  0
  -32.4160  -21.7470   13.8880 C   0  0  0  0  0  1  0  0  0  0  0  0
  -32.4590  -23.9970   14.9880 C   0  0  0  0  0  1  0  0  0  0  0  0
  -31.5650  -22.7890   14.6560 C   0  0  0  0  0  3  0  0  0  0  0  0
  -28.1280  -24.7820   20.6310 C   0  0  0  0  0  2  0  0  0  0  0  0
  -28.3230  -26.2490   20.1960 O   0  0  0  0  0  0  0  0  0  0  0  0
  -24.6030  -31.8420   23.2290 C   0  0  0  0  0  0  0  0  0  0  0  0
  -27.2370  -27.1790   20.2100 C   0  0  0  0  0  0  0  0  0  0  0  0
  -23.4210  -30.4390   21.5810 C   0  0  0  0  0  3  0  0  0  0  0  0
  -24.8870  -28.8690   20.1760 C   0  0  0  0  0  0  0  0  0  0  0  0
  -25.9720  -30.7300   21.4290 C   0  0  0  0  0  2  0  0  0  0  0  0
  -26.0590  -29.3390   20.7830 C   0  0  0  0  0  0  0  0  0  0  0  0
  -27.2390  -28.5120   20.7780 C   0  0  0  0  0  3  0  0  0  0  0  0
  -26.0370  -26.7920   19.5810 C   0  0  0  0  0  3  0  0  0  0  0  0
  -24.8830  -27.6060   19.5660 C   0  0  0  0  0  3  0  0  0  0  0  0
  -23.6540  -29.7580   20.2070 C   0  0  0  0  0  2  0  0  0  0  0  0
  -24.6850  -31.0250   22.1350 N   0  0  0  0  0  0  0  0  0  0  0  0
  -23.5120  -32.1220   23.7490 O   0  0  0  0  0  0  0  0  0  0  0  0
  -22.7410  -29.4300   22.5370 C   0  0  0  0  0  0  0  0  0  0  0  0
  -21.4130  -29.2640   22.4080 N   0  0  0  0  0  0  0  0  0  0  0  0
  -23.4100  -28.7980   23.3590 O   0  0  0  0  0  0  0  0  0  0  0  0
  -20.9300  -29.8270   21.7200 H   0  0  0  0  0  0  0  0  0  0  0  0
  -18.0230  -28.0920   22.9150 C   0  0  0  0  0  0  0  0  0  0  0  0
  -20.5860  -28.3280   23.1730 C   0  0  0  0  0  3  0  0  0  0  0  0
  -20.6710  -26.8990   22.5860 C   0  0  0  0  0  2  0  0  0  0  0  0
  -19.5630  -26.5970   21.5730 C   0  0  0  0  0  2  0  0  0  0  0  0
  -18.1850  -26.7470   22.2250 C   0  0  0  0  0  2  0  0  0  0  0  0
  -19.1510  -28.8400   23.3460 C   0  0  0  0  0  0  0  0  0  0  0  0
  -18.9450  -30.0980   23.9530 C   0  0  0  0  0  3  0  0  0  0  0  0
  -17.6450  -30.6080   24.1310 C   0  0  0  0  0  3  0  0  0  0  0  0
  -16.5320  -29.8560   23.7160 C   0  0  0  0  0  3  0  0  0  0  0  0
  -16.7230  -28.6000   23.1130 C   0  0  0  0  0  3  0  0  0  0  0  0
  -25.8740  -32.4830   23.8660 C   0  0  0  0  0  3  0  0  0  0  0  0
  -25.5580  -33.8830   24.1850 N   0  0  0  0  0  0  0  0  0  0  0  0
  -25.9020  -34.9350   23.4300 C   0  0  0  0  0  0  0  0  0  0  0  0
  -26.5880  -34.8290   22.4100 O   0  0  0  0  0  0  0  0  0  0  0  0
  -24.9480  -34.0420   24.9740 H   0  0  0  0  0  0  0  0  0  0  0  0
  -24.1870  -36.7360   23.0410 C   0  0  0  0  0  1  0  0  0  0  0  0
  -25.4110  -36.3270   23.8780 C   0  0  0  0  0  3  0  0  0  0  0  0
  -27.5290  -37.2060   24.7560 C   0  0  0  0  0  1  0  0  0  0  0  0
  -26.4500  -37.3760   23.7840 N   0  0  0  0  0  0  0  0  0  0  0  0
  -26.0450  -38.2980   23.9200 H   0  0  0  0  0  0  0  0  0  0  0  0
  -26.3720  -31.7220   25.1570 C   0  0  1  0  0  0  0  0  0  0  0  0
  -25.2620  -31.4960   26.2110 C   0  0  0  0  0  1  0  0  0  0  0  0
  -26.9590  -30.3400   24.7880 C   0  0  0  0  0  1  0  0  0  0  0  0
  -27.5130  -32.5200   25.8290 C   0  0  0  0  0  1  0  0  0  0  0  0
  2  1  2  0
  3  2  1  0
  4  3  2  0
  4 10  1  0
  5  1  1  0
  5 58  1  0
  6  4  1  0
  7  8  1  0
  8  9  1  0
  8  3  1  0
 10  5  2  0
 11  7  1  0
 11  6  1  0
 11 12  1  1
 13 26  1  0
 14 19  1  0
 15 16  1  0
 15 14  1  0
 17 16  1  0
 17 30  1  0
 17 18  1  0
 19 13  1  0
 19 18  1  0
 20 13  2  0
 22 24  1  0
 22 25  1  0
 23 21  1  0
 24 26  1  0
 25  2  1  0
 25 21  1  0
 26 23  1  0
 27 28  2  0
 28 29  1  0
 28 47  1  0
 29 32  1  0
 30 27  1  0
 30 31  1  0
 31 29  2  0
 32 33  1  0
 33 34  2  0
 35 38  1  0
 35 34  1  0
 36 35  2  0
 37 36  1  0
 37 32  2  0
 38 39  1  0
 39 40  1  0
 40 41  2  0
 42 41  1  0
 42 46  1  0
 43 42  2  0
 44 39  2  0
 44 43  1  0
 45 44  1  0
 47 48  1  0
 48 51  1  0
 48 50  1  0
 49 47  2  0
 52 53  1  0
 52 27  1  0
 54 52  1  0
 55 57  1  0
 57 56  1  0
 57 11  1  0
 59 61  1  0
 59 58  1  0
 60 71  2  0
 61 66  1  0
 62 70  1  0
 62 72  1  0
 63 69  1  0
 63 65  1  0
 64 70  1  0
 65 64  1  0
 66 65  2  0
 67 61  2  0
 68 67  1  0
 68 63  2  0
 69 62  1  0
 70 60  1  0
 72 74  2  0
 73 72  1  0
 75 73  1  0
 76 85  2  0
 76 81  1  0
 77 73  1  0
 77 81  1  0
 78 77  1  0
 79 80  1  0
 79 78  1  0
 80 76  1  0
 81 82  2  0
 82 83  1  0
 84 83  2  0
 85 84  1  0
 86 60  1  0
 86 87  1  0
 86 96  1  0
 87 90  1  0
 88 92  1  0
 88 87  1  0
 89 88  2  0
 92 91  1  0
 94 92  1  0
 94 95  1  0
 94 93  1  0
 96 99  1  1
 96 97  1  0
 98 96  1  0
M  ISO  4  13 100  26 100  58 101  59 101
M  END
>  <TORSDO>  (48) 
F 18

>  <SCORE>  (48) 
-14.548

>  <name>  (48) 
47

>  <ligand_id>  (48) 
47

>  <original_smiles>  (48) 
[H]c1c([H])c([H])c2c(c1[H])C([H])([H])C([H])([H])C([H])([H])C2([H])N([H])C(=O)C1([H])N(C(=O)C([H])(N([H])C(=O)C([H])(N([H])C([H])([H])[H])C([H])([H])[H])C(C([H])([H])[H])(C([H])([H])[H])C([H])([H])[H])C([H])([H])c2c([H])c(OC([H])([H])c3nc4c(c(C5([H])C([H])([H])C([H])([H])N(C(=O)N6C([H])([H])C([H])([H])C([H])([H])C([H])(n7nc(-c8c([H])c([H])c(Oc9c([H])c([H])c(F)c([H])c9F)c([H])c8[H])c(C(=O)N([H])[H])c7N([H])[H])C6([H])[H])C([H])([H])C5([H])[H])c3[H])C([H])(C([H])([H])[H])C([H])([H])[N+]([H])(C([H])(C([H])([H])[H])C([H])([H])[H])C4([H])[H])c([H])c([H])c2C1([H])[H]

>  <smiles>  (48) 
[H]c1c([H])c([H])c2c(c1[H])C([H])([H])C([H])([H])C([H])([H])C2([H])N([H])C(=O)C1([H])N(C(=O)C([H])(N([H])C(=O)C([H])(N([H])C([H])([H])[H])C([H])([H])[H])C(C([H])([H])[H])(C([H])([H])[H])C([H])([H])[H])C([H])([H])c2c([H])c(OC([H])([H])c3nc4c(c(C5([H])C([H])([H])C([H])([H])N(C(=O)N6C([H])([H])C([H])([H])C([H])([H])C([H])(n7nc(-c8c([H])c([H])c(Oc9c([H])c([H])c(F)c([H])c9F)c([H])c8[H])c(C(=O)N([H])[H])c7N([H])[H])C6([H])[H])C([H])([H])C5([H])[H])c3[H])C([H])(C([H])([H])[H])C([H])([H])[N+]([H])(C([H])(C([H])([H])[H])C([H])([H])[H])C4([H])[H])c([H])c([H])c2C1([H])[H]

$$$$
48:0:0
     RDKit          3D

 93103  0  0  1  0  0  0  0  0999 V2000
  -28.9890  -20.1630   19.6810 C   0  0  0  0  0  0  0  0  0  0  0  0
  -29.5680  -17.9800   19.4470 C   0  0  0  0  0  0  0  0  0  0  0  0
  -27.4370  -18.5540   19.7330 C   0  0  0  0  0  0  0  0  0  0  0  0
  -26.0150  -18.1290   20.0620 C   0  0  0  0  0  1  0  0  0  0  0  0
  -29.9720  -19.2610   19.5210 N   0  0  0  0  0  4  0  0  0  0  0  0
  -27.7030  -19.8560   19.8160 N   0  0  0  0  0  0  0  0  0  0  0  0
  -28.3030  -17.5710   19.5010 N   0  0  0  0  0  2  0  0  0  0  0  0
  -30.9950  -14.4750   19.7670 C   0  0  0  0  0  0  0  0  0  0  0  0
  -30.5740  -12.1220   19.1540 C   0  0  0  0  0  2  0  0  0  0  0  0
  -29.6070  -12.0260   17.9570 C   0  0  0  0  0  2  0  0  0  0  0  0
  -28.1690  -11.9460   18.4890 C   0  0  0  0  0  2  0  0  0  0  0  0
  -27.8510  -13.0900   19.4890 C   0  0  0  0  0  3  0  0  0  0  0  0
  -28.9420  -13.2260   20.5800 C   0  0  0  0  0  2  0  0  0  0  0  0
  -30.2500  -13.3420   19.9200 N   0  0  0  0  0  0  0  0  0  0  0  0
  -32.0560  -14.4530   19.1410 O   0  0  0  0  0  0  0  0  0  0  0  0
  -30.6630  -16.9000   19.4630 C   0  0  0  0  0  3  0  0  0  0  0  0
  -31.4950  -16.6650   20.6830 C   0  0  0  0  0  3  0  0  0  0  0  0
  -31.2230  -17.2240   22.0710 C   0  0  0  0  0  1  0  0  0  0  0  0
  -30.5410  -15.6650   20.2450 N   0  0  0  0  0  0  0  0  0  0  0  0
  -25.5810  -13.8710   20.4050 C   0  0  0  0  0  0  0  0  0  0  0  0
  -24.4750  -13.1740   20.8210 C   0  0  0  0  0  0  0  0  0  0  0  0
  -24.8170  -11.7920   20.7300 C   0  0  0  0  0  0  0  0  0  0  0  0
  -26.5240  -12.9130   20.0720 N   0  0  0  0  0  0  0  0  0  0  0  0
  -26.0780  -11.6550   20.3360 N   0  0  0  0  0  0  0  0  0  0  0  0
  -24.0050  -10.5860   20.9390 C   0  0  0  0  0  0  0  0  0  0  0  0
  -24.4220   -9.5510   21.8040 C   0  0  0  0  0  3  0  0  0  0  0  0
  -23.6130   -8.4110   22.0020 C   0  0  0  0  0  3  0  0  0  0  0  0
  -22.3690   -8.3010   21.3320 C   0  0  0  0  0  0  0  0  0  0  0  0
  -21.9680   -9.3230   20.4530 C   0  0  0  0  0  3  0  0  0  0  0  0
  -22.7790  -10.4530   20.2550 C   0  0  0  0  0  3  0  0  0  0  0  0
  -21.5290   -7.2180   21.4430 O   0  0  0  0  0  0  0  0  0  0  0  0
  -21.5260   -6.4220   22.5600 C   0  0  0  0  0  0  0  0  0  0  0  0
  -21.2600   -6.9450   23.8450 C   0  0  0  0  0  3  0  0  0  0  0  0
  -21.1960   -6.0810   24.9580 C   0  0  0  0  0  3  0  0  0  0  0  0
  -21.3880   -4.6970   24.7870 C   0  0  0  0  0  0  0  0  0  0  0  0
  -21.6470   -4.1730   23.5080 C   0  0  0  0  0  3  0  0  0  0  0  0
  -21.7120   -5.0340   22.3960 C   0  0  0  0  0  0  0  0  0  0  0  0
  -21.9420   -4.5230   21.1640 F   0  0  0  0  0  0  0  0  0  0  0  0
  -21.3190   -3.8660   25.8530 F   0  0  0  0  0  0  0  0  0  0  0  0
  -23.1470  -13.7590   21.2000 C   0  0  0  0  0  0  0  0  0  0  0  0
  -22.4350  -13.1080   22.1150 N   0  0  0  0  0  0  0  0  0  0  0  0
  -22.7490  -14.8180   20.7260 O   0  0  0  0  0  0  0  0  0  0  0  0
  -22.7670  -12.2410   22.5130 H   0  0  0  0  0  0  0  0  0  0  0  0
  -21.5510  -13.4840   22.4260 H   0  0  0  0  0  0  0  0  0  0  0  0
  -25.8620  -15.2270   20.2700 N   0  0  0  0  0  0  0  0  0  0  0  0
  -25.1990  -15.9470   20.5270 H   0  0  0  0  0  0  0  0  0  0  0  0
  -26.7840  -15.5860   20.0540 H   0  0  0  0  0  0  0  0  0  0  0  0
  -29.0410  -22.4340   21.1870 C   0  0  0  0  0  2  0  0  0  0  0  0
  -28.7540  -22.9090   19.1790 C   0  0  0  0  0  2  0  0  0  0  0  0
  -29.3830  -21.6680   19.8910 C   0  0  0  0  0  3  0  0  0  0  0  0
  -29.0750  -23.7920   20.4420 C   0  0  0  0  0  3  0  0  0  0  0  0
  -28.1720  -24.9370   21.0360 C   0  0  0  0  0  2  0  0  0  0  0  0
  -28.4470  -26.3530   20.7690 O   0  0  0  0  0  0  0  0  0  0  0  0
  -24.5430  -31.8280   23.3920 C   0  0  0  0  0  0  0  0  0  0  0  0
  -27.3320  -27.1820   20.6780 C   0  0  0  0  0  0  0  0  0  0  0  0
  -23.4450  -30.3680   21.7270 C   0  0  0  0  0  3  0  0  0  0  0  0
  -24.9840  -28.7720   20.4570 C   0  0  0  0  0  0  0  0  0  0  0  0
  -25.9890  -30.7000   21.6900 C   0  0  0  0  0  2  0  0  0  0  0  0
  -26.1100  -29.2940   21.1090 C   0  0  0  0  0  0  0  0  0  0  0  0
  -27.2930  -28.5020   21.2090 C   0  0  0  0  0  3  0  0  0  0  0  0
  -26.1850  -26.7000   20.0080 C   0  0  0  0  0  3  0  0  0  0  0  0
  -25.0210  -27.4850   19.8920 C   0  0  0  0  0  3  0  0  0  0  0  0
  -23.7590  -29.6550   20.3860 C   0  0  0  0  0  2  0  0  0  0  0  0
  -24.6750  -30.9830   22.3330 N   0  0  0  0  0  0  0  0  0  0  0  0
  -23.4280  -32.1230   23.8460 O   0  0  0  0  0  0  0  0  0  0  0  0
  -22.7180  -29.3790   22.6730 C   0  0  0  0  0  0  0  0  0  0  0  0
  -21.3910  -29.2320   22.4960 N   0  0  0  0  0  0  0  0  0  0  0  0
  -23.3460  -28.7530   23.5300 O   0  0  0  0  0  0  0  0  0  0  0  0
  -20.9380  -29.8120   21.8010 H   0  0  0  0  0  0  0  0  0  0  0  0
  -17.9630  -28.1540   22.8930 C   0  0  0  0  0  0  0  0  0  0  0  0
  -20.5190  -28.3220   23.2450 C   0  0  0  0  0  3  0  0  0  0  0  0
  -20.5890  -26.8800   22.6880 C   0  0  0  0  0  2  0  0  0  0  0  0
  -19.5100  -26.5920   21.6370 C   0  0  0  0  0  2  0  0  0  0  0  0
  -18.1130  -26.7910   22.2350 C   0  0  0  0  0  2  0  0  0  0  0  0
  -19.0930  -28.8780   23.3520 C   0  0  0  0  0  0  0  0  0  0  0  0
  -18.9040  -30.1540   23.9230 C   0  0  0  0  0  3  0  0  0  0  0  0
  -17.6140  -30.7050   24.0420 C   0  0  0  0  0  3  0  0  0  0  0  0
  -16.4960  -29.9760   23.6000 C   0  0  0  0  0  3  0  0  0  0  0  0
  -16.6710  -28.7030   23.0300 C   0  0  0  0  0  3  0  0  0  0  0  0
  -25.7840  -32.4830   24.0750 C   0  0  0  0  0  3  0  0  0  0  0  0
  -25.4780  -33.9010   24.3020 N   0  0  0  0  0  0  0  0  0  0  0  0
  -25.8690  -34.8970   23.4950 C   0  0  0  0  0  0  0  0  0  0  0  0
  -26.5960  -34.7210   22.5140 O   0  0  0  0  0  0  0  0  0  0  0  0
  -24.8450  -34.1180   25.0570 H   0  0  0  0  0  0  0  0  0  0  0  0
  -24.1880  -36.6810   22.9270 C   0  0  0  0  0  1  0  0  0  0  0  0
  -25.3750  -36.3160   23.8330 C   0  0  0  0  0  3  0  0  0  0  0  0
  -27.4690  -37.2310   24.7240 C   0  0  0  0  0  1  0  0  0  0  0  0
  -26.4260  -37.3500   23.7090 N   0  0  0  0  0  0  0  0  0  0  0  0
  -26.0220  -38.2800   23.7930 H   0  0  0  0  0  0  0  0  0  0  0  0
  -26.1970  -31.7780   25.4260 C   0  0  1  0  0  0  0  0  0  0  0  0
  -25.0220  -31.5680   26.4110 C   0  0  0  0  0  1  0  0  0  0  0  0
  -26.8270  -30.3950   25.1380 C   0  0  0  0  0  1  0  0  0  0  0  0
  -27.2860  -32.6120   26.1430 C   0  0  0  0  0  1  0  0  0  0  0  0
  1  6  1  0
  2  7  1  0
  2  5  2  0
  3  6  2  0
  3  4  1  0
  5  1  2  0
  7  3  1  0
  8 14  1  0
  8 19  1  0
  9 14  1  0
 10 11  1  0
 10  9  1  0
 12 11  1  0
 12 23  1  0
 12 13  1  0
 14 13  1  0
 15  8  2  0
 16  2  1  0
 16 19  1  0
 16 17  1  0
 17 18  1  0
 19 17  1  0
 20 21  2  0
 21 40  1  0
 22 21  1  0
 22 25  1  0
 23 24  1  0
 23 20  1  0
 24 22  2  0
 25 26  1  0
 26 27  2  0
 28 31  1  0
 28 27  1  0
 29 28  2  0
 30 29  1  0
 30 25  2  0
 31 32  1  0
 32 33  1  0
 33 34  2  0
 35 34  1  0
 35 39  1  0
 36 35  2  0
 37 32  2  0
 37 36  1  0
 38 37  1  0
 40 41  1  0
 41 44  1  0
 41 43  1  0
 42 40  2  0
 45 20  1  0
 45 46  1  0
 47 45  1  0
 49 50  1  0
 49 51  1  0
 50  1  1  0
 50 48  1  0
 51 52  1  0
 51 48  1  0
 53 52  1  0
 54 65  2  0
 55 53  1  0
 55 60  1  0
 56 64  1  0
 56 66  1  0
 57 59  1  0
 58 64  1  0
 59 60  2  0
 59 58  1  0
 61 55  2  0
 62 61  1  0
 62 57  2  0
 63 57  1  0
 63 56  1  0
 64 54  1  0
 66 68  2  0
 67 66  1  0
 69 67  1  0
 70 79  2  0
 70 75  1  0
 71 67  1  0
 71 75  1  0
 72 71  1  0
 73 74  1  0
 73 72  1  0
 74 70  1  0
 75 76  2  0
 76 77  1  0
 78 77  2  0
 79 78  1  0
 80 54  1  0
 80 81  1  0
 80 90  1  0
 81 84  1  0
 82 86  1  0
 82 81  1  0
 83 82  2  0
 86 85  1  0
 88 89  1  0
 88 86  1  0
 88 87  1  0
 90 93  1  1
 90 91  1  0
 92 90  1  0
M  ISO  4   8 100  19 100  52 101  53 101
M  END
>  <TORSDO>  (49) 
F 18

>  <SCORE>  (49) 
-14.033

>  <name>  (49) 
48

>  <ligand_id>  (49) 
48

>  <original_smiles>  (49) 
[H]c1c([H])c([H])c2c(c1[H])C([H])([H])C([H])([H])C([H])([H])C2([H])N([H])C(=O)C1([H])N(C(=O)C([H])(N([H])C(=O)C([H])(N([H])C([H])([H])[H])C([H])([H])[H])C(C([H])([H])[H])(C([H])([H])[H])C([H])([H])[H])C([H])([H])c2c([H])c(OC([H])([H])C3([H])C([H])([H])C([H])(c4nc(C([H])([H])[H])nc(C5([H])N(C(=O)N6C([H])([H])C([H])([H])C([H])([H])C([H])(n7nc(-c8c([H])c([H])c(Oc9c([H])c([H])c(F)c([H])c9F)c([H])c8[H])c(C(=O)N([H])[H])c7N([H])[H])C6([H])[H])C5([H])C([H])([H])[H])n4)C3([H])[H])c([H])c([H])c2C1([H])[H]

>  <smiles>  (49) 
[H]c1c([H])c([H])c2c(c1[H])C([H])([H])C([H])([H])C([H])([H])C2([H])N([H])C(=O)C1([H])N(C(=O)C([H])(N([H])C(=O)C([H])(N([H])C([H])([H])[H])C([H])([H])[H])C(C([H])([H])[H])(C([H])([H])[H])C([H])([H])[H])C([H])([H])c2c([H])c(OC([H])([H])C3([H])C([H])([H])C([H])(c4nc(C([H])([H])[H])nc(C5([H])N(C(=O)N6C([H])([H])C([H])([H])C([H])([H])C([H])(n7nc(-c8c([H])c([H])c(Oc9c([H])c([H])c(F)c([H])c9F)c([H])c8[H])c(C(=O)N([H])[H])c7N([H])[H])C6([H])[H])C5([H])C([H])([H])[H])n4)C3([H])[H])c([H])c([H])c2C1([H])[H]

$$$$
49:0:0
     RDKit          3D

 92101  0  0  1  0  0  0  0  0999 V2000
  -29.6690  -20.3800   20.0250 N   0  0  0  0  0  4  0  0  0  0  0  0
  -29.3650  -20.3670   19.0680 H   0  0  0  0  0  0  0  0  0  0  0  0
  -30.6510  -20.6020   19.9920 H   0  0  0  0  0  0  0  0  0  0  0  0
  -30.6310  -14.9830   19.9390 C   0  0  0  0  0  0  0  0  0  0  0  0
  -30.3770  -12.6640   18.9390 C   0  0  0  0  0  2  0  0  0  0  0  0
  -29.3660  -12.6780   17.7710 C   0  0  0  0  0  2  0  0  0  0  0  0
  -27.9410  -12.4440   18.3000 C   0  0  0  0  0  2  0  0  0  0  0  0
  -27.6150  -13.3460   19.5200 C   0  0  0  0  0  3  0  0  0  0  0  0
  -28.7440  -13.3400   20.5750 C   0  0  0  0  0  2  0  0  0  0  0  0
  -29.9840  -13.7430   19.8940 N   0  0  0  0  0  0  0  0  0  0  0  0
  -31.7800  -15.0190   19.4860 O   0  0  0  0  0  0  0  0  0  0  0  0
  -30.2050  -16.7580   21.6490 C   0  0  0  0  0  2  0  0  0  0  0  0
  -29.8370  -17.5580   19.5340 C   0  0  0  0  0  2  0  0  0  0  0  0
  -30.4270  -18.3210   21.6180 C   0  0  0  0  0  3  0  0  0  0  0  0
  -29.5080  -18.8580   20.4980 C   0  0  0  0  0  3  0  0  0  0  0  0
  -29.9710  -16.2030   20.2970 N   0  0  0  0  0  0  0  0  0  0  0  0
  -25.2860  -13.9000   20.4250 C   0  0  0  0  0  0  0  0  0  0  0  0
  -24.2500  -13.1130   20.8500 C   0  0  0  0  0  0  0  0  0  0  0  0
  -24.7150  -11.7650   20.7660 C   0  0  0  0  0  0  0  0  0  0  0  0
  -26.3140  -13.0300   20.1040 N   0  0  0  0  0  0  0  0  0  0  0  0
  -25.9860  -11.7390   20.3780 N   0  0  0  0  0  0  0  0  0  0  0  0
  -24.0040  -10.4950   20.9780 C   0  0  0  0  0  0  0  0  0  0  0  0
  -24.4750   -9.5300   21.8950 C   0  0  0  0  0  3  0  0  0  0  0  0
  -23.7630   -8.3290   22.0980 C   0  0  0  0  0  3  0  0  0  0  0  0
  -22.5660   -8.0840   21.3850 C   0  0  0  0  0  0  0  0  0  0  0  0
  -22.1130   -9.0390   20.4590 C   0  0  0  0  0  3  0  0  0  0  0  0
  -22.8250  -10.2320   20.2530 C   0  0  0  0  0  3  0  0  0  0  0  0
  -21.8180   -6.9350   21.5010 O   0  0  0  0  0  0  0  0  0  0  0  0
  -21.7910   -6.2090   22.6650 C   0  0  0  0  0  0  0  0  0  0  0  0
  -21.3830   -6.7800   23.8900 C   0  0  0  0  0  3  0  0  0  0  0  0
  -21.3010   -5.9800   25.0480 C   0  0  0  0  0  3  0  0  0  0  0  0
  -21.6150   -4.6090   24.9790 C   0  0  0  0  0  0  0  0  0  0  0  0
  -22.0150   -4.0380   23.7590 C   0  0  0  0  0  3  0  0  0  0  0  0
  -22.1000   -4.8350   22.6040 C   0  0  0  0  0  0  0  0  0  0  0  0
  -22.4650   -4.2750   21.4270 F   0  0  0  0  0  0  0  0  0  0  0  0
  -21.5300   -3.8380   26.0880 F   0  0  0  0  0  0  0  0  0  0  0  0
  -22.8690  -13.5790   21.2110 C   0  0  0  0  0  0  0  0  0  0  0  0
  -22.2000  -12.8800   22.1210 N   0  0  0  0  0  0  0  0  0  0  0  0
  -22.3920  -14.6020   20.7180 O   0  0  0  0  0  0  0  0  0  0  0  0
  -22.5950  -12.0550   22.5470 H   0  0  0  0  0  0  0  0  0  0  0  0
  -21.2760  -13.1770   22.3990 H   0  0  0  0  0  0  0  0  0  0  0  0
  -25.4410  -15.2750   20.2610 N   0  0  0  0  0  0  0  0  0  0  0  0
  -24.6870  -15.9310   20.4380 H   0  0  0  0  0  0  0  0  0  0  0  0
  -26.2860  -15.7220   19.9270 H   0  0  0  0  0  0  0  0  0  0  0  0
  -31.2550  -18.5950   24.0590 C   0  0  0  0  0  2  0  0  0  0  0  0
  -31.0700  -20.0180   23.5840 C   0  0  0  0  0  2  0  0  0  0  0  0
  -30.2190  -18.9070   23.0050 C   0  0  0  0  0  3  0  0  0  0  0  0
  -28.8960  -21.6420   20.6320 C   0  0  0  0  0  2  0  0  0  0  0  0
  -29.5200  -23.2830   18.6870 C   0  0  0  0  0  1  0  0  0  0  0  0
  -29.1730  -23.2730   20.1850 C   0  0  0  0  0  3  0  0  0  0  0  0
  -28.1300  -24.5890   20.5040 C   0  0  0  0  0  2  0  0  0  0  0  0
  -28.3820  -26.1390   20.3470 O   0  0  0  0  0  0  0  0  0  0  0  0
  -24.7010  -31.8810   23.2340 C   0  0  0  0  0  0  0  0  0  0  0  0
  -27.3140  -27.1180   20.2960 C   0  0  0  0  0  0  0  0  0  0  0  0
  -23.5100  -30.4540   21.6150 C   0  0  0  0  0  3  0  0  0  0  0  0
  -24.9730  -28.8630   20.2210 C   0  0  0  0  0  0  0  0  0  0  0  0
  -26.0650  -30.7350   21.4420 C   0  0  0  0  0  2  0  0  0  0  0  0
  -26.1490  -29.3260   20.8210 C   0  0  0  0  0  0  0  0  0  0  0  0
  -27.3210  -28.4720   20.8380 C   0  0  0  0  0  3  0  0  0  0  0  0
  -26.1060  -26.7680   19.6490 C   0  0  0  0  0  3  0  0  0  0  0  0
  -24.9640  -27.5950   19.6190 C   0  0  0  0  0  3  0  0  0  0  0  0
  -23.7370  -29.7530   20.2470 C   0  0  0  0  0  2  0  0  0  0  0  0
  -24.7780  -31.0470   22.1520 N   0  0  0  0  0  0  0  0  0  0  0  0
  -23.6110  -32.1650   23.7570 O   0  0  0  0  0  0  0  0  0  0  0  0
  -22.8390  -29.4580   22.5950 C   0  0  0  0  0  0  0  0  0  0  0  0
  -21.5100  -29.2820   22.4720 N   0  0  0  0  0  0  0  0  0  0  0  0
  -23.5140  -28.8450   23.4250 O   0  0  0  0  0  0  0  0  0  0  0  0
  -21.0210  -29.8310   21.7770 H   0  0  0  0  0  0  0  0  0  0  0  0
  -18.1320  -28.0620   22.9800 C   0  0  0  0  0  0  0  0  0  0  0  0
  -20.6900  -28.3530   23.2550 C   0  0  0  0  0  3  0  0  0  0  0  0
  -20.8090  -26.9100   22.7080 C   0  0  0  0  0  2  0  0  0  0  0  0
  -19.7120  -26.5600   21.6950 C   0  0  0  0  0  2  0  0  0  0  0  0
  -18.3260  -26.7040   22.3260 C   0  0  0  0  0  2  0  0  0  0  0  0
  -19.2440  -28.8410   23.4010 C   0  0  0  0  0  0  0  0  0  0  0  0
  -19.0100  -30.1110   23.9740 C   0  0  0  0  0  3  0  0  0  0  0  0
  -17.7000  -30.6010   24.1300 C   0  0  0  0  0  3  0  0  0  0  0  0
  -16.6050  -29.8200   23.7220 C   0  0  0  0  0  3  0  0  0  0  0  0
  -16.8220  -28.5520   23.1540 C   0  0  0  0  0  3  0  0  0  0  0  0
  -25.9720  -32.5340   23.8580 C   0  0  0  0  0  3  0  0  0  0  0  0
  -26.4900  -31.7740   25.1420 C   0  0  1  0  0  0  0  0  0  0  0  0
  -25.3960  -31.5430   26.2120 C   0  0  0  0  0  1  0  0  0  0  0  0
  -27.0800  -30.3940   24.7660 C   0  0  0  0  0  1  0  0  0  0  0  0
  -27.6350  -32.5820   25.8000 C   0  0  0  0  0  1  0  0  0  0  0  0
  -25.6430  -33.9310   24.1840 N   0  0  0  0  0  0  0  0  0  0  0  0
  -25.9690  -34.9870   23.4260 C   0  0  0  0  0  0  0  0  0  0  0  0
  -26.6400  -34.8880   22.3940 O   0  0  0  0  0  0  0  0  0  0  0  0
  -25.0380  -34.0790   24.9800 H   0  0  0  0  0  0  0  0  0  0  0  0
  -24.2200  -36.7670   23.0830 C   0  0  0  0  0  1  0  0  0  0  0  0
  -25.4740  -36.3740   23.8830 C   0  0  0  0  0  3  0  0  0  0  0  0
  -27.6090  -37.2820   24.6850 C   0  0  0  0  0  1  0  0  0  0  0  0
  -26.4950  -37.4360   23.7550 N   0  0  0  0  0  0  0  0  0  0  0  0
  -26.0790  -38.3510   23.9070 H   0  0  0  0  0  0  0  0  0  0  0  0
  1 48  1  0
  2  1  1  0
  3  1  1  0
  4 16  1  0
  5 10  1  0
  6  7  1  0
  6  5  1  0
  8  7  1  0
  8 20  1  0
  8  9  1  0
 10  4  1  0
 10  9  1  0
 11  4  2  0
 13 16  1  0
 13 15  1  0
 14 12  1  0
 14 47  1  0
 15  1  1  0
 15 14  1  0
 16 12  1  0
 17 18  2  0
 18 37  1  0
 19 18  1  0
 19 22  1  0
 20 21  1  0
 20 17  1  0
 21 19  2  0
 22 23  1  0
 23 24  2  0
 25 28  1  0
 25 24  1  0
 26 25  2  0
 27 26  1  0
 27 22  2  0
 28 29  1  0
 29 30  1  0
 30 31  2  0
 32 31  1  0
 32 36  1  0
 33 32  2  0
 34 29  2  0
 34 33  1  0
 35 34  1  0
 37 38  1  0
 38 41  1  0
 38 40  1  0
 39 37  2  0
 42 17  1  0
 42 43  1  0
 44 42  1  0
 46 45  1  0
 47 46  1  0
 47 45  1  0
 50 49  1  0
 50 51  1  0
 50 48  1  0
 52 51  1  0
 53 64  2  0
 54 52  1  0
 54 59  1  0
 55 63  1  0
 55 65  1  0
 56 62  1  0
 56 58  1  0
 57 63  1  0
 58 59  2  0
 58 57  1  0
 60 54  2  0
 61 60  1  0
 61 56  2  0
 62 55  1  0
 63 53  1  0
 65 67  2  0
 66 65  1  0
 68 66  1  0
 69 78  2  0
 69 74  1  0
 70 66  1  0
 70 74  1  0
 71 70  1  0
 72 73  1  0
 72 71  1  0
 73 69  1  0
 74 75  2  0
 75 76  1  0
 77 76  2  0
 78 77  1  0
 79 53  1  0
 79 84  1  0
 79 80  1  0
 80 83  1  1
 80 81  1  0
 82 80  1  0
 84 87  1  0
 85 89  1  0
 85 84  1  0
 86 85  2  0
 89 88  1  0
 91 89  1  0
 91 92  1  0
 91 90  1  0
M  ISO  4   4 100  16 100  51 101  52 101
M  END
>  <TORSDO>  (50) 
F 20

>  <SCORE>  (50) 
-13.225

>  <name>  (50) 
49

>  <ligand_id>  (50) 
49

>  <original_smiles>  (50) 
[H]c1c([H])c([H])c2c(c1[H])C([H])([H])C([H])([H])C([H])([H])C2([H])N([H])C(=O)C1([H])N(C(=O)C([H])(N([H])C(=O)C([H])(N([H])C([H])([H])[H])C([H])([H])[H])C(C([H])([H])[H])(C([H])([H])[H])C([H])([H])[H])C([H])([H])c2c([H])c(OC([H])([H])C([H])(C([H])([H])[H])C([H])([H])[N+]([H])([H])C3([H])C([H])([H])N(C(=O)N4C([H])([H])C([H])([H])C([H])([H])C([H])(n5nc(-c6c([H])c([H])c(Oc7c([H])c([H])c(F)c([H])c7F)c([H])c6[H])c(C(=O)N([H])[H])c5N([H])[H])C4([H])[H])C([H])([H])C3([H])C3([H])C([H])([H])C3([H])[H])c([H])c([H])c2C1([H])[H]

>  <smiles>  (50) 
[H]c1c([H])c([H])c2c(c1[H])C([H])([H])C([H])([H])C([H])([H])C2([H])N([H])C(=O)C1([H])N(C(=O)C([H])(N([H])C(=O)C([H])(N([H])C([H])([H])[H])C([H])([H])[H])C(C([H])([H])[H])(C([H])([H])[H])C([H])([H])[H])C([H])([H])c2c([H])c(OC([H])([H])C([H])(C([H])([H])[H])C([H])([H])[N+]([H])([H])C3([H])C([H])([H])N(C(=O)N4C([H])([H])C([H])([H])C([H])([H])C([H])(n5nc(-c6c([H])c([H])c(Oc7c([H])c([H])c(F)c([H])c7F)c([H])c6[H])c(C(=O)N([H])[H])c5N([H])[H])C4([H])[H])C([H])([H])C3([H])C3([H])C([H])([H])C3([H])[H])c([H])c([H])c2C1([H])[H]

$$$$
50:0:0
     RDKit          3D

102113  0  0  1  0  0  0  0  0999 V2000
  -30.1890  -23.9040   20.2030 C   0  0  0  0  0  3  0  0  0  0  0  0
  -28.9620  -21.9430   19.4890 C   0  0  0  0  0  3  0  0  0  0  0  0
  -28.9090  -23.3270   20.1640 C   0  0  0  0  0  3  0  0  0  0  0  0
  -30.8900  -23.8260   18.9820 C   0  0  0  0  0  3  0  0  0  0  0  0
  -29.4290  -22.1930   18.1680 C   0  0  0  0  0  0  0  0  0  0  0  0
  -30.5750  -24.9340   21.2660 C   0  0  0  0  0  2  0  0  0  0  0  0
  -32.4710  -25.6110   19.9040 C   0  0  0  0  0  2  0  0  0  0  0  0
  -32.0620  -24.7580   18.6810 C   0  0  0  0  0  3  0  0  0  0  0  0
  -33.2740  -23.9740   18.1450 C   0  0  0  0  0  1  0  0  0  0  0  0
  -30.3940  -23.1180   17.9400 N   0  0  0  0  0  0  0  0  0  0  0  0
  -31.2900  -26.0900   20.6680 N   0  0  2  0  0  4  0  0  0  0  0  0
  -30.6410  -26.4820   20.0010 H   0  0  0  0  0  0  0  0  0  0  0  0
  -30.6550  -15.5190   20.4210 C   0  0  0  0  0  0  0  0  0  0  0  0
  -30.6420  -13.0750   19.6210 C   0  0  0  0  0  2  0  0  0  0  0  0
  -29.7540  -12.8290   18.3790 C   0  0  0  0  0  2  0  0  0  0  0  0
  -28.2990  -12.5590   18.7990 C   0  0  0  0  0  2  0  0  0  0  0  0
  -27.8080  -13.5500   19.8840 C   0  0  0  0  0  3  0  0  0  0  0  0
  -28.8290  -13.7580   21.0210 C   0  0  0  0  0  2  0  0  0  0  0  0
  -30.0670  -14.2350   20.3880 N   0  0  0  0  0  0  0  0  0  0  0  0
  -31.8850  -15.4970   20.2690 O   0  0  0  0  0  0  0  0  0  0  0  0
  -29.8220  -19.5800   21.2310 C   0  0  0  0  0  3  0  0  0  0  0  0
  -28.6220  -19.0040   19.3110 C   0  0  0  0  0  3  0  0  0  0  0  0
  -30.5290  -18.0650   21.1850 C   0  0  0  0  0  2  0  0  0  0  0  0
  -29.3180  -17.5020   19.2660 C   0  0  0  0  0  3  0  0  0  0  0  0
  -29.4070  -20.2980   19.8660 C   0  0  0  0  0  0  0  0  0  0  0  0
  -29.9530  -16.8190   20.4760 N   0  0  0  0  0  0  0  0  0  0  0  0
  -25.4220  -14.0710   20.6160 C   0  0  0  0  0  0  0  0  0  0  0  0
  -24.3670  -13.2760   20.9630 C   0  0  0  0  0  0  0  0  0  0  0  0
  -24.8530  -11.9330   20.9280 C   0  0  0  0  0  0  0  0  0  0  0  0
  -26.4790  -13.2120   20.3790 N   0  0  0  0  0  0  0  0  0  0  0  0
  -26.1500  -11.9210   20.6350 N   0  0  0  0  0  0  0  0  0  0  0  0
  -24.1440  -10.6580   21.0960 C   0  0  0  0  0  0  0  0  0  0  0  0
  -24.5670   -9.6930   22.0360 C   0  0  0  0  0  3  0  0  0  0  0  0
  -23.8530   -8.4850   22.1940 C   0  0  0  0  0  3  0  0  0  0  0  0
  -22.7010   -8.2340   21.4110 C   0  0  0  0  0  0  0  0  0  0  0  0
  -22.2970   -9.1870   20.4590 C   0  0  0  0  0  3  0  0  0  0  0  0
  -23.0120  -10.3860   20.3010 C   0  0  0  0  0  3  0  0  0  0  0  0
  -21.9590   -7.0790   21.4780 O   0  0  0  0  0  0  0  0  0  0  0  0
  -21.8670   -6.3490   22.6360 C   0  0  0  0  0  0  0  0  0  0  0  0
  -21.3270   -6.8960   23.8200 C   0  0  0  0  0  3  0  0  0  0  0  0
  -21.1880   -6.0900   24.9680 C   0  0  0  0  0  3  0  0  0  0  0  0
  -21.5760   -4.7370   24.9300 C   0  0  0  0  0  0  0  0  0  0  0  0
  -22.1060   -4.1900   23.7490 C   0  0  0  0  0  3  0  0  0  0  0  0
  -22.2480   -4.9920   22.6050 C   0  0  0  0  0  0  0  0  0  0  0  0
  -22.7410   -4.4540   21.4630 F   0  0  0  0  0  0  0  0  0  0  0  0
  -21.4340   -3.9600   26.0300 F   0  0  0  0  0  0  0  0  0  0  0  0
  -22.9580  -13.7300   21.2140 C   0  0  0  0  0  0  0  0  0  0  0  0
  -22.2330  -13.0270   22.0770 N   0  0  0  0  0  0  0  0  0  0  0  0
  -22.5100  -14.7440   20.6820 O   0  0  0  0  0  0  0  0  0  0  0  0
  -22.6090  -12.2080   22.5280 H   0  0  0  0  0  0  0  0  0  0  0  0
  -21.2880  -13.3140   22.2890 H   0  0  0  0  0  0  0  0  0  0  0  0
  -25.5700  -15.4470   20.4530 N   0  0  0  0  0  0  0  0  0  0  0  0
  -24.7980  -16.0930   20.5750 H   0  0  0  0  0  0  0  0  0  0  0  0
  -26.4290  -15.9040   20.1750 H   0  0  0  0  0  0  0  0  0  0  0  0
  -30.1510  -20.2990   16.4850 C   0  0  0  0  0  2  0  0  0  0  0  0
  -29.7480  -21.4710   15.6210 C   0  0  0  0  0  2  0  0  0  0  0  0
  -29.1310  -21.2920   16.9960 C   0  0  0  0  0  3  0  0  0  0  0  0
  -31.2960  -28.5750   20.9890 C   0  0  0  0  0  1  0  0  0  0  0  0
  -32.9400  -27.1390   22.2960 C   0  0  0  0  0  1  0  0  0  0  0  0
  -31.5490  -27.2000   21.6340 C   0  0  0  0  0  3  0  0  0  0  0  0
  -27.8650  -24.6400   19.8160 C   0  0  0  0  0  2  0  0  0  0  0  0
  -28.1540  -26.2330   19.9120 O   0  0  0  0  0  0  0  0  0  0  0  0
  -24.6030  -31.9960   23.1120 C   0  0  0  0  0  0  0  0  0  0  0  0
  -27.1200  -27.2850   19.8950 C   0  0  0  0  0  0  0  0  0  0  0  0
  -23.3680  -30.6160   21.4910 C   0  0  0  0  0  3  0  0  0  0  0  0
  -24.7860  -29.0810   19.9760 C   0  0  0  0  0  0  0  0  0  0  0  0
  -25.9170  -30.8940   21.2440 C   0  0  0  0  0  2  0  0  0  0  0  0
  -25.9870  -29.5060   20.5570 C   0  0  0  0  0  0  0  0  0  0  0  0
  -27.1510  -28.6290   20.4950 C   0  0  0  0  0  3  0  0  0  0  0  0
  -25.8880  -26.9960   19.2700 C   0  0  0  0  0  3  0  0  0  0  0  0
  -24.7570  -27.8450   19.3110 C   0  0  0  0  0  3  0  0  0  0  0  0
  -23.5510  -29.9700   20.0910 C   0  0  0  0  0  2  0  0  0  0  0  0
  -24.6520  -31.1930   22.0030 N   0  0  0  0  0  0  0  0  0  0  0  0
  -23.5310  -32.2540   23.6830 O   0  0  0  0  0  0  0  0  0  0  0  0
  -22.7340  -29.5840   22.4580 C   0  0  0  0  0  0  0  0  0  0  0  0
  -21.4080  -29.3730   22.3580 N   0  0  0  0  0  0  0  0  0  0  0  0
  -23.4380  -28.9730   23.2650 O   0  0  0  0  0  0  0  0  0  0  0  0
  -20.8920  -29.9180   21.6820 H   0  0  0  0  0  0  0  0  0  0  0  0
  -18.0890  -28.0070   22.8780 C   0  0  0  0  0  0  0  0  0  0  0  0
  -20.6330  -28.4010   23.1370 C   0  0  0  0  0  3  0  0  0  0  0  0
  -20.8050  -26.9720   22.5710 C   0  0  0  0  0  2  0  0  0  0  0  0
  -19.7190  -26.5880   21.5610 C   0  0  0  0  0  2  0  0  0  0  0  0
  -18.3330  -26.6650   22.2060 C   0  0  0  0  0  2  0  0  0  0  0  0
  -19.1690  -28.8290   23.2990 C   0  0  0  0  0  0  0  0  0  0  0  0
  -18.8850  -30.0790   23.8900 C   0  0  0  0  0  3  0  0  0  0  0  0
  -17.5550  -30.5100   24.0620 C   0  0  0  0  0  3  0  0  0  0  0  0
  -16.4910  -29.6870   23.6530 C   0  0  0  0  0  3  0  0  0  0  0  0
  -16.7590  -28.4370   23.0680 C   0  0  0  0  0  3  0  0  0  0  0  0
  -25.8880  -32.6450   23.7090 C   0  0  0  0  0  3  0  0  0  0  0  0
  -26.4400  -31.8760   24.9730 C   0  0  1  0  0  0  0  0  0  0  0  0
  -25.3740  -31.6320   26.0680 C   0  0  0  0  0  1  0  0  0  0  0  0
  -27.0230  -30.5010   24.5730 C   0  0  0  0  0  1  0  0  0  0  0  0
  -27.6000  -32.6780   25.6080 C   0  0  0  0  0  1  0  0  0  0  0  0
  -25.5690  -34.0390   24.0610 N   0  0  0  0  0  0  0  0  0  0  0  0
  -25.9130  -35.1110   23.3360 C   0  0  0  0  0  0  0  0  0  0  0  0
  -26.5990  -35.0320   22.3120 O   0  0  0  0  0  0  0  0  0  0  0  0
  -24.9590  -34.1750   24.8540 H   0  0  0  0  0  0  0  0  0  0  0  0
  -24.2140  -36.9370   22.9860 C   0  0  0  0  0  1  0  0  0  0  0  0
  -25.4250  -36.4920   23.8210 C   0  0  0  0  0  3  0  0  0  0  0  0
  -27.5370  -37.3380   24.7460 C   0  0  0  0  0  1  0  0  0  0  0  0
  -26.4690  -37.5390   23.7710 N   0  0  0  0  0  0  0  0  0  0  0  0
  -26.0650  -38.4590   23.9290 H   0  0  0  0  0  0  0  0  0  0  0  0
  1  6  1  0
  2 25  1  0
  2  3  1  0
  3 61  1  0
  3  1  1  0
  4 10  1  0
  4  1  1  0
  5  2  1  0
  7 11  1  0
  8  9  1  0
  8  4  1  0
  8  7  1  0
 10  5  2  0
 11  6  1  0
 11 60  1  0
 11 12  1  6
 13 26  1  0
 14 19  1  0
 15 16  1  0
 15 14  1  0
 17 16  1  0
 17 30  1  0
 17 18  1  0
 19 13  1  0
 19 18  1  0
 20 13  2  0
 22 25  1  0
 23 21  1  0
 24 22  2  0
 24 26  1  0
 25 21  2  0
 26 23  1  0
 27 28  2  0
 28 47  1  0
 29 28  1  0
 29 32  1  0
 30 27  1  0
 30 31  1  0
 31 29  2  0
 32 33  1  0
 33 34  2  0
 35 38  1  0
 35 34  1  0
 36 35  2  0
 37 36  1  0
 37 32  2  0
 38 39  1  0
 39 40  1  0
 40 41  2  0
 42 41  1  0
 42 46  1  0
 43 42  2  0
 44 39  2  0
 44 43  1  0
 45 44  1  0
 47 48  1  0
 48 51  1  0
 48 50  1  0
 49 47  2  0
 52 53  1  0
 52 27  1  0
 54 52  1  0
 55 57  1  0
 56 55  1  0
 56 57  1  0
 57  5  1  0
 58 60  1  0
 60 59  1  0
 61 62  1  0
 63 74  2  0
 64 62  1  0
 64 69  1  0
 65 73  1  0
 65 75  1  0
 66 72  1  0
 66 68  1  0
 67 73  1  0
 68 67  1  0
 69 68  2  0
 70 71  1  0
 70 64  2  0
 71 66  2  0
 72 65  1  0
 73 63  1  0
 75 77  2  0
 76 75  1  0
 78 76  1  0
 79 88  2  0
 79 84  1  0
 80 76  1  0
 80 84  1  0
 81 80  1  0
 82 83  1  0
 82 81  1  0
 83 79  1  0
 84 85  2  0
 85 86  1  0
 87 86  2  0
 88 87  1  0
 89 63  1  0
 89 94  1  0
 89 90  1  0
 90 93  1  1
 90 91  1  0
 92 90  1  0
 94 97  1  0
 95 99  1  0
 95 94  1  0
 96 95  2  0
 99 98  1  0
101 99  1  0
101102  1  0
101100  1  0
M  ISO  4  13 100  26 100  61 101  62 101
M  END
>  <TORSDO>  (51) 
F 19

>  <SCORE>  (51) 
-15.278

>  <name>  (51) 
50

>  <ligand_id>  (51) 
50

>  <original_smiles>  (51) 
[H]c1c([H])c([H])c2c(c1[H])C([H])([H])C([H])([H])C([H])([H])C2([H])N([H])C(=O)C1([H])N(C(=O)C([H])(N([H])C(=O)C([H])(N([H])C([H])([H])[H])C([H])([H])[H])C(C([H])([H])[H])(C([H])([H])[H])C([H])([H])[H])C([H])([H])c2c([H])c(OC([H])([H])c3c(C4([H])C([H])([H])C([H])([H])N(C(=O)N5C([H])([H])C([H])([H])C([H])([H])C([H])(n6nc(-c7c([H])c([H])c(Oc8c([H])c([H])c(F)c([H])c8F)c([H])c7[H])c(C(=O)N([H])[H])c6N([H])[H])C5([H])[H])C([H])([H])C4([H])[H])c(C4([H])C([H])([H])C4([H])[H])nc4c3C([H])([H])[N+]([H])(C([H])(C([H])([H])[H])C([H])([H])[H])C([H])([H])C4([H])C([H])([H])[H])c([H])c([H])c2C1([H])[H]

>  <smiles>  (51) 
[H]c1c([H])c([H])c2c(c1[H])C([H])([H])C([H])([H])C([H])([H])C2([H])N([H])C(=O)C1([H])N(C(=O)C([H])(N([H])C(=O)C([H])(N([H])C([H])([H])[H])C([H])([H])[H])C(C([H])([H])[H])(C([H])([H])[H])C([H])([H])[H])C([H])([H])c2c([H])c(OC([H])([H])c3c(C4([H])C([H])([H])C([H])([H])N(C(=O)N5C([H])([H])C([H])([H])C([H])([H])C([H])(n6nc(-c7c([H])c([H])c(Oc8c([H])c([H])c(F)c([H])c8F)c([H])c7[H])c(C(=O)N([H])[H])c6N([H])[H])C5([H])[H])C([H])([H])C4([H])[H])c(C4([H])C([H])([H])C4([H])[H])nc4c3C([H])([H])[N+]([H])(C([H])(C([H])([H])[H])C([H])([H])[H])C([H])([H])C4([H])C([H])([H])[H])c([H])c([H])c2C1([H])[H]

$$$$
51:0:0
     RDKit          3D

 89 98  0  0  1  0  0  0  0  0999 V2000
  -30.5030  -20.7340   20.2120 C   0  0  0  0  0  2  0  0  0  0  0  0
  -28.3250  -18.8130   20.8690 C   0  0  0  0  0  2  0  0  0  0  0  0
  -29.6640  -18.0070   20.5680 C   0  0  0  0  0  3  0  0  0  0  0  0
  -29.9100  -19.3650   19.6690 C   0  0  0  0  0  3  0  0  0  0  0  0
  -29.1190  -21.4510   20.4910 C   0  0  0  0  0  3  0  0  0  0  0  0
  -28.6070  -20.0320   19.9970 N   0  0  2  0  0  4  0  0  0  0  0  0
  -28.0100  -20.0730   19.1840 H   0  0  0  0  0  0  0  0  0  0  0  0
  -30.3670  -15.2100   20.0400 C   0  0  0  0  0  0  0  0  0  0  0  0
  -30.2890  -12.8350   19.0470 C   0  0  0  0  0  2  0  0  0  0  0  0
  -29.3000  -12.7080   17.8620 C   0  0  0  0  0  2  0  0  0  0  0  0
  -27.8680  -12.4440   18.3670 C   0  0  0  0  0  2  0  0  0  0  0  0
  -27.4840  -13.3630   19.5540 C   0  0  0  0  0  3  0  0  0  0  0  0
  -28.5890  -13.4290   20.6270 C   0  0  0  0  0  2  0  0  0  0  0  0
  -29.7970  -13.9250   19.9500 N   0  0  0  0  0  0  0  0  0  0  0  0
  -31.5850  -15.2570   19.8240 O   0  0  0  0  0  0  0  0  0  0  0  0
  -29.5540  -16.4160   20.1670 N   0  0  0  0  0  0  0  0  0  0  0  0
  -28.5870  -16.1310   20.1390 H   0  0  0  0  0  0  0  0  0  0  0  0
  -25.1370  -13.9010   20.4080 C   0  0  0  0  0  0  0  0  0  0  0  0
  -24.1000  -13.1100   20.8150 C   0  0  0  0  0  0  0  0  0  0  0  0
  -24.5810  -11.7650   20.7540 C   0  0  0  0  0  0  0  0  0  0  0  0
  -26.1780  -13.0380   20.1140 N   0  0  0  0  0  0  0  0  0  0  0  0
  -25.8580  -11.7480   20.3920 N   0  0  0  0  0  0  0  0  0  0  0  0
  -23.8770  -10.4930   20.9620 C   0  0  0  0  0  0  0  0  0  0  0  0
  -24.3460   -9.5290   21.8810 C   0  0  0  0  0  3  0  0  0  0  0  0
  -23.6380   -8.3230   22.0770 C   0  0  0  0  0  3  0  0  0  0  0  0
  -22.4480   -8.0730   21.3540 C   0  0  0  0  0  0  0  0  0  0  0  0
  -21.9980   -9.0260   20.4230 C   0  0  0  0  0  3  0  0  0  0  0  0
  -22.7060  -10.2220   20.2250 C   0  0  0  0  0  3  0  0  0  0  0  0
  -21.7090   -6.9190   21.4600 O   0  0  0  0  0  0  0  0  0  0  0  0
  -21.6940   -6.1790   22.6150 C   0  0  0  0  0  0  0  0  0  0  0  0
  -21.2750   -6.7280   23.8470 C   0  0  0  0  0  3  0  0  0  0  0  0
  -21.2070   -5.9130   24.9950 C   0  0  0  0  0  3  0  0  0  0  0  0
  -21.5490   -4.5500   24.9130 C   0  0  0  0  0  0  0  0  0  0  0  0
  -21.9630   -4.0010   23.6860 C   0  0  0  0  0  3  0  0  0  0  0  0
  -22.0320   -4.8130   22.5400 C   0  0  0  0  0  0  0  0  0  0  0  0
  -22.4100   -4.2730   21.3570 F   0  0  0  0  0  0  0  0  0  0  0  0
  -21.4770   -3.7660   26.0130 F   0  0  0  0  0  0  0  0  0  0  0  0
  -22.7080  -13.5680   21.1390 C   0  0  0  0  0  0  0  0  0  0  0  0
  -22.0210  -12.8600   22.0250 N   0  0  0  0  0  0  0  0  0  0  0  0
  -22.2410  -14.5910   20.6390 O   0  0  0  0  0  0  0  0  0  0  0  0
  -22.4120  -12.0330   22.4510 H   0  0  0  0  0  0  0  0  0  0  0  0
  -21.0890  -13.1510   22.2860 H   0  0  0  0  0  0  0  0  0  0  0  0
  -25.2720  -15.2750   20.2310 N   0  0  0  0  0  0  0  0  0  0  0  0
  -24.4840  -15.9020   20.3570 H   0  0  0  0  0  0  0  0  0  0  0  0
  -26.0610  -15.7190   19.7830 H   0  0  0  0  0  0  0  0  0  0  0  0
  -29.7270  -23.4230   18.7550 C   0  0  0  0  0  1  0  0  0  0  0  0
  -28.6820  -23.0260   19.8060 C   0  0  0  0  0  3  0  0  0  0  0  0
  -28.2550  -24.5280   20.6160 C   0  0  0  0  0  2  0  0  0  0  0  0
  -28.3460  -26.0900   20.2180 O   0  0  0  0  0  0  0  0  0  0  0  0
  -24.6810  -31.9020   23.2310 C   0  0  0  0  0  0  0  0  0  0  0  0
  -27.2800  -27.0990   20.2420 C   0  0  0  0  0  0  0  0  0  0  0  0
  -23.4920  -30.4880   21.6000 C   0  0  0  0  0  3  0  0  0  0  0  0
  -24.9510  -28.8950   20.1900 C   0  0  0  0  0  0  0  0  0  0  0  0
  -26.0510  -30.7450   21.4390 C   0  0  0  0  0  2  0  0  0  0  0  0
  -26.1330  -29.3380   20.7970 C   0  0  0  0  0  0  0  0  0  0  0  0
  -27.2980  -28.4610   20.7930 C   0  0  0  0  0  3  0  0  0  0  0  0
  -26.0650  -26.7780   19.6020 C   0  0  0  0  0  3  0  0  0  0  0  0
  -24.9350  -27.6310   19.5750 C   0  0  0  0  0  3  0  0  0  0  0  0
  -23.7240  -29.7990   20.2280 C   0  0  0  0  0  2  0  0  0  0  0  0
  -24.7620  -31.0700   22.1430 N   0  0  0  0  0  0  0  0  0  0  0  0
  -23.5910  -32.1840   23.7540 O   0  0  0  0  0  0  0  0  0  0  0  0
  -22.8140  -29.4890   22.5700 C   0  0  0  0  0  0  0  0  0  0  0  0
  -21.4860  -29.3110   22.4470 N   0  0  0  0  0  0  0  0  0  0  0  0
  -23.4880  -28.8720   23.3990 O   0  0  0  0  0  0  0  0  0  0  0  0
  -20.9960  -29.8600   21.7540 H   0  0  0  0  0  0  0  0  0  0  0  0
  -18.1150  -28.0810   22.9620 C   0  0  0  0  0  0  0  0  0  0  0  0
  -20.6720  -28.3710   23.2230 C   0  0  0  0  0  3  0  0  0  0  0  0
  -20.7870  -26.9360   22.6560 C   0  0  0  0  0  2  0  0  0  0  0  0
  -19.6860  -26.5980   21.6440 C   0  0  0  0  0  2  0  0  0  0  0  0
  -18.3040  -26.7320   22.2890 C   0  0  0  0  0  2  0  0  0  0  0  0
  -19.2270  -28.8580   23.3860 C   0  0  0  0  0  0  0  0  0  0  0  0
  -18.9950  -30.1180   23.9780 C   0  0  0  0  0  3  0  0  0  0  0  0
  -17.6840  -30.6040   24.1470 C   0  0  0  0  0  3  0  0  0  0  0  0
  -16.5870  -29.8270   23.7370 C   0  0  0  0  0  3  0  0  0  0  0  0
  -16.8040  -28.5660   23.1510 C   0  0  0  0  0  3  0  0  0  0  0  0
  -25.9500  -32.5540   23.8570 C   0  0  0  0  0  3  0  0  0  0  0  0
  -25.6260  -33.9540   24.1810 N   0  0  0  0  0  0  0  0  0  0  0  0
  -25.9470  -35.0100   23.4210 C   0  0  0  0  0  0  0  0  0  0  0  0
  -26.6090  -34.9100   22.3850 O   0  0  0  0  0  0  0  0  0  0  0  0
  -25.0340  -34.1050   24.9830 H   0  0  0  0  0  0  0  0  0  0  0  0
  -24.2010  -36.7940   23.0850 C   0  0  0  0  0  1  0  0  0  0  0  0
  -25.4550  -36.3980   23.8810 C   0  0  0  0  0  3  0  0  0  0  0  0
  -27.5920  -37.3070   24.6830 C   0  0  0  0  0  1  0  0  0  0  0  0
  -26.4790  -37.4590   23.7500 N   0  0  0  0  0  0  0  0  0  0  0  0
  -26.0670  -38.3770   23.8960 H   0  0  0  0  0  0  0  0  0  0  0  0
  -26.4610  -31.8020   25.1470 C   0  0  1  0  0  0  0  0  0  0  0  0
  -25.3620  -31.5740   26.2120 C   0  0  0  0  0  1  0  0  0  0  0  0
  -27.0540  -30.4210   24.7830 C   0  0  0  0  0  1  0  0  0  0  0  0
  -27.6030  -32.6090   25.8070 C   0  0  0  0  0  1  0  0  0  0  0  0
  1  5  1  0
  3 16  1  0
  3  2  1  0
  4  6  1  0
  4  1  1  0
  4  3  1  0
  5 47  1  0
  6  7  1  6
  6  5  1  0
  6  2  1  0
  8 16  1  0
  9 14  1  0
 10 11  1  0
 10  9  1  0
 12 11  1  0
 12 21  1  0
 12 13  1  0
 14  8  1  0
 14 13  1  0
 15  8  2  0
 17 16  1  0
 18 19  2  0
 19 38  1  0
 20 19  1  0
 20 23  1  0
 21 22  1  0
 21 18  1  0
 22 20  2  0
 23 24  1  0
 24 25  2  0
 26 29  1  0
 26 25  1  0
 27 26  2  0
 28 27  1  0
 28 23  2  0
 29 30  1  0
 30 31  1  0
 31 32  2  0
 33 32  1  0
 33 37  1  0
 34 33  2  0
 35 30  2  0
 35 34  1  0
 36 35  1  0
 38 39  1  0
 39 42  1  0
 39 41  1  0
 40 38  2  0
 43 44  1  0
 43 18  1  0
 45 43  1  0
 47 46  1  0
 47 48  1  0
 49 51  1  0
 49 48  1  0
 50 61  2  0
 51 56  1  0
 52 60  1  0
 52 62  1  0
 53 59  1  0
 53 55  1  0
 54 60  1  0
 55 54  1  0
 56 55  2  0
 57 51  2  0
 58 57  1  0
 58 53  2  0
 59 52  1  0
 60 50  1  0
 62 64  2  0
 63 62  1  0
 65 63  1  0
 66 75  2  0
 66 71  1  0
 67 63  1  0
 67 71  1  0
 68 67  1  0
 69 70  1  0
 69 68  1  0
 70 66  1  0
 71 72  2  0
 72 73  1  0
 74 73  2  0
 75 74  1  0
 76 50  1  0
 76 77  1  0
 76 86  1  0
 77 80  1  0
 78 82  1  0
 78 77  1  0
 79 78  2  0
 82 81  1  0
 84 82  1  0
 84 85  1  0
 84 83  1  0
 86 89  1  1
 86 87  1  0
 88 86  1  0
M  ISO  4   8 100  16 100  48 101  49 101
M  END
>  <TORSDO>  (52) 
F 18

>  <SCORE>  (52) 
-15.258

>  <name>  (52) 
51

>  <ligand_id>  (52) 
51

>  <original_smiles>  (52) 
[H]c1c([H])c([H])c2c(c1[H])C([H])([H])C([H])([H])C([H])([H])C2([H])N([H])C(=O)C1([H])N(C(=O)C([H])(N([H])C(=O)C([H])(N([H])C([H])([H])[H])C([H])([H])[H])C(C([H])([H])[H])(C([H])([H])[H])C([H])([H])[H])C([H])([H])c2c([H])c(OC([H])([H])C([H])(C([H])([H])[H])C3([H])C([H])([H])C4([H])C([H])(N([H])C(=O)N5C([H])([H])C([H])([H])C([H])([H])C([H])(n6nc(-c7c([H])c([H])c(Oc8c([H])c([H])c(F)c([H])c8F)c([H])c7[H])c(C(=O)N([H])[H])c6N([H])[H])C5([H])[H])C([H])([H])[N+]43[H])c([H])c([H])c2C1([H])[H]

>  <smiles>  (52) 
[H]c1c([H])c([H])c2c(c1[H])C([H])([H])C([H])([H])C([H])([H])C2([H])N([H])C(=O)C1([H])N(C(=O)C([H])(N([H])C(=O)C([H])(N([H])C([H])([H])[H])C([H])([H])[H])C(C([H])([H])[H])(C([H])([H])[H])C([H])([H])[H])C([H])([H])c2c([H])c(OC([H])([H])C([H])(C([H])([H])[H])C3([H])C([H])([H])C4([H])C([H])(N([H])C(=O)N5C([H])([H])C([H])([H])C([H])([H])C([H])(n6nc(-c7c([H])c([H])c(Oc8c([H])c([H])c(F)c([H])c8F)c([H])c7[H])c(C(=O)N([H])[H])c6N([H])[H])C5([H])[H])C([H])([H])[N+]43[H])c([H])c([H])c2C1([H])[H]

$$$$
52:0:0
     RDKit          3D

 97107  0  0  1  0  0  0  0  0999 V2000
  -30.0350  -23.5460   21.4360 C   0  0  0  0  0  0  0  0  0  0  0  0
  -29.0520  -23.4670   20.4130 C   0  0  0  0  0  0  0  0  0  0  0  0
  -29.6410  -20.9790   20.3290 C   0  0  0  0  0  0  0  0  0  0  0  0
  -30.6280  -21.2860   21.3080 C   0  0  0  0  0  0  0  0  0  0  0  0
  -30.0980  -24.7860   22.3150 C   0  0  0  0  0  2  0  0  0  0  0  0
  -27.5790  -24.9080   21.7460 C   0  0  0  0  0  2  0  0  0  0  0  0
  -28.0700  -24.8440   20.2680 C   0  0  0  0  0  3  0  0  0  0  0  0
  -28.6890  -25.2330   22.8040 C   0  0  1  0  0  0  0  0  0  0  0  0
  -28.3510  -24.4920   24.1130 C   0  0  0  0  0  1  0  0  0  0  0  0
  -28.7200  -26.7420   23.1280 C   0  0  0  0  0  1  0  0  0  0  0  0
  -28.8500  -22.1220   19.9080 N   0  0  0  0  0  0  0  0  0  0  0  0
  -30.8130  -22.5120   21.8340 N   0  0  0  0  0  0  0  0  0  0  0  0
  -30.7180  -15.3970   19.9140 C   0  0  0  0  0  0  0  0  0  0  0  0
  -30.5660  -13.0250   18.9790 C   0  0  0  0  0  2  0  0  0  0  0  0
  -29.5780  -12.9270   17.7940 C   0  0  0  0  0  2  0  0  0  0  0  0
  -28.1420  -12.6830   18.2950 C   0  0  0  0  0  2  0  0  0  0  0  0
  -27.7760  -13.6000   19.4920 C   0  0  0  0  0  3  0  0  0  0  0  0
  -28.8910  -13.6450   20.5580 C   0  0  0  0  0  2  0  0  0  0  0  0
  -30.0990  -14.1320   19.8750 N   0  0  0  0  0  0  0  0  0  0  0  0
  -31.9160  -15.3920   19.5990 O   0  0  0  0  0  0  0  0  0  0  0  0
  -28.4940  -18.5290   20.8210 C   0  0  0  0  0  2  0  0  0  0  0  0
  -28.6730  -16.9870   20.5150 C   0  0  0  0  0  2  0  0  0  0  0  0
  -30.5490  -18.1360   19.7790 C   0  0  0  0  0  2  0  0  0  0  0  0
  -29.4160  -19.3590   19.9080 C   0  0  0  0  0  3  0  0  0  0  0  0
  -30.0340  -16.6780   20.0280 N   0  0  0  0  0  0  0  0  0  0  0  0
  -25.4500  -14.1560   20.4000 C   0  0  0  0  0  0  0  0  0  0  0  0
  -24.4030  -13.3710   20.7960 C   0  0  0  0  0  0  0  0  0  0  0  0
  -24.8540  -12.0210   20.6740 C   0  0  0  0  0  0  0  0  0  0  0  0
  -26.4710  -13.2850   20.0580 N   0  0  0  0  0  0  0  0  0  0  0  0
  -26.1250  -11.9900   20.2860 N   0  0  0  0  0  0  0  0  0  0  0  0
  -24.1250  -10.7580   20.8470 C   0  0  0  0  0  0  0  0  0  0  0  0
  -24.5180   -9.8040   21.8090 C   0  0  0  0  0  3  0  0  0  0  0  0
  -23.7880   -8.6060   21.9690 C   0  0  0  0  0  3  0  0  0  0  0  0
  -22.6490   -8.3570   21.1660 C   0  0  0  0  0  0  0  0  0  0  0  0
  -22.2770   -9.3000   20.1920 C   0  0  0  0  0  3  0  0  0  0  0  0
  -23.0080  -10.4880   20.0310 C   0  0  0  0  0  3  0  0  0  0  0  0
  -21.8930   -7.2110   21.2340 O   0  0  0  0  0  0  0  0  0  0  0  0
  -21.6970   -6.5480   22.4200 C   0  0  0  0  0  0  0  0  0  0  0  0
  -21.0600   -7.1620   23.5210 C   0  0  0  0  0  3  0  0  0  0  0  0
  -20.8160   -6.4220   24.6940 C   0  0  0  0  0  3  0  0  0  0  0  0
  -21.1980   -5.0700   24.7670 C   0  0  0  0  0  0  0  0  0  0  0  0
  -21.8270   -4.4550   23.6700 C   0  0  0  0  0  3  0  0  0  0  0  0
  -22.0730   -5.1920   22.4990 C   0  0  0  0  0  0  0  0  0  0  0  0
  -22.6600   -4.5900   21.4370 F   0  0  0  0  0  0  0  0  0  0  0  0
  -20.9560   -4.3560   25.8910 F   0  0  0  0  0  0  0  0  0  0  0  0
  -23.0310  -13.8480   21.1680 C   0  0  0  0  0  0  0  0  0  0  0  0
  -22.3430  -13.1190   22.0390 N   0  0  0  0  0  0  0  0  0  0  0  0
  -22.5780  -14.9020   20.7210 O   0  0  0  0  0  0  0  0  0  0  0  0
  -22.7240  -12.2670   22.4230 H   0  0  0  0  0  0  0  0  0  0  0  0
  -21.4220  -13.4190   22.3280 H   0  0  0  0  0  0  0  0  0  0  0  0
  -25.6070  -15.5330   20.2790 N   0  0  0  0  0  0  0  0  0  0  0  0
  -24.8460  -16.1770   20.4630 H   0  0  0  0  0  0  0  0  0  0  0  0
  -26.4320  -15.9890   19.9150 H   0  0  0  0  0  0  0  0  0  0  0  0
  -31.4550  -20.3370   21.8850 N   0  0  0  0  0  0  0  0  0  0  0  0
  -31.5050  -19.3900   21.5330 H   0  0  0  0  0  0  0  0  0  0  0  0
  -32.1780  -20.6050   22.5430 H   0  0  0  0  0  0  0  0  0  0  0  0
  -28.2710  -26.4100   20.0710 O   0  0  0  0  0  0  0  0  0  0  0  0
  -24.6110  -32.0010   23.2550 C   0  0  0  0  0  0  0  0  0  0  0  0
  -27.1970  -27.3910   20.0460 C   0  0  0  0  0  0  0  0  0  0  0  0
  -23.3910  -30.6070   21.6290 C   0  0  0  0  0  3  0  0  0  0  0  0
  -24.8260  -29.0900   20.1230 C   0  0  0  0  0  0  0  0  0  0  0  0
  -25.9320  -30.9360   21.3800 C   0  0  0  0  0  2  0  0  0  0  0  0
  -26.0160  -29.5580   20.6930 C   0  0  0  0  0  0  0  0  0  0  0  0
  -27.2030  -28.7310   20.6210 C   0  0  0  0  0  3  0  0  0  0  0  0
  -25.9730  -27.0280   19.4430 C   0  0  0  0  0  3  0  0  0  0  0  0
  -24.8170  -27.8420   19.4810 C   0  0  0  0  0  3  0  0  0  0  0  0
  -23.5800  -29.9590   20.2300 C   0  0  0  0  0  2  0  0  0  0  0  0
  -24.6670  -31.2040   22.1430 N   0  0  0  0  0  0  0  0  0  0  0  0
  -23.5360  -32.2480   23.8240 O   0  0  0  0  0  0  0  0  0  0  0  0
  -22.7690  -29.5670   22.5940 C   0  0  0  0  0  0  0  0  0  0  0  0
  -21.4520  -29.3220   22.4690 N   0  0  0  0  0  0  0  0  0  0  0  0
  -23.4740  -28.9830   23.4210 O   0  0  0  0  0  0  0  0  0  0  0  0
  -20.9360  -29.8460   21.7760 H   0  0  0  0  0  0  0  0  0  0  0  0
  -18.1460  -27.9260   22.9720 C   0  0  0  0  0  0  0  0  0  0  0  0
  -20.6850  -28.3420   23.2430 C   0  0  0  0  0  3  0  0  0  0  0  0
  -20.8710  -26.9160   22.6770 C   0  0  0  0  0  2  0  0  0  0  0  0
  -19.7920  -26.5240   21.6610 C   0  0  0  0  0  2  0  0  0  0  0  0
  -18.4030  -26.5880   22.3010 C   0  0  0  0  0  2  0  0  0  0  0  0
  -19.2170  -28.7560   23.4000 C   0  0  0  0  0  0  0  0  0  0  0  0
  -18.9200  -30.0050   23.9900 C   0  0  0  0  0  3  0  0  0  0  0  0
  -17.5870  -30.4270   24.1530 C   0  0  0  0  0  3  0  0  0  0  0  0
  -16.5320  -29.5950   23.7400 C   0  0  0  0  0  3  0  0  0  0  0  0
  -16.8120  -28.3470   23.1570 C   0  0  0  0  0  3  0  0  0  0  0  0
  -25.8920  -32.6590   23.8520 C   0  0  0  0  0  3  0  0  0  0  0  0
  -25.5750  -34.0640   24.1560 N   0  0  0  0  0  0  0  0  0  0  0  0
  -25.8350  -35.1000   23.3470 C   0  0  0  0  0  0  0  0  0  0  0  0
  -26.4350  -34.9760   22.2760 O   0  0  0  0  0  0  0  0  0  0  0  0
  -25.0380  -34.2320   24.9940 H   0  0  0  0  0  0  0  0  0  0  0  0
  -24.0280  -36.8340   23.1040 C   0  0  0  0  0  1  0  0  0  0  0  0
  -25.3580  -36.4950   23.7970 C   0  0  0  0  0  3  0  0  0  0  0  0
  -27.5280  -37.4850   24.3830 C   0  0  0  0  0  1  0  0  0  0  0  0
  -26.3420  -37.5690   23.5350 N   0  0  0  0  0  0  0  0  0  0  0  0
  -25.9200  -38.4830   23.6700 H   0  0  0  0  0  0  0  0  0  0  0  0
  -26.4190  -31.9240   25.1460 C   0  0  1  0  0  0  0  0  0  0  0  0
  -25.3310  -31.7010   26.2230 C   0  0  0  0  0  1  0  0  0  0  0  0
  -27.0180  -30.5440   24.7910 C   0  0  0  0  0  1  0  0  0  0  0  0
  -27.5610  -32.7480   25.7870 C   0  0  0  0  0  1  0  0  0  0  0  0
  1 12  1  0
  1  5  1  0
  2  1  2  0
  3  4  1  0
  4 12  2  0
  4 54  1  0
  5  8  1  0
  6  8  1  0
  7 57  1  0
  7  2  1  0
  7  6  1  0
  8 10  1  1
  8  9  1  0
 11  3  2  0
 11  2  1  0
 13 25  1  0
 14 19  1  0
 15 16  1  0
 15 14  1  0
 17 16  1  0
 17 29  1  0
 17 18  1  0
 19 13  1  0
 19 18  1  0
 20 13  2  0
 22 21  1  0
 23 24  1  0
 23 25  1  0
 24  3  1  0
 24 21  1  0
 25 22  1  0
 26 27  2  0
 27 46  1  0
 28 27  1  0
 28 31  1  0
 29 30  1  0
 29 26  1  0
 30 28  2  0
 31 32  1  0
 32 33  2  0
 34 37  1  0
 34 33  1  0
 35 34  2  0
 36 35  1  0
 36 31  2  0
 37 38  1  0
 38 43  2  0
 38 39  1  0
 39 40  2  0
 40 41  1  0
 41 45  1  0
 42 41  2  0
 43 42  1  0
 44 43  1  0
 46 47  1  0
 47 50  1  0
 47 49  1  0
 48 46  2  0
 51 26  1  0
 51 52  1  0
 53 51  1  0
 54 56  1  0
 55 54  1  0
 58 69  2  0
 59 57  1  0
 59 64  1  0
 60 68  1  0
 60 70  1  0
 61 67  1  0
 61 63  1  0
 62 68  1  0
 63 62  1  0
 64 63  2  0
 65 66  1  0
 65 59  2  0
 66 61  2  0
 67 60  1  0
 68 58  1  0
 70 72  2  0
 71 70  1  0
 73 71  1  0
 74 83  2  0
 74 79  1  0
 75 71  1  0
 75 79  1  0
 76 75  1  0
 77 78  1  0
 77 76  1  0
 78 74  1  0
 79 80  2  0
 80 81  1  0
 82 81  2  0
 83 82  1  0
 84 58  1  0
 84 85  1  0
 84 94  1  0
 85 88  1  0
 86 90  1  0
 86 85  1  0
 87 86  2  0
 90 89  1  0
 92 93  1  0
 92 90  1  0
 92 91  1  0
 94 97  1  1
 94 95  1  0
 96 94  1  0
M  ISO  4   7 101  13 100  25 100  57 101
M  END
>  <TORSDO>  (53) 
F 17

>  <SCORE>  (53) 
-13.821

>  <name>  (53) 
52

>  <ligand_id>  (53) 
52

>  <original_smiles>  (53) 
[H]c1c([H])c([H])c2c(c1[H])C([H])([H])C([H])([H])C([H])([H])C2([H])N([H])C(=O)C1([H])N(C(=O)C([H])(N([H])C(=O)C([H])(N([H])C([H])([H])[H])C([H])([H])[H])C(C([H])([H])[H])(C([H])([H])[H])C([H])([H])[H])C([H])([H])c2c([H])c(OC3([H])c4nc(C5([H])C([H])([H])N(C(=O)N6C([H])([H])C([H])([H])C([H])([H])C([H])(n7nc(-c8c([H])c([H])c(Oc9c([H])c([H])c(F)c([H])c9F)c([H])c8[H])c(C(=O)N([H])[H])c7N([H])[H])C6([H])[H])C([H])([H])C5([H])[H])c(N([H])[H])nc4C([H])([H])C(C([H])([H])[H])(C([H])([H])[H])C3([H])[H])c([H])c([H])c2C1([H])[H]

>  <smiles>  (53) 
[H]c1c([H])c([H])c2c(c1[H])C([H])([H])C([H])([H])C([H])([H])C2([H])N([H])C(=O)C1([H])N(C(=O)C([H])(N([H])C(=O)C([H])(N([H])C([H])([H])[H])C([H])([H])[H])C(C([H])([H])[H])(C([H])([H])[H])C([H])([H])[H])C([H])([H])c2c([H])c(OC3([H])c4nc(C5([H])C([H])([H])N(C(=O)N6C([H])([H])C([H])([H])C([H])([H])C([H])(n7nc(-c8c([H])c([H])c(Oc9c([H])c([H])c(F)c([H])c9F)c([H])c8[H])c(C(=O)N([H])[H])c7N([H])[H])C6([H])[H])C([H])([H])C5([H])[H])c(N([H])[H])nc4C([H])([H])C(C([H])([H])[H])(C([H])([H])[H])C3([H])[H])c([H])c([H])c2C1([H])[H]

$$$$
53:0:0
     RDKit          3D

 92101  0  0  1  0  0  0  0  0999 V2000
  -28.0490  -21.3750   20.8350 C   0  0  0  0  0  3  0  0  0  0  0  0
  -29.9540  -22.8780   19.6990 C   0  0  0  0  0  0  0  0  0  0  0  0
  -28.7490  -23.5450   20.1140 C   0  0  0  0  0  0  0  0  0  0  0  0
  -29.2190  -20.6940   20.3580 C   0  0  0  0  0  0  0  0  0  0  0  0
  -31.0590  -23.6420   18.9990 C   0  0  0  0  0  1  0  0  0  0  0  0
  -27.8170  -22.7340   20.7090 N   0  0  0  0  0  0  0  0  0  0  0  0
  -30.1800  -21.5150   19.8300 N   0  0  0  0  0  0  0  0  0  0  0  0
  -30.6650  -14.8740   20.3400 C   0  0  0  0  0  0  0  0  0  0  0  0
  -30.3980  -12.5830   19.3470 C   0  0  0  0  0  2  0  0  0  0  0  0
  -29.4700  -12.5950   18.1150 C   0  0  0  0  0  2  0  0  0  0  0  0
  -28.0070  -12.4010   18.5500 C   0  0  0  0  0  2  0  0  0  0  0  0
  -27.6140  -13.3190   19.7360 C   0  0  0  0  0  3  0  0  0  0  0  0
  -28.6750  -13.3210   20.8610 C   0  0  0  0  0  2  0  0  0  0  0  0
  -29.9600  -13.6830   20.2480 N   0  0  0  0  0  0  0  0  0  0  0  0
  -31.8680  -14.8370   20.0610 O   0  0  0  0  0  0  0  0  0  0  0  0
  -30.7730  -18.6290   20.3350 C   0  0  0  0  0  2  0  0  0  0  0  0
  -30.8920  -17.2770   21.1470 C   0  0  0  0  0  2  0  0  0  0  0  0
  -28.7760  -16.6590   20.1630 C   0  0  0  0  0  2  0  0  0  0  0  0
  -28.3550  -18.2020   20.4110 C   0  0  0  0  0  3  0  0  0  0  0  0
  -27.2070  -18.5270   19.4360 C   0  0  0  0  0  1  0  0  0  0  0  0
  -29.4310  -19.2370   20.3680 N   0  0  0  0  0  0  0  0  0  0  0  0
  -30.0830  -16.1210   20.6490 N   0  0  0  0  0  0  0  0  0  0  0  0
  -25.2320  -13.9040   20.4800 C   0  0  0  0  0  0  0  0  0  0  0  0
  -24.1700  -13.1300   20.8560 C   0  0  0  0  0  0  0  0  0  0  0  0
  -24.6370  -11.7820   20.8270 C   0  0  0  0  0  0  0  0  0  0  0  0
  -26.2770  -13.0280   20.2400 N   0  0  0  0  0  0  0  0  0  0  0  0
  -25.9280  -11.7460   20.5160 N   0  0  0  0  0  0  0  0  0  0  0  0
  -23.9130  -10.5190   21.0160 C   0  0  0  0  0  0  0  0  0  0  0  0
  -24.3390   -9.5540   21.9540 C   0  0  0  0  0  3  0  0  0  0  0  0
  -23.6110   -8.3570   22.1310 C   0  0  0  0  0  3  0  0  0  0  0  0
  -22.4440   -8.1170   21.3680 C   0  0  0  0  0  0  0  0  0  0  0  0
  -22.0380   -9.0700   20.4190 C   0  0  0  0  0  3  0  0  0  0  0  0
  -22.7660  -10.2590   20.2400 C   0  0  0  0  0  3  0  0  0  0  0  0
  -21.6880   -6.9730   21.4550 O   0  0  0  0  0  0  0  0  0  0  0  0
  -21.6180   -6.2420   22.6130 C   0  0  0  0  0  0  0  0  0  0  0  0
  -21.1440   -6.8010   23.8200 C   0  0  0  0  0  3  0  0  0  0  0  0
  -21.0230   -5.9950   24.9700 C   0  0  0  0  0  3  0  0  0  0  0  0
  -21.3690   -4.6320   24.9140 C   0  0  0  0  0  0  0  0  0  0  0  0
  -21.8370   -4.0720   23.7120 C   0  0  0  0  0  3  0  0  0  0  0  0
  -21.9570   -4.8750   22.5630 C   0  0  0  0  0  0  0  0  0  0  0  0
  -22.3890   -4.3260   21.4020 F   0  0  0  0  0  0  0  0  0  0  0  0
  -21.2470   -3.8540   26.0160 F   0  0  0  0  0  0  0  0  0  0  0  0
  -22.7720  -13.6080   21.1210 C   0  0  0  0  0  0  0  0  0  0  0  0
  -22.0400  -12.9140   21.9840 N   0  0  0  0  0  0  0  0  0  0  0  0
  -22.3390  -14.6330   20.5960 O   0  0  0  0  0  0  0  0  0  0  0  0
  -22.4040  -12.0840   22.4290 H   0  0  0  0  0  0  0  0  0  0  0  0
  -21.1010  -13.2170   22.2020 H   0  0  0  0  0  0  0  0  0  0  0  0
  -25.3840  -15.2730   20.2930 N   0  0  0  0  0  0  0  0  0  0  0  0
  -24.6020  -15.9120   20.3850 H   0  0  0  0  0  0  0  0  0  0  0  0
  -26.2100  -15.7040   19.9020 H   0  0  0  0  0  0  0  0  0  0  0  0
  -28.2530  -24.9790   19.5440 C   0  0  0  0  0  2  0  0  0  0  0  0
  -28.2890  -26.3350   20.2420 O   0  0  0  0  0  0  0  0  0  0  0  0
  -24.6160  -31.9040   23.2120 C   0  0  0  0  0  0  0  0  0  0  0  0
  -27.2140  -27.2730   20.1360 C   0  0  0  0  0  0  0  0  0  0  0  0
  -23.4180  -30.5150   21.5690 C   0  0  0  0  0  3  0  0  0  0  0  0
  -24.8700  -28.9750   20.1310 C   0  0  0  0  0  0  0  0  0  0  0  0
  -25.9690  -30.8040   21.4030 C   0  0  0  0  0  2  0  0  0  0  0  0
  -26.0440  -29.4230   20.7430 C   0  0  0  0  0  0  0  0  0  0  0  0
  -27.2130  -28.5840   20.7450 C   0  0  0  0  0  3  0  0  0  0  0  0
  -26.0100  -26.9280   19.4700 C   0  0  0  0  0  3  0  0  0  0  0  0
  -24.8610  -27.7360   19.4840 C   0  0  0  0  0  3  0  0  0  0  0  0
  -23.6360  -29.8540   20.1850 C   0  0  0  0  0  2  0  0  0  0  0  0
  -24.6870  -31.0930   22.1160 N   0  0  0  0  0  0  0  0  0  0  0  0
  -23.5300  -32.1830   23.7420 O   0  0  0  0  0  0  0  0  0  0  0  0
  -22.7490  -29.4920   22.5210 C   0  0  0  0  0  0  0  0  0  0  0  0
  -21.4230  -29.3190   22.3950 N   0  0  0  0  0  0  0  0  0  0  0  0
  -23.4260  -28.8610   23.3370 O   0  0  0  0  0  0  0  0  0  0  0  0
  -20.9350  -29.8800   21.7110 H   0  0  0  0  0  0  0  0  0  0  0  0
  -18.0390  -28.1380   22.9090 C   0  0  0  0  0  0  0  0  0  0  0  0
  -20.6010  -28.3790   23.1620 C   0  0  0  0  0  3  0  0  0  0  0  0
  -20.6890  -26.9530   22.5710 C   0  0  0  0  0  2  0  0  0  0  0  0
  -19.5790  -26.6470   21.5620 C   0  0  0  0  0  2  0  0  0  0  0  0
  -18.2020  -26.7940   22.2160 C   0  0  0  0  0  2  0  0  0  0  0  0
  -19.1660  -28.8880   23.3370 C   0  0  0  0  0  0  0  0  0  0  0  0
  -18.9580  -30.1470   23.9430 C   0  0  0  0  0  3  0  0  0  0  0  0
  -17.6570  -30.6530   24.1260 C   0  0  0  0  0  3  0  0  0  0  0  0
  -16.5450  -29.8970   23.7130 C   0  0  0  0  0  3  0  0  0  0  0  0
  -16.7370  -28.6420   23.1100 C   0  0  0  0  0  3  0  0  0  0  0  0
  -25.8940  -32.5390   23.8390 C   0  0  0  0  0  3  0  0  0  0  0  0
  -25.5800  -33.9370   24.1730 N   0  0  0  0  0  0  0  0  0  0  0  0
  -25.9030  -34.9940   23.4160 C   0  0  0  0  0  0  0  0  0  0  0  0
  -26.5660  -34.8950   22.3790 O   0  0  0  0  0  0  0  0  0  0  0  0
  -24.9900  -34.0860   24.9780 H   0  0  0  0  0  0  0  0  0  0  0  0
  -24.1720  -36.7860   23.0730 C   0  0  0  0  0  1  0  0  0  0  0  0
  -25.4150  -36.3790   23.8810 C   0  0  0  0  0  3  0  0  0  0  0  0
  -27.5440  -37.2680   24.7180 C   0  0  0  0  0  1  0  0  0  0  0  0
  -26.4450  -37.4350   23.7710 N   0  0  0  0  0  0  0  0  0  0  0  0
  -26.0370  -38.3540   23.9180 H   0  0  0  0  0  0  0  0  0  0  0  0
  -26.4050  -31.7660   25.1170 C   0  0  1  0  0  0  0  0  0  0  0  0
  -25.3060  -31.5230   26.1780 C   0  0  0  0  0  1  0  0  0  0  0  0
  -26.9960  -30.3910   24.7300 C   0  0  0  0  0  1  0  0  0  0  0  0
  -27.5490  -32.5630   25.7870 C   0  0  0  0  0  1  0  0  0  0  0  0
  2  7  2  0
  2  3  1  0
  3  6  2  0
  4 21  1  0
  4  1  2  0
  5  2  1  0
  6  1  1  0
  7  4  1  0
  8 22  1  0
  9 14  1  0
 10 11  1  0
 10  9  1  0
 12 11  1  0
 12 26  1  0
 12 13  1  0
 14  8  1  0
 14 13  1  0
 15  8  2  0
 16 21  1  0
 16 17  1  0
 18 19  1  0
 18 22  1  0
 19 20  1  0
 21 19  1  0
 22 17  1  0
 23 24  2  0
 24 43  1  0
 25 24  1  0
 25 28  1  0
 26 23  1  0
 26 27  1  0
 27 25  2  0
 28 29  1  0
 29 30  2  0
 31 34  1  0
 31 30  1  0
 32 31  2  0
 33 32  1  0
 33 28  2  0
 34 35  1  0
 35 36  1  0
 36 37  2  0
 38 37  1  0
 38 42  1  0
 39 38  2  0
 40 35  2  0
 40 39  1  0
 41 40  1  0
 43 44  1  0
 44 47  1  0
 44 46  1  0
 45 43  2  0
 48 49  1  0
 48 23  1  0
 50 48  1  0
 51  3  1  0
 51 52  1  0
 53 64  2  0
 54 52  1  0
 54 59  1  0
 55 63  1  0
 55 65  1  0
 56 62  1  0
 56 58  1  0
 57 63  1  0
 58 59  2  0
 58 57  1  0
 60 61  1  0
 60 54  2  0
 61 56  2  0
 62 55  1  0
 63 53  1  0
 65 67  2  0
 66 65  1  0
 68 66  1  0
 69 78  2  0
 69 74  1  0
 70 66  1  0
 70 74  1  0
 71 70  1  0
 72 73  1  0
 72 71  1  0
 73 69  1  0
 74 75  2  0
 75 76  1  0
 77 76  2  0
 78 77  1  0
 79 53  1  0
 79 80  1  0
 79 89  1  0
 80 83  1  0
 81 85  1  0
 81 80  1  0
 82 81  2  0
 85 84  1  0
 87 85  1  0
 87 88  1  0
 87 86  1  0
 89 92  1  1
 89 90  1  0
 91 89  1  0
M  ISO  4   8 100  22 100  51 101  52 101
M  END
>  <TORSDO>  (54) 
F 17

>  <SCORE>  (54) 
-15.519

>  <name>  (54) 
53

>  <ligand_id>  (54) 
53

>  <original_smiles>  (54) 
[H]c1nc(C([H])([H])Oc2c([H])c([H])c3c(c2[H])C([H])([H])N(C(=O)C([H])(N([H])C(=O)C([H])(N([H])C([H])([H])[H])C([H])([H])[H])C(C([H])([H])[H])(C([H])([H])[H])C([H])([H])[H])C([H])(C(=O)N([H])C2([H])c4c([H])c([H])c([H])c([H])c4C([H])([H])C([H])([H])C2([H])[H])C3([H])[H])c(C([H])([H])[H])nc1N1C([H])([H])C([H])([H])N(C(=O)N2C([H])([H])C([H])([H])C([H])([H])C([H])(n3nc(-c4c([H])c([H])c(Oc5c([H])c([H])c(F)c([H])c5F)c([H])c4[H])c(C(=O)N([H])[H])c3N([H])[H])C2([H])[H])C([H])([H])C1([H])C([H])([H])[H]

>  <smiles>  (54) 
[H]c1nc(C([H])([H])Oc2c([H])c([H])c3c(c2[H])C([H])([H])N(C(=O)C([H])(N([H])C(=O)C([H])(N([H])C([H])([H])[H])C([H])([H])[H])C(C([H])([H])[H])(C([H])([H])[H])C([H])([H])[H])C([H])(C(=O)N([H])C2([H])c4c([H])c([H])c([H])c([H])c4C([H])([H])C([H])([H])C2([H])[H])C3([H])[H])c(C([H])([H])[H])nc1N1C([H])([H])C([H])([H])N(C(=O)N2C([H])([H])C([H])([H])C([H])([H])C([H])(n3nc(-c4c([H])c([H])c(Oc5c([H])c([H])c(F)c([H])c5F)c([H])c4[H])c(C(=O)N([H])[H])c3N([H])[H])C2([H])[H])C([H])([H])C1([H])C([H])([H])[H]

$$$$
54:0:0
     RDKit          3D

 92101  0  0  1  0  0  0  0  0999 V2000
  -28.5060  -21.0580   20.9710 C   0  0  0  0  0  3  0  0  0  0  0  0
  -29.4510  -20.4850   20.0610 C   0  0  0  0  0  0  0  0  0  0  0  0
  -30.0050  -21.5170   19.2090 C   0  0  0  0  0  0  0  0  0  0  0  0
  -29.5610  -22.9080   19.2450 C   0  0  0  0  0  0  0  0  0  0  0  0
  -28.5870  -23.3710   20.1830 C   0  0  0  0  0  0  0  0  0  0  0  0
  -31.0650  -21.1090   18.1910 C   0  0  0  0  0  1  0  0  0  0  0  0
  -30.0730  -23.9080   18.2050 C   0  0  0  0  0  1  0  0  0  0  0  0
  -28.1110  -22.3910   21.0270 N   0  0  0  0  0  0  0  0  0  0  0  0
  -30.5180  -15.0090   20.2790 C   0  0  0  0  0  0  0  0  0  0  0  0
  -30.3340  -12.6680   19.3420 C   0  0  0  0  0  2  0  0  0  0  0  0
  -29.3820  -12.6260   18.1250 C   0  0  0  0  0  2  0  0  0  0  0  0
  -27.9290  -12.4090   18.5850 C   0  0  0  0  0  2  0  0  0  0  0  0
  -27.5360  -13.3300   19.7680 C   0  0  0  0  0  3  0  0  0  0  0  0
  -28.6150  -13.3820   20.8700 C   0  0  0  0  0  2  0  0  0  0  0  0
  -29.8730  -13.7750   20.2240 N   0  0  0  0  0  0  0  0  0  0  0  0
  -31.7410  -15.0130   20.1030 O   0  0  0  0  0  0  0  0  0  0  0  0
  -28.8280  -18.1450   18.9120 C   0  0  0  0  0  2  0  0  0  0  0  0
  -29.2410  -16.6430   18.9210 C   0  0  0  0  0  2  0  0  0  0  0  0
  -29.7850  -18.8730   19.8460 C   0  0  0  0  0  3  0  0  0  0  0  0
  -29.9870  -17.6420   20.9000 C   0  0  0  0  0  3  0  0  0  0  0  0
  -31.3080  -17.7540   21.6770 C   0  0  0  0  0  1  0  0  0  0  0  0
  -29.7860  -16.2390   20.2370 N   0  0  0  0  0  0  0  0  0  0  0  0
  -25.1710  -13.9110   20.5470 C   0  0  0  0  0  0  0  0  0  0  0  0
  -24.1070  -13.1320   20.9150 C   0  0  0  0  0  0  0  0  0  0  0  0
  -24.5710  -11.7820   20.8670 C   0  0  0  0  0  0  0  0  0  0  0  0
  -26.2090  -13.0300   20.2870 N   0  0  0  0  0  0  0  0  0  0  0  0
  -25.8590  -11.7450   20.5450 N   0  0  0  0  0  0  0  0  0  0  0  0
  -23.8470  -10.5180   21.0490 C   0  0  0  0  0  0  0  0  0  0  0  0
  -24.2780   -9.5460   21.9780 C   0  0  0  0  0  3  0  0  0  0  0  0
  -23.5510   -8.3480   22.1500 C   0  0  0  0  0  3  0  0  0  0  0  0
  -22.3800   -8.1130   21.3890 C   0  0  0  0  0  0  0  0  0  0  0  0
  -21.9690   -9.0730   20.4480 C   0  0  0  0  0  3  0  0  0  0  0  0
  -22.6960  -10.2630   20.2750 C   0  0  0  0  0  3  0  0  0  0  0  0
  -21.6270   -6.9680   21.4700 O   0  0  0  0  0  0  0  0  0  0  0  0
  -21.5630   -6.2280   22.6240 C   0  0  0  0  0  0  0  0  0  0  0  0
  -21.0860   -6.7770   23.8340 C   0  0  0  0  0  3  0  0  0  0  0  0
  -20.9700   -5.9640   24.9790 C   0  0  0  0  0  3  0  0  0  0  0  0
  -21.3220   -4.6020   24.9130 C   0  0  0  0  0  0  0  0  0  0  0  0
  -21.7920   -4.0520   23.7080 C   0  0  0  0  0  3  0  0  0  0  0  0
  -21.9090   -4.8630   22.5660 C   0  0  0  0  0  0  0  0  0  0  0  0
  -22.3420   -4.3240   21.4010 F   0  0  0  0  0  0  0  0  0  0  0  0
  -21.2030   -3.8170   26.0110 F   0  0  0  0  0  0  0  0  0  0  0  0
  -22.7140  -13.6080   21.2030 C   0  0  0  0  0  0  0  0  0  0  0  0
  -21.9940  -12.9000   22.0660 N   0  0  0  0  0  0  0  0  0  0  0  0
  -22.2730  -14.6400   20.7010 O   0  0  0  0  0  0  0  0  0  0  0  0
  -22.3670  -12.0630   22.4900 H   0  0  0  0  0  0  0  0  0  0  0  0
  -21.0600  -13.1990   22.3070 H   0  0  0  0  0  0  0  0  0  0  0  0
  -25.3370  -15.2830   20.3860 N   0  0  0  0  0  0  0  0  0  0  0  0
  -24.5760  -15.9430   20.5100 H   0  0  0  0  0  0  0  0  0  0  0  0
  -26.2020  -15.7240   20.0980 H   0  0  0  0  0  0  0  0  0  0  0  0
  -27.7370  -24.7730   20.0450 C   0  0  0  0  0  2  0  0  0  0  0  0
  -28.1560  -26.2420   20.2850 O   0  0  0  0  0  0  0  0  0  0  0  0
  -24.6060  -31.9640   23.2580 C   0  0  0  0  0  0  0  0  0  0  0  0
  -27.1290  -27.2500   20.2120 C   0  0  0  0  0  0  0  0  0  0  0  0
  -23.3920  -30.5840   21.6190 C   0  0  0  0  0  3  0  0  0  0  0  0
  -24.8220  -29.0100   20.1910 C   0  0  0  0  0  0  0  0  0  0  0  0
  -25.9490  -30.8320   21.4510 C   0  0  0  0  0  2  0  0  0  0  0  0
  -26.0090  -29.4450   20.7930 C   0  0  0  0  0  0  0  0  0  0  0  0
  -27.1670  -28.5810   20.7890 C   0  0  0  0  0  3  0  0  0  0  0  0
  -25.9090  -26.9210   19.5740 C   0  0  0  0  0  3  0  0  0  0  0  0
  -24.7800  -27.7580   19.5730 C   0  0  0  0  0  3  0  0  0  0  0  0
  -23.6040  -29.9140   20.2390 C   0  0  0  0  0  2  0  0  0  0  0  0
  -24.6690  -31.1460   22.1630 N   0  0  0  0  0  0  0  0  0  0  0  0
  -23.5230  -32.2560   23.7870 O   0  0  0  0  0  0  0  0  0  0  0  0
  -22.7080  -29.5760   22.5760 C   0  0  0  0  0  0  0  0  0  0  0  0
  -21.3790  -29.4130   22.4470 N   0  0  0  0  0  0  0  0  0  0  0  0
  -23.3740  -28.9430   23.3980 O   0  0  0  0  0  0  0  0  0  0  0  0
  -20.8970  -29.9750   21.7590 H   0  0  0  0  0  0  0  0  0  0  0  0
  -17.9860  -28.2440   22.9510 C   0  0  0  0  0  0  0  0  0  0  0  0
  -20.5480  -28.4820   23.2160 C   0  0  0  0  0  3  0  0  0  0  0  0
  -20.6360  -27.0490   22.6400 C   0  0  0  0  0  2  0  0  0  0  0  0
  -19.5300  -26.7360   21.6260 C   0  0  0  0  0  2  0  0  0  0  0  0
  -18.1500  -26.8950   22.2710 C   0  0  0  0  0  2  0  0  0  0  0  0
  -19.1120  -28.9970   23.3790 C   0  0  0  0  0  0  0  0  0  0  0  0
  -18.9050  -30.2590   23.9740 C   0  0  0  0  0  3  0  0  0  0  0  0
  -17.6040  -30.7710   24.1440 C   0  0  0  0  0  3  0  0  0  0  0  0
  -16.4920  -30.0160   23.7310 C   0  0  0  0  0  3  0  0  0  0  0  0
  -16.6840  -28.7530   23.1420 C   0  0  0  0  0  3  0  0  0  0  0  0
  -25.8920  -32.5860   23.8830 C   0  0  0  0  0  3  0  0  0  0  0  0
  -25.5930  -33.9860   24.2160 N   0  0  0  0  0  0  0  0  0  0  0  0
  -25.9020  -35.0390   23.4470 C   0  0  0  0  0  0  0  0  0  0  0  0
  -26.5390  -34.9330   22.3950 O   0  0  0  0  0  0  0  0  0  0  0  0
  -25.0260  -34.1430   25.0370 H   0  0  0  0  0  0  0  0  0  0  0  0
  -24.1610  -36.8330   23.1560 C   0  0  0  0  0  1  0  0  0  0  0  0
  -25.4320  -36.4290   23.9190 C   0  0  0  0  0  3  0  0  0  0  0  0
  -27.5950  -37.3180   24.6700 C   0  0  0  0  0  1  0  0  0  0  0  0
  -26.4590  -37.4840   23.7670 N   0  0  0  0  0  0  0  0  0  0  0  0
  -26.0570  -38.4030   23.9310 H   0  0  0  0  0  0  0  0  0  0  0  0
  -26.3970  -31.8120   25.1620 C   0  0  1  0  0  0  0  0  0  0  0  0
  -25.2960  -31.5840   26.2250 C   0  0  0  0  0  1  0  0  0  0  0  0
  -26.9730  -30.4320   24.7790 C   0  0  0  0  0  1  0  0  0  0  0  0
  -27.5490  -32.6000   25.8280 C   0  0  0  0  0  1  0  0  0  0  0  0
  1  8  1  0
  2  1  2  0
  3  4  2  0
  3  2  1  0
  4  5  1  0
  5  8  2  0
  6  3  1  0
  7  4  1  0
 10 15  1  0
 11 12  1  0
 11 10  1  0
 13 12  1  0
 13 26  1  0
 13 14  1  0
 15  9  1  0
 15 14  1  0
 16  9  2  0
 17 18  1  0
 17 19  1  0
 18 22  1  0
 19  2  1  0
 19 20  1  0
 20 21  1  0
 22  9  1  0
 22 20  1  0
 23 24  2  0
 24 43  1  0
 25 24  1  0
 25 28  1  0
 26 27  1  0
 26 23  1  0
 27 25  2  0
 28 29  1  0
 29 30  2  0
 31 34  1  0
 31 30  1  0
 32 31  2  0
 33 32  1  0
 33 28  2  0
 34 35  1  0
 35 36  1  0
 36 37  2  0
 38 37  1  0
 38 42  1  0
 39 38  2  0
 40 35  2  0
 40 39  1  0
 41 40  1  0
 43 44  1  0
 44 47  1  0
 44 46  1  0
 45 43  2  0
 48 49  1  0
 48 23  1  0
 50 48  1  0
 51  5  1  0
 51 52  1  0
 53 64  2  0
 54 52  1  0
 54 59  1  0
 55 63  1  0
 55 65  1  0
 56 62  1  0
 56 58  1  0
 57 63  1  0
 58 57  1  0
 59 58  2  0
 60 54  2  0
 61 60  1  0
 61 56  2  0
 62 55  1  0
 63 53  1  0
 65 67  2  0
 66 65  1  0
 68 66  1  0
 69 78  2  0
 69 74  1  0
 70 66  1  0
 70 74  1  0
 71 70  1  0
 72 73  1  0
 72 71  1  0
 73 69  1  0
 74 75  2  0
 75 76  1  0
 77 76  2  0
 78 77  1  0
 79 53  1  0
 79 80  1  0
 79 89  1  0
 80 83  1  0
 81 85  1  0
 81 80  1  0
 82 81  2  0
 85 84  1  0
 87 85  1  0
 87 88  1  0
 87 86  1  0
 89 92  1  1
 89 90  1  0
 91 89  1  0
M  ISO  4   9 100  22 100  51 101  52 101
M  END
>  <TORSDO>  (55) 
F 17

>  <SCORE>  (55) 
-15.266

>  <name>  (55) 
54

>  <ligand_id>  (55) 
54

>  <original_smiles>  (55) 
[H]c1nc(C([H])([H])Oc2c([H])c([H])c3c(c2[H])C([H])([H])N(C(=O)C([H])(N([H])C(=O)C([H])(N([H])C([H])([H])[H])C([H])([H])[H])C(C([H])([H])[H])(C([H])([H])[H])C([H])([H])[H])C([H])(C(=O)N([H])C2([H])c4c([H])c([H])c([H])c([H])c4C([H])([H])C([H])([H])C2([H])[H])C3([H])[H])c(C([H])([H])[H])c(C([H])([H])[H])c1C1([H])C([H])([H])C([H])([H])N(C(=O)N2C([H])([H])C([H])([H])C([H])([H])C([H])(n3nc(-c4c([H])c([H])c(Oc5c([H])c([H])c(F)c([H])c5F)c([H])c4[H])c(C(=O)N([H])[H])c3N([H])[H])C2([H])[H])C1([H])C([H])([H])[H]

>  <smiles>  (55) 
[H]c1nc(C([H])([H])Oc2c([H])c([H])c3c(c2[H])C([H])([H])N(C(=O)C([H])(N([H])C(=O)C([H])(N([H])C([H])([H])[H])C([H])([H])[H])C(C([H])([H])[H])(C([H])([H])[H])C([H])([H])[H])C([H])(C(=O)N([H])C2([H])c4c([H])c([H])c([H])c([H])c4C([H])([H])C([H])([H])C2([H])[H])C3([H])[H])c(C([H])([H])[H])c(C([H])([H])[H])c1C1([H])C([H])([H])C([H])([H])N(C(=O)N2C([H])([H])C([H])([H])C([H])([H])C([H])(n3nc(-c4c([H])c([H])c(Oc5c([H])c([H])c(F)c([H])c5F)c([H])c4[H])c(C(=O)N([H])[H])c3N([H])[H])C2([H])[H])C1([H])C([H])([H])[H]

$$$$
55:0:0
     RDKit          3D

101111  0  0  1  0  0  0  0  0999 V2000
  -30.2310  -18.9340   19.3370 C   0  0  0  0  0  0  0  0  0  0  0  0
  -29.2000  -19.0330   18.3700 C   0  0  0  0  0  0  0  0  0  0  0  0
  -30.2850  -20.0080   20.2630 C   0  0  0  0  0  0  0  0  0  0  0  0
  -28.6110  -21.1160   19.1400 C   0  0  0  0  0  0  0  0  0  0  0  0
  -28.9320  -17.9670   17.3220 C   0  0  0  0  0  1  0  0  0  0  0  0
  -31.2380  -20.0940   21.4440 C   0  0  0  0  0  1  0  0  0  0  0  0
  -28.4150  -20.1250   18.2790 N   0  0  0  0  0  0  0  0  0  0  0  0
  -29.4900  -21.0860   20.1350 N   0  0  0  0  0  0  0  0  0  0  0  0
  -32.5480  -16.0930   20.8290 C   0  0  0  0  0  2  0  0  0  0  0  0
  -33.7720  -17.0030   20.6840 C   0  0  0  0  0  2  0  0  0  0  0  0
  -32.7070  -18.5170   19.1370 C   0  0  0  0  0  2  0  0  0  0  0  0
  -31.3160  -17.8350   19.2550 C   0  0  0  0  0  3  0  0  0  0  0  0
  -31.1950  -16.6650   20.3070 C   0  0  0  0  0  3  0  0  0  0  0  0
  -35.1410  -18.1910   19.0250 C   0  0  0  0  0  1  0  0  0  0  0  0
  -33.8290  -17.5760   19.3250 N   0  0  1  0  0  4  0  0  0  0  0  0
  -33.7120  -16.8200   18.6640 H   0  0  0  0  0  0  0  0  0  0  0  0
  -30.7080  -14.5670   18.9640 C   0  0  0  0  0  0  0  0  0  0  0  0
  -30.1430  -12.3630   18.0080 C   0  0  0  0  0  2  0  0  0  0  0  0
  -28.9820  -12.4710   17.0040 C   0  0  0  0  0  2  0  0  0  0  0  0
  -27.6260  -12.3710   17.7290 C   0  0  0  0  0  2  0  0  0  0  0  0
  -27.5350  -13.3180   18.9550 C   0  0  0  0  0  3  0  0  0  0  0  0
  -28.7860  -13.1870   19.8500 C   0  0  0  0  0  2  0  0  0  0  0  0
  -29.9730  -13.4260   19.0110 N   0  0  0  0  0  0  0  0  0  0  0  0
  -31.6570  -14.7170   18.1890 O   0  0  0  0  0  0  0  0  0  0  0  0
  -30.3690  -15.5290   19.8440 N   0  0  0  0  0  0  0  0  0  0  0  0
  -29.5390  -15.3390   20.3840 H   0  0  0  0  0  0  0  0  0  0  0  0
  -25.4000  -14.0180   20.2060 C   0  0  0  0  0  0  0  0  0  0  0  0
  -24.3890  -13.2870   20.7710 C   0  0  0  0  0  0  0  0  0  0  0  0
  -24.7400  -11.9160   20.5800 C   0  0  0  0  0  0  0  0  0  0  0  0
  -26.3050  -13.0940   19.7110 N   0  0  0  0  0  0  0  0  0  0  0  0
  -25.9240  -11.8210   19.9900 N   0  0  0  0  0  0  0  0  0  0  0  0
  -23.9900  -10.6880   20.8740 C   0  0  0  0  0  0  0  0  0  0  0  0
  -24.4570   -9.7420   21.8110 C   0  0  0  0  0  3  0  0  0  0  0  0
  -23.7090   -8.5780   22.0890 C   0  0  0  0  0  3  0  0  0  0  0  0
  -22.4780   -8.3510   21.4290 C   0  0  0  0  0  0  0  0  0  0  0  0
  -22.0270   -9.2850   20.4790 C   0  0  0  0  0  3  0  0  0  0  0  0
  -22.7760  -10.4400   20.2000 C   0  0  0  0  0  3  0  0  0  0  0  0
  -21.6960   -7.2370   21.6150 O   0  0  0  0  0  0  0  0  0  0  0  0
  -21.5940   -6.6270   22.8400 C   0  0  0  0  0  0  0  0  0  0  0  0
  -21.0840   -7.3030   23.9690 C   0  0  0  0  0  3  0  0  0  0  0  0
  -20.9310   -6.6170   25.1900 C   0  0  0  0  0  3  0  0  0  0  0  0
  -21.2770   -5.2560   25.2820 C   0  0  0  0  0  0  0  0  0  0  0  0
  -21.7800   -4.5790   24.1570 C   0  0  0  0  0  3  0  0  0  0  0  0
  -21.9350   -5.2620   22.9390 C   0  0  0  0  0  0  0  0  0  0  0  0
  -22.3990   -4.6000   21.8520 F   0  0  0  0  0  0  0  0  0  0  0  0
  -21.1230   -4.5950   26.4540 F   0  0  0  0  0  0  0  0  0  0  0  0
  -23.1220  -13.8270   21.3680 C   0  0  0  0  0  0  0  0  0  0  0  0
  -22.5810  -13.1490   22.3750 N   0  0  0  0  0  0  0  0  0  0  0  0
  -22.6300  -14.8840   20.9760 O   0  0  0  0  0  0  0  0  0  0  0  0
  -22.9970  -12.2920   22.7100 H   0  0  0  0  0  0  0  0  0  0  0  0
  -21.7400  -13.4920   22.8160 H   0  0  0  0  0  0  0  0  0  0  0  0
  -25.6170  -15.3850   20.0560 N   0  0  0  0  0  0  0  0  0  0  0  0
  -24.9420  -16.0780   20.3600 H   0  0  0  0  0  0  0  0  0  0  0  0
  -26.4080  -15.7900   19.5720 H   0  0  0  0  0  0  0  0  0  0  0  0
  -28.8270  -23.3770   17.9780 C   0  0  0  0  0  2  0  0  0  0  0  0
  -27.3950  -23.1960   20.0990 C   0  0  0  0  0  2  0  0  0  0  0  0
  -28.1390  -24.6990   17.5530 C   0  0  0  0  0  2  0  0  0  0  0  0
  -27.4580  -24.7400   19.9950 C   0  0  0  0  0  2  0  0  0  0  0  0
  -27.9320  -22.4620   18.8420 C   0  0  0  0  0  3  0  0  0  0  0  0
  -27.1190  -25.2490   18.5770 C   0  0  0  0  0  3  0  0  0  0  0  0
  -27.1520  -26.6830   18.4960 O   0  0  0  0  0  0  0  0  0  0  0  0
  -24.5970  -31.3630   23.2030 C   0  0  0  0  0  0  0  0  0  0  0  0
  -26.0530  -27.4280   18.8830 C   0  0  0  0  0  0  0  0  0  0  0  0
  -22.9260  -30.3480   21.6890 C   0  0  0  0  0  3  0  0  0  0  0  0
  -23.8700  -29.0250   19.7240 C   0  0  0  0  0  0  0  0  0  0  0  0
  -25.3640  -30.6060   20.9540 C   0  0  0  0  0  2  0  0  0  0  0  0
  -25.1740  -29.3720   20.0960 C   0  0  0  0  0  0  0  0  0  0  0  0
  -26.2650  -28.5820   19.6720 C   0  0  0  0  0  3  0  0  0  0  0  0
  -24.7260  -27.0960   18.5170 C   0  0  0  0  0  3  0  0  0  0  0  0
  -23.6410  -27.8860   18.9360 C   0  0  0  0  0  3  0  0  0  0  0  0
  -22.7530  -29.9220   20.2070 C   0  0  0  0  0  2  0  0  0  0  0  0
  -24.3280  -30.7750   22.0030 N   0  0  0  0  0  0  0  0  0  0  0  0
  -23.6950  -31.5870   24.0230 O   0  0  0  0  0  0  0  0  0  0  0  0
  -22.4190  -29.2030   22.5930 C   0  0  0  0  0  0  0  0  0  0  0  0
  -21.1580  -28.7890   22.3830 N   0  0  0  0  0  0  0  0  0  0  0  0
  -23.1570  -28.6900   23.4390 O   0  0  0  0  0  0  0  0  0  0  0  0
  -20.6150  -29.2670   21.6780 H   0  0  0  0  0  0  0  0  0  0  0  0
  -18.2110  -26.7000   22.3650 C   0  0  0  0  0  0  0  0  0  0  0  0
  -20.4810  -27.7010   23.0890 C   0  0  0  0  0  3  0  0  0  0  0  0
  -21.0900  -26.3300   22.7130 C   0  0  0  0  0  2  0  0  0  0  0  0
  -20.3620  -25.6450   21.5520 C   0  0  0  0  0  2  0  0  0  0  0  0
  -18.8870  -25.4220   21.8990 C   0  0  0  0  0  2  0  0  0  0  0  0
  -18.9610  -27.7760   22.9080 C   0  0  0  0  0  0  0  0  0  0  0  0
  -18.2870  -28.9560   23.2930 C   0  0  0  0  0  3  0  0  0  0  0  0
  -16.8910  -29.0680   23.1460 C   0  0  0  0  0  3  0  0  0  0  0  0
  -16.1510  -27.9940   22.6220 C   0  0  0  0  0  3  0  0  0  0  0  0
  -16.8110  -26.8120   22.2370 C   0  0  0  0  0  3  0  0  0  0  0  0
  -26.0430  -31.8030   23.5940 C   0  0  0  0  0  3  0  0  0  0  0  0
  -25.9470  -33.1330   24.2110 N   0  0  0  0  0  0  0  0  0  0  0  0
  -26.2400  -34.2820   23.5900 C   0  0  0  0  0  0  0  0  0  0  0  0
  -26.6900  -34.3270   22.4410 O   0  0  0  0  0  0  0  0  0  0  0  0
  -25.5320  -33.1760   25.1310 H   0  0  0  0  0  0  0  0  0  0  0  0
  -24.6670  -36.2210   23.9010 C   0  0  0  0  0  1  0  0  0  0  0  0
  -25.9910  -35.5920   24.3630 C   0  0  0  0  0  3  0  0  0  0  0  0
  -28.3260  -36.1560   24.8700 C   0  0  0  0  0  1  0  0  0  0  0  0
  -27.0860  -36.5760   24.2220 N   0  0  0  0  0  0  0  0  0  0  0  0
  -26.8160  -37.4750   24.6100 H   0  0  0  0  0  0  0  0  0  0  0  0
  -26.7620  -30.7870   24.5620 C   0  0  1  0  0  0  0  0  0  0  0  0
  -25.8810  -30.3230   25.7460 C   0  0  0  0  0  1  0  0  0  0  0  0
  -27.2160  -29.5260   23.7900 C   0  0  0  0  0  1  0  0  0  0  0  0
  -28.0430  -31.4330   25.1430 C   0  0  0  0  0  1  0  0  0  0  0  0
  1  3  1  0
  2  1  2  0
  3  6  1  0
  4  8  1  0
  5  2  1  0
  7  2  1  0
  7  4  2  0
  8  3  2  0
 10  9  1  0
 11 12  1  0
 11 15  1  0
 12  1  1  0
 12 13  1  0
 13 25  1  0
 13  9  1  0
 14 15  1  0
 15 10  1  0
 15 16  1  6
 17 23  1  0
 17 25  1  0
 18 23  1  0
 19 20  1  0
 19 18  1  0
 21 20  1  0
 21 30  1  0
 21 22  1  0
 23 22  1  0
 24 17  2  0
 25 26  1  0
 27 28  2  0
 28 47  1  0
 29 28  1  0
 29 32  1  0
 30 31  1  0
 30 27  1  0
 31 29  2  0
 32 33  1  0
 33 34  2  0
 35 38  1  0
 35 34  1  0
 36 35  2  0
 37 36  1  0
 37 32  2  0
 38 39  1  0
 39 44  2  0
 39 40  1  0
 40 41  2  0
 41 42  1  0
 42 46  1  0
 43 42  2  0
 44 43  1  0
 45 44  1  0
 47 48  1  0
 48 50  1  0
 48 51  1  0
 49 47  2  0
 52 27  1  0
 52 53  1  0
 54 52  1  0
 55 59  1  0
 57 55  1  0
 57 60  1  0
 58 56  1  0
 59  4  1  0
 59 56  1  0
 60 61  1  0
 60 58  1  0
 61 63  1  0
 62 73  2  0
 63 68  1  0
 64 72  1  0
 64 74  1  0
 65 67  1  0
 65 71  1  0
 66 72  1  0
 67 66  1  0
 68 67  2  0
 69 63  2  0
 69 70  1  0
 70 65  2  0
 71 64  1  0
 72 62  1  0
 74 76  2  0
 75 74  1  0
 77 75  1  0
 78 83  1  0
 79 75  1  0
 80 79  1  0
 81 82  1  0
 81 80  1  0
 82 78  1  0
 83 79  1  0
 83 84  2  0
 85 84  1  0
 86 85  2  0
 87 78  2  0
 87 86  1  0
 88 62  1  0
 88 89  1  0
 88 98  1  0
 89 92  1  0
 90 89  1  0
 90 94  1  0
 91 90  2  0
 94 93  1  0
 96 94  1  0
 96 97  1  0
 96 95  1  0
 98101  1  1
 98 99  1  0
100 98  1  0
M  ISO  4  17 100  25 100  60 101  61 101
M  END
>  <TORSDO>  (56) 
F 18

>  <SCORE>  (56) 
-8.135

>  <name>  (56) 
55

>  <ligand_id>  (56) 
55

>  <original_smiles>  (56) 
[H]c1c([H])c([H])c2c(c1[H])C([H])([H])C([H])([H])C([H])([H])C2([H])N([H])C(=O)C1([H])N(C(=O)C([H])(N([H])C(=O)C([H])(N([H])C([H])([H])[H])C([H])([H])[H])C(C([H])([H])[H])(C([H])([H])[H])C([H])([H])[H])C([H])([H])c2c([H])c(OC3([H])C([H])([H])C([H])([H])C([H])(c4nc(C([H])([H])[H])c(C5([H])C([H])(N([H])C(=O)N6C([H])([H])C([H])([H])C([H])([H])C([H])(n7nc(-c8c([H])c([H])c(Oc9c([H])c([H])c(F)c([H])c9F)c([H])c8[H])c(C(=O)N([H])[H])c7N([H])[H])C6([H])[H])C([H])([H])C([H])([H])[N+]([H])(C([H])([H])[H])C5([H])[H])c(C([H])([H])[H])n4)C([H])([H])C3([H])[H])c([H])c([H])c2C1([H])[H]

>  <smiles>  (56) 
[H]c1c([H])c([H])c2c(c1[H])C([H])([H])C([H])([H])C([H])([H])C2([H])N([H])C(=O)C1([H])N(C(=O)C([H])(N([H])C(=O)C([H])(N([H])C([H])([H])[H])C([H])([H])[H])C(C([H])([H])[H])(C([H])([H])[H])C([H])([H])[H])C([H])([H])c2c([H])c(OC3([H])C([H])([H])C([H])([H])C([H])(c4nc(C([H])([H])[H])c(C5([H])C([H])(N([H])C(=O)N6C([H])([H])C([H])([H])C([H])([H])C([H])(n7nc(-c8c([H])c([H])c(Oc9c([H])c([H])c(F)c([H])c9F)c([H])c8[H])c(C(=O)N([H])[H])c7N([H])[H])C6([H])[H])C([H])([H])C([H])([H])[N+]([H])(C([H])([H])[H])C5([H])[H])c(C([H])([H])[H])n4)C([H])([H])C3([H])[H])c([H])c([H])c2C1([H])[H]

$$$$
56:0:0
     RDKit          3D

 92101  0  0  1  0  0  0  0  0999 V2000
  -28.4220  -23.6450   20.6090 C   0  0  0  0  0  0  0  0  0  0  0  0
  -27.3450  -22.7350   20.3360 C   0  0  0  0  0  0  0  0  0  0  0  0
  -29.4920  -22.7330   20.5900 C   0  0  0  0  0  0  0  0  0  0  0  0
  -25.8790  -23.0630   20.2500 C   0  0  0  0  0  1  0  0  0  0  0  0
  -30.9440  -23.0280   20.7860 C   0  0  0  0  0  1  0  0  0  0  0  0
  -27.7150  -21.4480   20.2130 N   0  0  0  0  0  0  0  0  0  0  0  0
  -29.0510  -21.3810   20.4100 N   0  0  0  0  0  0  0  0  0  0  0  0
  -30.7050  -19.6500   21.4990 C   0  0  0  0  0  2  0  0  0  0  0  0
  -31.0740  -18.1300   21.3900 C   0  0  0  0  0  2  0  0  0  0  0  0
  -29.0950  -18.6140   20.1050 C   0  0  0  0  0  2  0  0  0  0  0  0
  -29.8120  -20.0340   20.2990 C   0  0  0  0  0  3  0  0  0  0  0  0
  -30.2170  -17.4790   20.2800 C   0  0  0  0  0  3  0  0  0  0  0  0
  -30.6250  -14.8550   20.2690 C   0  0  0  0  0  0  0  0  0  0  0  0
  -30.4210  -12.5760   19.2520 C   0  0  0  0  0  2  0  0  0  0  0  0
  -29.4690  -12.6560   18.0370 C   0  0  0  0  0  2  0  0  0  0  0  0
  -28.0050  -12.4780   18.4810 C   0  0  0  0  0  2  0  0  0  0  0  0
  -27.6450  -13.3500   19.7150 C   0  0  0  0  0  3  0  0  0  0  0  0
  -28.7190  -13.2600   20.8220 C   0  0  0  0  0  2  0  0  0  0  0  0
  -30.0030  -13.6240   20.2130 N   0  0  0  0  0  0  0  0  0  0  0  0
  -31.8020  -14.9540   19.9070 O   0  0  0  0  0  0  0  0  0  0  0  0
  -29.8620  -15.9970   20.5160 N   0  0  0  0  0  0  0  0  0  0  0  0
  -28.9060  -15.8150   20.7820 H   0  0  0  0  0  0  0  0  0  0  0  0
  -25.2650  -13.9260   20.4710 C   0  0  0  0  0  0  0  0  0  0  0  0
  -24.2070  -13.1460   20.8500 C   0  0  0  0  0  0  0  0  0  0  0  0
  -24.6760  -11.7980   20.8120 C   0  0  0  0  0  0  0  0  0  0  0  0
  -26.3100  -13.0520   20.2210 N   0  0  0  0  0  0  0  0  0  0  0  0
  -25.9640  -11.7660   20.4900 N   0  0  0  0  0  0  0  0  0  0  0  0
  -23.9570  -10.5320   21.0060 C   0  0  0  0  0  0  0  0  0  0  0  0
  -24.3940   -9.5680   21.9430 C   0  0  0  0  0  3  0  0  0  0  0  0
  -23.6730   -8.3680   22.1240 C   0  0  0  0  0  3  0  0  0  0  0  0
  -22.5020   -8.1220   21.3680 C   0  0  0  0  0  0  0  0  0  0  0  0
  -22.0870   -9.0730   20.4200 C   0  0  0  0  0  3  0  0  0  0  0  0
  -22.8080  -10.2640   20.2360 C   0  0  0  0  0  3  0  0  0  0  0  0
  -21.7520   -6.9750   21.4600 O   0  0  0  0  0  0  0  0  0  0  0  0
  -21.6970   -6.2410   22.6170 C   0  0  0  0  0  0  0  0  0  0  0  0
  -21.2410   -6.7990   23.8320 C   0  0  0  0  0  3  0  0  0  0  0  0
  -21.1340   -5.9920   24.9820 C   0  0  0  0  0  3  0  0  0  0  0  0
  -21.4730   -4.6260   24.9190 C   0  0  0  0  0  0  0  0  0  0  0  0
  -21.9190   -4.0680   23.7090 C   0  0  0  0  0  3  0  0  0  0  0  0
  -22.0290   -4.8720   22.5620 C   0  0  0  0  0  0  0  0  0  0  0  0
  -22.4400   -4.3240   21.3920 F   0  0  0  0  0  0  0  0  0  0  0  0
  -21.3610   -3.8470   26.0210 F   0  0  0  0  0  0  0  0  0  0  0  0
  -22.8100  -13.6160   21.1370 C   0  0  0  0  0  0  0  0  0  0  0  0
  -22.0940  -12.9120   22.0050 N   0  0  0  0  0  0  0  0  0  0  0  0
  -22.3650  -14.6440   20.6280 O   0  0  0  0  0  0  0  0  0  0  0  0
  -22.4650  -12.0770   22.4340 H   0  0  0  0  0  0  0  0  0  0  0  0
  -21.1580  -13.2100   22.2440 H   0  0  0  0  0  0  0  0  0  0  0  0
  -25.4200  -15.2980   20.2900 N   0  0  0  0  0  0  0  0  0  0  0  0
  -24.6450  -15.9450   20.3900 H   0  0  0  0  0  0  0  0  0  0  0  0
  -26.2570  -15.7360   19.9260 H   0  0  0  0  0  0  0  0  0  0  0  0
  -28.2870  -25.1890   21.0750 C   0  0  0  0  0  2  0  0  0  0  0  0
  -28.3390  -26.4080   20.1920 O   0  0  0  0  0  0  0  0  0  0  0  0
  -24.6140  -31.9270   23.2190 C   0  0  0  0  0  0  0  0  0  0  0  0
  -27.2520  -27.3170   20.2070 C   0  0  0  0  0  0  0  0  0  0  0  0
  -23.4250  -30.5170   21.5760 C   0  0  0  0  0  3  0  0  0  0  0  0
  -24.8910  -28.9570   20.1670 C   0  0  0  0  0  0  0  0  0  0  0  0
  -25.9670  -30.8370   21.4000 C   0  0  0  0  0  2  0  0  0  0  0  0
  -26.0600  -29.4450   20.7710 C   0  0  0  0  0  0  0  0  0  0  0  0
  -27.2440  -28.6380   20.7810 C   0  0  0  0  0  3  0  0  0  0  0  0
  -26.0640  -26.8990   19.5760 C   0  0  0  0  0  3  0  0  0  0  0  0
  -24.8970  -27.6910   19.5590 C   0  0  0  0  0  3  0  0  0  0  0  0
  -23.6540  -29.8370   20.2000 C   0  0  0  0  0  2  0  0  0  0  0  0
  -24.6890  -31.1130   22.1220 N   0  0  0  0  0  0  0  0  0  0  0  0
  -23.5280  -32.1970   23.7500 O   0  0  0  0  0  0  0  0  0  0  0  0
  -22.7610  -29.5020   22.5380 C   0  0  0  0  0  0  0  0  0  0  0  0
  -21.4330  -29.3300   22.4220 N   0  0  0  0  0  0  0  0  0  0  0  0
  -23.4420  -28.8700   23.3510 O   0  0  0  0  0  0  0  0  0  0  0  0
  -20.9370  -29.8980   21.7500 H   0  0  0  0  0  0  0  0  0  0  0  0
  -18.0550  -28.1360   22.9440 C   0  0  0  0  0  0  0  0  0  0  0  0
  -20.6170  -28.3900   23.1930 C   0  0  0  0  0  3  0  0  0  0  0  0
  -20.7110  -26.9600   22.6120 C   0  0  0  0  0  2  0  0  0  0  0  0
  -19.6020  -26.6440   21.6060 C   0  0  0  0  0  2  0  0  0  0  0  0
  -18.2230  -26.7920   22.2580 C   0  0  0  0  0  2  0  0  0  0  0  0
  -19.1780  -28.8950   23.3690 C   0  0  0  0  0  0  0  0  0  0  0  0
  -18.9680  -30.1550   23.9670 C   0  0  0  0  0  3  0  0  0  0  0  0
  -17.6650  -30.6580   24.1460 C   0  0  0  0  0  3  0  0  0  0  0  0
  -16.5560  -29.8990   23.7360 C   0  0  0  0  0  3  0  0  0  0  0  0
  -16.7500  -28.6390   23.1410 C   0  0  0  0  0  3  0  0  0  0  0  0
  -25.8900  -32.5710   23.8450 C   0  0  0  0  0  3  0  0  0  0  0  0
  -25.5750  -33.9710   24.1650 N   0  0  0  0  0  0  0  0  0  0  0  0
  -25.9070  -35.0190   23.4010 C   0  0  0  0  0  0  0  0  0  0  0  0
  -26.5790  -34.9130   22.3710 O   0  0  0  0  0  0  0  0  0  0  0  0
  -24.9890  -34.1320   24.9710 H   0  0  0  0  0  0  0  0  0  0  0  0
  -24.1780  -36.8070   23.0250 C   0  0  0  0  0  1  0  0  0  0  0  0
  -25.4130  -36.4100   23.8500 C   0  0  0  0  0  3  0  0  0  0  0  0
  -27.5380  -37.3000   24.6980 C   0  0  0  0  0  1  0  0  0  0  0  0
  -26.4450  -37.4640   23.7440 N   0  0  0  0  0  0  0  0  0  0  0  0
  -26.0340  -38.3830   23.8890 H   0  0  0  0  0  0  0  0  0  0  0  0
  -26.4040  -31.8120   25.1290 C   0  0  1  0  0  0  0  0  0  0  0  0
  -25.3060  -31.5820   26.1920 C   0  0  0  0  0  1  0  0  0  0  0  0
  -26.9910  -30.4350   24.7460 C   0  0  0  0  0  1  0  0  0  0  0  0
  -27.5460  -32.6160   25.7940 C   0  0  0  0  0  1  0  0  0  0  0  0
  1 51  1  0
  2  1  1  0
  3  1  2  0
  3  5  1  0
  4  2  1  0
  6  2  2  0
  6  7  1  0
  7  3  1  0
  9  8  1  0
 10 12  1  0
 11 10  1  0
 11  7  1  0
 11  8  1  0
 12 21  1  0
 12  9  1  0
 13 21  1  0
 14 19  1  0
 15 16  1  0
 15 14  1  0
 17 16  1  0
 17 26  1  0
 17 18  1  0
 19 13  1  0
 19 18  1  0
 20 13  2  0
 21 22  1  0
 23 24  2  0
 24 43  1  0
 25 24  1  0
 25 28  1  0
 26 23  1  0
 26 27  1  0
 27 25  2  0
 28 29  1  0
 29 30  2  0
 31 34  1  0
 31 30  1  0
 32 31  2  0
 33 32  1  0
 33 28  2  0
 34 35  1  0
 35 36  1  0
 36 37  2  0
 38 37  1  0
 38 42  1  0
 39 38  2  0
 40 35  2  0
 40 39  1  0
 41 40  1  0
 43 44  1  0
 44 47  1  0
 44 46  1  0
 45 43  2  0
 48 49  1  0
 48 23  1  0
 50 48  1  0
 52 54  1  0
 52 51  1  0
 53 64  2  0
 54 59  1  0
 55 63  1  0
 55 65  1  0
 56 62  1  0
 56 58  1  0
 57 63  1  0
 58 59  2  0
 58 57  1  0
 60 54  2  0
 61 60  1  0
 61 56  2  0
 62 55  1  0
 63 53  1  0
 65 67  2  0
 66 65  1  0
 68 66  1  0
 69 78  2  0
 69 74  1  0
 70 66  1  0
 70 74  1  0
 71 70  1  0
 72 73  1  0
 72 71  1  0
 73 69  1  0
 74 75  2  0
 75 76  1  0
 77 76  2  0
 78 77  1  0
 79 53  1  0
 79 80  1  0
 79 89  1  0
 80 83  1  0
 81 85  1  0
 81 80  1  0
 82 81  2  0
 85 84  1  0
 87 85  1  0
 87 88  1  0
 87 86  1  0
 89 92  1  1
 89 90  1  0
 91 89  1  0
M  ISO  4  13 100  21 100  51 101  52 101
M  END
>  <TORSDO>  (57) 
F 18

>  <SCORE>  (57) 
-14.877

>  <name>  (57) 
56

>  <ligand_id>  (57) 
56

>  <original_smiles>  (57) 
[H]c1c([H])c([H])c2c(c1[H])C([H])([H])C([H])([H])C([H])([H])C2([H])N([H])C(=O)C1([H])N(C(=O)C([H])(N([H])C(=O)C([H])(N([H])C([H])([H])[H])C([H])([H])[H])C(C([H])([H])[H])(C([H])([H])[H])C([H])([H])[H])C([H])([H])c2c([H])c(OC([H])([H])c3c(C([H])([H])[H])nn(C4([H])C([H])([H])C([H])([H])C([H])(N([H])C(=O)N5C([H])([H])C([H])([H])C([H])([H])C([H])(n6nc(-c7c([H])c([H])c(Oc8c([H])c([H])c(F)c([H])c8F)c([H])c7[H])c(C(=O)N([H])[H])c6N([H])[H])C5([H])[H])C4([H])[H])c3C([H])([H])[H])c([H])c([H])c2C1([H])[H]

>  <smiles>  (57) 
[H]c1c([H])c([H])c2c(c1[H])C([H])([H])C([H])([H])C([H])([H])C2([H])N([H])C(=O)C1([H])N(C(=O)C([H])(N([H])C(=O)C([H])(N([H])C([H])([H])[H])C([H])([H])[H])C(C([H])([H])[H])(C([H])([H])[H])C([H])([H])[H])C([H])([H])c2c([H])c(OC([H])([H])c3c(C([H])([H])[H])nn(C4([H])C([H])([H])C([H])([H])C([H])(N([H])C(=O)N5C([H])([H])C([H])([H])C([H])([H])C([H])(n6nc(-c7c([H])c([H])c(Oc8c([H])c([H])c(F)c([H])c8F)c([H])c7[H])c(C(=O)N([H])[H])c6N([H])[H])C5([H])[H])C4([H])[H])c3C([H])([H])[H])c([H])c([H])c2C1([H])[H]

$$$$
57:0:0
     RDKit          3D

 94103  0  0  1  0  0  0  0  0999 V2000
  -29.6240  -20.2440   19.8060 C   0  0  0  0  0  3  0  0  0  0  0  0
  -30.2390  -19.0870   20.4730 C   0  0  0  0  0  0  0  0  0  0  0  0
  -30.5920  -19.3400   21.8220 C   0  0  0  0  0  0  0  0  0  0  0  0
  -29.3570  -21.5460   20.4290 C   0  0  0  0  0  0  0  0  0  0  0  0
  -30.3010  -20.6100   22.3780 C   0  0  0  0  0  0  0  0  0  0  0  0
  -29.3850  -23.9570   19.3560 C   0  0  0  0  0  2  0  0  0  0  0  0
  -27.9500  -23.7450   20.7510 C   0  0  0  0  0  2  0  0  0  0  0  0
  -28.1090  -24.8550   19.6430 C   0  0  0  0  0  3  0  0  0  0  0  0
  -31.3090  -18.2750   22.6500 C   0  0  0  0  0  1  0  0  0  0  0  0
  -29.7280  -21.6390   21.7230 N   0  0  0  0  0  0  0  0  0  0  0  0
  -28.6590  -22.7610   19.8690 N   0  0  0  0  0  0  0  0  0  0  0  0
  -30.6090  -20.9080   23.6960 N   0  0  0  0  0  0  0  0  0  0  0  0
  -30.7930  -20.1490   24.3400 H   0  0  0  0  0  0  0  0  0  0  0  0
  -30.1850  -21.7230   24.1200 H   0  0  0  0  0  0  0  0  0  0  0  0
  -28.2280  -26.3620   19.8860 O   0  0  0  0  0  0  0  0  0  0  0  0
  -24.6510  -31.8440   23.1080 C   0  0  0  0  0  0  0  0  0  0  0  0
  -27.1280  -27.2700   19.8610 C   0  0  0  0  0  0  0  0  0  0  0  0
  -23.3870  -30.4860   21.4820 C   0  0  0  0  0  3  0  0  0  0  0  0
  -24.7820  -28.9550   19.9640 C   0  0  0  0  0  0  0  0  0  0  0  0
  -25.9250  -30.7810   21.2180 C   0  0  0  0  0  2  0  0  0  0  0  0
  -25.9770  -29.4090   20.5340 C   0  0  0  0  0  0  0  0  0  0  0  0
  -27.1490  -28.5810   20.4690 C   0  0  0  0  0  3  0  0  0  0  0  0
  -25.9070  -26.8950   19.2630 C   0  0  0  0  0  3  0  0  0  0  0  0
  -24.7550  -27.7080   19.3160 C   0  0  0  0  0  3  0  0  0  0  0  0
  -23.5520  -29.8390   20.0800 C   0  0  0  0  0  2  0  0  0  0  0  0
  -24.6760  -31.0560   21.9910 N   0  0  0  0  0  0  0  0  0  0  0  0
  -23.5870  -32.1120   23.6870 O   0  0  0  0  0  0  0  0  0  0  0  0
  -22.7530  -29.4520   22.4450 C   0  0  0  0  0  0  0  0  0  0  0  0
  -21.4310  -29.2370   22.3240 N   0  0  0  0  0  0  0  0  0  0  0  0
  -23.4500  -28.8470   23.2630 O   0  0  0  0  0  0  0  0  0  0  0  0
  -20.9240  -29.7790   21.6390 H   0  0  0  0  0  0  0  0  0  0  0  0
  -18.1100  -27.8670   22.7750 C   0  0  0  0  0  0  0  0  0  0  0  0
  -20.6430  -28.2730   23.0960 C   0  0  0  0  0  3  0  0  0  0  0  0
  -20.8370  -26.8370   22.5570 C   0  0  0  0  0  2  0  0  0  0  0  0
  -19.7790  -26.4340   21.5240 C   0  0  0  0  0  2  0  0  0  0  0  0
  -18.3760  -26.5160   22.1320 C   0  0  0  0  0  2  0  0  0  0  0  0
  -19.1750  -28.6990   23.2130 C   0  0  0  0  0  0  0  0  0  0  0  0
  -18.8730  -29.9580   23.7730 C   0  0  0  0  0  3  0  0  0  0  0  0
  -17.5390  -30.3900   23.9000 C   0  0  0  0  0  3  0  0  0  0  0  0
  -16.4880  -29.5560   23.4780 C   0  0  0  0  0  3  0  0  0  0  0  0
  -16.7740  -28.2970   22.9210 C   0  0  0  0  0  3  0  0  0  0  0  0
  -25.9540  -32.4650   23.6990 C   0  0  0  0  0  3  0  0  0  0  0  0
  -25.6490  -33.8480   24.0990 N   0  0  0  0  0  0  0  0  0  0  0  0
  -25.9410  -34.9350   23.3730 C   0  0  0  0  0  0  0  0  0  0  0  0
  -26.5640  -34.8800   22.3090 O   0  0  0  0  0  0  0  0  0  0  0  0
  -25.0910  -33.9640   24.9320 H   0  0  0  0  0  0  0  0  0  0  0  0
  -24.1840  -36.7260   23.1820 C   0  0  0  0  0  1  0  0  0  0  0  0
  -25.4680  -36.3000   23.9110 C   0  0  0  0  0  3  0  0  0  0  0  0
  -27.6360  -37.1730   24.6650 C   0  0  0  0  0  1  0  0  0  0  0  0
  -26.4870  -37.3670   23.7860 N   0  0  0  0  0  0  0  0  0  0  0  0
  -26.0820  -38.2770   23.9900 H   0  0  0  0  0  0  0  0  0  0  0  0
  -26.5290  -31.6520   24.9250 C   0  0  1  0  0  0  0  0  0  0  0  0
  -25.4860  -31.3770   26.0340 C   0  0  0  0  0  1  0  0  0  0  0  0
  -27.0930  -30.2890   24.4620 C   0  0  0  0  0  1  0  0  0  0  0  0
  -27.7080  -32.4250   25.5600 C   0  0  0  0  0  1  0  0  0  0  0  0
  -30.6120  -17.6790   19.7490 C   0  0  0  0  0  2  0  0  0  0  0  0
  -31.0460  -15.0680   20.1560 C   0  0  0  0  0  0  0  0  0  0  0  0
  -30.8650  -12.7040   19.3240 C   0  0  0  0  0  2  0  0  0  0  0  0
  -29.9440  -12.6670   18.0830 C   0  0  0  0  0  2  0  0  0  0  0  0
  -28.4710  -12.5180   18.5080 C   0  0  0  0  0  2  0  0  0  0  0  0
  -28.0800  -13.4910   19.6510 C   0  0  0  0  0  3  0  0  0  0  0  0
  -29.1240  -13.5050   20.7880 C   0  0  0  0  0  2  0  0  0  0  0  0
  -30.4200  -13.8330   20.1830 N   0  0  0  0  0  0  0  0  0  0  0  0
  -32.2350  -15.1170   19.8310 O   0  0  0  0  0  0  0  0  0  0  0  0
  -30.2880  -16.2450   20.2590 N   0  0  0  0  0  0  0  0  0  0  0  0
  -29.3270  -16.1100   20.5290 H   0  0  0  0  0  0  0  0  0  0  0  0
  -25.7200  -14.1470   20.4010 C   0  0  0  0  0  0  0  0  0  0  0  0
  -24.6310  -13.4040   20.7640 C   0  0  0  0  0  0  0  0  0  0  0  0
  -25.0460  -12.0380   20.7100 C   0  0  0  0  0  0  0  0  0  0  0  0
  -26.7310  -13.2360   20.1460 N   0  0  0  0  0  0  0  0  0  0  0  0
  -26.3350  -11.9610   20.3960 N   0  0  0  0  0  0  0  0  0  0  0  0
  -24.2770  -10.8000   20.8830 C   0  0  0  0  0  0  0  0  0  0  0  0
  -24.6710   -9.8070   21.8090 C   0  0  0  0  0  3  0  0  0  0  0  0
  -23.9020   -8.6340   21.9710 C   0  0  0  0  0  3  0  0  0  0  0  0
  -22.7250   -8.4450   21.2060 C   0  0  0  0  0  0  0  0  0  0  0  0
  -22.3510   -9.4260   20.2710 C   0  0  0  0  0  3  0  0  0  0  0  0
  -23.1200  -10.5900   20.1070 C   0  0  0  0  0  3  0  0  0  0  0  0
  -21.9300   -7.3260   21.2790 O   0  0  0  0  0  0  0  0  0  0  0  0
  -21.8240   -6.5920   22.4330 C   0  0  0  0  0  0  0  0  0  0  0  0
  -21.3890   -7.1680   23.6460 C   0  0  0  0  0  3  0  0  0  0  0  0
  -21.2290   -6.3620   24.7900 C   0  0  0  0  0  3  0  0  0  0  0  0
  -21.4910   -4.9820   24.7220 C   0  0  0  0  0  0  0  0  0  0  0  0
  -21.9200   -4.4040   23.5130 C   0  0  0  0  0  3  0  0  0  0  0  0
  -22.0820   -5.2080   22.3710 C   0  0  0  0  0  0  0  0  0  0  0  0
  -22.4740   -4.6430   21.2040 F   0  0  0  0  0  0  0  0  0  0  0  0
  -21.3300   -4.2050   25.8200 F   0  0  0  0  0  0  0  0  0  0  0  0
  -23.2520  -13.9250   21.0460 C   0  0  0  0  0  0  0  0  0  0  0  0
  -22.5100  -13.2550   21.9200 N   0  0  0  0  0  0  0  0  0  0  0  0
  -22.8420  -14.9630   20.5260 O   0  0  0  0  0  0  0  0  0  0  0  0
  -22.8540  -12.4150   22.3610 H   0  0  0  0  0  0  0  0  0  0  0  0
  -21.5850  -13.5870   22.1520 H   0  0  0  0  0  0  0  0  0  0  0  0
  -25.9290  -15.5140   20.2420 N   0  0  0  0  0  0  0  0  0  0  0  0
  -25.1790  -16.1860   20.3580 H   0  0  0  0  0  0  0  0  0  0  0  0
  -26.7770  -15.9280   19.8790 H   0  0  0  0  0  0  0  0  0  0  0  0
  1  4  2  0
  1  2  1  0
  2  3  2  0
  3  5  1  0
  3  9  1  0
  4 10  1  0
  5 12  1  0
  6  8  1  0
  6 11  1  0
  8 15  1  0
  8  7  1  0
 10  5  2  0
 11  4  1  0
 11  7  1  0
 12 14  1  0
 12 13  1  0
 16 27  2  0
 17 15  1  0
 17 22  1  0
 18 26  1  0
 18 28  1  0
 19 25  1  0
 19 21  1  0
 20 26  1  0
 21 20  1  0
 22 21  2  0
 23 24  1  0
 23 17  2  0
 24 19  2  0
 25 18  1  0
 26 16  1  0
 28 30  2  0
 29 28  1  0
 31 29  1  0
 32 41  2  0
 32 37  1  0
 33 29  1  0
 33 37  1  0
 34 33  1  0
 35 36  1  0
 35 34  1  0
 36 32  1  0
 37 38  2  0
 38 39  1  0
 40 39  2  0
 41 40  1  0
 42 16  1  0
 42 43  1  0
 42 52  1  0
 43 46  1  0
 44 48  1  0
 44 43  1  0
 45 44  2  0
 48 47  1  0
 50 48  1  0
 50 51  1  0
 50 49  1  0
 52 55  1  1
 52 53  1  0
 54 52  1  0
 56 65  1  0
 56  2  1  0
 57 63  1  0
 57 65  1  0
 58 63  1  0
 59 60  1  0
 59 58  1  0
 61 60  1  0
 61 70  1  0
 61 62  1  0
 63 62  1  0
 64 57  2  0
 65 66  1  0
 67 68  2  0
 68 87  1  0
 69 68  1  0
 69 72  1  0
 70 71  1  0
 70 67  1  0
 71 69  2  0
 72 73  1  0
 73 74  2  0
 75 78  1  0
 75 74  1  0
 76 75  2  0
 77 76  1  0
 77 72  2  0
 78 79  1  0
 79 80  1  0
 80 81  2  0
 82 81  1  0
 82 86  1  0
 83 82  2  0
 84 79  2  0
 84 83  1  0
 85 84  1  0
 87 88  1  0
 88 91  1  0
 88 90  1  0
 89 87  2  0
 92 93  1  0
 92 67  1  0
 94 92  1  0
M  ISO  4   8 101  15 101  57 100  65 100
M  END
>  <TORSDO>  (58) 
F 18

>  <SCORE>  (58) 
-14.288

>  <name>  (58) 
57

>  <ligand_id>  (58) 
57

>  <original_smiles>  (58) 
[H]c1c([H])c([H])c2c(c1[H])C([H])([H])C([H])([H])C([H])([H])C2([H])N([H])C(=O)C1([H])N(C(=O)C([H])(N([H])C(=O)C([H])(N([H])C([H])([H])[H])C([H])([H])[H])C(C([H])([H])[H])(C([H])([H])[H])C([H])([H])[H])C([H])([H])c2c([H])c(OC3([H])C([H])([H])N(c4nc(N([H])[H])c(C([H])([H])[H])c(C([H])([H])N([H])C(=O)N5C([H])([H])C([H])([H])C([H])([H])C([H])(n6nc(-c7c([H])c([H])c(Oc8c([H])c([H])c(F)c([H])c8F)c([H])c7[H])c(C(=O)N([H])[H])c6N([H])[H])C5([H])[H])c4[H])C3([H])[H])c([H])c([H])c2C1([H])[H]

>  <smiles>  (58) 
[H]c1c([H])c([H])c2c(c1[H])C([H])([H])C([H])([H])C([H])([H])C2([H])N([H])C(=O)C1([H])N(C(=O)C([H])(N([H])C(=O)C([H])(N([H])C([H])([H])[H])C([H])([H])[H])C(C([H])([H])[H])(C([H])([H])[H])C([H])([H])[H])C([H])([H])c2c([H])c(OC3([H])C([H])([H])N(c4nc(N([H])[H])c(C([H])([H])[H])c(C([H])([H])N([H])C(=O)N5C([H])([H])C([H])([H])C([H])([H])C([H])(n6nc(-c7c([H])c([H])c(Oc8c([H])c([H])c(F)c([H])c8F)c([H])c7[H])c(C(=O)N([H])[H])c6N([H])[H])C5([H])[H])c4[H])C3([H])[H])c([H])c([H])c2C1([H])[H]

$$$$
58:0:0
     RDKit          3D

 98107  0  0  1  0  0  0  0  0999 V2000
  -29.3280  -23.5730   18.7270 C   0  0  0  0  0  2  0  0  0  0  0  0
  -29.0670  -21.5050   19.9430 C   0  0  0  0  0  3  0  0  0  0  0  0
  -29.4420  -24.0030   20.2050 C   0  0  0  0  0  3  0  0  0  0  0  0
  -29.4510  -22.6170   20.9800 C   0  0  0  0  0  3  0  0  0  0  0  0
  -28.6430  -22.5910   22.2890 C   0  0  0  0  0  1  0  0  0  0  0  0
  -29.5080  -22.0880   18.6480 N   0  0  1  0  0  4  0  0  0  0  0  0
  -30.5080  -21.9590   18.6270 H   0  0  0  0  0  0  0  0  0  0  0  0
  -30.8110  -14.6440   20.0240 C   0  0  0  0  0  0  0  0  0  0  0  0
  -30.5630  -12.4150   18.9380 C   0  0  0  0  0  2  0  0  0  0  0  0
  -29.5560  -12.5520   17.7740 C   0  0  0  0  0  2  0  0  0  0  0  0
  -28.1060  -12.3880   18.2730 C   0  0  0  0  0  2  0  0  0  0  0  0
  -27.8080  -13.2290   19.5410 C   0  0  0  0  0  3  0  0  0  0  0  0
  -28.9220  -13.0520   20.5970 C   0  0  0  0  0  2  0  0  0  0  0  0
  -30.2050  -13.4120   19.9640 N   0  0  0  0  0  0  0  0  0  0  0  0
  -31.9400  -14.8200   19.5470 O   0  0  0  0  0  0  0  0  0  0  0  0
  -28.6820  -17.6530   20.7000 C   0  0  0  0  0  3  0  0  0  0  0  0
  -29.4180  -19.9630   20.1980 C   0  0  0  0  0  0  0  0  0  0  0  0
  -28.4030  -19.0430   20.5990 C   0  0  0  0  0  0  0  0  0  0  0  0
  -30.6920  -19.3400   19.9830 C   0  0  0  0  0  0  0  0  0  0  0  0
  -29.9460  -17.1030   20.3930 C   0  0  0  0  0  0  0  0  0  0  0  0
  -26.9890  -19.4930   20.9250 C   0  0  0  0  0  1  0  0  0  0  0  0
  -31.9220  -20.1570   19.6310 C   0  0  0  0  0  1  0  0  0  0  0  0
  -30.9300  -17.9830   20.0530 N   0  0  0  0  0  0  0  0  0  0  0  0
  -30.0190  -15.6480   20.5180 N   0  0  0  0  0  0  0  0  0  0  0  0
  -29.1750  -15.2580   20.9070 H   0  0  0  0  0  0  0  0  0  0  0  0
  -25.4590  -13.8220   20.3970 C   0  0  0  0  0  0  0  0  0  0  0  0
  -24.4120  -13.0480   20.8150 C   0  0  0  0  0  0  0  0  0  0  0  0
  -24.8690  -11.6960   20.7430 C   0  0  0  0  0  0  0  0  0  0  0  0
  -26.4850  -12.9420   20.0900 N   0  0  0  0  0  0  0  0  0  0  0  0
  -26.1400  -11.6580   20.3600 N   0  0  0  0  0  0  0  0  0  0  0  0
  -24.1520  -10.4330   20.9600 C   0  0  0  0  0  0  0  0  0  0  0  0
  -24.5950   -9.4840   21.9100 C   0  0  0  0  0  3  0  0  0  0  0  0
  -23.8770   -8.2850   22.1140 C   0  0  0  0  0  3  0  0  0  0  0  0
  -22.7020   -8.0260   21.3690 C   0  0  0  0  0  0  0  0  0  0  0  0
  -22.2780   -8.9630   20.4100 C   0  0  0  0  0  3  0  0  0  0  0  0
  -22.9960  -10.1530   20.2050 C   0  0  0  0  0  3  0  0  0  0  0  0
  -21.9600   -6.8760   21.4790 O   0  0  0  0  0  0  0  0  0  0  0  0
  -21.8550   -6.1960   22.6660 C   0  0  0  0  0  0  0  0  0  0  0  0
  -21.3570   -6.8110   23.8350 C   0  0  0  0  0  3  0  0  0  0  0  0
  -21.2030   -6.0560   25.0160 C   0  0  0  0  0  3  0  0  0  0  0  0
  -21.5360   -4.6880   25.0270 C   0  0  0  0  0  0  0  0  0  0  0  0
  -22.0280   -4.0740   23.8630 C   0  0  0  0  0  3  0  0  0  0  0  0
  -22.1850   -4.8260   22.6840 C   0  0  0  0  0  0  0  0  0  0  0  0
  -22.6380   -4.2240   21.5590 F   0  0  0  0  0  0  0  0  0  0  0  0
  -21.3810   -3.9610   26.1580 F   0  0  0  0  0  0  0  0  0  0  0  0
  -23.0320  -13.5260   21.1640 C   0  0  0  0  0  0  0  0  0  0  0  0
  -22.3510  -12.8360   22.0720 N   0  0  0  0  0  0  0  0  0  0  0  0
  -22.5630  -14.5470   20.6620 O   0  0  0  0  0  0  0  0  0  0  0  0
  -22.7380  -12.0120   22.5050 H   0  0  0  0  0  0  0  0  0  0  0  0
  -21.4280  -13.1440   22.3450 H   0  0  0  0  0  0  0  0  0  0  0  0
  -25.6220  -15.1960   20.2310 N   0  0  0  0  0  0  0  0  0  0  0  0
  -24.8720  -15.8510   20.4190 H   0  0  0  0  0  0  0  0  0  0  0  0
  -26.4360  -15.6270   19.8130 H   0  0  0  0  0  0  0  0  0  0  0  0
  -29.8330  -21.8340   16.1840 C   0  0  0  0  0  1  0  0  0  0  0  0
  -27.4820  -21.6300   17.1420 C   0  0  0  0  0  1  0  0  0  0  0  0
  -28.9950  -21.4240   17.4070 C   0  0  0  0  0  3  0  0  0  0  0  0
  -28.3960  -25.1320   20.6080 C   0  0  0  0  0  2  0  0  0  0  0  0
  -28.5930  -26.4960   20.0860 O   0  0  0  0  0  0  0  0  0  0  0  0
  -24.7500  -31.7510   23.1500 C   0  0  0  0  0  0  0  0  0  0  0  0
  -27.4610  -27.3100   20.0530 C   0  0  0  0  0  0  0  0  0  0  0  0
  -23.5780  -30.3520   21.4830 C   0  0  0  0  0  3  0  0  0  0  0  0
  -25.0650  -28.8550   20.0380 C   0  0  0  0  0  0  0  0  0  0  0  0
  -26.1060  -30.7320   21.3110 C   0  0  0  0  0  2  0  0  0  0  0  0
  -26.2160  -29.3630   20.6540 C   0  0  0  0  0  0  0  0  0  0  0  0
  -27.4190  -28.6010   20.6550 C   0  0  0  0  0  3  0  0  0  0  0  0
  -26.2940  -26.8520   19.4030 C   0  0  0  0  0  3  0  0  0  0  0  0
  -25.1050  -27.6050   19.4010 C   0  0  0  0  0  3  0  0  0  0  0  0
  -23.8080  -29.7000   20.0940 C   0  0  0  0  0  2  0  0  0  0  0  0
  -24.8300  -30.9610   22.0400 N   0  0  0  0  0  0  0  0  0  0  0  0
  -23.6600  -32.0020   23.6830 O   0  0  0  0  0  0  0  0  0  0  0  0
  -22.9330  -29.3100   22.4260 C   0  0  0  0  0  0  0  0  0  0  0  0
  -21.6070  -29.1290   22.3070 N   0  0  0  0  0  0  0  0  0  0  0  0
  -23.6230  -28.6680   23.2250 O   0  0  0  0  0  0  0  0  0  0  0  0
  -21.1070  -29.7000   21.6400 H   0  0  0  0  0  0  0  0  0  0  0  0
  -18.2370  -27.9230   22.8220 C   0  0  0  0  0  0  0  0  0  0  0  0
  -20.7990  -28.1710   23.0640 C   0  0  0  0  0  3  0  0  0  0  0  0
  -20.8920  -26.7550   22.4480 C   0  0  0  0  0  2  0  0  0  0  0  0
  -19.7760  -26.4600   21.4410 C   0  0  0  0  0  2  0  0  0  0  0  0
  -18.4030  -26.5910   22.1070 C   0  0  0  0  0  2  0  0  0  0  0  0
  -19.3630  -28.6710   23.2570 C   0  0  0  0  0  0  0  0  0  0  0  0
  -19.1550  -29.9180   23.8860 C   0  0  0  0  0  3  0  0  0  0  0  0
  -17.8550  -30.4170   24.0820 C   0  0  0  0  0  3  0  0  0  0  0  0
  -16.7430  -29.6660   23.6650 C   0  0  0  0  0  3  0  0  0  0  0  0
  -16.9360  -28.4200   23.0410 C   0  0  0  0  0  3  0  0  0  0  0  0
  -26.0200  -32.3960   23.7860 C   0  0  0  0  0  3  0  0  0  0  0  0
  -25.6780  -33.7770   24.1560 N   0  0  0  0  0  0  0  0  0  0  0  0
  -25.9730  -34.8570   23.4200 C   0  0  0  0  0  0  0  0  0  0  0  0
  -26.6330  -34.7970   22.3790 O   0  0  0  0  0  0  0  0  0  0  0  0
  -25.0920  -33.8990   24.9680 H   0  0  0  0  0  0  0  0  0  0  0  0
  -24.1920  -36.6100   23.1320 C   0  0  0  0  0  1  0  0  0  0  0  0
  -25.4540  -36.2200   23.9170 C   0  0  0  0  0  3  0  0  0  0  0  0
  -27.5770  -37.1440   24.7380 C   0  0  0  0  0  1  0  0  0  0  0  0
  -26.4550  -37.3050   23.8170 N   0  0  0  0  0  0  0  0  0  0  0  0
  -26.0250  -38.2080   23.9960 H   0  0  0  0  0  0  0  0  0  0  0  0
  -26.5600  -31.6030   25.0390 C   0  0  1  0  0  0  0  0  0  0  0  0
  -25.4800  -31.3100   26.1060 C   0  0  0  0  0  1  0  0  0  0  0  0
  -27.1740  -30.2520   24.6040 C   0  0  0  0  0  1  0  0  0  0  0  0
  -27.6960  -32.4050   25.7190 C   0  0  0  0  0  1  0  0  0  0  0  0
  1  3  1  0
  2 17  1  0
  2  4  1  0
  3 57  1  0
  3  4  1  0
  4  5  1  0
  6  1  1  0
  6  2  1  0
  6  7  1  6
  8 24  1  0
  9 14  1  0
 10 11  1  0
 10  9  1  0
 12 11  1  0
 12 29  1  0
 12 13  1  0
 14  8  1  0
 14 13  1  0
 15  8  2  0
 17 18  2  0
 18 16  1  0
 18 21  1  0
 19 23  2  0
 19 17  1  0
 20 24  1  0
 20 16  2  0
 22 19  1  0
 23 20  1  0
 24 25  1  0
 26 27  2  0
 27 46  1  0
 28 27  1  0
 28 31  1  0
 29 30  1  0
 29 26  1  0
 30 28  2  0
 31 32  1  0
 32 33  2  0
 34 37  1  0
 34 33  1  0
 35 34  2  0
 36 35  1  0
 36 31  2  0
 37 38  1  0
 38 43  2  0
 38 39  1  0
 39 40  2  0
 40 41  1  0
 41 45  1  0
 42 41  2  0
 43 42  1  0
 44 43  1  0
 46 47  1  0
 47 50  1  0
 47 49  1  0
 48 46  2  0
 51 26  1  0
 51 52  1  0
 53 51  1  0
 54 56  1  0
 55 56  1  0
 56  6  1  0
 58 57  1  0
 59 70  2  0
 60 58  1  0
 60 65  1  0
 61 69  1  0
 61 71  1  0
 62 68  1  0
 62 64  1  0
 63 69  1  0
 64 65  2  0
 64 63  1  0
 66 60  2  0
 67 66  1  0
 67 62  2  0
 68 61  1  0
 69 59  1  0
 71 73  2  0
 72 71  1  0
 74 72  1  0
 75 84  2  0
 75 80  1  0
 76 72  1  0
 76 80  1  0
 77 76  1  0
 78 79  1  0
 78 77  1  0
 79 75  1  0
 80 81  2  0
 81 82  1  0
 83 82  2  0
 84 83  1  0
 85 59  1  0
 85 86  1  0
 85 95  1  0
 86 89  1  0
 87 91  1  0
 87 86  1  0
 88 87  2  0
 91 90  1  0
 93 91  1  0
 93 94  1  0
 93 92  1  0
 95 98  1  1
 95 96  1  0
 97 95  1  0
M  ISO  4   8 100  24 100  57 101  58 101
M  END
>  <TORSDO>  (59) 
F 18

>  <SCORE>  (59) 
-12.156

>  <name>  (59) 
58

>  <ligand_id>  (59) 
58

>  <original_smiles>  (59) 
[H]c1c([H])c([H])c2c(c1[H])C([H])([H])C([H])([H])C([H])([H])C2([H])N([H])C(=O)C1([H])N(C(=O)C([H])(N([H])C(=O)C([H])(N([H])C([H])([H])[H])C([H])([H])[H])C(C([H])([H])[H])(C([H])([H])[H])C([H])([H])[H])C([H])([H])c2c([H])c(OC([H])([H])C3([H])C([H])(C([H])([H])[H])C([H])(c4c(C([H])([H])[H])nc(N([H])C(=O)N5C([H])([H])C([H])([H])C([H])([H])C([H])(n6nc(-c7c([H])c([H])c(Oc8c([H])c([H])c(F)c([H])c8F)c([H])c7[H])c(C(=O)N([H])[H])c6N([H])[H])C5([H])[H])c([H])c4C([H])([H])[H])[N+]([H])(C([H])(C([H])([H])[H])C([H])([H])[H])C3([H])[H])c([H])c([H])c2C1([H])[H]

>  <smiles>  (59) 
[H]c1c([H])c([H])c2c(c1[H])C([H])([H])C([H])([H])C([H])([H])C2([H])N([H])C(=O)C1([H])N(C(=O)C([H])(N([H])C(=O)C([H])(N([H])C([H])([H])[H])C([H])([H])[H])C(C([H])([H])[H])(C([H])([H])[H])C([H])([H])[H])C([H])([H])c2c([H])c(OC([H])([H])C3([H])C([H])(C([H])([H])[H])C([H])(c4c(C([H])([H])[H])nc(N([H])C(=O)N5C([H])([H])C([H])([H])C([H])([H])C([H])(n6nc(-c7c([H])c([H])c(Oc8c([H])c([H])c(F)c([H])c8F)c([H])c7[H])c(C(=O)N([H])[H])c6N([H])[H])C5([H])[H])c([H])c4C([H])([H])[H])[N+]([H])(C([H])(C([H])([H])[H])C([H])([H])[H])C3([H])[H])c([H])c([H])c2C1([H])[H]

$$$$
59:0:0
     RDKit          3D

 93102  0  0  1  0  0  0  0  0999 V2000
  -28.0550  -22.3040   21.4690 C   0  0  0  0  0  2  0  0  0  0  0  0
  -27.6240  -23.8420   21.4840 C   0  0  0  0  0  2  0  0  0  0  0  0
  -28.7190  -21.9120   20.1170 C   0  0  0  0  0  3  0  0  0  0  0  0
  -28.0450  -24.5850   20.1810 C   0  0  0  0  0  3  0  0  0  0  0  0
  -29.1730  -23.4760   19.7050 C   0  0  2  0  0  0  0  0  0  0  0  0
  -29.3180  -23.6450   18.1790 C   0  0  0  0  0  1  0  0  0  0  0  0
  -30.5000  -23.8680   20.3970 C   0  0  0  0  0  1  0  0  0  0  0  0
  -30.5170  -20.6380   18.8550 C   0  0  0  0  0  1  0  0  0  0  0  0
  -29.6910  -20.6100   20.0860 N   0  0  2  0  0  4  0  0  0  0  0  0
  -30.3510  -20.8140   20.8220 H   0  0  0  0  0  0  0  0  0  0  0  0
  -30.5230  -15.1090   20.1950 C   0  0  0  0  0  0  0  0  0  0  0  0
  -30.3630  -12.7420   19.2590 C   0  0  0  0  0  2  0  0  0  0  0  0
  -29.4050  -12.6370   18.0520 C   0  0  0  0  0  2  0  0  0  0  0  0
  -27.9630  -12.3870   18.5290 C   0  0  0  0  0  2  0  0  0  0  0  0
  -27.5590  -13.3230   19.6960 C   0  0  0  0  0  3  0  0  0  0  0  0
  -28.6440  -13.4230   20.7900 C   0  0  0  0  0  2  0  0  0  0  0  0
  -29.8810  -13.8620   20.1270 N   0  0  0  0  0  0  0  0  0  0  0  0
  -31.7430  -15.0800   19.9970 O   0  0  0  0  0  0  0  0  0  0  0  0
  -28.4370  -18.2930   19.3900 C   0  0  0  0  0  2  0  0  0  0  0  0
  -28.5480  -16.7450   19.7150 C   0  0  0  0  0  2  0  0  0  0  0  0
  -29.2970  -19.0720   20.4010 C   0  0  0  0  0  3  0  0  0  0  0  0
  -30.4080  -17.8350   20.5590 C   0  0  0  0  0  3  0  0  0  0  0  0
  -31.1270  -17.9140   21.9150 C   0  0  0  0  0  1  0  0  0  0  0  0
  -29.8490  -16.3910   20.3250 N   0  0  0  0  0  0  0  0  0  0  0  0
  -25.2040  -13.8830   20.5130 C   0  0  0  0  0  0  0  0  0  0  0  0
  -24.1530  -13.1000   20.8970 C   0  0  0  0  0  0  0  0  0  0  0  0
  -24.6220  -11.7510   20.8350 C   0  0  0  0  0  0  0  0  0  0  0  0
  -26.2440  -13.0120   20.2350 N   0  0  0  0  0  0  0  0  0  0  0  0
  -25.9060  -11.7230   20.4960 N   0  0  0  0  0  0  0  0  0  0  0  0
  -23.9040  -10.4850   21.0190 C   0  0  0  0  0  0  0  0  0  0  0  0
  -24.3370   -9.5200   21.9540 C   0  0  0  0  0  3  0  0  0  0  0  0
  -23.6170   -8.3200   22.1280 C   0  0  0  0  0  3  0  0  0  0  0  0
  -22.4500   -8.0750   21.3640 C   0  0  0  0  0  0  0  0  0  0  0  0
  -22.0380   -9.0290   20.4180 C   0  0  0  0  0  3  0  0  0  0  0  0
  -22.7590  -10.2210   20.2420 C   0  0  0  0  0  3  0  0  0  0  0  0
  -21.7010   -6.9270   21.4480 O   0  0  0  0  0  0  0  0  0  0  0  0
  -21.6220   -6.2030   22.6110 C   0  0  0  0  0  0  0  0  0  0  0  0
  -21.1380   -6.7710   23.8100 C   0  0  0  0  0  3  0  0  0  0  0  0
  -21.0080   -5.9720   24.9640 C   0  0  0  0  0  3  0  0  0  0  0  0
  -21.3490   -4.6070   24.9190 C   0  0  0  0  0  0  0  0  0  0  0  0
  -21.8260   -4.0390   23.7240 C   0  0  0  0  0  3  0  0  0  0  0  0
  -21.9580   -4.8350   22.5720 C   0  0  0  0  0  0  0  0  0  0  0  0
  -22.3980   -4.2780   21.4180 F   0  0  0  0  0  0  0  0  0  0  0  0
  -21.2170   -3.8380   26.0240 F   0  0  0  0  0  0  0  0  0  0  0  0
  -22.7610  -13.5700   21.2010 C   0  0  0  0  0  0  0  0  0  0  0  0
  -22.0510  -12.8590   22.0700 N   0  0  0  0  0  0  0  0  0  0  0  0
  -22.3120  -14.6020   20.7050 O   0  0  0  0  0  0  0  0  0  0  0  0
  -22.4280  -12.0240   22.4930 H   0  0  0  0  0  0  0  0  0  0  0  0
  -21.1180  -13.1540   22.3170 H   0  0  0  0  0  0  0  0  0  0  0  0
  -25.3490  -15.2560   20.3460 N   0  0  0  0  0  0  0  0  0  0  0  0
  -24.5730  -15.8960   20.4780 H   0  0  0  0  0  0  0  0  0  0  0  0
  -26.1730  -15.7040   19.9690 H   0  0  0  0  0  0  0  0  0  0  0  0
  -28.2310  -26.1590   20.2610 O   0  0  0  0  0  0  0  0  0  0  0  0
  -24.6410  -31.9290   23.2380 C   0  0  0  0  0  0  0  0  0  0  0  0
  -27.1680  -27.1510   20.2160 C   0  0  0  0  0  0  0  0  0  0  0  0
  -23.4240  -30.5330   21.6150 C   0  0  0  0  0  3  0  0  0  0  0  0
  -24.8520  -28.9380   20.1890 C   0  0  0  0  0  0  0  0  0  0  0  0
  -25.9800  -30.7730   21.4330 C   0  0  0  0  0  2  0  0  0  0  0  0
  -26.0410  -29.3730   20.7880 C   0  0  0  0  0  0  0  0  0  0  0  0
  -27.1970  -28.4970   20.7790 C   0  0  0  0  0  3  0  0  0  0  0  0
  -25.9500  -26.8300   19.5760 C   0  0  0  0  0  3  0  0  0  0  0  0
  -24.8220  -27.6810   19.5660 C   0  0  0  0  0  3  0  0  0  0  0  0
  -23.6320  -29.8470   20.2380 C   0  0  0  0  0  2  0  0  0  0  0  0
  -24.7020  -31.1010   22.1500 N   0  0  0  0  0  0  0  0  0  0  0  0
  -23.5600  -32.2230   23.7710 O   0  0  0  0  0  0  0  0  0  0  0  0
  -22.7440  -29.5350   22.5880 C   0  0  0  0  0  0  0  0  0  0  0  0
  -21.4150  -29.3640   22.4630 N   0  0  0  0  0  0  0  0  0  0  0  0
  -23.4150  -28.9180   23.4170 O   0  0  0  0  0  0  0  0  0  0  0  0
  -20.9290  -29.9140   21.7690 H   0  0  0  0  0  0  0  0  0  0  0  0
  -18.0370  -28.1550   22.9730 C   0  0  0  0  0  0  0  0  0  0  0  0
  -20.5940  -28.4340   23.2430 C   0  0  0  0  0  3  0  0  0  0  0  0
  -20.7040  -26.9950   22.6890 C   0  0  0  0  0  2  0  0  0  0  0  0
  -19.6060  -26.6530   21.6750 C   0  0  0  0  0  2  0  0  0  0  0  0
  -18.2230  -26.7990   22.3120 C   0  0  0  0  0  2  0  0  0  0  0  0
  -19.1510  -28.9290   23.3950 C   0  0  0  0  0  0  0  0  0  0  0  0
  -18.9210  -30.1970   23.9740 C   0  0  0  0  0  3  0  0  0  0  0  0
  -17.6130  -30.6900   24.1320 C   0  0  0  0  0  3  0  0  0  0  0  0
  -16.5140  -29.9150   23.7240 C   0  0  0  0  0  3  0  0  0  0  0  0
  -16.7270  -28.6480   23.1500 C   0  0  0  0  0  3  0  0  0  0  0  0
  -25.9260  -32.5630   23.8550 C   0  0  0  0  0  3  0  0  0  0  0  0
  -25.6170  -33.9610   24.1960 N   0  0  0  0  0  0  0  0  0  0  0  0
  -25.9260  -35.0200   23.4360 C   0  0  0  0  0  0  0  0  0  0  0  0
  -26.5660  -34.9230   22.3860 O   0  0  0  0  0  0  0  0  0  0  0  0
  -25.0450  -34.1090   25.0140 H   0  0  0  0  0  0  0  0  0  0  0  0
  -24.1770  -36.8100   23.1560 C   0  0  0  0  0  1  0  0  0  0  0  0
  -25.4520  -36.4080   23.9160 C   0  0  0  0  0  3  0  0  0  0  0  0
  -27.6110  -37.3050   24.6660 C   0  0  0  0  0  1  0  0  0  0  0  0
  -26.4740  -37.4650   23.7640 N   0  0  0  0  0  0  0  0  0  0  0  0
  -26.0700  -38.3840   23.9240 H   0  0  0  0  0  0  0  0  0  0  0  0
  -26.4470  -31.7910   25.1290 C   0  0  1  0  0  0  0  0  0  0  0  0
  -25.3590  -31.5550   26.2040 C   0  0  0  0  0  1  0  0  0  0  0  0
  -27.0250  -30.4110   24.7390 C   0  0  0  0  0  1  0  0  0  0  0  0
  -27.6030  -32.5830   25.7840 C   0  0  0  0  0  1  0  0  0  0  0  0
  1  2  1  0
  3  9  1  0
  3  1  1  0
  4 53  1  0
  4  2  1  0
  5  3  1  0
  5  4  1  0
  5  7  1  1
  6  5  1  0
  8  9  1  0
  9 10  1  1
 11 24  1  0
 12 17  1  0
 13 14  1  0
 13 12  1  0
 15 14  1  0
 15 28  1  0
 15 16  1  0
 17 11  1  0
 17 16  1  0
 18 11  2  0
 19 20  1  0
 19 21  1  0
 20 24  1  0
 21  9  1  0
 21 22  1  0
 22 23  1  0
 24 22  1  0
 25 26  2  0
 26 45  1  0
 27 26  1  0
 27 30  1  0
 28 29  1  0
 28 25  1  0
 29 27  2  0
 30 31  1  0
 31 32  2  0
 33 36  1  0
 33 32  1  0
 34 33  2  0
 35 34  1  0
 35 30  2  0
 36 37  1  0
 37 38  1  0
 38 39  2  0
 40 39  1  0
 40 44  1  0
 41 40  2  0
 42 37  2  0
 42 41  1  0
 43 42  1  0
 45 46  1  0
 46 49  1  0
 46 48  1  0
 47 45  2  0
 50 51  1  0
 50 25  1  0
 52 50  1  0
 54 65  2  0
 55 53  1  0
 55 60  1  0
 56 64  1  0
 56 66  1  0
 57 63  1  0
 57 59  1  0
 58 64  1  0
 59 58  1  0
 60 59  2  0
 61 55  2  0
 62 61  1  0
 62 57  2  0
 63 56  1  0
 64 54  1  0
 66 68  2  0
 67 66  1  0
 69 67  1  0
 70 79  2  0
 70 75  1  0
 71 67  1  0
 71 75  1  0
 72 71  1  0
 73 74  1  0
 73 72  1  0
 74 70  1  0
 75 76  2  0
 76 77  1  0
 78 77  2  0
 79 78  1  0
 80 54  1  0
 80 81  1  0
 80 90  1  0
 81 84  1  0
 82 86  1  0
 82 81  1  0
 83 82  2  0
 86 85  1  0
 88 86  1  0
 88 89  1  0
 88 87  1  0
 90 93  1  1
 90 91  1  0
 92 90  1  0
M  ISO  4   4 101  11 100  24 100  53 101
M  END
>  <TORSDO>  (60) 
F 17

>  <SCORE>  (60) 
-15.464

>  <name>  (60) 
59

>  <ligand_id>  (60) 
59

>  <original_smiles>  (60) 
[H]c1c([H])c([H])c2c(c1[H])C([H])([H])C([H])([H])C([H])([H])C2([H])N([H])C(=O)C1([H])N(C(=O)C([H])(N([H])C(=O)C([H])(N([H])C([H])([H])[H])C([H])([H])[H])C(C([H])([H])[H])(C([H])([H])[H])C([H])([H])[H])C([H])([H])c2c([H])c(OC3([H])C([H])([H])C([H])([H])C([H])([N+]([H])(C([H])([H])[H])C4([H])C([H])([H])C([H])([H])N(C(=O)N5C([H])([H])C([H])([H])C([H])([H])C([H])(n6nc(-c7c([H])c([H])c(Oc8c([H])c([H])c(F)c([H])c8F)c([H])c7[H])c(C(=O)N([H])[H])c6N([H])[H])C5([H])[H])C4([H])C([H])([H])[H])C3(C([H])([H])[H])C([H])([H])[H])c([H])c([H])c2C1([H])[H]

>  <smiles>  (60) 
[H]c1c([H])c([H])c2c(c1[H])C([H])([H])C([H])([H])C([H])([H])C2([H])N([H])C(=O)C1([H])N(C(=O)C([H])(N([H])C(=O)C([H])(N([H])C([H])([H])[H])C([H])([H])[H])C(C([H])([H])[H])(C([H])([H])[H])C([H])([H])[H])C([H])([H])c2c([H])c(OC3([H])C([H])([H])C([H])([H])C([H])([N+]([H])(C([H])([H])[H])C4([H])C([H])([H])C([H])([H])N(C(=O)N5C([H])([H])C([H])([H])C([H])([H])C([H])(n6nc(-c7c([H])c([H])c(Oc8c([H])c([H])c(F)c([H])c8F)c([H])c7[H])c(C(=O)N([H])[H])c6N([H])[H])C5([H])[H])C4([H])C([H])([H])[H])C3(C([H])([H])[H])C([H])([H])[H])c([H])c([H])c2C1([H])[H]

$$$$
60:0:0
     RDKit          3D

 94103  0  0  1  0  0  0  0  0999 V2000
  -29.1640  -23.4990   19.7550 C   0  0  0  0  0  0  0  0  0  0  0  0
  -30.5680  -23.6990   19.7150 C   0  0  0  0  0  0  0  0  0  0  0  0
  -28.7800  -22.0660   19.7340 C   0  0  0  0  0  0  0  0  0  0  0  0
  -31.4450  -22.5770   19.6650 C   0  0  0  0  0  0  0  0  0  0  0  0
  -29.7460  -20.9510   19.6940 C   0  0  0  0  0  0  0  0  0  0  0  0
  -31.1250  -25.1200   19.7090 C   0  0  0  0  0  1  0  0  0  0  0  0
  -27.2970  -21.7290   19.7510 C   0  0  0  0  0  1  0  0  0  0  0  0
  -32.9520  -22.7420   19.5920 C   0  0  0  0  0  1  0  0  0  0  0  0
  -31.0470  -21.2830   19.6620 N   0  0  0  0  0  0  0  0  0  0  0  0
  -31.0510  -15.0590   19.6190 C   0  0  0  0  0  0  0  0  0  0  0  0
  -30.7860  -12.7120   18.7330 C   0  0  0  0  0  2  0  0  0  0  0  0
  -29.7460  -12.6440   17.5970 C   0  0  0  0  0  2  0  0  0  0  0  0
  -28.3370  -12.4310   18.1800 C   0  0  0  0  0  2  0  0  0  0  0  0
  -28.0370  -13.3710   19.3760 C   0  0  0  0  0  3  0  0  0  0  0  0
  -29.2000  -13.4380   20.3890 C   0  0  0  0  0  2  0  0  0  0  0  0
  -30.3920  -13.8350   19.6310 N   0  0  0  0  0  0  0  0  0  0  0  0
  -32.2280  -15.0360   19.2420 O   0  0  0  0  0  0  0  0  0  0  0  0
  -29.9780  -18.7320   18.4540 C   0  0  0  0  0  2  0  0  0  0  0  0
  -30.8870  -17.4250   18.6850 C   0  0  0  0  0  2  0  0  0  0  0  0
  -29.5330  -16.9970   20.6010 C   0  0  0  0  0  2  0  0  0  0  0  0
  -29.7400  -18.5970   20.8300 C   0  0  0  0  0  3  0  0  0  0  0  0
  -28.8980  -19.0600   22.0280 C   0  0  0  0  0  1  0  0  0  0  0  0
  -29.5030  -19.4880   19.6470 N   0  0  0  0  0  0  0  0  0  0  0  0
  -30.3710  -16.3120   19.5600 N   0  0  0  0  0  0  0  0  0  0  0  0
  -25.7790  -13.9200   20.4450 C   0  0  0  0  0  0  0  0  0  0  0  0
  -24.7480  -13.1330   20.8770 C   0  0  0  0  0  0  0  0  0  0  0  0
  -25.1740  -11.7830   20.6850 C   0  0  0  0  0  0  0  0  0  0  0  0
  -26.7650  -13.0510   20.0130 N   0  0  0  0  0  0  0  0  0  0  0  0
  -26.4190  -11.7550   20.2230 N   0  0  0  0  0  0  0  0  0  0  0  0
  -24.4440  -10.5190   20.8600 C   0  0  0  0  0  0  0  0  0  0  0  0
  -24.7980   -9.5920   21.8640 C   0  0  0  0  0  3  0  0  0  0  0  0
  -24.0680   -8.3960   22.0250 C   0  0  0  0  0  3  0  0  0  0  0  0
  -22.9660   -8.1170   21.1810 C   0  0  0  0  0  0  0  0  0  0  0  0
  -22.6310   -9.0330   20.1670 C   0  0  0  0  0  3  0  0  0  0  0  0
  -23.3630  -10.2210   20.0050 C   0  0  0  0  0  3  0  0  0  0  0  0
  -22.2150   -6.9690   21.2480 O   0  0  0  0  0  0  0  0  0  0  0  0
  -21.8530   -6.4140   22.4490 C   0  0  0  0  0  0  0  0  0  0  0  0
  -21.0730   -7.1220   23.3920 C   0  0  0  0  0  3  0  0  0  0  0  0
  -20.6650   -6.4890   24.5830 C   0  0  0  0  0  3  0  0  0  0  0  0
  -21.0260   -5.1510   24.8310 C   0  0  0  0  0  0  0  0  0  0  0  0
  -21.7960   -4.4440   23.8910 C   0  0  0  0  0  3  0  0  0  0  0  0
  -22.2050   -5.0740   22.7030 C   0  0  0  0  0  0  0  0  0  0  0  0
  -22.9300   -4.3820   21.7900 F   0  0  0  0  0  0  0  0  0  0  0  0
  -20.6270   -4.5410   25.9710 F   0  0  0  0  0  0  0  0  0  0  0  0
  -23.4050  -13.6080   21.3490 C   0  0  0  0  0  0  0  0  0  0  0  0
  -22.7930  -12.8870   22.2820 N   0  0  0  0  0  0  0  0  0  0  0  0
  -22.9120  -14.6530   20.9240 O   0  0  0  0  0  0  0  0  0  0  0  0
  -23.2110  -12.0430   22.6450 H   0  0  0  0  0  0  0  0  0  0  0  0
  -21.8980  -13.1860   22.6400 H   0  0  0  0  0  0  0  0  0  0  0  0
  -25.9510  -15.2990   20.3550 N   0  0  0  0  0  0  0  0  0  0  0  0
  -25.2150  -15.9500   20.6090 H   0  0  0  0  0  0  0  0  0  0  0  0
  -26.7580  -15.7500   19.9440 H   0  0  0  0  0  0  0  0  0  0  0  0
  -28.1200  -24.7750   19.7720 C   0  0  0  0  0  2  0  0  0  0  0  0
  -28.4430  -26.2720   20.0250 O   0  0  0  0  0  0  0  0  0  0  0  0
  -24.7880  -31.7660   23.2860 C   0  0  0  0  0  0  0  0  0  0  0  0
  -27.3940  -27.2560   20.0010 C   0  0  0  0  0  0  0  0  0  0  0  0
  -23.6030  -30.4660   21.5600 C   0  0  0  0  0  3  0  0  0  0  0  0
  -25.0630  -28.9850   20.0570 C   0  0  0  0  0  0  0  0  0  0  0  0
  -26.1570  -30.7490   21.4310 C   0  0  0  0  0  2  0  0  0  0  0  0
  -26.2370  -29.3990   20.6990 C   0  0  0  0  0  0  0  0  0  0  0  0
  -27.4050  -28.5510   20.6560 C   0  0  0  0  0  3  0  0  0  0  0  0
  -26.1920  -26.9470   19.3230 C   0  0  0  0  0  3  0  0  0  0  0  0
  -25.0520  -27.7730   19.3560 C   0  0  0  0  0  3  0  0  0  0  0  0
  -23.8340  -29.8740   20.1460 C   0  0  0  0  0  2  0  0  0  0  0  0
  -24.8680  -31.0110   22.1490 N   0  0  0  0  0  0  0  0  0  0  0  0
  -23.6980  -32.0190   23.8190 O   0  0  0  0  0  0  0  0  0  0  0  0
  -22.9220  -29.4010   22.4560 C   0  0  0  0  0  0  0  0  0  0  0  0
  -21.6020  -29.2070   22.2790 N   0  0  0  0  0  0  0  0  0  0  0  0
  -23.5830  -28.7560   23.2740 O   0  0  0  0  0  0  0  0  0  0  0  0
  -21.1270  -29.7840   21.6000 H   0  0  0  0  0  0  0  0  0  0  0  0
  -18.2320  -27.9280   22.6370 C   0  0  0  0  0  0  0  0  0  0  0  0
  -20.7780  -28.2220   22.9840 C   0  0  0  0  0  3  0  0  0  0  0  0
  -20.9190  -26.8190   22.3490 C   0  0  0  0  0  2  0  0  0  0  0  0
  -19.8510  -26.5240   21.2910 C   0  0  0  0  0  2  0  0  0  0  0  0
  -18.4500  -26.6150   21.9050 C   0  0  0  0  0  2  0  0  0  0  0  0
  -19.3250  -28.6900   23.1300 C   0  0  0  0  0  0  0  0  0  0  0  0
  -19.0660  -29.9180   23.7760 C   0  0  0  0  0  3  0  0  0  0  0  0
  -17.7480  -30.3870   23.9320 C   0  0  0  0  0  3  0  0  0  0  0  0
  -16.6700  -29.6220   23.4540 C   0  0  0  0  0  3  0  0  0  0  0  0
  -16.9120  -28.3940   22.8130 C   0  0  0  0  0  3  0  0  0  0  0  0
  -26.0610  -32.3660   23.9560 C   0  0  0  0  0  3  0  0  0  0  0  0
  -25.7580  -33.7590   24.3210 N   0  0  0  0  0  0  0  0  0  0  0  0
  -26.0650  -34.8290   23.5740 C   0  0  0  0  0  0  0  0  0  0  0  0
  -26.7010  -34.7450   22.5190 O   0  0  0  0  0  0  0  0  0  0  0  0
  -25.1870  -33.8960   25.1420 H   0  0  0  0  0  0  0  0  0  0  0  0
  -24.3210  -36.6270   23.3220 C   0  0  0  0  0  1  0  0  0  0  0  0
  -25.5950  -36.2090   24.0750 C   0  0  0  0  0  3  0  0  0  0  0  0
  -27.7510  -37.0960   24.8490 C   0  0  0  0  0  1  0  0  0  0  0  0
  -26.6210  -37.2670   23.9390 N   0  0  0  0  0  0  0  0  0  0  0  0
  -26.2170  -38.1850   24.1050 H   0  0  0  0  0  0  0  0  0  0  0  0
  -26.5320  -31.5570   25.2270 C   0  0  1  0  0  0  0  0  0  0  0  0
  -25.4050  -31.3010   26.2560 C   0  0  0  0  0  1  0  0  0  0  0  0
  -27.1150  -30.1830   24.8190 C   0  0  0  0  0  1  0  0  0  0  0  0
  -27.6690  -32.3230   25.9420 C   0  0  0  0  0  1  0  0  0  0  0  0
  1 53  1  0
  2  1  2  0
  3  7  1  0
  3  1  1  0
  4  2  1  0
  5  3  2  0
  6  2  1  0
  8  4  1  0
  9  4  2  0
  9  5  1  0
 10 16  1  0
 11 16  1  0
 12 13  1  0
 12 11  1  0
 14 13  1  0
 14 28  1  0
 14 15  1  0
 16 15  1  0
 17 10  2  0
 18 19  1  0
 18 23  1  0
 19 24  1  0
 20 21  1  0
 21 22  1  0
 23  5  1  0
 23 21  1  0
 24 10  1  0
 24 20  1  0
 25 26  2  0
 26 45  1  0
 27 30  1  0
 27 26  1  0
 28 29  1  0
 28 25  1  0
 29 27  2  0
 30 31  1  0
 31 32  2  0
 33 36  1  0
 33 32  1  0
 34 33  2  0
 35 34  1  0
 35 30  2  0
 36 37  1  0
 37 42  2  0
 37 38  1  0
 38 39  2  0
 39 40  1  0
 40 44  1  0
 41 40  2  0
 42 41  1  0
 43 42  1  0
 45 46  1  0
 46 49  1  0
 46 48  1  0
 47 45  2  0
 50 25  1  0
 50 51  1  0
 52 50  1  0
 53 54  1  0
 55 66  2  0
 56 54  1  0
 56 61  1  0
 57 65  1  0
 57 67  1  0
 58 64  1  0
 58 60  1  0
 59 65  1  0
 60 59  1  0
 61 60  2  0
 62 63  1  0
 62 56  2  0
 63 58  2  0
 64 57  1  0
 65 55  1  0
 67 69  2  0
 68 67  1  0
 70 68  1  0
 71 80  2  0
 71 76  1  0
 72 68  1  0
 72 76  1  0
 73 72  1  0
 74 75  1  0
 74 73  1  0
 75 71  1  0
 76 77  2  0
 77 78  1  0
 79 78  2  0
 80 79  1  0
 81 55  1  0
 81 82  1  0
 81 91  1  0
 82 85  1  0
 83 87  1  0
 83 82  1  0
 84 83  2  0
 87 86  1  0
 89 87  1  0
 89 90  1  0
 89 88  1  0
 91 94  1  1
 91 92  1  0
 93 91  1  0
M  ISO  4  10 100  24 100  53 101  54 101
M  END
>  <TORSDO>  (61) 
F 17

>  <SCORE>  (61) 
-11.577

>  <name>  (61) 
60

>  <ligand_id>  (61) 
60

>  <original_smiles>  (61) 
[H]c1c([H])c([H])c2c(c1[H])C([H])([H])C([H])([H])C([H])([H])C2([H])N([H])C(=O)C1([H])N(C(=O)C([H])(N([H])C(=O)C([H])(N([H])C([H])([H])[H])C([H])([H])[H])C(C([H])([H])[H])(C([H])([H])[H])C([H])([H])[H])C([H])([H])c2c([H])c(OC([H])([H])c3c(C([H])([H])[H])c(N4C([H])([H])C([H])([H])N(C(=O)N5C([H])([H])C([H])([H])C([H])([H])C([H])(n6nc(-c7c([H])c([H])c(Oc8c([H])c([H])c(F)c([H])c8F)c([H])c7[H])c(C(=O)N([H])[H])c6N([H])[H])C5([H])[H])C([H])([H])C4([H])C([H])([H])[H])nc(C([H])([H])[H])c3C([H])([H])[H])c([H])c([H])c2C1([H])[H]

>  <smiles>  (61) 
[H]c1c([H])c([H])c2c(c1[H])C([H])([H])C([H])([H])C([H])([H])C2([H])N([H])C(=O)C1([H])N(C(=O)C([H])(N([H])C(=O)C([H])(N([H])C([H])([H])[H])C([H])([H])[H])C(C([H])([H])[H])(C([H])([H])[H])C([H])([H])[H])C([H])([H])c2c([H])c(OC([H])([H])c3c(C([H])([H])[H])c(N4C([H])([H])C([H])([H])N(C(=O)N5C([H])([H])C([H])([H])C([H])([H])C([H])(n6nc(-c7c([H])c([H])c(Oc8c([H])c([H])c(F)c([H])c8F)c([H])c7[H])c(C(=O)N([H])[H])c6N([H])[H])C5([H])[H])C([H])([H])C4([H])C([H])([H])[H])nc(C([H])([H])[H])c3C([H])([H])[H])c([H])c([H])c2C1([H])[H]

$$$$
61:0:0
     RDKit          3D

102112  0  0  1  0  0  0  0  0999 V2000
  -29.7650  -22.0440   21.9020 C   0  0  0  0  0  3  0  0  0  0  0  0
  -29.8500  -20.6840   22.2690 C   0  0  0  0  0  3  0  0  0  0  0  0
  -30.1290  -22.3710   20.5840 C   0  0  0  0  0  0  0  0  0  0  0  0
  -30.2830  -19.7210   21.3270 C   0  0  0  0  0  0  0  0  0  0  0  0
  -30.5300  -21.3550   19.7260 C   0  0  0  0  0  0  0  0  0  0  0  0
  -30.9350  -23.4190   18.5910 C   0  0  0  0  0  2  0  0  0  0  0  0
  -30.1040  -23.7200   19.8800 C   0  0  0  0  0  3  0  0  0  0  0  0
  -30.8540  -21.8820   18.3570 C   0  0  0  0  0  3  0  0  0  0  0  0
  -30.6360  -20.0500   20.0570 N   0  0  0  0  0  0  0  0  0  0  0  0
  -30.7690  -14.5290   20.0640 C   0  0  0  0  0  0  0  0  0  0  0  0
  -30.3360  -12.4690   18.7550 C   0  0  0  0  0  2  0  0  0  0  0  0
  -29.3000  -12.7280   17.6430 C   0  0  0  0  0  2  0  0  0  0  0  0
  -27.8670  -12.5410   18.1750 C   0  0  0  0  0  2  0  0  0  0  0  0
  -27.6330  -13.3110   19.4990 C   0  0  0  0  0  3  0  0  0  0  0  0
  -28.7700  -13.0080   20.5080 C   0  0  0  0  0  2  0  0  0  0  0  0
  -30.0470  -13.3820   19.8790 N   0  0  0  0  0  0  0  0  0  0  0  0
  -31.7770  -14.7640   19.3860 O   0  0  0  0  0  0  0  0  0  0  0  0
  -29.1830  -17.4640   20.9370 C   0  0  0  0  0  2  0  0  0  0  0  0
  -31.6330  -17.5220   21.5060 C   0  0  0  0  0  2  0  0  0  0  0  0
  -29.1640  -15.9850   21.3610 C   0  0  0  0  0  2  0  0  0  0  0  0
  -31.5330  -16.0200   21.8810 C   0  0  0  0  0  2  0  0  0  0  0  0
  -30.2780  -18.2340   21.6860 C   0  0  0  0  0  3  0  0  0  0  0  0
  -30.4660  -15.3280   21.1310 N   0  0  0  0  0  0  0  0  0  0  0  0
  -25.2980  -13.9130   20.4020 C   0  0  0  0  0  0  0  0  0  0  0  0
  -24.2560  -13.1320   20.8270 C   0  0  0  0  0  0  0  0  0  0  0  0
  -24.7060  -11.7820   20.7150 C   0  0  0  0  0  0  0  0  0  0  0  0
  -26.3160  -13.0340   20.0650 N   0  0  0  0  0  0  0  0  0  0  0  0
  -25.9670  -11.7470   20.3070 N   0  0  0  0  0  0  0  0  0  0  0  0
  -23.9910  -10.5160   20.9140 C   0  0  0  0  0  0  0  0  0  0  0  0
  -24.4320   -9.5600   21.8560 C   0  0  0  0  0  3  0  0  0  0  0  0
  -23.7200   -8.3570   22.0410 C   0  0  0  0  0  3  0  0  0  0  0  0
  -22.5510   -8.1010   21.2840 C   0  0  0  0  0  0  0  0  0  0  0  0
  -22.1300   -9.0450   20.3310 C   0  0  0  0  0  3  0  0  0  0  0  0
  -22.8450  -10.2400   20.1440 C   0  0  0  0  0  3  0  0  0  0  0  0
  -21.8100   -6.9480   21.3780 O   0  0  0  0  0  0  0  0  0  0  0  0
  -21.7050   -6.2550   22.5570 C   0  0  0  0  0  0  0  0  0  0  0  0
  -21.2010   -6.8550   23.7310 C   0  0  0  0  0  3  0  0  0  0  0  0
  -21.0460   -6.0870   24.9030 C   0  0  0  0  0  3  0  0  0  0  0  0
  -21.3840   -4.7200   24.9000 C   0  0  0  0  0  0  0  0  0  0  0  0
  -21.8800   -4.1210   23.7290 C   0  0  0  0  0  3  0  0  0  0  0  0
  -22.0370   -4.8860   22.5610 C   0  0  0  0  0  0  0  0  0  0  0  0
  -22.4950   -4.2990   21.4290 F   0  0  0  0  0  0  0  0  0  0  0  0
  -21.2290   -3.9800   26.0220 F   0  0  0  0  0  0  0  0  0  0  0  0
  -22.8850  -13.6040   21.2220 C   0  0  0  0  0  0  0  0  0  0  0  0
  -22.2190  -12.8770   22.1110 N   0  0  0  0  0  0  0  0  0  0  0  0
  -22.4160  -14.6510   20.7760 O   0  0  0  0  0  0  0  0  0  0  0  0
  -22.6080  -12.0260   22.4900 H   0  0  0  0  0  0  0  0  0  0  0  0
  -21.3030  -13.1740   22.4190 H   0  0  0  0  0  0  0  0  0  0  0  0
  -25.4530  -15.2880   20.2540 N   0  0  0  0  0  0  0  0  0  0  0  0
  -24.6920  -15.9350   20.4340 H   0  0  0  0  0  0  0  0  0  0  0  0
  -26.2650  -15.7340   19.8490 H   0  0  0  0  0  0  0  0  0  0  0  0
  -32.0800  -21.2630   17.8380 N   0  0  0  0  0  4  0  0  0  0  0  0
  -32.8600  -21.4630   18.4330 H   0  0  0  0  0  0  0  0  0  0  0  0
  -32.2710  -21.5580   16.8990 H   0  0  0  0  0  0  0  0  0  0  0  0
  -31.9310  -20.2690   17.8540 H   0  0  0  0  0  0  0  0  0  0  0  0
  -30.6230  -24.8530   20.6980 N   0  0  0  0  0  4  0  0  0  0  0  0
  -31.5090  -24.5880   21.0970 H   0  0  0  0  0  0  0  0  0  0  0  0
  -29.9840  -24.9970   21.4660 H   0  0  0  0  0  0  0  0  0  0  0  0
  -32.1830  -26.7410   20.3010 C   0  0  0  0  0  1  0  0  0  0  0  0
  -30.7880  -26.1630   20.0020 C   0  0  0  0  0  3  0  0  0  0  0  0
  -29.6770  -27.1720   20.3830 C   0  0  0  0  0  2  0  0  0  0  0  0
  -28.4480  -26.6880   19.8590 O   0  0  0  0  0  0  0  0  0  0  0  0
  -24.5250  -31.7690   23.0770 C   0  0  0  0  0  0  0  0  0  0  0  0
  -27.3100  -27.4610   19.9460 C   0  0  0  0  0  0  0  0  0  0  0  0
  -23.3570  -30.3530   21.4180 C   0  0  0  0  0  3  0  0  0  0  0  0
  -24.8570  -28.8740   19.9810 C   0  0  0  0  0  0  0  0  0  0  0  0
  -25.8660  -30.7950   21.2190 C   0  0  0  0  0  2  0  0  0  0  0  0
  -25.9980  -29.4320   20.5710 C   0  0  0  0  0  0  0  0  0  0  0  0
  -27.2270  -28.7360   20.5590 C   0  0  0  0  0  3  0  0  0  0  0  0
  -26.1480  -26.9100   19.3650 C   0  0  0  0  0  3  0  0  0  0  0  0
  -24.9250  -27.6060   19.3780 C   0  0  0  0  0  3  0  0  0  0  0  0
  -23.5850  -29.6900   20.0340 C   0  0  0  0  0  2  0  0  0  0  0  0
  -24.6010  -30.9860   21.9640 N   0  0  0  0  0  0  0  0  0  0  0  0
  -23.4380  -32.0040   23.6220 O   0  0  0  0  0  0  0  0  0  0  0  0
  -22.7370  -29.3030   22.3700 C   0  0  0  0  0  0  0  0  0  0  0  0
  -21.4200  -29.0780   22.2330 N   0  0  0  0  0  0  0  0  0  0  0  0
  -23.4380  -28.6960   23.1830 O   0  0  0  0  0  0  0  0  0  0  0  0
  -20.9140  -29.6240   21.5490 H   0  0  0  0  0  0  0  0  0  0  0  0
  -18.0780  -27.7970   22.7230 C   0  0  0  0  0  0  0  0  0  0  0  0
  -20.6300  -28.1090   22.9920 C   0  0  0  0  0  3  0  0  0  0  0  0
  -20.7640  -26.6900   22.3910 C   0  0  0  0  0  2  0  0  0  0  0  0
  -19.6670  -26.3590   21.3760 C   0  0  0  0  0  2  0  0  0  0  0  0
  -18.2840  -26.4620   22.0260 C   0  0  0  0  0  2  0  0  0  0  0  0
  -19.1810  -28.5770   23.1630 C   0  0  0  0  0  0  0  0  0  0  0  0
  -18.9350  -29.8260   23.7730 C   0  0  0  0  0  3  0  0  0  0  0  0
  -17.6200  -30.2950   23.9500 C   0  0  0  0  0  3  0  0  0  0  0  0
  -16.5330  -29.5110   23.5290 C   0  0  0  0  0  3  0  0  0  0  0  0
  -16.7620  -28.2640   22.9210 C   0  0  0  0  0  3  0  0  0  0  0  0
  -25.7940  -32.4290   23.7020 C   0  0  0  0  0  3  0  0  0  0  0  0
  -26.3470  -31.6480   24.9570 C   0  0  1  0  0  0  0  0  0  0  0  0
  -25.2670  -31.3380   26.0190 C   0  0  0  0  0  1  0  0  0  0  0  0
  -26.9860  -30.3070   24.5260 C   0  0  0  0  0  1  0  0  0  0  0  0
  -27.4630  -32.4730   25.6400 C   0  0  0  0  0  1  0  0  0  0  0  0
  -25.4430  -33.8080   24.0600 N   0  0  0  0  0  0  0  0  0  0  0  0
  -25.7740  -34.8880   23.3380 C   0  0  0  0  0  0  0  0  0  0  0  0
  -26.4740  -34.8280   22.3250 O   0  0  0  0  0  0  0  0  0  0  0  0
  -24.8190  -33.9260   24.8450 H   0  0  0  0  0  0  0  0  0  0  0  0
  -24.0400  -36.6680   22.9560 C   0  0  0  0  0  1  0  0  0  0  0  0
  -25.2420  -36.2500   23.8190 C   0  0  0  0  0  3  0  0  0  0  0  0
  -27.3150  -37.1310   24.7950 C   0  0  0  0  0  1  0  0  0  0  0  0
  -26.2620  -37.3210   23.8010 N   0  0  0  0  0  0  0  0  0  0  0  0
  -25.8340  -38.2280   23.9640 H   0  0  0  0  0  0  0  0  0  0  0  0
  1  2  1  0
  3  1  2  0
  4  2  2  0
  5  9  2  0
  5  3  1  0
  6  7  1  0
  7  3  1  0
  7 56  1  0
  8 52  1  0
  8  6  1  0
  8  5  1  0
  9  4  1  0
 10 23  1  0
 11 16  1  0
 12 13  1  0
 12 11  1  0
 14 13  1  0
 14 27  1  0
 14 15  1  0
 16 10  1  0
 16 15  1  0
 17 10  2  0
 18 20  1  0
 18 22  1  0
 19 22  1  0
 19 21  1  0
 22  4  1  0
 23 20  1  0
 23 21  1  0
 24 25  2  0
 25 44  1  0
 26 25  1  0
 26 29  1  0
 27 28  1  0
 27 24  1  0
 28 26  2  0
 29 30  1  0
 30 31  2  0
 32 35  1  0
 32 31  1  0
 33 32  2  0
 34 33  1  0
 34 29  2  0
 35 36  1  0
 36 41  2  0
 36 37  1  0
 37 38  2  0
 39 38  1  0
 39 43  1  0
 40 39  2  0
 41 40  1  0
 42 41  1  0
 44 45  1  0
 45 48  1  0
 45 47  1  0
 46 44  2  0
 49 24  1  0
 49 50  1  0
 51 49  1  0
 52 55  1  0
 52 53  1  0
 54 52  1  0
 56 57  1  0
 56 58  1  0
 60 59  1  0
 60 61  1  0
 60 56  1  0
 62 64  1  0
 62 61  1  0
 63 74  2  0
 64 69  1  0
 65 73  1  0
 65 75  1  0
 66 72  1  0
 66 68  1  0
 67 73  1  0
 68 67  1  0
 69 68  2  0
 70 71  1  0
 70 64  2  0
 71 66  2  0
 72 65  1  0
 73 63  1  0
 75 77  2  0
 76 75  1  0
 78 76  1  0
 79 88  2  0
 79 84  1  0
 80 76  1  0
 80 84  1  0
 81 80  1  0
 82 83  1  0
 82 81  1  0
 83 79  1  0
 84 85  2  0
 85 86  1  0
 87 86  2  0
 88 87  1  0
 89 63  1  0
 89 94  1  0
 89 90  1  0
 90 93  1  1
 90 91  1  0
 92 90  1  0
 94 97  1  0
 95 99  1  0
 95 94  1  0
 96 95  2  0
 99 98  1  0
101 99  1  0
101102  1  0
101100  1  0
M  ISO  4  10 100  23 100  61 101  62 101
M  END
>  <TORSDO>  (62) 
F 20

>  <SCORE>  (62) 
-13.023

>  <name>  (62) 
61

>  <ligand_id>  (62) 
61

>  <original_smiles>  (62) 
[H]c1c(C2([H])C([H])([H])C([H])([H])N(C(=O)N3C([H])([H])C([H])([H])C([H])([H])C([H])(n4nc(-c5c([H])c([H])c(Oc6c([H])c([H])c(F)c([H])c6F)c([H])c5[H])c(C(=O)N([H])[H])c4N([H])[H])C3([H])[H])C([H])([H])C2([H])[H])nc2c(c1[H])C([H])([N+]([H])([H])C([H])(C([H])([H])[H])C([H])([H])Oc1c([H])c([H])c3c(c1[H])C([H])([H])N(C(=O)C([H])(N([H])C(=O)C([H])(N([H])C([H])([H])[H])C([H])([H])[H])C(C([H])([H])[H])(C([H])([H])[H])C([H])([H])[H])C([H])(C(=O)N([H])C1([H])c4c([H])c([H])c([H])c([H])c4C([H])([H])C([H])([H])C1([H])[H])C3([H])[H])C([H])([H])C2([H])[N+]([H])([H])[H]

>  <smiles>  (62) 
[H]c1c(C2([H])C([H])([H])C([H])([H])N(C(=O)N3C([H])([H])C([H])([H])C([H])([H])C([H])(n4nc(-c5c([H])c([H])c(Oc6c([H])c([H])c(F)c([H])c6F)c([H])c5[H])c(C(=O)N([H])[H])c4N([H])[H])C3([H])[H])C([H])([H])C2([H])[H])nc2c(c1[H])C([H])([N+]([H])([H])C([H])(C([H])([H])[H])C([H])([H])Oc1c([H])c([H])c3c(c1[H])C([H])([H])N(C(=O)C([H])(N([H])C(=O)C([H])(N([H])C([H])([H])[H])C([H])([H])[H])C(C([H])([H])[H])(C([H])([H])[H])C([H])([H])[H])C([H])(C(=O)N([H])C1([H])c4c([H])c([H])c([H])c([H])c4C([H])([H])C([H])([H])C1([H])[H])C3([H])[H])C([H])([H])C2([H])[N+]([H])([H])[H]

$$$$
62:0:0
     RDKit          3D

 94103  0  0  1  0  0  0  0  0999 V2000
  -31.0030  -22.5820   19.7610 C   0  0  0  0  0  2  0  0  0  0  0  0
  -28.9620  -21.4360   20.0490 C   0  0  0  0  0  2  0  0  0  0  0  0
  -31.3300  -21.0640   19.9040 C   0  0  0  0  0  3  0  0  0  0  0  0
  -30.0740  -20.4570   20.5450 C   0  0  0  0  0  3  0  0  0  0  0  0
  -32.6210  -20.8090   20.7050 C   0  0  0  0  0  1  0  0  0  0  0  0
  -29.5740  -22.7980   20.1200 N   0  0  2  0  0  4  0  0  0  0  0  0
  -29.5820  -23.0240   21.1050 H   0  0  0  0  0  0  0  0  0  0  0  0
  -30.6650  -17.8500   20.4830 C   0  0  0  0  0  3  0  0  0  0  0  0
  -29.8360  -16.7450   20.4820 C   0  0  0  0  0  0  0  0  0  0  0  0
  -28.5230  -17.2890   20.3910 C   0  0  0  0  0  0  0  0  0  0  0  0
  -27.1900  -16.6010   20.4390 C   0  0  0  0  0  1  0  0  0  0  0  0
  -28.5420  -18.6090   20.2990 N   0  0  0  0  0  0  0  0  0  0  0  0
  -29.8390  -18.9920   20.3630 N   0  0  0  0  0  0  0  0  0  0  0  0
  -30.7740  -14.3840   19.9550 C   0  0  0  0  0  0  0  0  0  0  0  0
  -30.5470  -12.1180   18.9380 C   0  0  0  0  0  2  0  0  0  0  0  0
  -29.5440  -12.2050   17.7650 C   0  0  0  0  0  2  0  0  0  0  0  0
  -28.0870  -12.0770   18.2570 C   0  0  0  0  0  2  0  0  0  0  0  0
  -27.7900  -12.9850   19.4780 C   0  0  0  0  0  3  0  0  0  0  0  0
  -28.8860  -12.8150   20.5520 C   0  0  0  0  0  2  0  0  0  0  0  0
  -30.1840  -13.1480   19.9290 N   0  0  0  0  0  0  0  0  0  0  0  0
  -31.8450  -14.6210   19.3850 O   0  0  0  0  0  0  0  0  0  0  0  0
  -30.0530  -15.3180   20.6280 N   0  0  0  0  0  0  0  0  0  0  0  0
  -29.3180  -14.8660   21.1500 H   0  0  0  0  0  0  0  0  0  0  0  0
  -25.4320  -13.6490   20.2660 C   0  0  0  0  0  0  0  0  0  0  0  0
  -24.3710  -12.9080   20.7100 C   0  0  0  0  0  0  0  0  0  0  0  0
  -24.8070  -11.5480   20.6900 C   0  0  0  0  0  0  0  0  0  0  0  0
  -26.4540  -12.7450   20.0180 N   0  0  0  0  0  0  0  0  0  0  0  0
  -26.0810  -11.4760   20.3250 N   0  0  0  0  0  0  0  0  0  0  0  0
  -24.0670  -10.3040   20.9440 C   0  0  0  0  0  0  0  0  0  0  0  0
  -24.4800   -9.3900   21.9370 C   0  0  0  0  0  3  0  0  0  0  0  0
  -23.7430   -8.2110   22.1750 C   0  0  0  0  0  3  0  0  0  0  0  0
  -22.5780   -7.9380   21.4190 C   0  0  0  0  0  0  0  0  0  0  0  0
  -22.1830   -8.8410   20.4170 C   0  0  0  0  0  3  0  0  0  0  0  0
  -22.9210  -10.0110   20.1780 C   0  0  0  0  0  3  0  0  0  0  0  0
  -21.8140   -6.8050   21.5630 O   0  0  0  0  0  0  0  0  0  0  0  0
  -21.6870   -6.1710   22.7720 C   0  0  0  0  0  0  0  0  0  0  0  0
  -21.1930   -6.8380   23.9140 C   0  0  0  0  0  3  0  0  0  0  0  0
  -21.0140   -6.1310   25.1190 C   0  0  0  0  0  3  0  0  0  0  0  0
  -21.3180   -4.7570   25.1820 C   0  0  0  0  0  0  0  0  0  0  0  0
  -21.8060   -4.0910   24.0440 C   0  0  0  0  0  3  0  0  0  0  0  0
  -21.9870   -4.7960   22.8420 C   0  0  0  0  0  0  0  0  0  0  0  0
  -22.4370   -4.1450   21.7430 F   0  0  0  0  0  0  0  0  0  0  0  0
  -21.1380   -4.0750   26.3370 F   0  0  0  0  0  0  0  0  0  0  0  0
  -22.9970  -13.4190   21.0350 C   0  0  0  0  0  0  0  0  0  0  0  0
  -22.3040  -12.7630   21.9600 N   0  0  0  0  0  0  0  0  0  0  0  0
  -22.5480  -14.4340   20.5040 O   0  0  0  0  0  0  0  0  0  0  0  0
  -22.6800  -11.9420   22.4110 H   0  0  0  0  0  0  0  0  0  0  0  0
  -21.3830  -13.0860   22.2200 H   0  0  0  0  0  0  0  0  0  0  0  0
  -25.6020  -15.0080   20.0310 N   0  0  0  0  0  0  0  0  0  0  0  0
  -24.8340  -15.6640   20.1310 H   0  0  0  0  0  0  0  0  0  0  0  0
  -26.4230  -15.4200   19.6090 H   0  0  0  0  0  0  0  0  0  0  0  0
  -28.8900  -23.9600   19.4150 C   0  0  0  0  0  2  0  0  0  0  0  0
  -28.3470  -25.1210   20.3390 C   0  0  0  0  0  2  0  0  0  0  0  0
  -28.3460  -26.4640   19.7590 O   0  0  0  0  0  0  0  0  0  0  0  0
  -24.5600  -31.6350   23.0110 C   0  0  0  0  0  0  0  0  0  0  0  0
  -27.1810  -27.2200   19.8200 C   0  0  0  0  0  0  0  0  0  0  0  0
  -23.3430  -30.2760   21.3400 C   0  0  0  0  0  3  0  0  0  0  0  0
  -24.7920  -28.7630   19.8720 C   0  0  0  0  0  0  0  0  0  0  0  0
  -25.8720  -30.6270   21.1380 C   0  0  0  0  0  2  0  0  0  0  0  0
  -25.9560  -29.2660   20.4650 C   0  0  0  0  0  0  0  0  0  0  0  0
  -27.1560  -28.5070   20.4230 C   0  0  0  0  0  3  0  0  0  0  0  0
  -25.9960  -26.7420   19.2230 C   0  0  0  0  0  3  0  0  0  0  0  0
  -24.8100  -27.5040   19.2450 C   0  0  0  0  0  3  0  0  0  0  0  0
  -23.5490  -29.6270   19.9460 C   0  0  0  0  0  2  0  0  0  0  0  0
  -24.6110  -30.8610   21.8890 N   0  0  0  0  0  0  0  0  0  0  0  0
  -23.4820  -31.8940   23.5660 O   0  0  0  0  0  0  0  0  0  0  0  0
  -22.6960  -29.2340   22.2800 C   0  0  0  0  0  0  0  0  0  0  0  0
  -21.3650  -29.0770   22.1770 N   0  0  0  0  0  0  0  0  0  0  0  0
  -23.3870  -28.5710   23.0570 O   0  0  0  0  0  0  0  0  0  0  0  0
  -20.8690  -29.6660   21.5220 H   0  0  0  0  0  0  0  0  0  0  0  0
  -17.9810  -27.9270   22.7200 C   0  0  0  0  0  0  0  0  0  0  0  0
  -20.5510  -28.1230   22.9300 C   0  0  0  0  0  3  0  0  0  0  0  0
  -20.6080  -26.7170   22.2880 C   0  0  0  0  0  2  0  0  0  0  0  0
  -19.4740  -26.4610   21.2920 C   0  0  0  0  0  2  0  0  0  0  0  0
  -18.1120  -26.6050   21.9800 C   0  0  0  0  0  2  0  0  0  0  0  0
  -19.1270  -28.6470   23.1510 C   0  0  0  0  0  0  0  0  0  0  0  0
  -18.9540  -29.8880   23.8020 C   0  0  0  0  0  3  0  0  0  0  0  0
  -17.6650  -30.4080   24.0250 C   0  0  0  0  0  3  0  0  0  0  0  0
  -16.5330  -29.6840   23.6120 C   0  0  0  0  0  3  0  0  0  0  0  0
  -16.6920  -28.4460   22.9640 C   0  0  0  0  0  3  0  0  0  0  0  0
  -25.8500  -32.2500   23.6410 C   0  0  0  0  0  3  0  0  0  0  0  0
  -26.3950  -31.4240   24.8700 C   0  0  1  0  0  0  0  0  0  0  0  0
  -25.3210  -31.1290   25.9460 C   0  0  0  0  0  1  0  0  0  0  0  0
  -26.9800  -30.0700   24.4020 C   0  0  0  0  0  1  0  0  0  0  0  0
  -27.5520  -32.1940   25.5490 C   0  0  0  0  0  1  0  0  0  0  0  0
  -25.5370  -33.6270   24.0430 N   0  0  0  0  0  0  0  0  0  0  0  0
  -25.8530  -34.7170   23.3310 C   0  0  0  0  0  0  0  0  0  0  0  0
  -26.5100  -34.6690   22.2870 O   0  0  0  0  0  0  0  0  0  0  0  0
  -24.9550  -33.7390   24.8600 H   0  0  0  0  0  0  0  0  0  0  0  0
  -24.1080  -36.5100   23.0860 C   0  0  0  0  0  1  0  0  0  0  0  0
  -25.3620  -36.0770   23.8600 C   0  0  0  0  0  3  0  0  0  0  0  0
  -27.5000  -36.9400   24.7070 C   0  0  0  0  0  1  0  0  0  0  0  0
  -26.3850  -37.1430   23.7850 N   0  0  0  0  0  0  0  0  0  0  0  0
  -25.9750  -38.0500   23.9800 H   0  0  0  0  0  0  0  0  0  0  0  0
  1  3  1  0
  1  6  1  0
  2  6  1  0
  3  4  1  0
  3  5  1  0
  4  2  1  0
  6  7  1  1
  9  8  2  0
  9 22  1  0
 10 11  1  0
 10  9  1  0
 12 13  1  0
 12 10  2  0
 13  8  1  0
 13  4  1  0
 14 22  1  0
 15 20  1  0
 16 17  1  0
 16 15  1  0
 18 17  1  0
 18 27  1  0
 18 19  1  0
 20 14  1  0
 20 19  1  0
 21 14  2  0
 22 23  1  0
 24 25  2  0
 25 44  1  0
 26 25  1  0
 26 29  1  0
 27 24  1  0
 27 28  1  0
 28 26  2  0
 29 30  1  0
 30 31  2  0
 32 35  1  0
 32 31  1  0
 33 32  2  0
 34 33  1  0
 34 29  2  0
 35 36  1  0
 36 41  2  0
 36 37  1  0
 37 38  2  0
 38 39  1  0
 39 43  1  0
 40 39  2  0
 41 40  1  0
 42 41  1  0
 44 45  1  0
 45 48  1  0
 45 47  1  0
 46 44  2  0
 49 50  1  0
 49 24  1  0
 51 49  1  0
 52  6  1  0
 52 53  1  0
 54 56  1  0
 54 53  1  0
 55 66  2  0
 56 61  1  0
 57 65  1  0
 57 67  1  0
 58 64  1  0
 58 60  1  0
 59 65  1  0
 60 59  1  0
 61 60  2  0
 62 63  1  0
 62 56  2  0
 63 58  2  0
 64 57  1  0
 65 55  1  0
 67 69  2  0
 68 67  1  0
 70 68  1  0
 71 80  2  0
 71 76  1  0
 72 68  1  0
 72 76  1  0
 73 72  1  0
 74 75  1  0
 74 73  1  0
 75 71  1  0
 76 77  2  0
 77 78  1  0
 79 78  2  0
 80 79  1  0
 81 55  1  0
 81 86  1  0
 81 82  1  0
 82 85  1  1
 82 83  1  0
 84 82  1  0
 86 89  1  0
 87 91  1  0
 87 86  1  0
 88 87  2  0
 91 90  1  0
 93 91  1  0
 93 94  1  0
 93 92  1  0
M  ISO  4  14 100  22 100  53 101  54 101
M  END
>  <TORSDO>  (63) 
F 19

>  <SCORE>  (63) 
-13.588

>  <name>  (63) 
62

>  <ligand_id>  (63) 
62

>  <original_smiles>  (63) 
[H]c1c([H])c([H])c2c(c1[H])C([H])([H])C([H])([H])C([H])([H])C2([H])N([H])C(=O)C1([H])N(C(=O)C([H])(N([H])C(=O)C([H])(N([H])C([H])([H])[H])C([H])([H])[H])C(C([H])([H])[H])(C([H])([H])[H])C([H])([H])[H])C([H])([H])c2c([H])c(OC([H])([H])C([H])([H])[N+]3([H])C([H])([H])C([H])(n4nc(C([H])([H])[H])c(N([H])C(=O)N5C([H])([H])C([H])([H])C([H])([H])C([H])(n6nc(-c7c([H])c([H])c(Oc8c([H])c([H])c(F)c([H])c8F)c([H])c7[H])c(C(=O)N([H])[H])c6N([H])[H])C5([H])[H])c4[H])C([H])(C([H])([H])[H])C3([H])[H])c([H])c([H])c2C1([H])[H]

>  <smiles>  (63) 
[H]c1c([H])c([H])c2c(c1[H])C([H])([H])C([H])([H])C([H])([H])C2([H])N([H])C(=O)C1([H])N(C(=O)C([H])(N([H])C(=O)C([H])(N([H])C([H])([H])[H])C([H])([H])[H])C(C([H])([H])[H])(C([H])([H])[H])C([H])([H])[H])C([H])([H])c2c([H])c(OC([H])([H])C([H])([H])[N+]3([H])C([H])([H])C([H])(n4nc(C([H])([H])[H])c(N([H])C(=O)N5C([H])([H])C([H])([H])C([H])([H])C([H])(n6nc(-c7c([H])c([H])c(Oc8c([H])c([H])c(F)c([H])c8F)c([H])c7[H])c(C(=O)N([H])[H])c6N([H])[H])C5([H])[H])c4[H])C([H])(C([H])([H])[H])C3([H])[H])c([H])c([H])c2C1([H])[H]

$$$$
63:0:0
     RDKit          3D

 93 98  0  0  1  0  0  0  0  0999 V2000
  -24.8330  -23.5950   22.1010 C   0  0  0  0  0  3  0  0  0  0  0  0
  -25.8710  -22.5410   21.6110 C   0  0  0  0  0  3  0  0  0  0  0  0
  -24.4860  -22.2090   19.9320 C   0  0  0  0  0  3  0  0  0  0  0  0
  -23.3510  -23.3880   20.4070 C   0  0  0  0  0  0  0  0  0  0  0  0
  -23.5140  -24.0830   21.5470 C   0  0  0  0  0  0  0  0  0  0  0  0
  -25.9710  -21.5850   20.4370 C   0  0  0  0  0  3  0  0  0  0  0  0
  -21.7380  -24.2550   20.3240 C   0  0  0  0  0  0  0  0  0  0  0  0
  -21.0410  -26.0460   20.6650 C   0  0  0  0  0  3  0  0  0  0  0  0
  -21.3000  -27.7950   19.5360 C   0  0  0  0  0  2  0  0  0  0  0  0
  -22.0900  -25.1300   21.8900 C   0  0  0  0  0  3  0  0  0  0  0  0
  -20.8540  -23.4730   19.9520 O   0  0  0  0  0  1  0  0  0  0  0  0
  -22.6870  -28.7990   17.2110 C   0  0  0  0  0  1  0  0  0  0  0  0
  -23.0950  -28.2690   18.6400 C   0  0  0  0  0  1  0  0  0  0  0  0
  -24.9080  -27.9260   19.0790 O   0  0  0  0  0  1  0  0  0  0  0  0
  -24.6870  -31.9220   23.2160 C   0  0  0  0  0  0  0  0  0  0  0  0
  -26.2810  -28.4210   18.9320 C   0  0  0  0  0  3  0  0  0  0  0  0
  -23.5460  -31.1730   21.2090 C   0  0  0  0  0  3  0  0  0  0  0  0
  -25.0180  -30.6190   19.1470 C   0  0  0  0  0  3  0  0  0  0  0  0
  -26.0870  -31.4390   21.2190 C   0  0  0  0  0  2  0  0  0  0  0  0
  -26.0360  -30.4590   20.0760 C   0  0  0  0  0  3  0  0  0  0  0  0
  -26.8370  -29.3210   19.9050 C   0  0  0  0  0  2  0  0  0  0  0  0
  -26.1740  -28.9980   17.7110 C   0  0  0  0  0  2  0  0  0  0  0  0
  -25.2490  -30.0470   17.8550 C   0  0  0  0  0  2  0  0  0  0  0  0
  -23.7640  -31.3060   19.6640 C   0  0  0  0  0  2  0  0  0  0  0  0
  -24.7860  -31.5830   21.9100 N   0  0  0  0  0  0  0  0  0  0  0  0
  -23.5850  -32.0040   23.7800 O   0  0  0  0  0  0  0  0  0  0  0  0
  -23.1980  -29.7610   21.7760 C   0  0  0  0  0  0  0  0  0  0  0  0
  -21.9850  -29.3300   22.0030 N   0  0  0  0  0  0  0  0  0  0  0  0
  -24.0740  -29.0060   22.1580 O   0  0  0  0  0  0  0  0  0  0  0  0
  -21.1920  -29.9350   21.8420 H   0  0  0  0  0  0  0  0  0  0  0  0
  -18.6050  -28.1060   21.8090 C   0  0  0  0  0  0  0  0  0  0  0  0
  -21.7140  -27.8330   22.1650 C   0  0  0  0  0  2  0  0  0  0  0  0
  -22.4110  -26.7720   20.2230 C   0  0  0  0  0  2  0  0  0  0  0  0
  -20.0410  -26.6700   18.6310 C   0  0  0  0  0  1  0  0  0  0  0  0
  -18.4070  -27.2930   20.0760 C   0  0  0  0  0  1  0  0  0  0  0  0
  -19.9520  -28.3500   22.6090 C   0  0  0  0  0  0  0  0  0  0  0  0
  -19.8240  -29.3560   23.7040 C   0  0  0  0  0  3  0  0  0  0  0  0
  -18.6500  -29.9970   24.2140 C   0  0  0  0  0  3  0  0  0  0  0  0
  -17.4270  -29.6260   23.6490 C   0  0  0  0  0  3  0  0  0  0  0  0
  -17.4370  -28.7380   22.5040 C   0  0  0  0  0  3  0  0  0  0  0  0
  -25.9570  -32.2400   24.0400 C   0  0  0  0  0  3  0  0  0  0  0  0
  -25.8150  -33.6320   24.4710 N   0  0  0  0  0  0  0  0  0  0  0  0
  -26.3050  -34.6810   23.7990 C   0  0  0  0  0  0  0  0  0  0  0  0
  -27.0130  -34.5620   22.7960 O   0  0  0  0  0  0  0  0  0  0  0  0
  -25.2030  -33.8050   25.2550 H   0  0  0  0  0  0  0  0  0  0  0  0
  -24.8210  -36.6900   23.4960 C   0  0  0  0  0  1  0  0  0  0  0  0
  -25.9580  -36.0820   24.3340 C   0  0  0  0  0  3  0  0  0  0  0  0
  -28.1530  -36.6010   25.2990 C   0  0  0  0  0  1  0  0  0  0  0  0
  -27.1150  -37.0020   24.3530 N   0  0  0  0  0  0  0  0  0  0  0  0
  -26.8210  -37.9460   24.5850 H   0  0  0  0  0  0  0  0  0  0  0  0
  -26.1590  -31.2800   25.2750 C   0  0  1  0  0  0  0  0  0  0  0  0
  -24.8650  -31.0130   26.0780 C   0  0  0  0  0  1  0  0  0  0  0  0
  -26.7280  -29.9090   24.8400 C   0  0  0  0  0  1  0  0  0  0  0  0
  -27.2050  -31.8930   26.2320 C   0  0  0  0  0  1  0  0  0  0  0  0
  -27.4200  -20.0280   19.9700 C   0  0  0  0  0 15  0  0  0  0  0  0
  -30.5210  -17.8530   20.0360 C   0  0  0  0  0  0  0  0  0  0  0  0
  -31.8940  -15.3600   19.6210 C   0  0  0  0  0  2  0  0  0  0  0  0
  -31.4670  -14.3020   18.5230 C   0  0  0  0  0  2  0  0  0  0  0  0
  -30.1320  -13.6440   18.8870 C   0  0  0  0  0  2  0  0  0  0  0  0
  -29.2730  -14.7100   19.5810 C   0  0  0  0  0  3  0  0  0  0  0  0
  -29.9280  -15.3810   20.7810 C   0  0  0  0  0  2  0  0  0  0  0  0
  -30.7370  -16.3520   20.1160 N   0  0  0  0  0  0  0  0  0  0  0  0
  -31.7790  -18.0820   19.8720 O   0  0  0  0  0  0  0  0  0  0  0  0
  -29.2450  -19.0730   20.0650 N   0  0  0  0  0  2  0  0  0  0  0  0
  -29.8520  -19.8820   20.0640 H   0  0  0  0  0  0  0  0  0  0  0  0
  -26.9550  -15.1860   20.2760 C   0  0  0  0  0  0  0  0  0  0  0  0
  -25.9360  -14.3740   20.6480 C   0  0  0  0  0  0  0  0  0  0  0  0
  -26.4570  -13.0430   20.6220 C   0  0  0  0  0  0  0  0  0  0  0  0
  -27.9910  -14.3240   20.0020 N   0  0  0  0  0  0  0  0  0  0  0  0
  -27.7370  -13.0380   20.2990 N   0  0  0  0  0  0  0  0  0  0  0  0
  -25.7940  -11.7600   20.8010 C   0  0  0  0  0  0  0  0  0  0  0  0
  -26.0590  -10.9400   21.9180 C   0  0  0  0  0  3  0  0  0  0  0  0
  -25.3860   -9.7110   22.0660 C   0  0  0  0  0  3  0  0  0  0  0  0
  -24.4410   -9.3020   21.0940 C   0  0  0  0  0  0  0  0  0  0  0  0
  -24.2050  -10.1130   19.9720 C   0  0  0  0  0  3  0  0  0  0  0  0
  -24.8800  -11.3320   19.8210 C   0  0  0  0  0  3  0  0  0  0  0  0
  -23.7510   -8.1180   21.1440 O   0  0  0  0  0  0  0  0  0  0  0  0
  -23.0800   -7.7280   22.2730 C   0  0  0  0  0  0  0  0  0  0  0  0
  -22.0960   -8.5430   22.8750 C   0  0  0  0  0  3  0  0  0  0  0  0
  -21.3820   -8.0700   23.9930 C   0  0  0  0  0  3  0  0  0  0  0  0
  -21.6430   -6.7840   24.5040 C   0  0  0  0  0  0  0  0  0  0  0  0
  -22.6200   -5.9720   23.9030 C   0  0  0  0  0  3  0  0  0  0  0  0
  -23.3350   -6.4420   22.7880 C   0  0  0  0  0  0  0  0  0  0  0  0
  -24.2620   -5.6490   22.1990 F   0  0  0  0  0  0  0  0  0  0  0  0
  -20.9500   -6.3260   25.5720 F   0  0  0  0  0  0  0  0  0  0  0  0
  -24.5310  -14.8120   20.9050 C   0  0  0  0  0  0  0  0  0  0  0  0
  -23.8390  -14.1300   21.8070 N   0  0  0  0  0  0  0  0  0  0  0  0
  -24.0600  -15.7960   20.3370 O   0  0  0  0  0  0  0  0  0  0  0  0
  -24.2390  -13.3370   22.2840 H   0  0  0  0  0  0  0  0  0  0  0  0
  -22.8920  -14.4060   22.0260 H   0  0  0  0  0  0  0  0  0  0  0  0
  -27.0860  -16.5670   20.1260 N   0  0  0  0  0  0  0  0  0  0  0  0
  -26.2900  -17.1840   20.2390 H   0  0  0  0  0  0  0  0  0  0  0  0
  -27.9120  -17.0410   19.7860 H   0  0  0  0  0  0  0  0  0  0  0  0
  2  1  1  0
  3  4  2  0
  3  6  1  0
  4  5  1  0
  5  1  2  0
  6  2  2  0
  7 11  1  0
  7  4  1  0
  7  8  1  0
  7 10  1  0
  8 33  1  0
  8 10  1  0
  9 33  1  0
 10  5  1  0
 12 13  1  0
 15 26  2  0
 16 14  1  0
 16 21  1  0
 17 27  1  0
 17 25  1  0
 18 23  1  0
 18 24  1  0
 18 20  1  0
 19 25  1  0
 20 21  1  0
 20 19  1  0
 22 23  1  0
 22 16  1  0
 24 17  1  0
 25 15  1  0
 27 28  1  0
 27 29  2  0
 28 32  1  0
 30 28  1  0
 31 40  2  0
 31 36  1  0
 32 36  1  0
 34  9  1  0
 35 31  1  0
 36 37  2  0
 37 38  1  0
 39 38  2  0
 40 39  1  0
 41 15  1  0
 41 42  1  0
 41 51  1  0
 42 45  1  0
 43 47  1  0
 43 42  1  0
 44 43  2  0
 47 46  1  0
 47 49  1  0
 49 50  1  0
 49 48  1  0
 51 52  1  1
 51 54  1  0
 53 51  1  0
 56 64  1  0
 56 62  1  0
 57 62  1  0
 58 59  1  0
 58 57  1  0
 60 59  1  0
 60 69  1  0
 60 61  1  0
 62 61  1  0
 63 56  2  0
 65 64  1  0
 66 67  2  0
 67 86  1  0
 68 67  1  0
 68 71  1  0
 69 66  1  0
 69 70  1  0
 70 68  2  0
 71 72  1  0
 72 73  2  0
 74 77  1  0
 74 73  1  0
 75 74  2  0
 76 75  1  0
 76 71  2  0
 77 78  1  0
 78 83  2  0
 78 79  1  0
 79 80  2  0
 80 81  1  0
 81 85  1  0
 82 81  2  0
 83 82  1  0
 84 83  1  0
 86 87  1  0
 87 90  1  0
 87 89  1  0
 88 86  2  0
 91 92  1  0
 91 66  1  0
 93 91  1  0
M  ISO  4  13 101  14 101  56 100  64 100
M  END
>  <TORSDO>  (64) 
F 18

>  <SCORE>  (64) 
-0.250

>  <name>  (64) 
63

>  <ligand_id>  (64) 
63

>  <original_smiles>  (64) 
[H]C(=C1C(=O)c2c([H])c(C([H])([H])N([H])C(=O)N3C([H])([H])C([H])([H])C([H])([H])C([H])(n4nc(-c5c([H])c([H])c(Oc6c([H])c([H])c(F)c([H])c6F)c([H])c5[H])c(C(=O)N([H])[H])c4N([H])[H])C3([H])[H])c([H])c([H])c2C1([H])[H])C([H])(Oc1c([H])c([H])c2c(c1[H])C([H])([H])N(C(=O)C([H])(N([H])C(=O)C([H])(N([H])C([H])([H])[H])C([H])([H])[H])C(C([H])([H])[H])(C([H])([H])[H])C([H])([H])[H])C([H])(C(=O)N([H])C1([H])c3c([H])c([H])c([H])c([H])c3C([H])([H])C([H])([H])C1([H])[H])C2([H])[H])C([H])([H])[H]

>  <smiles>  (64) 
[H]C(=C1C(=O)c2c([H])c(C([H])([H])N([H])C(=O)N3C([H])([H])C([H])([H])C([H])([H])C([H])(n4nc(-c5c([H])c([H])c(Oc6c([H])c([H])c(F)c([H])c6F)c([H])c5[H])c(C(=O)N([H])[H])c4N([H])[H])C3([H])[H])c([H])c([H])c2C1([H])[H])C([H])(Oc1c([H])c([H])c2c(c1[H])C([H])([H])N(C(=O)C([H])(N([H])C(=O)C([H])(N([H])C([H])([H])[H])C([H])([H])[H])C(C([H])([H])[H])(C([H])([H])[H])C([H])([H])[H])C([H])(C(=O)N([H])C1([H])c3c([H])c([H])c([H])c([H])c3C([H])([H])C([H])([H])C1([H])[H])C2([H])[H])C([H])([H])[H]

$$$$
64:0:0
     RDKit          3D

 93103  0  0  1  0  0  0  0  0999 V2000
  -27.4000  -21.2010   19.0910 C   0  0  0  0  0  0  0  0  0  0  0  0
  -26.7650  -22.4270   18.9700 C   0  0  0  0  0  3  0  0  0  0  0  0
  -28.6800  -21.0900   19.6830 C   0  0  0  0  0  0  0  0  0  0  0  0
  -28.4340  -23.5530   20.0270 C   0  0  0  0  0  0  0  0  0  0  0  0
  -26.4990  -20.0980   18.5780 C   0  0  0  0  0  3  0  0  0  0  0  0
  -25.3850  -22.3170   18.3790 C   0  0  0  0  0  3  0  0  0  0  0  0
  -25.2320  -20.8140   18.0620 C   0  0  0  0  0  3  0  0  0  0  0  0
  -27.2660  -23.5890   19.3920 N   0  0  0  0  0  0  0  0  0  0  0  0
  -29.1480  -22.3370   20.1910 N   0  0  0  0  0  0  0  0  0  0  0  0
  -30.9500  -15.1250   19.7140 C   0  0  0  0  0  0  0  0  0  0  0  0
  -30.6170  -12.7520   18.8960 C   0  0  0  0  0  2  0  0  0  0  0  0
  -29.6250  -12.6260   17.7100 C   0  0  0  0  0  2  0  0  0  0  0  0
  -28.1590  -12.9140   18.1120 C   0  0  0  0  0  2  0  0  0  0  0  0
  -27.9840  -12.9770   19.6360 C   0  0  0  0  0  3  0  0  0  0  0  0
  -29.0170  -13.7010   20.4990 C   0  0  0  0  0  2  0  0  0  0  0  0
  -30.2370  -13.9380   19.7250 N   0  0  0  0  0  0  0  0  0  0  0  0
  -32.1310  -15.0570   19.3570 O   0  0  0  0  0  0  0  0  0  0  0  0
  -30.4170  -18.9710   18.7610 C   0  0  0  0  0  3  0  0  0  0  0  0
  -29.5240  -18.7040   21.0380 C   0  0  0  0  0  3  0  0  0  0  0  0
  -30.4000  -17.3590   18.5690 C   0  0  0  0  0  2  0  0  0  0  0  0
  -30.2580  -17.2510   20.9960 C   0  0  0  0  0  3  0  0  0  0  0  0
  -29.3360  -19.5500   19.7250 C   0  0  0  0  0  0  0  0  0  0  0  0
  -30.3060  -16.4060   19.7490 N   0  0  0  0  0  0  0  0  0  0  0  0
  -25.6520  -13.9720   20.4100 C   0  0  0  0  0  0  0  0  0  0  0  0
  -24.5470  -13.2620   20.8230 C   0  0  0  0  0  0  0  0  0  0  0  0
  -24.9030  -11.8860   20.7090 C   0  0  0  0  0  0  0  0  0  0  0  0
  -26.6120  -12.9980   20.1150 N   0  0  0  0  0  0  0  0  0  0  0  0
  -26.1370  -11.7590   20.3100 N   0  0  0  0  0  0  0  0  0  0  0  0
  -24.1560  -10.6500   20.8940 C   0  0  0  0  0  0  0  0  0  0  0  0
  -24.5880   -9.6720   21.8170 C   0  0  0  0  0  3  0  0  0  0  0  0
  -23.8560   -8.4800   21.9800 C   0  0  0  0  0  3  0  0  0  0  0  0
  -22.6830   -8.2670   21.2140 C   0  0  0  0  0  0  0  0  0  0  0  0
  -22.2790   -9.2330   20.2760 C   0  0  0  0  0  3  0  0  0  0  0  0
  -23.0110  -10.4170   20.1120 C   0  0  0  0  0  3  0  0  0  0  0  0
  -21.9140   -7.1340   21.2910 O   0  0  0  0  0  0  0  0  0  0  0  0
  -21.7720   -6.4480   22.4700 C   0  0  0  0  0  0  0  0  0  0  0  0
  -21.2080   -7.0440   23.6190 C   0  0  0  0  0  3  0  0  0  0  0  0
  -21.0130   -6.2750   24.7830 C   0  0  0  0  0  3  0  0  0  0  0  0
  -21.3760   -4.9160   24.7990 C   0  0  0  0  0  0  0  0  0  0  0  0
  -21.9370   -4.3220   23.6540 C   0  0  0  0  0  3  0  0  0  0  0  0
  -22.1320   -5.0880   22.4910 C   0  0  0  0  0  0  0  0  0  0  0  0
  -22.6530   -4.5070   21.3840 F   0  0  0  0  0  0  0  0  0  0  0  0
  -21.1800   -4.1740   25.9140 F   0  0  0  0  0  0  0  0  0  0  0  0
  -23.2010  -13.7930   21.2260 C   0  0  0  0  0  0  0  0  0  0  0  0
  -22.5070  -13.0820   22.1120 N   0  0  0  0  0  0  0  0  0  0  0  0
  -22.7660  -14.8530   20.7840 O   0  0  0  0  0  0  0  0  0  0  0  0
  -22.8640  -12.2190   22.4910 H   0  0  0  0  0  0  0  0  0  0  0  0
  -21.5980  -13.4070   22.4090 H   0  0  0  0  0  0  0  0  0  0  0  0
  -25.9110  -15.3320   20.2680 N   0  0  0  0  0  0  0  0  0  0  0  0
  -25.2160  -16.0510   20.4410 H   0  0  0  0  0  0  0  0  0  0  0  0
  -26.7840  -15.6990   19.9120 H   0  0  0  0  0  0  0  0  0  0  0  0
  -28.7280  -24.9710   20.7970 C   0  0  0  0  0  2  0  0  0  0  0  0
  -28.5560  -26.4200   20.2720 O   0  0  0  0  0  0  0  0  0  0  0  0
  -24.5980  -31.9050   23.2620 C   0  0  0  0  0  0  0  0  0  0  0  0
  -27.4100  -27.2760   20.3480 C   0  0  0  0  0  0  0  0  0  0  0  0
  -23.5000  -30.4920   21.5640 C   0  0  0  0  0  3  0  0  0  0  0  0
  -25.0410  -28.9440   20.2140 C   0  0  0  0  0  0  0  0  0  0  0  0
  -26.0510  -30.8190   21.5110 C   0  0  0  0  0  2  0  0  0  0  0  0
  -26.1820  -29.4260   20.8700 C   0  0  0  0  0  0  0  0  0  0  0  0
  -27.3720  -28.6130   20.9070 C   0  0  0  0  0  3  0  0  0  0  0  0
  -26.2400  -26.8740   19.6710 C   0  0  0  0  0  3  0  0  0  0  0  0
  -25.0830  -27.6810   19.6000 C   0  0  0  0  0  3  0  0  0  0  0  0
  -23.7950  -29.8160   20.1970 C   0  0  0  0  0  2  0  0  0  0  0  0
  -24.7340  -31.0930   22.1700 N   0  0  0  0  0  0  0  0  0  0  0  0
  -23.4840  -32.1680   23.7400 O   0  0  0  0  0  0  0  0  0  0  0  0
  -22.7980  -29.4710   22.4920 C   0  0  0  0  0  0  0  0  0  0  0  0
  -21.4760  -29.2970   22.3210 N   0  0  0  0  0  0  0  0  0  0  0  0
  -23.4470  -28.8360   23.3280 O   0  0  0  0  0  0  0  0  0  0  0  0
  -21.0120  -29.8600   21.6220 H   0  0  0  0  0  0  0  0  0  0  0  0
  -18.0690  -28.1440   22.7580 C   0  0  0  0  0  0  0  0  0  0  0  0
  -20.6310  -28.3480   23.0510 C   0  0  0  0  0  3  0  0  0  0  0  0
  -20.7120  -26.9380   22.4230 C   0  0  0  0  0  2  0  0  0  0  0  0
  -19.6110  -26.6740   21.3900 C   0  0  0  0  0  2  0  0  0  0  0  0
  -18.2270  -26.8190   22.0310 C   0  0  0  0  0  2  0  0  0  0  0  0
  -19.1990  -28.8700   23.2220 C   0  0  0  0  0  0  0  0  0  0  0  0
  -18.9970  -30.1120   23.8630 C   0  0  0  0  0  3  0  0  0  0  0  0
  -17.7000  -30.6280   24.0440 C   0  0  0  0  0  3  0  0  0  0  0  0
  -16.5850  -29.8980   23.5960 C   0  0  0  0  0  3  0  0  0  0  0  0
  -16.7710  -28.6580   22.9590 C   0  0  0  0  0  3  0  0  0  0  0  0
  -25.8330  -32.5620   23.9530 C   0  0  0  0  0  3  0  0  0  0  0  0
  -25.5000  -33.9680   24.2270 N   0  0  0  0  0  0  0  0  0  0  0  0
  -25.8610  -35.0040   23.4570 C   0  0  0  0  0  0  0  0  0  0  0  0
  -26.5760  -34.8750   22.4590 O   0  0  0  0  0  0  0  0  0  0  0  0
  -24.8720  -34.1410   24.9980 H   0  0  0  0  0  0  0  0  0  0  0  0
  -24.1330  -36.7740   22.9950 C   0  0  0  0  0  1  0  0  0  0  0  0
  -25.3510  -36.4040   23.8550 C   0  0  0  0  0  3  0  0  0  0  0  0
  -27.4460  -37.3410   24.7340 C   0  0  0  0  0  1  0  0  0  0  0  0
  -26.3810  -37.4610   23.7390 N   0  0  0  0  0  0  0  0  0  0  0  0
  -25.9630  -38.3820   23.8330 H   0  0  0  0  0  0  0  0  0  0  0  0
  -26.2620  -31.8300   25.2840 C   0  0  1  0  0  0  0  0  0  0  0  0
  -25.0940  -31.5970   26.2710 C   0  0  0  0  0  1  0  0  0  0  0  0
  -26.8960  -30.4540   24.9730 C   0  0  0  0  0  1  0  0  0  0  0  0
  -27.3450  -32.6590   26.0140 C   0  0  0  0  0  1  0  0  0  0  0  0
  1  3  1  0
  2  6  1  0
  2  1  1  0
  2  8  1  0
  3 22  1  0
  3  9  2  0
  4  9  1  0
  4 52  1  0
  5  1  2  0
  7  6  2  0
  7  5  1  0
  8  4  2  0
 10 16  1  0
 10 23  1  0
 11 16  1  0
 12 13  1  0
 12 11  1  0
 14 13  1  0
 14 27  1  0
 14 15  1  0
 16 15  1  0
 17 10  2  0
 18 22  2  0
 20 18  1  0
 20 23  1  0
 21 19  2  0
 22 19  1  0
 23 21  1  0
 24 25  2  0
 25 44  1  0
 26 25  1  0
 26 29  1  0
 27 28  1  0
 27 24  1  0
 28 26  2  0
 29 30  1  0
 30 31  2  0
 32 35  1  0
 32 31  1  0
 33 32  2  0
 34 33  1  0
 34 29  2  0
 35 36  1  0
 36 41  2  0
 36 37  1  0
 37 38  2  0
 38 39  1  0
 39 43  1  0
 40 39  2  0
 41 40  1  0
 42 41  1  0
 44 45  1  0
 45 48  1  0
 45 47  1  0
 46 44  2  0
 49 24  1  0
 49 50  1  0
 51 49  1  0
 53 55  1  0
 53 52  1  0
 54 65  2  0
 55 60  1  0
 56 64  1  0
 56 66  1  0
 57 59  1  0
 58 64  1  0
 59 60  2  0
 59 58  1  0
 61 55  2  0
 62 61  1  0
 62 57  2  0
 63 57  1  0
 63 56  1  0
 64 54  1  0
 66 68  2  0
 67 66  1  0
 69 67  1  0
 70 79  2  0
 70 75  1  0
 71 67  1  0
 71 75  1  0
 72 71  1  0
 73 74  1  0
 73 72  1  0
 74 70  1  0
 75 76  2  0
 76 77  1  0
 78 77  2  0
 79 78  1  0
 80 54  1  0
 80 81  1  0
 80 90  1  0
 81 84  1  0
 82 86  1  0
 82 81  1  0
 83 82  2  0
 86 85  1  0
 88 89  1  0
 88 86  1  0
 88 87  1  0
 90 93  1  1
 90 91  1  0
 92 90  1  0
M  ISO  4  10 100  23 100  52 101  53 101
M  END
>  <TORSDO>  (65) 
F 17

>  <SCORE>  (65) 
-14.847

>  <name>  (65) 
64

>  <ligand_id>  (65) 
64

>  <original_smiles>  (65) 
[H]c1c([H])c([H])c2c(c1[H])C([H])([H])C([H])([H])C([H])([H])C2([H])N([H])C(=O)C1([H])N(C(=O)C([H])(N([H])C(=O)C([H])(N([H])C([H])([H])[H])C([H])([H])[H])C(C([H])([H])[H])(C([H])([H])[H])C([H])([H])[H])C([H])([H])c2c([H])c(OC([H])([H])c3nc4c(c(C5([H])C([H])([H])C([H])([H])N(C(=O)N6C([H])([H])C([H])([H])C([H])([H])C([H])(n7nc(-c8c([H])c([H])c(Oc9c([H])c([H])c(F)c([H])c9F)c([H])c8[H])c(C(=O)N([H])[H])c7N([H])[H])C6([H])[H])C([H])([H])C5([H])[H])n3)C([H])([H])C([H])([H])C4([H])[H])c([H])c([H])c2C1([H])[H]

>  <smiles>  (65) 
[H]c1c([H])c([H])c2c(c1[H])C([H])([H])C([H])([H])C([H])([H])C2([H])N([H])C(=O)C1([H])N(C(=O)C([H])(N([H])C(=O)C([H])(N([H])C([H])([H])[H])C([H])([H])[H])C(C([H])([H])[H])(C([H])([H])[H])C([H])([H])[H])C([H])([H])c2c([H])c(OC([H])([H])c3nc4c(c(C5([H])C([H])([H])C([H])([H])N(C(=O)N6C([H])([H])C([H])([H])C([H])([H])C([H])(n7nc(-c8c([H])c([H])c(Oc9c([H])c([H])c(F)c([H])c9F)c([H])c8[H])c(C(=O)N([H])[H])c7N([H])[H])C6([H])[H])C([H])([H])C5([H])[H])n3)C([H])([H])C([H])([H])C4([H])[H])c([H])c([H])c2C1([H])[H]

$$$$
65:0:0
     RDKit          3D

 92101  0  0  1  0  0  0  0  0999 V2000
  -27.0320  -23.5630   20.6440 C   0  0  0  0  0  2  0  0  0  0  0  0
  -27.3280  -21.9860   20.5610 C   0  0  0  0  0  2  0  0  0  0  0  0
  -28.1190  -24.4170   19.9270 C   0  0  0  0  0  3  0  0  0  0  0  0
  -29.2580  -23.1500   20.0790 C   0  0  0  0  0  3  0  0  0  0  0  0
  -28.6430  -21.6860   19.9110 N   0  0  1  0  0  4  0  0  0  0  0  0
  -28.4060  -21.6250   18.9320 H   0  0  0  0  0  0  0  0  0  0  0  0
  -30.5960  -15.2890   19.8690 C   0  0  0  0  0  0  0  0  0  0  0  0
  -30.4180  -12.8930   18.9310 C   0  0  0  0  0  2  0  0  0  0  0  0
  -29.4150  -12.7080   17.7700 C   0  0  0  0  0  2  0  0  0  0  0  0
  -28.0100  -12.4280   18.3250 C   0  0  0  0  0  2  0  0  0  0  0  0
  -27.6380  -13.3850   19.4850 C   0  0  0  0  0  3  0  0  0  0  0  0
  -28.7640  -13.5390   20.5290 C   0  0  0  0  0  2  0  0  0  0  0  0
  -29.9420  -14.0330   19.7980 N   0  0  0  0  0  0  0  0  0  0  0  0
  -31.7960  -15.2040   19.5710 O   0  0  0  0  0  0  0  0  0  0  0  0
  -30.0730  -19.3700   19.0610 C   0  0  0  0  0  2  0  0  0  0  0  0
  -28.4380  -18.9000   20.6180 C   0  0  0  0  0  2  0  0  0  0  0  0
  -30.7380  -17.8720   19.3230 C   0  0  0  0  0  2  0  0  0  0  0  0
  -29.0360  -17.3480   20.8400 C   0  0  0  0  0  2  0  0  0  0  0  0
  -29.3340  -20.2040   20.2220 C   0  0  0  0  0  3  0  0  0  0  0  0
  -29.9850  -16.6430   19.8670 N   0  0  0  0  0  0  0  0  0  0  0  0
  -25.3300  -13.9090   20.4290 C   0  0  0  0  0  0  0  0  0  0  0  0
  -24.3000  -13.1140   20.8480 C   0  0  0  0  0  0  0  0  0  0  0  0
  -24.7660  -11.7680   20.7380 C   0  0  0  0  0  0  0  0  0  0  0  0
  -26.3550  -13.0470   20.0850 N   0  0  0  0  0  0  0  0  0  0  0  0
  -26.0330  -11.7520   20.3360 N   0  0  0  0  0  0  0  0  0  0  0  0
  -24.0570  -10.4960   20.9340 C   0  0  0  0  0  0  0  0  0  0  0  0
  -24.5150   -9.5300   21.8560 C   0  0  0  0  0  3  0  0  0  0  0  0
  -23.8040   -8.3250   22.0420 C   0  0  0  0  0  3  0  0  0  0  0  0
  -22.6200   -8.0780   21.3070 C   0  0  0  0  0  0  0  0  0  0  0  0
  -22.1820   -9.0330   20.3730 C   0  0  0  0  0  3  0  0  0  0  0  0
  -22.8930  -10.2290   20.1840 C   0  0  0  0  0  3  0  0  0  0  0  0
  -21.8760   -6.9260   21.4040 O   0  0  0  0  0  0  0  0  0  0  0  0
  -21.7940   -6.2190   22.5760 C   0  0  0  0  0  0  0  0  0  0  0  0
  -21.3150   -6.8060   23.7680 C   0  0  0  0  0  3  0  0  0  0  0  0
  -21.1830   -6.0250   24.9340 C   0  0  0  0  0  3  0  0  0  0  0  0
  -21.5190   -4.6570   24.9080 C   0  0  0  0  0  0  0  0  0  0  0  0
  -21.9910   -4.0700   23.7200 C   0  0  0  0  0  3  0  0  0  0  0  0
  -22.1260   -4.8500   22.5580 C   0  0  0  0  0  0  0  0  0  0  0  0
  -22.5610   -4.2740   21.4110 F   0  0  0  0  0  0  0  0  0  0  0  0
  -21.3850   -3.9030   26.0240 F   0  0  0  0  0  0  0  0  0  0  0  0
  -22.9240  -13.5750   21.2290 C   0  0  0  0  0  0  0  0  0  0  0  0
  -22.2600  -12.8500   22.1210 N   0  0  0  0  0  0  0  0  0  0  0  0
  -22.4500  -14.6150   20.7720 O   0  0  0  0  0  0  0  0  0  0  0  0
  -22.6570  -12.0050   22.5060 H   0  0  0  0  0  0  0  0  0  0  0  0
  -21.3420  -13.1410   22.4230 H   0  0  0  0  0  0  0  0  0  0  0  0
  -25.4780  -15.2840   20.2840 N   0  0  0  0  0  0  0  0  0  0  0  0
  -24.7140  -15.9300   20.4510 H   0  0  0  0  0  0  0  0  0  0  0  0
  -26.2980  -15.7320   19.8940 H   0  0  0  0  0  0  0  0  0  0  0  0
  -30.3530  -23.4010   17.7490 C   0  0  0  0  0  1  0  0  0  0  0  0
  -31.4000  -24.5150   19.7900 C   0  0  0  0  0  1  0  0  0  0  0  0
  -30.5660  -23.3260   19.2710 C   0  0  0  0  0  3  0  0  0  0  0  0
  -28.2240  -26.0110   20.2640 O   0  0  0  0  0  0  0  0  0  0  0  0
  -24.6750  -31.8860   23.2490 C   0  0  0  0  0  0  0  0  0  0  0  0
  -27.1940  -27.0720   20.1740 C   0  0  0  0  0  0  0  0  0  0  0  0
  -23.4650  -30.5110   21.6020 C   0  0  0  0  0  3  0  0  0  0  0  0
  -24.8950  -28.9220   20.1500 C   0  0  0  0  0  0  0  0  0  0  0  0
  -26.0240  -30.7320   21.4310 C   0  0  0  0  0  2  0  0  0  0  0  0
  -26.0840  -29.3330   20.7650 C   0  0  0  0  0  0  0  0  0  0  0  0
  -27.2280  -28.4240   20.7550 C   0  0  0  0  0  3  0  0  0  0  0  0
  -25.9770  -26.7990   19.5110 C   0  0  0  0  0  3  0  0  0  0  0  0
  -24.8610  -27.6730   19.5060 C   0  0  0  0  0  3  0  0  0  0  0  0
  -23.6780  -29.8410   20.2150 C   0  0  0  0  0  2  0  0  0  0  0  0
  -24.7440  -31.0670   22.1500 N   0  0  0  0  0  0  0  0  0  0  0  0
  -23.5900  -32.1720   23.7820 O   0  0  0  0  0  0  0  0  0  0  0  0
  -22.7760  -29.5070   22.5610 C   0  0  0  0  0  0  0  0  0  0  0  0
  -21.4450  -29.3440   22.4430 N   0  0  0  0  0  0  0  0  0  0  0  0
  -23.4460  -28.8750   23.3820 O   0  0  0  0  0  0  0  0  0  0  0  0
  -20.9510  -29.9080   21.7650 H   0  0  0  0  0  0  0  0  0  0  0  0
  -18.0670  -28.1270   22.9440 C   0  0  0  0  0  0  0  0  0  0  0  0
  -20.6250  -28.4010   23.2110 C   0  0  0  0  0  3  0  0  0  0  0  0
  -20.7310  -26.9700   22.6300 C   0  0  0  0  0  2  0  0  0  0  0  0
  -19.6300  -26.6480   21.6150 C   0  0  0  0  0  2  0  0  0  0  0  0
  -18.2470  -26.7850   22.2570 C   0  0  0  0  0  2  0  0  0  0  0  0
  -19.1810  -28.8930   23.3760 C   0  0  0  0  0  0  0  0  0  0  0  0
  -18.9500  -30.1500   23.9780 C   0  0  0  0  0  3  0  0  0  0  0  0
  -17.6420  -30.6410   24.1480 C   0  0  0  0  0  3  0  0  0  0  0  0
  -16.5420  -29.8730   23.7270 C   0  0  0  0  0  3  0  0  0  0  0  0
  -16.7560  -28.6170   23.1320 C   0  0  0  0  0  3  0  0  0  0  0  0
  -25.9530  -32.5140   23.8810 C   0  0  0  0  0  3  0  0  0  0  0  0
  -25.6530  -33.9160   24.2170 N   0  0  0  0  0  0  0  0  0  0  0  0
  -25.9780  -34.9730   23.4570 C   0  0  0  0  0  0  0  0  0  0  0  0
  -26.6210  -34.8720   22.4110 O   0  0  0  0  0  0  0  0  0  0  0  0
  -25.0860  -34.0730   25.0360 H   0  0  0  0  0  0  0  0  0  0  0  0
  -24.2400  -36.7690   23.1730 C   0  0  0  0  0  1  0  0  0  0  0  0
  -25.5110  -36.3630   23.9340 C   0  0  0  0  0  3  0  0  0  0  0  0
  -27.6760  -37.2500   24.6800 C   0  0  0  0  0  1  0  0  0  0  0  0
  -26.5400  -37.4140   23.7780 N   0  0  0  0  0  0  0  0  0  0  0  0
  -26.1370  -38.3330   23.9410 H   0  0  0  0  0  0  0  0  0  0  0  0
  -26.4570  -31.7440   25.1640 C   0  0  1  0  0  0  0  0  0  0  0  0
  -25.3580  -31.5240   26.2300 C   0  0  0  0  0  1  0  0  0  0  0  0
  -27.0250  -30.3590   24.7810 C   0  0  0  0  0  1  0  0  0  0  0  0
  -27.6140  -32.5290   25.8260 C   0  0  0  0  0  1  0  0  0  0  0  0
  2  1  1  0
  3  4  1  0
  3 52  1  0
  3  1  1  0
  4 51  1  0
  5  6  1  6
  5  4  1  0
  5 19  1  0
  5  2  1  0
  8 13  1  0
  9 10  1  0
  9  8  1  0
 11 10  1  0
 11 24  1  0
 11 12  1  0
 13  7  1  0
 13 12  1  0
 14  7  2  0
 15 17  1  0
 16 18  1  0
 17 20  1  0
 19 15  1  0
 19 16  1  0
 20  7  1  0
 20 18  1  0
 21 22  2  0
 22 41  1  0
 23 22  1  0
 23 26  1  0
 24 25  1  0
 24 21  1  0
 25 23  2  0
 26 27  1  0
 27 28  2  0
 29 32  1  0
 29 28  1  0
 30 29  2  0
 31 30  1  0
 31 26  2  0
 32 33  1  0
 33 34  1  0
 34 35  2  0
 36 35  1  0
 36 40  1  0
 37 36  2  0
 38 33  2  0
 38 37  1  0
 39 38  1  0
 41 42  1  0
 42 45  1  0
 42 44  1  0
 43 41  2  0
 46 21  1  0
 46 47  1  0
 48 46  1  0
 49 51  1  0
 51 50  1  0
 53 64  2  0
 54 52  1  0
 54 59  1  0
 55 63  1  0
 55 65  1  0
 56 62  1  0
 56 58  1  0
 57 63  1  0
 58 57  1  0
 59 58  2  0
 60 54  2  0
 61 60  1  0
 61 56  2  0
 62 55  1  0
 63 53  1  0
 65 67  2  0
 66 65  1  0
 68 66  1  0
 69 78  2  0
 69 74  1  0
 70 66  1  0
 70 74  1  0
 71 70  1  0
 72 73  1  0
 72 71  1  0
 73 69  1  0
 74 75  2  0
 75 76  1  0
 77 76  2  0
 78 77  1  0
 79 53  1  0
 79 80  1  0
 79 89  1  0
 80 83  1  0
 81 85  1  0
 81 80  1  0
 82 81  2  0
 85 84  1  0
 87 85  1  0
 87 88  1  0
 87 86  1  0
 89 92  1  1
 89 90  1  0
 91 89  1  0
M  ISO  4   3 101   7 100  20 100  52 101
M  END
>  <TORSDO>  (66) 
F 17

>  <SCORE>  (66) 
-14.778

>  <name>  (66) 
65

>  <ligand_id>  (66) 
65

>  <original_smiles>  (66) 
[H]c1c([H])c([H])c2c(c1[H])C([H])([H])C([H])([H])C([H])([H])C2([H])N([H])C(=O)C1([H])N(C(=O)C([H])(N([H])C(=O)C([H])(N([H])C([H])([H])[H])C([H])([H])[H])C(C([H])([H])[H])(C([H])([H])[H])C([H])([H])[H])C([H])([H])c2c([H])c(OC3([H])C([H])([H])C([H])([H])[N+]([H])(C4([H])C([H])([H])C([H])([H])N(C(=O)N5C([H])([H])C([H])([H])C([H])([H])C([H])(n6nc(-c7c([H])c([H])c(Oc8c([H])c([H])c(F)c([H])c8F)c([H])c7[H])c(C(=O)N([H])[H])c6N([H])[H])C5([H])[H])C([H])([H])C4([H])[H])C3([H])C([H])(C([H])([H])[H])C([H])([H])[H])c([H])c([H])c2C1([H])[H]

>  <smiles>  (66) 
[H]c1c([H])c([H])c2c(c1[H])C([H])([H])C([H])([H])C([H])([H])C2([H])N([H])C(=O)C1([H])N(C(=O)C([H])(N([H])C(=O)C([H])(N([H])C([H])([H])[H])C([H])([H])[H])C(C([H])([H])[H])(C([H])([H])[H])C([H])([H])[H])C([H])([H])c2c([H])c(OC3([H])C([H])([H])C([H])([H])[N+]([H])(C4([H])C([H])([H])C([H])([H])N(C(=O)N5C([H])([H])C([H])([H])C([H])([H])C([H])(n6nc(-c7c([H])c([H])c(Oc8c([H])c([H])c(F)c([H])c8F)c([H])c7[H])c(C(=O)N([H])[H])c6N([H])[H])C5([H])[H])C([H])([H])C4([H])[H])C3([H])C([H])(C([H])([H])[H])C([H])([H])[H])c([H])c([H])c2C1([H])[H]

$$$$
66:0:0
     RDKit          3D

 94103  0  0  1  0  0  0  0  0999 V2000
  -30.5670  -15.0840   20.3690 C   0  0  0  0  0  0  0  0  0  0  0  0
  -30.4640  -12.6760   19.5380 C   0  0  0  0  0  2  0  0  0  0  0  0
  -29.5620  -12.5580   18.2870 C   0  0  0  0  0  2  0  0  0  0  0  0
  -28.0900  -12.3640   18.6960 C   0  0  0  0  0  2  0  0  0  0  0  0
  -27.6550  -13.3460   19.8130 C   0  0  0  0  0  3  0  0  0  0  0  0
  -28.6820  -13.4250   20.9620 C   0  0  0  0  0  2  0  0  0  0  0  0
  -29.9630  -13.8200   20.3620 N   0  0  0  0  0  0  0  0  0  0  0  0
  -31.7820  -15.0910   20.1230 O   0  0  0  0  0  0  0  0  0  0  0  0
  -29.0720  -18.9110   20.3180 C   0  0  0  0  0  3  0  0  0  0  0  0
  -29.3750  -20.3670   20.1860 C   0  0  0  0  0  0  0  0  0  0  0  0
  -30.7470  -20.6580   20.0530 C   0  0  0  0  0  0  0  0  0  0  0  0
  -31.6710  -19.5710   20.0820 C   0  0  0  0  0  0  0  0  0  0  0  0
  -30.0740  -17.8100   20.3200 C   0  0  0  0  0  0  0  0  0  0  0  0
  -30.3210  -23.0680   19.3900 C   0  0  0  0  0  2  0  0  0  0  0  0
  -28.9800  -23.2280   20.1410 C   0  0  0  0  0  3  0  0  0  0  0  0
  -28.3540  -21.6570   20.1760 C   0  0  1  0  0  0  0  0  0  0  0  0
  -33.1600  -19.8430   19.9700 C   0  0  0  0  0  1  0  0  0  0  0  0
  -27.4490  -21.4880   18.9430 C   0  0  0  0  0  1  0  0  0  0  0  0
  -27.4720  -21.5520   21.4340 C   0  0  0  0  0  1  0  0  0  0  0  0
  -31.3520  -18.2490   20.2010 N   0  0  0  0  0  0  0  0  0  0  0  0
  -31.1940  -21.9960   19.9130 N   0  0  0  0  0  0  0  0  0  0  0  0
  -29.7910  -16.2920   20.4520 N   0  0  0  0  0  0  0  0  0  0  0  0
  -32.1950  -22.1370   19.7900 H   0  0  0  0  0  0  0  0  0  0  0  0
  -28.8150  -16.0900   20.6030 H   0  0  0  0  0  0  0  0  0  0  0  0
  -25.2760  -13.9690   20.5120 C   0  0  0  0  0  0  0  0  0  0  0  0
  -24.1930  -13.2160   20.8720 C   0  0  0  0  0  0  0  0  0  0  0  0
  -24.6340  -11.8570   20.8580 C   0  0  0  0  0  0  0  0  0  0  0  0
  -26.3050  -13.0710   20.2930 N   0  0  0  0  0  0  0  0  0  0  0  0
  -25.9290  -11.7960   20.5680 N   0  0  0  0  0  0  0  0  0  0  0  0
  -23.8800  -10.6090   21.0420 C   0  0  0  0  0  0  0  0  0  0  0  0
  -24.2940   -9.6260   21.9670 C   0  0  0  0  0  3  0  0  0  0  0  0
  -23.5400   -8.4450   22.1410 C   0  0  0  0  0  3  0  0  0  0  0  0
  -22.3580   -8.2390   21.3910 C   0  0  0  0  0  0  0  0  0  0  0  0
  -21.9630   -9.2120   20.4550 C   0  0  0  0  0  3  0  0  0  0  0  0
  -22.7180  -10.3840   20.2790 C   0  0  0  0  0  3  0  0  0  0  0  0
  -21.5770   -7.1120   21.4760 O   0  0  0  0  0  0  0  0  0  0  0  0
  -21.5350   -6.3490   22.6150 C   0  0  0  0  0  0  0  0  0  0  0  0
  -21.1620   -6.8940   23.8640 C   0  0  0  0  0  3  0  0  0  0  0  0
  -21.0660   -6.0600   24.9950 C   0  0  0  0  0  3  0  0  0  0  0  0
  -21.3310   -4.6820   24.8800 C   0  0  0  0  0  0  0  0  0  0  0  0
  -21.6970   -4.1370   23.6360 C   0  0  0  0  0  3  0  0  0  0  0  0
  -21.7960   -4.9690   22.5060 C   0  0  0  0  0  0  0  0  0  0  0  0
  -22.1280   -4.4340   21.3060 F   0  0  0  0  0  0  0  0  0  0  0  0
  -21.2310   -3.8780   25.9640 F   0  0  0  0  0  0  0  0  0  0  0  0
  -22.8010  -13.7200   21.1150 C   0  0  0  0  0  0  0  0  0  0  0  0
  -22.0470  -13.0520   21.9800 N   0  0  0  0  0  0  0  0  0  0  0  0
  -22.3900  -14.7450   20.5690 O   0  0  0  0  0  0  0  0  0  0  0  0
  -22.3930  -12.2240   22.4420 H   0  0  0  0  0  0  0  0  0  0  0  0
  -21.1110  -13.3730   22.1830 H   0  0  0  0  0  0  0  0  0  0  0  0
  -25.4650  -15.3350   20.3240 N   0  0  0  0  0  0  0  0  0  0  0  0
  -24.6970  -15.9950   20.4020 H   0  0  0  0  0  0  0  0  0  0  0  0
  -26.3030  -15.7510   19.9390 H   0  0  0  0  0  0  0  0  0  0  0  0
  -28.0970  -24.6290   19.6780 C   0  0  0  0  0  2  0  0  0  0  0  0
  -28.3630  -26.1690   19.8940 O   0  0  0  0  0  0  0  0  0  0  0  0
  -24.6550  -31.7350   23.0490 C   0  0  0  0  0  0  0  0  0  0  0  0
  -27.3040  -27.1610   19.8450 C   0  0  0  0  0  0  0  0  0  0  0  0
  -23.4770  -30.3800   21.3610 C   0  0  0  0  0  3  0  0  0  0  0  0
  -24.9490  -28.8860   19.8710 C   0  0  0  0  0  0  0  0  0  0  0  0
  -26.0260  -30.6960   21.1980 C   0  0  0  0  0  2  0  0  0  0  0  0
  -26.1240  -29.3270   20.4960 C   0  0  0  0  0  0  0  0  0  0  0  0
  -27.3020  -28.4820   20.4640 C   0  0  0  0  0  3  0  0  0  0  0  0
  -26.1030  -26.8380   19.1760 C   0  0  0  0  0  3  0  0  0  0  0  0
  -24.9550  -27.6590   19.1930 C   0  0  0  0  0  3  0  0  0  0  0  0
  -23.7060  -29.7600   19.9570 C   0  0  0  0  0  2  0  0  0  0  0  0
  -24.7390  -30.9580   21.9250 N   0  0  0  0  0  0  0  0  0  0  0  0
  -23.5650  -31.9770   23.5910 O   0  0  0  0  0  0  0  0  0  0  0  0
  -22.8190  -29.3250   22.2870 C   0  0  0  0  0  0  0  0  0  0  0  0
  -21.4870  -29.1640   22.1880 N   0  0  0  0  0  0  0  0  0  0  0  0
  -23.5110  -28.6540   23.0580 O   0  0  0  0  0  0  0  0  0  0  0  0
  -20.9840  -29.7570   21.5430 H   0  0  0  0  0  0  0  0  0  0  0  0
  -18.1100  -27.9830   22.7640 C   0  0  0  0  0  0  0  0  0  0  0  0
  -20.6830  -28.1900   22.9320 C   0  0  0  0  0  3  0  0  0  0  0  0
  -20.7330  -26.7980   22.2600 C   0  0  0  0  0  2  0  0  0  0  0  0
  -19.5830  -26.5640   21.2750 C   0  0  0  0  0  2  0  0  0  0  0  0
  -18.2330  -26.6820   21.9890 C   0  0  0  0  0  2  0  0  0  0  0  0
  -19.2600  -28.6990   23.1930 C   0  0  0  0  0  0  0  0  0  0  0  0
  -19.0870  -29.9190   23.8830 C   0  0  0  0  0  3  0  0  0  0  0  0
  -17.8000  -30.4230   24.1430 C   0  0  0  0  0  3  0  0  0  0  0  0
  -16.6650  -29.7040   23.7270 C   0  0  0  0  0  3  0  0  0  0  0  0
  -16.8220  -28.4860   23.0430 C   0  0  0  0  0  3  0  0  0  0  0  0
  -25.9220  -32.3720   23.6970 C   0  0  0  0  0  3  0  0  0  0  0  0
  -25.5830  -33.7510   24.0850 N   0  0  0  0  0  0  0  0  0  0  0  0
  -25.8700  -34.8420   23.3620 C   0  0  0  0  0  0  0  0  0  0  0  0
  -26.5150  -34.7930   22.3100 O   0  0  0  0  0  0  0  0  0  0  0  0
  -25.0050  -33.8600   24.9050 H   0  0  0  0  0  0  0  0  0  0  0  0
  -24.0770  -36.5950   23.1420 C   0  0  0  0  0  1  0  0  0  0  0  0
  -25.3640  -36.2010   23.8850 C   0  0  0  0  0  3  0  0  0  0  0  0
  -27.5050  -37.1280   24.6530 C   0  0  0  0  0  1  0  0  0  0  0  0
  -26.3620  -37.2870   23.7570 N   0  0  0  0  0  0  0  0  0  0  0  0
  -25.9370  -38.1920   23.9410 H   0  0  0  0  0  0  0  0  0  0  0  0
  -26.4490  -31.5650   24.9480 C   0  0  1  0  0  0  0  0  0  0  0  0
  -25.3600  -31.2790   26.0090 C   0  0  0  0  0  1  0  0  0  0  0  0
  -27.0480  -30.2080   24.5130 C   0  0  0  0  0  1  0  0  0  0  0  0
  -27.5910  -32.3500   25.6330 C   0  0  0  0  0  1  0  0  0  0  0  0
  1 22  1  0
  2  7  1  0
  3  4  1  0
  3  2  1  0
  5  4  1  0
  5 28  1  0
  5  6  1  0
  7  1  1  0
  7  6  1  0
  8  1  2  0
  9 13  1  0
 10  9  2  0
 11 12  2  0
 11 10  1  0
 12 20  1  0
 13 22  1  0
 14 21  1  0
 14 15  1  0
 15 53  1  0
 15 16  1  0
 16 10  1  0
 16 19  1  1
 17 12  1  0
 18 16  1  0
 20 13  2  0
 21 11  1  0
 22 24  1  0
 23 21  1  0
 25 26  2  0
 26 45  1  0
 27 26  1  0
 27 30  1  0
 28 25  1  0
 28 29  1  0
 29 27  2  0
 30 31  1  0
 31 32  2  0
 33 36  1  0
 33 32  1  0
 34 33  2  0
 35 34  1  0
 35 30  2  0
 36 37  1  0
 37 38  1  0
 38 39  2  0
 40 39  1  0
 40 44  1  0
 41 40  2  0
 42 37  2  0
 42 41  1  0
 43 42  1  0
 45 46  1  0
 46 49  1  0
 46 48  1  0
 47 45  2  0
 50 51  1  0
 50 25  1  0
 52 50  1  0
 53 54  1  0
 55 66  2  0
 56 54  1  0
 56 61  1  0
 57 65  1  0
 57 67  1  0
 58 64  1  0
 58 60  1  0
 59 65  1  0
 60 59  1  0
 61 60  2  0
 62 63  1  0
 62 56  2  0
 63 58  2  0
 64 57  1  0
 65 55  1  0
 67 69  2  0
 68 67  1  0
 70 68  1  0
 71 80  2  0
 71 76  1  0
 72 68  1  0
 72 76  1  0
 73 72  1  0
 74 75  1  0
 74 73  1  0
 75 71  1  0
 76 77  2  0
 77 78  1  0
 79 78  2  0
 80 79  1  0
 81 55  1  0
 81 82  1  0
 81 91  1  0
 82 85  1  0
 83 87  1  0
 83 82  1  0
 84 83  2  0
 87 86  1  0
 89 87  1  0
 89 90  1  0
 89 88  1  0
 91 94  1  1
 91 92  1  0
 93 91  1  0
M  ISO  4   1 100  22 100  53 101  54 101
M  END
>  <TORSDO>  (67) 
F 16

>  <SCORE>  (67) 
-15.687

>  <name>  (67) 
66

>  <ligand_id>  (67) 
66

>  <original_smiles>  (67) 
[H]c1c([H])c([H])c2c(c1[H])C([H])([H])C([H])([H])C([H])([H])C2([H])N([H])C(=O)C1([H])N(C(=O)C([H])(N([H])C(=O)C([H])(N([H])C([H])([H])[H])C([H])([H])[H])C(C([H])([H])[H])(C([H])([H])[H])C([H])([H])[H])C([H])([H])c2c([H])c(OC([H])([H])C3([H])C([H])([H])N([H])c4c(C([H])([H])[H])nc(N([H])C(=O)N5C([H])([H])C([H])([H])C([H])([H])C([H])(n6nc(-c7c([H])c([H])c(Oc8c([H])c([H])c(F)c([H])c8F)c([H])c7[H])c(C(=O)N([H])[H])c6N([H])[H])C5([H])[H])c([H])c4C3(C([H])([H])[H])C([H])([H])[H])c([H])c([H])c2C1([H])[H]

>  <smiles>  (67) 
[H]c1c([H])c([H])c2c(c1[H])C([H])([H])C([H])([H])C([H])([H])C2([H])N([H])C(=O)C1([H])N(C(=O)C([H])(N([H])C(=O)C([H])(N([H])C([H])([H])[H])C([H])([H])[H])C(C([H])([H])[H])(C([H])([H])[H])C([H])([H])[H])C([H])([H])c2c([H])c(OC([H])([H])C3([H])C([H])([H])N([H])c4c(C([H])([H])[H])nc(N([H])C(=O)N5C([H])([H])C([H])([H])C([H])([H])C([H])(n6nc(-c7c([H])c([H])c(Oc8c([H])c([H])c(F)c([H])c8F)c([H])c7[H])c(C(=O)N([H])[H])c6N([H])[H])C5([H])[H])c([H])c4C3(C([H])([H])[H])C([H])([H])[H])c([H])c([H])c2C1([H])[H]

$$$$
67:0:0
     RDKit          3D

 94103  0  0  1  0  0  0  0  0999 V2000
  -28.0350  -22.9410   19.6750 C   0  0  0  0  0  2  0  0  0  0  0  0
  -28.9400  -24.1000   19.1710 C   0  0  0  0  0  3  0  0  0  0  0  0
  -29.2140  -21.9640   19.3570 C   0  0  0  0  0  3  0  0  0  0  0  0
  -30.1410  -23.2100   19.6680 C   0  0  1  0  0  0  0  0  0  0  0  0
  -31.4110  -23.3120   18.8210 C   0  0  0  0  0  1  0  0  0  0  0  0
  -30.5870  -23.4100   21.1200 C   0  0  0  0  0  1  0  0  0  0  0  0
  -28.2090  -19.7610   20.0970 C   0  0  0  0  0  3  0  0  0  0  0  0
  -30.4050  -19.6830   19.8660 C   0  0  0  0  0  3  0  0  0  0  0  0
  -28.5990  -18.4630   20.3400 C   0  0  0  0  0  0  0  0  0  0  0  0
  -30.0210  -18.3740   20.1690 C   0  0  0  0  0  0  0  0  0  0  0  0
  -27.6590  -17.3530   20.7490 C   0  0  0  0  0  1  0  0  0  0  0  0
  -29.3020  -20.5570   19.8230 N   0  0  0  0  0  0  0  0  0  0  0  0
  -32.3890  -17.3340   20.0110 C   0  0  0  0  0  1  0  0  0  0  0  0
  -30.9160  -17.0990   20.4230 C   0  0  0  0  0  0  0  0  0  0  0  0
  -31.0030  -14.5510   19.7170 C   0  0  0  0  0  0  0  0  0  0  0  0
  -30.6520  -12.2250   18.8910 C   0  0  0  0  0  2  0  0  0  0  0  0
  -29.6730  -12.2130   17.7040 C   0  0  0  0  0  2  0  0  0  0  0  0
  -28.2230  -12.1110   18.2130 C   0  0  0  0  0  2  0  0  0  0  0  0
  -27.9090  -13.1400   19.3320 C   0  0  0  0  0  3  0  0  0  0  0  0
  -29.0040  -13.1420   20.4180 C   0  0  0  0  0  2  0  0  0  0  0  0
  -30.2960  -13.3740   19.7510 N   0  0  0  0  0  0  0  0  0  0  0  0
  -32.1260  -14.5800   19.2100 O   0  0  0  0  0  0  0  0  0  0  0  0
  -30.3800  -15.7040   20.1410 N   0  0  0  0  0  4  0  0  0  0  0  0
  -29.4240  -15.5630   20.4300 H   0  0  0  0  0  0  0  0  0  0  0  0
  -25.5970  -13.8530   20.1950 C   0  0  0  0  0  0  0  0  0  0  0  0
  -24.5260  -13.1330   20.6430 C   0  0  0  0  0  0  0  0  0  0  0  0
  -24.9220  -11.7600   20.5940 C   0  0  0  0  0  0  0  0  0  0  0  0
  -26.5820  -12.9250   19.8990 N   0  0  0  0  0  0  0  0  0  0  0  0
  -26.1860  -11.6630   20.2030 N   0  0  0  0  0  0  0  0  0  0  0  0
  -24.1490  -10.5340   20.8390 C   0  0  0  0  0  0  0  0  0  0  0  0
  -24.5510   -9.5850   21.8050 C   0  0  0  0  0  3  0  0  0  0  0  0
  -23.7780   -8.4260   22.0370 C   0  0  0  0  0  3  0  0  0  0  0  0
  -22.5870   -8.2090   21.3040 C   0  0  0  0  0  0  0  0  0  0  0  0
  -22.2010   -9.1460   20.3300 C   0  0  0  0  0  3  0  0  0  0  0  0
  -22.9760  -10.2950   20.0960 C   0  0  0  0  0  3  0  0  0  0  0  0
  -21.7870   -7.1000   21.4470 O   0  0  0  0  0  0  0  0  0  0  0  0
  -21.6790   -6.4410   22.6440 C   0  0  0  0  0  0  0  0  0  0  0  0
  -21.2410   -7.0920   23.8180 C   0  0  0  0  0  3  0  0  0  0  0  0
  -21.0760   -6.3600   25.0110 C   0  0  0  0  0  3  0  0  0  0  0  0
  -21.3400   -4.9770   25.0310 C   0  0  0  0  0  0  0  0  0  0  0  0
  -21.7660   -4.3250   23.8620 C   0  0  0  0  0  3  0  0  0  0  0  0
  -21.9340   -5.0530   22.6720 C   0  0  0  0  0  0  0  0  0  0  0  0
  -22.3270   -4.4170   21.5430 F   0  0  0  0  0  0  0  0  0  0  0  0
  -21.1730   -4.2730   26.1750 F   0  0  0  0  0  0  0  0  0  0  0  0
  -23.1700  -13.6730   21.0040 C   0  0  0  0  0  0  0  0  0  0  0  0
  -22.4740  -13.0270   21.9330 N   0  0  0  0  0  0  0  0  0  0  0  0
  -22.7380  -14.7060   20.4920 O   0  0  0  0  0  0  0  0  0  0  0  0
  -22.8290  -12.1900   22.3710 H   0  0  0  0  0  0  0  0  0  0  0  0
  -21.5690  -13.3730   22.2200 H   0  0  0  0  0  0  0  0  0  0  0  0
  -25.8150  -15.2140   19.9950 N   0  0  0  0  0  0  0  0  0  0  0  0
  -25.0920  -15.9060   20.1640 H   0  0  0  0  0  0  0  0  0  0  0  0
  -26.6660  -15.6160   19.6240 H   0  0  0  0  0  0  0  0  0  0  0  0
  -28.7590  -25.6860   19.2930 C   0  0  0  0  0  2  0  0  0  0  0  0
  -28.2490  -26.4600   20.4260 O   0  0  0  0  0  0  0  0  0  0  0  0
  -24.3730  -31.7930   23.2950 C   0  0  0  0  0  0  0  0  0  0  0  0
  -27.1000  -27.2570   20.3170 C   0  0  0  0  0  0  0  0  0  0  0  0
  -23.2040  -30.3560   21.6550 C   0  0  0  0  0  3  0  0  0  0  0  0
  -24.6990  -28.8080   20.2650 C   0  0  0  0  0  0  0  0  0  0  0  0
  -25.7350  -30.7180   21.4930 C   0  0  0  0  0  2  0  0  0  0  0  0
  -25.8450  -29.3310   20.8720 C   0  0  0  0  0  0  0  0  0  0  0  0
  -27.0430  -28.5600   20.9020 C   0  0  0  0  0  3  0  0  0  0  0  0
  -25.9270  -26.7770   19.6950 C   0  0  0  0  0  3  0  0  0  0  0  0
  -24.7370  -27.5360   19.6700 C   0  0  0  0  0  3  0  0  0  0  0  0
  -23.4430  -29.6530   20.2900 C   0  0  0  0  0  2  0  0  0  0  0  0
  -24.4540  -30.9740   22.2040 N   0  0  0  0  0  0  0  0  0  0  0  0
  -23.2800  -32.0610   23.8150 O   0  0  0  0  0  0  0  0  0  0  0  0
  -22.5440  -29.3480   22.6260 C   0  0  0  0  0  0  0  0  0  0  0  0
  -21.2320  -29.1180   22.4590 N   0  0  0  0  0  0  0  0  0  0  0  0
  -23.2130  -28.7760   23.4920 O   0  0  0  0  0  0  0  0  0  0  0  0
  -20.7420  -29.6390   21.7450 H   0  0  0  0  0  0  0  0  0  0  0  0
  -17.9090  -27.7410   22.7890 C   0  0  0  0  0  0  0  0  0  0  0  0
  -20.4190  -28.1710   23.2220 C   0  0  0  0  0  3  0  0  0  0  0  0
  -20.6470  -26.7230   22.7340 C   0  0  0  0  0  2  0  0  0  0  0  0
  -19.6450  -26.2800   21.6660 C   0  0  0  0  0  2  0  0  0  0  0  0
  -18.2150  -26.3740   22.2000 C   0  0  0  0  0  2  0  0  0  0  0  0
  -18.9450  -28.5910   23.2560 C   0  0  0  0  0  0  0  0  0  0  0  0
  -18.6100  -29.8630   23.7610 C   0  0  0  0  0  3  0  0  0  0  0  0
  -17.2700  -30.2870   23.8090 C   0  0  0  0  0  3  0  0  0  0  0  0
  -16.2470  -29.4380   23.3580 C   0  0  0  0  0  3  0  0  0  0  0  0
  -16.5670  -28.1690   22.8530 C   0  0  0  0  0  3  0  0  0  0  0  0
  -25.6410  -32.4460   23.9280 C   0  0  0  0  0  3  0  0  0  0  0  0
  -26.1030  -31.7460   25.2650 C   0  0  1  0  0  0  0  0  0  0  0  0
  -24.9650  -31.5750   26.2990 C   0  0  0  0  0  1  0  0  0  0  0  0
  -26.6900  -30.3460   24.9750 C   0  0  0  0  0  1  0  0  0  0  0  0
  -27.2290  -32.5730   25.9300 C   0  0  0  0  0  1  0  0  0  0  0  0
  -25.3400  -33.8640   24.1670 N   0  0  0  0  0  0  0  0  0  0  0  0
  -25.7040  -34.8650   23.3540 C   0  0  0  0  0  0  0  0  0  0  0  0
  -26.3940  -34.6940   22.3460 O   0  0  0  0  0  0  0  0  0  0  0  0
  -24.7220  -34.0750   24.9370 H   0  0  0  0  0  0  0  0  0  0  0  0
  -23.9990  -36.6530   22.8640 C   0  0  0  0  0  1  0  0  0  0  0  0
  -25.2220  -36.2820   23.7190 C   0  0  0  0  0  3  0  0  0  0  0  0
  -27.3510  -37.1980   24.5320 C   0  0  0  0  0  1  0  0  0  0  0  0
  -26.2660  -37.3180   23.5610 N   0  0  0  0  0  0  0  0  0  0  0  0
  -25.8650  -38.2470   23.6490 H   0  0  0  0  0  0  0  0  0  0  0  0
  2 53  1  0
  2  4  1  0
  2  1  1  0
  3  4  1  0
  3  1  1  0
  3 12  1  0
  4  6  1  1
  5  4  1  0
  7  9  2  0
  8 10  2  0
  9 11  1  0
 10  9  1  0
 10 14  1  0
 12  8  1  0
 12  7  1  0
 13 14  1  0
 15 21  1  0
 15 23  1  0
 16 21  1  0
 17 18  1  0
 17 16  1  0
 19 18  1  0
 19 28  1  0
 19 20  1  0
 21 20  1  0
 22 15  2  0
 23 14  2  0
 23 24  1  0
 25 26  2  0
 26 45  1  0
 27 26  1  0
 27 30  1  0
 28 25  1  0
 28 29  1  0
 29 27  2  0
 30 31  1  0
 31 32  2  0
 33 36  1  0
 33 32  1  0
 34 33  2  0
 35 34  1  0
 35 30  2  0
 36 37  1  0
 37 42  2  0
 37 38  1  0
 38 39  2  0
 39 40  1  0
 40 44  1  0
 41 40  2  0
 42 41  1  0
 43 42  1  0
 45 46  1  0
 46 49  1  0
 46 48  1  0
 47 45  2  0
 50 51  1  0
 50 25  1  0
 52 50  1  0
 53 54  1  0
 55 66  2  0
 56 54  1  0
 56 61  1  0
 57 65  1  0
 57 67  1  0
 58 64  1  0
 58 60  1  0
 59 65  1  0
 60 61  2  0
 60 59  1  0
 62 56  2  0
 63 62  1  0
 63 58  2  0
 64 57  1  0
 65 55  1  0
 67 69  2  0
 68 67  1  0
 70 68  1  0
 71 80  2  0
 71 76  1  0
 72 68  1  0
 72 76  1  0
 73 72  1  0
 74 75  1  0
 74 73  1  0
 75 71  1  0
 76 77  2  0
 77 78  1  0
 79 78  2  0
 80 79  1  0
 81 55  1  0
 81 86  1  0
 81 82  1  0
 82 85  1  1
 82 83  1  0
 84 82  1  0
 86 89  1  0
 87 91  1  0
 87 86  1  0
 88 87  2  0
 91 90  1  0
 93 94  1  0
 93 91  1  0
 93 92  1  0
M  ISO  4  15 100  23 100  53 101  54 101
M  END
>  <TORSDO>  (68) 
F 19

>  <SCORE>  (68) 
-13.371

>  <name>  (68) 
67

>  <ligand_id>  (68) 
67

>  <original_smiles>  (68) 
[H]c1c([H])c([H])c2c(c1[H])C([H])([H])C([H])([H])C([H])([H])C2([H])N([H])C(=O)C1([H])N(C(=O)C([H])(N([H])C(=O)C([H])(N([H])C([H])([H])[H])C([H])([H])[H])C(C([H])([H])[H])(C([H])([H])[H])C([H])([H])[H])C([H])([H])c2c([H])c(OC([H])([H])C3([H])C([H])([H])C([H])(n4c([H])c(C([H])([H])[H])c(C([H])(N([H])C(=O)N5C([H])([H])C([H])([H])C([H])([H])C([H])(n6nc(-c7c([H])c([H])c(Oc8c([H])c([H])c(F)c([H])c8F)c([H])c7[H])c(C(=O)N([H])[H])c6N([H])[H])C5([H])[H])C([H])([H])[H])c4[H])C3(C([H])([H])[H])C([H])([H])[H])c([H])c([H])c2C1([H])[H]

>  <smiles>  (68) 
[H]c1c([H])c([H])c2c(c1[H])C([H])([H])C([H])([H])C([H])([H])C2([H])N([H])C(=O)C1([H])N(C(=O)C([H])(N([H])C(=O)C([H])(N([H])C([H])([H])[H])C([H])([H])[H])C(C([H])([H])[H])(C([H])([H])[H])C([H])([H])[H])C([H])([H])c2c([H])c(OC([H])([H])C3([H])C([H])([H])C([H])(n4c([H])c(C([H])([H])[H])c(C([H])(N([H])C(=O)N5C([H])([H])C([H])([H])C([H])([H])C([H])(n6nc(-c7c([H])c([H])c(Oc8c([H])c([H])c(F)c([H])c8F)c([H])c7[H])c(C(=O)N([H])[H])c6N([H])[H])C5([H])[H])C([H])([H])[H])c4[H])C3(C([H])([H])[H])C([H])([H])[H])c([H])c([H])c2C1([H])[H]

$$$$
68:0:0
     RDKit          3D

 92101  0  0  1  0  0  0  0  0999 V2000
  -28.1770  -20.7760   18.4020 C   0  0  0  0  0  0  0  0  0  0  0  0
  -28.8370  -20.2640   19.5510 C   0  0  0  0  0  0  0  0  0  0  0  0
  -28.2060  -22.1380   18.4450 C   0  0  0  0  0  0  0  0  0  0  0  0
  -27.7320  -23.0890   17.3900 C   0  0  0  0  0  1  0  0  0  0  0  0
  -29.2470  -21.3280   20.2920 N   0  0  0  0  0  0  0  0  0  0  0  0
  -28.8080  -22.4960   19.6530 N   0  0  0  0  0  0  0  0  0  0  0  0
  -27.5340  -19.8340   17.1000 Cl  0  0  0  0  0  0  0  0  0  0  0  0
  -30.7200  -14.6400   20.2700 C   0  0  0  0  0  0  0  0  0  0  0  0
  -30.4050  -12.4120   19.2320 C   0  0  0  0  0  2  0  0  0  0  0  0
  -29.4560  -12.5410   18.0240 C   0  0  0  0  0  2  0  0  0  0  0  0
  -27.9900  -12.3890   18.4740 C   0  0  0  0  0  2  0  0  0  0  0  0
  -27.6490  -13.2520   19.7190 C   0  0  0  0  0  3  0  0  0  0  0  0
  -28.7300  -13.1410   20.8170 C   0  0  0  0  0  2  0  0  0  0  0  0
  -30.0170  -13.4660   20.1910 N   0  0  0  0  0  0  0  0  0  0  0  0
  -31.9250  -14.6440   20.0020 O   0  0  0  0  0  0  0  0  0  0  0  0
  -30.3880  -18.2040   19.0610 C   0  0  0  0  0  2  0  0  0  0  0  0
  -29.1200  -18.0690   21.1420 C   0  0  0  0  0  2  0  0  0  0  0  0
  -30.3520  -16.6560   18.8800 C   0  0  0  0  0  2  0  0  0  0  0  0
  -29.1420  -16.4830   21.0890 C   0  0  0  0  0  2  0  0  0  0  0  0
  -29.1260  -18.7340   19.7490 C   0  0  0  0  0  3  0  0  0  0  0  0
  -30.0270  -15.8260   20.0790 N   0  0  0  0  0  0  0  0  0  0  0  0
  -25.2700  -13.8290   20.4880 C   0  0  0  0  0  0  0  0  0  0  0  0
  -24.2110  -13.0500   20.8650 C   0  0  0  0  0  0  0  0  0  0  0  0
  -24.6770  -11.7000   20.8180 C   0  0  0  0  0  0  0  0  0  0  0  0
  -26.3140  -12.9560   20.2300 N   0  0  0  0  0  0  0  0  0  0  0  0
  -25.9650  -11.6690   20.4890 N   0  0  0  0  0  0  0  0  0  0  0  0
  -23.9570  -10.4340   21.0070 C   0  0  0  0  0  0  0  0  0  0  0  0
  -24.3920   -9.4690   21.9410 C   0  0  0  0  0  3  0  0  0  0  0  0
  -23.6710   -8.2680   22.1180 C   0  0  0  0  0  3  0  0  0  0  0  0
  -22.5000   -8.0240   21.3610 C   0  0  0  0  0  0  0  0  0  0  0  0
  -22.0830   -8.9780   20.4160 C   0  0  0  0  0  3  0  0  0  0  0  0
  -22.8060  -10.1710   20.2380 C   0  0  0  0  0  3  0  0  0  0  0  0
  -21.7510   -6.8760   21.4480 O   0  0  0  0  0  0  0  0  0  0  0  0
  -21.6820   -6.1480   22.6080 C   0  0  0  0  0  0  0  0  0  0  0  0
  -21.2260   -6.7150   23.8180 C   0  0  0  0  0  3  0  0  0  0  0  0
  -21.1060   -5.9130   24.9700 C   0  0  0  0  0  3  0  0  0  0  0  0
  -21.4290   -4.5440   24.9140 C   0  0  0  0  0  0  0  0  0  0  0  0
  -21.8780   -3.9770   23.7080 C   0  0  0  0  0  3  0  0  0  0  0  0
  -22.0020   -4.7760   22.5590 C   0  0  0  0  0  0  0  0  0  0  0  0
  -22.4150   -4.2190   21.3950 F   0  0  0  0  0  0  0  0  0  0  0  0
  -21.3050   -3.7710   26.0190 F   0  0  0  0  0  0  0  0  0  0  0  0
  -22.8160  -13.5220   21.1580 C   0  0  0  0  0  0  0  0  0  0  0  0
  -22.1060  -12.8230   22.0350 N   0  0  0  0  0  0  0  0  0  0  0  0
  -22.3670  -14.5460   20.6470 O   0  0  0  0  0  0  0  0  0  0  0  0
  -22.4860  -11.9970   22.4730 H   0  0  0  0  0  0  0  0  0  0  0  0
  -21.1710  -13.1200   22.2760 H   0  0  0  0  0  0  0  0  0  0  0  0
  -25.4240  -15.2010   20.3200 N   0  0  0  0  0  0  0  0  0  0  0  0
  -24.6520  -15.8460   20.4480 H   0  0  0  0  0  0  0  0  0  0  0  0
  -26.2620  -15.6460   19.9700 H   0  0  0  0  0  0  0  0  0  0  0  0
  -29.1370  -23.8800   20.1760 C   0  0  0  0  0  3  0  0  0  0  0  0
  -28.0540  -25.0320   19.9700 C   0  0  0  0  0  3  0  0  0  0  0  0
  -28.3030  -26.4570   20.2880 O   0  0  0  0  0  0  0  0  0  0  0  0
  -24.6240  -31.8900   23.2870 C   0  0  0  0  0  0  0  0  0  0  0  0
  -27.1960  -27.3230   20.2220 C   0  0  0  0  0  0  0  0  0  0  0  0
  -23.4090  -30.5050   21.6460 C   0  0  0  0  0  3  0  0  0  0  0  0
  -24.8450  -28.9570   20.2140 C   0  0  0  0  0  0  0  0  0  0  0  0
  -25.9500  -30.8100   21.4580 C   0  0  0  0  0  2  0  0  0  0  0  0
  -26.0200  -29.4330   20.8110 C   0  0  0  0  0  0  0  0  0  0  0  0
  -27.1990  -28.6270   20.8080 C   0  0  0  0  0  3  0  0  0  0  0  0
  -25.9920  -26.9080   19.5980 C   0  0  0  0  0  3  0  0  0  0  0  0
  -24.8340  -27.7000   19.6010 C   0  0  0  0  0  3  0  0  0  0  0  0
  -23.6160  -29.8390   20.2620 C   0  0  0  0  0  2  0  0  0  0  0  0
  -24.6810  -31.0830   22.1870 N   0  0  0  0  0  0  0  0  0  0  0  0
  -23.5440  -32.1730   23.8240 O   0  0  0  0  0  0  0  0  0  0  0  0
  -22.7420  -29.4860   22.6020 C   0  0  0  0  0  0  0  0  0  0  0  0
  -21.4160  -29.3130   22.4730 N   0  0  0  0  0  0  0  0  0  0  0  0
  -23.4180  -28.8570   23.4200 O   0  0  0  0  0  0  0  0  0  0  0  0
  -20.9300  -29.8700   21.7850 H   0  0  0  0  0  0  0  0  0  0  0  0
  -18.0350  -28.1280   22.9650 C   0  0  0  0  0  0  0  0  0  0  0  0
  -20.5930  -28.3810   23.2450 C   0  0  0  0  0  3  0  0  0  0  0  0
  -20.6950  -26.9460   22.6770 C   0  0  0  0  0  2  0  0  0  0  0  0
  -19.5950  -26.6220   21.6600 C   0  0  0  0  0  2  0  0  0  0  0  0
  -18.2100  -26.7750   22.2970 C   0  0  0  0  0  2  0  0  0  0  0  0
  -19.1550  -28.8890   23.3970 C   0  0  0  0  0  0  0  0  0  0  0  0
  -18.9360  -30.1540   23.9830 C   0  0  0  0  0  3  0  0  0  0  0  0
  -17.6330  -30.6610   24.1390 C   0  0  0  0  0  3  0  0  0  0  0  0
  -16.5280  -29.8980   23.7240 C   0  0  0  0  0  3  0  0  0  0  0  0
  -16.7300  -28.6340   23.1410 C   0  0  0  0  0  3  0  0  0  0  0  0
  -25.9140  -32.5140   23.9050 C   0  0  0  0  0  3  0  0  0  0  0  0
  -25.6150  -33.9140   24.2330 N   0  0  0  0  0  0  0  0  0  0  0  0
  -25.9370  -34.9610   23.4600 C   0  0  0  0  0  0  0  0  0  0  0  0
  -26.5880  -34.8480   22.4180 O   0  0  0  0  0  0  0  0  0  0  0  0
  -25.0360  -34.0760   25.0430 H   0  0  0  0  0  0  0  0  0  0  0  0
  -24.1980  -36.7490   23.1390 C   0  0  0  0  0  1  0  0  0  0  0  0
  -25.4640  -36.3540   23.9180 C   0  0  0  0  0  3  0  0  0  0  0  0
  -27.6230  -37.2480   24.6730 C   0  0  0  0  0  1  0  0  0  0  0  0
  -26.4930  -37.4050   23.7620 N   0  0  0  0  0  0  0  0  0  0  0  0
  -26.0910  -38.3280   23.9120 H   0  0  0  0  0  0  0  0  0  0  0  0
  -26.4230  -31.7400   25.1820 C   0  0  1  0  0  0  0  0  0  0  0  0
  -25.3280  -31.5150   26.2490 C   0  0  0  0  0  1  0  0  0  0  0  0
  -26.9950  -30.3570   24.7930 C   0  0  0  0  0  1  0  0  0  0  0  0
  -27.5810  -32.5250   25.8420 C   0  0  0  0  0  1  0  0  0  0  0  0
  1  3  2  0
  1  2  1  0
  2  5  2  0
  3  6  1  0
  4  3  1  0
  6 50  1  0
  6  5  1  0
  7  1  1  0
  9 14  1  0
 10 11  1  0
 10  9  1  0
 12 11  1  0
 12 25  1  0
 12 13  1  0
 14  8  1  0
 14 13  1  0
 15  8  2  0
 16 20  1  0
 18 16  1  0
 18 21  1  0
 19 17  1  0
 20  2  1  0
 20 17  1  0
 21  8  1  0
 21 19  1  0
 22 23  2  0
 23 42  1  0
 24 23  1  0
 24 27  1  0
 25 22  1  0
 25 26  1  0
 26 24  2  0
 27 28  1  0
 28 29  2  0
 30 33  1  0
 30 29  1  0
 31 30  2  0
 32 31  1  0
 32 27  2  0
 33 34  1  0
 34 35  1  0
 35 36  2  0
 37 36  1  0
 37 41  1  0
 38 37  2  0
 39 34  2  0
 39 38  1  0
 40 39  1  0
 42 43  1  0
 43 46  1  0
 43 45  1  0
 44 42  2  0
 47 48  1  0
 47 22  1  0
 49 47  1  0
 51 50  2  0
 51 52  1  0
 53 64  2  0
 54 52  1  0
 54 59  1  0
 55 63  1  0
 55 65  1  0
 56 62  1  0
 56 58  1  0
 57 63  1  0
 58 57  1  0
 59 58  2  0
 60 61  1  0
 60 54  2  0
 61 56  2  0
 62 55  1  0
 63 53  1  0
 65 67  2  0
 66 65  1  0
 68 66  1  0
 69 78  2  0
 69 74  1  0
 70 66  1  0
 70 74  1  0
 71 70  1  0
 72 73  1  0
 72 71  1  0
 73 69  1  0
 74 75  2  0
 75 76  1  0
 77 76  2  0
 78 77  1  0
 79 53  1  0
 79 80  1  0
 79 89  1  0
 80 83  1  0
 81 85  1  0
 81 80  1  0
 82 81  2  0
 85 84  1  0
 87 88  1  0
 87 85  1  0
 87 86  1  0
 89 92  1  1
 89 90  1  0
 91 89  1  0
M  ISO  4   8 100  21 100  51 101  52 101
M  END
>  <TORSDO>  (69) 
F 18

>  <SCORE>  (69) 
-14.380

>  <name>  (69) 
68

>  <ligand_id>  (69) 
68

>  <original_smiles>  (69) 
[H]c1c([H])c([H])c2c(c1[H])C([H])([H])C([H])([H])C([H])([H])C2([H])N([H])C(=O)C1([H])N(C(=O)C([H])(N([H])C(=O)C([H])(N([H])C([H])([H])[H])C([H])([H])[H])C(C([H])([H])[H])(C([H])([H])[H])C([H])([H])[H])C([H])([H])c2c([H])c(OC([H])([H])C([H])([H])n3nc(C4([H])C([H])([H])C([H])([H])N(C(=O)N5C([H])([H])C([H])([H])C([H])([H])C([H])(n6nc(-c7c([H])c([H])c(Oc8c([H])c([H])c(F)c([H])c8F)c([H])c7[H])c(C(=O)N([H])[H])c6N([H])[H])C5([H])[H])C([H])([H])C4([H])[H])c(Cl)c3C([H])([H])[H])c([H])c([H])c2C1([H])[H]

>  <smiles>  (69) 
[H]c1c([H])c([H])c2c(c1[H])C([H])([H])C([H])([H])C([H])([H])C2([H])N([H])C(=O)C1([H])N(C(=O)C([H])(N([H])C(=O)C([H])(N([H])C([H])([H])[H])C([H])([H])[H])C(C([H])([H])[H])(C([H])([H])[H])C([H])([H])[H])C([H])([H])c2c([H])c(OC([H])([H])C([H])([H])n3nc(C4([H])C([H])([H])C([H])([H])N(C(=O)N5C([H])([H])C([H])([H])C([H])([H])C([H])(n6nc(-c7c([H])c([H])c(Oc8c([H])c([H])c(F)c([H])c8F)c([H])c7[H])c(C(=O)N([H])[H])c6N([H])[H])C5([H])[H])C([H])([H])C4([H])[H])c(Cl)c3C([H])([H])[H])c([H])c([H])c2C1([H])[H]

$$$$
69:0:0
     RDKit          3D

 92100  0  0  1  0  0  0  0  0999 V2000
  -28.9280  -23.0000   20.3140 C   0  0  0  0  0  3  0  0  0  0  0  0
  -30.5960  -15.2810   20.2700 C   0  0  0  0  0  0  0  0  0  0  0  0
  -30.4560  -12.8760   19.3720 C   0  0  0  0  0  2  0  0  0  0  0  0
  -29.5310  -12.6990   18.1470 C   0  0  0  0  0  2  0  0  0  0  0  0
  -28.0880  -12.4390   18.6050 C   0  0  0  0  0  2  0  0  0  0  0  0
  -27.6510  -13.4010   19.7390 C   0  0  0  0  0  3  0  0  0  0  0  0
  -28.7120  -13.5580   20.8500 C   0  0  0  0  0  2  0  0  0  0  0  0
  -29.9380  -14.0300   20.1910 N   0  0  0  0  0  0  0  0  0  0  0  0
  -31.8120  -15.1880   20.0470 O   0  0  0  0  0  0  0  0  0  0  0  0
  -28.3720  -21.3820   20.1800 C   0  0  0  0  0  0  0  0  0  0  0  0
  -30.3600  -19.4630   20.5140 C   0  0  0  0  0  2  0  0  0  0  0  0
  -30.8180  -17.9290   20.0300 C   0  0  0  0  0  2  0  0  0  0  0  0
  -28.6900  -17.2600   20.6790 C   0  0  0  0  0  2  0  0  0  0  0  0
  -28.2000  -18.7090   20.0230 C   0  0  0  0  0  3  0  0  0  0  0  0
  -27.9180  -18.5110   18.5210 C   0  0  0  0  0  1  0  0  0  0  0  0
  -28.9780  -20.0270   20.2350 N   0  0  0  0  0  0  0  0  0  0  0  0
  -30.0160  -16.6420   20.2910 N   0  0  0  0  0  0  0  0  0  0  0  0
  -27.1580  -21.3790   19.9610 O   0  0  0  0  0  0  0  0  0  0  0  0
  -25.2880  -13.9370   20.5310 C   0  0  0  0  0  0  0  0  0  0  0  0
  -24.2360  -13.1480   20.9020 C   0  0  0  0  0  0  0  0  0  0  0  0
  -24.7100  -11.8020   20.8480 C   0  0  0  0  0  0  0  0  0  0  0  0
  -26.3330  -13.0720   20.2640 N   0  0  0  0  0  0  0  0  0  0  0  0
  -25.9990  -11.7810   20.5250 N   0  0  0  0  0  0  0  0  0  0  0  0
  -23.9930  -10.5330   21.0260 C   0  0  0  0  0  0  0  0  0  0  0  0
  -24.4160   -9.5680   21.9670 C   0  0  0  0  0  3  0  0  0  0  0  0
  -23.6940   -8.3670   22.1350 C   0  0  0  0  0  3  0  0  0  0  0  0
  -22.5340   -8.1210   21.3630 C   0  0  0  0  0  0  0  0  0  0  0  0
  -22.1290   -9.0740   20.4110 C   0  0  0  0  0  3  0  0  0  0  0  0
  -22.8530  -10.2670   20.2410 C   0  0  0  0  0  3  0  0  0  0  0  0
  -21.7850   -6.9720   21.4400 O   0  0  0  0  0  0  0  0  0  0  0  0
  -21.6930   -6.2510   22.6030 C   0  0  0  0  0  0  0  0  0  0  0  0
  -21.1730   -6.8120   23.7890 C   0  0  0  0  0  3  0  0  0  0  0  0
  -21.0310   -6.0140   24.9420 C   0  0  0  0  0  3  0  0  0  0  0  0
  -21.3980   -4.6560   24.9090 C   0  0  0  0  0  0  0  0  0  0  0  0
  -21.9110   -4.0940   23.7260 C   0  0  0  0  0  3  0  0  0  0  0  0
  -22.0540   -4.8880   22.5760 C   0  0  0  0  0  0  0  0  0  0  0  0
  -22.5290   -4.3360   21.4340 F   0  0  0  0  0  0  0  0  0  0  0  0
  -21.2550   -3.8880   26.0150 F   0  0  0  0  0  0  0  0  0  0  0  0
  -22.8380  -13.6140   21.1890 C   0  0  0  0  0  0  0  0  0  0  0  0
  -22.1270  -12.9140   22.0630 N   0  0  0  0  0  0  0  0  0  0  0  0
  -22.3880  -14.6360   20.6730 O   0  0  0  0  0  0  0  0  0  0  0  0
  -22.5050  -12.0880   22.5020 H   0  0  0  0  0  0  0  0  0  0  0  0
  -21.1900  -13.2080   22.2990 H   0  0  0  0  0  0  0  0  0  0  0  0
  -25.4330  -15.3100   20.3650 N   0  0  0  0  0  0  0  0  0  0  0  0
  -24.6560  -15.9490   20.4850 H   0  0  0  0  0  0  0  0  0  0  0  0
  -26.2610  -15.7570   19.9970 H   0  0  0  0  0  0  0  0  0  0  0  0
  -30.1640  -23.1340   19.5200 N   0  0  0  0  0  4  0  0  0  0  0  0
  -29.9680  -23.0330   18.5390 H   0  0  0  0  0  0  0  0  0  0  0  0
  -30.8380  -22.4370   19.7830 H   0  0  0  0  0  0  0  0  0  0  0  0
  -30.5780  -24.0380   19.6680 H   0  0  0  0  0  0  0  0  0  0  0  0
  -27.9580  -24.4620   20.0800 C   0  0  0  0  0  2  0  0  0  0  0  0
  -28.2280  -26.0490   20.2870 O   0  0  0  0  0  0  0  0  0  0  0  0
  -24.6650  -31.9240   23.2730 C   0  0  0  0  0  0  0  0  0  0  0  0
  -27.2090  -27.1130   20.2220 C   0  0  0  0  0  0  0  0  0  0  0  0
  -23.4630  -30.5360   21.6330 C   0  0  0  0  0  3  0  0  0  0  0  0
  -24.9030  -28.9510   20.1960 C   0  0  0  0  0  0  0  0  0  0  0  0
  -26.0240  -30.7660   21.4710 C   0  0  0  0  0  2  0  0  0  0  0  0
  -26.0920  -29.3660   20.8090 C   0  0  0  0  0  0  0  0  0  0  0  0
  -27.2410  -28.4670   20.7990 C   0  0  0  0  0  3  0  0  0  0  0  0
  -25.9920  -26.8340   19.5620 C   0  0  0  0  0  3  0  0  0  0  0  0
  -24.8740  -27.7030   19.5530 C   0  0  0  0  0  3  0  0  0  0  0  0
  -23.6820  -29.8630   20.2520 C   0  0  0  0  0  2  0  0  0  0  0  0
  -24.7390  -31.1000   22.1800 N   0  0  0  0  0  0  0  0  0  0  0  0
  -23.5800  -32.2100   23.8030 O   0  0  0  0  0  0  0  0  0  0  0  0
  -22.7780  -29.5310   22.5960 C   0  0  0  0  0  0  0  0  0  0  0  0
  -21.4500  -29.3530   22.4640 N   0  0  0  0  0  0  0  0  0  0  0  0
  -23.4470  -28.9130   23.4270 O   0  0  0  0  0  0  0  0  0  0  0  0
  -20.9650  -29.9030   21.7700 H   0  0  0  0  0  0  0  0  0  0  0  0
  -18.0760  -28.1190   22.9560 C   0  0  0  0  0  0  0  0  0  0  0  0
  -20.6320  -28.4100   23.2330 C   0  0  0  0  0  3  0  0  0  0  0  0
  -20.7500  -26.9770   22.6640 C   0  0  0  0  0  2  0  0  0  0  0  0
  -19.6570  -26.6410   21.6450 C   0  0  0  0  0  2  0  0  0  0  0  0
  -18.2700  -26.7710   22.2820 C   0  0  0  0  0  2  0  0  0  0  0  0
  -19.1850  -28.8950   23.3890 C   0  0  0  0  0  0  0  0  0  0  0  0
  -18.9470  -30.1540   23.9820 C   0  0  0  0  0  3  0  0  0  0  0  0
  -17.6350  -30.6390   24.1460 C   0  0  0  0  0  3  0  0  0  0  0  0
  -16.5410  -29.8600   23.7270 C   0  0  0  0  0  3  0  0  0  0  0  0
  -16.7630  -28.6020   23.1380 C   0  0  0  0  0  3  0  0  0  0  0  0
  -25.9420  -32.5610   23.9010 C   0  0  0  0  0  3  0  0  0  0  0  0
  -26.4410  -31.8020   25.1930 C   0  0  1  0  0  0  0  0  0  0  0  0
  -25.3360  -31.5820   26.2530 C   0  0  0  0  0  1  0  0  0  0  0  0
  -27.0230  -30.4170   24.8290 C   0  0  0  0  0  1  0  0  0  0  0  0
  -27.5880  -32.5990   25.8570 C   0  0  0  0  0  1  0  0  0  0  0  0
  -25.6320  -33.9650   24.2250 N   0  0  0  0  0  0  0  0  0  0  0  0
  -25.9330  -35.0150   23.4500 C   0  0  0  0  0  0  0  0  0  0  0  0
  -26.5660  -34.9050   22.3960 O   0  0  0  0  0  0  0  0  0  0  0  0
  -25.0660  -34.1230   25.0450 H   0  0  0  0  0  0  0  0  0  0  0  0
  -24.1750  -36.7960   23.1710 C   0  0  0  0  0  1  0  0  0  0  0  0
  -25.4620  -36.4080   23.9150 C   0  0  0  0  0  3  0  0  0  0  0  0
  -27.6270  -37.3290   24.6240 C   0  0  0  0  0  1  0  0  0  0  0  0
  -26.4790  -37.4670   23.7310 N   0  0  0  0  0  0  0  0  0  0  0  0
  -26.0730  -38.3870   23.8780 H   0  0  0  0  0  0  0  0  0  0  0  0
  1 51  1  0
  2 17  1  0
  3  8  1  0
  4  5  1  0
  4  3  1  0
  6  5  1  0
  6 22  1  0
  6  7  1  0
  8  2  1  0
  8  7  1  0
  9  2  2  0
 10 16  1  0
 10  1  1  0
 12 17  1  0
 12 11  1  0
 14 15  1  0
 14 16  1  0
 14 13  1  0
 16 11  1  0
 17 13  1  0
 18 10  2  0
 19 20  2  0
 20 39  1  0
 21 20  1  0
 21 24  1  0
 22 23  1  0
 22 19  1  0
 23 21  2  0
 24 25  1  0
 25 26  2  0
 27 30  1  0
 27 26  1  0
 28 27  2  0
 29 28  1  0
 29 24  2  0
 30 31  1  0
 31 32  1  0
 32 33  2  0
 34 33  1  0
 34 38  1  0
 35 34  2  0
 36 31  2  0
 36 35  1  0
 37 36  1  0
 39 40  1  0
 40 43  1  0
 40 42  1  0
 41 39  2  0
 44 45  1  0
 44 19  1  0
 46 44  1  0
 47 50  1  0
 47 49  1  0
 47  1  1  0
 48 47  1  0
 51 52  1  0
 53 64  2  0
 54 52  1  0
 54 59  1  0
 55 63  1  0
 55 65  1  0
 56 62  1  0
 56 58  1  0
 57 63  1  0
 58 57  1  0
 59 58  2  0
 60 54  2  0
 61 60  1  0
 61 56  2  0
 62 55  1  0
 63 53  1  0
 65 67  2  0
 66 65  1  0
 68 66  1  0
 69 78  2  0
 69 74  1  0
 70 66  1  0
 70 74  1  0
 71 70  1  0
 72 73  1  0
 72 71  1  0
 73 69  1  0
 74 75  2  0
 75 76  1  0
 77 76  2  0
 78 77  1  0
 79 53  1  0
 79 84  1  0
 79 80  1  0
 80 83  1  1
 80 81  1  0
 82 80  1  0
 84 87  1  0
 85 89  1  0
 85 84  1  0
 86 85  2  0
 89 88  1  0
 91 92  1  0
 91 89  1  0
 91 90  1  0
M  ISO  4   2 100  17 100  51 101  52 101
M  END
>  <TORSDO>  (70) 
F 18

>  <SCORE>  (70) 
-16.326

>  <name>  (70) 
69

>  <ligand_id>  (70) 
69

>  <original_smiles>  (70) 
[H]c1c([H])c([H])c2c(c1[H])C([H])([H])C([H])([H])C([H])([H])C2([H])N([H])C(=O)C1([H])N(C(=O)C([H])(N([H])C(=O)C([H])(N([H])C([H])([H])[H])C([H])([H])[H])C(C([H])([H])[H])(C([H])([H])[H])C([H])([H])[H])C([H])([H])c2c([H])c(OC([H])([H])C([H])(C(=O)N3C([H])([H])C([H])([H])N(C(=O)N4C([H])([H])C([H])([H])C([H])([H])C([H])(n5nc(-c6c([H])c([H])c(Oc7c([H])c([H])c(F)c([H])c7F)c([H])c6[H])c(C(=O)N([H])[H])c5N([H])[H])C4([H])[H])C([H])([H])C3([H])C([H])([H])[H])[N+]([H])([H])[H])c([H])c([H])c2C1([H])[H]

>  <smiles>  (70) 
[H]c1c([H])c([H])c2c(c1[H])C([H])([H])C([H])([H])C([H])([H])C2([H])N([H])C(=O)C1([H])N(C(=O)C([H])(N([H])C(=O)C([H])(N([H])C([H])([H])[H])C([H])([H])[H])C(C([H])([H])[H])(C([H])([H])[H])C([H])([H])[H])C([H])([H])c2c([H])c(OC([H])([H])C([H])(C(=O)N3C([H])([H])C([H])([H])N(C(=O)N4C([H])([H])C([H])([H])C([H])([H])C([H])(n5nc(-c6c([H])c([H])c(Oc7c([H])c([H])c(F)c([H])c7F)c([H])c6[H])c(C(=O)N([H])[H])c5N([H])[H])C4([H])[H])C([H])([H])C3([H])C([H])([H])[H])[N+]([H])([H])[H])c([H])c([H])c2C1([H])[H]

$$$$
70:0:0
     RDKit          3D

100109  0  0  1  0  0  0  0  0999 V2000
  -27.1930  -22.7730   17.3460 C   0  0  0  0  0  2  0  0  0  0  0  0
  -27.4440  -24.0390   18.1400 C   0  0  0  0  0  2  0  0  0  0  0  0
  -28.5750  -22.2740   19.3380 C   0  0  0  0  0  3  0  0  0  0  0  0
  -27.5280  -21.6650   18.3430 C   0  0  0  0  0  3  0  0  0  0  0  0
  -28.7480  -23.8570   18.9430 C   0  0  1  0  0  0  0  0  0  0  0  0
  -29.9350  -24.2170   18.0360 C   0  0  0  0  0  1  0  0  0  0  0  0
  -30.8370  -19.0650   18.8300 C   0  0  0  0  0  3  0  0  0  0  0  0
  -29.6600  -21.1250   19.6010 C   0  0  0  0  0  0  0  0  0  0  0  0
  -30.2750  -20.3450   18.5630 C   0  0  0  0  0  0  0  0  0  0  0  0
  -30.8420  -18.4720   20.1080 C   0  0  0  0  0  0  0  0  0  0  0  0
  -29.8100  -20.5880   20.9270 C   0  0  0  0  0  0  0  0  0  0  0  0
  -30.3240  -19.2630   21.1670 C   0  0  0  0  0  0  0  0  0  0  0  0
  -30.3610  -20.7900   17.1120 C   0  0  0  0  0  1  0  0  0  0  0  0
  -29.4550  -21.4490   22.1320 C   0  0  0  0  0  1  0  0  0  0  0  0
  -30.3580  -18.6630   22.5680 C   0  0  0  0  0  1  0  0  0  0  0  0
  -31.5880  -17.1120   20.3390 C   0  0  0  0  0  2  0  0  0  0  0  0
  -31.4790  -14.5990   19.9740 C   0  0  0  0  0  0  0  0  0  0  0  0
  -31.1080  -12.2560   19.2270 C   0  0  0  0  0  2  0  0  0  0  0  0
  -30.1820  -12.2380   17.9940 C   0  0  0  0  0  2  0  0  0  0  0  0
  -28.7180  -12.1440   18.4690 C   0  0  0  0  0  2  0  0  0  0  0  0
  -28.3760  -13.2210   19.5360 C   0  0  0  0  0  3  0  0  0  0  0  0
  -29.4330  -13.2580   20.6640 C   0  0  0  0  0  2  0  0  0  0  0  0
  -30.7510  -13.4390   20.0400 N   0  0  0  0  0  0  0  0  0  0  0  0
  -32.6360  -14.5900   19.5440 O   0  0  0  0  0  0  0  0  0  0  0  0
  -30.8760  -15.7910   20.2520 N   0  0  0  0  0  0  0  0  0  0  0  0
  -29.9080  -15.7750   20.5270 H   0  0  0  0  0  0  0  0  0  0  0  0
  -26.0710  -14.0180   20.3240 C   0  0  0  0  0  0  0  0  0  0  0  0
  -24.9490  -13.3330   20.7150 C   0  0  0  0  0  0  0  0  0  0  0  0
  -25.2970  -11.9480   20.6660 C   0  0  0  0  0  0  0  0  0  0  0  0
  -27.0260  -13.0510   20.0570 N   0  0  0  0  0  0  0  0  0  0  0  0
  -26.5710  -11.8020   20.3220 N   0  0  0  0  0  0  0  0  0  0  0  0
  -24.4700  -10.7540   20.8670 C   0  0  0  0  0  0  0  0  0  0  0  0
  -24.8240   -9.7610   21.8110 C   0  0  0  0  0  3  0  0  0  0  0  0
  -24.0040   -8.6280   21.9950 C   0  0  0  0  0  3  0  0  0  0  0  0
  -22.8180   -8.4800   21.2350 C   0  0  0  0  0  0  0  0  0  0  0  0
  -22.4810   -9.4580   20.2810 C   0  0  0  0  0  3  0  0  0  0  0  0
  -23.3010  -10.5840   20.0970 C   0  0  0  0  0  3  0  0  0  0  0  0
  -21.9710   -7.4000   21.3330 O   0  0  0  0  0  0  0  0  0  0  0  0
  -21.8230   -6.7070   22.5060 C   0  0  0  0  0  0  0  0  0  0  0  0
  -21.4170   -7.3410   23.7010 C   0  0  0  0  0  3  0  0  0  0  0  0
  -21.2130   -6.5770   24.8670 C   0  0  0  0  0  3  0  0  0  0  0  0
  -21.4040   -5.1830   24.8380 C   0  0  0  0  0  0  0  0  0  0  0  0
  -21.8050   -4.5490   23.6490 C   0  0  0  0  0  3  0  0  0  0  0  0
  -22.0120   -5.3100   22.4850 C   0  0  0  0  0  0  0  0  0  0  0  0
  -22.3780   -4.6940   21.3340 F   0  0  0  0  0  0  0  0  0  0  0  0
  -21.1970   -4.4470   25.9550 F   0  0  0  0  0  0  0  0  0  0  0  0
  -23.6090  -13.9270   21.0220 C   0  0  0  0  0  0  0  0  0  0  0  0
  -22.8470  -13.3000   21.9120 N   0  0  0  0  0  0  0  0  0  0  0  0
  -23.2420  -14.9780   20.4960 O   0  0  0  0  0  0  0  0  0  0  0  0
  -23.1500  -12.4450   22.3510 H   0  0  0  0  0  0  0  0  0  0  0  0
  -21.9460  -13.6850   22.1550 H   0  0  0  0  0  0  0  0  0  0  0  0
  -26.3420  -15.3710   20.1480 N   0  0  0  0  0  0  0  0  0  0  0  0
  -25.6240  -16.0730   20.3030 H   0  0  0  0  0  0  0  0  0  0  0  0
  -27.2100  -15.7600   19.7970 H   0  0  0  0  0  0  0  0  0  0  0  0
  -26.3460  -21.1120   19.0450 N   0  0  0  0  0  4  0  0  0  0  0  0
  -25.8570  -21.8120   19.5700 H   0  0  0  0  0  0  0  0  0  0  0  0
  -26.6260  -20.3810   19.6780 H   0  0  0  0  0  0  0  0  0  0  0  0
  -25.7080  -20.6940   18.3910 H   0  0  0  0  0  0  0  0  0  0  0  0
  -28.7190  -24.9690   20.1110 C   0  0  0  0  0  2  0  0  0  0  0  0
  -28.7880  -26.4350   19.7990 O   0  0  0  0  0  0  0  0  0  0  0  0
  -24.7350  -31.5290   23.0330 C   0  0  0  0  0  0  0  0  0  0  0  0
  -27.6310  -27.2270   19.8300 C   0  0  0  0  0  0  0  0  0  0  0  0
  -23.6390  -30.1030   21.3410 C   0  0  0  0  0  3  0  0  0  0  0  0
  -25.1840  -28.7060   19.8780 C   0  0  0  0  0  0  0  0  0  0  0  0
  -26.1560  -30.5770   21.1930 C   0  0  0  0  0  2  0  0  0  0  0  0
  -26.3200  -29.2280   20.5080 C   0  0  0  0  0  0  0  0  0  0  0  0
  -27.5530  -28.5030   20.4720 C   0  0  0  0  0  3  0  0  0  0  0  0
  -26.4710  -26.7850   19.1650 C   0  0  0  0  0  3  0  0  0  0  0  0
  -25.2660  -27.4950   19.1890 C   0  0  0  0  0  3  0  0  0  0  0  0
  -23.9010  -29.5010   19.9370 C   0  0  0  0  0  2  0  0  0  0  0  0
  -24.8600  -30.7600   21.9100 N   0  0  0  0  0  0  0  0  0  0  0  0
  -23.6320  -31.7180   23.5630 O   0  0  0  0  0  0  0  0  0  0  0  0
  -23.0420  -29.0150   22.2640 C   0  0  0  0  0  0  0  0  0  0  0  0
  -21.7310  -28.7570   22.1200 N   0  0  0  0  0  0  0  0  0  0  0  0
  -23.7550  -28.4080   23.0660 O   0  0  0  0  0  0  0  0  0  0  0  0
  -21.2140  -29.3080   21.4510 H   0  0  0  0  0  0  0  0  0  0  0  0
  -18.4390  -27.3080   22.5200 C   0  0  0  0  0  0  0  0  0  0  0  0
  -20.9650  -27.7450   22.8510 C   0  0  0  0  0  3  0  0  0  0  0  0
  -21.1850  -26.3420   22.2400 C   0  0  0  0  0  2  0  0  0  0  0  0
  -20.1280  -25.9630   21.1980 C   0  0  0  0  0  2  0  0  0  0  0  0
  -18.7280  -25.9910   21.8200 C   0  0  0  0  0  2  0  0  0  0  0  0
  -19.4910  -28.1390   22.9900 C   0  0  0  0  0  0  0  0  0  0  0  0
  -19.1660  -29.3670   23.6060 C   0  0  0  0  0  3  0  0  0  0  0  0
  -17.8240  -29.7620   23.7650 C   0  0  0  0  0  3  0  0  0  0  0  0
  -16.7880  -28.9270   23.3140 C   0  0  0  0  0  3  0  0  0  0  0  0
  -17.0960  -27.7050   22.6920 C   0  0  0  0  0  3  0  0  0  0  0  0
  -25.9670  -32.2250   23.6900 C   0  0  0  0  0  3  0  0  0  0  0  0
  -26.5190  -31.4570   24.9550 C   0  0  1  0  0  0  0  0  0  0  0  0
  -25.4380  -31.1200   26.0090 C   0  0  0  0  0  1  0  0  0  0  0  0
  -27.1850  -30.1300   24.5320 C   0  0  0  0  0  1  0  0  0  0  0  0
  -27.6240  -32.2980   25.6390 C   0  0  0  0  0  1  0  0  0  0  0  0
  -25.5650  -33.5930   24.0540 N   0  0  0  0  0  0  0  0  0  0  0  0
  -25.8250  -34.6830   23.3240 C   0  0  0  0  0  0  0  0  0  0  0  0
  -26.4970  -34.6520   22.2900 O   0  0  0  0  0  0  0  0  0  0  0  0
  -24.9790  -33.6920   24.8700 H   0  0  0  0  0  0  0  0  0  0  0  0
  -23.9800  -36.3670   23.0200 C   0  0  0  0  0  1  0  0  0  0  0  0
  -25.2510  -36.0280   23.8140 C   0  0  0  0  0  3  0  0  0  0  0  0
  -27.3310  -37.0350   24.6530 C   0  0  0  0  0  1  0  0  0  0  0  0
  -26.2140  -37.1480   23.7190 N   0  0  0  0  0  0  0  0  0  0  0  0
  -25.7520  -38.0370   23.8860 H   0  0  0  0  0  0  0  0  0  0  0  0
  1  2  1  0
  1  4  1  0
  2  5  1  0
  3  8  1  0
  4 55  1  0
  4  3  1  0
  5  6  1  6
  5  3  1  0
  5 59  1  0
  7 10  1  0
  8 11  2  0
  9  7  2  0
  9  8  1  0
 10 16  1  0
 10 12  2  0
 11 12  1  0
 11 14  1  0
 12 15  1  0
 13  9  1  0
 17 23  1  0
 17 25  1  0
 18 23  1  0
 19 20  1  0
 19 18  1  0
 21 20  1  0
 21 30  1  0
 21 22  1  0
 23 22  1  0
 24 17  2  0
 25 16  1  0
 25 26  1  0
 27 28  2  0
 28 47  1  0
 29 28  1  0
 29 32  1  0
 30 31  1  0
 30 27  1  0
 31 29  2  0
 32 33  1  0
 33 34  2  0
 35 38  1  0
 35 34  1  0
 36 35  2  0
 37 36  1  0
 37 32  2  0
 38 39  1  0
 39 40  1  0
 40 41  2  0
 42 41  1  0
 42 46  1  0
 43 42  2  0
 44 39  2  0
 44 43  1  0
 45 44  1  0
 47 48  1  0
 48 51  1  0
 48 50  1  0
 49 47  2  0
 52 53  1  0
 52 27  1  0
 54 52  1  0
 55 56  1  0
 55 57  1  0
 58 55  1  0
 60 62  1  0
 60 59  1  0
 61 72  2  0
 62 67  1  0
 63 71  1  0
 63 73  1  0
 64 70  1  0
 64 66  1  0
 65 71  1  0
 66 65  1  0
 67 66  2  0
 68 69  1  0
 68 62  2  0
 69 64  2  0
 70 63  1  0
 71 61  1  0
 73 75  2  0
 74 73  1  0
 76 74  1  0
 77 86  2  0
 77 82  1  0
 78 74  1  0
 78 82  1  0
 79 78  1  0
 80 81  1  0
 80 79  1  0
 81 77  1  0
 82 83  2  0
 83 84  1  0
 85 84  2  0
 86 85  1  0
 87 61  1  0
 87 92  1  0
 87 88  1  0
 88 91  1  1
 88 89  1  0
 90 88  1  0
 92 95  1  0
 93 97  1  0
 93 92  1  0
 94 93  2  0
 97 96  1  0
 99 97  1  0
 99100  1  0
 99 98  1  0
M  ISO  4  17 100  25 100  59 101  60 101
M  END
>  <TORSDO>  (71) 
F 20

>  <SCORE>  (71) 
-12.221

>  <name>  (71) 
70

>  <ligand_id>  (71) 
70

>  <original_smiles>  (71) 
[H]c1c([H])c([H])c2c(c1[H])C([H])([H])C([H])([H])C([H])([H])C2([H])N([H])C(=O)C1([H])N(C(=O)C([H])(N([H])C(=O)C([H])(N([H])C([H])([H])[H])C([H])([H])[H])C(C([H])([H])[H])(C([H])([H])[H])C([H])([H])[H])C([H])([H])c2c([H])c(OC([H])([H])C3(C([H])([H])[H])C([H])([H])C([H])([H])C([H])([N+]([H])([H])[H])C3([H])c3c(C([H])([H])[H])c([H])c(C([H])([H])N([H])C(=O)N4C([H])([H])C([H])([H])C([H])([H])C([H])(n5nc(-c6c([H])c([H])c(Oc7c([H])c([H])c(F)c([H])c7F)c([H])c6[H])c(C(=O)N([H])[H])c5N([H])[H])C4([H])[H])c(C([H])([H])[H])c3C([H])([H])[H])c([H])c([H])c2C1([H])[H]

>  <smiles>  (71) 
[H]c1c([H])c([H])c2c(c1[H])C([H])([H])C([H])([H])C([H])([H])C2([H])N([H])C(=O)C1([H])N(C(=O)C([H])(N([H])C(=O)C([H])(N([H])C([H])([H])[H])C([H])([H])[H])C(C([H])([H])[H])(C([H])([H])[H])C([H])([H])[H])C([H])([H])c2c([H])c(OC([H])([H])C3(C([H])([H])[H])C([H])([H])C([H])([H])C([H])([N+]([H])([H])[H])C3([H])c3c(C([H])([H])[H])c([H])c(C([H])([H])N([H])C(=O)N4C([H])([H])C([H])([H])C([H])([H])C([H])(n5nc(-c6c([H])c([H])c(Oc7c([H])c([H])c(F)c([H])c7F)c([H])c6[H])c(C(=O)N([H])[H])c5N([H])[H])C4([H])[H])c(C([H])([H])[H])c3C([H])([H])[H])c([H])c([H])c2C1([H])[H]

$$$$
71:0:0
     RDKit          3D

 92101  0  0  1  0  0  0  0  0999 V2000
  -28.8460  -22.4370   21.1140 C   0  0  0  0  0  3  0  0  0  0  0  0
  -28.5870  -23.6280   20.3130 C   0  0  0  0  0  0  0  0  0  0  0  0
  -28.7890  -23.1740   19.0230 C   0  0  0  0  0  0  0  0  0  0  0  0
  -29.1650  -21.3330   20.3340 C   0  0  0  0  0  0  0  0  0  0  0  0
  -28.6610  -23.9390   17.7400 C   0  0  0  0  0  1  0  0  0  0  0  0
  -29.4400  -20.9900   17.8490 C   0  0  0  0  0  1  0  0  0  0  0  0
  -29.1370  -21.7980   19.0240 N   0  0  0  0  0  0  0  0  0  0  0  0
  -29.5090  -20.0080   20.8350 N   0  0  0  0  0  0  0  0  0  0  0  0
  -29.5690  -19.9500   21.8490 H   0  0  0  0  0  0  0  0  0  0  0  0
  -30.4820  -18.1100   19.2990 C   0  0  0  0  0  2  0  0  0  0  0  0
  -29.3760  -18.6470   20.1750 C   0  0  0  0  0  3  0  0  0  0  0  0
  -30.2230  -17.3420   20.5790 C   0  0  0  0  0  3  0  0  0  0  0  0
  -30.5600  -14.7630   20.3590 C   0  0  0  0  0  0  0  0  0  0  0  0
  -30.3590  -12.4840   19.3530 C   0  0  0  0  0  2  0  0  0  0  0  0
  -29.4210  -12.5550   18.1290 C   0  0  0  0  0  2  0  0  0  0  0  0
  -27.9510  -12.3850   18.5610 C   0  0  0  0  0  2  0  0  0  0  0  0
  -27.5760  -13.2730   19.7780 C   0  0  0  0  0  3  0  0  0  0  0  0
  -28.6360  -13.1910   20.8960 C   0  0  0  0  0  2  0  0  0  0  0  0
  -29.9270  -13.5430   20.2930 N   0  0  0  0  0  0  0  0  0  0  0  0
  -31.7620  -14.8480   20.0910 O   0  0  0  0  0  0  0  0  0  0  0  0
  -29.7850  -15.9080   20.4950 N   0  0  0  0  0  0  0  0  0  0  0  0
  -28.7990  -15.7430   20.6230 H   0  0  0  0  0  0  0  0  0  0  0  0
  -25.1870  -13.8600   20.5040 C   0  0  0  0  0  0  0  0  0  0  0  0
  -24.1230  -13.0840   20.8770 C   0  0  0  0  0  0  0  0  0  0  0  0
  -24.5910  -11.7340   20.8550 C   0  0  0  0  0  0  0  0  0  0  0  0
  -26.2340  -12.9820   20.2730 N   0  0  0  0  0  0  0  0  0  0  0  0
  -25.8820  -11.7000   20.5490 N   0  0  0  0  0  0  0  0  0  0  0  0
  -23.8680  -10.4710   21.0520 C   0  0  0  0  0  0  0  0  0  0  0  0
  -24.3110   -9.5020   21.9790 C   0  0  0  0  0  3  0  0  0  0  0  0
  -23.5870   -8.3040   22.1640 C   0  0  0  0  0  3  0  0  0  0  0  0
  -22.4070   -8.0670   21.4190 C   0  0  0  0  0  0  0  0  0  0  0  0
  -21.9840   -9.0240   20.4820 C   0  0  0  0  0  3  0  0  0  0  0  0
  -22.7080  -10.2140   20.2950 C   0  0  0  0  0  3  0  0  0  0  0  0
  -21.6540   -6.9220   21.5140 O   0  0  0  0  0  0  0  0  0  0  0  0
  -21.6300   -6.1680   22.6600 C   0  0  0  0  0  0  0  0  0  0  0  0
  -21.2430   -6.7140   23.9030 C   0  0  0  0  0  3  0  0  0  0  0  0
  -21.1650   -5.8870   25.0420 C   0  0  0  0  0  3  0  0  0  0  0  0
  -21.4650   -4.5160   24.9390 C   0  0  0  0  0  0  0  0  0  0  0  0
  -21.8470   -3.9680   23.7010 C   0  0  0  0  0  3  0  0  0  0  0  0
  -21.9250   -4.7930   22.5630 C   0  0  0  0  0  0  0  0  0  0  0  0
  -22.2730   -4.2570   21.3690 F   0  0  0  0  0  0  0  0  0  0  0  0
  -21.3840   -3.7190   26.0300 F   0  0  0  0  0  0  0  0  0  0  0  0
  -22.7250  -13.5580   21.1420 C   0  0  0  0  0  0  0  0  0  0  0  0
  -21.9970  -12.8650   22.0090 N   0  0  0  0  0  0  0  0  0  0  0  0
  -22.2850  -14.5790   20.6140 O   0  0  0  0  0  0  0  0  0  0  0  0
  -22.3640  -12.0380   22.4560 H   0  0  0  0  0  0  0  0  0  0  0  0
  -21.0580  -13.1660   22.2310 H   0  0  0  0  0  0  0  0  0  0  0  0
  -25.3440  -15.2300   20.3160 N   0  0  0  0  0  0  0  0  0  0  0  0
  -24.5670  -15.8760   20.4160 H   0  0  0  0  0  0  0  0  0  0  0  0
  -26.1770  -15.6710   19.9500 H   0  0  0  0  0  0  0  0  0  0  0  0
  -28.0650  -25.0460   20.8570 C   0  0  0  0  0  2  0  0  0  0  0  0
  -28.2980  -26.3760   20.1960 O   0  0  0  0  0  0  0  0  0  0  0  0
  -24.6100  -31.8850   23.2390 C   0  0  0  0  0  0  0  0  0  0  0  0
  -27.2150  -27.2830   20.1940 C   0  0  0  0  0  0  0  0  0  0  0  0
  -23.4070  -30.4820   21.6040 C   0  0  0  0  0  3  0  0  0  0  0  0
  -24.8580  -28.9230   20.1800 C   0  0  0  0  0  0  0  0  0  0  0  0
  -25.9500  -30.7900   21.4190 C   0  0  0  0  0  2  0  0  0  0  0  0
  -26.0320  -29.4050   20.7770 C   0  0  0  0  0  0  0  0  0  0  0  0
  -27.2160  -28.5980   20.7710 C   0  0  0  0  0  3  0  0  0  0  0  0
  -26.0220  -26.8670   19.5690 C   0  0  0  0  0  3  0  0  0  0  0  0
  -24.8580  -27.6620   19.5640 C   0  0  0  0  0  3  0  0  0  0  0  0
  -23.6220  -29.8020   20.2260 C   0  0  0  0  0  2  0  0  0  0  0  0
  -24.6740  -31.0700   22.1440 N   0  0  0  0  0  0  0  0  0  0  0  0
  -23.5250  -32.1650   23.7720 O   0  0  0  0  0  0  0  0  0  0  0  0
  -22.7410  -29.4690   22.5680 C   0  0  0  0  0  0  0  0  0  0  0  0
  -21.4140  -29.2910   22.4400 N   0  0  0  0  0  0  0  0  0  0  0  0
  -23.4170  -28.8450   23.3890 O   0  0  0  0  0  0  0  0  0  0  0  0
  -20.9260  -29.8460   21.7490 H   0  0  0  0  0  0  0  0  0  0  0  0
  -18.0380  -28.0860   22.9350 C   0  0  0  0  0  0  0  0  0  0  0  0
  -20.5950  -28.3560   23.2130 C   0  0  0  0  0  3  0  0  0  0  0  0
  -20.7040  -26.9220   22.6450 C   0  0  0  0  0  2  0  0  0  0  0  0
  -19.6060  -26.5910   21.6270 C   0  0  0  0  0  2  0  0  0  0  0  0
  -18.2220  -26.7350   22.2650 C   0  0  0  0  0  2  0  0  0  0  0  0
  -19.1530  -28.8540   23.3650 C   0  0  0  0  0  0  0  0  0  0  0  0
  -18.9270  -30.1190   23.9510 C   0  0  0  0  0  3  0  0  0  0  0  0
  -17.6200  -30.6170   24.1100 C   0  0  0  0  0  3  0  0  0  0  0  0
  -16.5200  -29.8450   23.6960 C   0  0  0  0  0  3  0  0  0  0  0  0
  -16.7290  -28.5830   23.1140 C   0  0  0  0  0  3  0  0  0  0  0  0
  -25.8910  -32.5200   23.8600 C   0  0  0  0  0  3  0  0  0  0  0  0
  -26.4050  -31.7520   25.1400 C   0  0  1  0  0  0  0  0  0  0  0  0
  -25.3080  -31.5220   26.2070 C   0  0  0  0  0  1  0  0  0  0  0  0
  -26.9850  -30.3720   24.7550 C   0  0  0  0  0  1  0  0  0  0  0  0
  -27.5580  -32.5450   25.7980 C   0  0  0  0  0  1  0  0  0  0  0  0
  -25.5810  -33.9190   24.1890 N   0  0  0  0  0  0  0  0  0  0  0  0
  -25.9130  -34.9720   23.4300 C   0  0  0  0  0  0  0  0  0  0  0  0
  -26.5830  -34.8670   22.3990 O   0  0  0  0  0  0  0  0  0  0  0  0
  -24.9900  -34.0750   24.9930 H   0  0  0  0  0  0  0  0  0  0  0  0
  -24.1860  -36.7670   23.0760 C   0  0  0  0  0  1  0  0  0  0  0  0
  -25.4270  -36.3610   23.8870 C   0  0  0  0  0  3  0  0  0  0  0  0
  -27.5640  -37.2440   24.7160 C   0  0  0  0  0  1  0  0  0  0  0  0
  -26.4620  -37.4130   23.7730 N   0  0  0  0  0  0  0  0  0  0  0  0
  -26.0570  -38.3340   23.9220 H   0  0  0  0  0  0  0  0  0  0  0  0
  2 51  1  0
  2  1  1  0
  3  7  1  0
  3  2  2  0
  4  8  1  0
  4  1  2  0
  5  3  1  0
  6  7  1  0
  7  4  1  0
  8  9  1  0
 10 11  1  0
 10 12  1  0
 11 12  1  0
 11  8  1  0
 12 21  1  0
 13 21  1  0
 14 19  1  0
 15 16  1  0
 15 14  1  0
 17 16  1  0
 17 26  1  0
 17 18  1  0
 19 13  1  0
 19 18  1  0
 20 13  2  0
 21 22  1  0
 23 24  2  0
 24 43  1  0
 25 24  1  0
 25 28  1  0
 26 23  1  0
 26 27  1  0
 27 25  2  0
 28 29  1  0
 29 30  2  0
 31 34  1  0
 31 30  1  0
 32 31  2  0
 33 32  1  0
 33 28  2  0
 34 35  1  0
 35 36  1  0
 36 37  2  0
 38 37  1  0
 38 42  1  0
 39 38  2  0
 40 35  2  0
 40 39  1  0
 41 40  1  0
 43 44  1  0
 44 47  1  0
 44 46  1  0
 45 43  2  0
 48 49  1  0
 48 23  1  0
 50 48  1  0
 52 51  1  0
 53 64  2  0
 54 52  1  0
 54 59  1  0
 55 63  1  0
 55 65  1  0
 56 62  1  0
 56 58  1  0
 57 63  1  0
 58 57  1  0
 59 58  2  0
 60 54  2  0
 61 60  1  0
 61 56  2  0
 62 55  1  0
 63 53  1  0
 65 67  2  0
 66 65  1  0
 68 66  1  0
 69 78  2  0
 69 74  1  0
 70 66  1  0
 70 74  1  0
 71 70  1  0
 72 73  1  0
 72 71  1  0
 73 69  1  0
 74 75  2  0
 75 76  1  0
 77 76  2  0
 78 77  1  0
 79 53  1  0
 79 84  1  0
 79 80  1  0
 80 83  1  1
 80 81  1  0
 82 80  1  0
 84 87  1  0
 85 89  1  0
 85 84  1  0
 86 85  2  0
 89 88  1  0
 91 89  1  0
 91 92  1  0
 91 90  1  0
M  ISO  4  13 100  21 100  51 101  52 101
M  END
>  <TORSDO>  (72) 
F 19

>  <SCORE>  (72) 
-14.372

>  <name>  (72) 
71

>  <ligand_id>  (72) 
71

>  <original_smiles>  (72) 
[H]c1c([H])c([H])c2c(c1[H])C([H])([H])C([H])([H])C([H])([H])C2([H])N([H])C(=O)C1([H])N(C(=O)C([H])(N([H])C(=O)C([H])(N([H])C([H])([H])[H])C([H])([H])[H])C(C([H])([H])[H])(C([H])([H])[H])C([H])([H])[H])C([H])([H])c2c([H])c(OC([H])([H])c3c([H])c(N([H])C4([H])C([H])([H])C4([H])N([H])C(=O)N4C([H])([H])C([H])([H])C([H])([H])C([H])(n5nc(-c6c([H])c([H])c(Oc7c([H])c([H])c(F)c([H])c7F)c([H])c6[H])c(C(=O)N([H])[H])c5N([H])[H])C4([H])[H])n(C([H])([H])[H])c3C([H])([H])[H])c([H])c([H])c2C1([H])[H]

>  <smiles>  (72) 
[H]c1c([H])c([H])c2c(c1[H])C([H])([H])C([H])([H])C([H])([H])C2([H])N([H])C(=O)C1([H])N(C(=O)C([H])(N([H])C(=O)C([H])(N([H])C([H])([H])[H])C([H])([H])[H])C(C([H])([H])[H])(C([H])([H])[H])C([H])([H])[H])C([H])([H])c2c([H])c(OC([H])([H])c3c([H])c(N([H])C4([H])C([H])([H])C4([H])N([H])C(=O)N4C([H])([H])C([H])([H])C([H])([H])C([H])(n5nc(-c6c([H])c([H])c(Oc7c([H])c([H])c(F)c([H])c7F)c([H])c6[H])c(C(=O)N([H])[H])c5N([H])[H])C4([H])[H])n(C([H])([H])[H])c3C([H])([H])[H])c([H])c([H])c2C1([H])[H]

$$$$
72:0:0
     RDKit          3D

 96105  0  0  1  0  0  0  0  0999 V2000
  -29.4890  -20.5480   20.7070 C   0  0  0  0  0  3  0  0  0  0  0  0
  -29.1730  -21.7810   19.9250 C   0  0  0  0  0  0  0  0  0  0  0  0
  -29.0760  -21.4690   18.5360 C   0  0  0  0  0  0  0  0  0  0  0  0
  -29.5130  -19.1610   20.1590 C   0  0  0  0  0  0  0  0  0  0  0  0
  -28.8440  -20.1090   18.1290 C   0  0  0  0  0  0  0  0  0  0  0  0
  -30.6200  -23.4520   18.2100 C   0  0  0  0  0  2  0  0  0  0  0  0
  -29.2710  -23.4050   20.3580 C   0  0  0  0  0  3  0  0  0  0  0  0
  -29.5150  -22.5760   17.5360 C   0  0  2  0  0  0  0  0  0  0  0  0
  -28.3270  -19.7170   16.7550 C   0  0  0  0  0  1  0  0  0  0  0  0
  -28.3350  -23.4020   16.9830 C   0  0  0  0  0  1  0  0  0  0  0  0
  -30.2560  -22.0150   16.2920 C   0  0  0  0  0  1  0  0  0  0  0  0
  -31.5230  -24.4450   20.2770 C   0  0  0  0  0  1  0  0  0  0  0  0
  -29.0680  -19.0180   18.9030 N   0  0  0  0  0  0  0  0  0  0  0  0
  -30.3020  -24.0710   19.5230 N   0  0  1  0  0  4  0  0  0  0  0  0
  -29.8680  -24.9530   19.2890 H   0  0  0  0  0  0  0  0  0  0  0  0
  -30.1340  -17.7630   20.8080 C   0  0  0  0  0  2  0  0  0  0  0  0
  -30.5510  -15.0540   20.3060 C   0  0  0  0  0  0  0  0  0  0  0  0
  -30.4290  -12.7220   19.2920 C   0  0  0  0  0  2  0  0  0  0  0  0
  -29.4810  -12.6760   18.0710 C   0  0  0  0  0  2  0  0  0  0  0  0
  -28.0250  -12.4450   18.5190 C   0  0  0  0  0  2  0  0  0  0  0  0
  -27.6230  -13.3490   19.7120 C   0  0  0  0  0  3  0  0  0  0  0  0
  -28.6910  -13.3580   20.8240 C   0  0  0  0  0  2  0  0  0  0  0  0
  -29.9450  -13.8000   20.2020 N   0  0  0  0  0  0  0  0  0  0  0  0
  -31.7650  -15.1020   20.0840 O   0  0  0  0  0  0  0  0  0  0  0  0
  -29.7830  -16.2490   20.4660 N   0  0  0  0  0  0  0  0  0  0  0  0
  -28.7900  -16.0820   20.4640 H   0  0  0  0  0  0  0  0  0  0  0  0
  -25.2430  -13.9010   20.4670 C   0  0  0  0  0  0  0  0  0  0  0  0
  -24.1890  -13.1150   20.8420 C   0  0  0  0  0  0  0  0  0  0  0  0
  -24.6680  -11.7690   20.8090 C   0  0  0  0  0  0  0  0  0  0  0  0
  -26.2930  -13.0340   20.2200 N   0  0  0  0  0  0  0  0  0  0  0  0
  -25.9570  -11.7460   20.4940 N   0  0  0  0  0  0  0  0  0  0  0  0
  -23.9540  -10.5000   20.9980 C   0  0  0  0  0  0  0  0  0  0  0  0
  -24.3770   -9.5490   21.9520 C   0  0  0  0  0  3  0  0  0  0  0  0
  -23.6600   -8.3460   22.1300 C   0  0  0  0  0  3  0  0  0  0  0  0
  -22.5090   -8.0840   21.3520 C   0  0  0  0  0  0  0  0  0  0  0  0
  -22.1050   -9.0230   20.3870 C   0  0  0  0  0  3  0  0  0  0  0  0
  -22.8210  -10.2180   20.2080 C   0  0  0  0  0  3  0  0  0  0  0  0
  -21.7660   -6.9300   21.4380 O   0  0  0  0  0  0  0  0  0  0  0  0
  -21.6770   -6.2160   22.6060 C   0  0  0  0  0  0  0  0  0  0  0  0
  -21.1630   -6.7860   23.7900 C   0  0  0  0  0  3  0  0  0  0  0  0
  -21.0240   -5.9960   24.9490 C   0  0  0  0  0  3  0  0  0  0  0  0
  -21.3910   -4.6380   24.9230 C   0  0  0  0  0  0  0  0  0  0  0  0
  -21.8980   -4.0670   23.7430 C   0  0  0  0  0  3  0  0  0  0  0  0
  -22.0380   -4.8540   22.5870 C   0  0  0  0  0  0  0  0  0  0  0  0
  -22.5070   -4.2940   21.4460 F   0  0  0  0  0  0  0  0  0  0  0  0
  -21.2520   -3.8760   26.0340 F   0  0  0  0  0  0  0  0  0  0  0  0
  -22.7870  -13.5770   21.1130 C   0  0  0  0  0  0  0  0  0  0  0  0
  -22.0630  -12.8690   21.9710 N   0  0  0  0  0  0  0  0  0  0  0  0
  -22.3430  -14.6030   20.5980 O   0  0  0  0  0  0  0  0  0  0  0  0
  -22.4360  -12.0410   22.4100 H   0  0  0  0  0  0  0  0  0  0  0  0
  -21.1220  -13.1600   22.1930 H   0  0  0  0  0  0  0  0  0  0  0  0
  -25.3890  -15.2740   20.2900 N   0  0  0  0  0  0  0  0  0  0  0  0
  -24.6080  -15.9120   20.4000 H   0  0  0  0  0  0  0  0  0  0  0  0
  -26.2140  -15.7240   19.9170 H   0  0  0  0  0  0  0  0  0  0  0  0
  -28.0630  -24.6010   20.4540 C   0  0  0  0  0  2  0  0  0  0  0  0
  -28.3010  -26.1630   20.4170 O   0  0  0  0  0  0  0  0  0  0  0  0
  -24.6270  -31.9500   23.2330 C   0  0  0  0  0  0  0  0  0  0  0  0
  -27.2370  -27.1470   20.3410 C   0  0  0  0  0  0  0  0  0  0  0  0
  -23.4440  -30.5130   21.6180 C   0  0  0  0  0  3  0  0  0  0  0  0
  -24.9070  -28.9050   20.2440 C   0  0  0  0  0  0  0  0  0  0  0  0
  -26.0010  -30.7730   21.4700 C   0  0  0  0  0  2  0  0  0  0  0  0
  -26.0820  -29.3630   20.8520 C   0  0  0  0  0  0  0  0  0  0  0  0
  -27.2480  -28.5020   20.8790 C   0  0  0  0  0  3  0  0  0  0  0  0
  -26.0340  -26.7990   19.6870 C   0  0  0  0  0  3  0  0  0  0  0  0
  -24.8980  -27.6380   19.6450 C   0  0  0  0  0  3  0  0  0  0  0  0
  -23.6800  -29.8040   20.2580 C   0  0  0  0  0  2  0  0  0  0  0  0
  -24.7100  -31.1020   22.1610 N   0  0  0  0  0  0  0  0  0  0  0  0
  -23.5360  -32.2440   23.7440 O   0  0  0  0  0  0  0  0  0  0  0  0
  -22.7570  -29.5280   22.5980 C   0  0  0  0  0  0  0  0  0  0  0  0
  -21.4310  -29.3490   22.4620 N   0  0  0  0  0  0  0  0  0  0  0  0
  -23.4220  -28.9260   23.4450 O   0  0  0  0  0  0  0  0  0  0  0  0
  -20.9500  -29.8870   21.7540 H   0  0  0  0  0  0  0  0  0  0  0  0
  -18.0470  -28.1610   22.9760 C   0  0  0  0  0  0  0  0  0  0  0  0
  -20.6050  -28.4280   23.2480 C   0  0  0  0  0  3  0  0  0  0  0  0
  -20.7080  -26.9850   22.7040 C   0  0  0  0  0  2  0  0  0  0  0  0
  -19.6110  -26.6410   21.6920 C   0  0  0  0  0  2  0  0  0  0  0  0
  -18.2270  -26.7990   22.3270 C   0  0  0  0  0  2  0  0  0  0  0  0
  -19.1640  -28.9320   23.3950 C   0  0  0  0  0  0  0  0  0  0  0  0
  -18.9410  -30.2050   23.9640 C   0  0  0  0  0  3  0  0  0  0  0  0
  -17.6350  -30.7060   24.1170 C   0  0  0  0  0  3  0  0  0  0  0  0
  -16.5330  -29.9340   23.7140 C   0  0  0  0  0  3  0  0  0  0  0  0
  -16.7390  -28.6620   23.1480 C   0  0  0  0  0  3  0  0  0  0  0  0
  -25.8970  -32.6040   23.8570 C   0  0  0  0  0  3  0  0  0  0  0  0
  -25.5710  -34.0040   24.1750 N   0  0  0  0  0  0  0  0  0  0  0  0
  -25.9010  -35.0570   23.4140 C   0  0  0  0  0  0  0  0  0  0  0  0
  -26.5760  -34.9530   22.3880 O   0  0  0  0  0  0  0  0  0  0  0  0
  -24.9720  -34.1590   24.9720 H   0  0  0  0  0  0  0  0  0  0  0  0
  -24.1710  -36.8480   23.0380 C   0  0  0  0  0  1  0  0  0  0  0  0
  -25.4040  -36.4460   23.8640 C   0  0  0  0  0  3  0  0  0  0  0  0
  -27.5210  -37.3460   24.7260 C   0  0  0  0  0  1  0  0  0  0  0  0
  -26.4350  -37.5030   23.7630 N   0  0  0  0  0  0  0  0  0  0  0  0
  -26.0220  -38.4220   23.8970 H   0  0  0  0  0  0  0  0  0  0  0  0
  -26.4110  -31.8540   25.1470 C   0  0  1  0  0  0  0  0  0  0  0  0
  -25.3090  -31.6120   26.2060 C   0  0  0  0  0  1  0  0  0  0  0  0
  -27.0190  -30.4810   24.7820 C   0  0  0  0  0  1  0  0  0  0  0  0
  -27.5410  -32.6740   25.8140 C   0  0  0  0  0  1  0  0  0  0  0  0
  2  7  1  0
  2  1  2  0
  3  2  1  0
  4  1  1  0
  4 16  1  0
  5  3  2  0
  5 13  1  0
  6 14  1  0
  7 55  1  0
  8  6  1  0
  8  3  1  0
  9  5  1  0
  8 10  1  6
 11  8  1  0
 13  4  2  0
 14 12  1  0
 14  7  1  0
 14 15  1  6
 17 25  1  0
 18 23  1  0
 19 20  1  0
 19 18  1  0
 21 20  1  0
 21 30  1  0
 21 22  1  0
 23 17  1  0
 23 22  1  0
 24 17  2  0
 25 16  1  0
 26 25  1  0
 27 28  2  0
 28 47  1  0
 29 28  1  0
 29 32  1  0
 30 27  1  0
 30 31  1  0
 31 29  2  0
 32 33  1  0
 33 34  2  0
 35 38  1  0
 35 34  1  0
 36 35  2  0
 37 36  1  0
 37 32  2  0
 38 39  1  0
 39 40  1  0
 40 41  2  0
 42 41  1  0
 42 46  1  0
 43 42  2  0
 44 39  2  0
 44 43  1  0
 45 44  1  0
 47 48  1  0
 48 51  1  0
 48 50  1  0
 49 47  2  0
 52 53  1  0
 52 27  1  0
 54 52  1  0
 56 55  1  0
 57 68  2  0
 58 56  1  0
 58 63  1  0
 59 67  1  0
 59 69  1  0
 60 66  1  0
 60 62  1  0
 61 67  1  0
 62 63  2  0
 62 61  1  0
 64 58  2  0
 65 64  1  0
 65 60  2  0
 66 59  1  0
 67 57  1  0
 69 71  2  0
 70 69  1  0
 72 70  1  0
 73 82  2  0
 73 78  1  0
 74 70  1  0
 74 78  1  0
 75 74  1  0
 76 77  1  0
 76 75  1  0
 77 73  1  0
 78 79  2  0
 79 80  1  0
 81 80  2  0
 82 81  1  0
 83 57  1  0
 83 84  1  0
 83 93  1  0
 84 87  1  0
 85 89  1  0
 85 84  1  0
 86 85  2  0
 89 88  1  0
 91 89  1  0
 91 92  1  0
 91 90  1  0
 93 96  1  1
 93 94  1  0
 95 93  1  0
M  ISO  4  17 100  25 100  55 101  56 101
M  END
>  <TORSDO>  (73) 
F 18

>  <SCORE>  (73) 
-15.418

>  <name>  (73) 
72

>  <ligand_id>  (73) 
72

>  <original_smiles>  (73) 
[H]c1c([H])c([H])c2c(c1[H])C([H])([H])C([H])([H])C([H])([H])C2([H])N([H])C(=O)C1([H])N(C(=O)C([H])(N([H])C(=O)C([H])(N([H])C([H])([H])[H])C([H])([H])[H])C(C([H])([H])[H])(C([H])([H])[H])C([H])([H])[H])C([H])([H])c2c([H])c(OC([H])([H])C3([H])c4c([H])c(C([H])([H])N([H])C(=O)N5C([H])([H])C([H])([H])C([H])([H])C([H])(n6nc(-c7c([H])c([H])c(Oc8c([H])c([H])c(F)c([H])c8F)c([H])c7[H])c(C(=O)N([H])[H])c6N([H])[H])C5([H])[H])nc(C([H])([H])[H])c4C(C([H])([H])[H])(C([H])([H])[H])C([H])([H])[N+]3([H])C([H])([H])[H])c([H])c([H])c2C1([H])[H]

>  <smiles>  (73) 
[H]c1c([H])c([H])c2c(c1[H])C([H])([H])C([H])([H])C([H])([H])C2([H])N([H])C(=O)C1([H])N(C(=O)C([H])(N([H])C(=O)C([H])(N([H])C([H])([H])[H])C([H])([H])[H])C(C([H])([H])[H])(C([H])([H])[H])C([H])([H])[H])C([H])([H])c2c([H])c(OC([H])([H])C3([H])c4c([H])c(C([H])([H])N([H])C(=O)N5C([H])([H])C([H])([H])C([H])([H])C([H])(n6nc(-c7c([H])c([H])c(Oc8c([H])c([H])c(F)c([H])c8F)c([H])c7[H])c(C(=O)N([H])[H])c6N([H])[H])C5([H])[H])nc(C([H])([H])[H])c4C(C([H])([H])[H])(C([H])([H])[H])C([H])([H])[N+]3([H])C([H])([H])[H])c([H])c([H])c2C1([H])[H]

$$$$
73:0:0
     RDKit          3D

 91100  0  0  1  0  0  0  0  0999 V2000
  -30.3530  -19.7840   20.8070 C   0  0  0  0  0  3  0  0  0  0  0  0
  -30.2930  -21.2330   20.8290 C   0  0  0  0  0  0  0  0  0  0  0  0
  -29.3220  -22.0020   20.0800 C   0  0  0  0  0  0  0  0  0  0  0  0
  -29.4540  -18.9980   20.0370 C   0  0  0  0  0  0  0  0  0  0  0  0
  -28.4570  -21.1290   19.3480 C   0  0  0  0  0  0  0  0  0  0  0  0
  -31.3200  -21.9510   21.6860 C   0  0  0  0  0  1  0  0  0  0  0  0
  -27.3480  -21.7120   18.4940 C   0  0  0  0  0  1  0  0  0  0  0  0
  -28.5270  -19.7400   19.3410 N   0  0  0  0  0  0  0  0  0  0  0  0
  -30.7260  -14.9720   19.9550 C   0  0  0  0  0  0  0  0  0  0  0  0
  -30.4670  -12.6650   18.9510 C   0  0  0  0  0  2  0  0  0  0  0  0
  -29.4500  -12.7060   17.7870 C   0  0  0  0  0  2  0  0  0  0  0  0
  -28.0180  -12.4890   18.3090 C   0  0  0  0  0  2  0  0  0  0  0  0
  -27.7150  -13.3400   19.5710 C   0  0  0  0  0  3  0  0  0  0  0  0
  -28.8590  -13.2960   20.6070 C   0  0  0  0  0  2  0  0  0  0  0  0
  -30.0900  -13.7290   19.9280 N   0  0  0  0  0  0  0  0  0  0  0  0
  -31.8250  -15.0540   19.3940 O   0  0  0  0  0  0  0  0  0  0  0  0
  -28.4450  -16.9670   21.2470 C   0  0  0  0  0  2  0  0  0  0  0  0
  -29.7290  -16.4040   21.8580 C   0  0  0  0  0  2  0  0  0  0  0  0
  -29.2630  -17.3650   20.0150 C   0  0  0  0  0  3  0  0  0  0  0  0
  -30.1400  -16.1530   20.4810 N   0  0  0  0  0  0  0  0  0  0  0  0
  -25.3870  -13.8540   20.5160 C   0  0  0  0  0  0  0  0  0  0  0  0
  -24.3720  -13.0530   20.9580 C   0  0  0  0  0  0  0  0  0  0  0  0
  -24.8450  -11.7100   20.8290 C   0  0  0  0  0  0  0  0  0  0  0  0
  -26.4220  -13.0040   20.1600 N   0  0  0  0  0  0  0  0  0  0  0  0
  -26.1060  -11.7040   20.4070 N   0  0  0  0  0  0  0  0  0  0  0  0
  -24.1410  -10.4360   21.0240 C   0  0  0  0  0  0  0  0  0  0  0  0
  -24.5920   -9.4760   21.9570 C   0  0  0  0  0  3  0  0  0  0  0  0
  -23.8820   -8.2710   22.1430 C   0  0  0  0  0  3  0  0  0  0  0  0
  -22.7080   -8.0140   21.3960 C   0  0  0  0  0  0  0  0  0  0  0  0
  -22.2760   -8.9630   20.4520 C   0  0  0  0  0  3  0  0  0  0  0  0
  -22.9870  -10.1610   20.2640 C   0  0  0  0  0  3  0  0  0  0  0  0
  -21.9690   -6.8590   21.4890 O   0  0  0  0  0  0  0  0  0  0  0  0
  -21.8390   -6.1820   22.6740 C   0  0  0  0  0  0  0  0  0  0  0  0
  -21.2740   -6.7870   23.8180 C   0  0  0  0  0  3  0  0  0  0  0  0
  -21.0980   -6.0370   24.9970 C   0  0  0  0  0  3  0  0  0  0  0  0
  -21.4750   -4.6810   25.0330 C   0  0  0  0  0  0  0  0  0  0  0  0
  -22.0320   -4.0750   23.8920 C   0  0  0  0  0  3  0  0  0  0  0  0
  -22.2100   -4.8240   22.7150 C   0  0  0  0  0  0  0  0  0  0  0  0
  -22.7300   -4.2300   21.6130 F   0  0  0  0  0  0  0  0  0  0  0  0
  -21.2990   -3.9550   26.1610 F   0  0  0  0  0  0  0  0  0  0  0  0
  -23.0040  -13.5070   21.3690 C   0  0  0  0  0  0  0  0  0  0  0  0
  -22.3670  -12.7840   22.2830 N   0  0  0  0  0  0  0  0  0  0  0  0
  -22.5100  -14.5410   20.9180 O   0  0  0  0  0  0  0  0  0  0  0  0
  -22.7820  -11.9470   22.6650 H   0  0  0  0  0  0  0  0  0  0  0  0
  -21.4550  -13.0730   22.6050 H   0  0  0  0  0  0  0  0  0  0  0  0
  -25.4940  -15.2290   20.3560 N   0  0  0  0  0  0  0  0  0  0  0  0
  -24.7050  -15.8440   20.5240 H   0  0  0  0  0  0  0  0  0  0  0  0
  -26.2500  -15.6830   19.8610 H   0  0  0  0  0  0  0  0  0  0  0  0
  -29.3720  -23.6560   19.9830 C   0  0  0  0  0  3  0  0  0  0  0  0
  -28.1500  -24.7780   19.9280 C   0  0  0  0  0  3  0  0  0  0  0  0
  -28.3810  -26.3040   20.0060 O   0  0  0  0  0  0  0  0  0  0  0  0
  -24.6840  -31.8350   23.1260 C   0  0  0  0  0  0  0  0  0  0  0  0
  -27.2950  -27.2400   19.9850 C   0  0  0  0  0  0  0  0  0  0  0  0
  -23.4930  -30.4810   21.4430 C   0  0  0  0  0  3  0  0  0  0  0  0
  -24.9500  -28.9440   19.9960 C   0  0  0  0  0  0  0  0  0  0  0  0
  -26.0450  -30.7660   21.2950 C   0  0  0  0  0  2  0  0  0  0  0  0
  -26.1250  -29.3930   20.6130 C   0  0  0  0  0  0  0  0  0  0  0  0
  -27.3020  -28.5570   20.5870 C   0  0  0  0  0  3  0  0  0  0  0  0
  -26.0890  -26.8810   19.3460 C   0  0  0  0  0  3  0  0  0  0  0  0
  -24.9420  -27.7000   19.3490 C   0  0  0  0  0  3  0  0  0  0  0  0
  -23.7200  -29.8340   20.0520 C   0  0  0  0  0  2  0  0  0  0  0  0
  -24.7600  -31.0460   22.0110 N   0  0  0  0  0  0  0  0  0  0  0  0
  -23.5950  -32.1040   23.6550 O   0  0  0  0  0  0  0  0  0  0  0  0
  -22.8090  -29.4500   22.3770 C   0  0  0  0  0  0  0  0  0  0  0  0
  -21.4800  -29.2900   22.2440 N   0  0  0  0  0  0  0  0  0  0  0  0
  -23.4770  -28.7980   23.1830 O   0  0  0  0  0  0  0  0  0  0  0  0
  -20.9990  -29.8730   21.5730 H   0  0  0  0  0  0  0  0  0  0  0  0
  -18.0840  -28.1410   22.7590 C   0  0  0  0  0  0  0  0  0  0  0  0
  -20.6530  -28.3360   22.9870 C   0  0  0  0  0  3  0  0  0  0  0  0
  -20.7090  -26.9280   22.3500 C   0  0  0  0  0  2  0  0  0  0  0  0
  -19.5830  -26.6750   21.3440 C   0  0  0  0  0  2  0  0  0  0  0  0
  -18.2180  -26.8210   22.0200 C   0  0  0  0  0  2  0  0  0  0  0  0
  -19.2280  -28.8610   23.1990 C   0  0  0  0  0  0  0  0  0  0  0  0
  -19.0460  -30.0980   23.8530 C   0  0  0  0  0  3  0  0  0  0  0  0
  -17.7540  -30.6180   24.0670 C   0  0  0  0  0  3  0  0  0  0  0  0
  -16.6260  -29.8970   23.6380 C   0  0  0  0  0  3  0  0  0  0  0  0
  -16.7940  -28.6590   22.9910 C   0  0  0  0  0  3  0  0  0  0  0  0
  -25.9600  -32.4510   23.7770 C   0  0  0  0  0  3  0  0  0  0  0  0
  -25.6430  -33.8390   24.1490 N   0  0  0  0  0  0  0  0  0  0  0  0
  -25.9460  -34.9170   23.4130 C   0  0  0  0  0  0  0  0  0  0  0  0
  -26.5890  -34.8470   22.3620 O   0  0  0  0  0  0  0  0  0  0  0  0
  -25.0660  -33.9650   24.9690 H   0  0  0  0  0  0  0  0  0  0  0  0
  -24.1840  -36.6990   23.1660 C   0  0  0  0  0  1  0  0  0  0  0  0
  -25.4600  -36.2900   23.9200 C   0  0  0  0  0  3  0  0  0  0  0  0
  -27.6120  -37.1900   24.6910 C   0  0  0  0  0  1  0  0  0  0  0  0
  -26.4750  -37.3600   23.7900 N   0  0  0  0  0  0  0  0  0  0  0  0
  -26.0630  -38.2710   23.9660 H   0  0  0  0  0  0  0  0  0  0  0  0
  -26.4650  -31.6450   25.0370 C   0  0  1  0  0  0  0  0  0  0  0  0
  -25.3640  -31.3710   26.0870 C   0  0  0  0  0  1  0  0  0  0  0  0
  -27.0580  -30.2810   24.6140 C   0  0  0  0  0  1  0  0  0  0  0  0
  -27.6060  -32.4240   25.7320 C   0  0  0  0  0  1  0  0  0  0  0  0
  1  2  1  0
  2  6  1  0
  3  2  2  0
  4  1  2  0
  5  3  1  0
  7  5  1  0
  8  5  2  0
  8  4  1  0
  9 20  1  0
 10 15  1  0
 11 12  1  0
 11 10  1  0
 13 12  1  0
 13 24  1  0
 13 14  1  0
 15  9  1  0
 15 14  1  0
 16  9  2  0
 17 18  1  0
 19  4  1  0
 19 20  1  0
 19 17  1  0
 20 18  1  0
 21 22  2  0
 22 41  1  0
 23 22  1  0
 23 26  1  0
 24 25  1  0
 24 21  1  0
 25 23  2  0
 26 27  1  0
 27 28  2  0
 29 32  1  0
 29 28  1  0
 30 29  2  0
 31 30  1  0
 31 26  2  0
 32 33  1  0
 33 38  2  0
 33 34  1  0
 34 35  2  0
 35 36  1  0
 36 40  1  0
 37 36  2  0
 38 37  1  0
 39 38  1  0
 41 42  1  0
 42 45  1  0
 42 44  1  0
 43 41  2  0
 46 21  1  0
 46 47  1  0
 48 46  1  0
 49  3  1  0
 50 49  2  0
 50 51  1  0
 52 63  2  0
 53 51  1  0
 53 58  1  0
 54 62  1  0
 54 64  1  0
 55 61  1  0
 55 57  1  0
 56 62  1  0
 57 56  1  0
 58 57  2  0
 59 60  1  0
 59 53  2  0
 60 55  2  0
 61 54  1  0
 62 52  1  0
 64 66  2  0
 65 64  1  0
 67 65  1  0
 68 77  2  0
 68 73  1  0
 69 65  1  0
 69 73  1  0
 70 69  1  0
 71 72  1  0
 71 70  1  0
 72 68  1  0
 73 74  2  0
 74 75  1  0
 76 75  2  0
 77 76  1  0
 78 52  1  0
 78 79  1  0
 78 88  1  0
 79 82  1  0
 80 84  1  0
 80 79  1  0
 81 80  2  0
 84 83  1  0
 86 84  1  0
 86 87  1  0
 86 85  1  0
 88 91  1  1
 88 89  1  0
 90 88  1  0
M  ISO  4   9 100  20 100  50 101  51 101
M  END
>  <TORSDO>  (74) 
F 18

>  <SCORE>  (74) 
-13.679

>  <name>  (74) 
73

>  <ligand_id>  (74) 
73

>  <original_smiles>  (74) 
[H]c1c([H])c([H])c2c(c1[H])C([H])([H])C([H])([H])C([H])([H])C2([H])N([H])C(=O)C1([H])N(C(=O)C([H])(N([H])C(=O)C([H])(N([H])C([H])([H])[H])C([H])([H])[H])C(C([H])([H])[H])(C([H])([H])[H])C([H])([H])[H])C([H])([H])c2c([H])c(OC([H])([H])C([H])([H])c3c(C([H])([H])[H])nc(C4([H])N(C(=O)N5C([H])([H])C([H])([H])C([H])([H])C([H])(n6nc(-c7c([H])c([H])c(Oc8c([H])c([H])c(F)c([H])c8F)c([H])c7[H])c(C(=O)N([H])[H])c6N([H])[H])C5([H])[H])C([H])([H])C4([H])[H])c([H])c3C([H])([H])[H])c([H])c([H])c2C1([H])[H]

>  <smiles>  (74) 
[H]c1c([H])c([H])c2c(c1[H])C([H])([H])C([H])([H])C([H])([H])C2([H])N([H])C(=O)C1([H])N(C(=O)C([H])(N([H])C(=O)C([H])(N([H])C([H])([H])[H])C([H])([H])[H])C(C([H])([H])[H])(C([H])([H])[H])C([H])([H])[H])C([H])([H])c2c([H])c(OC([H])([H])C([H])([H])c3c(C([H])([H])[H])nc(C4([H])N(C(=O)N5C([H])([H])C([H])([H])C([H])([H])C([H])(n6nc(-c7c([H])c([H])c(Oc8c([H])c([H])c(F)c([H])c8F)c([H])c7[H])c(C(=O)N([H])[H])c6N([H])[H])C5([H])[H])C([H])([H])C4([H])[H])c([H])c3C([H])([H])[H])c([H])c([H])c2C1([H])[H]

$$$$
74:0:0
     RDKit          3D

 95104  0  0  1  0  0  0  0  0999 V2000
  -28.2800  -18.8970   19.2740 C   0  0  0  0  0  3  0  0  0  0  0  0
  -29.1790  -18.8400   20.3560 C   0  0  0  0  0  0  0  0  0  0  0  0
  -28.0320  -20.1240   18.6340 C   0  0  0  0  0  0  0  0  0  0  0  0
  -29.7720  -20.0570   20.7700 C   0  0  0  0  0  0  0  0  0  0  0  0
  -28.6800  -21.2870   19.1070 C   0  0  0  0  0  0  0  0  0  0  0  0
  -27.0810  -20.1610   17.4440 C   0  0  0  0  0  1  0  0  0  0  0  0
  -30.7300  -20.1090   21.9450 C   0  0  0  0  0  1  0  0  0  0  0  0
  -29.5300  -21.2470   20.1610 N   0  0  0  0  0  0  0  0  0  0  0  0
  -30.7060  -14.4390   20.3620 C   0  0  0  0  0  0  0  0  0  0  0  0
  -30.3150  -12.2970   19.2030 C   0  0  0  0  0  2  0  0  0  0  0  0
  -29.3610  -12.5150   18.0130 C   0  0  0  0  0  2  0  0  0  0  0  0
  -27.8950  -12.3710   18.4640 C   0  0  0  0  0  2  0  0  0  0  0  0
  -27.5810  -13.2130   19.7260 C   0  0  0  0  0  3  0  0  0  0  0  0
  -28.6570  -13.0120   20.8250 C   0  0  0  0  0  2  0  0  0  0  0  0
  -29.9770  -13.2930   20.2370 N   0  0  0  0  0  0  0  0  0  0  0  0
  -31.8360  -14.5470   19.8790 O   0  0  0  0  0  0  0  0  0  0  0  0
  -28.9370  -16.1820   20.4630 C   0  0  0  0  0  2  0  0  0  0  0  0
  -30.8230  -16.8150   21.0750 C   0  0  0  0  0  2  0  0  0  0  0  0
  -29.4550  -17.4930   21.0470 C   0  0  0  0  0  3  0  0  0  0  0  0
  -30.1350  -15.5070   20.9760 N   0  0  0  0  0  0  0  0  0  0  0  0
  -25.2070  -13.8570   20.4790 C   0  0  0  0  0  0  0  0  0  0  0  0
  -24.1350  -13.1000   20.8680 C   0  0  0  0  0  0  0  0  0  0  0  0
  -24.5800  -11.7420   20.8280 C   0  0  0  0  0  0  0  0  0  0  0  0
  -26.2360  -12.9610   20.2300 N   0  0  0  0  0  0  0  0  0  0  0  0
  -25.8630  -11.6860   20.4990 N   0  0  0  0  0  0  0  0  0  0  0  0
  -23.8420  -10.4900   21.0240 C   0  0  0  0  0  0  0  0  0  0  0  0
  -24.2760   -9.5140   21.9480 C   0  0  0  0  0  3  0  0  0  0  0  0
  -23.5410   -8.3240   22.1300 C   0  0  0  0  0  3  0  0  0  0  0  0
  -22.3550   -8.1020   21.3890 C   0  0  0  0  0  0  0  0  0  0  0  0
  -21.9400   -9.0670   20.4550 C   0  0  0  0  0  3  0  0  0  0  0  0
  -22.6760  -10.2480   20.2690 C   0  0  0  0  0  3  0  0  0  0  0  0
  -21.5900   -6.9650   21.4840 O   0  0  0  0  0  0  0  0  0  0  0  0
  -21.5460   -6.2210   22.6350 C   0  0  0  0  0  0  0  0  0  0  0  0
  -21.1330   -6.7770   23.8660 C   0  0  0  0  0  3  0  0  0  0  0  0
  -21.0360   -5.9580   25.0090 C   0  0  0  0  0  3  0  0  0  0  0  0
  -21.3410   -4.5860   24.9230 C   0  0  0  0  0  0  0  0  0  0  0  0
  -21.7460   -4.0320   23.6960 C   0  0  0  0  0  3  0  0  0  0  0  0
  -21.8450   -4.8460   22.5550 C   0  0  0  0  0  0  0  0  0  0  0  0
  -22.2160   -4.3020   21.3720 F   0  0  0  0  0  0  0  0  0  0  0  0
  -21.2390   -3.7990   26.0190 F   0  0  0  0  0  0  0  0  0  0  0  0
  -22.7480  -13.5950   21.1600 C   0  0  0  0  0  0  0  0  0  0  0  0
  -22.0240  -12.9060   22.0350 N   0  0  0  0  0  0  0  0  0  0  0  0
  -22.3160  -14.6270   20.6480 O   0  0  0  0  0  0  0  0  0  0  0  0
  -22.3860  -12.0710   22.4720 H   0  0  0  0  0  0  0  0  0  0  0  0
  -21.0930  -13.2200   22.2720 H   0  0  0  0  0  0  0  0  0  0  0  0
  -25.3760  -15.2250   20.2910 N   0  0  0  0  0  0  0  0  0  0  0  0
  -24.6080  -15.8790   20.3950 H   0  0  0  0  0  0  0  0  0  0  0  0
  -26.2040  -15.6480   19.8940 H   0  0  0  0  0  0  0  0  0  0  0  0
  -28.4550  -22.6350   18.4110 C   0  0  0  0  0  2  0  0  0  0  0  0
  -28.9200  -23.8290   19.1510 N   0  0  0  0  0  4  0  0  0  0  0  0
  -29.8900  -23.6740   19.3750 H   0  0  0  0  0  0  0  0  0  0  0  0
  -28.4170  -23.8610   20.0240 H   0  0  0  0  0  0  0  0  0  0  0  0
  -28.7260  -25.0840   18.3660 C   0  0  0  0  0  2  0  0  0  0  0  0
  -29.1570  -26.3880   19.0770 C   0  0  0  0  0  2  0  0  0  0  0  0
  -28.4470  -26.6880   20.2810 O   0  0  0  0  0  0  0  0  0  0  0  0
  -24.6080  -31.8820   23.2390 C   0  0  0  0  0  0  0  0  0  0  0  0
  -27.2930  -27.4350   20.1980 C   0  0  0  0  0  0  0  0  0  0  0  0
  -23.4160  -30.4640   21.5990 C   0  0  0  0  0  3  0  0  0  0  0  0
  -24.8860  -28.9230   20.1920 C   0  0  0  0  0  0  0  0  0  0  0  0
  -25.9410  -30.8310   21.4140 C   0  0  0  0  0  2  0  0  0  0  0  0
  -26.0360  -29.4560   20.7850 C   0  0  0  0  0  0  0  0  0  0  0  0
  -27.2390  -28.7140   20.7960 C   0  0  0  0  0  3  0  0  0  0  0  0
  -26.1200  -26.9050   19.6190 C   0  0  0  0  0  3  0  0  0  0  0  0
  -24.9210  -27.6430   19.6100 C   0  0  0  0  0  3  0  0  0  0  0  0
  -23.6370  -29.7740   20.2250 C   0  0  0  0  0  2  0  0  0  0  0  0
  -24.6730  -31.0740   22.1420 N   0  0  0  0  0  0  0  0  0  0  0  0
  -23.5230  -32.1550   23.7700 O   0  0  0  0  0  0  0  0  0  0  0  0
  -22.7610  -29.4490   22.5630 C   0  0  0  0  0  0  0  0  0  0  0  0
  -21.4360  -29.2730   22.4370 N   0  0  0  0  0  0  0  0  0  0  0  0
  -23.4420  -28.8230   23.3800 O   0  0  0  0  0  0  0  0  0  0  0  0
  -20.9490  -29.8300   21.7470 H   0  0  0  0  0  0  0  0  0  0  0  0
  -18.0520  -28.1140   22.9500 C   0  0  0  0  0  0  0  0  0  0  0  0
  -20.6140  -28.3420   23.2080 C   0  0  0  0  0  3  0  0  0  0  0  0
  -20.6990  -26.9120   22.6290 C   0  0  0  0  0  2  0  0  0  0  0  0
  -19.5870  -26.6050   21.6190 C   0  0  0  0  0  2  0  0  0  0  0  0
  -18.2100  -26.7640   22.2710 C   0  0  0  0  0  2  0  0  0  0  0  0
  -19.1820  -28.8620   23.3760 C   0  0  0  0  0  0  0  0  0  0  0  0
  -18.9810  -30.1270   23.9700 C   0  0  0  0  0  3  0  0  0  0  0  0
  -17.6830  -30.6430   24.1430 C   0  0  0  0  0  3  0  0  0  0  0  0
  -16.5680  -29.8920   23.7350 C   0  0  0  0  0  3  0  0  0  0  0  0
  -16.7530  -28.6290   23.1430 C   0  0  0  0  0  3  0  0  0  0  0  0
  -25.8890  -32.5210   23.8610 C   0  0  0  0  0  3  0  0  0  0  0  0
  -26.4080  -31.7540   25.1400 C   0  0  1  0  0  0  0  0  0  0  0  0
  -25.3130  -31.5140   26.2070 C   0  0  0  0  0  1  0  0  0  0  0  0
  -26.9970  -30.3790   24.7480 C   0  0  0  0  0  1  0  0  0  0  0  0
  -27.5520  -32.5540   25.8030 C   0  0  0  0  0  1  0  0  0  0  0  0
  -25.5740  -33.9180   24.1860 N   0  0  0  0  0  0  0  0  0  0  0  0
  -25.9090  -34.9680   23.4250 C   0  0  0  0  0  0  0  0  0  0  0  0
  -26.5860  -34.8630   22.3980 O   0  0  0  0  0  0  0  0  0  0  0  0
  -24.9750  -34.0740   24.9830 H   0  0  0  0  0  0  0  0  0  0  0  0
  -24.1810  -36.7550   23.0460 C   0  0  0  0  0  1  0  0  0  0  0  0
  -25.4130  -36.3570   23.8730 C   0  0  0  0  0  3  0  0  0  0  0  0
  -27.5350  -37.2480   24.7270 C   0  0  0  0  0  1  0  0  0  0  0  0
  -26.4450  -37.4110   23.7690 N   0  0  0  0  0  0  0  0  0  0  0  0
  -26.0350  -38.3310   23.9100 H   0  0  0  0  0  0  0  0  0  0  0  0
  1  2  1  0
  2  4  2  0
  3  5  1  0
  3  1  2  0
  4  7  1  0
  5  8  2  0
  6  3  1  0
  8  4  1  0
  9 20  1  0
 10 15  1  0
 11 12  1  0
 11 10  1  0
 13 12  1  0
 13 24  1  0
 13 14  1  0
 15  9  1  0
 15 14  1  0
 16  9  2  0
 17 20  1  0
 17 19  1  0
 19  2  1  0
 19 18  1  0
 20 18  1  0
 21 22  2  0
 22 41  1  0
 23 22  1  0
 23 26  1  0
 24 21  1  0
 24 25  1  0
 25 23  2  0
 26 27  1  0
 27 28  2  0
 29 32  1  0
 29 28  1  0
 30 29  2  0
 31 30  1  0
 31 26  2  0
 32 33  1  0
 33 34  1  0
 34 35  2  0
 36 35  1  0
 36 40  1  0
 37 36  2  0
 38 33  2  0
 38 37  1  0
 39 38  1  0
 41 42  1  0
 42 45  1  0
 42 44  1  0
 43 41  2  0
 46 47  1  0
 46 21  1  0
 48 46  1  0
 49  5  1  0
 49 50  1  0
 50 51  1  0
 50 52  1  0
 53 54  1  0
 53 50  1  0
 54 55  1  0
 56 67  2  0
 57 55  1  0
 57 62  1  0
 58 66  1  0
 58 68  1  0
 59 65  1  0
 59 61  1  0
 60 66  1  0
 61 62  2  0
 61 60  1  0
 63 57  2  0
 64 63  1  0
 64 59  2  0
 65 58  1  0
 66 56  1  0
 68 70  2  0
 69 68  1  0
 71 69  1  0
 72 81  2  0
 72 77  1  0
 73 69  1  0
 73 77  1  0
 74 73  1  0
 75 76  1  0
 75 74  1  0
 76 72  1  0
 77 78  2  0
 78 79  1  0
 80 79  2  0
 81 80  1  0
 82 56  1  0
 82 87  1  0
 82 83  1  0
 83 86  1  1
 83 84  1  0
 85 83  1  0
 87 90  1  0
 88 92  1  0
 88 87  1  0
 89 88  2  0
 92 91  1  0
 94 92  1  0
 94 95  1  0
 94 93  1  0
M  ISO  4   9 100  20 100  54 101  55 101
M  END
>  <TORSDO>  (75) 
F 20

>  <SCORE>  (75) 
-14.308

>  <name>  (75) 
74

>  <ligand_id>  (75) 
74

>  <original_smiles>  (75) 
[H]c1c([H])c([H])c2c(c1[H])C([H])([H])C([H])([H])C([H])([H])C2([H])N([H])C(=O)C1([H])N(C(=O)C([H])(N([H])C(=O)C([H])(N([H])C([H])([H])[H])C([H])([H])[H])C(C([H])([H])[H])(C([H])([H])[H])C([H])([H])[H])C([H])([H])c2c([H])c(OC([H])([H])C([H])([H])[N+]([H])([H])C([H])([H])c3nc(C([H])([H])[H])c(C4([H])C([H])([H])N(C(=O)N5C([H])([H])C([H])([H])C([H])([H])C([H])(n6nc(-c7c([H])c([H])c(Oc8c([H])c([H])c(F)c([H])c8F)c([H])c7[H])c(C(=O)N([H])[H])c6N([H])[H])C5([H])[H])C4([H])[H])c([H])c3C([H])([H])[H])c([H])c([H])c2C1([H])[H]

>  <smiles>  (75) 
[H]c1c([H])c([H])c2c(c1[H])C([H])([H])C([H])([H])C([H])([H])C2([H])N([H])C(=O)C1([H])N(C(=O)C([H])(N([H])C(=O)C([H])(N([H])C([H])([H])[H])C([H])([H])[H])C(C([H])([H])[H])(C([H])([H])[H])C([H])([H])[H])C([H])([H])c2c([H])c(OC([H])([H])C([H])([H])[N+]([H])([H])C([H])([H])c3nc(C([H])([H])[H])c(C4([H])C([H])([H])N(C(=O)N5C([H])([H])C([H])([H])C([H])([H])C([H])(n6nc(-c7c([H])c([H])c(Oc8c([H])c([H])c(F)c([H])c8F)c([H])c7[H])c(C(=O)N([H])[H])c6N([H])[H])C5([H])[H])C4([H])[H])c([H])c3C([H])([H])[H])c([H])c([H])c2C1([H])[H]

$$$$
75:0:0
     RDKit          3D

 90 99  0  0  1  0  0  0  0  0999 V2000
  -28.6420  -20.9250   19.2390 C   0  0  0  0  0  3  0  0  0  0  0  0
  -29.3260  -20.2410   20.2980 C   0  0  0  0  0  0  0  0  0  0  0  0
  -29.7170  -21.2190   21.2930 C   0  0  0  0  0  0  0  0  0  0  0  0
  -29.3650  -22.6490   21.2170 C   0  0  0  0  0  0  0  0  0  0  0  0
  -28.6430  -23.2270   20.1110 C   0  0  0  0  0  0  0  0  0  0  0  0
  -30.4930  -20.7190   22.5040 C   0  0  0  0  0  1  0  0  0  0  0  0
  -29.7190  -23.5730   22.3770 C   0  0  0  0  0  1  0  0  0  0  0  0
  -28.3340  -22.2830   19.1540 N   0  0  0  0  0  0  0  0  0  0  0  0
  -30.7150  -15.1440   20.2220 C   0  0  0  0  0  0  0  0  0  0  0  0
  -30.5960  -12.7770   19.3050 C   0  0  0  0  0  2  0  0  0  0  0  0
  -29.6450  -12.6940   18.0900 C   0  0  0  0  0  2  0  0  0  0  0  0
  -28.1960  -12.4620   18.5530 C   0  0  0  0  0  2  0  0  0  0  0  0
  -27.7930  -13.3970   19.7230 C   0  0  0  0  0  3  0  0  0  0  0  0
  -28.8660  -13.4590   20.8290 C   0  0  0  0  0  2  0  0  0  0  0  0
  -30.1160  -13.8830   20.1870 N   0  0  0  0  0  0  0  0  0  0  0  0
  -31.9130  -15.1930   19.9220 O   0  0  0  0  0  0  0  0  0  0  0  0
  -29.7460  -17.4360   19.3270 C   0  0  0  0  0  2  0  0  0  0  0  0
  -30.3660  -17.5630   21.2210 C   0  0  0  0  0  2  0  0  0  0  0  0
  -29.4420  -18.5650   20.4010 C   0  0  0  0  0  3  0  0  0  0  0  0
  -29.9600  -16.3550   20.3850 N   0  0  0  0  0  0  0  0  0  0  0  0
  -25.4320  -13.9410   20.5420 C   0  0  0  0  0  0  0  0  0  0  0  0
  -24.3810  -13.1520   20.9160 C   0  0  0  0  0  0  0  0  0  0  0  0
  -24.8490  -11.8040   20.8390 C   0  0  0  0  0  0  0  0  0  0  0  0
  -26.4720  -13.0750   20.2520 N   0  0  0  0  0  0  0  0  0  0  0  0
  -26.1330  -11.7820   20.4970 N   0  0  0  0  0  0  0  0  0  0  0  0
  -24.1320  -10.5340   21.0130 C   0  0  0  0  0  0  0  0  0  0  0  0
  -24.5530   -9.5690   21.9550 C   0  0  0  0  0  3  0  0  0  0  0  0
  -23.8330   -8.3660   22.1190 C   0  0  0  0  0  3  0  0  0  0  0  0
  -22.6780   -8.1180   21.3380 C   0  0  0  0  0  0  0  0  0  0  0  0
  -22.2770   -9.0710   20.3850 C   0  0  0  0  0  3  0  0  0  0  0  0
  -22.9990  -10.2660   20.2200 C   0  0  0  0  0  3  0  0  0  0  0  0
  -21.9320   -6.9670   21.4090 O   0  0  0  0  0  0  0  0  0  0  0  0
  -21.8040   -6.2620   22.5800 C   0  0  0  0  0  0  0  0  0  0  0  0
  -21.2270   -6.8340   23.7350 C   0  0  0  0  0  3  0  0  0  0  0  0
  -21.0520   -6.0530   24.8940 C   0  0  0  0  0  3  0  0  0  0  0  0
  -21.4450   -4.7020   24.9000 C   0  0  0  0  0  0  0  0  0  0  0  0
  -22.0160   -4.1290   23.7500 C   0  0  0  0  0  3  0  0  0  0  0  0
  -22.1920   -4.9070   22.5920 C   0  0  0  0  0  0  0  0  0  0  0  0
  -22.7230   -4.3450   21.4790 F   0  0  0  0  0  0  0  0  0  0  0  0
  -21.2710   -3.9490   26.0110 F   0  0  0  0  0  0  0  0  0  0  0  0
  -22.9890  -13.6150   21.2320 C   0  0  0  0  0  0  0  0  0  0  0  0
  -22.2880  -12.9000   22.1040 N   0  0  0  0  0  0  0  0  0  0  0  0
  -22.5320  -14.6480   20.7400 O   0  0  0  0  0  0  0  0  0  0  0  0
  -22.6710  -12.0660   22.5210 H   0  0  0  0  0  0  0  0  0  0  0  0
  -21.3550  -13.1930   22.3600 H   0  0  0  0  0  0  0  0  0  0  0  0
  -25.5870  -15.3160   20.3990 N   0  0  0  0  0  0  0  0  0  0  0  0
  -24.8270  -15.9690   20.5540 H   0  0  0  0  0  0  0  0  0  0  0  0
  -26.4400  -15.7670   20.0910 H   0  0  0  0  0  0  0  0  0  0  0  0
  -27.8460  -24.7010   20.0150 C   0  0  0  0  0  2  0  0  0  0  0  0
  -28.2630  -26.1970   20.2550 O   0  0  0  0  0  0  0  0  0  0  0  0
  -24.6730  -31.9130   23.3370 C   0  0  0  0  0  0  0  0  0  0  0  0
  -27.2420  -27.2350   20.2000 C   0  0  0  0  0  0  0  0  0  0  0  0
  -23.4760  -30.5560   21.6680 C   0  0  0  0  0  3  0  0  0  0  0  0
  -24.9250  -29.0170   20.2080 C   0  0  0  0  0  0  0  0  0  0  0  0
  -26.0360  -30.8120   21.5170 C   0  0  0  0  0  2  0  0  0  0  0  0
  -26.1080  -29.4340   20.8300 C   0  0  0  0  0  0  0  0  0  0  0  0
  -27.2670  -28.5600   20.8090 C   0  0  0  0  0  3  0  0  0  0  0  0
  -26.0280  -26.9420   19.5330 C   0  0  0  0  0  3  0  0  0  0  0  0
  -24.9000  -27.7870   19.5430 C   0  0  0  0  0  3  0  0  0  0  0  0
  -23.7000  -29.9150   20.2750 C   0  0  0  0  0  2  0  0  0  0  0  0
  -24.7490  -31.1140   22.2280 N   0  0  0  0  0  0  0  0  0  0  0  0
  -23.5860  -32.1860   23.8690 O   0  0  0  0  0  0  0  0  0  0  0  0
  -22.7940  -29.5260   22.6060 C   0  0  0  0  0  0  0  0  0  0  0  0
  -21.4700  -29.3410   22.4590 N   0  0  0  0  0  0  0  0  0  0  0  0
  -23.4620  -28.8970   23.4320 O   0  0  0  0  0  0  0  0  0  0  0  0
  -20.9860  -29.9020   21.7720 H   0  0  0  0  0  0  0  0  0  0  0  0
  -18.0970  -28.0910   22.9030 C   0  0  0  0  0  0  0  0  0  0  0  0
  -20.6490  -28.3860   23.2100 C   0  0  0  0  0  3  0  0  0  0  0  0
  -20.7770  -26.9610   22.6230 C   0  0  0  0  0  2  0  0  0  0  0  0
  -19.6940  -26.6320   21.5890 C   0  0  0  0  0  2  0  0  0  0  0  0
  -18.3010  -26.7530   22.2160 C   0  0  0  0  0  2  0  0  0  0  0  0
  -19.1990  -28.8640   23.3570 C   0  0  0  0  0  0  0  0  0  0  0  0
  -18.9530  -30.1150   23.9630 C   0  0  0  0  0  3  0  0  0  0  0  0
  -17.6380  -30.5940   24.1190 C   0  0  0  0  0  3  0  0  0  0  0  0
  -16.5510  -29.8190   23.6800 C   0  0  0  0  0  3  0  0  0  0  0  0
  -16.7810  -28.5690   23.0790 C   0  0  0  0  0  3  0  0  0  0  0  0
  -25.9490  -32.5380   23.9770 C   0  0  0  0  0  3  0  0  0  0  0  0
  -25.6470  -33.9430   24.2990 N   0  0  0  0  0  0  0  0  0  0  0  0
  -25.9520  -34.9880   23.5200 C   0  0  0  0  0  0  0  0  0  0  0  0
  -26.5820  -34.8730   22.4650 O   0  0  0  0  0  0  0  0  0  0  0  0
  -25.0820  -34.1040   25.1190 H   0  0  0  0  0  0  0  0  0  0  0  0
  -24.1920  -36.7680   23.2460 C   0  0  0  0  0  1  0  0  0  0  0  0
  -25.4850  -36.3840   23.9820 C   0  0  0  0  0  3  0  0  0  0  0  0
  -27.6540  -37.3080   24.6670 C   0  0  0  0  0  1  0  0  0  0  0  0
  -26.5000  -37.4400   23.7830 N   0  0  0  0  0  0  0  0  0  0  0  0
  -26.0950  -38.3630   23.9260 H   0  0  0  0  0  0  0  0  0  0  0  0
  -26.4320  -31.7700   25.2690 C   0  0  1  0  0  0  0  0  0  0  0  0
  -25.3170  -31.5500   26.3170 C   0  0  0  0  0  1  0  0  0  0  0  0
  -27.0110  -30.3840   24.9050 C   0  0  0  0  0  1  0  0  0  0  0  0
  -27.5780  -32.5580   25.9470 C   0  0  0  0  0  1  0  0  0  0  0  0
  1  2  1  0
  2  3  2  0
  3  6  1  0
  4  3  1  0
  4  7  1  0
  5  4  2  0
  8  1  2  0
  8  5  1  0
  9 20  1  0
 10 15  1  0
 11 12  1  0
 11 10  1  0
 13 12  1  0
 13 24  1  0
 13 14  1  0
 15  9  1  0
 15 14  1  0
 16  9  2  0
 17 20  1  0
 17 19  1  0
 19  2  1  0
 19 18  1  0
 20 18  1  0
 21 22  2  0
 22 41  1  0
 23 22  1  0
 23 26  1  0
 24 25  1  0
 24 21  1  0
 25 23  2  0
 26 27  1  0
 27 28  2  0
 29 32  1  0
 29 28  1  0
 30 29  2  0
 31 30  1  0
 31 26  2  0
 32 33  1  0
 33 38  2  0
 33 34  1  0
 34 35  2  0
 35 36  1  0
 36 40  1  0
 37 36  2  0
 38 37  1  0
 39 38  1  0
 41 42  1  0
 42 45  1  0
 42 44  1  0
 43 41  2  0
 46 21  1  0
 46 47  1  0
 48 46  1  0
 49  5  1  0
 49 50  1  0
 51 62  2  0
 52 50  1  0
 52 57  1  0
 53 61  1  0
 53 63  1  0
 54 60  1  0
 54 56  1  0
 55 61  1  0
 56 55  1  0
 57 56  2  0
 58 59  1  0
 58 52  2  0
 59 54  2  0
 60 53  1  0
 61 51  1  0
 63 65  2  0
 64 63  1  0
 66 64  1  0
 67 76  2  0
 67 72  1  0
 68 64  1  0
 68 72  1  0
 69 68  1  0
 70 71  1  0
 70 69  1  0
 71 67  1  0
 72 73  2  0
 73 74  1  0
 75 74  2  0
 76 75  1  0
 77 51  1  0
 77 78  1  0
 77 87  1  0
 78 81  1  0
 79 83  1  0
 79 78  1  0
 80 79  2  0
 83 82  1  0
 85 86  1  0
 85 83  1  0
 85 84  1  0
 87 90  1  1
 87 88  1  0
 89 87  1  0
M  ISO  4   9 100  20 100  49 101  50 101
M  END
>  <TORSDO>  (76) 
F 17

>  <SCORE>  (76) 
-15.187

>  <name>  (76) 
75

>  <ligand_id>  (76) 
75

>  <original_smiles>  (76) 
[H]c1nc(C([H])([H])Oc2c([H])c([H])c3c(c2[H])C([H])([H])N(C(=O)C([H])(N([H])C(=O)C([H])(N([H])C([H])([H])[H])C([H])([H])[H])C(C([H])([H])[H])(C([H])([H])[H])C([H])([H])[H])C([H])(C(=O)N([H])C2([H])c4c([H])c([H])c([H])c([H])c4C([H])([H])C([H])([H])C2([H])[H])C3([H])[H])c(C([H])([H])[H])c(C([H])([H])[H])c1C1([H])C([H])([H])N(C(=O)N2C([H])([H])C([H])([H])C([H])([H])C([H])(n3nc(-c4c([H])c([H])c(Oc5c([H])c([H])c(F)c([H])c5F)c([H])c4[H])c(C(=O)N([H])[H])c3N([H])[H])C2([H])[H])C1([H])[H]

>  <smiles>  (76) 
[H]c1nc(C([H])([H])Oc2c([H])c([H])c3c(c2[H])C([H])([H])N(C(=O)C([H])(N([H])C(=O)C([H])(N([H])C([H])([H])[H])C([H])([H])[H])C(C([H])([H])[H])(C([H])([H])[H])C([H])([H])[H])C([H])(C(=O)N([H])C2([H])c4c([H])c([H])c([H])c([H])c4C([H])([H])C([H])([H])C2([H])[H])C3([H])[H])c(C([H])([H])[H])c(C([H])([H])[H])c1C1([H])C([H])([H])N(C(=O)N2C([H])([H])C([H])([H])C([H])([H])C([H])(n3nc(-c4c([H])c([H])c(Oc5c([H])c([H])c(F)c([H])c5F)c([H])c4[H])c(C(=O)N([H])[H])c3N([H])[H])C2([H])[H])C1([H])[H]

$$$$
76:0:0
     RDKit          3D

 92102  0  0  1  0  0  0  0  0999 V2000
  -28.9830  -21.8330   20.2130 C   0  0  0  0  0  0  0  0  0  0  0  0
  -28.1520  -23.0370   19.7720 C   0  0  0  0  0  0  0  0  0  0  0  0
  -28.6080  -20.3680   20.0120 C   0  0  0  0  0  0  0  0  0  0  0  0
  -27.0360  -22.5450   19.0120 C   0  0  0  0  0  0  0  0  0  0  0  0
  -30.3650  -22.1190   20.7660 C   0  0  0  0  0  1  0  0  0  0  0  0
  -27.4350  -20.1930   19.3690 N   0  0  0  0  0  0  0  0  0  0  0  0
  -26.7160  -21.2190   18.9010 N   0  0  0  0  0  0  0  0  0  0  0  0
  -30.4910  -15.2310   20.0670 C   0  0  0  0  0  0  0  0  0  0  0  0
  -30.3360  -12.8520   19.1330 C   0  0  0  0  0  2  0  0  0  0  0  0
  -29.3700  -12.7120   17.9350 C   0  0  0  0  0  2  0  0  0  0  0  0
  -27.9380  -12.4520   18.4310 C   0  0  0  0  0  2  0  0  0  0  0  0
  -27.5440  -13.3800   19.6110 C   0  0  0  0  0  3  0  0  0  0  0  0
  -28.6420  -13.4980   20.6900 C   0  0  0  0  0  2  0  0  0  0  0  0
  -29.8470  -13.9800   20.0020 N   0  0  0  0  0  0  0  0  0  0  0  0
  -31.6980  -15.1690   19.8010 O   0  0  0  0  0  0  0  0  0  0  0  0
  -28.5940  -17.3590   20.3500 C   0  0  0  0  0  2  0  0  0  0  0  0
  -30.4920  -17.9530   19.8050 C   0  0  0  0  0  2  0  0  0  0  0  0
  -29.2890  -18.8370   20.4030 C   0  0  0  0  0  3  0  0  0  0  0  0
  -29.8980  -16.5820   20.1630 N   0  0  0  0  0  0  0  0  0  0  0  0
  -25.2110  -13.8920   20.5090 C   0  0  0  0  0  0  0  0  0  0  0  0
  -24.1720  -13.0970   20.9050 C   0  0  0  0  0  0  0  0  0  0  0  0
  -24.6470  -11.7510   20.8120 C   0  0  0  0  0  0  0  0  0  0  0  0
  -26.2460  -13.0360   20.1820 N   0  0  0  0  0  0  0  0  0  0  0  0
  -25.9210  -11.7390   20.4320 N   0  0  0  0  0  0  0  0  0  0  0  0
  -23.9400  -10.4770   20.9960 C   0  0  0  0  0  0  0  0  0  0  0  0
  -24.3810   -9.5100   21.9250 C   0  0  0  0  0  3  0  0  0  0  0  0
  -23.6660   -8.3050   22.1000 C   0  0  0  0  0  3  0  0  0  0  0  0
  -22.4980   -8.0600   21.3410 C   0  0  0  0  0  0  0  0  0  0  0  0
  -22.0750   -9.0140   20.3990 C   0  0  0  0  0  3  0  0  0  0  0  0
  -22.7930  -10.2100   20.2220 C   0  0  0  0  0  3  0  0  0  0  0  0
  -21.7540   -6.9070   21.4230 O   0  0  0  0  0  0  0  0  0  0  0  0
  -21.6580   -6.1920   22.5910 C   0  0  0  0  0  0  0  0  0  0  0  0
  -21.1300   -6.7620   23.7690 C   0  0  0  0  0  3  0  0  0  0  0  0
  -20.9790   -5.9720   24.9260 C   0  0  0  0  0  3  0  0  0  0  0  0
  -21.3520   -4.6170   24.9090 C   0  0  0  0  0  0  0  0  0  0  0  0
  -21.8760   -4.0470   23.7350 C   0  0  0  0  0  3  0  0  0  0  0  0
  -22.0210   -4.8320   22.5780 C   0  0  0  0  0  0  0  0  0  0  0  0
  -22.5050   -4.2690   21.4450 F   0  0  0  0  0  0  0  0  0  0  0  0
  -21.2050   -3.8570   26.0200 F   0  0  0  0  0  0  0  0  0  0  0  0
  -22.7830  -13.5540   21.2440 C   0  0  0  0  0  0  0  0  0  0  0  0
  -22.0960  -12.8360   22.1230 N   0  0  0  0  0  0  0  0  0  0  0  0
  -22.3150  -14.5890   20.7720 O   0  0  0  0  0  0  0  0  0  0  0  0
  -22.4880  -12.0070   22.5450 H   0  0  0  0  0  0  0  0  0  0  0  0
  -21.1660  -13.1240   22.3890 H   0  0  0  0  0  0  0  0  0  0  0  0
  -25.3490  -15.2710   20.3680 N   0  0  0  0  0  0  0  0  0  0  0  0
  -24.5890  -15.9160   20.5600 H   0  0  0  0  0  0  0  0  0  0  0  0
  -26.1750  -15.7300   20.0120 H   0  0  0  0  0  0  0  0  0  0  0  0
  -24.9020  -24.0240   18.2490 C   0  0  0  0  0  2  0  0  0  0  0  0
  -24.9740  -22.8200   17.3590 C   0  0  0  0  0  2  0  0  0  0  0  0
  -26.2510  -23.3720   17.9960 C   0  0  0  0  0  3  0  0  0  0  0  0
  -28.5340  -24.7100   19.6270 C   0  0  0  0  0  2  0  0  0  0  0  0
  -28.1980  -26.0810   20.3910 O   0  0  0  0  0  0  0  0  0  0  0  0
  -24.6270  -31.9590   23.2430 C   0  0  0  0  0  0  0  0  0  0  0  0
  -27.1790  -27.1230   20.2370 C   0  0  0  0  0  0  0  0  0  0  0  0
  -23.4240  -30.5400   21.6290 C   0  0  0  0  0  3  0  0  0  0  0  0
  -24.8640  -28.9300   20.2100 C   0  0  0  0  0  0  0  0  0  0  0  0
  -25.9830  -30.7710   21.4620 C   0  0  0  0  0  2  0  0  0  0  0  0
  -26.0490  -29.3660   20.8150 C   0  0  0  0  0  0  0  0  0  0  0  0
  -27.1970  -28.4720   20.8210 C   0  0  0  0  0  3  0  0  0  0  0  0
  -25.9740  -26.8160   19.5890 C   0  0  0  0  0  3  0  0  0  0  0  0
  -24.8400  -27.6680   19.5910 C   0  0  0  0  0  3  0  0  0  0  0  0
  -23.6410  -29.8380   20.2590 C   0  0  0  0  0  2  0  0  0  0  0  0
  -24.7000  -31.1170   22.1630 N   0  0  0  0  0  0  0  0  0  0  0  0
  -23.5430  -32.2580   23.7660 O   0  0  0  0  0  0  0  0  0  0  0  0
  -22.7400  -29.5540   22.6090 C   0  0  0  0  0  0  0  0  0  0  0  0
  -21.4120  -29.3720   22.4800 N   0  0  0  0  0  0  0  0  0  0  0  0
  -23.4080  -28.9520   23.4540 O   0  0  0  0  0  0  0  0  0  0  0  0
  -20.9250  -29.9090   21.7750 H   0  0  0  0  0  0  0  0  0  0  0  0
  -18.0380  -28.1400   22.9850 C   0  0  0  0  0  0  0  0  0  0  0  0
  -20.5930  -28.4420   23.2650 C   0  0  0  0  0  3  0  0  0  0  0  0
  -20.7160  -26.9990   22.7240 C   0  0  0  0  0  2  0  0  0  0  0  0
  -19.6270  -26.6410   21.7080 C   0  0  0  0  0  2  0  0  0  0  0  0
  -18.2370  -26.7800   22.3370 C   0  0  0  0  0  2  0  0  0  0  0  0
  -19.1440  -28.9290   23.4040 C   0  0  0  0  0  0  0  0  0  0  0  0
  -18.9040  -30.1980   23.9720 C   0  0  0  0  0  3  0  0  0  0  0  0
  -17.5920  -30.6850   24.1220 C   0  0  0  0  0  3  0  0  0  0  0  0
  -16.5000  -29.8970   23.7150 C   0  0  0  0  0  3  0  0  0  0  0  0
  -16.7250  -28.6270   23.1560 C   0  0  0  0  0  3  0  0  0  0  0  0
  -25.9040  -32.6060   23.8610 C   0  0  0  0  0  3  0  0  0  0  0  0
  -25.5840  -34.0060   24.1910 N   0  0  0  0  0  0  0  0  0  0  0  0
  -25.9020  -35.0670   23.4320 C   0  0  0  0  0  0  0  0  0  0  0  0
  -26.5590  -34.9690   22.3950 O   0  0  0  0  0  0  0  0  0  0  0  0
  -24.9930  -34.1550   24.9970 H   0  0  0  0  0  0  0  0  0  0  0  0
  -24.1630  -36.8560   23.1140 C   0  0  0  0  0  1  0  0  0  0  0  0
  -25.4180  -36.4540   23.9030 C   0  0  0  0  0  3  0  0  0  0  0  0
  -27.5590  -37.3500   24.7040 C   0  0  0  0  0  1  0  0  0  0  0  0
  -26.4450  -37.5120   23.7760 N   0  0  0  0  0  0  0  0  0  0  0  0
  -26.0330  -38.4310   23.9300 H   0  0  0  0  0  0  0  0  0  0  0  0
  -26.4220  -31.8500   25.1490 C   0  0  1  0  0  0  0  0  0  0  0  0
  -25.3270  -31.6180   26.2160 C   0  0  0  0  0  1  0  0  0  0  0  0
  -27.0170  -30.4720   24.7810 C   0  0  0  0  0  1  0  0  0  0  0  0
  -27.5620  -32.6620   25.8090 C   0  0  0  0  0  1  0  0  0  0  0  0
  1  5  1  0
  2  1  2  0
  3  1  1  0
  4  2  1  0
  6  3  2  0
  7  4  2  0
  7  6  1  0
  8 19  1  0
  9 14  1  0
 10 11  1  0
 10  9  1  0
 12 11  1  0
 12 23  1  0
 12 13  1  0
 14  8  1  0
 14 13  1  0
 15  8  2  0
 16 18  1  0
 17 19  1  0
 17 18  1  0
 18  3  1  0
 19 16  1  0
 20 21  2  0
 21 40  1  0
 22 21  1  0
 22 25  1  0
 23 24  1  0
 23 20  1  0
 24 22  2  0
 25 26  1  0
 26 27  2  0
 28 31  1  0
 28 27  1  0
 29 28  2  0
 30 29  1  0
 30 25  2  0
 31 32  1  0
 32 33  1  0
 33 34  2  0
 35 34  1  0
 35 39  1  0
 36 35  2  0
 37 32  2  0
 37 36  1  0
 38 37  1  0
 40 41  1  0
 41 44  1  0
 41 43  1  0
 42 40  2  0
 45 20  1  0
 45 46  1  0
 47 45  1  0
 49 50  1  0
 49 48  1  0
 50 48  1  0
 50  4  1  0
 51  2  1  0
 51 52  1  0
 53 64  2  0
 54 52  1  0
 54 59  1  0
 55 63  1  0
 55 65  1  0
 56 62  1  0
 56 58  1  0
 57 63  1  0
 58 59  2  0
 58 57  1  0
 60 61  1  0
 60 54  2  0
 61 56  2  0
 62 55  1  0
 63 53  1  0
 65 67  2  0
 66 65  1  0
 68 66  1  0
 69 78  2  0
 69 74  1  0
 70 66  1  0
 70 74  1  0
 71 70  1  0
 72 73  1  0
 72 71  1  0
 73 69  1  0
 74 75  2  0
 75 76  1  0
 77 76  2  0
 78 77  1  0
 79 53  1  0
 79 80  1  0
 79 89  1  0
 80 83  1  0
 81 85  1  0
 81 80  1  0
 82 81  2  0
 85 84  1  0
 87 85  1  0
 87 88  1  0
 87 86  1  0
 89 92  1  1
 89 90  1  0
 91 89  1  0
M  ISO  4   8 100  19 100  51 101  52 101
M  END
>  <TORSDO>  (77) 
F 18

>  <SCORE>  (77) 
-15.894

>  <name>  (77) 
76

>  <ligand_id>  (77) 
76

>  <original_smiles>  (77) 
[H]c1c([H])c([H])c2c(c1[H])C([H])([H])C([H])([H])C([H])([H])C2([H])N([H])C(=O)C1([H])N(C(=O)C([H])(N([H])C(=O)C([H])(N([H])C([H])([H])[H])C([H])([H])[H])C(C([H])([H])[H])(C([H])([H])[H])C([H])([H])[H])C([H])([H])c2c([H])c(OC([H])([H])c3c(C4([H])C([H])([H])C4([H])[H])nnc(C4([H])C([H])([H])N(C(=O)N5C([H])([H])C([H])([H])C([H])([H])C([H])(n6nc(-c7c([H])c([H])c(Oc8c([H])c([H])c(F)c([H])c8F)c([H])c7[H])c(C(=O)N([H])[H])c6N([H])[H])C5([H])[H])C4([H])[H])c3C([H])([H])[H])c([H])c([H])c2C1([H])[H]

>  <smiles>  (77) 
[H]c1c([H])c([H])c2c(c1[H])C([H])([H])C([H])([H])C([H])([H])C2([H])N([H])C(=O)C1([H])N(C(=O)C([H])(N([H])C(=O)C([H])(N([H])C([H])([H])[H])C([H])([H])[H])C(C([H])([H])[H])(C([H])([H])[H])C([H])([H])[H])C([H])([H])c2c([H])c(OC([H])([H])c3c(C4([H])C([H])([H])C4([H])[H])nnc(C4([H])C([H])([H])N(C(=O)N5C([H])([H])C([H])([H])C([H])([H])C([H])(n6nc(-c7c([H])c([H])c(Oc8c([H])c([H])c(F)c([H])c8F)c([H])c7[H])c(C(=O)N([H])[H])c6N([H])[H])C5([H])[H])C4([H])[H])c3C([H])([H])[H])c([H])c([H])c2C1([H])[H]

$$$$
77:0:0
     RDKit          3D

 96100  0  0  1  0  0  0  0  0999 V2000
  -28.6940  -18.8940   20.0530 C   0  0  0  0  0  2  0  0  0  0  0  0
  -27.7690  -19.6430   18.1650 C   0  0  0  0  0  2  0  0  0  0  0  0
  -28.3820  -17.1340   19.2920 C   0  0  0  0  0  2  0  0  0  0  0  0
  -28.0390  -20.6400   19.4860 C   0  0  0  0  0  2  0  0  0  0  0  0
  -28.2280  -18.0770   18.0670 N   0  0  0  0  0  4  0  0  0  0  0  0
  -29.1560  -18.0840   17.6740 H   0  0  0  0  0  0  0  0  0  0  0  0
  -27.6550  -17.6050   17.3910 H   0  0  0  0  0  0  0  0  0  0  0  0
  -29.5480  -12.9100   19.5230 C   0  0  0  0  0  1  0  0  0  0  0  0
  -31.1680  -12.4650   19.6320 C   0  0  0  0  0  0  0  0  0  0  0  0
  -32.3470  -13.6160   19.3910 C   0  0  0  0  0  0  0  0  0  0  0  0
  -29.2480  -15.2740   19.1380 C   0  0  0  0  0  1  0  0  0  0  0  0
  -32.0670  -15.2510   19.1880 C   0  0  0  0  0  3  0  0  0  0  0  0
  -31.5290  -11.0260   19.9500 C   0  0  0  0  0  1  0  0  0  0  0  0
  -33.7980  -13.1550   19.4530 C   0  0  0  0  0  1  0  0  0  0  0  0
  -30.6720  -15.9900   19.0050 N   0  0  0  0  0  2  0  0  0  0  0  0
  -32.7230  -16.1290   20.2440 C   0  0  0  0  0  2  0  0  0  0  0  0
  -31.2830  -14.9830   21.7070 C   0  0  0  0  0  3  0  0  0  0  0  0
  -30.6890  -13.6380   18.0560 C   0  0  0  0  0  1  0  0  0  0  0  0
  -29.1060  -13.0370   17.4410 C   0  0  0  0  0  2  0  0  0  0  0  0
  -27.6200  -13.0230   18.4490 C   0  0  0  0  0  3  0  0  0  0  0  0
  -27.4430  -13.6570   20.1480 C   0  0  0  0  0  0  0  0  0  0  0  0
  -28.7500  -14.1810   21.4030 C   0  0  0  0  0  3  0  0  0  0  0  0
  -30.4280  -14.4510   20.8590 N   0  0  0  0  0  0  0  0  0  0  0  0
  -32.1950  -14.3150   22.0890 O   0  0  0  0  0  1  0  0  0  0  0  0
  -31.6680  -16.1970   21.2900 N   0  0  0  0  0  0  0  0  0  0  0  0
  -30.8880  -16.7110   20.9170 H   0  0  0  0  0  0  0  0  0  0  0  0
  -25.1180  -13.8410   20.8210 C   0  0  0  0  0  0  0  0  0  0  0  0
  -24.1020  -12.9940   21.0790 C   0  0  0  0  0  0  0  0  0  0  0  0
  -24.6300  -11.6660   21.0170 C   0  0  0  0  0  0  0  0  0  0  0  0
  -26.2250  -13.0680   20.6480 N   0  0  0  0  0  0  0  0  0  0  0  0
  -25.9520  -11.7220   20.7550 N   0  0  0  0  0  0  0  0  0  0  0  0
  -23.8960  -10.3910   21.1690 C   0  0  0  0  0  0  0  0  0  0  0  0
  -24.2950   -9.3910   22.0880 C   0  0  0  0  0  3  0  0  0  0  0  0
  -23.5160   -8.2220   22.2650 C   0  0  0  0  0  3  0  0  0  0  0  0
  -22.3200   -8.0430   21.5320 C   0  0  0  0  0  0  0  0  0  0  0  0
  -21.9350   -9.0290   20.6080 C   0  0  0  0  0  3  0  0  0  0  0  0
  -22.7140  -10.1840   20.4250 C   0  0  0  0  0  3  0  0  0  0  0  0
  -21.5180   -6.9250   21.6130 O   0  0  0  0  0  0  0  0  0  0  0  0
  -21.4930   -6.1310   22.7330 C   0  0  0  0  0  0  0  0  0  0  0  0
  -21.1590   -6.6470   24.0030 C   0  0  0  0  0  3  0  0  0  0  0  0
  -21.0800   -5.7870   25.1170 C   0  0  0  0  0  3  0  0  0  0  0  0
  -21.3260   -4.4100   24.9610 C   0  0  0  0  0  0  0  0  0  0  0  0
  -21.6500   -3.8900   23.6950 C   0  0  0  0  0  3  0  0  0  0  0  0
  -21.7320   -4.7480   22.5850 C   0  0  0  0  0  0  0  0  0  0  0  0
  -22.0250   -4.2400   21.3630 F   0  0  0  0  0  0  0  0  0  0  0  0
  -21.2440   -3.5800   26.0290 F   0  0  0  0  0  0  0  0  0  0  0  0
  -22.7040  -13.4510   21.3060 C   0  0  0  0  0  0  0  0  0  0  0  0
  -21.9770  -12.7710   22.1800 N   0  0  0  0  0  0  0  0  0  0  0  0
  -22.2880  -14.4800   20.7720 O   0  0  0  0  0  0  0  0  0  0  0  0
  -22.3480  -11.9490   22.6340 H   0  0  0  0  0  0  0  0  0  0  0  0
  -21.0390  -13.0740   22.3980 H   0  0  0  0  0  0  0  0  0  0  0  0
  -25.1690  -15.2290   20.7140 N   0  0  0  0  0  0  0  0  0  0  0  0
  -26.0220  -15.7440   20.8760 H   0  0  0  0  0  0  0  0  0  0  0  0
  -24.3380  -15.7670   20.9430 H   0  0  0  0  0  0  0  0  0  0  0  0
  -27.6010  -22.7870   19.7880 C   0  0  0  0  0 15  0  0  0  0  0  0
  -27.8570  -24.7390   19.8920 O   0  0  0  0  0  1  0  0  0  0  0  0
  -24.5920  -31.6430   22.9880 C   0  0  0  0  0  0  0  0  0  0  0  0
  -27.0110  -26.1710   19.9770 C   0  0  0  0  0  0  0  0  0  0  0  0
  -23.4250  -30.2180   21.3800 C   0  0  0  0  0  3  0  0  0  0  0  0
  -24.8490  -28.4860   19.9900 C   0  0  0  0  0  0  0  0  0  0  0  0
  -26.0220  -30.2240   21.2980 C   0  0  0  0  0  2  0  0  0  0  0  0
  -26.0640  -28.7460   20.6330 C   0  0  0  0  0  0  0  0  0  0  0  0
  -27.1220  -27.6260   20.5850 C   0  0  0  0  0  3  0  0  0  0  0  0
  -25.7640  -26.2330   19.3030 C   0  0  0  0  0  3  0  0  0  0  0  0
  -24.7610  -27.2650   19.3040 C   0  0  0  0  0  3  0  0  0  0  0  0
  -23.6770  -29.4970   20.0240 C   0  0  0  0  0  2  0  0  0  0  0  0
  -24.7130  -30.7390   21.9410 N   0  0  0  0  0  0  0  0  0  0  0  0
  -23.4870  -31.9630   23.4670 O   0  0  0  0  0  0  0  0  0  0  0  0
  -22.6760  -29.2760   22.3650 C   0  0  0  0  0  0  0  0  0  0  0  0
  -21.3360  -29.1650   22.2610 N   0  0  0  0  0  0  0  0  0  0  0  0
  -23.3190  -28.6410   23.2040 O   0  0  0  0  0  0  0  0  0  0  0  0
  -20.8640  -29.7300   21.5700 H   0  0  0  0  0  0  0  0  0  0  0  0
  -17.9250  -28.0230   22.8380 C   0  0  0  0  0  0  0  0  0  0  0  0
  -20.4970  -28.2440   23.0430 C   0  0  0  0  0  3  0  0  0  0  0  0
  -20.5550  -26.8120   22.4590 C   0  0  0  0  0  2  0  0  0  0  0  0
  -19.4270  -26.5200   21.4640 C   0  0  0  0  0  2  0  0  0  0  0  0
  -18.0620  -26.6800   22.1400 C   0  0  0  0  0  2  0  0  0  0  0  0
  -19.0660  -28.7640   23.2470 C   0  0  0  0  0  0  0  0  0  0  0  0
  -18.8770  -30.0170   23.8700 C   0  0  0  0  0  3  0  0  0  0  0  0
  -17.5840  -30.5300   24.0820 C   0  0  0  0  0  3  0  0  0  0  0  0
  -16.4590  -29.7870   23.6850 C   0  0  0  0  0  3  0  0  0  0  0  0
  -16.6290  -28.5340   23.0690 C   0  0  0  0  0  3  0  0  0  0  0  0
  -25.8260  -32.3340   23.6440 C   0  0  0  0  0  3  0  0  0  0  0  0
  -26.3390  -31.5740   24.9320 C   0  0  1  0  0  0  0  0  0  0  0  0
  -25.2410  -31.3210   25.9940 C   0  0  0  0  0  1  0  0  0  0  0  0
  -26.9440  -30.2050   24.5610 C   0  0  0  0  0  1  0  0  0  0  0  0
  -27.4740  -32.3830   25.6020 C   0  0  0  0  0  1  0  0  0  0  0  0
  -25.4570  -33.7210   24.0160 N   0  0  0  0  0  0  0  0  0  0  0  0
  -25.7720  -34.8260   23.3220 C   0  0  0  0  0  0  0  0  0  0  0  0
  -26.4490  -34.7850   22.2930 O   0  0  0  0  0  0  0  0  0  0  0  0
  -24.8540  -33.8210   24.8170 H   0  0  0  0  0  0  0  0  0  0  0  0
  -24.0100  -36.6160   23.0610 C   0  0  0  0  0  1  0  0  0  0  0  0
  -25.2620  -36.1890   23.8460 C   0  0  0  0  0  3  0  0  0  0  0  0
  -27.3810  -37.0890   24.7100 C   0  0  0  0  0  1  0  0  0  0  0  0
  -26.2730  -37.2690   23.7750 N   0  0  0  0  0  0  0  0  0  0  0  0
  -25.8500  -38.1740   23.9580 H   0  0  0  0  0  0  0  0  0  0  0  0
  2  4  1  0
  3  1  1  0
  4  1  1  0
  5  2  1  0
  5  3  1  0
  6  5  1  0
  7  5  1  0
  8  9  1  0
  9 13  1  0
 10 14  1  0
 10  9  2  0
 12 10  1  0
 12 16  1  0
 15 11  1  0
 15 12  1  0
 16 25  1  0
 17 24  1  0
 19 18  1  0
 19 20  1  0
 20 21  2  0
 21 30  1  0
 21 22  1  0
 23 22  2  0
 23 17  1  0
 25 17  1  0
 26 25  1  0
 27 28  2  0
 28 47  1  0
 29 28  1  0
 29 32  1  0
 30 31  1  0
 30 27  1  0
 31 29  2  0
 32 33  1  0
 33 34  2  0
 35 38  1  0
 35 34  1  0
 36 35  2  0
 37 36  1  0
 37 32  2  0
 38 39  1  0
 39 40  1  0
 40 41  2  0
 42 41  1  0
 42 46  1  0
 43 42  2  0
 44 39  2  0
 44 43  1  0
 45 44  1  0
 47 48  1  0
 48 51  1  0
 48 50  1  0
 49 47  2  0
 52 27  1  0
 52 53  1  0
 52 54  1  0
 56 58  1  0
 57 68  2  0
 58 63  1  0
 59 67  1  0
 59 69  1  0
 60 66  1  0
 60 62  1  0
 61 67  1  0
 62 61  1  0
 63 62  2  0
 64 65  1  0
 64 58  2  0
 65 60  2  0
 66 59  1  0
 67 57  1  0
 69 71  2  0
 70 69  1  0
 72 70  1  0
 73 82  2  0
 73 78  1  0
 74 70  1  0
 74 78  1  0
 75 74  1  0
 76 77  1  0
 76 75  1  0
 77 73  1  0
 78 79  2  0
 79 80  1  0
 81 80  2  0
 82 81  1  0
 83 57  1  0
 83 88  1  0
 83 84  1  0
 84 87  1  1
 84 85  1  0
 86 84  1  0
 88 91  1  0
 89 93  1  0
 89 88  1  0
 90 89  2  0
 93 92  1  0
 95 93  1  0
 95 96  1  0
 95 94  1  0
M  ISO  4  17 100  25 100  55 101  56 101
M  END
>  <TORSDO>  (78) 
F 19

>  <SCORE>  (78) 
-13.957

>  <name>  (78) 
77

>  <ligand_id>  (78) 
77

>  <original_smiles>  (78) 
[H]c1c([H])c([H])c2c(c1[H])C([H])([H])C([H])([H])C([H])([H])C2([H])N([H])C(=O)C1([H])N(C(=O)C([H])(N([H])C(=O)C([H])(N([H])C([H])([H])[H])C([H])([H])[H])C(C([H])([H])[H])(C([H])([H])[H])C([H])([H])[H])C([H])([H])c2c([H])c(OC([H])([H])C3([H])C([H])([H])C([H])(c4nc(C([H])([H])N([H])C(=O)N5C([H])([H])C([H])([H])C([H])([H])C([H])(n6nc(-c7c([H])c([H])c(Oc8c([H])c([H])c(F)c([H])c8F)c([H])c7[H])c(C(=O)N([H])[H])c6N([H])[H])C5([H])[H])c(C([H])([H])[H])c(C([H])([H])[H])c4[H])[N+]([H])([H])C3([H])[H])c([H])c([H])c2C1([H])[H]

>  <smiles>  (78) 
[H]c1c([H])c([H])c2c(c1[H])C([H])([H])C([H])([H])C([H])([H])C2([H])N([H])C(=O)C1([H])N(C(=O)C([H])(N([H])C(=O)C([H])(N([H])C([H])([H])[H])C([H])([H])[H])C(C([H])([H])[H])(C([H])([H])[H])C([H])([H])[H])C([H])([H])c2c([H])c(OC([H])([H])C3([H])C([H])([H])C([H])(c4nc(C([H])([H])N([H])C(=O)N5C([H])([H])C([H])([H])C([H])([H])C([H])(n6nc(-c7c([H])c([H])c(Oc8c([H])c([H])c(F)c([H])c8F)c([H])c7[H])c(C(=O)N([H])[H])c6N([H])[H])C5([H])[H])c(C([H])([H])[H])c(C([H])([H])[H])c4[H])[N+]([H])([H])C3([H])[H])c([H])c([H])c2C1([H])[H]

$$$$
78:0:0
     RDKit          3D

 93103  0  0  1  0  0  0  0  0999 V2000
  -31.0590  -20.9950   19.4250 C   0  0  0  0  0  0  0  0  0  0  0  0
  -31.4100  -22.3730   19.5000 C   0  0  0  0  0  0  0  0  0  0  0  0
  -30.4480  -23.3780   19.7740 C   0  0  0  0  0  0  0  0  0  0  0  0
  -29.8150  -20.5060   19.9510 C   0  0  0  0  0  0  0  0  0  0  0  0
  -29.1080  -23.0350   20.0950 C   0  0  0  0  0  0  0  0  0  0  0  0
  -32.8700  -22.7900   19.2850 C   0  0  0  0  0  1  0  0  0  0  0  0
  -30.8530  -24.8590   19.6810 C   0  0  0  0  0  1  0  0  0  0  0  0
  -28.8590  -21.5860   20.2230 N   0  0  0  0  0  0  0  0  0  0  0  0
  -30.4120  -15.1510   20.1290 C   0  0  0  0  0  0  0  0  0  0  0  0
  -30.3030  -12.7620   19.1810 C   0  0  0  0  0  2  0  0  0  0  0  0
  -29.3260  -12.6450   17.9870 C   0  0  0  0  0  2  0  0  0  0  0  0
  -27.8900  -12.3950   18.4810 C   0  0  0  0  0  2  0  0  0  0  0  0
  -27.5080  -13.3200   19.6640 C   0  0  0  0  0  3  0  0  0  0  0  0
  -28.6060  -13.3940   20.7440 C   0  0  0  0  0  2  0  0  0  0  0  0
  -29.8210  -13.8720   20.0710 N   0  0  0  0  0  0  0  0  0  0  0  0
  -31.6180  -15.1680   19.8420 O   0  0  0  0  0  0  0  0  0  0  0  0
  -29.6960  -17.5960   21.2310 C   0  0  0  0  0  2  0  0  0  0  0  0
  -29.3940  -17.5000   19.1910 C   0  0  0  0  0  2  0  0  0  0  0  0
  -29.7610  -18.7600   20.1210 C   0  0  0  0  0  3  0  0  0  0  0  0
  -29.6540  -16.4030   20.2400 N   0  0  0  0  0  0  0  0  0  0  0  0
  -25.1710  -13.8690   20.5290 C   0  0  0  0  0  0  0  0  0  0  0  0
  -24.1230  -13.0840   20.9220 C   0  0  0  0  0  0  0  0  0  0  0  0
  -24.5860  -11.7350   20.8430 C   0  0  0  0  0  0  0  0  0  0  0  0
  -26.2010  -12.9980   20.2220 N   0  0  0  0  0  0  0  0  0  0  0  0
  -25.8640  -11.7070   20.4780 N   0  0  0  0  0  0  0  0  0  0  0  0
  -23.8650  -10.4690   21.0350 C   0  0  0  0  0  0  0  0  0  0  0  0
  -24.3230   -9.4870   21.9410 C   0  0  0  0  0  3  0  0  0  0  0  0
  -23.6000   -8.2880   22.1230 C   0  0  0  0  0  3  0  0  0  0  0  0
  -22.4050   -8.0620   21.3980 C   0  0  0  0  0  0  0  0  0  0  0  0
  -21.9660   -9.0330   20.4810 C   0  0  0  0  0  3  0  0  0  0  0  0
  -22.6900  -10.2240   20.2970 C   0  0  0  0  0  3  0  0  0  0  0  0
  -21.6510   -6.9170   21.4920 O   0  0  0  0  0  0  0  0  0  0  0  0
  -21.6220   -6.1660   22.6390 C   0  0  0  0  0  0  0  0  0  0  0  0
  -21.2060   -6.7080   23.8740 C   0  0  0  0  0  3  0  0  0  0  0  0
  -21.1240   -5.8830   25.0130 C   0  0  0  0  0  3  0  0  0  0  0  0
  -21.4490   -4.5160   24.9200 C   0  0  0  0  0  0  0  0  0  0  0  0
  -21.8570   -3.9720   23.6880 C   0  0  0  0  0  3  0  0  0  0  0  0
  -21.9410   -4.7950   22.5510 C   0  0  0  0  0  0  0  0  0  0  0  0
  -22.3150   -4.2630   21.3630 F   0  0  0  0  0  0  0  0  0  0  0  0
  -21.3630   -3.7210   26.0110 F   0  0  0  0  0  0  0  0  0  0  0  0
  -22.7380  -13.5560   21.2580 C   0  0  0  0  0  0  0  0  0  0  0  0
  -22.0460  -12.8470   22.1410 N   0  0  0  0  0  0  0  0  0  0  0  0
  -22.2820  -14.5900   20.7720 O   0  0  0  0  0  0  0  0  0  0  0  0
  -22.4300  -12.0100   22.5560 H   0  0  0  0  0  0  0  0  0  0  0  0
  -21.1180  -13.1440   22.4070 H   0  0  0  0  0  0  0  0  0  0  0  0
  -25.3300  -15.2440   20.3790 N   0  0  0  0  0  0  0  0  0  0  0  0
  -24.5740  -15.8980   20.5500 H   0  0  0  0  0  0  0  0  0  0  0  0
  -26.1790  -15.6920   20.0590 H   0  0  0  0  0  0  0  0  0  0  0  0
  -32.6580  -20.4220   17.3870 C   0  0  0  0  0  2  0  0  0  0  0  0
  -31.7140  -19.2690   17.5140 C   0  0  0  0  0  2  0  0  0  0  0  0
  -32.0680  -20.0780   18.7470 C   0  0  0  0  0  3  0  0  0  0  0  0
  -28.0270  -24.3720   20.2790 C   0  0  0  0  0  2  0  0  0  0  0  0
  -28.2230  -25.9850   20.2860 O   0  0  0  0  0  0  0  0  0  0  0  0
  -24.6420  -31.8590   23.2400 C   0  0  0  0  0  0  0  0  0  0  0  0
  -27.1810  -27.0220   20.2410 C   0  0  0  0  0  0  0  0  0  0  0  0
  -23.4380  -30.4610   21.6070 C   0  0  0  0  0  3  0  0  0  0  0  0
  -24.8770  -28.8530   20.1920 C   0  0  0  0  0  0  0  0  0  0  0  0
  -25.9990  -30.6840   21.4490 C   0  0  0  0  0  2  0  0  0  0  0  0
  -26.0650  -29.2770   20.8020 C   0  0  0  0  0  0  0  0  0  0  0  0
  -27.2140  -28.3820   20.7990 C   0  0  0  0  0  3  0  0  0  0  0  0
  -25.9640  -26.7230   19.5930 C   0  0  0  0  0  3  0  0  0  0  0  0
  -24.8470  -27.5950   19.5680 C   0  0  0  0  0  3  0  0  0  0  0  0
  -23.6600  -29.7710   20.2340 C   0  0  0  0  0  2  0  0  0  0  0  0
  -24.7150  -31.0270   22.1520 N   0  0  0  0  0  0  0  0  0  0  0  0
  -23.5550  -32.1530   23.7640 O   0  0  0  0  0  0  0  0  0  0  0  0
  -22.7460  -29.4690   22.5780 C   0  0  0  0  0  0  0  0  0  0  0  0
  -21.4160  -29.3080   22.4540 N   0  0  0  0  0  0  0  0  0  0  0  0
  -23.4120  -28.8460   23.4080 O   0  0  0  0  0  0  0  0  0  0  0  0
  -20.9330  -29.8620   21.7600 H   0  0  0  0  0  0  0  0  0  0  0  0
  -18.0300  -28.1140   22.9640 C   0  0  0  0  0  0  0  0  0  0  0  0
  -20.5900  -28.3770   23.2300 C   0  0  0  0  0  3  0  0  0  0  0  0
  -20.6890  -26.9400   22.6640 C   0  0  0  0  0  2  0  0  0  0  0  0
  -19.5880  -26.6140   21.6510 C   0  0  0  0  0  2  0  0  0  0  0  0
  -18.2060  -26.7620   22.2930 C   0  0  0  0  0  2  0  0  0  0  0  0
  -19.1490  -28.8790   23.3900 C   0  0  0  0  0  0  0  0  0  0  0  0
  -18.9290  -30.1420   23.9800 C   0  0  0  0  0  3  0  0  0  0  0  0
  -17.6230  -30.6430   24.1470 C   0  0  0  0  0  3  0  0  0  0  0  0
  -16.5190  -29.8760   23.7350 C   0  0  0  0  0  3  0  0  0  0  0  0
  -16.7240  -28.6140   23.1500 C   0  0  0  0  0  3  0  0  0  0  0  0
  -25.9190  -32.4960   23.8680 C   0  0  0  0  0  3  0  0  0  0  0  0
  -25.6050  -33.8950   24.2060 N   0  0  0  0  0  0  0  0  0  0  0  0
  -25.9140  -34.9560   23.4490 C   0  0  0  0  0  0  0  0  0  0  0  0
  -26.5570  -34.8600   22.4010 O   0  0  0  0  0  0  0  0  0  0  0  0
  -25.0300  -34.0420   25.0230 H   0  0  0  0  0  0  0  0  0  0  0  0
  -24.1600  -36.7410   23.1740 C   0  0  0  0  0  1  0  0  0  0  0  0
  -25.4380  -36.3420   23.9290 C   0  0  0  0  0  3  0  0  0  0  0  0
  -27.5980  -37.2470   24.6690 C   0  0  0  0  0  1  0  0  0  0  0  0
  -26.4560  -37.4040   23.7720 N   0  0  0  0  0  0  0  0  0  0  0  0
  -26.0490  -38.3210   23.9330 H   0  0  0  0  0  0  0  0  0  0  0  0
  -26.4290  -31.7270   25.1490 C   0  0  1  0  0  0  0  0  0  0  0  0
  -25.3340  -31.4970   26.2160 C   0  0  0  0  0  1  0  0  0  0  0  0
  -27.0080  -30.3450   24.7690 C   0  0  0  0  0  1  0  0  0  0  0  0
  -27.5810  -32.5190   25.8110 C   0  0  0  0  0  1  0  0  0  0  0  0
  1  2  2  0
  1  4  1  0
  2  3  1  0
  3  5  2  0
  4  8  2  0
  5  8  1  0
  5 52  1  0
  6  2  1  0
  7  3  1  0
  9 20  1  0
 10 15  1  0
 11 12  1  0
 11 10  1  0
 13 12  1  0
 13 24  1  0
 13 14  1  0
 15  9  1  0
 15 14  1  0
 16  9  2  0
 18 19  1  0
 18 20  1  0
 19  4  1  0
 19 17  1  0
 20 17  1  0
 21 22  2  0
 22 41  1  0
 23 22  1  0
 23 26  1  0
 24 25  1  0
 24 21  1  0
 25 23  2  0
 26 27  1  0
 27 28  2  0
 29 32  1  0
 29 28  1  0
 30 29  2  0
 31 30  1  0
 31 26  2  0
 32 33  1  0
 33 34  1  0
 34 35  2  0
 36 35  1  0
 36 40  1  0
 37 36  2  0
 38 33  2  0
 38 37  1  0
 39 38  1  0
 41 42  1  0
 42 45  1  0
 42 44  1  0
 43 41  2  0
 46 21  1  0
 46 47  1  0
 48 46  1  0
 49 50  1  0
 49 51  1  0
 50 51  1  0
 51  1  1  0
 52 53  1  0
 54 65  2  0
 55 53  1  0
 55 60  1  0
 56 64  1  0
 56 66  1  0
 57 63  1  0
 57 59  1  0
 58 64  1  0
 59 58  1  0
 60 59  2  0
 61 55  2  0
 62 61  1  0
 62 57  2  0
 63 56  1  0
 64 54  1  0
 66 68  2  0
 67 66  1  0
 69 67  1  0
 70 79  2  0
 70 75  1  0
 71 67  1  0
 71 75  1  0
 72 71  1  0
 73 74  1  0
 73 72  1  0
 74 70  1  0
 75 76  2  0
 76 77  1  0
 78 77  2  0
 79 78  1  0
 80 54  1  0
 80 81  1  0
 80 90  1  0
 81 84  1  0
 82 86  1  0
 82 81  1  0
 83 82  2  0
 86 85  1  0
 88 86  1  0
 88 89  1  0
 88 87  1  0
 90 93  1  1
 90 91  1  0
 92 90  1  0
M  ISO  4   9 100  20 100  52 101  53 101
M  END
>  <TORSDO>  (79) 
F 18

>  <SCORE>  (79) 
-15.791

>  <name>  (79) 
78

>  <ligand_id>  (79) 
78

>  <original_smiles>  (79) 
[H]c1c([H])c([H])c2c(c1[H])C([H])([H])C([H])([H])C([H])([H])C2([H])N([H])C(=O)C1([H])N(C(=O)C([H])(N([H])C(=O)C([H])(N([H])C([H])([H])[H])C([H])([H])[H])C(C([H])([H])[H])(C([H])([H])[H])C([H])([H])[H])C([H])([H])c2c([H])c(OC([H])([H])c3nc(C4([H])C([H])([H])N(C(=O)N5C([H])([H])C([H])([H])C([H])([H])C([H])(n6nc(-c7c([H])c([H])c(Oc8c([H])c([H])c(F)c([H])c8F)c([H])c7[H])c(C(=O)N([H])[H])c6N([H])[H])C5([H])[H])C4([H])[H])c(C4([H])C([H])([H])C4([H])[H])c(C([H])([H])[H])c3C([H])([H])[H])c([H])c([H])c2C1([H])[H]

>  <smiles>  (79) 
[H]c1c([H])c([H])c2c(c1[H])C([H])([H])C([H])([H])C([H])([H])C2([H])N([H])C(=O)C1([H])N(C(=O)C([H])(N([H])C(=O)C([H])(N([H])C([H])([H])[H])C([H])([H])[H])C(C([H])([H])[H])(C([H])([H])[H])C([H])([H])[H])C([H])([H])c2c([H])c(OC([H])([H])c3nc(C4([H])C([H])([H])N(C(=O)N5C([H])([H])C([H])([H])C([H])([H])C([H])(n6nc(-c7c([H])c([H])c(Oc8c([H])c([H])c(F)c([H])c8F)c([H])c7[H])c(C(=O)N([H])[H])c6N([H])[H])C5([H])[H])C4([H])[H])c(C4([H])C([H])([H])C4([H])[H])c(C([H])([H])[H])c3C([H])([H])[H])c([H])c([H])c2C1([H])[H]

$$$$
79:0:0
     RDKit          3D

104114  0  0  1  0  0  0  0  0999 V2000
  -30.7700  -22.8630   17.9640 C   0  0  0  0  0  3  0  0  0  0  0  0
  -29.6070  -23.4710   18.3350 C   0  0  0  0  0  0  0  0  0  0  0  0
  -28.9950  -23.2200   19.6480 C   0  0  0  0  0  0  0  0  0  0  0  0
  -29.0980  -21.8530   20.0910 C   0  0  0  0  0  3  0  0  0  0  0  0
  -31.3970  -21.8460   18.7910 C   0  0  0  0  0  3  0  0  0  0  0  0
  -28.7660  -20.6260   17.7560 C   0  0  0  0  0  2  0  0  0  0  0  0
  -27.9170  -18.5750   18.6510 C   0  0  0  0  0  2  0  0  0  0  0  0
  -30.9640  -22.3540   21.8650 C   0  0  0  0  0  2  0  0  0  0  0  0
  -29.5740  -21.6680   21.5450 C   0  0  0  0  0  3  0  0  0  0  0  0
  -29.4930  -20.4950   19.1500 C   0  0  2  0  0  0  0  0  0  0  0  0
  -28.0740  -19.3240   17.3310 C   0  0  2  0  0  0  0  0  0  0  0  0
  -29.1740  -18.8240   19.5030 C   0  0  1  0  0  0  0  0  0  0  0  0
  -28.9340  -24.4070   17.3500 C   0  0  0  0  0  1  0  0  0  0  0  0
  -28.4620  -21.8860   22.5900 C   0  0  0  0  0  1  0  0  0  0  0  0
  -28.9310  -18.5660   16.2930 C   0  0  0  0  0  1  0  0  0  0  0  0
  -26.6890  -19.5710   16.7000 C   0  0  0  0  0  1  0  0  0  0  0  0
  -28.7580  -18.5460   20.9630 C   0  0  0  0  0  1  0  0  0  0  0  0
  -33.4280  -21.8880   21.8330 C   0  0  0  0  0  1  0  0  0  0  0  0
  -30.9510  -20.6410   19.0230 N   0  0  0  0  0  2  0  0  0  0  0  0
  -32.3130  -22.3550   19.6800 N   0  0  0  0  0  0  0  0  0  0  0  0
  -32.1510  -21.8290   21.0920 N   0  0  2  0  0  4  0  0  0  0  0  0
  -32.6050  -23.3240   19.6010 H   0  0  0  0  0  0  0  0  0  0  0  0
  -31.9550  -20.8450   20.9590 H   0  0  0  0  0  0  0  0  0  0  0  0
  -28.5250  -24.5650   20.5100 C   0  0  0  0  0  3  0  0  0  0  0  0
  -28.7260  -26.0710   20.1490 O   0  0  0  0  0  0  0  0  0  0  0  0
  -24.6380  -31.5380   23.0290 C   0  0  0  0  0  0  0  0  0  0  0  0
  -27.6180  -26.9960   20.1090 C   0  0  0  0  0  0  0  0  0  0  0  0
  -23.6030  -30.1070   21.3070 C   0  0  0  0  0  3  0  0  0  0  0  0
  -25.2080  -28.6190   19.9570 C   0  0  0  0  0  0  0  0  0  0  0  0
  -26.1450  -30.5010   21.2910 C   0  0  0  0  0  2  0  0  0  0  0  0
  -26.3260  -29.1180   20.6360 C   0  0  0  0  0  0  0  0  0  0  0  0
  -27.5340  -28.3270   20.6910 C   0  0  0  0  0  3  0  0  0  0  0  0
  -26.4700  -26.5930   19.3960 C   0  0  0  0  0  3  0  0  0  0  0  0
  -25.2920  -27.3710   19.3200 C   0  0  0  0  0  3  0  0  0  0  0  0
  -23.9370  -29.4570   19.9370 C   0  0  0  0  0  2  0  0  0  0  0  0
  -24.8110  -30.7380   21.9310 N   0  0  0  0  0  0  0  0  0  0  0  0
  -23.5120  -31.7590   23.4980 O   0  0  0  0  0  0  0  0  0  0  0  0
  -22.9220  -29.0570   22.2210 C   0  0  0  0  0  0  0  0  0  0  0  0
  -21.5970  -28.8800   22.0700 N   0  0  0  0  0  0  0  0  0  0  0  0
  -23.5900  -28.4050   23.0290 O   0  0  0  0  0  0  0  0  0  0  0  0
  -21.1180  -29.4610   21.3940 H   0  0  0  0  0  0  0  0  0  0  0  0
  -18.2060  -27.7050   22.5600 C   0  0  0  0  0  0  0  0  0  0  0  0
  -20.7730  -27.9060   22.7900 C   0  0  0  0  0  3  0  0  0  0  0  0
  -20.8400  -26.5160   22.1160 C   0  0  0  0  0  2  0  0  0  0  0  0
  -19.7130  -26.2830   21.1060 C   0  0  0  0  0  2  0  0  0  0  0  0
  -18.3450  -26.4040   21.7860 C   0  0  0  0  0  2  0  0  0  0  0  0
  -19.3450  -28.4180   23.0180 C   0  0  0  0  0  0  0  0  0  0  0  0
  -19.1610  -29.6380   23.7040 C   0  0  0  0  0  3  0  0  0  0  0  0
  -17.8680  -30.1460   23.9360 C   0  0  0  0  0  3  0  0  0  0  0  0
  -16.7430  -29.4280   23.4930 C   0  0  0  0  0  3  0  0  0  0  0  0
  -16.9130  -28.2100   22.8100 C   0  0  0  0  0  3  0  0  0  0  0  0
  -25.8450  -32.2270   23.7330 C   0  0  0  0  0  3  0  0  0  0  0  0
  -25.4320  -33.5920   24.0990 N   0  0  0  0  0  0  0  0  0  0  0  0
  -25.7070  -34.6910   23.3840 C   0  0  0  0  0  0  0  0  0  0  0  0
  -26.4010  -34.6690   22.3640 O   0  0  0  0  0  0  0  0  0  0  0  0
  -24.8240  -33.6810   24.8990 H   0  0  0  0  0  0  0  0  0  0  0  0
  -23.8580  -36.3670   23.0660 C   0  0  0  0  0  1  0  0  0  0  0  0
  -25.1170  -36.0270   23.8800 C   0  0  0  0  0  3  0  0  0  0  0  0
  -27.1650  -37.0420   24.7760 C   0  0  0  0  0  1  0  0  0  0  0  0
  -26.0730  -37.1540   23.8130 N   0  0  0  0  0  0  0  0  0  0  0  0
  -25.5960  -38.0370   23.9770 H   0  0  0  0  0  0  0  0  0  0  0  0
  -26.3460  -31.4490   25.0120 C   0  0  1  0  0  0  0  0  0  0  0  0
  -25.2210  -31.1010   26.0130 C   0  0  0  0  0  1  0  0  0  0  0  0
  -27.0420  -30.1270   24.6110 C   0  0  0  0  0  1  0  0  0  0  0  0
  -27.4050  -32.2940   25.7580 C   0  0  0  0  0  1  0  0  0  0  0  0
  -30.2150  -17.5360   19.1450 C   0  0  0  0  0  2  0  0  0  0  0  0
  -30.6910  -14.8370   19.2780 C   0  0  0  0  0  0  0  0  0  0  0  0
  -30.4780  -12.4250   18.5420 C   0  0  0  0  0  2  0  0  0  0  0  0
  -29.3860  -12.3060   17.4510 C   0  0  0  0  0  2  0  0  0  0  0  0
  -28.0030  -12.1030   18.0970 C   0  0  0  0  0  2  0  0  0  0  0  0
  -27.7450  -13.1040   19.2540 C   0  0  0  0  0  3  0  0  0  0  0  0
  -28.9470  -13.2040   20.2190 C   0  0  0  0  0  2  0  0  0  0  0  0
  -30.1180  -13.5770   19.4160 N   0  0  0  0  0  0  0  0  0  0  0  0
  -31.8210  -14.8950   18.7860 O   0  0  0  0  0  0  0  0  0  0  0  0
  -29.9350  -16.0190   19.4980 N   0  0  0  0  0  0  0  0  0  0  0  0
  -29.0360  -15.8480   19.9210 H   0  0  0  0  0  0  0  0  0  0  0  0
  -25.5820  -13.7240   20.4730 C   0  0  0  0  0  0  0  0  0  0  0  0
  -24.5470  -12.9720   20.9530 C   0  0  0  0  0  0  0  0  0  0  0  0
  -24.8960  -11.6090   20.6970 C   0  0  0  0  0  0  0  0  0  0  0  0
  -26.4990  -12.8250   19.9560 N   0  0  0  0  0  0  0  0  0  0  0  0
  -26.1050  -11.5380   20.1520 N   0  0  0  0  0  0  0  0  0  0  0  0
  -24.1210  -10.3750   20.8850 C   0  0  0  0  0  0  0  0  0  0  0  0
  -24.5350   -9.3730   21.7900 C   0  0  0  0  0  3  0  0  0  0  0  0
  -23.7610   -8.2060   21.9670 C   0  0  0  0  0  3  0  0  0  0  0  0
  -22.5570   -8.0350   21.2410 C   0  0  0  0  0  0  0  0  0  0  0  0
  -22.1610   -9.0260   20.3270 C   0  0  0  0  0  3  0  0  0  0  0  0
  -22.9360  -10.1850   20.1470 C   0  0  0  0  0  3  0  0  0  0  0  0
  -21.7530   -6.9250   21.3330 O   0  0  0  0  0  0  0  0  0  0  0  0
  -21.5890   -6.2500   22.5160 C   0  0  0  0  0  0  0  0  0  0  0  0
  -21.0290   -6.8680   23.6560 C   0  0  0  0  0  3  0  0  0  0  0  0
  -20.8140   -6.1170   24.8300 C   0  0  0  0  0  3  0  0  0  0  0  0
  -21.1490   -4.7510   24.8630 C   0  0  0  0  0  0  0  0  0  0  0  0
  -21.7010   -4.1320   23.7270 C   0  0  0  0  0  3  0  0  0  0  0  0
  -21.9180   -4.8800   22.5570 C   0  0  0  0  0  0  0  0  0  0  0  0
  -22.4310   -4.2740   21.4590 F   0  0  0  0  0  0  0  0  0  0  0  0
  -20.9360   -4.0280   25.9880 F   0  0  0  0  0  0  0  0  0  0  0  0
  -23.2610  -13.4930   21.5230 C   0  0  0  0  0  0  0  0  0  0  0  0
  -22.6440  -12.7460   22.4330 N   0  0  0  0  0  0  0  0  0  0  0  0
  -22.8160  -14.5930   21.1990 O   0  0  0  0  0  0  0  0  0  0  0  0
  -23.0160  -11.8500   22.7130 H   0  0  0  0  0  0  0  0  0  0  0  0
  -21.7890  -13.0740   22.8550 H   0  0  0  0  0  0  0  0  0  0  0  0
  -25.8120  -15.0960   20.4090 N   0  0  0  0  0  0  0  0  0  0  0  0
  -25.1080  -15.7670   20.7000 H   0  0  0  0  0  0  0  0  0  0  0  0
  -26.5960  -15.5230   19.9350 H   0  0  0  0  0  0  0  0  0  0  0  0
  1  2  2  0
  2  3  1  0
  3 24  2  0
  4  3  1  0
  4  9  1  0
  5  1  1  0
  5 19  1  0
  5 20  1  0
  7 12  1  0
  9  8  1  0
  9 14  1  0
 10  6  1  6
 10 12  1  0
 10  4  1  0
 11  6  1  0
 11  7  1  0
 12 17  1  1
 13  2  1  0
 11 15  1  6
 16 11  1  0
 19 10  1  0
 20 21  1  0
 21 18  1  0
 21  8  1  0
 22 20  1  0
 21 23  1  6
 25 24  1  0
 26 37  2  0
 27 25  1  0
 27 32  1  0
 28 36  1  0
 28 38  1  0
 29 31  1  0
 30 36  1  0
 31 32  2  0
 31 30  1  0
 33 27  2  0
 34 33  1  0
 34 29  2  0
 35 29  1  0
 35 28  1  0
 36 26  1  0
 38 40  2  0
 39 38  1  0
 41 39  1  0
 42 51  2  0
 42 47  1  0
 43 39  1  0
 43 47  1  0
 44 43  1  0
 45 46  1  0
 45 44  1  0
 46 42  1  0
 47 48  2  0
 48 49  1  0
 50 49  2  0
 51 50  1  0
 52 26  1  0
 52 53  1  0
 52 62  1  0
 53 56  1  0
 54 58  1  0
 54 53  1  0
 55 54  2  0
 58 57  1  0
 60 58  1  0
 60 61  1  0
 60 59  1  0
 62 65  1  1
 62 63  1  0
 64 62  1  0
 66 75  1  0
 66 12  1  0
 67 73  1  0
 67 75  1  0
 68 73  1  0
 69 70  1  0
 69 68  1  0
 71 70  1  0
 71 80  1  0
 71 72  1  0
 73 72  1  0
 74 67  2  0
 75 76  1  0
 77 78  2  0
 78 97  1  0
 79 82  1  0
 79 78  1  0
 80 81  1  0
 80 77  1  0
 81 79  2  0
 82 83  1  0
 83 84  2  0
 85 88  1  0
 85 84  1  0
 86 85  2  0
 87 86  1  0
 87 82  2  0
 88 89  1  0
 89 94  2  0
 89 90  1  0
 90 91  2  0
 91 92  1  0
 92 96  1  0
 93 92  2  0
 94 93  1  0
 95 94  1  0
 97 98  1  0
 98100  1  0
 98101  1  0
 99 97  2  0
102 77  1  0
102103  1  0
104102  1  0
M  ISO  4  24 101  25 101  67 100  75 100
M  END
>  <TORSDO>  (80) 
F 18

>  <SCORE>  (80) 
-12.537

>  <name>  (80) 
79

>  <ligand_id>  (80) 
79

>  <original_smiles>  (80) 
[H]C1=C(C([H])([H])[H])C(C([H])([H])Oc2c([H])c([H])c3c(c2[H])C([H])([H])N(C(=O)C([H])(N([H])C(=O)C([H])(N([H])C([H])([H])[H])C([H])([H])[H])C(C([H])([H])[H])(C([H])([H])[H])C([H])([H])[H])C([H])(C(=O)N([H])C2([H])c4c([H])c([H])c([H])c([H])c4C([H])([H])C([H])([H])C2([H])[H])C3([H])[H])=C2C([H])(C([H])([H])[H])C([H])([H])[N+]([H])(C([H])([H])[H])N([H])C1=NC21C([H])([H])C(C([H])([H])[H])(C([H])([H])[H])C([H])([H])C1(C([H])([H])[H])C([H])([H])N([H])C(=O)N1C([H])([H])C([H])([H])C([H])([H])C([H])(n2nc(-c3c([H])c([H])c(Oc4c([H])c([H])c(F)c([H])c4F)c([H])c3[H])c(C(=O)N([H])[H])c2N([H])[H])C1([H])[H]

>  <smiles>  (80) 
[H]C1=C(C([H])([H])[H])C(C([H])([H])Oc2c([H])c([H])c3c(c2[H])C([H])([H])N(C(=O)C([H])(N([H])C(=O)C([H])(N([H])C([H])([H])[H])C([H])([H])[H])C(C([H])([H])[H])(C([H])([H])[H])C([H])([H])[H])C([H])(C(=O)N([H])C2([H])c4c([H])c([H])c([H])c([H])c4C([H])([H])C([H])([H])C2([H])[H])C3([H])[H])=C2C([H])(C([H])([H])[H])C([H])([H])[N+]([H])(C([H])([H])[H])N([H])C1=NC21C([H])([H])C(C([H])([H])[H])(C([H])([H])[H])C([H])([H])C1(C([H])([H])[H])C([H])([H])N([H])C(=O)N1C([H])([H])C([H])([H])C([H])([H])C([H])(n2nc(-c3c([H])c([H])c(Oc4c([H])c([H])c(F)c([H])c4F)c([H])c3[H])c(C(=O)N([H])[H])c2N([H])[H])C1([H])[H]

$$$$
80:0:0
     RDKit          3D

 91100  0  0  1  0  0  0  0  0999 V2000
  -28.3530  -21.3540   19.6150 C   0  0  0  0  0  3  0  0  0  0  0  0
  -29.8070  -21.7670   21.4360 C   0  0  0  0  0  3  0  0  0  0  0  0
  -29.2400  -20.7910   20.5710 C   0  0  0  0  0  0  0  0  0  0  0  0
  -28.0390  -22.7580   19.6140 C   0  0  0  0  0  0  0  0  0  0  0  0
  -28.6170  -23.6500   20.5700 C   0  0  0  0  0  0  0  0  0  0  0  0
  -27.0130  -23.2770   18.6230 C   0  0  0  0  0  1  0  0  0  0  0  0
  -29.5120  -23.1080   21.4440 N   0  0  0  0  0  0  0  0  0  0  0  0
  -30.7520  -14.8230   20.0470 C   0  0  0  0  0  0  0  0  0  0  0  0
  -30.3580  -12.5810   19.0070 C   0  0  0  0  0  2  0  0  0  0  0  0
  -29.3670  -12.6360   17.8290 C   0  0  0  0  0  2  0  0  0  0  0  0
  -27.9330  -12.4360   18.3460 C   0  0  0  0  0  2  0  0  0  0  0  0
  -27.6170  -13.3310   19.5720 C   0  0  0  0  0  3  0  0  0  0  0  0
  -28.7420  -13.3040   20.6350 C   0  0  0  0  0  2  0  0  0  0  0  0
  -29.9880  -13.6710   19.9520 N   0  0  0  0  0  0  0  0  0  0  0  0
  -31.9290  -14.7250   19.6880 O   0  0  0  0  0  0  0  0  0  0  0  0
  -28.5210  -18.1330   20.3960 C   0  0  0  0  0  2  0  0  0  0  0  0
  -30.8330  -18.7100   20.0200 C   0  0  0  0  0  2  0  0  0  0  0  0
  -28.9230  -16.6240   20.7470 C   0  0  0  0  0  2  0  0  0  0  0  0
  -31.2620  -17.2520   20.4320 C   0  0  0  0  0  2  0  0  0  0  0  0
  -29.5770  -19.2320   20.7470 C   0  0  0  0  0  3  0  0  0  0  0  0
  -30.2660  -16.1270   20.3080 N   0  0  0  0  0  0  0  0  0  0  0  0
  -25.2860  -13.9060   20.4640 C   0  0  0  0  0  0  0  0  0  0  0  0
  -24.2420  -13.1240   20.8740 C   0  0  0  0  0  0  0  0  0  0  0  0
  -24.7010  -11.7730   20.7820 C   0  0  0  0  0  0  0  0  0  0  0  0
  -26.3110  -13.0310   20.1440 N   0  0  0  0  0  0  0  0  0  0  0  0
  -25.9720  -11.7420   20.4010 N   0  0  0  0  0  0  0  0  0  0  0  0
  -23.9820  -10.5070   20.9770 C   0  0  0  0  0  0  0  0  0  0  0  0
  -24.4360   -9.5340   21.8950 C   0  0  0  0  0  3  0  0  0  0  0  0
  -23.7160   -8.3340   22.0780 C   0  0  0  0  0  3  0  0  0  0  0  0
  -22.5290   -8.0980   21.3430 C   0  0  0  0  0  0  0  0  0  0  0  0
  -22.0960   -9.0600   20.4140 C   0  0  0  0  0  3  0  0  0  0  0  0
  -22.8160  -10.2520   20.2290 C   0  0  0  0  0  3  0  0  0  0  0  0
  -21.7790   -6.9510   21.4380 O   0  0  0  0  0  0  0  0  0  0  0  0
  -21.7170   -6.2260   22.6010 C   0  0  0  0  0  0  0  0  0  0  0  0
  -21.2370   -6.7870   23.8040 C   0  0  0  0  0  3  0  0  0  0  0  0
  -21.1250   -5.9870   24.9590 C   0  0  0  0  0  3  0  0  0  0  0  0
  -21.4830   -4.6260   24.9100 C   0  0  0  0  0  0  0  0  0  0  0  0
  -21.9560   -4.0640   23.7110 C   0  0  0  0  0  3  0  0  0  0  0  0
  -22.0700   -4.8620   22.5590 C   0  0  0  0  0  0  0  0  0  0  0  0
  -22.5060   -4.3120   21.4010 F   0  0  0  0  0  0  0  0  0  0  0  0
  -21.3680   -3.8540   26.0160 F   0  0  0  0  0  0  0  0  0  0  0  0
  -22.8640  -13.5960   21.2320 C   0  0  0  0  0  0  0  0  0  0  0  0
  -22.1790  -12.8750   22.1120 N   0  0  0  0  0  0  0  0  0  0  0  0
  -22.4040  -14.6380   20.7660 O   0  0  0  0  0  0  0  0  0  0  0  0
  -22.5650  -12.0320   22.5100 H   0  0  0  0  0  0  0  0  0  0  0  0
  -21.2560  -13.1730   22.3950 H   0  0  0  0  0  0  0  0  0  0  0  0
  -25.4380  -15.2800   20.3100 N   0  0  0  0  0  0  0  0  0  0  0  0
  -24.6750  -15.9260   20.4820 H   0  0  0  0  0  0  0  0  0  0  0  0
  -26.2590  -15.7300   19.9290 H   0  0  0  0  0  0  0  0  0  0  0  0
  -28.0180  -25.0930   20.9380 C   0  0  0  0  0  2  0  0  0  0  0  0
  -28.3780  -26.4040   20.2950 O   0  0  0  0  0  0  0  0  0  0  0  0
  -24.6290  -31.8930   23.2400 C   0  0  0  0  0  0  0  0  0  0  0  0
  -27.3160  -27.3320   20.2270 C   0  0  0  0  0  0  0  0  0  0  0  0
  -23.4650  -30.4840   21.5840 C   0  0  0  0  0  3  0  0  0  0  0  0
  -24.9530  -28.9540   20.1700 C   0  0  0  0  0  0  0  0  0  0  0  0
  -26.0060  -30.8210   21.4390 C   0  0  0  0  0  2  0  0  0  0  0  0
  -26.1110  -29.4430   20.7900 C   0  0  0  0  0  0  0  0  0  0  0  0
  -27.3010  -28.6440   20.8080 C   0  0  0  0  0  3  0  0  0  0  0  0
  -26.1430  -26.9200   19.5590 C   0  0  0  0  0  3  0  0  0  0  0  0
  -24.9730  -27.7010   19.5410 C   0  0  0  0  0  3  0  0  0  0  0  0
  -23.7070  -29.8170   20.2040 C   0  0  0  0  0  2  0  0  0  0  0  0
  -24.7180  -31.0850   22.1440 N   0  0  0  0  0  0  0  0  0  0  0  0
  -23.5350  -32.1580   23.7600 O   0  0  0  0  0  0  0  0  0  0  0  0
  -22.7990  -29.4570   22.5330 C   0  0  0  0  0  0  0  0  0  0  0  0
  -21.4720  -29.2810   22.4040 N   0  0  0  0  0  0  0  0  0  0  0  0
  -23.4760  -28.8250   23.3480 O   0  0  0  0  0  0  0  0  0  0  0  0
  -20.9850  -29.8430   21.7200 H   0  0  0  0  0  0  0  0  0  0  0  0
  -18.0910  -28.0920   22.9080 C   0  0  0  0  0  0  0  0  0  0  0  0
  -20.6530  -28.3370   23.1660 C   0  0  0  0  0  3  0  0  0  0  0  0
  -20.7450  -26.9130   22.5710 C   0  0  0  0  0  2  0  0  0  0  0  0
  -19.6360  -26.6090   21.5590 C   0  0  0  0  0  2  0  0  0  0  0  0
  -18.2580  -26.7520   22.2130 C   0  0  0  0  0  2  0  0  0  0  0  0
  -19.2170  -28.8430   23.3430 C   0  0  0  0  0  0  0  0  0  0  0  0
  -19.0060  -30.0980   23.9540 C   0  0  0  0  0  3  0  0  0  0  0  0
  -17.7050  -30.6030   24.1350 C   0  0  0  0  0  3  0  0  0  0  0  0
  -16.5950  -29.8490   23.7170 C   0  0  0  0  0  3  0  0  0  0  0  0
  -16.7890  -28.5940   23.1090 C   0  0  0  0  0  3  0  0  0  0  0  0
  -25.8940  -32.5420   23.8800 C   0  0  0  0  0  3  0  0  0  0  0  0
  -25.5690  -33.9420   24.1900 N   0  0  0  0  0  0  0  0  0  0  0  0
  -25.9060  -34.9900   23.4270 C   0  0  0  0  0  0  0  0  0  0  0  0
  -26.5930  -34.8800   22.4070 O   0  0  0  0  0  0  0  0  0  0  0  0
  -24.9600  -34.1000   24.9800 H   0  0  0  0  0  0  0  0  0  0  0  0
  -24.1810  -36.7750   23.0170 C   0  0  0  0  0  1  0  0  0  0  0  0
  -25.4030  -36.3800   23.8630 C   0  0  0  0  0  3  0  0  0  0  0  0
  -27.5080  -37.2830   24.7470 C   0  0  0  0  0  1  0  0  0  0  0  0
  -26.4340  -37.4360   23.7690 N   0  0  0  0  0  0  0  0  0  0  0  0
  -26.0210  -38.3550   23.8940 H   0  0  0  0  0  0  0  0  0  0  0  0
  -26.3900  -31.7890   25.1750 C   0  0  1  0  0  0  0  0  0  0  0  0
  -25.2770  -31.5530   26.2220 C   0  0  0  0  0  1  0  0  0  0  0  0
  -26.9930  -30.4110   24.8120 C   0  0  0  0  0  1  0  0  0  0  0  0
  -27.5200  -32.6000   25.8520 C   0  0  0  0  0  1  0  0  0  0  0  0
  1  3  1  0
  2  7  1  0
  3  2  2  0
  4  1  2  0
  4  5  1  0
  5 50  1  0
  5  7  2  0
  6  4  1  0
  8 21  1  0
  9 14  1  0
 10 11  1  0
 10  9  1  0
 12 11  1  0
 12 25  1  0
 12 13  1  0
 14  8  1  0
 14 13  1  0
 15  8  2  0
 16 20  1  0
 16 18  1  0
 17 19  1  0
 17 20  1  0
 20  3  1  0
 21 19  1  0
 21 18  1  0
 22 23  2  0
 23 42  1  0
 24 23  1  0
 24 27  1  0
 25 26  1  0
 25 22  1  0
 26 24  2  0
 27 28  1  0
 28 29  2  0
 30 33  1  0
 30 29  1  0
 31 30  2  0
 32 31  1  0
 32 27  2  0
 33 34  1  0
 34 35  1  0
 35 36  2  0
 37 36  1  0
 37 41  1  0
 38 37  2  0
 39 34  2  0
 39 38  1  0
 40 39  1  0
 42 43  1  0
 43 46  1  0
 43 45  1  0
 44 42  2  0
 47 22  1  0
 47 48  1  0
 49 47  1  0
 51 50  1  0
 52 63  2  0
 53 51  1  0
 53 58  1  0
 54 62  1  0
 54 64  1  0
 55 61  1  0
 55 57  1  0
 56 62  1  0
 57 58  2  0
 57 56  1  0
 59 53  2  0
 60 59  1  0
 60 55  2  0
 61 54  1  0
 62 52  1  0
 64 66  2  0
 65 64  1  0
 67 65  1  0
 68 77  2  0
 68 73  1  0
 69 65  1  0
 69 73  1  0
 70 69  1  0
 71 72  1  0
 71 70  1  0
 72 68  1  0
 73 74  2  0
 74 75  1  0
 76 75  2  0
 77 76  1  0
 78 52  1  0
 78 79  1  0
 78 88  1  0
 79 82  1  0
 80 84  1  0
 80 79  1  0
 81 80  2  0
 84 83  1  0
 86 84  1  0
 86 87  1  0
 86 85  1  0
 88 91  1  1
 88 89  1  0
 90 88  1  0
M  ISO  4   8 100  21 100  50 101  51 101
M  END
>  <TORSDO>  (81) 
F 17

>  <SCORE>  (81) 
-15.367

>  <name>  (81) 
80

>  <ligand_id>  (81) 
80

>  <original_smiles>  (81) 
[H]c1nc(C([H])([H])Oc2c([H])c([H])c3c(c2[H])C([H])([H])N(C(=O)C([H])(N([H])C(=O)C([H])(N([H])C([H])([H])[H])C([H])([H])[H])C(C([H])([H])[H])(C([H])([H])[H])C([H])([H])[H])C([H])(C(=O)N([H])C2([H])c4c([H])c([H])c([H])c([H])c4C([H])([H])C([H])([H])C2([H])[H])C3([H])[H])c(C([H])([H])[H])c([H])c1C1([H])C([H])([H])C([H])([H])N(C(=O)N2C([H])([H])C([H])([H])C([H])([H])C([H])(n3nc(-c4c([H])c([H])c(Oc5c([H])c([H])c(F)c([H])c5F)c([H])c4[H])c(C(=O)N([H])[H])c3N([H])[H])C2([H])[H])C([H])([H])C1([H])[H]

>  <smiles>  (81) 
[H]c1nc(C([H])([H])Oc2c([H])c([H])c3c(c2[H])C([H])([H])N(C(=O)C([H])(N([H])C(=O)C([H])(N([H])C([H])([H])[H])C([H])([H])[H])C(C([H])([H])[H])(C([H])([H])[H])C([H])([H])[H])C([H])(C(=O)N([H])C2([H])c4c([H])c([H])c([H])c([H])c4C([H])([H])C([H])([H])C2([H])[H])C3([H])[H])c(C([H])([H])[H])c([H])c1C1([H])C([H])([H])C([H])([H])N(C(=O)N2C([H])([H])C([H])([H])C([H])([H])C([H])(n3nc(-c4c([H])c([H])c(Oc5c([H])c([H])c(F)c([H])c5F)c([H])c4[H])c(C(=O)N([H])[H])c3N([H])[H])C2([H])[H])C([H])([H])C1([H])[H]

$$$$
81:0:0
     RDKit          3D

 89 98  0  0  1  0  0  0  0  0999 V2000
  -30.4210  -15.2380   20.3690 C   0  0  0  0  0  0  0  0  0  0  0  0
  -30.4400  -12.8050   19.4960 C   0  0  0  0  0  2  0  0  0  0  0  0
  -29.5320  -12.6380   18.2510 C   0  0  0  0  0  2  0  0  0  0  0  0
  -28.0680  -12.3840   18.6590 C   0  0  0  0  0  2  0  0  0  0  0  0
  -27.6070  -13.3200   19.8040 C   0  0  0  0  0  3  0  0  0  0  0  0
  -28.6460  -13.4220   20.9430 C   0  0  0  0  0  2  0  0  0  0  0  0
  -29.8900  -13.9220   20.3370 N   0  0  0  0  0  0  0  0  0  0  0  0
  -31.6410  -15.2900   20.1490 O   0  0  0  0  0  0  0  0  0  0  0  0
  -28.0770  -20.2130   20.3860 C   0  0  0  0  0  3  0  0  0  0  0  0
  -28.2630  -18.7470   20.4030 C   0  0  0  0  0  3  0  0  0  0  0  0
  -29.1270  -21.2080   20.3660 C   0  0  0  0  0  0  0  0  0  0  0  0
  -30.3560  -20.3990   20.3440 C   0  0  0  0  0  0  0  0  0  0  0  0
  -29.5220  -18.0220   20.3980 C   0  0  0  0  0  0  0  0  0  0  0  0
  -31.6910  -21.1210   20.3260 C   0  0  0  0  0  1  0  0  0  0  0  0
  -30.5280  -18.9810   20.3590 N   0  0  0  0  0  0  0  0  0  0  0  0
  -29.5590  -16.4220   20.4590 N   0  0  0  0  0  0  0  0  0  0  0  0
  -28.6200  -16.0800   20.5770 H   0  0  0  0  0  0  0  0  0  0  0  0
  -25.2140  -13.8590   20.5220 C   0  0  0  0  0  0  0  0  0  0  0  0
  -24.1560  -13.0730   20.8820 C   0  0  0  0  0  0  0  0  0  0  0  0
  -24.6390  -11.7280   20.8630 C   0  0  0  0  0  0  0  0  0  0  0  0
  -26.2710  -12.9950   20.2930 N   0  0  0  0  0  0  0  0  0  0  0  0
  -25.9360  -11.7070   20.5670 N   0  0  0  0  0  0  0  0  0  0  0  0
  -23.9230  -10.4580   21.0500 C   0  0  0  0  0  0  0  0  0  0  0  0
  -24.3540   -9.4960   21.9890 C   0  0  0  0  0  3  0  0  0  0  0  0
  -23.6350   -8.2940   22.1660 C   0  0  0  0  0  3  0  0  0  0  0  0
  -22.4690   -8.0460   21.4020 C   0  0  0  0  0  0  0  0  0  0  0  0
  -22.0550   -8.9980   20.4540 C   0  0  0  0  0  3  0  0  0  0  0  0
  -22.7760  -10.1910   20.2760 C   0  0  0  0  0  3  0  0  0  0  0  0
  -21.7230   -6.8950   21.4870 O   0  0  0  0  0  0  0  0  0  0  0  0
  -21.6740   -6.1510   22.6380 C   0  0  0  0  0  0  0  0  0  0  0  0
  -21.2320   -6.7000   23.8610 C   0  0  0  0  0  3  0  0  0  0  0  0
  -21.1310   -5.8810   25.0040 C   0  0  0  0  0  3  0  0  0  0  0  0
  -21.4650   -4.5150   24.9250 C   0  0  0  0  0  0  0  0  0  0  0  0
  -21.9020   -3.9670   23.7080 C   0  0  0  0  0  3  0  0  0  0  0  0
  -22.0050   -4.7820   22.5670 C   0  0  0  0  0  0  0  0  0  0  0  0
  -22.4050   -4.2440   21.3900 F   0  0  0  0  0  0  0  0  0  0  0  0
  -21.3600   -3.7270   26.0220 F   0  0  0  0  0  0  0  0  0  0  0  0
  -22.7490  -13.5370   21.1230 C   0  0  0  0  0  0  0  0  0  0  0  0
  -22.0180  -12.8500   21.9930 N   0  0  0  0  0  0  0  0  0  0  0  0
  -22.3080  -14.5480   20.5790 O   0  0  0  0  0  0  0  0  0  0  0  0
  -22.3860  -12.0370   22.4650 H   0  0  0  0  0  0  0  0  0  0  0  0
  -21.0740  -13.1450   22.1950 H   0  0  0  0  0  0  0  0  0  0  0  0
  -25.3560  -15.2320   20.3390 N   0  0  0  0  0  0  0  0  0  0  0  0
  -24.5600  -15.8560   20.4270 H   0  0  0  0  0  0  0  0  0  0  0  0
  -26.1700  -15.6820   19.9460 H   0  0  0  0  0  0  0  0  0  0  0  0
  -28.9430  -23.7730   19.1810 C   0  0  0  0  0  2  0  0  0  0  0  0
  -29.0420  -22.9530   20.4550 C   0  0  0  0  0  3  0  0  0  0  0  0
  -28.0070  -24.3510   20.2220 C   0  0  0  0  0  3  0  0  0  0  0  0
  -28.2140  -25.9670   20.3370 O   0  0  0  0  0  0  0  0  0  0  0  0
  -24.6400  -31.8930   23.2520 C   0  0  0  0  0  0  0  0  0  0  0  0
  -27.1830  -27.0260   20.2630 C   0  0  0  0  0  0  0  0  0  0  0  0
  -23.4370  -30.4940   21.6210 C   0  0  0  0  0  3  0  0  0  0  0  0
  -24.8800  -28.8800   20.2080 C   0  0  0  0  0  0  0  0  0  0  0  0
  -26.0020  -30.7040   21.4730 C   0  0  0  0  0  2  0  0  0  0  0  0
  -26.0670  -29.2950   20.8230 C   0  0  0  0  0  0  0  0  0  0  0  0
  -27.2120  -28.3890   20.8280 C   0  0  0  0  0  3  0  0  0  0  0  0
  -25.9670  -26.7500   19.5980 C   0  0  0  0  0  3  0  0  0  0  0  0
  -24.8510  -27.6270   19.5750 C   0  0  0  0  0  3  0  0  0  0  0  0
  -23.6640  -29.8010   20.2490 C   0  0  0  0  0  2  0  0  0  0  0  0
  -24.7140  -31.0570   22.1690 N   0  0  0  0  0  0  0  0  0  0  0  0
  -23.5530  -32.1900   23.7750 O   0  0  0  0  0  0  0  0  0  0  0  0
  -22.7410  -29.5060   22.5920 C   0  0  0  0  0  0  0  0  0  0  0  0
  -21.4110  -29.3460   22.4630 N   0  0  0  0  0  0  0  0  0  0  0  0
  -23.4020  -28.8830   23.4240 O   0  0  0  0  0  0  0  0  0  0  0  0
  -20.9300  -29.8930   21.7640 H   0  0  0  0  0  0  0  0  0  0  0  0
  -18.0240  -28.1540   22.9720 C   0  0  0  0  0  0  0  0  0  0  0  0
  -20.5830  -28.4180   23.2410 C   0  0  0  0  0  3  0  0  0  0  0  0
  -20.6840  -26.9800   22.6800 C   0  0  0  0  0  2  0  0  0  0  0  0
  -19.5860  -26.6490   21.6650 C   0  0  0  0  0  2  0  0  0  0  0  0
  -18.2030  -26.8010   22.3030 C   0  0  0  0  0  2  0  0  0  0  0  0
  -19.1420  -28.9200   23.3980 C   0  0  0  0  0  0  0  0  0  0  0  0
  -18.9210  -30.1850   23.9860 C   0  0  0  0  0  3  0  0  0  0  0  0
  -17.6160  -30.6860   24.1490 C   0  0  0  0  0  3  0  0  0  0  0  0
  -16.5120  -29.9170   23.7390 C   0  0  0  0  0  3  0  0  0  0  0  0
  -16.7170  -28.6530   23.1570 C   0  0  0  0  0  3  0  0  0  0  0  0
  -25.9150  -32.5310   23.8810 C   0  0  0  0  0  3  0  0  0  0  0  0
  -26.4200  -31.7680   25.1680 C   0  0  1  0  0  0  0  0  0  0  0  0
  -25.3200  -31.5500   26.2350 C   0  0  0  0  0  1  0  0  0  0  0  0
  -26.9960  -30.3810   24.8020 C   0  0  0  0  0  1  0  0  0  0  0  0
  -27.5730  -32.5600   25.8290 C   0  0  0  0  0  1  0  0  0  0  0  0
  -25.6050  -33.9320   24.2130 N   0  0  0  0  0  0  0  0  0  0  0  0
  -25.9220  -34.9890   23.4520 C   0  0  0  0  0  0  0  0  0  0  0  0
  -26.5700  -34.8870   22.4080 O   0  0  0  0  0  0  0  0  0  0  0  0
  -25.0270  -34.0840   25.0260 H   0  0  0  0  0  0  0  0  0  0  0  0
  -24.1780  -36.7820   23.1580 C   0  0  0  0  0  1  0  0  0  0  0  0
  -25.4480  -36.3780   23.9250 C   0  0  0  0  0  3  0  0  0  0  0  0
  -27.6030  -37.2800   24.6830 C   0  0  0  0  0  1  0  0  0  0  0  0
  -26.4730  -37.4350   23.7710 N   0  0  0  0  0  0  0  0  0  0  0  0
  -26.0690  -38.3560   23.9200 H   0  0  0  0  0  0  0  0  0  0  0  0
  1 16  1  0
  2  7  1  0
  3  4  1  0
  3  2  1  0
  5  4  1  0
  5 21  1  0
  5  6  1  0
  7  1  1  0
  7  6  1  0
  8  1  2  0
  9 10  1  0
 11  9  2  0
 12 15  2  0
 12 11  1  0
 13 10  2  0
 13 16  1  0
 14 12  1  0
 15 13  1  0
 16 17  1  0
 18 19  2  0
 19 38  1  0
 20 19  1  0
 20 23  1  0
 21 18  1  0
 21 22  1  0
 22 20  2  0
 23 24  1  0
 24 25  2  0
 26 29  1  0
 26 25  1  0
 27 26  2  0
 28 27  1  0
 28 23  2  0
 29 30  1  0
 30 31  1  0
 31 32  2  0
 33 32  1  0
 33 37  1  0
 34 33  2  0
 35 30  2  0
 35 34  1  0
 36 35  1  0
 38 39  1  0
 39 42  1  0
 39 41  1  0
 40 38  2  0
 43 44  1  0
 43 18  1  0
 45 43  1  0
 46 48  1  0
 46 47  1  0
 47 11  1  0
 48 49  1  0
 48 47  1  0
 50 61  2  0
 51 49  1  0
 51 56  1  0
 52 60  1  0
 52 62  1  0
 53 59  1  0
 53 55  1  0
 54 60  1  0
 55 56  2  0
 55 54  1  0
 57 51  2  0
 58 57  1  0
 58 53  2  0
 59 52  1  0
 60 50  1  0
 62 64  2  0
 63 62  1  0
 65 63  1  0
 66 75  2  0
 66 71  1  0
 67 63  1  0
 67 71  1  0
 68 67  1  0
 69 70  1  0
 69 68  1  0
 70 66  1  0
 71 72  2  0
 72 73  1  0
 74 73  2  0
 75 74  1  0
 76 50  1  0
 76 81  1  0
 76 77  1  0
 77 80  1  1
 77 78  1  0
 79 77  1  0
 81 84  1  0
 82 86  1  0
 82 81  1  0
 83 82  2  0
 86 85  1  0
 88 89  1  0
 88 86  1  0
 88 87  1  0
M  ISO  4   1 100  16 100  48 101  49 101
M  END
>  <TORSDO>  (82) 
F 16

>  <SCORE>  (82) 
-15.981

>  <name>  (82) 
81

>  <ligand_id>  (82) 
81

>  <original_smiles>  (82) 
[H]c1c(N([H])C(=O)N2C([H])([H])C([H])([H])C([H])([H])C([H])(n3nc(-c4c([H])c([H])c(Oc5c([H])c([H])c(F)c([H])c5F)c([H])c4[H])c(C(=O)N([H])[H])c3N([H])[H])C2([H])[H])nc(C([H])([H])[H])c(C2([H])C([H])([H])C2([H])Oc2c([H])c([H])c3c(c2[H])C([H])([H])N(C(=O)C([H])(N([H])C(=O)C([H])(N([H])C([H])([H])[H])C([H])([H])[H])C(C([H])([H])[H])(C([H])([H])[H])C([H])([H])[H])C([H])(C(=O)N([H])C2([H])c4c([H])c([H])c([H])c([H])c4C([H])([H])C([H])([H])C2([H])[H])C3([H])[H])c1[H]

>  <smiles>  (82) 
[H]c1c(N([H])C(=O)N2C([H])([H])C([H])([H])C([H])([H])C([H])(n3nc(-c4c([H])c([H])c(Oc5c([H])c([H])c(F)c([H])c5F)c([H])c4[H])c(C(=O)N([H])[H])c3N([H])[H])C2([H])[H])nc(C([H])([H])[H])c(C2([H])C([H])([H])C2([H])Oc2c([H])c([H])c3c(c2[H])C([H])([H])N(C(=O)C([H])(N([H])C(=O)C([H])(N([H])C([H])([H])[H])C([H])([H])[H])C(C([H])([H])[H])(C([H])([H])[H])C([H])([H])[H])C([H])(C(=O)N([H])C2([H])c4c([H])c([H])c([H])c([H])c4C([H])([H])C([H])([H])C2([H])[H])C3([H])[H])c1[H]

$$$$
82:0:0
     RDKit          3D

 92101  0  0  1  0  0  0  0  0999 V2000
  -29.5550  -23.3780   19.3710 C   0  0  0  0  0  3  0  0  0  0  0  0
  -29.9650  -22.0070   19.1990 C   0  0  0  0  0  0  0  0  0  0  0  0
  -28.5450  -23.7380   20.3000 C   0  0  0  0  0  0  0  0  0  0  0  0
  -29.3860  -20.9440   19.9700 C   0  0  0  0  0  0  0  0  0  0  0  0
  -27.9980  -22.6020   20.9890 C   0  0  0  0  0  0  0  0  0  0  0  0
  -31.0370  -21.7050   18.1650 C   0  0  0  0  0  1  0  0  0  0  0  0
  -26.8850  -22.7750   22.0100 C   0  0  0  0  0  1  0  0  0  0  0  0
  -28.3930  -21.2930   20.8290 N   0  0  0  0  0  0  0  0  0  0  0  0
  -30.8630  -14.9830   19.9470 C   0  0  0  0  0  0  0  0  0  0  0  0
  -30.5920  -12.6940   18.9820 C   0  0  0  0  0  2  0  0  0  0  0  0
  -29.5880  -12.7160   17.8110 C   0  0  0  0  0  2  0  0  0  0  0  0
  -28.1550  -12.5130   18.3340 C   0  0  0  0  0  2  0  0  0  0  0  0
  -27.8290  -13.4250   19.5470 C   0  0  0  0  0  3  0  0  0  0  0  0
  -28.9520  -13.4180   20.6050 C   0  0  0  0  0  2  0  0  0  0  0  0
  -30.1980  -13.7750   19.9190 N   0  0  0  0  0  0  0  0  0  0  0  0
  -32.0490  -15.0080   19.5970 O   0  0  0  0  0  0  0  0  0  0  0  0
  -30.2880  -18.6780   21.1890 C   0  0  0  0  0  2  0  0  0  0  0  0
  -28.8900  -18.3360   19.2640 C   0  0  0  0  0  2  0  0  0  0  0  0
  -30.9250  -17.2330   20.9950 C   0  0  0  0  0  2  0  0  0  0  0  0
  -29.5450  -16.9000   19.0330 C   0  0  0  0  0  2  0  0  0  0  0  0
  -29.8440  -19.3960   19.8840 C   0  0  0  0  0  3  0  0  0  0  0  0
  -30.1940  -16.1960   20.1890 N   0  0  0  0  0  0  0  0  0  0  0  0
  -25.5040  -13.9990   20.4540 C   0  0  0  0  0  0  0  0  0  0  0  0
  -24.4600  -13.2160   20.8630 C   0  0  0  0  0  0  0  0  0  0  0  0
  -24.9140  -11.8650   20.7570 C   0  0  0  0  0  0  0  0  0  0  0  0
  -26.5250  -13.1230   20.1230 N   0  0  0  0  0  0  0  0  0  0  0  0
  -26.1830  -11.8330   20.3690 N   0  0  0  0  0  0  0  0  0  0  0  0
  -24.1960  -10.5990   20.9510 C   0  0  0  0  0  0  0  0  0  0  0  0
  -24.6290   -9.6410   21.8940 C   0  0  0  0  0  3  0  0  0  0  0  0
  -23.9100   -8.4400   22.0730 C   0  0  0  0  0  3  0  0  0  0  0  0
  -22.7460   -8.1880   21.3100 C   0  0  0  0  0  0  0  0  0  0  0  0
  -22.3340   -9.1340   20.3550 C   0  0  0  0  0  3  0  0  0  0  0  0
  -23.0510  -10.3280   20.1740 C   0  0  0  0  0  3  0  0  0  0  0  0
  -22.0000   -7.0380   21.3980 O   0  0  0  0  0  0  0  0  0  0  0  0
  -21.8820   -6.3480   22.5770 C   0  0  0  0  0  0  0  0  0  0  0  0
  -21.2990   -6.9260   23.7240 C   0  0  0  0  0  3  0  0  0  0  0  0
  -21.1340   -6.1570   24.8940 C   0  0  0  0  0  3  0  0  0  0  0  0
  -21.5420   -4.8100   24.9150 C   0  0  0  0  0  0  0  0  0  0  0  0
  -22.1180   -4.2300   23.7700 C   0  0  0  0  0  3  0  0  0  0  0  0
  -22.2840   -4.9970   22.6030 C   0  0  0  0  0  0  0  0  0  0  0  0
  -22.8200   -4.4280   21.4970 F   0  0  0  0  0  0  0  0  0  0  0  0
  -21.3770   -4.0680   26.0350 F   0  0  0  0  0  0  0  0  0  0  0  0
  -23.0850  -13.6880   21.2360 C   0  0  0  0  0  0  0  0  0  0  0  0
  -22.4070  -12.9610   22.1160 N   0  0  0  0  0  0  0  0  0  0  0  0
  -22.6240  -14.7350   20.7820 O   0  0  0  0  0  0  0  0  0  0  0  0
  -22.7920  -12.1140   22.5020 H   0  0  0  0  0  0  0  0  0  0  0  0
  -21.4860  -13.2610   22.4100 H   0  0  0  0  0  0  0  0  0  0  0  0
  -25.6680  -15.3750   20.3160 N   0  0  0  0  0  0  0  0  0  0  0  0
  -24.9240  -16.0340   20.5060 H   0  0  0  0  0  0  0  0  0  0  0  0
  -26.5180  -15.8180   19.9920 H   0  0  0  0  0  0  0  0  0  0  0  0
  -28.0000  -25.2170   20.6190 C   0  0  0  0  0  2  0  0  0  0  0  0
  -28.3090  -26.4920   19.8830 O   0  0  0  0  0  0  0  0  0  0  0  0
  -24.6240  -31.8620   23.1380 C   0  0  0  0  0  0  0  0  0  0  0  0
  -27.2500  -27.4290   19.8740 C   0  0  0  0  0  0  0  0  0  0  0  0
  -23.4230  -30.5080   21.4620 C   0  0  0  0  0  3  0  0  0  0  0  0
  -24.8780  -29.0420   19.9490 C   0  0  0  0  0  0  0  0  0  0  0  0
  -25.9580  -30.8660   21.2590 C   0  0  0  0  0  2  0  0  0  0  0  0
  -26.0520  -29.5120   20.5550 C   0  0  0  0  0  0  0  0  0  0  0  0
  -27.2440  -28.7170   20.5110 C   0  0  0  0  0  3  0  0  0  0  0  0
  -26.0620  -27.0420   19.2190 C   0  0  0  0  0  3  0  0  0  0  0  0
  -24.8890  -27.8170   19.2670 C   0  0  0  0  0  3  0  0  0  0  0  0
  -23.6280  -29.8940   20.0530 C   0  0  0  0  0  2  0  0  0  0  0  0
  -24.6890  -31.0940   22.0110 N   0  0  0  0  0  0  0  0  0  0  0  0
  -23.5450  -32.1000   23.6970 O   0  0  0  0  0  0  0  0  0  0  0  0
  -22.7860  -29.4450   22.3890 C   0  0  0  0  0  0  0  0  0  0  0  0
  -21.4600  -29.2580   22.2810 N   0  0  0  0  0  0  0  0  0  0  0  0
  -23.4850  -28.7910   23.1680 O   0  0  0  0  0  0  0  0  0  0  0  0
  -20.9530  -29.8390   21.6280 H   0  0  0  0  0  0  0  0  0  0  0  0
  -18.0990  -28.0240   22.8200 C   0  0  0  0  0  0  0  0  0  0  0  0
  -20.6640  -28.2790   23.0240 C   0  0  0  0  0  3  0  0  0  0  0  0
  -20.7510  -26.8800   22.3710 C   0  0  0  0  0  2  0  0  0  0  0  0
  -19.6190  -26.6060   21.3770 C   0  0  0  0  0  2  0  0  0  0  0  0
  -18.2560  -26.7120   22.0680 C   0  0  0  0  0  2  0  0  0  0  0  0
  -19.2290  -28.7670   23.2540 C   0  0  0  0  0  0  0  0  0  0  0  0
  -19.0260  -29.9950   23.9180 C   0  0  0  0  0  3  0  0  0  0  0  0
  -17.7260  -30.4820   24.1490 C   0  0  0  0  0  3  0  0  0  0  0  0
  -16.6110  -29.7350   23.7320 C   0  0  0  0  0  3  0  0  0  0  0  0
  -16.7980  -28.5070   23.0740 C   0  0  0  0  0  3  0  0  0  0  0  0
  -25.9040  -32.4930   23.7700 C   0  0  0  0  0  3  0  0  0  0  0  0
  -25.5860  -33.8820   24.1300 N   0  0  0  0  0  0  0  0  0  0  0  0
  -25.8980  -34.9520   23.3880 C   0  0  0  0  0  0  0  0  0  0  0  0
  -26.5550  -34.8740   22.3470 O   0  0  0  0  0  0  0  0  0  0  0  0
  -25.0090  -34.0180   24.9470 H   0  0  0  0  0  0  0  0  0  0  0  0
  -24.1570  -36.7400   23.0810 C   0  0  0  0  0  1  0  0  0  0  0  0
  -25.4030  -36.3260   23.8790 C   0  0  0  0  0  3  0  0  0  0  0  0
  -27.5310  -37.2100   24.7270 C   0  0  0  0  0  1  0  0  0  0  0  0
  -26.4260  -37.3910   23.7890 N   0  0  0  0  0  0  0  0  0  0  0  0
  -26.0120  -38.3030   23.9610 H   0  0  0  0  0  0  0  0  0  0  0  0
  -26.4300  -31.7020   25.0310 C   0  0  1  0  0  0  0  0  0  0  0  0
  -25.3380  -31.4280   26.0930 C   0  0  0  0  0  1  0  0  0  0  0  0
  -27.0290  -30.3400   24.6090 C   0  0  0  0  0  1  0  0  0  0  0  0
  -27.5750  -32.4920   25.7060 C   0  0  0  0  0  1  0  0  0  0  0  0
  1  3  1  0
  2  1  2  0
  2  4  1  0
  3 51  1  0
  3  5  2  0
  4  8  2  0
  5  7  1  0
  6  2  1  0
  8  5  1  0
  9 22  1  0
 10 15  1  0
 11 12  1  0
 11 10  1  0
 13 12  1  0
 13 26  1  0
 13 14  1  0
 15  9  1  0
 15 14  1  0
 16  9  2  0
 18 21  1  0
 19 17  1  0
 20 18  1  0
 20 22  1  0
 21  4  1  0
 21 17  1  0
 22 19  1  0
 23 24  2  0
 24 43  1  0
 25 24  1  0
 25 28  1  0
 26 27  1  0
 26 23  1  0
 27 25  2  0
 28 29  1  0
 29 30  2  0
 31 34  1  0
 31 30  1  0
 32 31  2  0
 33 32  1  0
 33 28  2  0
 34 35  1  0
 35 40  2  0
 35 36  1  0
 36 37  2  0
 37 38  1  0
 38 42  1  0
 39 38  2  0
 40 39  1  0
 41 40  1  0
 43 44  1  0
 44 47  1  0
 44 46  1  0
 45 43  2  0
 48 23  1  0
 48 49  1  0
 50 48  1  0
 52 51  1  0
 53 64  2  0
 54 52  1  0
 54 59  1  0
 55 63  1  0
 55 65  1  0
 56 62  1  0
 56 58  1  0
 57 63  1  0
 58 57  1  0
 59 58  2  0
 60 61  1  0
 60 54  2  0
 61 56  2  0
 62 55  1  0
 63 53  1  0
 65 67  2  0
 66 65  1  0
 68 66  1  0
 69 78  2  0
 69 74  1  0
 70 66  1  0
 70 74  1  0
 71 70  1  0
 72 73  1  0
 72 71  1  0
 73 69  1  0
 74 75  2  0
 75 76  1  0
 77 76  2  0
 78 77  1  0
 79 53  1  0
 79 80  1  0
 79 89  1  0
 80 83  1  0
 81 85  1  0
 81 80  1  0
 82 81  2  0
 85 84  1  0
 87 85  1  0
 87 88  1  0
 87 86  1  0
 89 92  1  1
 89 90  1  0
 91 89  1  0
M  ISO  4   9 100  22 100  51 101  52 101
M  END
>  <TORSDO>  (83) 
F 17

>  <SCORE>  (83) 
-14.479

>  <name>  (83) 
82

>  <ligand_id>  (83) 
82

>  <original_smiles>  (83) 
[H]c1c([H])c([H])c2c(c1[H])C([H])([H])C([H])([H])C([H])([H])C2([H])N([H])C(=O)C1([H])N(C(=O)C([H])(N([H])C(=O)C([H])(N([H])C([H])([H])[H])C([H])([H])[H])C(C([H])([H])[H])(C([H])([H])[H])C([H])([H])[H])C([H])([H])c2c([H])c(OC([H])([H])c3c(C([H])([H])[H])nc(C4([H])C([H])([H])C([H])([H])N(C(=O)N5C([H])([H])C([H])([H])C([H])([H])C([H])(n6nc(-c7c([H])c([H])c(Oc8c([H])c([H])c(F)c([H])c8F)c([H])c7[H])c(C(=O)N([H])[H])c6N([H])[H])C5([H])[H])C([H])([H])C4([H])[H])c(C([H])([H])[H])c3[H])c([H])c([H])c2C1([H])[H]

>  <smiles>  (83) 
[H]c1c([H])c([H])c2c(c1[H])C([H])([H])C([H])([H])C([H])([H])C2([H])N([H])C(=O)C1([H])N(C(=O)C([H])(N([H])C(=O)C([H])(N([H])C([H])([H])[H])C([H])([H])[H])C(C([H])([H])[H])(C([H])([H])[H])C([H])([H])[H])C([H])([H])c2c([H])c(OC([H])([H])c3c(C([H])([H])[H])nc(C4([H])C([H])([H])C([H])([H])N(C(=O)N5C([H])([H])C([H])([H])C([H])([H])C([H])(n6nc(-c7c([H])c([H])c(Oc8c([H])c([H])c(F)c([H])c8F)c([H])c7[H])c(C(=O)N([H])[H])c6N([H])[H])C5([H])[H])C([H])([H])C4([H])[H])c(C([H])([H])[H])c3[H])c([H])c([H])c2C1([H])[H]

$$$$
83:0:0
     RDKit          3D

 95104  0  0  1  0  0  0  0  0999 V2000
  -30.2040  -21.6790   21.9300 C   0  0  0  0  0  3  0  0  0  0  0  0
  -30.3100  -23.0300   22.2880 C   0  0  0  0  0  3  0  0  0  0  0  0
  -29.4170  -21.3390   20.8300 C   0  0  0  0  0  0  0  0  0  0  0  0
  -28.8890  -23.6880   20.6090 C   0  0  0  0  0  0  0  0  0  0  0  0
  -29.8230  -18.7070   21.1660 C   0  0  0  0  0  2  0  0  0  0  0  0
  -29.0640  -19.5290   19.0650 C   0  0  0  0  0  2  0  0  0  0  0  0
  -30.0130  -17.4760   20.1500 C   0  0  0  0  0  3  0  0  0  0  0  0
  -29.0210  -17.9670   19.0600 C   0  0  0  0  0  3  0  0  0  0  0  0
  -29.6610  -24.0160   21.6400 N   0  0  0  0  0  0  0  0  0  0  0  0
  -28.7640  -22.3780   20.1790 N   0  0  0  0  0  0  0  0  0  0  0  0
  -29.3190  -19.9360   20.4390 N   0  0  0  0  0  0  0  0  0  0  0  0
  -30.5620  -14.8620   20.3630 C   0  0  0  0  0  0  0  0  0  0  0  0
  -30.3750  -12.5670   19.3770 C   0  0  0  0  0  2  0  0  0  0  0  0
  -29.4360  -12.6200   18.1500 C   0  0  0  0  0  2  0  0  0  0  0  0
  -27.9670  -12.4460   18.5820 C   0  0  0  0  0  2  0  0  0  0  0  0
  -27.5910  -13.3340   19.7970 C   0  0  0  0  0  3  0  0  0  0  0  0
  -28.6520  -13.2620   20.9170 C   0  0  0  0  0  2  0  0  0  0  0  0
  -29.9450  -13.6270   20.3230 N   0  0  0  0  0  0  0  0  0  0  0  0
  -31.7340  -14.9640   19.9920 O   0  0  0  0  0  0  0  0  0  0  0  0
  -29.7860  -16.0020   20.5760 N   0  0  0  0  0  0  0  0  0  0  0  0
  -28.8620  -15.8060   20.9330 H   0  0  0  0  0  0  0  0  0  0  0  0
  -25.2060  -13.9210   20.5370 C   0  0  0  0  0  0  0  0  0  0  0  0
  -24.1410  -13.1460   20.9050 C   0  0  0  0  0  0  0  0  0  0  0  0
  -24.6020  -11.7950   20.8650 C   0  0  0  0  0  0  0  0  0  0  0  0
  -26.2480  -13.0430   20.2900 N   0  0  0  0  0  0  0  0  0  0  0  0
  -25.8930  -11.7580   20.5510 N   0  0  0  0  0  0  0  0  0  0  0  0
  -23.8750  -10.5330   21.0500 C   0  0  0  0  0  0  0  0  0  0  0  0
  -24.3060   -9.5600   21.9780 C   0  0  0  0  0  3  0  0  0  0  0  0
  -23.5770   -8.3630   22.1520 C   0  0  0  0  0  3  0  0  0  0  0  0
  -22.4030   -8.1320   21.3980 C   0  0  0  0  0  0  0  0  0  0  0  0
  -21.9910   -9.0940   20.4580 C   0  0  0  0  0  3  0  0  0  0  0  0
  -22.7200  -10.2810   20.2820 C   0  0  0  0  0  3  0  0  0  0  0  0
  -21.6460   -6.9880   21.4800 O   0  0  0  0  0  0  0  0  0  0  0  0
  -21.5920   -6.2420   22.6310 C   0  0  0  0  0  0  0  0  0  0  0  0
  -21.1560   -6.7930   23.8560 C   0  0  0  0  0  3  0  0  0  0  0  0
  -21.0500   -5.9730   24.9970 C   0  0  0  0  0  3  0  0  0  0  0  0
  -21.3700   -4.6040   24.9150 C   0  0  0  0  0  0  0  0  0  0  0  0
  -21.8010   -4.0540   23.6950 C   0  0  0  0  0  3  0  0  0  0  0  0
  -21.9080   -4.8700   22.5560 C   0  0  0  0  0  0  0  0  0  0  0  0
  -22.3030   -4.3310   21.3780 F   0  0  0  0  0  0  0  0  0  0  0  0
  -21.2620   -3.8150   26.0090 F   0  0  0  0  0  0  0  0  0  0  0  0
  -22.7460  -13.6250   21.1820 C   0  0  0  0  0  0  0  0  0  0  0  0
  -22.0170  -12.9250   22.0450 N   0  0  0  0  0  0  0  0  0  0  0  0
  -22.3100  -14.6550   20.6690 O   0  0  0  0  0  0  0  0  0  0  0  0
  -22.3800  -12.0910   22.4810 H   0  0  0  0  0  0  0  0  0  0  0  0
  -21.0810  -13.2300   22.2720 H   0  0  0  0  0  0  0  0  0  0  0  0
  -25.3700  -15.2930   20.3670 N   0  0  0  0  0  0  0  0  0  0  0  0
  -24.6000  -15.9420   20.4970 H   0  0  0  0  0  0  0  0  0  0  0  0
  -26.2120  -15.7390   20.0340 H   0  0  0  0  0  0  0  0  0  0  0  0
  -29.2650  -17.3880   17.7300 N   0  0  0  0  0  4  0  0  0  0  0  0
  -30.1750  -17.6420   17.3870 H   0  0  0  0  0  0  0  0  0  0  0  0
  -28.5770  -17.7230   17.0780 H   0  0  0  0  0  0  0  0  0  0  0  0
  -29.2020  -16.3880   17.7590 H   0  0  0  0  0  0  0  0  0  0  0  0
  -28.0180  -24.8930   19.9990 C   0  0  0  0  0  2  0  0  0  0  0  0
  -28.2580  -26.3630   20.3270 O   0  0  0  0  0  0  0  0  0  0  0  0
  -24.6030  -31.9430   23.2610 C   0  0  0  0  0  0  0  0  0  0  0  0
  -27.1840  -27.2940   20.2280 C   0  0  0  0  0  0  0  0  0  0  0  0
  -23.3960  -30.5430   21.6270 C   0  0  0  0  0  3  0  0  0  0  0  0
  -24.8410  -28.9810   20.2000 C   0  0  0  0  0  0  0  0  0  0  0  0
  -25.9440  -30.8310   21.4510 C   0  0  0  0  0  2  0  0  0  0  0  0
  -26.0170  -29.4450   20.8040 C   0  0  0  0  0  0  0  0  0  0  0  0
  -27.1880  -28.6140   20.8080 C   0  0  0  0  0  3  0  0  0  0  0  0
  -25.9890  -26.9200   19.5720 C   0  0  0  0  0  3  0  0  0  0  0  0
  -24.8360  -27.7290   19.5710 C   0  0  0  0  0  3  0  0  0  0  0  0
  -23.6120  -29.8670   20.2480 C   0  0  0  0  0  2  0  0  0  0  0  0
  -24.6670  -31.1250   22.1690 N   0  0  0  0  0  0  0  0  0  0  0  0
  -23.5200  -32.2270   23.7930 O   0  0  0  0  0  0  0  0  0  0  0  0
  -22.7270  -29.5340   22.5900 C   0  0  0  0  0  0  0  0  0  0  0  0
  -21.3990  -29.3580   22.4650 N   0  0  0  0  0  0  0  0  0  0  0  0
  -23.4010  -28.9100   23.4140 O   0  0  0  0  0  0  0  0  0  0  0  0
  -20.9130  -29.9140   21.7740 H   0  0  0  0  0  0  0  0  0  0  0  0
  -18.0180  -28.1650   22.9690 C   0  0  0  0  0  0  0  0  0  0  0  0
  -20.5770  -28.4250   23.2390 C   0  0  0  0  0  3  0  0  0  0  0  0
  -20.6790  -26.9900   22.6710 C   0  0  0  0  0  2  0  0  0  0  0  0
  -19.5790  -26.6620   21.6580 C   0  0  0  0  0  2  0  0  0  0  0  0
  -18.1960  -26.8120   22.2990 C   0  0  0  0  0  2  0  0  0  0  0  0
  -19.1370  -28.9290   23.3960 C   0  0  0  0  0  0  0  0  0  0  0  0
  -18.9170  -30.1930   23.9830 C   0  0  0  0  0  3  0  0  0  0  0  0
  -17.6120  -30.6950   24.1460 C   0  0  0  0  0  3  0  0  0  0  0  0
  -16.5080  -29.9280   23.7340 C   0  0  0  0  0  3  0  0  0  0  0  0
  -16.7120  -28.6650   23.1520 C   0  0  0  0  0  3  0  0  0  0  0  0
  -25.8850  -32.5760   23.8820 C   0  0  0  0  0  3  0  0  0  0  0  0
  -26.4000  -31.8070   25.1600 C   0  0  1  0  0  0  0  0  0  0  0  0
  -25.3070  -31.5730   26.2290 C   0  0  0  0  0  1  0  0  0  0  0  0
  -26.9840  -30.4280   24.7750 C   0  0  0  0  0  1  0  0  0  0  0  0
  -27.5520  -32.6020   25.8210 C   0  0  0  0  0  1  0  0  0  0  0  0
  -25.5760  -33.9750   24.2140 N   0  0  0  0  0  0  0  0  0  0  0  0
  -25.8920  -35.0290   23.4490 C   0  0  0  0  0  0  0  0  0  0  0  0
  -26.5440  -34.9250   22.4070 O   0  0  0  0  0  0  0  0  0  0  0  0
  -24.9930  -34.1300   25.0230 H   0  0  0  0  0  0  0  0  0  0  0  0
  -24.1480  -36.8140   23.1300 C   0  0  0  0  0  1  0  0  0  0  0  0
  -25.4110  -36.4170   23.9120 C   0  0  0  0  0  3  0  0  0  0  0  0
  -27.5600  -37.3160   24.6900 C   0  0  0  0  0  1  0  0  0  0  0  0
  -26.4360  -37.4740   23.7700 N   0  0  0  0  0  0  0  0  0  0  0  0
  -26.0280  -38.3930   23.9220 H   0  0  0  0  0  0  0  0  0  0  0  0
  1  2  2  0
  3  1  1  0
  4  9  2  0
  6 11  1  0
  7 20  1  0
  7  5  1  0
  8 50  1  0
  8  6  1  0
  8  7  1  0
  9  2  1  0
 10  4  1  0
 10  3  2  0
 11  3  1  0
 11  5  1  0
 12 20  1  0
 13 18  1  0
 14 15  1  0
 14 13  1  0
 16 15  1  0
 16 25  1  0
 16 17  1  0
 18 12  1  0
 18 17  1  0
 19 12  2  0
 20 21  1  0
 22 23  2  0
 23 42  1  0
 24 23  1  0
 24 27  1  0
 25 22  1  0
 25 26  1  0
 26 24  2  0
 27 28  1  0
 28 29  2  0
 30 33  1  0
 30 29  1  0
 31 30  2  0
 32 31  1  0
 32 27  2  0
 33 34  1  0
 34 35  1  0
 35 36  2  0
 37 36  1  0
 37 41  1  0
 38 37  2  0
 39 34  2  0
 39 38  1  0
 40 39  1  0
 42 43  1  0
 43 46  1  0
 43 45  1  0
 44 42  2  0
 47 48  1  0
 47 22  1  0
 49 47  1  0
 50 53  1  0
 51 50  1  0
 52 50  1  0
 54 55  1  0
 54  4  1  0
 56 67  2  0
 57 55  1  0
 57 62  1  0
 58 66  1  0
 58 68  1  0
 59 65  1  0
 59 61  1  0
 60 66  1  0
 61 62  2  0
 61 60  1  0
 63 57  2  0
 64 63  1  0
 64 59  2  0
 65 58  1  0
 66 56  1  0
 68 70  2  0
 69 68  1  0
 71 69  1  0
 72 81  2  0
 72 77  1  0
 73 69  1  0
 73 77  1  0
 74 73  1  0
 75 76  1  0
 75 74  1  0
 76 72  1  0
 77 78  2  0
 78 79  1  0
 80 79  2  0
 81 80  1  0
 82 56  1  0
 82 87  1  0
 82 83  1  0
 83 86  1  1
 83 84  1  0
 85 83  1  0
 87 90  1  0
 88 92  1  0
 88 87  1  0
 89 88  2  0
 92 91  1  0
 94 92  1  0
 94 95  1  0
 94 93  1  0
M  ISO  4  12 100  20 100  54 101  55 101
M  END
>  <TORSDO>  (84) 
F 18

>  <SCORE>  (84) 
-14.958

>  <name>  (84) 
83

>  <ligand_id>  (84) 
83

>  <original_smiles>  (84) 
[H]c1nc(C([H])([H])Oc2c([H])c([H])c3c(c2[H])C([H])([H])N(C(=O)C([H])(N([H])C(=O)C([H])(N([H])C([H])([H])[H])C([H])([H])[H])C(C([H])([H])[H])(C([H])([H])[H])C([H])([H])[H])C([H])(C(=O)N([H])C2([H])c4c([H])c([H])c([H])c([H])c4C([H])([H])C([H])([H])C2([H])[H])C3([H])[H])nc(N2C([H])([H])C([H])(N([H])C(=O)N3C([H])([H])C([H])([H])C([H])([H])C([H])(n4nc(-c5c([H])c([H])c(Oc6c([H])c([H])c(F)c([H])c6F)c([H])c5[H])c(C(=O)N([H])[H])c4N([H])[H])C3([H])[H])C([H])([N+]([H])([H])[H])C2([H])[H])c1[H]

>  <smiles>  (84) 
[H]c1nc(C([H])([H])Oc2c([H])c([H])c3c(c2[H])C([H])([H])N(C(=O)C([H])(N([H])C(=O)C([H])(N([H])C([H])([H])[H])C([H])([H])[H])C(C([H])([H])[H])(C([H])([H])[H])C([H])([H])[H])C([H])(C(=O)N([H])C2([H])c4c([H])c([H])c([H])c([H])c4C([H])([H])C([H])([H])C2([H])[H])C3([H])[H])nc(N2C([H])([H])C([H])(N([H])C(=O)N3C([H])([H])C([H])([H])C([H])([H])C([H])(n4nc(-c5c([H])c([H])c(Oc6c([H])c([H])c(F)c([H])c6F)c([H])c5[H])c(C(=O)N([H])[H])c4N([H])[H])C3([H])[H])C([H])([N+]([H])([H])[H])C2([H])[H])c1[H]

$$$$
84:0:0
     RDKit          3D

 95105  0  0  1  0  0  0  0  0999 V2000
  -30.4720  -23.8410   18.8020 C   0  0  0  0  0  3  0  0  0  0  0  0
  -28.8860  -22.5930   20.0930 C   0  0  0  0  0  3  0  0  0  0  0  0
  -29.2520  -23.8570   19.5380 C   0  0  0  0  0  0  0  0  0  0  0  0
  -31.2300  -22.6280   18.6730 C   0  0  0  0  0  0  0  0  0  0  0  0
  -29.6950  -21.4330   19.9580 C   0  0  0  0  0  0  0  0  0  0  0  0
  -30.8640  -21.4700   19.2840 N   0  0  0  0  0  0  0  0  0  0  0  0
  -32.0530  -22.2560   16.2630 C   0  0  0  0  0  2  0  0  0  0  0  0
  -32.9110  -21.2560   16.9720 C   0  0  0  0  0  2  0  0  0  0  0  0
  -32.4200  -22.5150   17.7170 C   0  0  0  0  0  3  0  0  0  0  0  0
  -29.2210  -20.2080   20.4940 N   0  0  0  0  0  0  0  0  0  0  0  0
  -28.3390  -20.2590   20.9880 H   0  0  0  0  0  0  0  0  0  0  0  0
  -30.7440  -14.5980   20.0340 C   0  0  0  0  0  0  0  0  0  0  0  0
  -30.3850  -12.4070   18.9390 C   0  0  0  0  0  2  0  0  0  0  0  0
  -29.3820  -12.5740   17.7780 C   0  0  0  0  0  2  0  0  0  0  0  0
  -27.9360  -12.4240   18.2900 C   0  0  0  0  0  2  0  0  0  0  0  0
  -27.6580  -13.2610   19.5670 C   0  0  0  0  0  3  0  0  0  0  0  0
  -28.7800  -13.1010   20.6180 C   0  0  0  0  0  2  0  0  0  0  0  0
  -30.0450  -13.4240   19.9510 N   0  0  0  0  0  0  0  0  0  0  0  0
  -31.9170  -14.6510   19.6390 O   0  0  0  0  0  0  0  0  0  0  0  0
  -29.4810  -18.1040   19.1210 C   0  0  0  0  0  2  0  0  0  0  0  0
  -29.3820  -17.9000   21.5280 C   0  0  0  0  0  2  0  0  0  0  0  0
  -30.2120  -16.7320   19.0300 C   0  0  0  0  0  2  0  0  0  0  0  0
  -30.0560  -16.4780   21.4800 C   0  0  0  0  0  2  0  0  0  0  0  0
  -29.8470  -18.8640   20.4020 C   0  0  0  0  0  3  0  0  0  0  0  0
  -30.0400  -15.7760   20.1650 N   0  0  0  0  0  0  0  0  0  0  0  0
  -25.3250  -13.8360   20.4590 C   0  0  0  0  0  0  0  0  0  0  0  0
  -24.2760  -13.0530   20.8620 C   0  0  0  0  0  0  0  0  0  0  0  0
  -24.7270  -11.7030   20.7560 C   0  0  0  0  0  0  0  0  0  0  0  0
  -26.3460  -12.9620   20.1310 N   0  0  0  0  0  0  0  0  0  0  0  0
  -25.9980  -11.6710   20.3700 N   0  0  0  0  0  0  0  0  0  0  0  0
  -24.0060  -10.4360   20.9500 C   0  0  0  0  0  0  0  0  0  0  0  0
  -24.4500   -9.4710   21.8800 C   0  0  0  0  0  3  0  0  0  0  0  0
  -23.7350   -8.2690   22.0600 C   0  0  0  0  0  3  0  0  0  0  0  0
  -22.5590   -8.0240   21.3150 C   0  0  0  0  0  0  0  0  0  0  0  0
  -22.1350   -8.9790   20.3740 C   0  0  0  0  0  3  0  0  0  0  0  0
  -22.8500  -10.1730   20.1880 C   0  0  0  0  0  3  0  0  0  0  0  0
  -21.8140   -6.8730   21.4040 O   0  0  0  0  0  0  0  0  0  0  0  0
  -21.7210   -6.1660   22.5760 C   0  0  0  0  0  0  0  0  0  0  0  0
  -21.2240   -6.7510   23.7610 C   0  0  0  0  0  3  0  0  0  0  0  0
  -21.0740   -5.9710   24.9240 C   0  0  0  0  0  3  0  0  0  0  0  0
  -21.4120   -4.6040   24.9030 C   0  0  0  0  0  0  0  0  0  0  0  0
  -21.8950   -4.0170   23.7200 C   0  0  0  0  0  3  0  0  0  0  0  0
  -22.0470   -4.7950   22.5600 C   0  0  0  0  0  0  0  0  0  0  0  0
  -22.4980   -4.2200   21.4190 F   0  0  0  0  0  0  0  0  0  0  0  0
  -21.2590   -3.8510   26.0170 F   0  0  0  0  0  0  0  0  0  0  0  0
  -22.9060  -13.5280   21.2380 C   0  0  0  0  0  0  0  0  0  0  0  0
  -22.2320  -12.8080   22.1310 N   0  0  0  0  0  0  0  0  0  0  0  0
  -22.4360  -14.5640   20.7710 O   0  0  0  0  0  0  0  0  0  0  0  0
  -22.6260  -11.9680   22.5220 H   0  0  0  0  0  0  0  0  0  0  0  0
  -21.3130  -13.1090   22.4270 H   0  0  0  0  0  0  0  0  0  0  0  0
  -25.4950  -15.2090   20.3210 N   0  0  0  0  0  0  0  0  0  0  0  0
  -24.7510  -15.8800   20.4860 H   0  0  0  0  0  0  0  0  0  0  0  0
  -26.3470  -15.6410   19.9800 H   0  0  0  0  0  0  0  0  0  0  0  0
  -28.1850  -25.0380   19.5320 C   0  0  0  0  0  2  0  0  0  0  0  0
  -28.4200  -26.4390   19.9980 O   0  0  0  0  0  0  0  0  0  0  0  0
  -24.6380  -31.8530   23.2050 C   0  0  0  0  0  0  0  0  0  0  0  0
  -27.2870  -27.2950   20.0410 C   0  0  0  0  0  0  0  0  0  0  0  0
  -23.4360  -30.4510   21.5720 C   0  0  0  0  0  3  0  0  0  0  0  0
  -24.8860  -28.8880   20.1480 C   0  0  0  0  0  0  0  0  0  0  0  0
  -25.9880  -30.7410   21.4010 C   0  0  0  0  0  2  0  0  0  0  0  0
  -26.0630  -29.3710   20.7310 C   0  0  0  0  0  0  0  0  0  0  0  0
  -27.2600  -28.5850   20.6770 C   0  0  0  0  0  3  0  0  0  0  0  0
  -26.0710  -26.8930   19.4310 C   0  0  0  0  0  3  0  0  0  0  0  0
  -24.8880  -27.6480   19.5030 C   0  0  0  0  0  3  0  0  0  0  0  0
  -23.6540  -29.7730   20.1960 C   0  0  0  0  0  2  0  0  0  0  0  0
  -24.7050  -31.0330   22.1140 N   0  0  0  0  0  0  0  0  0  0  0  0
  -23.5500  -32.1360   23.7300 O   0  0  0  0  0  0  0  0  0  0  0  0
  -22.7680  -29.4380   22.5300 C   0  0  0  0  0  0  0  0  0  0  0  0
  -21.4380  -29.2760   22.4050 N   0  0  0  0  0  0  0  0  0  0  0  0
  -23.4410  -28.7990   23.3390 O   0  0  0  0  0  0  0  0  0  0  0  0
  -20.9550  -29.8380   21.7190 H   0  0  0  0  0  0  0  0  0  0  0  0
  -18.0490  -28.1080   22.9230 C   0  0  0  0  0  0  0  0  0  0  0  0
  -20.6110  -28.3400   23.1740 C   0  0  0  0  0  3  0  0  0  0  0  0
  -20.6950  -26.9110   22.5900 C   0  0  0  0  0  2  0  0  0  0  0  0
  -19.5830  -26.6030   21.5830 C   0  0  0  0  0  2  0  0  0  0  0  0
  -18.2070  -26.7600   22.2400 C   0  0  0  0  0  2  0  0  0  0  0  0
  -19.1780  -28.8570   23.3470 C   0  0  0  0  0  0  0  0  0  0  0  0
  -18.9760  -30.1200   23.9430 C   0  0  0  0  0  3  0  0  0  0  0  0
  -17.6770  -30.6300   24.1280 C   0  0  0  0  0  3  0  0  0  0  0  0
  -16.5620  -29.8760   23.7190 C   0  0  0  0  0  3  0  0  0  0  0  0
  -16.7490  -28.6200   23.1170 C   0  0  0  0  0  3  0  0  0  0  0  0
  -25.9170  -32.4880   23.8270 C   0  0  0  0  0  3  0  0  0  0  0  0
  -26.4320  -31.7140   25.1030 C   0  0  1  0  0  0  0  0  0  0  0  0
  -25.3420  -31.4810   26.1740 C   0  0  0  0  0  1  0  0  0  0  0  0
  -27.0120  -30.3360   24.7140 C   0  0  0  0  0  1  0  0  0  0  0  0
  -27.5820  -32.5080   25.7660 C   0  0  0  0  0  1  0  0  0  0  0  0
  -25.6020  -33.8820   24.1640 N   0  0  0  0  0  0  0  0  0  0  0  0
  -25.9160  -34.9440   23.4120 C   0  0  0  0  0  0  0  0  0  0  0  0
  -26.5720  -34.8510   22.3690 O   0  0  0  0  0  0  0  0  0  0  0  0
  -25.0210  -34.0300   24.9800 H   0  0  0  0  0  0  0  0  0  0  0  0
  -24.1680  -36.7230   23.0800 C   0  0  0  0  0  1  0  0  0  0  0  0
  -25.4180  -36.3230   23.8810 C   0  0  0  0  0  3  0  0  0  0  0  0
  -27.5700  -37.2020   24.6760 C   0  0  0  0  0  1  0  0  0  0  0  0
  -26.4350  -37.3950   23.7820 N   0  0  0  0  0  0  0  0  0  0  0  0
  -26.0200  -38.2990   23.9890 H   0  0  0  0  0  0  0  0  0  0  0  0
  1  3  1  0
  3  2  2  0
  4  1  2  0
  4  6  1  0
  5  2  1  0
  5 10  1  0
  6  5  2  0
  7  8  1  0
  7  9  1  0
  8  9  1  0
  9  4  1  0
 10 11  1  0
 12 25  1  0
 13 18  1  0
 14 15  1  0
 14 13  1  0
 16 15  1  0
 16 29  1  0
 16 17  1  0
 18 12  1  0
 18 17  1  0
 19 12  2  0
 20 24  1  0
 22 20  1  0
 22 25  1  0
 23 21  1  0
 24 10  1  0
 24 21  1  0
 25 23  1  0
 26 27  2  0
 27 46  1  0
 28 27  1  0
 28 31  1  0
 29 30  1  0
 29 26  1  0
 30 28  2  0
 31 32  1  0
 32 33  2  0
 34 37  1  0
 34 33  1  0
 35 34  2  0
 36 35  1  0
 36 31  2  0
 37 38  1  0
 38 39  1  0
 39 40  2  0
 41 40  1  0
 41 45  1  0
 42 41  2  0
 43 38  2  0
 43 42  1  0
 44 43  1  0
 46 47  1  0
 47 50  1  0
 47 49  1  0
 48 46  2  0
 51 26  1  0
 51 52  1  0
 53 51  1  0
 54  3  1  0
 54 55  1  0
 55 57  1  0
 56 67  2  0
 57 62  1  0
 58 66  1  0
 58 68  1  0
 59 65  1  0
 59 61  1  0
 60 66  1  0
 61 60  1  0
 62 61  2  0
 63 64  1  0
 63 57  2  0
 64 59  2  0
 65 58  1  0
 66 56  1  0
 68 70  2  0
 69 68  1  0
 71 69  1  0
 72 81  2  0
 72 77  1  0
 73 69  1  0
 73 77  1  0
 74 73  1  0
 75 76  1  0
 75 74  1  0
 76 72  1  0
 77 78  2  0
 78 79  1  0
 80 79  2  0
 81 80  1  0
 82 56  1  0
 82 87  1  0
 82 83  1  0
 83 86  1  1
 83 84  1  0
 85 83  1  0
 87 90  1  0
 88 92  1  0
 88 87  1  0
 89 88  2  0
 92 91  1  0
 94 92  1  0
 94 95  1  0
 94 93  1  0
M  ISO  4  12 100  25 100  54 101  55 101
M  END
>  <TORSDO>  (85) 
F 19

>  <SCORE>  (85) 
-13.818

>  <name>  (85) 
84

>  <ligand_id>  (85) 
84

>  <original_smiles>  (85) 
[H]c1c([H])c([H])c2c(c1[H])C([H])([H])C([H])([H])C([H])([H])C2([H])N([H])C(=O)C1([H])N(C(=O)C([H])(N([H])C(=O)C([H])(N([H])C([H])([H])[H])C([H])([H])[H])C(C([H])([H])[H])(C([H])([H])[H])C([H])([H])[H])C([H])([H])c2c([H])c(OC([H])([H])c3c([H])c(N([H])C4([H])C([H])([H])C([H])([H])N(C(=O)N5C([H])([H])C([H])([H])C([H])([H])C([H])(n6nc(-c7c([H])c([H])c(Oc8c([H])c([H])c(F)c([H])c8F)c([H])c7[H])c(C(=O)N([H])[H])c6N([H])[H])C5([H])[H])C([H])([H])C4([H])[H])nc(C4([H])C([H])([H])C4([H])[H])c3[H])c([H])c([H])c2C1([H])[H]

>  <smiles>  (85) 
[H]c1c([H])c([H])c2c(c1[H])C([H])([H])C([H])([H])C([H])([H])C2([H])N([H])C(=O)C1([H])N(C(=O)C([H])(N([H])C(=O)C([H])(N([H])C([H])([H])[H])C([H])([H])[H])C(C([H])([H])[H])(C([H])([H])[H])C([H])([H])[H])C([H])([H])c2c([H])c(OC([H])([H])c3c([H])c(N([H])C4([H])C([H])([H])C([H])([H])N(C(=O)N5C([H])([H])C([H])([H])C([H])([H])C([H])(n6nc(-c7c([H])c([H])c(Oc8c([H])c([H])c(F)c([H])c8F)c([H])c7[H])c(C(=O)N([H])[H])c6N([H])[H])C5([H])[H])C([H])([H])C4([H])[H])nc(C4([H])C([H])([H])C4([H])[H])c3[H])c([H])c([H])c2C1([H])[H]

$$$$
85:0:0
     RDKit          3D

 93102  0  0  1  0  0  0  0  0999 V2000
  -30.5400  -15.1500   20.3700 C   0  0  0  0  0  0  0  0  0  0  0  0
  -30.4380  -12.7320   19.5350 C   0  0  0  0  0  2  0  0  0  0  0  0
  -29.5450  -12.5850   18.2810 C   0  0  0  0  0  2  0  0  0  0  0  0
  -28.0760  -12.3740   18.6850 C   0  0  0  0  0  2  0  0  0  0  0  0
  -27.6240  -13.3610   19.7920 C   0  0  0  0  0  3  0  0  0  0  0  0
  -28.6470  -13.4740   20.9430 C   0  0  0  0  0  2  0  0  0  0  0  0
  -29.9220  -13.8850   20.3390 N   0  0  0  0  0  0  0  0  0  0  0  0
  -31.7630  -15.1170   20.1710 O   0  0  0  0  0  0  0  0  0  0  0  0
  -30.8380  -20.6280   20.3190 C   0  0  0  0  0  0  0  0  0  0  0  0
  -29.4720  -20.3290   20.2320 C   0  0  0  0  0  0  0  0  0  0  0  0
  -31.7390  -19.5390   20.4360 C   0  0  0  0  0  0  0  0  0  0  0  0
  -30.0760  -17.8780   20.3530 C   0  0  0  0  0  0  0  0  0  0  0  0
  -31.3030  -22.1040   20.3210 C   0  0  0  0  0  2  0  0  0  0  0  0
  -30.3600  -23.1510   19.6380 C   0  0  0  0  0  2  0  0  0  0  0  0
  -28.4540  -21.6410   20.0900 C   0  0  0  0  0  3  0  0  0  0  0  0
  -33.2340  -19.7640   20.5680 C   0  0  0  0  0  1  0  0  0  0  0  0
  -27.2890  -21.4540   21.0740 C   0  0  0  0  0  1  0  0  0  0  0  0
  -29.1330  -18.9260   20.2400 N   0  0  0  0  0  0  0  0  0  0  0  0
  -31.3550  -18.2350   20.4500 N   0  0  0  0  0  0  0  0  0  0  0  0
  -29.7910  -16.3950   20.4000 N   0  0  0  0  0  0  0  0  0  0  0  0
  -28.9890  -23.1480   20.1970 N   0  0  2  0  0  4  0  0  0  0  0  0
  -28.8040  -16.2150   20.4550 H   0  0  0  0  0  0  0  0  0  0  0  0
  -29.1440  -23.2500   21.1870 H   0  0  0  0  0  0  0  0  0  0  0  0
  -25.2390  -13.9700   20.4750 C   0  0  0  0  0  0  0  0  0  0  0  0
  -24.1570  -13.2120   20.8270 C   0  0  0  0  0  0  0  0  0  0  0  0
  -24.6060  -11.8550   20.8240 C   0  0  0  0  0  0  0  0  0  0  0  0
  -26.2760  -13.0770   20.2690 N   0  0  0  0  0  0  0  0  0  0  0  0
  -25.9040  -11.8010   20.5480 N   0  0  0  0  0  0  0  0  0  0  0  0
  -23.8570  -10.6040   21.0090 C   0  0  0  0  0  0  0  0  0  0  0  0
  -24.2660   -9.6300   21.9460 C   0  0  0  0  0  3  0  0  0  0  0  0
  -23.5150   -8.4460   22.1200 C   0  0  0  0  0  3  0  0  0  0  0  0
  -22.3430   -8.2300   21.3560 C   0  0  0  0  0  0  0  0  0  0  0  0
  -21.9550   -9.1920   20.4090 C   0  0  0  0  0  3  0  0  0  0  0  0
  -22.7060  -10.3680   20.2330 C   0  0  0  0  0  3  0  0  0  0  0  0
  -21.5670   -7.0990   21.4390 O   0  0  0  0  0  0  0  0  0  0  0  0
  -21.5130   -6.3450   22.5850 C   0  0  0  0  0  0  0  0  0  0  0  0
  -21.1150   -6.8980   23.8210 C   0  0  0  0  0  3  0  0  0  0  0  0
  -21.0070   -6.0740   24.9580 C   0  0  0  0  0  3  0  0  0  0  0  0
  -21.2840   -4.6970   24.8600 C   0  0  0  0  0  0  0  0  0  0  0  0
  -21.6730   -4.1430   23.6270 C   0  0  0  0  0  3  0  0  0  0  0  0
  -21.7840   -4.9650   22.4930 C   0  0  0  0  0  0  0  0  0  0  0  0
  -22.1390   -4.4220   21.3030 F   0  0  0  0  0  0  0  0  0  0  0  0
  -21.1710   -3.9020   25.9510 F   0  0  0  0  0  0  0  0  0  0  0  0
  -22.7600  -13.7100   21.0520 C   0  0  0  0  0  0  0  0  0  0  0  0
  -22.0020  -13.0420   21.9140 N   0  0  0  0  0  0  0  0  0  0  0  0
  -22.3490  -14.7310   20.4990 O   0  0  0  0  0  0  0  0  0  0  0  0
  -22.3460  -12.2180   22.3810 H   0  0  0  0  0  0  0  0  0  0  0  0
  -21.0620  -13.3610   22.1080 H   0  0  0  0  0  0  0  0  0  0  0  0
  -25.4210  -15.3360   20.2830 N   0  0  0  0  0  0  0  0  0  0  0  0
  -24.6490  -15.9900   20.3500 H   0  0  0  0  0  0  0  0  0  0  0  0
  -26.2650  -15.7610   19.9220 H   0  0  0  0  0  0  0  0  0  0  0  0
  -27.9880  -24.5950   19.6840 C   0  0  0  0  0  2  0  0  0  0  0  0
  -28.3340  -26.0820   20.0290 O   0  0  0  0  0  0  0  0  0  0  0  0
  -24.6700  -31.7940   23.1060 C   0  0  0  0  0  0  0  0  0  0  0  0
  -27.3050  -27.1240   19.9670 C   0  0  0  0  0  0  0  0  0  0  0  0
  -23.4970  -30.4260   21.4290 C   0  0  0  0  0  3  0  0  0  0  0  0
  -24.9690  -28.9040   19.9660 C   0  0  0  0  0  0  0  0  0  0  0  0
  -26.0540  -30.7060   21.2880 C   0  0  0  0  0  2  0  0  0  0  0  0
  -26.1460  -29.3260   20.5980 C   0  0  0  0  0  0  0  0  0  0  0  0
  -27.3100  -28.4540   20.5820 C   0  0  0  0  0  3  0  0  0  0  0  0
  -26.1000  -26.8360   19.2840 C   0  0  0  0  0  3  0  0  0  0  0  0
  -24.9650  -27.6760   19.2920 C   0  0  0  0  0  3  0  0  0  0  0  0
  -23.7340  -29.7910   20.0330 C   0  0  0  0  0  2  0  0  0  0  0  0
  -24.7600  -30.9970   21.9960 N   0  0  0  0  0  0  0  0  0  0  0  0
  -23.5760  -32.0530   23.6320 O   0  0  0  0  0  0  0  0  0  0  0  0
  -22.8220  -29.3870   22.3610 C   0  0  0  0  0  0  0  0  0  0  0  0
  -21.4890  -29.2380   22.2580 N   0  0  0  0  0  0  0  0  0  0  0  0
  -23.5020  -28.7200   23.1450 O   0  0  0  0  0  0  0  0  0  0  0  0
  -20.9940  -29.8300   21.6060 H   0  0  0  0  0  0  0  0  0  0  0  0
  -18.1000  -28.0830   22.8240 C   0  0  0  0  0  0  0  0  0  0  0  0
  -20.6730  -28.2780   23.0070 C   0  0  0  0  0  3  0  0  0  0  0  0
  -20.7200  -26.8770   22.3540 C   0  0  0  0  0  2  0  0  0  0  0  0
  -19.5750  -26.6330   21.3670 C   0  0  0  0  0  2  0  0  0  0  0  0
  -18.2210  -26.7710   22.0680 C   0  0  0  0  0  2  0  0  0  0  0  0
  -19.2500  -28.7980   23.2520 C   0  0  0  0  0  0  0  0  0  0  0  0
  -19.0800  -30.0270   23.9220 C   0  0  0  0  0  3  0  0  0  0  0  0
  -17.7930  -30.5420   24.1670 C   0  0  0  0  0  3  0  0  0  0  0  0
  -16.6570  -29.8240   23.7550 C   0  0  0  0  0  3  0  0  0  0  0  0
  -16.8120  -28.5960   23.0900 C   0  0  0  0  0  3  0  0  0  0  0  0
  -25.9330  -32.4340   23.7560 C   0  0  0  0  0  3  0  0  0  0  0  0
  -25.5970  -33.8180   24.1290 N   0  0  0  0  0  0  0  0  0  0  0  0
  -25.8920  -34.9010   23.3970 C   0  0  0  0  0  0  0  0  0  0  0  0
  -26.5440  -34.8420   22.3510 O   0  0  0  0  0  0  0  0  0  0  0  0
  -25.0160  -33.9370   24.9450 H   0  0  0  0  0  0  0  0  0  0  0  0
  -24.1100  -36.6620   23.1530 C   0  0  0  0  0  1  0  0  0  0  0  0
  -25.3890  -36.2670   23.9070 C   0  0  0  0  0  3  0  0  0  0  0  0
  -27.5310  -37.1860   24.6830 C   0  0  0  0  0  1  0  0  0  0  0  0
  -26.3910  -37.3490   23.7840 N   0  0  0  0  0  0  0  0  0  0  0  0
  -25.9680  -38.2540   23.9700 H   0  0  0  0  0  0  0  0  0  0  0  0
  -26.4500  -31.6400   25.0190 C   0  0  1  0  0  0  0  0  0  0  0  0
  -25.3540  -31.3670   26.0760 C   0  0  0  0  0  1  0  0  0  0  0  0
  -27.0520  -30.2770   24.6040 C   0  0  0  0  0  1  0  0  0  0  0  0
  -27.5890  -32.4320   25.7050 C   0  0  0  0  0  1  0  0  0  0  0  0
  1 20  1  0
  2  7  1  0
  3  4  1  0
  3  2  1  0
  5  4  1  0
  5 27  1  0
  5  6  1  0
  7  1  1  0
  7  6  1  0
  8  1  2  0
  9 13  1  0
  9 11  1  0
 10 18  1  0
 10  9  2  0
 11 19  2  0
 11 16  1  0
 12 20  1  0
 12 19  1  0
 14 21  1  0
 14 13  1  0
 15 21  1  0
 15 10  1  0
 15 17  1  0
 18 12  2  0
 20 22  1  0
 21 23  1  1
 24 25  2  0
 25 44  1  0
 26 25  1  0
 26 29  1  0
 27 24  1  0
 27 28  1  0
 28 26  2  0
 29 30  1  0
 30 31  2  0
 32 35  1  0
 32 31  1  0
 33 32  2  0
 34 33  1  0
 34 29  2  0
 35 36  1  0
 36 37  1  0
 37 38  2  0
 39 38  1  0
 39 43  1  0
 40 39  2  0
 41 36  2  0
 41 40  1  0
 42 41  1  0
 44 45  1  0
 45 48  1  0
 45 47  1  0
 46 44  2  0
 49 50  1  0
 49 24  1  0
 51 49  1  0
 52 53  1  0
 52 21  1  0
 54 65  2  0
 55 53  1  0
 55 60  1  0
 56 64  1  0
 56 66  1  0
 57 63  1  0
 57 59  1  0
 58 64  1  0
 59 58  1  0
 60 59  2  0
 61 62  1  0
 61 55  2  0
 62 57  2  0
 63 56  1  0
 64 54  1  0
 66 68  2  0
 67 66  1  0
 69 67  1  0
 70 79  2  0
 70 75  1  0
 71 67  1  0
 71 75  1  0
 72 71  1  0
 73 74  1  0
 73 72  1  0
 74 70  1  0
 75 76  2  0
 76 77  1  0
 78 77  2  0
 79 78  1  0
 80 54  1  0
 80 81  1  0
 80 90  1  0
 81 84  1  0
 82 86  1  0
 82 81  1  0
 83 82  2  0
 86 85  1  0
 88 86  1  0
 88 89  1  0
 88 87  1  0
 90 93  1  1
 90 91  1  0
 92 90  1  0
M  ISO  4   1 100  20 100  52 101  53 101
M  END
>  <TORSDO>  (86) 
F 16

>  <SCORE>  (86) 
-15.671

>  <name>  (86) 
85

>  <ligand_id>  (86) 
85

>  <original_smiles>  (86) 
[H]c1c([H])c([H])c2c(c1[H])C([H])([H])C([H])([H])C([H])([H])C2([H])N([H])C(=O)C1([H])N(C(=O)C([H])(N([H])C(=O)C([H])(N([H])C([H])([H])[H])C([H])([H])[H])C(C([H])([H])[H])(C([H])([H])[H])C([H])([H])[H])C([H])([H])c2c([H])c(OC([H])([H])[N+]3([H])C([H])([H])C([H])([H])c4c(C([H])([H])[H])nc(N([H])C(=O)N5C([H])([H])C([H])([H])C([H])([H])C([H])(n6nc(-c7c([H])c([H])c(Oc8c([H])c([H])c(F)c([H])c8F)c([H])c7[H])c(C(=O)N([H])[H])c6N([H])[H])C5([H])[H])nc4C3([H])C([H])([H])[H])c([H])c([H])c2C1([H])[H]

>  <smiles>  (86) 
[H]c1c([H])c([H])c2c(c1[H])C([H])([H])C([H])([H])C([H])([H])C2([H])N([H])C(=O)C1([H])N(C(=O)C([H])(N([H])C(=O)C([H])(N([H])C([H])([H])[H])C([H])([H])[H])C(C([H])([H])[H])(C([H])([H])[H])C([H])([H])[H])C([H])([H])c2c([H])c(OC([H])([H])[N+]3([H])C([H])([H])C([H])([H])c4c(C([H])([H])[H])nc(N([H])C(=O)N5C([H])([H])C([H])([H])C([H])([H])C([H])(n6nc(-c7c([H])c([H])c(Oc8c([H])c([H])c(F)c([H])c8F)c([H])c7[H])c(C(=O)N([H])[H])c6N([H])[H])C5([H])[H])nc4C3([H])C([H])([H])[H])c([H])c([H])c2C1([H])[H]

$$$$
86:0:0
     RDKit          3D

 95104  0  0  1  0  0  0  0  0999 V2000
  -30.5340  -20.5200   19.5820 C   0  0  0  0  0  3  0  0  0  0  0  0
  -31.2450  -21.5960   19.0410 C   0  0  0  0  0  0  0  0  0  0  0  0
  -29.2580  -20.7890   20.0830 C   0  0  0  0  0  0  0  0  0  0  0  0
  -29.4930  -23.0130   19.4840 C   0  0  0  0  0  0  0  0  0  0  0  0
  -32.6230  -21.4190   18.4390 C   0  0  0  0  0  1  0  0  0  0  0  0
  -30.7190  -22.8290   19.0010 N   0  0  0  0  0  0  0  0  0  0  0  0
  -28.7400  -22.0400   20.0280 N   0  0  0  0  0  0  0  0  0  0  0  0
  -28.4440  -19.7910   20.6480 N   0  0  0  0  0  0  0  0  0  0  0  0
  -27.5570  -20.1090   21.0220 H   0  0  0  0  0  0  0  0  0  0  0  0
  -30.6790  -14.5120   20.0310 C   0  0  0  0  0  0  0  0  0  0  0  0
  -30.3240  -12.3400   18.9210 C   0  0  0  0  0  2  0  0  0  0  0  0
  -29.3130  -12.5420   17.7740 C   0  0  0  0  0  2  0  0  0  0  0  0
  -27.8700  -12.3910   18.2910 C   0  0  0  0  0  2  0  0  0  0  0  0
  -27.6010  -13.2240   19.5740 C   0  0  0  0  0  3  0  0  0  0  0  0
  -28.7250  -13.0280   20.6160 C   0  0  0  0  0  2  0  0  0  0  0  0
  -30.0020  -13.3320   19.9580 N   0  0  0  0  0  0  0  0  0  0  0  0
  -31.8230  -14.6380   19.5820 O   0  0  0  0  0  0  0  0  0  0  0  0
  -28.7100  -17.6560   19.2520 C   0  0  0  0  0  2  0  0  0  0  0  0
  -29.8320  -17.8300   21.5380 C   0  0  0  0  0  2  0  0  0  0  0  0
  -29.8140  -16.5730   19.1020 C   0  0  0  0  0  2  0  0  0  0  0  0
  -29.9070  -16.2740   21.5670 C   0  0  0  0  0  2  0  0  0  0  0  0
  -28.6750  -18.3270   20.6450 C   0  0  0  0  0  3  0  0  0  0  0  0
  -29.9130  -15.6240   20.2350 N   0  0  0  0  0  0  0  0  0  0  0  0
  -25.2610  -13.8150   20.4580 C   0  0  0  0  0  0  0  0  0  0  0  0
  -24.2150  -13.0360   20.8720 C   0  0  0  0  0  0  0  0  0  0  0  0
  -24.6680  -11.6840   20.7760 C   0  0  0  0  0  0  0  0  0  0  0  0
  -26.2840  -12.9370   20.1350 N   0  0  0  0  0  0  0  0  0  0  0  0
  -25.9350  -11.6480   20.3850 N   0  0  0  0  0  0  0  0  0  0  0  0
  -23.9500  -10.4180   20.9780 C   0  0  0  0  0  0  0  0  0  0  0  0
  -24.4130   -9.4430   21.8890 C   0  0  0  0  0  3  0  0  0  0  0  0
  -23.6950   -8.2430   22.0780 C   0  0  0  0  0  3  0  0  0  0  0  0
  -22.5000   -8.0100   21.3570 C   0  0  0  0  0  0  0  0  0  0  0  0
  -22.0570   -8.9730   20.4330 C   0  0  0  0  0  3  0  0  0  0  0  0
  -22.7750  -10.1640   20.2420 C   0  0  0  0  0  3  0  0  0  0  0  0
  -21.7500   -6.8640   21.4560 O   0  0  0  0  0  0  0  0  0  0  0  0
  -21.7030   -6.1350   22.6190 C   0  0  0  0  0  0  0  0  0  0  0  0
  -21.2640   -6.7000   23.8360 C   0  0  0  0  0  3  0  0  0  0  0  0
  -21.1660   -5.8970   24.9900 C   0  0  0  0  0  3  0  0  0  0  0  0
  -21.4960   -4.5300   24.9260 C   0  0  0  0  0  0  0  0  0  0  0  0
  -21.9260   -3.9640   23.7130 C   0  0  0  0  0  3  0  0  0  0  0  0
  -22.0270   -4.7650   22.5620 C   0  0  0  0  0  0  0  0  0  0  0  0
  -22.4230   -4.2100   21.3900 F   0  0  0  0  0  0  0  0  0  0  0  0
  -21.3940   -3.7550   26.0320 F   0  0  0  0  0  0  0  0  0  0  0  0
  -22.8400  -13.5100   21.2450 C   0  0  0  0  0  0  0  0  0  0  0  0
  -22.1670  -12.7960   22.1400 N   0  0  0  0  0  0  0  0  0  0  0  0
  -22.3710  -14.5480   20.7770 O   0  0  0  0  0  0  0  0  0  0  0  0
  -22.5590  -11.9560   22.5410 H   0  0  0  0  0  0  0  0  0  0  0  0
  -21.2480  -13.0950   22.4330 H   0  0  0  0  0  0  0  0  0  0  0  0
  -25.4250  -15.1900   20.3070 N   0  0  0  0  0  0  0  0  0  0  0  0
  -24.6830  -15.8520   20.5060 H   0  0  0  0  0  0  0  0  0  0  0  0
  -26.2690  -15.6250   19.9600 H   0  0  0  0  0  0  0  0  0  0  0  0
  -27.8690  -24.2990   18.0310 C   0  0  0  0  0  1  0  0  0  0  0  0
  -28.8920  -24.4060   19.1720 C   0  0  0  0  0  3  0  0  0  0  0  0
  -28.4140  -25.2550   20.3880 C   0  0  0  0  0  2  0  0  0  0  0  0
  -28.4570  -26.6910   20.1780 O   0  0  0  0  0  0  0  0  0  0  0  0
  -24.6180  -31.8870   23.2250 C   0  0  0  0  0  0  0  0  0  0  0  0
  -27.2760  -27.4090   20.1830 C   0  0  0  0  0  0  0  0  0  0  0  0
  -23.4200  -30.4730   21.5900 C   0  0  0  0  0  3  0  0  0  0  0  0
  -24.8790  -28.9290   20.1770 C   0  0  0  0  0  0  0  0  0  0  0  0
  -25.9480  -30.8310   21.3970 C   0  0  0  0  0  2  0  0  0  0  0  0
  -26.0370  -29.4570   20.7570 C   0  0  0  0  0  0  0  0  0  0  0  0
  -27.2410  -28.7120   20.7440 C   0  0  0  0  0  3  0  0  0  0  0  0
  -26.0910  -26.8940   19.6140 C   0  0  0  0  0  3  0  0  0  0  0  0
  -24.9020  -27.6490   19.5980 C   0  0  0  0  0  3  0  0  0  0  0  0
  -23.6360  -29.7920   20.2120 C   0  0  0  0  0  2  0  0  0  0  0  0
  -24.6800  -31.0780   22.1290 N   0  0  0  0  0  0  0  0  0  0  0  0
  -23.5350  -32.1600   23.7610 O   0  0  0  0  0  0  0  0  0  0  0  0
  -22.7680  -29.4530   22.5530 C   0  0  0  0  0  0  0  0  0  0  0  0
  -21.4420  -29.2750   22.4310 N   0  0  0  0  0  0  0  0  0  0  0  0
  -23.4530  -28.8290   23.3690 O   0  0  0  0  0  0  0  0  0  0  0  0
  -20.9510  -29.8280   21.7410 H   0  0  0  0  0  0  0  0  0  0  0  0
  -18.0680  -28.1010   22.9540 C   0  0  0  0  0  0  0  0  0  0  0  0
  -20.6280  -28.3430   23.2100 C   0  0  0  0  0  3  0  0  0  0  0  0
  -20.7180  -26.9120   22.6330 C   0  0  0  0  0  2  0  0  0  0  0  0
  -19.6100  -26.5950   21.6240 C   0  0  0  0  0  2  0  0  0  0  0  0
  -18.2330  -26.7510   22.2770 C   0  0  0  0  0  2  0  0  0  0  0  0
  -19.1940  -28.8550   23.3780 C   0  0  0  0  0  0  0  0  0  0  0  0
  -18.9850  -30.1210   23.9700 C   0  0  0  0  0  3  0  0  0  0  0  0
  -17.6840  -30.6310   24.1380 C   0  0  0  0  0  3  0  0  0  0  0  0
  -16.5740  -29.8730   23.7310 C   0  0  0  0  0  3  0  0  0  0  0  0
  -16.7670  -28.6070   23.1490 C   0  0  0  0  0  3  0  0  0  0  0  0
  -25.9020  -32.5260   23.8420 C   0  0  0  0  0  3  0  0  0  0  0  0
  -25.5830  -33.9190   24.1780 N   0  0  0  0  0  0  0  0  0  0  0  0
  -25.9050  -34.9750   23.4180 C   0  0  0  0  0  0  0  0  0  0  0  0
  -26.5730  -34.8790   22.3860 O   0  0  0  0  0  0  0  0  0  0  0  0
  -24.9880  -34.0650   24.9790 H   0  0  0  0  0  0  0  0  0  0  0  0
  -24.1620  -36.7550   23.0620 C   0  0  0  0  0  1  0  0  0  0  0  0
  -25.4040  -36.3580   23.8770 C   0  0  0  0  0  3  0  0  0  0  0  0
  -27.5300  -37.2590   24.7150 C   0  0  0  0  0  1  0  0  0  0  0  0
  -26.4280  -37.4200   23.7690 N   0  0  0  0  0  0  0  0  0  0  0  0
  -26.0150  -38.3360   23.9170 H   0  0  0  0  0  0  0  0  0  0  0  0
  -26.4340  -31.7550   25.1120 C   0  0  1  0  0  0  0  0  0  0  0  0
  -25.3480  -31.4960   26.1820 C   0  0  0  0  0  1  0  0  0  0  0  0
  -27.0280  -30.3850   24.7100 C   0  0  0  0  0  1  0  0  0  0  0  0
  -27.5810  -32.5550   25.7730 C   0  0  0  0  0  1  0  0  0  0  0  0
  1  3  1  0
  2  1  2  0
  3  8  1  0
  4  7  1  0
  5  2  1  0
  6  2  1  0
  6  4  2  0
  7  3  2  0
  8  9  1  0
 10 23  1  0
 11 16  1  0
 12 13  1  0
 12 11  1  0
 14 13  1  0
 14 27  1  0
 14 15  1  0
 16 10  1  0
 16 15  1  0
 17 10  2  0
 18 22  1  0
 19 21  1  0
 20 18  1  0
 20 23  1  0
 22  8  1  0
 22 19  1  0
 23 21  1  0
 24 25  2  0
 25 44  1  0
 26 25  1  0
 26 29  1  0
 27 28  1  0
 27 24  1  0
 28 26  2  0
 29 30  1  0
 30 31  2  0
 32 35  1  0
 32 31  1  0
 33 32  2  0
 34 33  1  0
 34 29  2  0
 35 36  1  0
 36 37  1  0
 37 38  2  0
 39 38  1  0
 39 43  1  0
 40 39  2  0
 41 36  2  0
 41 40  1  0
 42 41  1  0
 44 45  1  0
 45 48  1  0
 45 47  1  0
 46 44  2  0
 49 24  1  0
 49 50  1  0
 51 49  1  0
 53 52  1  0
 53  4  1  0
 53 54  1  0
 55 57  1  0
 55 54  1  0
 56 67  2  0
 57 62  1  0
 58 66  1  0
 58 68  1  0
 59 65  1  0
 59 61  1  0
 60 66  1  0
 61 60  1  0
 62 61  2  0
 63 57  2  0
 64 63  1  0
 64 59  2  0
 65 58  1  0
 66 56  1  0
 68 70  2  0
 69 68  1  0
 71 69  1  0
 72 81  2  0
 72 77  1  0
 73 69  1  0
 73 77  1  0
 74 73  1  0
 75 76  1  0
 75 74  1  0
 76 72  1  0
 77 78  2  0
 78 79  1  0
 80 79  2  0
 81 80  1  0
 82 56  1  0
 82 83  1  0
 82 92  1  0
 83 86  1  0
 84 88  1  0
 84 83  1  0
 85 84  2  0
 88 87  1  0
 90 88  1  0
 90 91  1  0
 90 89  1  0
 92 95  1  1
 92 93  1  0
 94 92  1  0
M  ISO  4  10 100  23 100  54 101  55 101
M  END
>  <TORSDO>  (87) 
F 18

>  <SCORE>  (87) 
-14.720

>  <name>  (87) 
86

>  <ligand_id>  (87) 
86

>  <original_smiles>  (87) 
[H]c1c(N([H])C2([H])C([H])([H])C([H])([H])N(C(=O)N3C([H])([H])C([H])([H])C([H])([H])C([H])(n4nc(-c5c([H])c([H])c(Oc6c([H])c([H])c(F)c([H])c6F)c([H])c5[H])c(C(=O)N([H])[H])c4N([H])[H])C3([H])[H])C([H])([H])C2([H])[H])nc(C([H])(C([H])([H])[H])C([H])([H])Oc2c([H])c([H])c3c(c2[H])C([H])([H])N(C(=O)C([H])(N([H])C(=O)C([H])(N([H])C([H])([H])[H])C([H])([H])[H])C(C([H])([H])[H])(C([H])([H])[H])C([H])([H])[H])C([H])(C(=O)N([H])C2([H])c4c([H])c([H])c([H])c([H])c4C([H])([H])C([H])([H])C2([H])[H])C3([H])[H])nc1C([H])([H])[H]

>  <smiles>  (87) 
[H]c1c(N([H])C2([H])C([H])([H])C([H])([H])N(C(=O)N3C([H])([H])C([H])([H])C([H])([H])C([H])(n4nc(-c5c([H])c([H])c(Oc6c([H])c([H])c(F)c([H])c6F)c([H])c5[H])c(C(=O)N([H])[H])c4N([H])[H])C3([H])[H])C([H])([H])C2([H])[H])nc(C([H])(C([H])([H])[H])C([H])([H])Oc2c([H])c([H])c3c(c2[H])C([H])([H])N(C(=O)C([H])(N([H])C(=O)C([H])(N([H])C([H])([H])[H])C([H])([H])[H])C(C([H])([H])[H])(C([H])([H])[H])C([H])([H])[H])C([H])(C(=O)N([H])C2([H])c4c([H])c([H])c([H])c([H])c4C([H])([H])C([H])([H])C2([H])[H])C3([H])[H])nc1C([H])([H])[H]

$$$$
87:0:0
     RDKit          3D

 90 99  0  0  1  0  0  0  0  0999 V2000
  -30.5810  -15.0010   20.3870 C   0  0  0  0  0  0  0  0  0  0  0  0
  -30.4000  -12.6470   19.4690 C   0  0  0  0  0  2  0  0  0  0  0  0
  -29.4810  -12.5860   18.2290 C   0  0  0  0  0  2  0  0  0  0  0  0
  -28.0130  -12.3910   18.6520 C   0  0  0  0  0  2  0  0  0  0  0  0
  -27.6020  -13.3290   19.8170 C   0  0  0  0  0  3  0  0  0  0  0  0
  -28.6520  -13.3780   20.9490 C   0  0  0  0  0  2  0  0  0  0  0  0
  -29.9270  -13.7670   20.3370 N   0  0  0  0  0  0  0  0  0  0  0  0
  -31.7790  -14.9940   20.0810 O   0  0  0  0  0  0  0  0  0  0  0  0
  -28.2130  -21.0190   19.5140 C   0  0  0  0  0  3  0  0  0  0  0  0
  -30.0140  -19.4770   20.9140 C   0  0  0  0  0  0  0  0  0  0  0  0
  -29.0480  -21.8010   20.3760 C   0  0  0  0  0  0  0  0  0  0  0  0
  -29.9780  -20.9310   21.0860 C   0  0  0  0  0  0  0  0  0  0  0  0
  -29.1410  -18.8310   20.0320 C   0  0  0  0  0  0  0  0  0  0  0  0
  -31.0290  -18.5210   21.5690 C   0  0  0  0  0  3  0  0  0  0  0  0
  -29.2390  -17.2320   19.7630 C   0  0  0  0  0  3  0  0  0  0  0  0
  -30.5470  -17.0360   21.8380 C   0  0  0  0  0  3  0  0  0  0  0  0
  -30.9890  -21.5370   22.0480 C   0  0  0  0  0  1  0  0  0  0  0  0
  -28.2550  -19.6360   19.3570 N   0  0  0  0  0  2  0  0  0  0  0  0
  -29.9550  -16.2440   20.7160 N   0  0  0  0  0  0  0  0  0  0  0  0
  -25.2220  -13.9000   20.5540 C   0  0  0  0  0  0  0  0  0  0  0  0
  -24.1570  -13.1230   20.9140 C   0  0  0  0  0  0  0  0  0  0  0  0
  -24.6220  -11.7720   20.8810 C   0  0  0  0  0  0  0  0  0  0  0  0
  -26.2650  -13.0250   20.3140 N   0  0  0  0  0  0  0  0  0  0  0  0
  -25.9150  -11.7390   20.5810 N   0  0  0  0  0  0  0  0  0  0  0  0
  -23.8940  -10.5080   21.0610 C   0  0  0  0  0  0  0  0  0  0  0  0
  -24.3160   -9.5360   21.9950 C   0  0  0  0  0  3  0  0  0  0  0  0
  -23.5870   -8.3400   22.1630 C   0  0  0  0  0  3  0  0  0  0  0  0
  -22.4190   -8.1060   21.3970 C   0  0  0  0  0  0  0  0  0  0  0  0
  -22.0160   -9.0670   20.4510 C   0  0  0  0  0  3  0  0  0  0  0  0
  -22.7470  -10.2550   20.2810 C   0  0  0  0  0  3  0  0  0  0  0  0
  -21.6630   -6.9630   21.4760 O   0  0  0  0  0  0  0  0  0  0  0  0
  -21.5920   -6.2220   22.6280 C   0  0  0  0  0  0  0  0  0  0  0  0
  -21.1270   -6.7730   23.8410 C   0  0  0  0  0  3  0  0  0  0  0  0
  -21.0080   -5.9590   24.9840 C   0  0  0  0  0  3  0  0  0  0  0  0
  -21.3440   -4.5930   24.9150 C   0  0  0  0  0  0  0  0  0  0  0  0
  -21.8030   -4.0410   23.7060 C   0  0  0  0  0  3  0  0  0  0  0  0
  -21.9240   -4.8530   22.5650 C   0  0  0  0  0  0  0  0  0  0  0  0
  -22.3460   -4.3110   21.3960 F   0  0  0  0  0  0  0  0  0  0  0  0
  -21.2220   -3.8080   26.0100 F   0  0  0  0  0  0  0  0  0  0  0  0
  -22.7570  -13.5970   21.1760 C   0  0  0  0  0  0  0  0  0  0  0  0
  -22.0240  -12.9000   22.0350 N   0  0  0  0  0  0  0  0  0  0  0  0
  -22.3220  -14.6230   20.6520 O   0  0  0  0  0  0  0  0  0  0  0  0
  -22.3880  -12.0700   22.4800 H   0  0  0  0  0  0  0  0  0  0  0  0
  -21.0830  -13.1980   22.2520 H   0  0  0  0  0  0  0  0  0  0  0  0
  -25.3890  -15.2720   20.3840 N   0  0  0  0  0  0  0  0  0  0  0  0
  -24.6270  -15.9300   20.5090 H   0  0  0  0  0  0  0  0  0  0  0  0
  -26.2460  -15.7120   20.0820 H   0  0  0  0  0  0  0  0  0  0  0  0
  -29.0710  -23.4640   20.5230 C   0  0  0  0  0  3  0  0  0  0  0  0
  -28.0200  -24.6840   20.0490 C   0  0  0  0  0  3  0  0  0  0  0  0
  -28.2590  -26.2090   20.3030 O   0  0  0  0  0  0  0  0  0  0  0  0
  -24.6330  -31.9040   23.2760 C   0  0  0  0  0  0  0  0  0  0  0  0
  -27.2090  -27.1930   20.2370 C   0  0  0  0  0  0  0  0  0  0  0  0
  -23.4400  -30.5150   21.6270 C   0  0  0  0  0  3  0  0  0  0  0  0
  -24.8900  -28.9410   20.2060 C   0  0  0  0  0  0  0  0  0  0  0  0
  -25.9950  -30.7740   21.4810 C   0  0  0  0  0  2  0  0  0  0  0  0
  -26.0680  -29.3850   20.8220 C   0  0  0  0  0  0  0  0  0  0  0  0
  -27.2280  -28.5250   20.8220 C   0  0  0  0  0  3  0  0  0  0  0  0
  -26.0060  -26.8520   19.5850 C   0  0  0  0  0  3  0  0  0  0  0  0
  -24.8700  -27.6880   19.5770 C   0  0  0  0  0  3  0  0  0  0  0  0
  -23.6670  -29.8420   20.2480 C   0  0  0  0  0  2  0  0  0  0  0  0
  -24.7080  -31.0850   22.1820 N   0  0  0  0  0  0  0  0  0  0  0  0
  -23.5430  -32.1870   23.7980 O   0  0  0  0  0  0  0  0  0  0  0  0
  -22.7530  -29.5070   22.5840 C   0  0  0  0  0  0  0  0  0  0  0  0
  -21.4240  -29.3380   22.4500 N   0  0  0  0  0  0  0  0  0  0  0  0
  -23.4180  -28.8770   23.4110 O   0  0  0  0  0  0  0  0  0  0  0  0
  -20.9410  -29.8970   21.7590 H   0  0  0  0  0  0  0  0  0  0  0  0
  -18.0370  -28.1540   22.9420 C   0  0  0  0  0  0  0  0  0  0  0  0
  -20.5970  -28.4030   23.2160 C   0  0  0  0  0  3  0  0  0  0  0  0
  -20.6940  -26.9740   22.6360 C   0  0  0  0  0  2  0  0  0  0  0  0
  -19.5930  -26.6590   21.6180 C   0  0  0  0  0  2  0  0  0  0  0  0
  -18.2110  -26.8070   22.2590 C   0  0  0  0  0  2  0  0  0  0  0  0
  -19.1580  -28.9100   23.3760 C   0  0  0  0  0  0  0  0  0  0  0  0
  -18.9440  -30.1710   23.9740 C   0  0  0  0  0  3  0  0  0  0  0  0
  -17.6400  -30.6740   24.1460 C   0  0  0  0  0  3  0  0  0  0  0  0
  -16.5330  -29.9150   23.7260 C   0  0  0  0  0  3  0  0  0  0  0  0
  -16.7330  -28.6590   23.1280 C   0  0  0  0  0  3  0  0  0  0  0  0
  -25.9080  -32.5380   23.9110 C   0  0  0  0  0  3  0  0  0  0  0  0
  -25.6010  -33.9410   24.2320 N   0  0  0  0  0  0  0  0  0  0  0  0
  -25.9190  -34.9900   23.4640 C   0  0  0  0  0  0  0  0  0  0  0  0
  -26.5690  -34.8840   22.4220 O   0  0  0  0  0  0  0  0  0  0  0  0
  -25.0300  -34.1020   25.0490 H   0  0  0  0  0  0  0  0  0  0  0  0
  -24.1720  -36.7760   23.1520 C   0  0  0  0  0  1  0  0  0  0  0  0
  -25.4400  -36.3830   23.9270 C   0  0  0  0  0  3  0  0  0  0  0  0
  -27.5920  -37.2910   24.6860 C   0  0  0  0  0  1  0  0  0  0  0  0
  -26.4630  -37.4400   23.7720 N   0  0  0  0  0  0  0  0  0  0  0  0
  -26.0550  -38.3600   23.9180 H   0  0  0  0  0  0  0  0  0  0  0  0
  -26.4020  -31.7730   25.2000 C   0  0  1  0  0  0  0  0  0  0  0  0
  -25.2950  -31.5490   26.2570 C   0  0  0  0  0  1  0  0  0  0  0  0
  -26.9840  -30.3880   24.8340 C   0  0  0  0  0  1  0  0  0  0  0  0
  -27.5470  -32.5680   25.8710 C   0  0  0  0  0  1  0  0  0  0  0  0
  1 19  1  0
  2  7  1  0
  3  4  1  0
  3  2  1  0
  5  4  1  0
  5 23  1  0
  5  6  1  0
  7  1  1  0
  7  6  1  0
  8  1  2  0
  9 11  2  0
 10 12  2  0
 10 14  1  0
 11 48  1  0
 11 12  1  0
 12 17  1  0
 13 10  1  0
 14 16  2  0
 15 13  2  0
 15 19  1  0
 18  9  1  0
 18 13  1  0
 19 16  1  0
 20 21  2  0
 21 40  1  0
 22 21  1  0
 22 25  1  0
 23 20  1  0
 23 24  1  0
 24 22  2  0
 25 26  1  0
 26 27  2  0
 28 31  1  0
 28 27  1  0
 29 28  2  0
 30 29  1  0
 30 25  2  0
 31 32  1  0
 32 33  1  0
 33 34  2  0
 35 34  1  0
 35 39  1  0
 36 35  2  0
 37 32  2  0
 37 36  1  0
 38 37  1  0
 40 41  1  0
 41 44  1  0
 41 43  1  0
 42 40  2  0
 45 46  1  0
 45 20  1  0
 47 45  1  0
 49 50  1  0
 49 48  2  0
 51 62  2  0
 52 50  1  0
 52 57  1  0
 53 61  1  0
 53 63  1  0
 54 60  1  0
 54 56  1  0
 55 61  1  0
 56 55  1  0
 57 56  2  0
 58 52  2  0
 59 58  1  0
 59 54  2  0
 60 53  1  0
 61 51  1  0
 63 65  2  0
 64 63  1  0
 66 64  1  0
 67 76  2  0
 67 72  1  0
 68 64  1  0
 68 72  1  0
 69 68  1  0
 70 71  1  0
 70 69  1  0
 71 67  1  0
 72 73  2  0
 73 74  1  0
 75 74  2  0
 76 75  1  0
 77 51  1  0
 77 78  1  0
 77 87  1  0
 78 81  1  0
 79 83  1  0
 79 78  1  0
 80 79  2  0
 83 82  1  0
 85 86  1  0
 85 83  1  0
 85 84  1  0
 87 90  1  1
 87 88  1  0
 89 87  1  0
M  ISO  4   1 100  19 100  49 101  50 101
M  END
>  <TORSDO>  (88) 
F 17

>  <SCORE>  (88) 
-15.486

>  <name>  (88) 
87

>  <ligand_id>  (88) 
87

>  <original_smiles>  (88) 
[H]c1nc2c(c(C([H])([H])[H])c1C([H])([H])C([H])([H])Oc1c([H])c([H])c3c(c1[H])C([H])([H])N(C(=O)C([H])(N([H])C(=O)C([H])(N([H])C([H])([H])[H])C([H])([H])[H])C(C([H])([H])[H])(C([H])([H])[H])C([H])([H])[H])C([H])(C(=O)N([H])C1([H])c4c([H])c([H])c([H])c([H])c4C([H])([H])C([H])([H])C1([H])[H])C3([H])[H])C([H])([H])C([H])([H])N(C(=O)N1C([H])([H])C([H])([H])C([H])([H])C([H])(n3nc(-c4c([H])c([H])c(Oc5c([H])c([H])c(F)c([H])c5F)c([H])c4[H])c(C(=O)N([H])[H])c3N([H])[H])C1([H])[H])C2([H])[H]

>  <smiles>  (88) 
[H]c1nc2c(c(C([H])([H])[H])c1C([H])([H])C([H])([H])Oc1c([H])c([H])c3c(c1[H])C([H])([H])N(C(=O)C([H])(N([H])C(=O)C([H])(N([H])C([H])([H])[H])C([H])([H])[H])C(C([H])([H])[H])(C([H])([H])[H])C([H])([H])[H])C([H])(C(=O)N([H])C1([H])c4c([H])c([H])c([H])c([H])c4C([H])([H])C([H])([H])C1([H])[H])C3([H])[H])C([H])([H])C([H])([H])N(C(=O)N1C([H])([H])C([H])([H])C([H])([H])C([H])(n3nc(-c4c([H])c([H])c(Oc5c([H])c([H])c(F)c([H])c5F)c([H])c4[H])c(C(=O)N([H])[H])c3N([H])[H])C1([H])[H])C2([H])[H]

$$$$
88:0:0
     RDKit          3D

 95105  0  0  1  0  0  0  0  0999 V2000
  -30.2820  -19.7020   20.4120 C   0  0  0  0  0  0  0  0  0  0  0  0
  -27.0540  -19.3140   17.7060 C   0  0  0  0  0  2  0  0  0  0  0  0
  -29.3500  -20.9290   19.6720 C   0  0  0  0  0  3  0  0  0  0  0  0
  -29.2770  -18.3780   20.2070 C   0  0  0  0  0  3  0  0  0  0  0  0
  -26.9420  -19.5390   19.2090 C   0  0  0  0  0  3  0  0  0  0  0  0
  -28.4870  -19.5240   19.2750 C   0  0  1  0  0  0  0  0  0  0  0  0
  -26.1100  -18.5470   20.0160 C   0  0  0  0  0  1  0  0  0  0  0  0
  -28.5070  -19.1660   17.8260 N   0  0  2  0  0  4  0  0  0  0  0  0
  -31.3880  -19.7730   20.9500 O   0  0  0  0  0  0  0  0  0  0  0  0
  -28.7560  -18.1950   17.7100 H   0  0  0  0  0  0  0  0  0  0  0  0
  -30.3520  -15.4590   19.8000 C   0  0  0  0  0  0  0  0  0  0  0  0
  -30.3960  -12.9790   18.9260 C   0  0  0  0  0  2  0  0  0  0  0  0
  -29.4020  -12.6880   17.7710 C   0  0  0  0  0  2  0  0  0  0  0  0
  -27.9930  -12.3700   18.3120 C   0  0  0  0  0  2  0  0  0  0  0  0
  -27.5940  -13.3270   19.4630 C   0  0  0  0  0  3  0  0  0  0  0  0
  -28.7120  -13.5200   20.5030 C   0  0  0  0  0  2  0  0  0  0  0  0
  -29.8510  -14.1120   19.7700 N   0  0  0  0  0  0  0  0  0  0  0  0
  -31.5750  -15.4910   19.5810 O   0  0  0  0  0  0  0  0  0  0  0  0
  -29.4840  -16.6950   19.8650 N   0  0  0  0  0  0  0  0  0  0  0  0
  -28.5610  -16.2970   19.9120 H   0  0  0  0  0  0  0  0  0  0  0  0
  -25.3070  -13.8560   20.4420 C   0  0  0  0  0  0  0  0  0  0  0  0
  -24.2790  -13.0770   20.8850 C   0  0  0  0  0  0  0  0  0  0  0  0
  -24.7290  -11.7290   20.7570 C   0  0  0  0  0  0  0  0  0  0  0  0
  -26.3170  -12.9890   20.0750 N   0  0  0  0  0  0  0  0  0  0  0  0
  -25.9880  -11.6980   20.3270 N   0  0  0  0  0  0  0  0  0  0  0  0
  -24.0110  -10.4650   20.9540 C   0  0  0  0  0  0  0  0  0  0  0  0
  -24.4730   -9.4910   21.8670 C   0  0  0  0  0  3  0  0  0  0  0  0
  -23.7580   -8.2880   22.0520 C   0  0  0  0  0  3  0  0  0  0  0  0
  -22.5640   -8.0530   21.3280 C   0  0  0  0  0  0  0  0  0  0  0  0
  -22.1220   -9.0170   20.4030 C   0  0  0  0  0  3  0  0  0  0  0  0
  -22.8380  -10.2110   20.2160 C   0  0  0  0  0  3  0  0  0  0  0  0
  -21.8100   -6.9100   21.4280 O   0  0  0  0  0  0  0  0  0  0  0  0
  -21.7220   -6.2060   22.6010 C   0  0  0  0  0  0  0  0  0  0  0  0
  -21.2080   -6.7880   23.7810 C   0  0  0  0  0  3  0  0  0  0  0  0
  -21.0720   -6.0090   24.9480 C   0  0  0  0  0  3  0  0  0  0  0  0
  -21.4360   -4.6500   24.9310 C   0  0  0  0  0  0  0  0  0  0  0  0
  -21.9410   -4.0680   23.7570 C   0  0  0  0  0  3  0  0  0  0  0  0
  -22.0800   -4.8430   22.5920 C   0  0  0  0  0  0  0  0  0  0  0  0
  -22.5460   -4.2730   21.4550 F   0  0  0  0  0  0  0  0  0  0  0  0
  -21.2980   -3.8970   26.0500 F   0  0  0  0  0  0  0  0  0  0  0  0
  -22.9120  -13.5550   21.2860 C   0  0  0  0  0  0  0  0  0  0  0  0
  -22.2480  -12.8530   22.1960 N   0  0  0  0  0  0  0  0  0  0  0  0
  -22.4400  -14.5930   20.8220 O   0  0  0  0  0  0  0  0  0  0  0  0
  -22.6310  -12.0140   22.6060 H   0  0  0  0  0  0  0  0  0  0  0  0
  -21.3320  -13.1650   22.4880 H   0  0  0  0  0  0  0  0  0  0  0  0
  -25.4670  -15.2240   20.2790 N   0  0  0  0  0  0  0  0  0  0  0  0
  -24.7220  -15.8890   20.4440 H   0  0  0  0  0  0  0  0  0  0  0  0
  -26.2460  -15.6040   19.7680 H   0  0  0  0  0  0  0  0  0  0  0  0
  -30.7240  -19.5050   16.7170 C   0  0  0  0  0  2  0  0  0  0  0  0
  -29.7360  -19.3500   15.5860 C   0  0  0  0  0  2  0  0  0  0  0  0
  -29.3010  -20.0040   16.8850 C   0  0  0  0  0  3  0  0  0  0  0  0
  -27.7550  -22.4890   21.3090 C   0  0  0  0  0  1  0  0  0  0  0  0
  -28.9170  -22.6230   20.3080 C   0  0  0  0  0  3  0  0  0  0  0  0
  -28.5760  -24.2540   19.5170 C   0  0  0  0  0  2  0  0  0  0  0  0
  -28.5230  -25.8720   19.9620 O   0  0  0  0  0  0  0  0  0  0  0  0
  -24.5700  -31.6040   22.9220 C   0  0  0  0  0  0  0  0  0  0  0  0
  -27.4680  -26.9390   19.8410 C   0  0  0  0  0  0  0  0  0  0  0  0
  -23.5020  -30.2110   21.1950 C   0  0  0  0  0  3  0  0  0  0  0  0
  -25.0780  -28.7250   19.7710 C   0  0  0  0  0  0  0  0  0  0  0  0
  -26.0640  -30.5390   21.1580 C   0  0  0  0  0  2  0  0  0  0  0  0
  -26.2250  -29.1620   20.4460 C   0  0  0  0  0  0  0  0  0  0  0  0
  -27.4100  -28.2920   20.4520 C   0  0  0  0  0  3  0  0  0  0  0  0
  -26.2860  -26.6660   19.1150 C   0  0  0  0  0  3  0  0  0  0  0  0
  -25.1380  -27.5030   19.0790 C   0  0  0  0  0  3  0  0  0  0  0  0
  -23.8140  -29.5850   19.8070 C   0  0  0  0  0  2  0  0  0  0  0  0
  -24.7290  -30.8200   21.8070 N   0  0  0  0  0  0  0  0  0  0  0  0
  -23.4520  -31.8210   23.4170 O   0  0  0  0  0  0  0  0  0  0  0  0
  -22.8280  -29.1540   22.1080 C   0  0  0  0  0  0  0  0  0  0  0  0
  -21.4920  -29.0110   22.0130 N   0  0  0  0  0  0  0  0  0  0  0  0
  -23.5120  -28.4640   22.8690 O   0  0  0  0  0  0  0  0  0  0  0  0
  -20.9930  -29.6140   21.3750 H   0  0  0  0  0  0  0  0  0  0  0  0
  -18.1090  -27.8350   22.6060 C   0  0  0  0  0  0  0  0  0  0  0  0
  -20.6860  -28.0240   22.7400 C   0  0  0  0  0  3  0  0  0  0  0  0
  -20.7200  -26.6530   22.0280 C   0  0  0  0  0  2  0  0  0  0  0  0
  -19.5550  -26.4500   21.0530 C   0  0  0  0  0  2  0  0  0  0  0  0
  -18.2140  -26.5590   21.7860 C   0  0  0  0  0  2  0  0  0  0  0  0
  -19.2690  -28.5300   23.0390 C   0  0  0  0  0  0  0  0  0  0  0  0
  -19.1170  -29.7260   23.7720 C   0  0  0  0  0  3  0  0  0  0  0  0
  -17.8370  -30.2280   24.0750 C   0  0  0  0  0  3  0  0  0  0  0  0
  -16.6910  -29.5320   23.6510 C   0  0  0  0  0  3  0  0  0  0  0  0
  -16.8280  -28.3350   22.9240 C   0  0  0  0  0  3  0  0  0  0  0  0
  -25.7870  -32.2820   23.6180 C   0  0  0  0  0  3  0  0  0  0  0  0
  -26.2850  -31.5040   24.9010 C   0  0  1  0  0  0  0  0  0  0  0  0
  -25.1620  -31.2140   25.9210 C   0  0  0  0  0  1  0  0  0  0  0  0
  -26.9250  -30.1450   24.5300 C   0  0  0  0  0  1  0  0  0  0  0  0
  -27.3890  -32.3260   25.6060 C   0  0  0  0  0  1  0  0  0  0  0  0
  -25.3910  -33.6580   23.9810 N   0  0  0  0  0  0  0  0  0  0  0  0
  -25.7170  -34.7600   23.2880 C   0  0  0  0  0  0  0  0  0  0  0  0
  -26.4390  -34.7280   22.2890 O   0  0  0  0  0  0  0  0  0  0  0  0
  -24.7510  -33.7540   24.7540 H   0  0  0  0  0  0  0  0  0  0  0  0
  -23.9250  -36.4940   22.9370 C   0  0  0  0  0  1  0  0  0  0  0  0
  -25.1530  -36.1090   23.7800 C   0  0  0  0  0  3  0  0  0  0  0  0
  -27.2070  -37.0640   24.7350 C   0  0  0  0  0  1  0  0  0  0  0  0
  -26.1420  -37.2100   23.7440 N   0  0  0  0  0  0  0  0  0  0  0  0
  -25.6890  -38.1060   23.8890 H   0  0  0  0  0  0  0  0  0  0  0  0
  1  9  2  0
  2  8  1  0
  2  5  1  0
  3 53  1  0
  3  1  1  0
  4 19  1  0
  4  1  1  0
  6  5  1  1
  5  7  1  0
  6  3  1  0
  6  4  1  0
  8  6  1  0
  8 10  1  1
 11 19  1  0
 12 17  1  0
 13 14  1  0
 13 12  1  0
 14 15  1  0
 15 24  1  0
 15 16  1  0
 17 11  1  0
 17 16  1  0
 18 11  2  0
 19 20  1  0
 21 22  2  0
 22 41  1  0
 23 22  1  0
 23 26  1  0
 24 25  1  0
 24 21  1  0
 25 23  2  0
 26 27  1  0
 27 28  2  0
 29 32  1  0
 29 28  1  0
 30 29  2  0
 31 30  1  0
 31 26  2  0
 32 33  1  0
 33 34  1  0
 34 35  2  0
 36 35  1  0
 36 40  1  0
 37 36  2  0
 38 33  2  0
 38 37  1  0
 39 38  1  0
 41 42  1  0
 42 45  1  0
 42 44  1  0
 43 41  2  0
 46 21  1  0
 46 47  1  0
 48 46  1  0
 49 51  1  0
 50 49  1  0
 50 51  1  0
 51  8  1  0
 53 52  1  0
 54 55  1  0
 54 53  1  0
 56 67  2  0
 56 82  1  0
 57 55  1  0
 57 62  1  0
 58 66  1  0
 58 68  1  0
 59 65  1  0
 59 61  1  0
 60 66  1  0
 61 62  2  0
 61 60  1  0
 63 57  2  0
 64 63  1  0
 64 59  2  0
 65 58  1  0
 66 56  1  0
 68 70  2  0
 69 68  1  0
 69 73  1  0
 71 69  1  0
 72 81  2  0
 72 77  1  0
 73 77  1  0
 74 73  1  0
 75 76  1  0
 75 74  1  0
 76 72  1  0
 77 78  2  0
 78 79  1  0
 80 79  2  0
 81 80  1  0
 82 87  1  0
 82 83  1  0
 83 86  1  1
 83 84  1  0
 85 83  1  0
 87 90  1  0
 88 92  1  0
 88 87  1  0
 89 88  2  0
 91 92  1  0
 94 92  1  0
 94 95  1  0
 94 93  1  0
M  ISO  4  11 100  19 100  54 101  55 101
M  END
>  <TORSDO>  (89) 
F 19

>  <SCORE>  (89) 
-15.061

>  <name>  (89) 
88

>  <ligand_id>  (89) 
88

>  <original_smiles>  (89) 
[H]c1c([H])c([H])c2c(c1[H])C([H])([H])C([H])([H])C([H])([H])C2([H])N([H])C(=O)C1([H])N(C(=O)C([H])(N([H])C(=O)C([H])(N([H])C([H])([H])[H])C([H])([H])[H])C(C([H])([H])[H])(C([H])([H])[H])C([H])([H])[H])C([H])([H])c2c([H])c(OC([H])([H])C([H])(C([H])([H])[H])C3([H])C(=O)C([H])(N([H])C(=O)N4C([H])([H])C([H])([H])C([H])([H])C([H])(n5nc(-c6c([H])c([H])c(Oc7c([H])c([H])c(F)c([H])c7F)c([H])c6[H])c(C(=O)N([H])[H])c5N([H])[H])C4([H])[H])C34C([H])(C([H])([H])[H])C([H])([H])[N+]4([H])C3([H])C([H])([H])C3([H])[H])c([H])c([H])c2C1([H])[H]

>  <smiles>  (89) 
[H]c1c([H])c([H])c2c(c1[H])C([H])([H])C([H])([H])C([H])([H])C2([H])N([H])C(=O)C1([H])N(C(=O)C([H])(N([H])C(=O)C([H])(N([H])C([H])([H])[H])C([H])([H])[H])C(C([H])([H])[H])(C([H])([H])[H])C([H])([H])[H])C([H])([H])c2c([H])c(OC([H])([H])C([H])(C([H])([H])[H])C3([H])C(=O)C([H])(N([H])C(=O)N4C([H])([H])C([H])([H])C([H])([H])C([H])(n5nc(-c6c([H])c([H])c(Oc7c([H])c([H])c(F)c([H])c7F)c([H])c6[H])c(C(=O)N([H])[H])c5N([H])[H])C4([H])[H])C34C([H])(C([H])([H])[H])C([H])([H])[N+]4([H])C3([H])C([H])([H])C3([H])[H])c([H])c([H])c2C1([H])[H]

$$$$
89:0:0
     RDKit          3D

 97106  0  0  1  0  0  0  0  0999 V2000
  -27.0950  -21.0330   20.4480 C   0  0  0  0  0  2  0  0  0  0  0  0
  -27.4580  -20.7510   19.0040 C   0  0  0  0  0  3  0  0  0  0  0  0
  -27.6200  -22.4120   20.9050 C   0  0  0  0  0  3  0  0  0  0  0  0
  -27.7590  -22.2750   18.5000 C   0  0  0  0  0  3  0  0  0  0  0  0
  -27.5200  -23.4200   19.6960 C   0  0  0  0  0  3  0  0  0  0  0  0
  -26.7740  -22.6530   22.1730 C   0  0  0  0  0  1  0  0  0  0  0  0
  -26.8310  -22.3990   17.2440 C   0  0  0  0  0  1  0  0  0  0  0  0
  -29.1440  -17.3830   17.7610 C   0  0  0  0  0  3  0  0  0  0  0  0
  -28.4050  -19.4780   18.8270 C   0  0  0  0  0  0  0  0  0  0  0  0
  -28.1290  -18.3310   17.9880 C   0  0  0  0  0  0  0  0  0  0  0  0
  -30.2260  -17.2890   18.6660 C   0  0  0  0  0  0  0  0  0  0  0  0
  -29.6080  -19.3090   19.6440 C   0  0  0  0  0  0  0  0  0  0  0  0
  -30.1500  -18.0140   19.8850 C   0  0  0  0  0  0  0  0  0  0  0  0
  -26.8140  -17.9970   17.3020 C   0  0  0  0  0  1  0  0  0  0  0  0
  -31.5670  -16.9240   18.0750 C   0  0  0  0  0  1  0  0  0  0  0  0
  -30.6850  -20.3550   19.4330 C   0  0  0  0  0  1  0  0  0  0  0  0
  -30.8950  -17.6100   21.2330 C   0  0  0  0  0  2  0  0  0  0  0  0
  -31.7750  -15.2430   20.9560 C   0  0  0  0  0  0  0  0  0  0  0  0
  -31.4970  -13.0490   19.9300 C   0  0  0  0  0  2  0  0  0  0  0  0
  -30.6820  -13.1260   18.6210 C   0  0  0  0  0  2  0  0  0  0  0  0
  -29.2080  -13.6320   18.6520 C   0  0  0  0  0  2  0  0  0  0  0  0
  -28.7820  -14.2480   20.0510 C   0  0  0  0  0  3  0  0  0  0  0  0
  -29.6810  -13.8460   21.2510 C   0  0  0  0  0  2  0  0  0  0  0  0
  -31.0920  -14.0630   20.8500 N   0  0  0  0  0  0  0  0  0  0  0  0
  -32.8840  -15.4710   20.4610 O   0  0  0  0  0  0  0  0  0  0  0  0
  -31.0500  -16.1720   21.5350 N   0  0  0  0  0  0  0  0  0  0  0  0
  -30.4440  -15.8190   22.2660 H   0  0  0  0  0  0  0  0  0  0  0  0
  -26.3380  -14.9020   20.3370 C   0  0  0  0  0  0  0  0  0  0  0  0
  -25.2110  -14.1700   20.5770 C   0  0  0  0  0  0  0  0  0  0  0  0
  -25.6560  -12.8160   20.6930 C   0  0  0  0  0  0  0  0  0  0  0  0
  -27.3930  -14.0120   20.3570 N   0  0  0  0  0  0  0  0  0  0  0  0
  -26.9710  -12.7470   20.6080 N   0  0  0  0  0  0  0  0  0  0  0  0
  -24.8710  -11.5840   20.8560 C   0  0  0  0  0  0  0  0  0  0  0  0
  -25.1390  -10.6580   21.8860 C   0  0  0  0  0  3  0  0  0  0  0  0
  -24.3720   -9.4810   22.0240 C   0  0  0  0  0  3  0  0  0  0  0  0
  -23.3080   -9.2330   21.1250 C   0  0  0  0  0  0  0  0  0  0  0  0
  -23.0420  -10.1490   20.0880 C   0  0  0  0  0  3  0  0  0  0  0  0
  -23.8140  -11.3110   19.9600 C   0  0  0  0  0  3  0  0  0  0  0  0
  -22.5090   -8.1040   21.1690 O   0  0  0  0  0  0  0  0  0  0  0  0
  -22.2080   -7.4950   22.3590 C   0  0  0  0  0  0  0  0  0  0  0  0
  -21.5490   -8.1820   23.4000 C   0  0  0  0  0  3  0  0  0  0  0  0
  -21.2050   -7.5030   24.5870 C   0  0  0  0  0  3  0  0  0  0  0  0
  -21.5150   -6.1370   24.7290 C   0  0  0  0  0  0  0  0  0  0  0  0
  -22.1590   -5.4450   23.6880 C   0  0  0  0  0  3  0  0  0  0  0  0
  -22.5160   -6.1270   22.5070 C   0  0  0  0  0  0  0  0  0  0  0  0
  -23.1280   -5.4630   21.4960 F   0  0  0  0  0  0  0  0  0  0  0  0
  -21.1740   -5.4770   25.8530 F   0  0  0  0  0  0  0  0  0  0  0  0
  -23.8470  -14.7300   20.6330 C   0  0  0  0  0  0  0  0  0  0  0  0
  -23.0190  -14.1270   21.4770 N   0  0  0  0  0  0  0  0  0  0  0  0
  -23.5240  -15.7360   20.0090 O   0  0  0  0  0  0  0  0  0  0  0  0
  -23.3130  -13.2930   21.9340 H   0  0  0  0  0  0  0  0  0  0  0  0
  -22.0740  -14.4350   21.5520 H   0  0  0  0  0  0  0  0  0  0  0  0
  -26.5370  -16.2490   20.0970 N   0  0  0  0  0  0  0  0  0  0  0  0
  -27.3460  -16.6150   19.6390 H   0  0  0  0  0  0  0  0  0  0  0  0
  -25.7440  -16.8560   20.0960 H   0  0  0  0  0  0  0  0  0  0  0  0
  -27.6870  -25.1780   19.6910 C   0  0  0  0  0  2  0  0  0  0  0  0
  -28.4130  -26.5520   20.2340 O   0  0  0  0  0  0  0  0  0  0  0  0
  -24.9670  -32.2680   23.7190 C   0  0  0  0  0  0  0  0  0  0  0  0
  -27.6160  -27.7830   20.2770 C   0  0  0  0  0  0  0  0  0  0  0  0
  -23.8780  -30.9780   21.9530 C   0  0  0  0  0  3  0  0  0  0  0  0
  -25.3920  -29.6450   20.4140 C   0  0  0  0  0  0  0  0  0  0  0  0
  -26.4520  -31.2850   21.9120 C   0  0  0  0  0  2  0  0  0  0  0  0
  -26.5700  -29.9700   21.1010 C   0  0  0  0  0  0  0  0  0  0  0  0
  -27.7040  -29.0450   21.0330 C   0  0  0  0  0  3  0  0  0  0  0  0
  -26.4560  -27.6880   19.4930 C   0  0  0  0  0  3  0  0  0  0  0  0
  -25.3600  -28.5260   19.6040 C   0  0  0  0  0  3  0  0  0  0  0  0
  -24.1510  -30.4970   20.5200 C   0  0  0  0  0  2  0  0  0  0  0  0
  -25.1210  -31.5390   22.5740 N   0  0  0  0  0  0  0  0  0  0  0  0
  -23.8510  -32.4620   24.2260 O   0  0  0  0  0  0  0  0  0  0  0  0
  -23.2360  -29.8400   22.7850 C   0  0  0  0  0  0  0  0  0  0  0  0
  -21.9340  -29.5740   22.5770 N   0  0  0  0  0  0  0  0  0  0  0  0
  -23.9150  -29.2070   23.5980 O   0  0  0  0  0  0  0  0  0  0  0  0
  -21.4370  -30.1360   21.8990 H   0  0  0  0  0  0  0  0  0  0  0  0
  -18.6450  -28.0620   22.8010 C   0  0  0  0  0  0  0  0  0  0  0  0
  -21.1530  -28.5260   23.2430 C   0  0  0  0  0  3  0  0  0  0  0  0
  -21.4120  -27.1420   22.6020 C   0  0  0  0  0  2  0  0  0  0  0  0
  -20.4040  -26.7870   21.5030 C   0  0  0  0  0  2  0  0  0  0  0  0
  -18.9790  -26.7760   22.0640 C   0  0  0  0  0  2  0  0  0  0  0  0
  -19.6650  -28.8910   23.3410 C   0  0  0  0  0  0  0  0  0  0  0  0
  -19.2990  -30.0900   23.9900 C   0  0  0  0  0  3  0  0  0  0  0  0
  -17.9470  -30.4630   24.1060 C   0  0  0  0  0  3  0  0  0  0  0  0
  -16.9410  -29.6350   23.5800 C   0  0  0  0  0  3  0  0  0  0  0  0
  -17.2910  -28.4350   22.9350 C   0  0  0  0  0  3  0  0  0  0  0  0
  -26.1910  -32.9210   24.4240 C   0  0  0  0  0  3  0  0  0  0  0  0
  -26.5870  -32.1910   25.7670 C   0  0  1  0  0  0  0  0  0  0  0  0
  -25.3970  -31.9940   26.7340 C   0  0  0  0  0  1  0  0  0  0  0  0
  -27.1970  -30.7970   25.4950 C   0  0  0  0  0  1  0  0  0  0  0  0
  -27.6740  -33.0100   26.5000 C   0  0  0  0  0  1  0  0  0  0  0  0
  -25.8430  -34.3270   24.6930 N   0  0  0  0  0  0  0  0  0  0  0  0
  -26.3070  -35.3800   24.0070 C   0  0  0  0  0  0  0  0  0  0  0  0
  -27.1430  -35.2740   23.1060 O   0  0  0  0  0  0  0  0  0  0  0  0
  -25.1150  -34.4850   25.3740 H   0  0  0  0  0  0  0  0  0  0  0  0
  -24.7160  -37.2220   23.3620 C   0  0  0  0  0  1  0  0  0  0  0  0
  -25.7660  -36.7730   24.3890 C   0  0  0  0  0  3  0  0  0  0  0  0
  -27.7210  -37.5920   25.6290 C   0  0  0  0  0  1  0  0  0  0  0  0
  -26.8200  -37.8060   24.5010 N   0  0  0  0  0  0  0  0  0  0  0  0
  -26.4070  -38.7300   24.5940 H   0  0  0  0  0  0  0  0  0  0  0  0
  1  3  1  0
  2  9  1  0
  2  1  1  0
  3  6  1  0
  4  7  1  0
  4  2  1  0
  4  5  1  0
  5 56  1  0
  5  3  1  0
  8 10  2  0
  8 11  1  0
  9 12  2  0
 10  9  1  0
 11 13  2  0
 12 13  1  0
 13 17  1  0
 14 10  1  0
 15 11  1  0
 16 12  1  0
 17 26  1  0
 18 26  1  0
 19 24  1  0
 20 21  1  0
 20 19  1  0
 22 21  1  0
 22 31  1  0
 22 23  1  0
 24 18  1  0
 24 23  1  0
 25 18  2  0
 26 27  1  0
 28 31  1  0
 28 29  2  0
 29 48  1  0
 29 30  1  0
 30 33  1  0
 31 32  1  0
 32 30  2  0
 33 34  1  0
 34 35  2  0
 36 39  1  0
 36 35  1  0
 37 36  2  0
 38 37  1  0
 38 33  2  0
 39 40  1  0
 40 45  2  0
 40 41  1  0
 41 42  2  0
 42 43  1  0
 43 47  1  0
 44 43  2  0
 45 44  1  0
 46 45  1  0
 48 49  1  0
 49 52  1  0
 49 51  1  0
 50 48  2  0
 53 28  1  0
 54 53  1  0
 55 53  1  0
 56 57  1  0
 57 59  1  0
 58 69  2  0
 59 64  1  0
 60 68  1  0
 60 70  1  0
 61 67  1  0
 61 63  1  0
 62 68  1  0
 63 62  1  0
 64 63  2  0
 65 66  1  0
 65 59  2  0
 66 61  2  0
 67 60  1  0
 68 58  1  0
 70 72  2  0
 71 70  1  0
 73 71  1  0
 74 83  2  0
 74 79  1  0
 75 71  1  0
 75 79  1  0
 76 75  1  0
 77 78  1  0
 77 76  1  0
 78 74  1  0
 79 80  2  0
 80 81  1  0
 82 81  2  0
 83 82  1  0
 84 58  1  0
 84 89  1  0
 84 85  1  0
 85 88  1  1
 85 86  1  0
 87 85  1  0
 89 92  1  0
 90 94  1  0
 90 89  1  0
 91 90  2  0
 94 93  1  0
 94 96  1  0
 96 97  1  0
 96 95  1  0
M  ISO  4  18 100  26 100  56 101  57 101
M  END
>  <TORSDO>  (90) 
F 19

>  <SCORE>  (90) 
-7.400

>  <name>  (90) 
89

>  <ligand_id>  (90) 
89

>  <original_smiles>  (90) 
[H]c1c([H])c([H])c2c(c1[H])C([H])([H])C([H])([H])C([H])([H])C2([H])N([H])C(=O)C1([H])N(C(=O)C([H])(N([H])C(=O)C([H])(N([H])C([H])([H])[H])C([H])([H])[H])C(C([H])([H])[H])(C([H])([H])[H])C([H])([H])[H])C([H])([H])c2c([H])c(OC([H])([H])C3([H])C([H])(C([H])([H])[H])C([H])([H])C([H])(c4c(C([H])([H])[H])c([H])c(C([H])([H])[H])c(C([H])([H])N([H])C(=O)N5C([H])([H])C([H])([H])C([H])([H])C([H])(n6nc(-c7c([H])c([H])c(Oc8c([H])c([H])c(F)c([H])c8F)c([H])c7[H])c(C(=O)N([H])[H])c6N([H])[H])C5([H])[H])c4C([H])([H])[H])C3([H])C([H])([H])[H])c([H])c([H])c2C1([H])[H]

>  <smiles>  (90) 
[H]c1c([H])c([H])c2c(c1[H])C([H])([H])C([H])([H])C([H])([H])C2([H])N([H])C(=O)C1([H])N(C(=O)C([H])(N([H])C(=O)C([H])(N([H])C([H])([H])[H])C([H])([H])[H])C(C([H])([H])[H])(C([H])([H])[H])C([H])([H])[H])C([H])([H])c2c([H])c(OC([H])([H])C3([H])C([H])(C([H])([H])[H])C([H])([H])C([H])(c4c(C([H])([H])[H])c([H])c(C([H])([H])[H])c(C([H])([H])N([H])C(=O)N5C([H])([H])C([H])([H])C([H])([H])C([H])(n6nc(-c7c([H])c([H])c(Oc8c([H])c([H])c(F)c([H])c8F)c([H])c7[H])c(C(=O)N([H])[H])c6N([H])[H])C5([H])[H])c4C([H])([H])[H])C3([H])C([H])([H])[H])c([H])c([H])c2C1([H])[H]

$$$$
90:0:0
     RDKit          3D

 98108  0  0  1  0  0  0  0  0999 V2000
  -29.0840  -21.2350   19.2370 C   0  0  0  0  0  3  0  0  0  0  0  0
  -30.0160  -20.6160   21.3580 C   0  0  0  0  0  3  0  0  0  0  0  0
  -28.9010  -22.6650   19.6460 C   0  0  0  0  0  0  0  0  0  0  0  0
  -29.6590  -20.1460   20.0870 C   0  0  0  0  0  0  0  0  0  0  0  0
  -29.3700  -22.8720   20.9680 C   0  0  0  0  0  0  0  0  0  0  0  0
  -29.9990  -24.5390   22.8870 C   0  0  0  0  0  2  0  0  0  0  0  0
  -26.6800  -24.8080   21.0050 C   0  0  0  0  0  2  0  0  0  0  0  0
  -29.2680  -25.7670   23.4320 C   0  0  0  0  0  2  0  0  0  0  0  0
  -27.9940  -23.8900   18.9190 C   0  0  0  0  0  3  0  0  0  0  0  0
  -29.1630  -24.2200   21.6500 C   0  0  0  0  0  3  0  0  0  0  0  0
  -26.6460  -23.9280   19.7150 C   0  0  0  0  0  3  0  0  0  0  0  0
  -27.7180  -24.4680   22.1190 C   0  0  0  0  0  3  0  0  0  0  0  0
  -26.0390  -22.5410   20.0180 C   0  0  0  0  0  1  0  0  0  0  0  0
  -26.9810  -25.4210   24.3080 C   0  0  0  0  0  1  0  0  0  0  0  0
  -29.8720  -21.8980   21.7700 N   0  0  0  0  0  0  0  0  0  0  0  0
  -27.8320  -25.5790   23.1070 N   0  0  1  0  0  4  0  0  0  0  0  0
  -27.5390  -26.4330   22.6540 H   0  0  0  0  0  0  0  0  0  0  0  0
  -30.0280  -18.5620   19.6980 C   0  0  0  0  0  2  0  0  0  0  0  0
  -30.6860  -16.0710   20.7510 C   0  0  0  0  0  0  0  0  0  0  0  0
  -30.8730  -13.5470   20.4660 C   0  0  0  0  0  2  0  0  0  0  0  0
  -30.2230  -13.1020   19.1310 C   0  0  0  0  0  2  0  0  0  0  0  0
  -28.7130  -12.8620   19.3180 C   0  0  0  0  0  2  0  0  0  0  0  0
  -28.0340  -14.0080   20.1100 C   0  0  0  0  0  3  0  0  0  0  0  0
  -28.8260  -14.4000   21.3770 C   0  0  0  0  0  2  0  0  0  0  0  0
  -30.1740  -14.7820   20.9400 N   0  0  0  0  0  0  0  0  0  0  0  0
  -31.9130  -16.1600   20.6160 O   0  0  0  0  0  0  0  0  0  0  0  0
  -29.8370  -17.2030   20.5180 N   0  0  0  0  0  0  0  0  0  0  0  0
  -28.8700  -16.9910   20.7130 H   0  0  0  0  0  0  0  0  0  0  0  0
  -25.5670  -14.5920   20.4410 C   0  0  0  0  0  0  0  0  0  0  0  0
  -24.4590  -13.8220   20.6720 C   0  0  0  0  0  0  0  0  0  0  0  0
  -24.9260  -12.4750   20.7680 C   0  0  0  0  0  0  0  0  0  0  0  0
  -26.6360  -13.7150   20.4020 N   0  0  0  0  0  0  0  0  0  0  0  0
  -26.2500  -12.4390   20.6640 N   0  0  0  0  0  0  0  0  0  0  0  0
  -24.1820  -11.2140   20.8920 C   0  0  0  0  0  0  0  0  0  0  0  0
  -24.5940  -10.1990   21.7820 C   0  0  0  0  0  3  0  0  0  0  0  0
  -23.8500   -9.0040   21.8980 C   0  0  0  0  0  3  0  0  0  0  0  0
  -22.6800   -8.8190   21.1230 C   0  0  0  0  0  0  0  0  0  0  0  0
  -22.2860   -9.8250   20.2240 C   0  0  0  0  0  3  0  0  0  0  0  0
  -23.0310  -11.0100   20.1060 C   0  0  0  0  0  3  0  0  0  0  0  0
  -21.9090   -7.6830   21.1510 O   0  0  0  0  0  0  0  0  0  0  0  0
  -21.9450   -6.8140   22.2130 C   0  0  0  0  0  0  0  0  0  0  0  0
  -21.6810   -7.2400   23.5330 C   0  0  0  0  0  3  0  0  0  0  0  0
  -21.6610   -6.3030   24.5840 C   0  0  0  0  0  3  0  0  0  0  0  0
  -21.8940   -4.9390   24.3190 C   0  0  0  0  0  0  0  0  0  0  0  0
  -22.1520   -4.5130   23.0040 C   0  0  0  0  0  3  0  0  0  0  0  0
  -22.1740   -5.4480   21.9540 C   0  0  0  0  0  0  0  0  0  0  0  0
  -22.4020   -5.0290   20.6860 F   0  0  0  0  0  0  0  0  0  0  0  0
  -21.8670   -4.0370   25.3270 F   0  0  0  0  0  0  0  0  0  0  0  0
  -23.0370  -14.3000   20.7050 C   0  0  0  0  0  0  0  0  0  0  0  0
  -22.2010  -13.6780   21.5280 N   0  0  0  0  0  0  0  0  0  0  0  0
  -22.6710  -15.2650   20.0340 O   0  0  0  0  0  0  0  0  0  0  0  0
  -22.5030  -12.8940   22.0870 H   0  0  0  0  0  0  0  0  0  0  0  0
  -21.2430  -13.9940   21.6040 H   0  0  0  0  0  0  0  0  0  0  0  0
  -25.7530  -15.9560   20.2320 N   0  0  0  0  0  0  0  0  0  0  0  0
  -24.9740  -16.6020   20.1680 H   0  0  0  0  0  0  0  0  0  0  0  0
  -26.6380  -16.3790   19.9890 H   0  0  0  0  0  0  0  0  0  0  0  0
  -28.4360  -25.5330   18.6340 C   0  0  0  0  0  2  0  0  0  0  0  0
  -27.7530  -26.8170   18.0440 O   0  0  0  0  0  0  0  0  0  0  0  0
  -24.5560  -31.4920   22.8700 C   0  0  0  0  0  0  0  0  0  0  0  0
  -26.6710  -27.6350   18.5360 C   0  0  0  0  0  0  0  0  0  0  0  0
  -23.1310  -30.4380   21.1560 C   0  0  0  0  0  3  0  0  0  0  0  0
  -24.3530  -29.2540   19.2320 C   0  0  0  0  0  0  0  0  0  0  0  0
  -25.6260  -30.8320   20.6790 C   0  0  0  0  0  2  0  0  0  0  0  0
  -25.6100  -29.6080   19.7410 C   0  0  0  0  0  0  0  0  0  0  0  0
  -26.7680  -28.8260   19.3700 C   0  0  0  0  0  3  0  0  0  0  0  0
  -25.3820  -27.3780   18.0280 C   0  0  0  0  0  3  0  0  0  0  0  0
  -24.2490  -28.1560   18.3620 C   0  0  0  0  0  3  0  0  0  0  0  0
  -23.1450  -30.0810   19.6450 C   0  0  0  0  0  2  0  0  0  0  0  0
  -24.4640  -30.9350   21.6240 N   0  0  0  0  0  0  0  0  0  0  0  0
  -23.5620  -31.6050   23.6030 O   0  0  0  0  0  0  0  0  0  0  0  0
  -22.6160  -29.2200   21.9650 C   0  0  0  0  0  0  0  0  0  0  0  0
  -21.2890  -29.0040   21.9680 N   0  0  0  0  0  0  0  0  0  0  0  0
  -23.4090  -28.4810   22.5540 O   0  0  0  0  0  0  0  0  0  0  0  0
  -20.7030  -29.6580   21.4700 H   0  0  0  0  0  0  0  0  0  0  0  0
  -18.0640  -27.4190   22.4470 C   0  0  0  0  0  0  0  0  0  0  0  0
  -20.6030  -27.8820   22.6170 C   0  0  0  0  0  3  0  0  0  0  0  0
  -20.7900  -26.5750   21.8110 C   0  0  0  0  0  2  0  0  0  0  0  0
  -19.6530  -26.3100   20.8180 C   0  0  0  0  0  2  0  0  0  0  0  0
  -18.3120  -26.2170   21.5480 C   0  0  0  0  0  2  0  0  0  0  0  0
  -19.1380  -28.2090   22.9350 C   0  0  0  0  0  0  0  0  0  0  0  0
  -18.8530  -29.3330   23.7400 C   0  0  0  0  0  3  0  0  0  0  0  0
  -17.5230  -29.6700   24.0570 C   0  0  0  0  0  3  0  0  0  0  0  0
  -16.4640  -28.8740   23.5860 C   0  0  0  0  0  3  0  0  0  0  0  0
  -16.7360  -27.7500   22.7860 C   0  0  0  0  0  3  0  0  0  0  0  0
  -25.9090  -32.0280   23.4270 C   0  0  0  0  0  3  0  0  0  0  0  0
  -25.6790  -33.3900   23.9340 N   0  0  0  0  0  0  0  0  0  0  0  0
  -26.0800  -34.5140   23.3240 C   0  0  0  0  0  0  0  0  0  0  0  0
  -26.7500  -34.5050   22.2880 O   0  0  0  0  0  0  0  0  0  0  0  0
  -25.0850  -33.4700   24.7460 H   0  0  0  0  0  0  0  0  0  0  0  0
  -24.5060  -36.4720   23.1830 C   0  0  0  0  0  1  0  0  0  0  0  0
  -25.6790  -35.8580   23.9640 C   0  0  0  0  0  3  0  0  0  0  0  0
  -27.8320  -36.4530   24.9860 C   0  0  0  0  0  1  0  0  0  0  0  0
  -26.7900  -36.8310   24.0360 N   0  0  0  0  0  0  0  0  0  0  0  0
  -26.4470  -37.7510   24.2960 H   0  0  0  0  0  0  0  0  0  0  0  0
  -26.5180  -31.1150   24.5630 C   0  0  1  0  0  0  0  0  0  0  0  0
  -25.5290  -30.8040   25.7100 C   0  0  0  0  0  1  0  0  0  0  0  0
  -27.0030  -29.7670   23.9830 C   0  0  0  0  0  1  0  0  0  0  0  0
  -27.7610  -31.8040   25.1720 C   0  0  0  0  0  1  0  0  0  0  0  0
  1  3  2  0
  1  4  1  0
  2 15  1  0
  3  5  1  0
  4  2  2  0
  5 10  1  0
  5 15  2  0
  6  8  1  0
  9 57  1  0
  9  3  1  0
  9 11  1  0
 10 12  1  0
 10  6  1  0
 11 13  1  0
 11  7  1  0
 12  7  1  0
 12 16  1  0
 16  8  1  0
 16 14  1  0
 16 17  1  6
 18  4  1  0
 18 27  1  0
 19 25  1  0
 20 25  1  0
 21 22  1  0
 21 20  1  0
 23 22  1  0
 23 32  1  0
 23 24  1  0
 25 24  1  0
 26 19  2  0
 27 28  1  0
 27 19  1  0
 29 30  2  0
 30 49  1  0
 30 31  1  0
 31 34  1  0
 32 29  1  0
 32 33  1  0
 33 31  2  0
 34 35  1  0
 35 36  2  0
 37 40  1  0
 37 36  1  0
 38 37  2  0
 39 38  1  0
 39 34  2  0
 40 41  1  0
 41 42  1  0
 42 43  2  0
 44 43  1  0
 44 48  1  0
 45 44  2  0
 46 41  2  0
 46 45  1  0
 47 46  1  0
 49 50  1  0
 50 53  1  0
 50 52  1  0
 51 49  2  0
 54 29  1  0
 55 54  1  0
 56 54  1  0
 58 60  1  0
 58 57  1  0
 59 70  2  0
 60 65  1  0
 61 69  1  0
 61 71  1  0
 62 68  1  0
 62 64  1  0
 63 69  1  0
 64 63  1  0
 65 64  2  0
 66 67  1  0
 66 60  2  0
 67 62  2  0
 68 61  1  0
 69 59  1  0
 71 72  1  0
 71 73  2  0
 74 72  1  0
 75 84  2  0
 75 80  1  0
 76 72  1  0
 76 80  1  0
 77 76  1  0
 78 79  1  0
 78 77  1  0
 79 75  1  0
 80 81  2  0
 81 82  1  0
 83 82  2  0
 84 83  1  0
 85 59  1  0
 85 86  1  0
 85 95  1  0
 86 89  1  0
 87 86  1  0
 87 91  1  0
 88 87  2  0
 91 90  1  0
 91 93  1  0
 93 94  1  0
 93 92  1  0
 95 98  1  1
 95 96  1  0
 97 95  1  0
M  ISO  4  19 100  27 100  57 101  58 101
M  END
>  <TORSDO>  (91) 
F 18

>  <SCORE>  (91) 
-10.936

>  <name>  (91) 
90

>  <ligand_id>  (91) 
90

>  <original_smiles>  (91) 
[H]c1nc2c(c([H])c1C([H])([H])N([H])C(=O)N1C([H])([H])C([H])([H])C([H])([H])C([H])(n3nc(-c4c([H])c([H])c(Oc5c([H])c([H])c(F)c([H])c5F)c([H])c4[H])c(C(=O)N([H])[H])c3N([H])[H])C1([H])[H])C([H])(C([H])([H])Oc1c([H])c([H])c3c(c1[H])C([H])([H])N(C(=O)C([H])(N([H])C(=O)C([H])(N([H])C([H])([H])[H])C([H])([H])[H])C(C([H])([H])[H])(C([H])([H])[H])C([H])([H])[H])C([H])(C(=O)N([H])C1([H])c4c([H])c([H])c([H])c([H])c4C([H])([H])C([H])([H])C1([H])[H])C3([H])[H])C([H])(C([H])([H])[H])C([H])([H])C1([H])C2([H])C([H])([H])C([H])([H])[N+]1([H])C([H])([H])[H]

>  <smiles>  (91) 
[H]c1nc2c(c([H])c1C([H])([H])N([H])C(=O)N1C([H])([H])C([H])([H])C([H])([H])C([H])(n3nc(-c4c([H])c([H])c(Oc5c([H])c([H])c(F)c([H])c5F)c([H])c4[H])c(C(=O)N([H])[H])c3N([H])[H])C1([H])[H])C([H])(C([H])([H])Oc1c([H])c([H])c3c(c1[H])C([H])([H])N(C(=O)C([H])(N([H])C(=O)C([H])(N([H])C([H])([H])[H])C([H])([H])[H])C(C([H])([H])[H])(C([H])([H])[H])C([H])([H])[H])C([H])(C(=O)N([H])C1([H])c4c([H])c([H])c([H])c([H])c4C([H])([H])C([H])([H])C1([H])[H])C3([H])[H])C([H])(C([H])([H])[H])C([H])([H])C1([H])C2([H])C([H])([H])C([H])([H])[N+]1([H])C([H])([H])[H]

$$$$
91:0:0
     RDKit          3D

 91100  0  0  1  0  0  0  0  0999 V2000
  -28.2560  -21.4550   20.2720 C   0  0  0  0  0  3  0  0  0  0  0  0
  -28.6700  -22.8330   20.1040 C   0  0  0  0  0  0  0  0  0  0  0  0
  -30.0360  -22.4830   19.7910 C   0  0  0  0  0  0  0  0  0  0  0  0
  -30.3450  -21.1380   19.7810 N   0  0  0  0  0  0  0  0  0  0  0  0
  -29.2470  -20.3760   20.0800 N   0  0  0  0  0  0  0  0  0  0  0  0
  -30.5510  -15.2050   19.8570 C   0  0  0  0  0  0  0  0  0  0  0  0
  -30.4360  -12.8030   18.9280 C   0  0  0  0  0  2  0  0  0  0  0  0
  -29.4190  -12.6570   17.7710 C   0  0  0  0  0  2  0  0  0  0  0  0
  -28.0100  -12.3780   18.3220 C   0  0  0  0  0  2  0  0  0  0  0  0
  -27.6540  -13.3070   19.5120 C   0  0  0  0  0  3  0  0  0  0  0  0
  -28.7910  -13.4200   20.5490 C   0  0  0  0  0  2  0  0  0  0  0  0
  -29.9710  -13.9160   19.8270 N   0  0  0  0  0  0  0  0  0  0  0  0
  -31.7430  -15.2210   19.5160 O   0  0  0  0  0  0  0  0  0  0  0  0
  -29.6280  -17.6220   19.0360 C   0  0  0  0  0  2  0  0  0  0  0  0
  -29.2400  -18.7440   20.1320 C   0  0  0  0  0  3  0  0  0  0  0  0
  -30.1500  -17.6790   20.9450 C   0  0  0  0  0  3  0  0  0  0  0  0
  -29.8230  -17.3640   22.4000 C   0  0  0  0  0  1  0  0  0  0  0  0
  -29.8100  -16.4640   20.0450 N   0  0  0  0  0  0  0  0  0  0  0  0
  -25.3580  -13.8190   20.4980 C   0  0  0  0  0  0  0  0  0  0  0  0
  -24.3320  -13.0210   20.9180 C   0  0  0  0  0  0  0  0  0  0  0  0
  -24.7940  -11.6760   20.7810 C   0  0  0  0  0  0  0  0  0  0  0  0
  -26.3750  -12.9620   20.1200 N   0  0  0  0  0  0  0  0  0  0  0  0
  -26.0540  -11.6630   20.3570 N   0  0  0  0  0  0  0  0  0  0  0  0
  -24.0860  -10.4020   20.9700 C   0  0  0  0  0  0  0  0  0  0  0  0
  -24.5440   -9.4300   21.8880 C   0  0  0  0  0  3  0  0  0  0  0  0
  -23.8340   -8.2240   22.0690 C   0  0  0  0  0  3  0  0  0  0  0  0
  -22.6510   -7.9800   21.3320 C   0  0  0  0  0  0  0  0  0  0  0  0
  -22.2100   -8.9410   20.4040 C   0  0  0  0  0  3  0  0  0  0  0  0
  -22.9210  -10.1380   20.2220 C   0  0  0  0  0  3  0  0  0  0  0  0
  -21.9090   -6.8260   21.4230 O   0  0  0  0  0  0  0  0  0  0  0  0
  -21.8100   -6.1250   22.5990 C   0  0  0  0  0  0  0  0  0  0  0  0
  -21.3130   -6.7180   23.7800 C   0  0  0  0  0  3  0  0  0  0  0  0
  -21.1620   -5.9420   24.9470 C   0  0  0  0  0  3  0  0  0  0  0  0
  -21.4980   -4.5750   24.9330 C   0  0  0  0  0  0  0  0  0  0  0  0
  -21.9870   -3.9810   23.7560 C   0  0  0  0  0  3  0  0  0  0  0  0
  -22.1390   -4.7540   22.5910 C   0  0  0  0  0  0  0  0  0  0  0  0
  -22.5900   -4.1740   21.4540 F   0  0  0  0  0  0  0  0  0  0  0  0
  -21.3460   -3.8280   26.0500 F   0  0  0  0  0  0  0  0  0  0  0  0
  -22.9630  -13.4780   21.3290 C   0  0  0  0  0  0  0  0  0  0  0  0
  -22.3220  -12.7550   22.2390 N   0  0  0  0  0  0  0  0  0  0  0  0
  -22.4730  -14.5130   20.8760 O   0  0  0  0  0  0  0  0  0  0  0  0
  -22.7310  -11.9180   22.6270 H   0  0  0  0  0  0  0  0  0  0  0  0
  -21.4070  -13.0430   22.5550 H   0  0  0  0  0  0  0  0  0  0  0  0
  -25.5070  -15.1980   20.3770 N   0  0  0  0  0  0  0  0  0  0  0  0
  -24.7610  -15.8480   20.6000 H   0  0  0  0  0  0  0  0  0  0  0  0
  -26.3410  -15.6550   20.0280 H   0  0  0  0  0  0  0  0  0  0  0  0
  -31.4570  -23.3860   17.9200 C   0  0  0  0  0  1  0  0  0  0  0  0
  -32.3550  -23.3370   20.3090 C   0  0  0  0  0  1  0  0  0  0  0  0
  -31.1140  -23.4720   19.4150 C   0  0  0  0  0  3  0  0  0  0  0  0
  -27.8040  -24.3420   20.1090 C   0  0  0  0  0  2  0  0  0  0  0  0
  -28.2070  -25.9070   20.2500 O   0  0  0  0  0  0  0  0  0  0  0  0
  -24.7090  -31.8560   23.2340 C   0  0  0  0  0  0  0  0  0  0  0  0
  -27.2150  -27.0060   20.1900 C   0  0  0  0  0  0  0  0  0  0  0  0
  -23.4960  -30.4750   21.5990 C   0  0  0  0  0  3  0  0  0  0  0  0
  -24.9260  -28.8750   20.1640 C   0  0  0  0  0  0  0  0  0  0  0  0
  -26.0620  -30.6790   21.4380 C   0  0  0  0  0  2  0  0  0  0  0  0
  -26.1190  -29.2760   20.7780 C   0  0  0  0  0  0  0  0  0  0  0  0
  -27.2610  -28.3620   20.7690 C   0  0  0  0  0  3  0  0  0  0  0  0
  -25.9920  -26.7540   19.5260 C   0  0  0  0  0  3  0  0  0  0  0  0
  -24.8840  -27.6330   19.5170 C   0  0  0  0  0  3  0  0  0  0  0  0
  -23.7120  -29.7980   20.2180 C   0  0  0  0  0  2  0  0  0  0  0  0
  -24.7770  -31.0280   22.1430 N   0  0  0  0  0  0  0  0  0  0  0  0
  -23.6250  -32.1530   23.7620 O   0  0  0  0  0  0  0  0  0  0  0  0
  -22.8030  -29.4770   22.5630 C   0  0  0  0  0  0  0  0  0  0  0  0
  -21.4720  -29.3170   22.4380 N   0  0  0  0  0  0  0  0  0  0  0  0
  -23.4670  -28.8490   23.3900 O   0  0  0  0  0  0  0  0  0  0  0  0
  -20.9890  -29.8730   21.7460 H   0  0  0  0  0  0  0  0  0  0  0  0
  -18.0850  -28.1230   22.9470 C   0  0  0  0  0  0  0  0  0  0  0  0
  -20.6460  -28.3830   23.2120 C   0  0  0  0  0  3  0  0  0  0  0  0
  -20.7440  -26.9490   22.6410 C   0  0  0  0  0  2  0  0  0  0  0  0
  -19.6410  -26.6270   21.6270 C   0  0  0  0  0  2  0  0  0  0  0  0
  -18.2590  -26.7740   22.2710 C   0  0  0  0  0  2  0  0  0  0  0  0
  -19.2050  -28.8860   23.3740 C   0  0  0  0  0  0  0  0  0  0  0  0
  -18.9860  -30.1460   23.9700 C   0  0  0  0  0  3  0  0  0  0  0  0
  -17.6810  -30.6470   24.1410 C   0  0  0  0  0  3  0  0  0  0  0  0
  -16.5760  -29.8810   23.7280 C   0  0  0  0  0  3  0  0  0  0  0  0
  -16.7790  -28.6210   23.1370 C   0  0  0  0  0  3  0  0  0  0  0  0
  -25.9900  -32.4860   23.8600 C   0  0  0  0  0  3  0  0  0  0  0  0
  -25.6830  -33.8850   24.2070 N   0  0  0  0  0  0  0  0  0  0  0  0
  -25.9940  -34.9480   23.4520 C   0  0  0  0  0  0  0  0  0  0  0  0
  -26.6340  -34.8550   22.4020 O   0  0  0  0  0  0  0  0  0  0  0  0
  -25.1100  -34.0300   25.0250 H   0  0  0  0  0  0  0  0  0  0  0  0
  -24.2480  -36.7430   23.1850 C   0  0  0  0  0  1  0  0  0  0  0  0
  -25.5240  -36.3350   23.9390 C   0  0  0  0  0  3  0  0  0  0  0  0
  -27.6880  -37.2250   24.6860 C   0  0  0  0  0  1  0  0  0  0  0  0
  -26.5480  -37.3920   23.7880 N   0  0  0  0  0  0  0  0  0  0  0  0
  -26.1440  -38.3100   23.9560 H   0  0  0  0  0  0  0  0  0  0  0  0
  -26.5010  -31.7090   25.1360 C   0  0  1  0  0  0  0  0  0  0  0  0
  -25.4070  -31.4780   26.2060 C   0  0  0  0  0  1  0  0  0  0  0  0
  -27.0730  -30.3270   24.7490 C   0  0  0  0  0  1  0  0  0  0  0  0
  -27.6580  -32.4930   25.7980 C   0  0  0  0  0  1  0  0  0  0  0  0
  2 50  1  0
  2  1  2  0
  3  2  1  0
  4  3  2  0
  4  5  1  0
  5 15  1  0
  5  1  1  0
  6 18  1  0
  7 12  1  0
  8  9  1  0
  8  7  1  0
 10  9  1  0
 10 22  1  0
 10 11  1  0
 12  6  1  0
 12 11  1  0
 13  6  2  0
 14 18  1  0
 15 14  1  0
 15 16  1  0
 16 17  1  0
 18 16  1  0
 19 20  2  0
 20 39  1  0
 21 20  1  0
 21 24  1  0
 22 23  1  0
 22 19  1  0
 23 21  2  0
 24 25  1  0
 25 26  2  0
 27 30  1  0
 27 26  1  0
 28 27  2  0
 29 28  1  0
 29 24  2  0
 30 31  1  0
 31 32  1  0
 32 33  2  0
 34 33  1  0
 34 38  1  0
 35 34  2  0
 36 31  2  0
 36 35  1  0
 37 36  1  0
 39 40  1  0
 40 43  1  0
 40 42  1  0
 41 39  2  0
 44 19  1  0
 44 45  1  0
 46 44  1  0
 47 49  1  0
 49  3  1  0
 49 48  1  0
 50 51  1  0
 52 63  2  0
 53 51  1  0
 53 58  1  0
 54 62  1  0
 54 64  1  0
 55 61  1  0
 55 57  1  0
 56 62  1  0
 57 56  1  0
 58 57  2  0
 59 53  2  0
 60 59  1  0
 60 55  2  0
 61 54  1  0
 62 52  1  0
 64 66  2  0
 65 64  1  0
 67 65  1  0
 68 77  2  0
 68 73  1  0
 69 65  1  0
 69 73  1  0
 70 69  1  0
 71 72  1  0
 71 70  1  0
 72 68  1  0
 73 74  2  0
 74 75  1  0
 76 75  2  0
 77 76  1  0
 78 52  1  0
 78 79  1  0
 78 88  1  0
 79 82  1  0
 80 84  1  0
 80 79  1  0
 81 80  2  0
 84 83  1  0
 86 84  1  0
 86 87  1  0
 86 85  1  0
 88 91  1  1
 88 89  1  0
 90 88  1  0
M  ISO  4   6 100  18 100  50 101  51 101
M  END
>  <TORSDO>  (92) 
F 18

>  <SCORE>  (92) 
-14.284

>  <name>  (92) 
91

>  <ligand_id>  (92) 
91

>  <original_smiles>  (92) 
[H]c1c([H])c([H])c2c(c1[H])C([H])([H])C([H])([H])C([H])([H])C2([H])N([H])C(=O)C1([H])N(C(=O)C([H])(N([H])C(=O)C([H])(N([H])C([H])([H])[H])C([H])([H])[H])C(C([H])([H])[H])(C([H])([H])[H])C([H])([H])[H])C([H])([H])c2c([H])c(OC([H])([H])c3c(C([H])(C([H])([H])[H])C([H])([H])[H])nn(C4([H])C([H])([H])N(C(=O)N5C([H])([H])C([H])([H])C([H])([H])C([H])(n6nc(-c7c([H])c([H])c(Oc8c([H])c([H])c(F)c([H])c8F)c([H])c7[H])c(C(=O)N([H])[H])c6N([H])[H])C5([H])[H])C4([H])C([H])([H])[H])c3[H])c([H])c([H])c2C1([H])[H]

>  <smiles>  (92) 
[H]c1c([H])c([H])c2c(c1[H])C([H])([H])C([H])([H])C([H])([H])C2([H])N([H])C(=O)C1([H])N(C(=O)C([H])(N([H])C(=O)C([H])(N([H])C([H])([H])[H])C([H])([H])[H])C(C([H])([H])[H])(C([H])([H])[H])C([H])([H])[H])C([H])([H])c2c([H])c(OC([H])([H])c3c(C([H])(C([H])([H])[H])C([H])([H])[H])nn(C4([H])C([H])([H])N(C(=O)N5C([H])([H])C([H])([H])C([H])([H])C([H])(n6nc(-c7c([H])c([H])c(Oc8c([H])c([H])c(F)c([H])c8F)c([H])c7[H])c(C(=O)N([H])[H])c6N([H])[H])C5([H])[H])C4([H])C([H])([H])[H])c3[H])c([H])c([H])c2C1([H])[H]

$$$$
92:0:0
     RDKit          3D

 90 99  0  0  1  0  0  0  0  0999 V2000
  -30.5150  -15.0190   20.3350 C   0  0  0  0  0  0  0  0  0  0  0  0
  -30.3800  -12.6600   19.4390 C   0  0  0  0  0  2  0  0  0  0  0  0
  -29.4620  -12.6600   18.1920 C   0  0  0  0  0  2  0  0  0  0  0  0
  -27.9900  -12.4650   18.6010 C   0  0  0  0  0  2  0  0  0  0  0  0
  -27.5860  -13.3420   19.8190 C   0  0  0  0  0  3  0  0  0  0  0  0
  -28.6420  -13.3480   20.9460 C   0  0  0  0  0  2  0  0  0  0  0  0
  -29.9130  -13.7600   20.3330 N   0  0  0  0  0  0  0  0  0  0  0  0
  -31.7280  -15.0420   20.0860 O   0  0  0  0  0  0  0  0  0  0  0  0
  -30.8410  -17.9490   18.9790 C   0  0  0  0  0  3  0  0  0  0  0  0
  -31.0030  -19.2480   18.4570 C   0  0  0  0  0  0  0  0  0  0  0  0
  -29.9200  -17.6940   20.0140 C   0  0  0  0  0  0  0  0  0  0  0  0
  -29.4490  -20.1670   19.9130 C   0  0  0  0  0  0  0  0  0  0  0  0
  -31.9460  -19.5150   17.2970 C   0  0  0  0  0  1  0  0  0  0  0  0
  -30.3300  -20.3180   18.9310 N   0  0  0  0  0  0  0  0  0  0  0  0
  -29.2160  -18.8730   20.4290 N   0  0  0  0  0  0  0  0  0  0  0  0
  -29.7420  -16.2230   20.4460 N   0  0  0  0  0  0  0  0  0  0  0  0
  -28.8290  -16.0250   20.8110 H   0  0  0  0  0  0  0  0  0  0  0  0
  -25.1920  -13.9160   20.5330 C   0  0  0  0  0  0  0  0  0  0  0  0
  -24.1200  -13.1380   20.8830 C   0  0  0  0  0  0  0  0  0  0  0  0
  -24.5930  -11.7860   20.8610 C   0  0  0  0  0  0  0  0  0  0  0  0
  -26.2420  -13.0410   20.3050 N   0  0  0  0  0  0  0  0  0  0  0  0
  -25.8910  -11.7540   20.5700 N   0  0  0  0  0  0  0  0  0  0  0  0
  -23.8660  -10.5240   21.0490 C   0  0  0  0  0  0  0  0  0  0  0  0
  -24.2870   -9.5550   21.9850 C   0  0  0  0  0  3  0  0  0  0  0  0
  -23.5530   -8.3630   22.1600 C   0  0  0  0  0  3  0  0  0  0  0  0
  -22.3830   -8.1320   21.3970 C   0  0  0  0  0  0  0  0  0  0  0  0
  -21.9780   -9.0930   20.4540 C   0  0  0  0  0  3  0  0  0  0  0  0
  -22.7150  -10.2740   20.2770 C   0  0  0  0  0  3  0  0  0  0  0  0
  -21.6180   -6.9950   21.4860 O   0  0  0  0  0  0  0  0  0  0  0  0
  -21.5650   -6.2490   22.6370 C   0  0  0  0  0  0  0  0  0  0  0  0
  -21.1400   -6.8050   23.8650 C   0  0  0  0  0  3  0  0  0  0  0  0
  -21.0360   -5.9850   25.0070 C   0  0  0  0  0  3  0  0  0  0  0  0
  -21.3500   -4.6190   24.9230 C   0  0  0  0  0  0  0  0  0  0  0  0
  -21.7640   -4.0620   23.7010 C   0  0  0  0  0  3  0  0  0  0  0  0
  -21.8730   -4.8760   22.5580 C   0  0  0  0  0  0  0  0  0  0  0  0
  -22.2590   -4.3310   21.3780 F   0  0  0  0  0  0  0  0  0  0  0  0
  -21.2390   -3.8290   26.0180 F   0  0  0  0  0  0  0  0  0  0  0  0
  -22.7180  -13.6160   21.1300 C   0  0  0  0  0  0  0  0  0  0  0  0
  -21.9730  -12.9350   21.9960 N   0  0  0  0  0  0  0  0  0  0  0  0
  -22.2940  -14.6440   20.5970 O   0  0  0  0  0  0  0  0  0  0  0  0
  -22.3250  -12.1090   22.4590 H   0  0  0  0  0  0  0  0  0  0  0  0
  -21.0350  -13.2550   22.2060 H   0  0  0  0  0  0  0  0  0  0  0  0
  -25.3510  -15.2920   20.3780 N   0  0  0  0  0  0  0  0  0  0  0  0
  -24.5820  -15.9240   20.5750 H   0  0  0  0  0  0  0  0  0  0  0  0
  -26.2340  -15.7730   20.2710 H   0  0  0  0  0  0  0  0  0  0  0  0
  -27.7740  -22.2220   19.3160 C   0  0  0  0  0  2  0  0  0  0  0  0
  -28.6630  -21.5740   20.3420 C   0  0  0  0  0  3  0  0  0  0  0  0
  -28.7490  -23.2260   19.9270 C   0  0  0  0  0  3  0  0  0  0  0  0
  -28.0020  -24.6350   20.4960 C   0  0  0  0  0  2  0  0  0  0  0  0
  -28.2980  -26.1690   20.2810 O   0  0  0  0  0  0  0  0  0  0  0  0
  -24.6480  -31.9230   23.2590 C   0  0  0  0  0  0  0  0  0  0  0  0
  -27.2470  -27.1670   20.2680 C   0  0  0  0  0  0  0  0  0  0  0  0
  -23.4590  -30.5010   21.6320 C   0  0  0  0  0  3  0  0  0  0  0  0
  -24.9180  -28.9170   20.2330 C   0  0  0  0  0  0  0  0  0  0  0  0
  -26.0150  -30.7600   21.4880 C   0  0  0  0  0  2  0  0  0  0  0  0
  -26.0960  -29.3610   20.8530 C   0  0  0  0  0  0  0  0  0  0  0  0
  -27.2640  -28.5050   20.8550 C   0  0  0  0  0  3  0  0  0  0  0  0
  -26.0530  -26.8440   19.5950 C   0  0  0  0  0  3  0  0  0  0  0  0
  -24.9110  -27.6730   19.5840 C   0  0  0  0  0  3  0  0  0  0  0  0
  -23.6940  -29.8180   20.2610 C   0  0  0  0  0  2  0  0  0  0  0  0
  -24.7250  -31.0870   22.1790 N   0  0  0  0  0  0  0  0  0  0  0  0
  -23.5560  -32.2130   23.7750 O   0  0  0  0  0  0  0  0  0  0  0  0
  -22.7880  -29.4960   22.6040 C   0  0  0  0  0  0  0  0  0  0  0  0
  -21.4650  -29.2990   22.4600 N   0  0  0  0  0  0  0  0  0  0  0  0
  -23.4570  -28.9000   23.4510 O   0  0  0  0  0  0  0  0  0  0  0  0
  -20.9740  -29.8440   21.7660 H   0  0  0  0  0  0  0  0  0  0  0  0
  -18.1030  -28.0340   22.9210 C   0  0  0  0  0  0  0  0  0  0  0  0
  -20.6470  -28.3620   23.2410 C   0  0  0  0  0  3  0  0  0  0  0  0
  -20.7950  -26.9170   22.7090 C   0  0  0  0  0  2  0  0  0  0  0  0
  -19.7250  -26.5440   21.6770 C   0  0  0  0  0  2  0  0  0  0  0  0
  -18.3260  -26.6700   22.2870 C   0  0  0  0  0  2  0  0  0  0  0  0
  -19.1930  -28.8340   23.3530 C   0  0  0  0  0  0  0  0  0  0  0  0
  -18.9340  -30.1060   23.9050 C   0  0  0  0  0  3  0  0  0  0  0  0
  -17.6140  -30.5770   24.0410 C   0  0  0  0  0  3  0  0  0  0  0  0
  -16.5370  -29.7750   23.6270 C   0  0  0  0  0  3  0  0  0  0  0  0
  -16.7810  -28.5080   23.0690 C   0  0  0  0  0  3  0  0  0  0  0  0
  -25.9220  -32.5700   23.8830 C   0  0  0  0  0  3  0  0  0  0  0  0
  -25.6000  -33.9710   24.2010 N   0  0  0  0  0  0  0  0  0  0  0  0
  -25.9160  -35.0230   23.4350 C   0  0  0  0  0  0  0  0  0  0  0  0
  -26.5800  -34.9210   22.3990 O   0  0  0  0  0  0  0  0  0  0  0  0
  -25.0190  -34.1280   25.0110 H   0  0  0  0  0  0  0  0  0  0  0  0
  -24.1760  -36.8060   23.0790 C   0  0  0  0  0  1  0  0  0  0  0  0
  -25.4200  -36.4100   23.8880 C   0  0  0  0  0  3  0  0  0  0  0  0
  -27.5470  -37.3210   24.7110 C   0  0  0  0  0  1  0  0  0  0  0  0
  -26.4430  -37.4690   23.7670 N   0  0  0  0  0  0  0  0  0  0  0  0
  -26.0270  -38.3860   23.9110 H   0  0  0  0  0  0  0  0  0  0  0  0
  -26.4390  -31.8160   25.1710 C   0  0  1  0  0  0  0  0  0  0  0  0
  -25.3410  -31.5880   26.2350 C   0  0  0  0  0  1  0  0  0  0  0  0
  -27.0360  -30.4350   24.8080 C   0  0  0  0  0  1  0  0  0  0  0  0
  -27.5790  -32.6270   25.8320 C   0  0  0  0  0  1  0  0  0  0  0  0
  1 16  1  0
  2  7  1  0
  3  4  1  0
  3  2  1  0
  5  4  1  0
  5 21  1  0
  5  6  1  0
  7  1  1  0
  7  6  1  0
  8  1  2  0
  9 11  1  0
 10 14  1  0
 10  9  2  0
 11 15  2  0
 11 16  1  0
 12 15  1  0
 13 10  1  0
 14 12  2  0
 16 17  1  0
 18 19  2  0
 19 38  1  0
 20 19  1  0
 20 23  1  0
 21 18  1  0
 21 22  1  0
 22 20  2  0
 23 24  1  0
 24 25  2  0
 26 29  1  0
 26 25  1  0
 27 26  2  0
 28 27  1  0
 28 23  2  0
 29 30  1  0
 30 31  1  0
 31 32  2  0
 33 32  1  0
 33 37  1  0
 34 33  2  0
 35 30  2  0
 35 34  1  0
 36 35  1  0
 38 39  1  0
 39 42  1  0
 39 41  1  0
 40 38  2  0
 43 18  1  0
 43 44  1  0
 45 43  1  0
 46 48  1  0
 46 47  1  0
 47 12  1  0
 48 47  1  0
 48 49  1  0
 50 49  1  0
 51 62  2  0
 52 50  1  0
 52 57  1  0
 53 61  1  0
 53 63  1  0
 54 60  1  0
 54 56  1  0
 55 61  1  0
 56 57  2  0
 56 55  1  0
 58 52  2  0
 59 58  1  0
 59 54  2  0
 60 53  1  0
 61 51  1  0
 63 65  2  0
 64 63  1  0
 66 64  1  0
 67 76  2  0
 67 72  1  0
 68 64  1  0
 68 72  1  0
 69 68  1  0
 70 71  1  0
 70 69  1  0
 71 67  1  0
 72 73  2  0
 73 74  1  0
 75 74  2  0
 76 75  1  0
 77 51  1  0
 77 78  1  0
 77 87  1  0
 78 81  1  0
 79 83  1  0
 79 78  1  0
 80 79  2  0
 83 82  1  0
 85 83  1  0
 85 86  1  0
 85 84  1  0
 87 90  1  1
 87 88  1  0
 89 87  1  0
M  ISO  4   1 100  16 100  49 101  50 101
M  END
>  <TORSDO>  (93) 
F 17

>  <SCORE>  (93) 
-15.069

>  <name>  (93) 
92

>  <ligand_id>  (93) 
92

>  <original_smiles>  (93) 
[H]c1c(N([H])C(=O)N2C([H])([H])C([H])([H])C([H])([H])C([H])(n3nc(-c4c([H])c([H])c(Oc5c([H])c([H])c(F)c([H])c5F)c([H])c4[H])c(C(=O)N([H])[H])c3N([H])[H])C2([H])[H])nc(C2([H])C([H])([H])C2([H])C([H])([H])Oc2c([H])c([H])c3c(c2[H])C([H])([H])N(C(=O)C([H])(N([H])C(=O)C([H])(N([H])C([H])([H])[H])C([H])([H])[H])C(C([H])([H])[H])(C([H])([H])[H])C([H])([H])[H])C([H])(C(=O)N([H])C2([H])c4c([H])c([H])c([H])c([H])c4C([H])([H])C([H])([H])C2([H])[H])C3([H])[H])nc1C([H])([H])[H]

>  <smiles>  (93) 
[H]c1c(N([H])C(=O)N2C([H])([H])C([H])([H])C([H])([H])C([H])(n3nc(-c4c([H])c([H])c(Oc5c([H])c([H])c(F)c([H])c5F)c([H])c4[H])c(C(=O)N([H])[H])c3N([H])[H])C2([H])[H])nc(C2([H])C([H])([H])C2([H])C([H])([H])Oc2c([H])c([H])c3c(c2[H])C([H])([H])N(C(=O)C([H])(N([H])C(=O)C([H])(N([H])C([H])([H])[H])C([H])([H])[H])C(C([H])([H])[H])(C([H])([H])[H])C([H])([H])[H])C([H])(C(=O)N([H])C2([H])c4c([H])c([H])c([H])c([H])c4C([H])([H])C([H])([H])C2([H])[H])C3([H])[H])nc1C([H])([H])[H]

$$$$
93:0:0
     RDKit          3D

 91100  0  0  1  0  0  0  0  0999 V2000
  -29.9630  -20.6660   19.4320 C   0  0  0  0  0  3  0  0  0  0  0  0
  -29.7410  -21.9630   20.1310 C   0  0  0  0  0  0  0  0  0  0  0  0
  -30.3340  -19.3840   20.1200 C   0  0  0  0  0  0  0  0  0  0  0  0
  -29.9830  -21.8610   21.4950 C   0  0  0  0  0  0  0  0  0  0  0  0
  -30.4370  -19.5480   21.5270 C   0  0  0  0  0  0  0  0  0  0  0  0
  -30.1990  -23.2100   22.1250 C   0  0  0  0  0  2  0  0  0  0  0  0
  -30.5460  -24.1090   20.9180 C   0  0  0  0  0  2  0  0  0  0  0  0
  -29.7060  -23.5850   19.7270 C   0  0  0  0  0  3  0  0  0  0  0  0
  -30.8350  -18.4010   22.4350 C   0  0  0  0  0  1  0  0  0  0  0  0
  -30.2770  -20.7320   22.1750 N   0  0  0  0  0  0  0  0  0  0  0  0
  -30.7460  -17.9240   19.4120 C   0  0  0  0  0  2  0  0  0  0  0  0
  -31.1960  -15.2080   19.7550 C   0  0  0  0  0  0  0  0  0  0  0  0
  -30.9900  -12.8070   18.9600 C   0  0  0  0  0  2  0  0  0  0  0  0
  -30.0070  -12.7170   17.7680 C   0  0  0  0  0  2  0  0  0  0  0  0
  -28.5600  -12.5590   18.2690 C   0  0  0  0  0  2  0  0  0  0  0  0
  -28.2190  -13.5500   19.4130 C   0  0  0  0  0  3  0  0  0  0  0  0
  -29.3210  -13.6060   20.4940 C   0  0  0  0  0  2  0  0  0  0  0  0
  -30.5730  -13.9600   19.8130 N   0  0  0  0  0  0  0  0  0  0  0  0
  -32.3780  -15.2210   19.3960 O   0  0  0  0  0  0  0  0  0  0  0  0
  -30.4580  -16.4260   19.8790 N   0  0  0  0  0  0  0  0  0  0  0  0
  -29.5040  -16.2640   20.1630 H   0  0  0  0  0  0  0  0  0  0  0  0
  -25.9190  -14.2230   20.3070 C   0  0  0  0  0  0  0  0  0  0  0  0
  -24.8360  -13.4910   20.7100 C   0  0  0  0  0  0  0  0  0  0  0  0
  -25.2240  -12.1200   20.6070 C   0  0  0  0  0  0  0  0  0  0  0  0
  -26.8980  -13.3020   19.9770 N   0  0  0  0  0  0  0  0  0  0  0  0
  -26.4920  -12.0290   20.2230 N   0  0  0  0  0  0  0  0  0  0  0  0
  -24.4410  -10.8920   20.7930 C   0  0  0  0  0  0  0  0  0  0  0  0
  -24.8240   -9.9050   21.7280 C   0  0  0  0  0  3  0  0  0  0  0  0
  -24.0420   -8.7430   21.9040 C   0  0  0  0  0  3  0  0  0  0  0  0
  -22.8630   -8.5590   21.1440 C   0  0  0  0  0  0  0  0  0  0  0  0
  -22.4980   -9.5340   20.1980 C   0  0  0  0  0  3  0  0  0  0  0  0
  -23.2800  -10.6870   20.0200 C   0  0  0  0  0  3  0  0  0  0  0  0
  -22.0550   -7.4510   21.2290 O   0  0  0  0  0  0  0  0  0  0  0  0
  -21.8770   -6.7790   22.4120 C   0  0  0  0  0  0  0  0  0  0  0  0
  -21.3420   -7.4130   23.5560 C   0  0  0  0  0  3  0  0  0  0  0  0
  -21.1100   -6.6680   24.7290 C   0  0  0  0  0  3  0  0  0  0  0  0
  -21.4030   -5.2910   24.7600 C   0  0  0  0  0  0  0  0  0  0  0  0
  -21.9310   -4.6570   23.6210 C   0  0  0  0  0  3  0  0  0  0  0  0
  -22.1640   -5.4000   22.4490 C   0  0  0  0  0  0  0  0  0  0  0  0
  -22.6520   -4.7790   21.3470 F   0  0  0  0  0  0  0  0  0  0  0  0
  -21.1730   -4.5730   25.8840 F   0  0  0  0  0  0  0  0  0  0  0  0
  -23.4840  -14.0320   21.0730 C   0  0  0  0  0  0  0  0  0  0  0  0
  -22.7750  -13.3540   21.9690 N   0  0  0  0  0  0  0  0  0  0  0  0
  -23.0710  -15.0900   20.6010 O   0  0  0  0  0  0  0  0  0  0  0  0
  -23.1240  -12.4960   22.3700 H   0  0  0  0  0  0  0  0  0  0  0  0
  -21.8700  -13.6970   22.2580 H   0  0  0  0  0  0  0  0  0  0  0  0
  -26.1440  -15.5890   20.1650 N   0  0  0  0  0  0  0  0  0  0  0  0
  -25.4100  -16.2680   20.3310 H   0  0  0  0  0  0  0  0  0  0  0  0
  -26.9690  -15.9960   19.7450 H   0  0  0  0  0  0  0  0  0  0  0  0
  -28.4270  -24.7050   19.6900 C   0  0  0  0  0  2  0  0  0  0  0  0
  -28.5720  -26.2690   19.7570 O   0  0  0  0  0  0  0  0  0  0  0  0
  -24.6420  -31.6100   23.0160 C   0  0  0  0  0  0  0  0  0  0  0  0
  -27.4540  -27.1890   19.7430 C   0  0  0  0  0  0  0  0  0  0  0  0
  -23.5040  -30.2180   21.3300 C   0  0  0  0  0  3  0  0  0  0  0  0
  -25.0230  -28.7970   19.8150 C   0  0  0  0  0  0  0  0  0  0  0  0
  -26.0350  -30.6430   21.1450 C   0  0  0  0  0  2  0  0  0  0  0  0
  -26.1830  -29.2870   20.4280 C   0  0  0  0  0  0  0  0  0  0  0  0
  -27.3970  -28.5010   20.3730 C   0  0  0  0  0  3  0  0  0  0  0  0
  -26.2600  -26.8020   19.0950 C   0  0  0  0  0  3  0  0  0  0  0  0
  -25.0740  -27.5720   19.1330 C   0  0  0  0  0  3  0  0  0  0  0  0
  -23.7440  -29.6160   19.9200 C   0  0  0  0  0  2  0  0  0  0  0  0
  -24.7470  -30.8440   21.8860 N   0  0  0  0  0  0  0  0  0  0  0  0
  -23.5480  -31.8040   23.5710 O   0  0  0  0  0  0  0  0  0  0  0  0
  -22.9020  -29.1300   22.2550 C   0  0  0  0  0  0  0  0  0  0  0  0
  -21.5910  -28.8640   22.1150 N   0  0  0  0  0  0  0  0  0  0  0  0
  -23.6160  -28.5300   23.0610 O   0  0  0  0  0  0  0  0  0  0  0  0
  -21.0650  -29.4040   21.4420 H   0  0  0  0  0  0  0  0  0  0  0  0
  -18.3180  -27.3680   22.5320 C   0  0  0  0  0  0  0  0  0  0  0  0
  -20.8400  -27.8410   22.8500 C   0  0  0  0  0  3  0  0  0  0  0  0
  -21.0720  -26.4360   22.2430 C   0  0  0  0  0  2  0  0  0  0  0  0
  -20.0180  -26.0490   21.2010 C   0  0  0  0  0  2  0  0  0  0  0  0
  -18.6190  -26.0580   21.8230 C   0  0  0  0  0  2  0  0  0  0  0  0
  -19.3590  -28.2120   23.0000 C   0  0  0  0  0  0  0  0  0  0  0  0
  -19.0230  -29.4340   23.6220 C   0  0  0  0  0  3  0  0  0  0  0  0
  -17.6770  -29.8140   23.7820 C   0  0  0  0  0  3  0  0  0  0  0  0
  -16.6500  -28.9680   23.3300 C   0  0  0  0  0  3  0  0  0  0  0  0
  -16.9700  -27.7470   22.7120 C   0  0  0  0  0  3  0  0  0  0  0  0
  -25.8880  -32.2940   23.6570 C   0  0  0  0  0  3  0  0  0  0  0  0
  -25.5070  -33.6690   24.0210 N   0  0  0  0  0  0  0  0  0  0  0  0
  -25.7960  -34.7610   23.3020 C   0  0  0  0  0  0  0  0  0  0  0  0
  -26.4780  -34.7190   22.2740 O   0  0  0  0  0  0  0  0  0  0  0  0
  -24.9000  -33.7700   24.8220 H   0  0  0  0  0  0  0  0  0  0  0  0
  -23.9890  -36.4830   22.9950 C   0  0  0  0  0  1  0  0  0  0  0  0
  -25.2450  -36.1110   23.7980 C   0  0  0  0  0  3  0  0  0  0  0  0
  -27.3280  -37.0770   24.6720 C   0  0  0  0  0  1  0  0  0  0  0  0
  -26.2280  -37.2140   23.7210 N   0  0  0  0  0  0  0  0  0  0  0  0
  -25.7790  -38.1110   23.8840 H   0  0  0  0  0  0  0  0  0  0  0  0
  -26.4350  -31.5240   24.9210 C   0  0  1  0  0  0  0  0  0  0  0  0
  -25.3530  -31.2250   25.9850 C   0  0  0  0  0  1  0  0  0  0  0  0
  -27.0740  -30.1770   24.5110 C   0  0  0  0  0  1  0  0  0  0  0  0
  -27.5540  -32.3530   25.5960 C   0  0  0  0  0  1  0  0  0  0  0  0
  1  3  2  0
  1  2  1  0
  2  4  2  0
  3  5  1  0
  4  6  1  0
  4 10  1  0
  5 10  2  0
  5  9  1  0
  7  6  1  0
  8 50  1  0
  8  2  1  0
  8  7  1  0
 11 20  1  0
 11  3  1  0
 12 18  1  0
 12 20  1  0
 13 18  1  0
 14 15  1  0
 14 13  1  0
 16 15  1  0
 16 25  1  0
 16 17  1  0
 18 17  1  0
 19 12  2  0
 20 21  1  0
 22 23  2  0
 23 42  1  0
 24 23  1  0
 24 27  1  0
 25 26  1  0
 25 22  1  0
 26 24  2  0
 27 28  1  0
 28 29  2  0
 30 33  1  0
 30 29  1  0
 31 30  2  0
 32 31  1  0
 32 27  2  0
 33 34  1  0
 34 39  2  0
 34 35  1  0
 35 36  2  0
 36 37  1  0
 37 41  1  0
 38 37  2  0
 39 38  1  0
 40 39  1  0
 42 43  1  0
 43 46  1  0
 43 45  1  0
 44 42  2  0
 47 22  1  0
 47 48  1  0
 49 47  1  0
 50 51  1  0
 52 63  2  0
 53 51  1  0
 53 58  1  0
 54 62  1  0
 54 64  1  0
 55 61  1  0
 55 57  1  0
 56 62  1  0
 57 56  1  0
 58 57  2  0
 59 60  1  0
 59 53  2  0
 60 55  2  0
 61 54  1  0
 62 52  1  0
 64 66  2  0
 65 64  1  0
 67 65  1  0
 68 77  2  0
 68 73  1  0
 69 65  1  0
 69 73  1  0
 70 69  1  0
 71 72  1  0
 71 70  1  0
 72 68  1  0
 73 74  2  0
 74 75  1  0
 76 75  2  0
 77 76  1  0
 78 52  1  0
 78 79  1  0
 78 88  1  0
 79 82  1  0
 80 84  1  0
 80 79  1  0
 81 80  2  0
 84 83  1  0
 86 84  1  0
 86 87  1  0
 86 85  1  0
 88 91  1  1
 88 89  1  0
 90 88  1  0
M  ISO  4  12 100  20 100  50 101  51 101
M  END
>  <TORSDO>  (94) 
F 18

>  <SCORE>  (94) 
-13.790

>  <name>  (94) 
93

>  <ligand_id>  (94) 
93

>  <original_smiles>  (94) 
[H]c1c([H])c([H])c2c(c1[H])C([H])([H])C([H])([H])C([H])([H])C2([H])N([H])C(=O)C1([H])N(C(=O)C([H])(N([H])C(=O)C([H])(N([H])C([H])([H])[H])C([H])([H])[H])C(C([H])([H])[H])(C([H])([H])[H])C([H])([H])[H])C([H])([H])c2c([H])c(OC([H])([H])C3([H])c4c(nc(C([H])([H])[H])c(C([H])([H])N([H])C(=O)N5C([H])([H])C([H])([H])C([H])([H])C([H])(n6nc(-c7c([H])c([H])c(Oc8c([H])c([H])c(F)c([H])c8F)c([H])c7[H])c(C(=O)N([H])[H])c6N([H])[H])C5([H])[H])c4[H])C([H])([H])C3([H])[H])c([H])c([H])c2C1([H])[H]

>  <smiles>  (94) 
[H]c1c([H])c([H])c2c(c1[H])C([H])([H])C([H])([H])C([H])([H])C2([H])N([H])C(=O)C1([H])N(C(=O)C([H])(N([H])C(=O)C([H])(N([H])C([H])([H])[H])C([H])([H])[H])C(C([H])([H])[H])(C([H])([H])[H])C([H])([H])[H])C([H])([H])c2c([H])c(OC([H])([H])C3([H])c4c(nc(C([H])([H])[H])c(C([H])([H])N([H])C(=O)N5C([H])([H])C([H])([H])C([H])([H])C([H])(n6nc(-c7c([H])c([H])c(Oc8c([H])c([H])c(F)c([H])c8F)c([H])c7[H])c(C(=O)N([H])[H])c6N([H])[H])C5([H])[H])c4[H])C([H])([H])C3([H])[H])c([H])c([H])c2C1([H])[H]

$$$$
94:0:0
     RDKit          3D

 93103  0  0  1  0  0  0  0  0999 V2000
  -29.2420  -17.8070   18.7660 C   0  0  0  0  0  3  0  0  0  0  0  0
  -28.9000  -20.4730   19.7880 C   0  0  0  0  0  0  0  0  0  0  0  0
  -29.5820  -17.9750   20.1200 C   0  0  0  0  0  0  0  0  0  0  0  0
  -28.4080  -19.9950   18.5270 C   0  0  0  0  0  0  0  0  0  0  0  0
  -28.6460  -18.7560   18.0190 N   0  0  0  0  0  0  0  0  0  0  0  0
  -29.4320  -19.3670   20.5960 N   0  0  0  0  0  0  0  0  0  0  0  0
  -30.5210  -15.3380   20.4430 C   0  0  0  0  0  0  0  0  0  0  0  0
  -30.4810  -12.9120   19.5950 C   0  0  0  0  0  2  0  0  0  0  0  0
  -29.5940  -12.7930   18.3310 C   0  0  0  0  0  2  0  0  0  0  0  0
  -28.1350  -12.5260   18.7350 C   0  0  0  0  0  2  0  0  0  0  0  0
  -27.6680  -13.4720   19.8690 C   0  0  0  0  0  3  0  0  0  0  0  0
  -28.6880  -13.5770   21.0260 C   0  0  0  0  0  2  0  0  0  0  0  0
  -29.9600  -14.0400   20.4480 N   0  0  0  0  0  0  0  0  0  0  0  0
  -31.7010  -15.3740   20.0720 O   0  0  0  0  0  0  0  0  0  0  0  0
  -29.8130  -16.5650   20.7910 N   0  0  0  0  0  0  0  0  0  0  0  0
  -29.0660  -16.3550   21.4380 H   0  0  0  0  0  0  0  0  0  0  0  0
  -25.2700  -14.0170   20.5540 C   0  0  0  0  0  0  0  0  0  0  0  0
  -24.2100  -13.2320   20.9160 C   0  0  0  0  0  0  0  0  0  0  0  0
  -24.6910  -11.8860   20.8930 C   0  0  0  0  0  0  0  0  0  0  0  0
  -26.3280  -13.1520   20.3420 N   0  0  0  0  0  0  0  0  0  0  0  0
  -25.9890  -11.8640   20.6100 N   0  0  0  0  0  0  0  0  0  0  0  0
  -23.9710  -10.6170   21.0670 C   0  0  0  0  0  0  0  0  0  0  0  0
  -24.3800   -9.6600   22.0210 C   0  0  0  0  0  3  0  0  0  0  0  0
  -23.6580   -8.4580   22.1860 C   0  0  0  0  0  3  0  0  0  0  0  0
  -22.5130   -8.2050   21.3940 C   0  0  0  0  0  0  0  0  0  0  0  0
  -22.1230   -9.1510   20.4270 C   0  0  0  0  0  3  0  0  0  0  0  0
  -22.8480  -10.3430   20.2620 C   0  0  0  0  0  3  0  0  0  0  0  0
  -21.7650   -7.0540   21.4650 O   0  0  0  0  0  0  0  0  0  0  0  0
  -21.6670   -6.3270   22.6240 C   0  0  0  0  0  0  0  0  0  0  0  0
  -21.1290   -6.8830   23.8060 C   0  0  0  0  0  3  0  0  0  0  0  0
  -20.9810   -6.0830   24.9570 C   0  0  0  0  0  3  0  0  0  0  0  0
  -21.3600   -4.7280   24.9240 C   0  0  0  0  0  0  0  0  0  0  0  0
  -21.8880   -4.1710   23.7460 C   0  0  0  0  0  3  0  0  0  0  0  0
  -22.0370   -4.9680   22.5980 C   0  0  0  0  0  0  0  0  0  0  0  0
  -22.5290   -4.4210   21.4590 F   0  0  0  0  0  0  0  0  0  0  0  0
  -21.2110   -3.9560   26.0260 F   0  0  0  0  0  0  0  0  0  0  0  0
  -22.8060  -13.6970   21.1620 C   0  0  0  0  0  0  0  0  0  0  0  0
  -22.0640  -12.9900   22.0080 N   0  0  0  0  0  0  0  0  0  0  0  0
  -22.3730  -14.7240   20.6420 O   0  0  0  0  0  0  0  0  0  0  0  0
  -22.4300  -12.1630   22.4560 H   0  0  0  0  0  0  0  0  0  0  0  0
  -21.1220  -13.2890   22.2170 H   0  0  0  0  0  0  0  0  0  0  0  0
  -25.4140  -15.3860   20.3530 N   0  0  0  0  0  0  0  0  0  0  0  0
  -24.5810  -15.9600   20.2870 H   0  0  0  0  0  0  0  0  0  0  0  0
  -26.2030  -15.7860   19.8640 H   0  0  0  0  0  0  0  0  0  0  0  0
  -27.6560  -23.2570   20.7050 C   0  0  0  0  0  2  0  0  0  0  0  0
  -29.5490  -23.5770   20.0290 C   0  0  0  0  0  2  0  0  0  0  0  0
  -28.6930  -22.1990   20.0230 C   0  0  0  0  0  3  0  0  0  0  0  0
  -28.2660  -24.5970   19.9840 C   0  0  0  0  0  3  0  0  0  0  0  0
  -28.2920  -26.1660   20.3970 O   0  0  0  0  0  0  0  0  0  0  0  0
  -24.6640  -31.9910   23.3550 C   0  0  0  0  0  0  0  0  0  0  0  0
  -27.2480  -27.2010   20.2950 C   0  0  0  0  0  0  0  0  0  0  0  0
  -23.4760  -30.6110   21.6930 C   0  0  0  0  0  3  0  0  0  0  0  0
  -24.9310  -29.0270   20.2590 C   0  0  0  0  0  0  0  0  0  0  0  0
  -26.0360  -30.8430   21.5540 C   0  0  0  0  0  2  0  0  0  0  0  0
  -26.1100  -29.4440   20.8880 C   0  0  0  0  0  0  0  0  0  0  0  0
  -27.2600  -28.5490   20.8860 C   0  0  0  0  0  3  0  0  0  0  0  0
  -26.0430  -26.9140   19.6190 C   0  0  0  0  0  3  0  0  0  0  0  0
  -24.9180  -27.7810   19.6050 C   0  0  0  0  0  3  0  0  0  0  0  0
  -23.7080  -29.9380   20.3100 C   0  0  0  0  0  2  0  0  0  0  0  0
  -24.7450  -31.1740   22.2560 N   0  0  0  0  0  0  0  0  0  0  0  0
  -23.5730  -32.2760   23.8770 O   0  0  0  0  0  0  0  0  0  0  0  0
  -22.7800  -29.6060   22.6450 C   0  0  0  0  0  0  0  0  0  0  0  0
  -21.4580  -29.4130   22.4870 N   0  0  0  0  0  0  0  0  0  0  0  0
  -23.4380  -29.0000   23.4960 O   0  0  0  0  0  0  0  0  0  0  0  0
  -20.9810  -29.9560   21.7810 H   0  0  0  0  0  0  0  0  0  0  0  0
  -18.0900  -28.1320   22.9110 C   0  0  0  0  0  0  0  0  0  0  0  0
  -20.6360  -28.4630   23.2430 C   0  0  0  0  0  3  0  0  0  0  0  0
  -20.7870  -27.0280   22.6840 C   0  0  0  0  0  2  0  0  0  0  0  0
  -19.7220  -26.6710   21.6420 C   0  0  0  0  0  2  0  0  0  0  0  0
  -18.3190  -26.7850   22.2460 C   0  0  0  0  0  2  0  0  0  0  0  0
  -19.1780  -28.9260   23.3650 C   0  0  0  0  0  0  0  0  0  0  0  0
  -18.9100  -30.1820   23.9490 C   0  0  0  0  0  3  0  0  0  0  0  0
  -17.5880  -30.6490   24.0820 C   0  0  0  0  0  3  0  0  0  0  0  0
  -16.5160  -29.8540   23.6410 C   0  0  0  0  0  3  0  0  0  0  0  0
  -16.7680  -28.5970   23.0630 C   0  0  0  0  0  3  0  0  0  0  0  0
  -25.9350  -32.6240   23.9980 C   0  0  0  0  0  3  0  0  0  0  0  0
  -26.4400  -31.8410   25.2730 C   0  0  1  0  0  0  0  0  0  0  0  0
  -25.3290  -31.5600   26.3140 C   0  0  0  0  0  1  0  0  0  0  0  0
  -27.0620  -30.4810   24.8770 C   0  0  0  0  0  1  0  0  0  0  0  0
  -27.5620  -32.6460   25.9700 C   0  0  0  0  0  1  0  0  0  0  0  0
  -25.6200  -34.0180   24.3520 N   0  0  0  0  0  0  0  0  0  0  0  0
  -25.9030  -35.0860   23.5930 C   0  0  0  0  0  0  0  0  0  0  0  0
  -26.5230  -35.0000   22.5310 O   0  0  0  0  0  0  0  0  0  0  0  0
  -25.0690  -34.1580   25.1870 H   0  0  0  0  0  0  0  0  0  0  0  0
  -24.1190  -36.8510   23.3720 C   0  0  0  0  0  1  0  0  0  0  0  0
  -25.4230  -36.4660   24.0880 C   0  0  0  0  0  3  0  0  0  0  0  0
  -27.5870  -37.4070   24.7730 C   0  0  0  0  0  1  0  0  0  0  0  0
  -26.4230  -37.5400   23.9010 N   0  0  0  0  0  0  0  0  0  0  0  0
  -26.0070  -38.4530   24.0660 H   0  0  0  0  0  0  0  0  0  0  0  0
  -27.5550  -20.7710   17.7650 O   0  0  0  0  0  0  0  0  0  0  0  0
  -25.2900  -20.0570   18.5110 C   0  0  0  0  0  2  0  0  0  0  0  0
  -25.1750  -21.2200   17.5540 C   0  0  0  0  0  2  0  0  0  0  0  0
  -26.2960  -20.2160   17.3880 C   0  0  0  0  0  3  0  0  0  0  0  0
  1  3  2  0
  2  6  2  0
  3  6  1  0
  3 15  1  0
  4  2  1  0
  5  4  2  0
  5  1  1  0
  7 13  1  0
  7 15  1  0
  8 13  1  0
  9 10  1  0
  9  8  1  0
 11 10  1  0
 11 20  1  0
 11 12  1  0
 13 12  1  0
 14  7  2  0
 15 16  1  0
 17 18  2  0
 18 37  1  0
 19 18  1  0
 19 22  1  0
 20 17  1  0
 20 21  1  0
 21 19  2  0
 22 23  1  0
 23 24  2  0
 25 28  1  0
 25 24  1  0
 26 25  2  0
 27 26  1  0
 27 22  2  0
 28 29  1  0
 29 30  1  0
 30 31  2  0
 32 31  1  0
 32 36  1  0
 33 32  2  0
 34 29  2  0
 34 33  1  0
 35 34  1  0
 37 38  1  0
 38 41  1  0
 38 40  1  0
 39 37  2  0
 42 17  1  0
 43 42  1  0
 44 42  1  0
 47  2  1  0
 47 46  1  0
 47 45  1  0
 48 46  1  0
 48 49  1  0
 48 45  1  0
 50 61  2  0
 51 49  1  0
 51 56  1  0
 52 60  1  0
 52 62  1  0
 53 59  1  0
 53 55  1  0
 54 60  1  0
 55 54  1  0
 56 55  2  0
 57 51  2  0
 58 57  1  0
 58 53  2  0
 59 52  1  0
 60 50  1  0
 62 64  2  0
 63 62  1  0
 65 63  1  0
 66 75  2  0
 66 71  1  0
 67 63  1  0
 67 71  1  0
 68 67  1  0
 69 70  1  0
 69 68  1  0
 70 66  1  0
 71 72  2  0
 72 73  1  0
 74 73  2  0
 75 74  1  0
 76 50  1  0
 76 81  1  0
 76 77  1  0
 77 80  1  1
 77 78  1  0
 79 77  1  0
 81 84  1  0
 82 86  1  0
 82 81  1  0
 83 82  2  0
 86 85  1  0
 88 89  1  0
 88 86  1  0
 88 87  1  0
 90  4  1  0
 92 91  1  0
 93 92  1  0
 93 90  1  0
 93 91  1  0
M  ISO  4   7 100  15 100  48 101  49 101
M  END
>  <TORSDO>  (95) 
F 19

>  <SCORE>  (95) 
-14.550

>  <name>  (95) 
94

>  <ligand_id>  (95) 
94

>  <original_smiles>  (95) 
[H]c1nc(OC2([H])C([H])([H])C2([H])[H])c(C2([H])C([H])([H])C([H])(Oc3c([H])c([H])c4c(c3[H])C([H])([H])N(C(=O)C([H])(N([H])C(=O)C([H])(N([H])C([H])([H])[H])C([H])([H])[H])C(C([H])([H])[H])(C([H])([H])[H])C([H])([H])[H])C([H])(C(=O)N([H])C3([H])c5c([H])c([H])c([H])c([H])c5C([H])([H])C([H])([H])C3([H])[H])C4([H])[H])C2([H])[H])nc1N([H])C(=O)N1C([H])([H])C([H])([H])C([H])([H])C([H])(n2nc(-c3c([H])c([H])c(Oc4c([H])c([H])c(F)c([H])c4F)c([H])c3[H])c(C(=O)N([H])[H])c2N([H])[H])C1([H])[H]

>  <smiles>  (95) 
[H]c1nc(OC2([H])C([H])([H])C2([H])[H])c(C2([H])C([H])([H])C([H])(Oc3c([H])c([H])c4c(c3[H])C([H])([H])N(C(=O)C([H])(N([H])C(=O)C([H])(N([H])C([H])([H])[H])C([H])([H])[H])C(C([H])([H])[H])(C([H])([H])[H])C([H])([H])[H])C([H])(C(=O)N([H])C3([H])c5c([H])c([H])c([H])c([H])c5C([H])([H])C([H])([H])C3([H])[H])C4([H])[H])C2([H])[H])nc1N([H])C(=O)N1C([H])([H])C([H])([H])C([H])([H])C([H])(n2nc(-c3c([H])c([H])c(Oc4c([H])c([H])c(F)c([H])c4F)c([H])c3[H])c(C(=O)N([H])[H])c2N([H])[H])C1([H])[H]

$$$$
95:0:0
     RDKit          3D

 96105  0  0  1  0  0  0  0  0999 V2000
  -30.1860  -22.5680   21.0530 C   0  0  0  0  0  0  0  0  0  0  0  0
  -28.7730  -23.9880   19.8520 C   0  0  0  0  0  0  0  0  0  0  0  0
  -29.5540  -21.4000   20.5320 C   0  0  0  0  0  0  0  0  0  0  0  0
  -28.1150  -22.8150   19.3410 C   0  0  0  0  0  0  0  0  0  0  0  0
  -31.3660  -22.4670   22.0020 C   0  0  0  0  0  1  0  0  0  0  0  0
  -26.3350  -21.7110   17.9870 C   0  0  0  0  0  1  0  0  0  0  0  0
  -29.8050  -23.8360   20.7230 N   0  0  0  0  0  0  0  0  0  0  0  0
  -28.5040  -21.5460   19.6870 N   0  0  0  0  0  0  0  0  0  0  0  0
  -27.0540  -22.9040   18.4240 N   0  0  0  0  0  0  0  0  0  0  0  0
  -26.6920  -23.8130   18.1510 H   0  0  0  0  0  0  0  0  0  0  0  0
  -30.0250  -20.1040   20.8940 N   0  0  0  0  0  0  0  0  0  0  0  0
  -30.8580  -20.0990   21.4710 H   0  0  0  0  0  0  0  0  0  0  0  0
  -30.6570  -14.6010   20.0330 C   0  0  0  0  0  0  0  0  0  0  0  0
  -30.3270  -12.4070   18.9320 C   0  0  0  0  0  2  0  0  0  0  0  0
  -29.3230  -12.5860   17.7730 C   0  0  0  0  0  2  0  0  0  0  0  0
  -27.8750  -12.4320   18.2790 C   0  0  0  0  0  2  0  0  0  0  0  0
  -27.5940  -13.2620   19.5620 C   0  0  0  0  0  3  0  0  0  0  0  0
  -28.7130  -13.0730   20.6100 C   0  0  0  0  0  2  0  0  0  0  0  0
  -29.9850  -13.4100   19.9600 N   0  0  0  0  0  0  0  0  0  0  0  0
  -31.8090  -14.7030   19.5980 O   0  0  0  0  0  0  0  0  0  0  0  0
  -29.6690  -17.7510   21.6780 C   0  0  0  0  0  2  0  0  0  0  0  0
  -30.2510  -18.1500   19.3190 C   0  0  0  0  0  2  0  0  0  0  0  0
  -29.2750  -16.2720   21.3490 C   0  0  0  0  0  2  0  0  0  0  0  0
  -29.7980  -16.6960   18.9870 C   0  0  0  0  0  2  0  0  0  0  0  0
  -29.4980  -18.7680   20.5160 C   0  0  0  0  0  3  0  0  0  0  0  0
  -29.8830  -15.7350   20.1140 N   0  0  0  0  0  0  0  0  0  0  0  0
  -25.2470  -13.8460   20.4280 C   0  0  0  0  0  0  0  0  0  0  0  0
  -24.2000  -13.0650   20.8370 C   0  0  0  0  0  0  0  0  0  0  0  0
  -24.6550  -11.7150   20.7450 C   0  0  0  0  0  0  0  0  0  0  0  0
  -26.2740  -12.9700   20.1130 N   0  0  0  0  0  0  0  0  0  0  0  0
  -25.9260  -11.6820   20.3630 N   0  0  0  0  0  0  0  0  0  0  0  0
  -23.9370  -10.4490   20.9420 C   0  0  0  0  0  0  0  0  0  0  0  0
  -24.3820   -9.4830   21.8710 C   0  0  0  0  0  3  0  0  0  0  0  0
  -23.6630   -8.2820   22.0550 C   0  0  0  0  0  3  0  0  0  0  0  0
  -22.4850   -8.0380   21.3110 C   0  0  0  0  0  0  0  0  0  0  0  0
  -22.0590   -8.9930   20.3720 C   0  0  0  0  0  3  0  0  0  0  0  0
  -22.7780  -10.1850   20.1850 C   0  0  0  0  0  3  0  0  0  0  0  0
  -21.7370   -6.8900   21.4060 O   0  0  0  0  0  0  0  0  0  0  0  0
  -21.6510   -6.1810   22.5770 C   0  0  0  0  0  0  0  0  0  0  0  0
  -21.1710   -6.7640   23.7690 C   0  0  0  0  0  3  0  0  0  0  0  0
  -21.0350   -5.9810   24.9330 C   0  0  0  0  0  3  0  0  0  0  0  0
  -21.3690   -4.6140   24.9030 C   0  0  0  0  0  0  0  0  0  0  0  0
  -21.8420   -4.0290   23.7160 C   0  0  0  0  0  3  0  0  0  0  0  0
  -21.9800   -4.8100   22.5550 C   0  0  0  0  0  0  0  0  0  0  0  0
  -22.4170   -4.2370   21.4080 F   0  0  0  0  0  0  0  0  0  0  0  0
  -21.2320   -3.8590   26.0180 F   0  0  0  0  0  0  0  0  0  0  0  0
  -22.8230  -13.5380   21.2000 C   0  0  0  0  0  0  0  0  0  0  0  0
  -22.1400  -12.8180   22.0830 N   0  0  0  0  0  0  0  0  0  0  0  0
  -22.3620  -14.5810   20.7370 O   0  0  0  0  0  0  0  0  0  0  0  0
  -22.5270  -11.9770   22.4820 H   0  0  0  0  0  0  0  0  0  0  0  0
  -21.2190  -13.1170   22.3680 H   0  0  0  0  0  0  0  0  0  0  0  0
  -25.4060  -15.2200   20.2760 N   0  0  0  0  0  0  0  0  0  0  0  0
  -24.6460  -15.8720   20.4370 H   0  0  0  0  0  0  0  0  0  0  0  0
  -26.2380  -15.6630   19.9090 H   0  0  0  0  0  0  0  0  0  0  0  0
  -28.5410  -25.4340   19.2890 C   0  0  0  0  0  2  0  0  0  0  0  0
  -28.3570  -26.5630   20.2100 O   0  0  0  0  0  0  0  0  0  0  0  0
  -24.5780  -31.8760   23.2510 C   0  0  0  0  0  0  0  0  0  0  0  0
  -27.2000  -27.3500   20.1720 C   0  0  0  0  0  0  0  0  0  0  0  0
  -23.3740  -30.4790   21.6100 C   0  0  0  0  0  3  0  0  0  0  0  0
  -24.8230  -28.9330   20.1860 C   0  0  0  0  0  0  0  0  0  0  0  0
  -25.9120  -30.8050   21.4250 C   0  0  0  0  0  2  0  0  0  0  0  0
  -25.9900  -29.4290   20.7770 C   0  0  0  0  0  0  0  0  0  0  0  0
  -27.1790  -28.6470   20.7660 C   0  0  0  0  0  3  0  0  0  0  0  0
  -25.9950  -26.8820   19.5990 C   0  0  0  0  0  3  0  0  0  0  0  0
  -24.8240  -27.6610   19.5950 C   0  0  0  0  0  3  0  0  0  0  0  0
  -23.5860  -29.8040   20.2300 C   0  0  0  0  0  2  0  0  0  0  0  0
  -24.6400  -31.0700   22.1520 N   0  0  0  0  0  0  0  0  0  0  0  0
  -23.4960  -32.1520   23.7870 O   0  0  0  0  0  0  0  0  0  0  0  0
  -22.7140  -29.4590   22.5680 C   0  0  0  0  0  0  0  0  0  0  0  0
  -21.3880  -29.2860   22.4460 N   0  0  0  0  0  0  0  0  0  0  0  0
  -23.3950  -28.8270   23.3810 O   0  0  0  0  0  0  0  0  0  0  0  0
  -20.9000  -29.8480   21.7620 H   0  0  0  0  0  0  0  0  0  0  0  0
  -18.0060  -28.1120   22.9550 C   0  0  0  0  0  0  0  0  0  0  0  0
  -20.5670  -28.3510   23.2150 C   0  0  0  0  0  3  0  0  0  0  0  0
  -20.6550  -26.9210   22.6330 C   0  0  0  0  0  2  0  0  0  0  0  0
  -19.5470  -26.6110   21.6230 C   0  0  0  0  0  2  0  0  0  0  0  0
  -18.1680  -26.7640   22.2730 C   0  0  0  0  0  2  0  0  0  0  0  0
  -19.1320  -28.8640   23.3830 C   0  0  0  0  0  0  0  0  0  0  0  0
  -18.9250  -30.1260   23.9810 C   0  0  0  0  0  3  0  0  0  0  0  0
  -17.6260  -30.6370   24.1540 C   0  0  0  0  0  3  0  0  0  0  0  0
  -16.5140  -29.8810   23.7430 C   0  0  0  0  0  3  0  0  0  0  0  0
  -16.7050  -28.6210   23.1500 C   0  0  0  0  0  3  0  0  0  0  0  0
  -25.8630  -32.5080   23.8730 C   0  0  0  0  0  3  0  0  0  0  0  0
  -25.5540  -33.9060   24.2010 N   0  0  0  0  0  0  0  0  0  0  0  0
  -25.8840  -34.9580   23.4390 C   0  0  0  0  0  0  0  0  0  0  0  0
  -26.5510  -34.8520   22.4060 O   0  0  0  0  0  0  0  0  0  0  0  0
  -24.9620  -34.0620   25.0030 H   0  0  0  0  0  0  0  0  0  0  0  0
  -24.1530  -36.7490   23.0870 C   0  0  0  0  0  1  0  0  0  0  0  0
  -25.3970  -36.3470   23.8950 C   0  0  0  0  0  3  0  0  0  0  0  0
  -27.5330  -37.2350   24.7190 C   0  0  0  0  0  1  0  0  0  0  0  0
  -26.4290  -37.4010   23.7780 N   0  0  0  0  0  0  0  0  0  0  0  0
  -26.0220  -38.3210   23.9230 H   0  0  0  0  0  0  0  0  0  0  0  0
  -26.3770  -31.7380   25.1510 C   0  0  1  0  0  0  0  0  0  0  0  0
  -25.2830  -31.5000   26.2180 C   0  0  0  0  0  1  0  0  0  0  0  0
  -26.9610  -30.3590   24.7630 C   0  0  0  0  0  1  0  0  0  0  0  0
  -27.5260  -32.5320   25.8150 C   0  0  0  0  0  1  0  0  0  0  0  0
  1  5  1  0
  2  7  2  0
  3 11  1  0
  3  1  2  0
  4  8  2  0
  4  2  1  0
  6  9  1  0
  7  1  1  0
  8  3  1  0
  9  4  1  0
 10  9  1  0
 11 12  1  0
 13 26  1  0
 14 19  1  0
 15 16  1  0
 15 14  1  0
 17 16  1  0
 17 30  1  0
 17 18  1  0
 19 13  1  0
 19 18  1  0
 20 13  2  0
 22 25  1  0
 23 21  1  0
 24 22  1  0
 24 26  1  0
 25 11  1  0
 25 21  1  0
 26 23  1  0
 27 28  2  0
 28 47  1  0
 29 28  1  0
 29 32  1  0
 30 31  1  0
 30 27  1  0
 31 29  2  0
 32 33  1  0
 33 34  2  0
 35 38  1  0
 35 34  1  0
 36 35  2  0
 37 36  1  0
 37 32  2  0
 38 39  1  0
 39 40  1  0
 40 41  2  0
 42 41  1  0
 42 46  1  0
 43 42  2  0
 44 39  2  0
 44 43  1  0
 45 44  1  0
 47 48  1  0
 48 51  1  0
 48 50  1  0
 49 47  2  0
 52 27  1  0
 52 53  1  0
 54 52  1  0
 55  2  1  0
 55 56  1  0
 57 68  2  0
 58 56  1  0
 58 63  1  0
 59 67  1  0
 59 69  1  0
 60 66  1  0
 60 62  1  0
 61 67  1  0
 62 61  1  0
 63 62  2  0
 64 58  2  0
 65 64  1  0
 65 60  2  0
 66 59  1  0
 67 57  1  0
 69 71  2  0
 70 69  1  0
 72 70  1  0
 73 82  2  0
 73 78  1  0
 74 70  1  0
 74 78  1  0
 75 74  1  0
 76 77  1  0
 76 75  1  0
 77 73  1  0
 78 79  2  0
 79 80  1  0
 81 80  2  0
 82 81  1  0
 83 57  1  0
 83 84  1  0
 83 93  1  0
 84 87  1  0
 85 89  1  0
 85 84  1  0
 86 85  2  0
 89 88  1  0
 91 89  1  0
 91 92  1  0
 91 90  1  0
 93 96  1  1
 93 94  1  0
 95 93  1  0
M  ISO  4  13 100  26 100  55 101  56 101
M  END
>  <TORSDO>  (96) 
F 18

>  <SCORE>  (96) 
-14.194

>  <name>  (96) 
95

>  <ligand_id>  (96) 
95

>  <original_smiles>  (96) 
[H]c1c([H])c([H])c2c(c1[H])C([H])([H])C([H])([H])C([H])([H])C2([H])N([H])C(=O)C1([H])N(C(=O)C([H])(N([H])C(=O)C([H])(N([H])C([H])([H])[H])C([H])([H])[H])C(C([H])([H])[H])(C([H])([H])[H])C([H])([H])[H])C([H])([H])c2c([H])c(OC([H])([H])c3nc(C([H])([H])[H])c(N([H])C4([H])C([H])([H])C([H])([H])N(C(=O)N5C([H])([H])C([H])([H])C([H])([H])C([H])(n6nc(-c7c([H])c([H])c(Oc8c([H])c([H])c(F)c([H])c8F)c([H])c7[H])c(C(=O)N([H])[H])c6N([H])[H])C5([H])[H])C([H])([H])C4([H])[H])nc3N([H])C([H])([H])[H])c([H])c([H])c2C1([H])[H]

>  <smiles>  (96) 
[H]c1c([H])c([H])c2c(c1[H])C([H])([H])C([H])([H])C([H])([H])C2([H])N([H])C(=O)C1([H])N(C(=O)C([H])(N([H])C(=O)C([H])(N([H])C([H])([H])[H])C([H])([H])[H])C(C([H])([H])[H])(C([H])([H])[H])C([H])([H])[H])C([H])([H])c2c([H])c(OC([H])([H])c3nc(C([H])([H])[H])c(N([H])C4([H])C([H])([H])C([H])([H])N(C(=O)N5C([H])([H])C([H])([H])C([H])([H])C([H])(n6nc(-c7c([H])c([H])c(Oc8c([H])c([H])c(F)c([H])c8F)c([H])c7[H])c(C(=O)N([H])[H])c6N([H])[H])C5([H])[H])C([H])([H])C4([H])[H])nc3N([H])C([H])([H])[H])c([H])c([H])c2C1([H])[H]

$$$$
96:0:0
     RDKit          3D

 93103  0  0  1  0  0  0  0  0999 V2000
  -30.5210  -15.1060   20.2420 C   0  0  0  0  0  0  0  0  0  0  0  0
  -30.4120  -12.6910   19.4440 C   0  0  0  0  0  2  0  0  0  0  0  0
  -29.4890  -12.4770   18.2100 C   0  0  0  0  0  2  0  0  0  0  0  0
  -28.0070  -12.3280   18.6290 C   0  0  0  0  0  2  0  0  0  0  0  0
  -27.5740  -13.3070   19.7470 C   0  0  0  0  0  3  0  0  0  0  0  0
  -28.6230  -13.4370   20.8550 C   0  0  0  0  0  2  0  0  0  0  0  0
  -29.8680  -13.8590   20.1930 N   0  0  0  0  0  0  0  0  0  0  0  0
  -31.7540  -15.0510   20.1920 O   0  0  0  0  0  0  0  0  0  0  0  0
  -26.0450  -21.6030   18.8210 C   0  0  0  0  0  3  0  0  0  0  0  0
  -26.3520  -22.9290   19.1260 C   0  0  0  0  0  0  0  0  0  0  0  0
  -27.5520  -23.2250   19.8500 C   0  0  0  0  0  0  0  0  0  0  0  0
  -27.9130  -20.7610   19.8300 C   0  0  0  0  0  0  0  0  0  0  0  0
  -30.8310  -18.1350   18.5840 C   0  0  0  0  0  2  0  0  0  0  0  0
  -29.4550  -18.4910   17.9980 C   0  0  0  0  0  2  0  0  0  0  0  0
  -29.8320  -19.0570   20.7300 C   0  0  0  0  0  2  0  0  0  0  0  0
  -28.5050  -16.8180   19.7150 C   0  0  0  0  0  2  0  0  0  0  0  0
  -30.6160  -17.7620   20.0910 C   0  0  0  0  0  3  0  0  0  0  0  0
  -28.3750  -18.3000   19.0780 C   0  0  0  0  0  3  0  0  0  0  0  0
  -25.2880  -23.9120   18.6790 C   0  0  0  0  0  1  0  0  0  0  0  0
  -26.7840  -20.5600   19.1820 N   0  0  0  0  0  0  0  0  0  0  0  0
  -28.3090  -22.0520   20.1990 N   0  0  0  0  0  0  0  0  0  0  0  0
  -28.5820  -19.4470   20.0240 N   0  0  0  0  0  0  0  0  0  0  0  0
  -29.8900  -16.4050   20.1440 N   0  0  0  0  0  0  0  0  0  0  0  0
  -25.2130  -13.9070   20.4980 C   0  0  0  0  0  0  0  0  0  0  0  0
  -24.1400  -13.1320   20.8370 C   0  0  0  0  0  0  0  0  0  0  0  0
  -24.6040  -11.7790   20.8470 C   0  0  0  0  0  0  0  0  0  0  0  0
  -26.2510  -13.0200   20.2680 N   0  0  0  0  0  0  0  0  0  0  0  0
  -25.9000  -11.7390   20.5530 N   0  0  0  0  0  0  0  0  0  0  0  0
  -23.8680  -10.5260   21.0470 C   0  0  0  0  0  0  0  0  0  0  0  0
  -24.2830   -9.5550   21.9860 C   0  0  0  0  0  3  0  0  0  0  0  0
  -23.5400   -8.3650   22.1590 C   0  0  0  0  0  3  0  0  0  0  0  0
  -22.3630   -8.1490   21.4030 C   0  0  0  0  0  0  0  0  0  0  0  0
  -21.9630   -9.1100   20.4560 C   0  0  0  0  0  3  0  0  0  0  0  0
  -22.7100  -10.2880   20.2800 C   0  0  0  0  0  3  0  0  0  0  0  0
  -21.5990   -7.0130   21.4840 O   0  0  0  0  0  0  0  0  0  0  0  0
  -21.5640   -6.2550   22.6300 C   0  0  0  0  0  0  0  0  0  0  0  0
  -21.1980   -6.8110   23.8730 C   0  0  0  0  0  3  0  0  0  0  0  0
  -21.1030   -5.9880   25.0100 C   0  0  0  0  0  3  0  0  0  0  0  0
  -21.3690   -4.6040   24.9060 C   0  0  0  0  0  0  0  0  0  0  0  0
  -21.7350   -4.0540   23.6650 C   0  0  0  0  0  3  0  0  0  0  0  0
  -21.8270   -4.8800   22.5290 C   0  0  0  0  0  0  0  0  0  0  0  0
  -22.1540   -4.3310   21.3310 F   0  0  0  0  0  0  0  0  0  0  0  0
  -21.2740   -3.8130   25.9970 F   0  0  0  0  0  0  0  0  0  0  0  0
  -22.7500  -13.6300   21.0550 C   0  0  0  0  0  0  0  0  0  0  0  0
  -21.9840  -12.9420   21.8880 N   0  0  0  0  0  0  0  0  0  0  0  0
  -22.3370  -14.6580   20.5230 O   0  0  0  0  0  0  0  0  0  0  0  0
  -22.3230  -12.1120   22.3520 H   0  0  0  0  0  0  0  0  0  0  0  0
  -21.0480  -13.2750   22.0390 H   0  0  0  0  0  0  0  0  0  0  0  0
  -25.3690  -15.2860   20.3470 N   0  0  0  0  0  0  0  0  0  0  0  0
  -24.6110  -15.9640   20.4030 H   0  0  0  0  0  0  0  0  0  0  0  0
  -26.2670  -15.7090   20.1870 H   0  0  0  0  0  0  0  0  0  0  0  0
  -27.7710  -24.7320   20.5520 C   0  0  0  0  0  2  0  0  0  0  0  0
  -28.1570  -26.1230   19.9480 O   0  0  0  0  0  0  0  0  0  0  0  0
  -24.7100  -31.8690   23.1130 C   0  0  0  0  0  0  0  0  0  0  0  0
  -27.2140  -27.1970   19.9670 C   0  0  0  0  0  0  0  0  0  0  0  0
  -23.4920  -30.4950   21.4770 C   0  0  0  0  0  3  0  0  0  0  0  0
  -24.9220  -28.9560   20.0120 C   0  0  0  0  0  0  0  0  0  0  0  0
  -26.0500  -30.7530   21.3000 C   0  0  0  0  0  2  0  0  0  0  0  0
  -26.1110  -29.3760   20.6260 C   0  0  0  0  0  0  0  0  0  0  0  0
  -27.2580  -28.4970   20.6170 C   0  0  0  0  0  3  0  0  0  0  0  0
  -26.0510  -26.9570   19.2370 C   0  0  0  0  0  3  0  0  0  0  0  0
  -24.8980  -27.7560   19.2970 C   0  0  0  0  0  3  0  0  0  0  0  0
  -23.7030  -29.8580   20.0840 C   0  0  0  0  0  2  0  0  0  0  0  0
  -24.7720  -31.0640   22.0130 N   0  0  0  0  0  0  0  0  0  0  0  0
  -23.6310  -32.1400   23.6590 O   0  0  0  0  0  0  0  0  0  0  0  0
  -22.8400  -29.4570   22.4240 C   0  0  0  0  0  0  0  0  0  0  0  0
  -21.5080  -29.2890   22.3290 N   0  0  0  0  0  0  0  0  0  0  0  0
  -23.5320  -28.8090   23.2150 O   0  0  0  0  0  0  0  0  0  0  0  0
  -21.0060  -29.8630   21.6640 H   0  0  0  0  0  0  0  0  0  0  0  0
  -18.1330  -28.0990   22.9040 C   0  0  0  0  0  0  0  0  0  0  0  0
  -20.7010  -28.3420   23.1060 C   0  0  0  0  0  3  0  0  0  0  0  0
  -20.7780  -26.9180   22.5070 C   0  0  0  0  0  2  0  0  0  0  0  0
  -19.6470  -26.6170   21.5180 C   0  0  0  0  0  2  0  0  0  0  0  0
  -18.2840  -26.7600   22.2010 C   0  0  0  0  0  2  0  0  0  0  0  0
  -19.2690  -28.8480   23.3140 C   0  0  0  0  0  0  0  0  0  0  0  0
  -19.0720  -30.1010   23.9350 C   0  0  0  0  0  3  0  0  0  0  0  0
  -17.7750  -30.6050   24.1470 C   0  0  0  0  0  3  0  0  0  0  0  0
  -16.6560  -29.8530   23.7510 C   0  0  0  0  0  3  0  0  0  0  0  0
  -16.8350  -28.6020   23.1360 C   0  0  0  0  0  3  0  0  0  0  0  0
  -25.9970  -32.5030   23.7230 C   0  0  0  0  0  3  0  0  0  0  0  0
  -25.6680  -33.8840   24.1030 N   0  0  0  0  0  0  0  0  0  0  0  0
  -25.9550  -34.9690   23.3700 C   0  0  0  0  0  0  0  0  0  0  0  0
  -26.5930  -34.9120   22.3130 O   0  0  0  0  0  0  0  0  0  0  0  0
  -25.0970  -34.0010   24.9260 H   0  0  0  0  0  0  0  0  0  0  0  0
  -24.1810  -36.7390   23.1400 C   0  0  0  0  0  1  0  0  0  0  0  0
  -25.4580  -36.3320   23.8910 C   0  0  0  0  0  3  0  0  0  0  0  0
  -27.6070  -37.2290   24.6700 C   0  0  0  0  0  1  0  0  0  0  0  0
  -26.4650  -37.4100   23.7790 N   0  0  0  0  0  0  0  0  0  0  0  0
  -26.0470  -38.3130   23.9770 H   0  0  0  0  0  0  0  0  0  0  0  0
  -26.5540  -31.7050   24.9650 C   0  0  1  0  0  0  0  0  0  0  0  0
  -25.4920  -31.4260   26.0530 C   0  0  0  0  0  1  0  0  0  0  0  0
  -27.1480  -30.3430   24.5370 C   0  0  0  0  0  1  0  0  0  0  0  0
  -27.7100  -32.5010   25.6130 C   0  0  0  0  0  1  0  0  0  0  0  0
  2  7  1  0
  3  4  1  0
  3  2  1  0
  5  4  1  0
  5 27  1  0
  5  6  1  0
  7  1  1  0
  7  6  1  0
  8  1  2  0
  9 10  2  0
  9 20  1  0
 10 11  1  0
 11 21  2  0
 11 52  1  0
 12 22  1  0
 12 21  1  0
 14 13  1  0
 16 23  1  0
 17 13  1  0
 17 23  1  0
 17 15  1  0
 18 14  1  0
 18 16  1  0
 18 22  1  0
 19 10  1  0
 20 12  2  0
 22 15  1  0
 23  1  1  0
 24 25  2  0
 25 26  1  0
 25 44  1  0
 26 29  1  0
 27 24  1  0
 27 28  1  0
 28 26  2  0
 29 30  1  0
 30 31  2  0
 32 35  1  0
 32 31  1  0
 33 32  2  0
 34 33  1  0
 34 29  2  0
 35 36  1  0
 36 37  1  0
 37 38  2  0
 39 38  1  0
 39 43  1  0
 40 39  2  0
 41 36  2  0
 41 40  1  0
 42 41  1  0
 44 45  1  0
 45 48  1  0
 45 47  1  0
 46 44  2  0
 49 50  1  0
 49 24  1  0
 51 49  1  0
 53 55  1  0
 53 52  1  0
 54 65  2  0
 55 60  1  0
 56 64  1  0
 56 66  1  0
 57 63  1  0
 57 59  1  0
 58 64  1  0
 59 58  1  0
 60 59  2  0
 61 62  1  0
 61 55  2  0
 62 57  2  0
 63 56  1  0
 64 54  1  0
 66 68  2  0
 67 66  1  0
 69 67  1  0
 70 79  2  0
 70 75  1  0
 71 67  1  0
 71 75  1  0
 72 71  1  0
 73 74  1  0
 73 72  1  0
 74 70  1  0
 75 76  2  0
 76 77  1  0
 78 77  2  0
 79 78  1  0
 80 54  1  0
 80 81  1  0
 80 90  1  0
 81 84  1  0
 82 86  1  0
 82 81  1  0
 83 82  2  0
 86 85  1  0
 88 86  1  0
 88 89  1  0
 88 87  1  0
 90 93  1  1
 90 91  1  0
 92 90  1  0
M  ISO  4   1 100  23 100  52 101  53 101
M  END
>  <TORSDO>  (97) 
F 16

>  <SCORE>  (97) 
-15.507

>  <name>  (97) 
96

>  <ligand_id>  (97) 
96

>  <original_smiles>  (97) 
[H]c1nc(N2C([H])([H])C3([H])N(C(=O)N4C([H])([H])C([H])([H])C([H])([H])C([H])(n5nc(-c6c([H])c([H])c(Oc7c([H])c([H])c(F)c([H])c7F)c([H])c6[H])c(C(=O)N([H])[H])c5N([H])[H])C4([H])[H])C([H])([H])C2([H])C([H])([H])C3([H])[H])nc(C([H])([H])Oc2c([H])c([H])c3c(c2[H])C([H])([H])N(C(=O)C([H])(N([H])C(=O)C([H])(N([H])C([H])([H])[H])C([H])([H])[H])C(C([H])([H])[H])(C([H])([H])[H])C([H])([H])[H])C([H])(C(=O)N([H])C2([H])c4c([H])c([H])c([H])c([H])c4C([H])([H])C([H])([H])C2([H])[H])C3([H])[H])c1C([H])([H])[H]

>  <smiles>  (97) 
[H]c1nc(N2C([H])([H])C3([H])N(C(=O)N4C([H])([H])C([H])([H])C([H])([H])C([H])(n5nc(-c6c([H])c([H])c(Oc7c([H])c([H])c(F)c([H])c7F)c([H])c6[H])c(C(=O)N([H])[H])c5N([H])[H])C4([H])[H])C([H])([H])C2([H])C([H])([H])C3([H])[H])nc(C([H])([H])Oc2c([H])c([H])c3c(c2[H])C([H])([H])N(C(=O)C([H])(N([H])C(=O)C([H])(N([H])C([H])([H])[H])C([H])([H])[H])C(C([H])([H])[H])(C([H])([H])[H])C([H])([H])[H])C([H])(C(=O)N([H])C2([H])c4c([H])c([H])c([H])c([H])c4C([H])([H])C([H])([H])C2([H])[H])C3([H])[H])c1C([H])([H])[H]

$$$$
