0:0:0
     RDKit          3D

 91100  0  0  1  0  0  0  0  0999 V2000
  -29.5620  -22.7290   19.2200 C   0  0  0  0  0  3  0  0  0  0  0  0
  -28.8900  -21.7380   20.0310 C   0  0  0  0  0  0  0  0  0  0  0  0
  -27.9240  -22.4660   20.8450 C   0  0  0  0  0  0  0  0  0  0  0  0
  -27.7250  -23.9330   20.8200 C   0  0  0  0  0  0  0  0  0  0  0  0
  -28.4430  -24.8280   19.9460 C   0  0  0  0  0  0  0  0  0  0  0  0
  -27.0480  -21.6650   21.8040 C   0  0  0  0  0  1  0  0  0  0  0  0
  -26.7280  -24.5690   21.7820 C   0  0  0  0  0  1  0  0  0  0  0  0
  -29.3700  -24.1270   19.1900 N   0  0  0  0  0  0  0  0  0  0  0  0
  -30.8190  -15.3970   19.8320 C   0  0  0  0  0  0  0  0  0  0  0  0
  -30.7070  -13.0040   18.9310 C   0  0  0  0  0  2  0  0  0  0  0  0
  -29.7040  -12.8590   17.7630 C   0  0  0  0  0  2  0  0  0  0  0  0
  -28.2860  -12.5970   18.3010 C   0  0  0  0  0  2  0  0  0  0  0  0
  -27.9200  -13.5400   19.4760 C   0  0  0  0  0  3  0  0  0  0  0  0
  -29.0410  -13.6480   20.5270 C   0  0  0  0  0  2  0  0  0  0  0  0
  -30.2330  -14.1190   19.8130 N   0  0  0  0  0  0  0  0  0  0  0  0
  -32.0210  -15.4120   19.5300 O   0  0  0  0  0  0  0  0  0  0  0  0
  -29.6530  -19.1500   18.7990 C   0  0  0  0  0  3  0  0  0  0  0  0
  -29.7070  -19.1720   21.1980 C   0  0  0  0  0  3  0  0  0  0  0  0
  -29.5100  -17.5000   18.8700 C   0  0  0  0  0  2  0  0  0  0  0  0
  -30.5250  -17.7490   20.9770 C   0  0  0  0  0  3  0  0  0  0  0  0
  -29.0790  -20.0320   19.9960 C   0  0  0  0  0  0  0  0  0  0  0  0
  -30.0940  -16.6550   20.0060 N   0  0  0  0  0  0  0  0  0  0  0  0
  -25.6170  -14.0650   20.4400 C   0  0  0  0  0  0  0  0  0  0  0  0
  -24.5830  -13.2680   20.8490 C   0  0  0  0  0  0  0  0  0  0  0  0
  -25.0450  -11.9230   20.7170 C   0  0  0  0  0  0  0  0  0  0  0  0
  -26.6340  -13.2040   20.0730 N   0  0  0  0  0  0  0  0  0  0  0  0
  -26.3070  -11.9070   20.3040 N   0  0  0  0  0  0  0  0  0  0  0  0
  -24.3350  -10.6500   20.9010 C   0  0  0  0  0  0  0  0  0  0  0  0
  -24.7620   -9.6990   21.8530 C   0  0  0  0  0  3  0  0  0  0  0  0
  -24.0480   -8.4930   22.0290 C   0  0  0  0  0  3  0  0  0  0  0  0
  -22.8970   -8.2300   21.2490 C   0  0  0  0  0  0  0  0  0  0  0  0
  -22.4910   -9.1700   20.2860 C   0  0  0  0  0  3  0  0  0  0  0  0
  -23.2040  -10.3680   20.1100 C   0  0  0  0  0  3  0  0  0  0  0  0
  -22.1580   -7.0740   21.3330 O   0  0  0  0  0  0  0  0  0  0  0  0
  -21.9890   -6.4100   22.5220 C   0  0  0  0  0  0  0  0  0  0  0  0
  -21.3770   -7.0220   23.6360 C   0  0  0  0  0  3  0  0  0  0  0  0
  -21.1590   -6.2820   24.8150 C   0  0  0  0  0  3  0  0  0  0  0  0
  -21.5420   -4.9290   24.8790 C   0  0  0  0  0  0  0  0  0  0  0  0
  -22.1460   -4.3150   23.7670 C   0  0  0  0  0  3  0  0  0  0  0  0
  -22.3660   -5.0540   22.5910 C   0  0  0  0  0  0  0  0  0  0  0  0
  -22.9300   -4.4510   21.5150 F   0  0  0  0  0  0  0  0  0  0  0  0
  -21.3260   -4.2150   26.0080 F   0  0  0  0  0  0  0  0  0  0  0  0
  -23.2100  -13.7270   21.2460 C   0  0  0  0  0  0  0  0  0  0  0  0
  -22.5530  -12.9940   22.1360 N   0  0  0  0  0  0  0  0  0  0  0  0
  -22.7330  -14.7680   20.8000 O   0  0  0  0  0  0  0  0  0  0  0  0
  -21.6330  -13.2790   22.4420 H   0  0  0  0  0  0  0  0  0  0  0  0
  -22.9550  -12.1500   22.5170 H   0  0  0  0  0  0  0  0  0  0  0  0
  -25.7710  -15.4440   20.3270 N   0  0  0  0  0  0  0  0  0  0  0  0
  -25.0380  -16.0980   20.5760 H   0  0  0  0  0  0  0  0  0  0  0  0
  -26.6220  -15.9000   20.0260 H   0  0  0  0  0  0  0  0  0  0  0  0
  -28.4520  -26.3330   19.9090 O   0  0  0  0  0  0  0  0  0  0  0  0
  -24.7810  -31.9030   23.2610 C   0  0  0  0  0  0  0  0  0  0  0  0
  -27.3740  -27.3190   19.9670 C   0  0  0  0  0  0  0  0  0  0  0  0
  -23.5900  -30.5940   21.5460 C   0  0  0  0  0  3  0  0  0  0  0  0
  -25.0460  -29.0950   20.0350 C   0  0  0  0  0  0  0  0  0  0  0  0
  -26.1460  -30.8630   21.4000 C   0  0  0  0  0  2  0  0  0  0  0  0
  -26.2250  -29.5010   20.6730 C   0  0  0  0  0  0  0  0  0  0  0  0
  -27.3870  -28.6290   20.6210 C   0  0  0  0  0  3  0  0  0  0  0  0
  -26.1690  -27.0350   19.2920 C   0  0  0  0  0  3  0  0  0  0  0  0
  -25.0340  -27.8800   19.3300 C   0  0  0  0  0  3  0  0  0  0  0  0
  -23.8160  -29.9890   20.1340 C   0  0  0  0  0  2  0  0  0  0  0  0
  -24.8600  -31.1430   22.1240 N   0  0  0  0  0  0  0  0  0  0  0  0
  -23.6910  -32.1540   23.8020 O   0  0  0  0  0  0  0  0  0  0  0  0
  -22.9120  -29.5380   22.4530 C   0  0  0  0  0  0  0  0  0  0  0  0
  -21.5850  -29.3650   22.3120 N   0  0  0  0  0  0  0  0  0  0  0  0
  -23.5850  -28.8740   23.2460 O   0  0  0  0  0  0  0  0  0  0  0  0
  -21.0990  -29.9490   21.6480 H   0  0  0  0  0  0  0  0  0  0  0  0
  -18.2070  -28.1320   22.7640 C   0  0  0  0  0  0  0  0  0  0  0  0
  -20.7680  -28.3800   23.0270 C   0  0  0  0  0  3  0  0  0  0  0  0
  -20.8660  -26.9880   22.3610 C   0  0  0  0  0  2  0  0  0  0  0  0
  -19.7550  -26.7310   21.3360 C   0  0  0  0  0  2  0  0  0  0  0  0
  -18.3800  -26.8300   22.0000 C   0  0  0  0  0  2  0  0  0  0  0  0
  -19.3280  -28.8670   23.2330 C   0  0  0  0  0  0  0  0  0  0  0  0
  -19.1120  -30.0870   23.9110 C   0  0  0  0  0  3  0  0  0  0  0  0
  -17.8070  -30.5710   24.1230 C   0  0  0  0  0  3  0  0  0  0  0  0
  -16.7000  -29.8320   23.6690 C   0  0  0  0  0  3  0  0  0  0  0  0
  -16.9010  -28.6130   22.9960 C   0  0  0  0  0  3  0  0  0  0  0  0
  -26.0510  -32.5120   23.9260 C   0  0  0  0  0  3  0  0  0  0  0  0
  -25.7440  -33.9020   24.3010 N   0  0  0  0  0  0  0  0  0  0  0  0
  -26.0540  -34.9800   23.5670 C   0  0  0  0  0  0  0  0  0  0  0  0
  -26.6940  -34.9080   22.5150 O   0  0  0  0  0  0  0  0  0  0  0  0
  -25.1690  -34.0310   25.1200 H   0  0  0  0  0  0  0  0  0  0  0  0
  -24.2910  -36.7630   23.3530 C   0  0  0  0  0  1  0  0  0  0  0  0
  -25.5820  -36.3560   24.0810 C   0  0  0  0  0  3  0  0  0  0  0  0
  -27.7470  -37.2580   24.8110 C   0  0  0  0  0  1  0  0  0  0  0  0
  -26.5960  -37.4220   23.9280 N   0  0  0  0  0  0  0  0  0  0  0  0
  -26.1870  -38.3350   24.1080 H   0  0  0  0  0  0  0  0  0  0  0  0
  -26.5390  -31.7010   25.1900 C   0  0  1  0  0  0  0  0  0  0  0  0
  -25.4260  -31.4400   26.2310 C   0  0  0  0  0  1  0  0  0  0  0  0
  -27.1210  -30.3300   24.7730 C   0  0  0  0  0  1  0  0  0  0  0  0
  -27.6840  -32.4670   25.8940 C   0  0  0  0  0  1  0  0  0  0  0  0
  1  2  2  0
  2  3  1  0
  3  6  1  0
  4  3  2  0
  4  7  1  0
  5  4  1  0
  8  1  1  0
  8  5  2  0
  9 22  1  0
 10 15  1  0
 11 12  1  0
 11 10  1  0
 13 12  1  0
 13 26  1  0
 13 14  1  0
 15  9  1  0
 15 14  1  0
 16  9  2  0
 17 19  1  0
 17 21  2  0
 19 22  1  0
 20 18  2  0
 21  2  1  0
 21 18  1  0
 22 20  1  0
 23 24  2  0
 24 43  1  0
 25 24  1  0
 25 28  1  0
 26 27  1  0
 26 23  1  0
 27 25  2  0
 28 29  1  0
 29 30  2  0
 31 34  1  0
 31 30  1  0
 32 31  2  0
 33 32  1  0
 33 28  2  0
 34 35  1  0
 35 40  2  0
 35 36  1  0
 36 37  2  0
 37 38  1  0
 38 42  1  0
 39 38  2  0
 40 39  1  0
 41 40  1  0
 43 44  1  0
 44 46  1  0
 44 47  1  0
 45 43  2  0
 48 23  1  0
 48 49  1  0
 50 48  1  0
 51  5  1  0
 51 53  1  0
 52 63  2  0
 53 58  1  0
 54 62  1  0
 54 64  1  0
 55 61  1  0
 55 57  1  0
 56 62  1  0
 57 56  1  0
 58 57  2  0
 59 60  1  0
 59 53  2  0
 60 55  2  0
 61 54  1  0
 62 52  1  0
 64 66  2  0
 65 64  1  0
 67 65  1  0
 68 77  2  0
 68 73  1  0
 69 65  1  0
 69 73  1  0
 70 69  1  0
 71 72  1  0
 71 70  1  0
 72 68  1  0
 73 74  2  0
 74 75  1  0
 76 75  2  0
 77 76  1  0
 78 52  1  0
 78 79  1  0
 78 88  1  0
 79 82  1  0
 80 84  1  0
 80 79  1  0
 81 80  2  0
 84 83  1  0
 86 84  1  0
 86 87  1  0
 86 85  1  0
 88 91  1  1
 88 89  1  0
 90 88  1  0
M  ISO  4   5 101   9 100  22 100  51 101
M  END
>  <TORSDO>  (1) 
F 16

>  <SCORE>  (1) 
-13.760

>  <name>  (1) 
0

>  <ligand_id>  (1) 
0

>  <original_smiles>  (1) 
[H]c1nc(Oc2c([H])c([H])c3c(c2[H])C([H])([H])N(C(=O)C([H])(N([H])C(=O)C([H])(N([H])C([H])([H])[H])C([H])([H])[H])C(C([H])([H])[H])(C([H])([H])[H])C([H])([H])[H])C([H])(C(=O)N([H])C2([H])c4c([H])c([H])c([H])c([H])c4C([H])([H])C([H])([H])C2([H])[H])C3([H])[H])c(C([H])([H])[H])c(C([H])([H])[H])c1C1([H])C([H])([H])C([H])([H])N(C(=O)N2C([H])([H])C([H])([H])C([H])([H])C([H])(n3nc(-c4c([H])c([H])c(Oc5c([H])c([H])c(F)c([H])c5F)c([H])c4[H])c(C(=O)N([H])[H])c3N([H])[H])C2([H])[H])C([H])([H])C1([H])[H]

>  <smiles>  (1) 
[H]c1nc(Oc2c([H])c([H])c3c(c2[H])C([H])([H])N(C(=O)C([H])(N([H])C(=O)C([H])(N([H])C([H])([H])[H])C([H])([H])[H])C(C([H])([H])[H])(C([H])([H])[H])C([H])([H])[H])C([H])(C(=O)N([H])C2([H])c4c([H])c([H])c([H])c([H])c4C([H])([H])C([H])([H])C2([H])[H])C3([H])[H])c(C([H])([H])[H])c(C([H])([H])[H])c1C1([H])C([H])([H])C([H])([H])N(C(=O)N2C([H])([H])C([H])([H])C([H])([H])C([H])(n3nc(-c4c([H])c([H])c(Oc5c([H])c([H])c(F)c([H])c5F)c([H])c4[H])c(C(=O)N([H])[H])c3N([H])[H])C2([H])[H])C([H])([H])C1([H])[H]

$$$$
1:0:0
     RDKit          3D

 91101  0  0  1  0  0  0  0  0999 V2000
  -30.5310  -15.7360   20.4250 C   0  0  0  0  0  0  0  0  0  0  0  0
  -30.5630  -13.2360   19.5790 C   0  0  0  0  0  2  0  0  0  0  0  0
  -29.6820  -12.9060   18.3450 C   0  0  0  0  0  2  0  0  0  0  0  0
  -28.2480  -12.5750   18.7780 C   0  0  0  0  0  2  0  0  0  0  0  0
  -27.7380  -13.5630   19.8530 C   0  0  0  0  0  3  0  0  0  0  0  0
  -28.7560  -13.8350   20.9840 C   0  0  0  0  0  2  0  0  0  0  0  0
  -29.9580  -14.4090   20.3430 N   0  0  0  0  0  0  0  0  0  0  0  0
  -31.7630  -15.6510   20.2670 O   0  0  0  0  0  0  0  0  0  0  0  0
  -29.2990  -22.1220   21.7360 C   0  0  0  0  0  3  0  0  0  0  0  0
  -29.2460  -19.8520   20.0630 C   0  0  0  0  0  0  0  0  0  0  0  0
  -28.7810  -22.5640   20.4570 C   0  0  0  0  0  0  0  0  0  0  0  0
  -28.7930  -21.2640   19.6220 C   0  0  0  0  0  0  0  0  0  0  0  0
  -29.7020  -19.7120   21.3330 C   0  0  0  0  0  0  0  0  0  0  0  0
  -30.1480  -18.1790   21.6430 C   0  0  0  0  0  2  0  0  0  0  0  0
  -29.4170  -18.2720   19.5020 C   0  0  0  0  0  3  0  0  0  0  0  0
  -28.2940  -21.3670   18.1950 C   0  0  0  0  0  1  0  0  0  0  0  0
  -29.7280  -20.8350   22.1390 N   0  0  0  0  0  0  0  0  0  0  0  0
  -29.8530  -17.1080   20.5470 N   0  0  0  0  0  0  0  0  0  0  0  0
  -25.3580  -14.0860   20.5700 C   0  0  0  0  0  0  0  0  0  0  0  0
  -24.2970  -13.2980   20.9170 C   0  0  0  0  0  0  0  0  0  0  0  0
  -24.7790  -11.9540   20.8970 C   0  0  0  0  0  0  0  0  0  0  0  0
  -26.4130  -13.2230   20.3500 N   0  0  0  0  0  0  0  0  0  0  0  0
  -26.0780  -11.9330   20.6140 N   0  0  0  0  0  0  0  0  0  0  0  0
  -24.0600  -10.6840   21.0730 C   0  0  0  0  0  0  0  0  0  0  0  0
  -24.4680   -9.7270   22.0270 C   0  0  0  0  0  3  0  0  0  0  0  0
  -23.7450   -8.5260   22.1920 C   0  0  0  0  0  3  0  0  0  0  0  0
  -22.5990   -8.2730   21.4010 C   0  0  0  0  0  0  0  0  0  0  0  0
  -22.2100   -9.2170   20.4350 C   0  0  0  0  0  3  0  0  0  0  0  0
  -22.9360  -10.4090   20.2690 C   0  0  0  0  0  3  0  0  0  0  0  0
  -21.8510   -7.1220   21.4740 O   0  0  0  0  0  0  0  0  0  0  0  0
  -21.7540   -6.3980   22.6350 C   0  0  0  0  0  0  0  0  0  0  0  0
  -21.2400   -6.9600   23.8220 C   0  0  0  0  0  3  0  0  0  0  0  0
  -21.0940   -6.1620   24.9750 C   0  0  0  0  0  3  0  0  0  0  0  0
  -21.4510   -4.8010   24.9390 C   0  0  0  0  0  0  0  0  0  0  0  0
  -21.9580   -4.2370   23.7540 C   0  0  0  0  0  3  0  0  0  0  0  0
  -22.1050   -5.0330   22.6050 C   0  0  0  0  0  0  0  0  0  0  0  0
  -22.5750   -4.4790   21.4610 F   0  0  0  0  0  0  0  0  0  0  0  0
  -21.3030   -4.0310   26.0420 F   0  0  0  0  0  0  0  0  0  0  0  0
  -22.8900  -13.7630   21.1510 C   0  0  0  0  0  0  0  0  0  0  0  0
  -22.1490  -13.0630   22.0010 N   0  0  0  0  0  0  0  0  0  0  0  0
  -22.4580  -14.7850   20.6190 O   0  0  0  0  0  0  0  0  0  0  0  0
  -22.5130  -12.2370   22.4540 H   0  0  0  0  0  0  0  0  0  0  0  0
  -21.2040  -13.3560   22.2040 H   0  0  0  0  0  0  0  0  0  0  0  0
  -25.5110  -15.4580   20.3940 N   0  0  0  0  0  0  0  0  0  0  0  0
  -24.7350  -16.1060   20.4830 H   0  0  0  0  0  0  0  0  0  0  0  0
  -26.3680  -15.9050   20.0940 H   0  0  0  0  0  0  0  0  0  0  0  0
  -28.1000  -18.1940   17.2110 C   0  0  0  0  0  2  0  0  0  0  0  0
  -28.3030  -16.7680   17.6510 C   0  0  0  0  0  2  0  0  0  0  0  0
  -28.2030  -17.8680   18.6860 C   0  0  0  0  0  3  0  0  0  0  0  0
  -28.0720  -24.2180   20.1180 C   0  0  0  0  0  2  0  0  0  0  0  0
  -28.2800  -25.8600   20.5450 O   0  0  0  0  0  0  0  0  0  0  0  0
  -24.6920  -32.0260   23.3790 C   0  0  0  0  0  0  0  0  0  0  0  0
  -27.3100  -27.0380   20.4330 C   0  0  0  0  0  0  0  0  0  0  0  0
  -23.5390  -30.6210   21.7240 C   0  0  0  0  0  3  0  0  0  0  0  0
  -25.0210  -28.9980   20.3330 C   0  0  0  0  0  0  0  0  0  0  0  0
  -26.1130  -30.8020   21.6410 C   0  0  0  0  0  2  0  0  0  0  0  0
  -26.1980  -29.3790   20.9890 C   0  0  0  0  0  0  0  0  0  0  0  0
  -27.3300  -28.4230   21.0130 C   0  0  0  0  0  3  0  0  0  0  0  0
  -26.1030  -26.8470   19.7180 C   0  0  0  0  0  3  0  0  0  0  0  0
  -25.0060  -27.7560   19.6760 C   0  0  0  0  0  3  0  0  0  0  0  0
  -23.8030  -29.9300   20.3550 C   0  0  0  0  0  2  0  0  0  0  0  0
  -24.8030  -31.1810   22.3020 N   0  0  0  0  0  0  0  0  0  0  0  0
  -23.5890  -32.3180   23.8730 O   0  0  0  0  0  0  0  0  0  0  0  0
  -22.8200  -29.6340   22.6820 C   0  0  0  0  0  0  0  0  0  0  0  0
  -21.4940  -29.4570   22.5230 N   0  0  0  0  0  0  0  0  0  0  0  0
  -23.4650  -29.0250   23.5390 O   0  0  0  0  0  0  0  0  0  0  0  0
  -21.0240  -29.9980   21.8110 H   0  0  0  0  0  0  0  0  0  0  0  0
  -18.1070  -28.2240   22.9760 C   0  0  0  0  0  0  0  0  0  0  0  0
  -20.6610  -28.5160   23.2820 C   0  0  0  0  0  3  0  0  0  0  0  0
  -20.7840  -27.0830   22.7150 C   0  0  0  0  0  2  0  0  0  0  0  0
  -19.7040  -26.7490   21.6800 C   0  0  0  0  0  2  0  0  0  0  0  0
  -18.3080  -26.8790   22.2990 C   0  0  0  0  0  2  0  0  0  0  0  0
  -19.2120  -29.0010   23.4220 C   0  0  0  0  0  0  0  0  0  0  0  0
  -18.9660  -30.2570   24.0180 C   0  0  0  0  0  3  0  0  0  0  0  0
  -17.6530  -30.7390   24.1680 C   0  0  0  0  0  3  0  0  0  0  0  0
  -16.5650  -29.9630   23.7340 C   0  0  0  0  0  3  0  0  0  0  0  0
  -16.7920  -28.7070   23.1450 C   0  0  0  0  0  3  0  0  0  0  0  0
  -25.9440  -32.6810   24.0390 C   0  0  0  0  0  3  0  0  0  0  0  0
  -25.6190  -34.0890   24.3400 N   0  0  0  0  0  0  0  0  0  0  0  0
  -25.9320  -35.1360   23.5650 C   0  0  0  0  0  0  0  0  0  0  0  0
  -26.5870  -35.0210   22.5270 O   0  0  0  0  0  0  0  0  0  0  0  0
  -25.0350  -34.2510   25.1480 H   0  0  0  0  0  0  0  0  0  0  0  0
  -24.1720  -36.9090   23.2430 C   0  0  0  0  0  1  0  0  0  0  0  0
  -25.4480  -36.5310   24.0120 C   0  0  0  0  0  3  0  0  0  0  0  0
  -27.5970  -37.4700   24.7460 C   0  0  0  0  0  1  0  0  0  0  0  0
  -26.4630  -37.5950   23.8340 N   0  0  0  0  0  0  0  0  0  0  0  0
  -26.0480  -38.5130   23.9690 H   0  0  0  0  0  0  0  0  0  0  0  0
  -26.4070  -31.9440   25.3570 C   0  0  1  0  0  0  0  0  0  0  0  0
  -25.2660  -31.7080   26.3750 C   0  0  0  0  0  1  0  0  0  0  0  0
  -27.0300  -30.5680   25.0320 C   0  0  0  0  0  1  0  0  0  0  0  0
  -27.5120  -32.7690   26.0570 C   0  0  0  0  0  1  0  0  0  0  0  0
  1 18  1  0
  2  7  1  0
  3  4  1  0
  3  2  1  0
  5  4  1  0
  5 22  1  0
  5  6  1  0
  7  1  1  0
  7  6  1  0
  8  1  2  0
  9 17  1  0
 10 13  1  0
 11  9  2  0
 12 10  2  0
 12 11  1  0
 13 14  1  0
 13 17  2  0
 15 49  1  0
 15 10  1  0
 15 18  1  0
 16 12  1  0
 18 14  1  0
 19 20  2  0
 20 39  1  0
 21 20  1  0
 21 24  1  0
 22 19  1  0
 22 23  1  0
 23 21  2  0
 24 25  1  0
 25 26  2  0
 27 30  1  0
 27 26  1  0
 28 27  2  0
 29 28  1  0
 29 24  2  0
 30 31  1  0
 31 32  1  0
 32 33  2  0
 34 33  1  0
 34 38  1  0
 35 34  2  0
 36 31  2  0
 36 35  1  0
 37 36  1  0
 39 40  1  0
 40 43  1  0
 40 42  1  0
 41 39  2  0
 44 45  1  0
 44 19  1  0
 46 44  1  0
 47 48  1  0
 47 49  1  0
 48 49  1  0
 50 11  1  0
 50 51  1  0
 52 63  2  0
 53 51  1  0
 53 58  1  0
 54 62  1  0
 54 64  1  0
 55 61  1  0
 55 57  1  0
 56 62  1  0
 57 58  2  0
 57 56  1  0
 59 53  2  0
 60 59  1  0
 60 55  2  0
 61 54  1  0
 62 52  1  0
 64 66  2  0
 65 64  1  0
 67 65  1  0
 68 77  2  0
 68 73  1  0
 69 65  1  0
 69 73  1  0
 70 69  1  0
 71 72  1  0
 71 70  1  0
 72 68  1  0
 73 74  2  0
 74 75  1  0
 76 75  2  0
 77 76  1  0
 78 52  1  0
 78 79  1  0
 78 88  1  0
 79 82  1  0
 80 84  1  0
 80 79  1  0
 81 80  2  0
 84 83  1  0
 86 87  1  0
 86 84  1  0
 86 85  1  0
 88 91  1  1
 88 89  1  0
 90 88  1  0
M  ISO  4   1 100  18 100  50 101  51 101
M  END
>  <TORSDO>  (2) 
F 17

>  <SCORE>  (2) 
-14.115

>  <name>  (2) 
1

>  <ligand_id>  (2) 
1

>  <original_smiles>  (2) 
[H]c1nc2c(c(C([H])([H])[H])c1C([H])([H])Oc1c([H])c([H])c3c(c1[H])C([H])([H])N(C(=O)C([H])(N([H])C(=O)C([H])(N([H])C([H])([H])[H])C([H])([H])[H])C(C([H])([H])[H])(C([H])([H])[H])C([H])([H])[H])C([H])(C(=O)N([H])C1([H])c4c([H])c([H])c([H])c([H])c4C([H])([H])C([H])([H])C1([H])[H])C3([H])[H])C([H])(C1([H])C([H])([H])C1([H])[H])N(C(=O)N1C([H])([H])C([H])([H])C([H])([H])C([H])(n3nc(-c4c([H])c([H])c(Oc5c([H])c([H])c(F)c([H])c5F)c([H])c4[H])c(C(=O)N([H])[H])c3N([H])[H])C1([H])[H])C2([H])[H]

>  <smiles>  (2) 
[H]c1nc2c(c(C([H])([H])[H])c1C([H])([H])Oc1c([H])c([H])c3c(c1[H])C([H])([H])N(C(=O)C([H])(N([H])C(=O)C([H])(N([H])C([H])([H])[H])C([H])([H])[H])C(C([H])([H])[H])(C([H])([H])[H])C([H])([H])[H])C([H])(C(=O)N([H])C1([H])c4c([H])c([H])c([H])c([H])c4C([H])([H])C([H])([H])C1([H])[H])C3([H])[H])C([H])(C1([H])C([H])([H])C1([H])[H])N(C(=O)N1C([H])([H])C([H])([H])C([H])([H])C([H])(n3nc(-c4c([H])c([H])c(Oc5c([H])c([H])c(F)c([H])c5F)c([H])c4[H])c(C(=O)N([H])[H])c3N([H])[H])C1([H])[H])C2([H])[H]

$$$$
2:0:0
     RDKit          3D

 99108  0  0  1  0  0  0  0  0999 V2000
  -30.4710  -23.5410   19.8600 N   0  0  0  0  0  4  0  0  0  0  0  0
  -29.5170  -23.4430   19.5530 H   0  0  0  0  0  0  0  0  0  0  0  0
  -31.0380  -23.7120   19.0420 H   0  0  0  0  0  0  0  0  0  0  0  0
  -31.1570  -20.8770   22.5470 C   0  0  0  0  0  2  0  0  0  0  0  0
  -30.7580  -22.2380   21.9990 C   0  0  0  0  0  2  0  0  0  0  0  0
  -30.3120  -19.7780   21.9050 C   0  0  0  0  0  2  0  0  0  0  0  0
  -30.9030  -22.2490   20.4640 C   0  0  0  0  0  3  0  0  0  0  0  0
  -30.1150  -21.0470   19.8290 C   0  0  0  0  0  3  0  0  0  0  0  0
  -30.3180  -21.0330   18.2940 C   0  0  0  0  0  1  0  0  0  0  0  0
  -30.4710  -19.7340   20.4420 N   0  0  0  0  0  0  0  0  0  0  0  0
  -31.0840  -14.4650   20.1550 C   0  0  0  0  0  0  0  0  0  0  0  0
  -30.7180  -12.2910   19.0870 C   0  0  0  0  0  2  0  0  0  0  0  0
  -29.7700  -12.5120   17.8910 C   0  0  0  0  0  2  0  0  0  0  0  0
  -28.2990  -12.4250   18.3450 C   0  0  0  0  0  2  0  0  0  0  0  0
  -27.9970  -13.2980   19.5940 C   0  0  0  0  0  3  0  0  0  0  0  0
  -29.0610  -13.0630   20.6900 C   0  0  0  0  0  2  0  0  0  0  0  0
  -30.3820  -13.3070   20.0930 N   0  0  0  0  0  0  0  0  0  0  0  0
  -32.2690  -14.5450   19.8160 O   0  0  0  0  0  0  0  0  0  0  0  0
  -30.8020  -17.7690   18.9760 C   0  0  0  0  0  2  0  0  0  0  0  0
  -29.0210  -17.5760   20.7560 C   0  0  0  0  0  2  0  0  0  0  0  0
  -30.3760  -16.3090   18.7580 C   0  0  0  0  0  2  0  0  0  0  0  0
  -29.8910  -16.3690   21.1910 C   0  0  0  0  0  2  0  0  0  0  0  0
  -29.7770  -18.5730   19.8180 C   0  0  0  0  0  3  0  0  0  0  0  0
  -30.3060  -15.5640   20.0280 N   0  0  0  0  0  0  0  0  0  0  0  0
  -25.6280  -13.9860   20.3280 C   0  0  0  0  0  0  0  0  0  0  0  0
  -24.5420  -13.2520   20.7160 C   0  0  0  0  0  0  0  0  0  0  0  0
  -24.9600  -11.8860   20.6890 C   0  0  0  0  0  0  0  0  0  0  0  0
  -26.6430  -13.0730   20.0920 N   0  0  0  0  0  0  0  0  0  0  0  0
  -26.2440  -11.8040   20.3650 N   0  0  0  0  0  0  0  0  0  0  0  0
  -24.1980  -10.6480   20.8960 C   0  0  0  0  0  0  0  0  0  0  0  0
  -24.5850   -9.6940   21.8600 C   0  0  0  0  0  3  0  0  0  0  0  0
  -23.8270   -8.5190   22.0490 C   0  0  0  0  0  3  0  0  0  0  0  0
  -22.6650   -8.2930   21.2740 C   0  0  0  0  0  0  0  0  0  0  0  0
  -22.2960   -9.2380   20.2980 C   0  0  0  0  0  3  0  0  0  0  0  0
  -23.0560  -10.4030   20.1070 C   0  0  0  0  0  3  0  0  0  0  0  0
  -21.8800   -7.1690   21.3710 O   0  0  0  0  0  0  0  0  0  0  0  0
  -21.7480   -6.4840   22.5530 C   0  0  0  0  0  0  0  0  0  0  0  0
  -21.2500   -7.1030   23.7200 C   0  0  0  0  0  3  0  0  0  0  0  0
  -21.0650   -6.3460   24.8940 C   0  0  0  0  0  3  0  0  0  0  0  0
  -21.3690   -4.9710   24.9000 C   0  0  0  0  0  0  0  0  0  0  0  0
  -21.8560   -4.3510   23.7360 C   0  0  0  0  0  3  0  0  0  0  0  0
  -22.0420   -5.1060   22.5640 C   0  0  0  0  0  0  0  0  0  0  0  0
  -22.4950   -4.5010   21.4400 F   0  0  0  0  0  0  0  0  0  0  0  0
  -21.1820   -4.2400   26.0240 F   0  0  0  0  0  0  0  0  0  0  0  0
  -23.1630  -13.7730   21.0070 C   0  0  0  0  0  0  0  0  0  0  0  0
  -22.4280  -13.1040   21.8880 N   0  0  0  0  0  0  0  0  0  0  0  0
  -22.7490  -14.8100   20.4890 O   0  0  0  0  0  0  0  0  0  0  0  0
  -22.7730  -12.2640   22.3290 H   0  0  0  0  0  0  0  0  0  0  0  0
  -21.5070  -13.4400   22.1280 H   0  0  0  0  0  0  0  0  0  0  0  0
  -25.8310  -15.3500   20.1370 N   0  0  0  0  0  0  0  0  0  0  0  0
  -25.0850  -16.0300   20.2300 H   0  0  0  0  0  0  0  0  0  0  0  0
  -26.6970  -15.7550   19.8040 H   0  0  0  0  0  0  0  0  0  0  0  0
  -30.5370  -24.7680   20.6820 C   0  0  0  0  0  2  0  0  0  0  0  0
  -30.5520  -26.0250   19.7810 C   0  0  0  0  0  3  0  0  0  0  0  0
  -31.9290  -26.3960   19.5110 N   0  0  0  0  0  0  0  0  0  0  0  0
  -32.3630  -26.7200   20.3700 H   0  0  0  0  0  0  0  0  0  0  0  0
  -31.9450  -27.2130   18.9090 H   0  0  0  0  0  0  0  0  0  0  0  0
  -29.7240  -27.1900   20.3680 C   0  0  0  0  0  2  0  0  0  0  0  0
  -28.4130  -26.6880   20.2160 O   0  0  0  0  0  0  0  0  0  0  0  0
  -24.6090  -31.9320   23.2730 C   0  0  0  0  0  0  0  0  0  0  0  0
  -27.3160  -27.5070   20.2560 C   0  0  0  0  0  0  0  0  0  0  0  0
  -23.4280  -30.5040   21.6340 C   0  0  0  0  0  3  0  0  0  0  0  0
  -24.9080  -28.9690   20.2430 C   0  0  0  0  0  0  0  0  0  0  0  0
  -25.9510  -30.8900   21.4530 C   0  0  0  0  0  2  0  0  0  0  0  0
  -26.0580  -29.5160   20.8290 C   0  0  0  0  0  0  0  0  0  0  0  0
  -27.2740  -28.7950   20.8360 C   0  0  0  0  0  3  0  0  0  0  0  0
  -26.1490  -26.9630   19.6890 C   0  0  0  0  0  3  0  0  0  0  0  0
  -24.9470  -27.6870   19.6700 C   0  0  0  0  0  3  0  0  0  0  0  0
  -23.6550  -29.8120   20.2660 C   0  0  0  0  0  2  0  0  0  0  0  0
  -24.6800  -31.1230   22.1780 N   0  0  0  0  0  0  0  0  0  0  0  0
  -23.5200  -32.2010   23.8010 O   0  0  0  0  0  0  0  0  0  0  0  0
  -22.7760  -29.4860   22.5990 C   0  0  0  0  0  0  0  0  0  0  0  0
  -21.4570  -29.2820   22.4490 N   0  0  0  0  0  0  0  0  0  0  0  0
  -23.4540  -28.8840   23.4350 O   0  0  0  0  0  0  0  0  0  0  0  0
  -20.9710  -29.8200   21.7460 H   0  0  0  0  0  0  0  0  0  0  0  0
  -18.0950  -28.0330   22.8870 C   0  0  0  0  0  0  0  0  0  0  0  0
  -20.6390  -28.3450   23.2190 C   0  0  0  0  0  3  0  0  0  0  0  0
  -20.7830  -26.9040   22.6760 C   0  0  0  0  0  2  0  0  0  0  0  0
  -19.7130  -26.5390   21.6430 C   0  0  0  0  0  2  0  0  0  0  0  0
  -18.3130  -26.6720   22.2480 C   0  0  0  0  0  2  0  0  0  0  0  0
  -19.1880  -28.8250   23.3300 C   0  0  0  0  0  0  0  0  0  0  0  0
  -18.9320  -30.0980   23.8850 C   0  0  0  0  0  3  0  0  0  0  0  0
  -17.6150  -30.5790   24.0050 C   0  0  0  0  0  3  0  0  0  0  0  0
  -16.5350  -29.7850   23.5810 C   0  0  0  0  0  3  0  0  0  0  0  0
  -16.7760  -28.5140   23.0280 C   0  0  0  0  0  3  0  0  0  0  0  0
  -25.8850  -32.5770   23.8980 C   0  0  0  0  0  3  0  0  0  0  0  0
  -25.5660  -33.9760   24.2060 N   0  0  0  0  0  0  0  0  0  0  0  0
  -25.9070  -35.0200   23.4370 C   0  0  0  0  0  0  0  0  0  0  0  0
  -26.5950  -34.9050   22.4190 O   0  0  0  0  0  0  0  0  0  0  0  0
  -24.9590  -34.1390   24.9950 H   0  0  0  0  0  0  0  0  0  0  0  0
  -24.1820  -36.8010   23.0230 C   0  0  0  0  0  1  0  0  0  0  0  0
  -25.4060  -36.4120   23.8670 C   0  0  0  0  0  3  0  0  0  0  0  0
  -27.5190  -37.3130   24.7350 C   0  0  0  0  0  1  0  0  0  0  0  0
  -26.4380  -37.4660   23.7650 N   0  0  0  0  0  0  0  0  0  0  0  0
  -26.0260  -38.3870   23.8930 H   0  0  0  0  0  0  0  0  0  0  0  0
  -26.3980  -31.8220   25.1850 C   0  0  1  0  0  0  0  0  0  0  0  0
  -25.2990  -31.5870   26.2480 C   0  0  0  0  0  1  0  0  0  0  0  0
  -26.9940  -30.4450   24.8070 C   0  0  0  0  0  1  0  0  0  0  0  0
  -27.5370  -32.6320   25.8470 C   0  0  0  0  0  1  0  0  0  0  0  0
  1 53  1  0
  2  1  1  0
  3  1  1  0
  5  4  1  0
  6  4  1  0
  7  1  1  0
  7  5  1  0
  8  9  1  0
  8 10  1  0
  8  7  1  0
 10  6  1  0
 12 17  1  0
 13 14  1  0
 13 12  1  0
 15 14  1  0
 15 28  1  0
 15 16  1  0
 17 11  1  0
 17 16  1  0
 18 11  2  0
 20 22  1  0
 21 19  1  0
 21 24  1  0
 23 19  1  0
 23 10  1  0
 23 20  1  0
 24 11  1  0
 24 22  1  0
 25 26  2  0
 26 45  1  0
 27 26  1  0
 27 30  1  0
 28 25  1  0
 28 29  1  0
 29 27  2  0
 30 31  1  0
 31 32  2  0
 33 36  1  0
 33 32  1  0
 34 33  2  0
 35 34  1  0
 35 30  2  0
 36 37  1  0
 37 42  2  0
 37 38  1  0
 38 39  2  0
 39 40  1  0
 40 44  1  0
 41 40  2  0
 42 41  1  0
 43 42  1  0
 45 46  1  0
 46 49  1  0
 46 48  1  0
 47 45  2  0
 50 51  1  0
 50 25  1  0
 52 50  1  0
 54 58  1  0
 54 53  1  0
 55 54  1  0
 55 56  1  0
 57 55  1  0
 59 61  1  0
 59 58  1  0
 60 71  2  0
 61 66  1  0
 62 70  1  0
 62 72  1  0
 63 69  1  0
 63 65  1  0
 64 70  1  0
 65 66  2  0
 65 64  1  0
 67 61  2  0
 68 67  1  0
 68 63  2  0
 69 62  1  0
 70 60  1  0
 72 74  2  0
 73 72  1  0
 75 73  1  0
 76 85  2  0
 76 81  1  0
 77 73  1  0
 77 81  1  0
 78 77  1  0
 79 80  1  0
 79 78  1  0
 80 76  1  0
 81 82  2  0
 82 83  1  0
 84 83  2  0
 85 84  1  0
 86 60  1  0
 86 87  1  0
 86 96  1  0
 87 90  1  0
 88 92  1  0
 88 87  1  0
 89 88  2  0
 92 91  1  0
 94 92  1  0
 94 95  1  0
 94 93  1  0
 96 99  1  1
 96 97  1  0
 98 96  1  0
M  ISO  4  11 100  24 100  58 101  59 101
M  END
>  <TORSDO>  (3) 
F 21

>  <SCORE>  (3) 
-13.727

>  <name>  (3) 
2

>  <ligand_id>  (3) 
2

>  <original_smiles>  (3) 
[H]c1c([H])c([H])c2c(c1[H])C([H])([H])C([H])([H])C([H])([H])C2([H])N([H])C(=O)C1([H])N(C(=O)C([H])(N([H])C(=O)C([H])(N([H])C([H])([H])[H])C([H])([H])[H])C(C([H])([H])[H])(C([H])([H])[H])C([H])([H])[H])C([H])([H])c2c([H])c(OC([H])([H])C([H])(N([H])[H])C([H])([H])[N+]([H])([H])C3([H])C([H])([H])C([H])([H])C([H])([H])N(C4([H])C([H])([H])C([H])([H])N(C(=O)N5C([H])([H])C([H])([H])C([H])([H])C([H])(n6nc(-c7c([H])c([H])c(Oc8c([H])c([H])c(F)c([H])c8F)c([H])c7[H])c(C(=O)N([H])[H])c6N([H])[H])C5([H])[H])C([H])([H])C4([H])[H])C3([H])C([H])([H])[H])c([H])c([H])c2C1([H])[H]

>  <smiles>  (3) 
[H]c1c([H])c([H])c2c(c1[H])C([H])([H])C([H])([H])C([H])([H])C2([H])N([H])C(=O)C1([H])N(C(=O)C([H])(N([H])C(=O)C([H])(N([H])C([H])([H])[H])C([H])([H])[H])C(C([H])([H])[H])(C([H])([H])[H])C([H])([H])[H])C([H])([H])c2c([H])c(OC([H])([H])C([H])(N([H])[H])C([H])([H])[N+]([H])([H])C3([H])C([H])([H])C([H])([H])C([H])([H])N(C4([H])C([H])([H])C([H])([H])N(C(=O)N5C([H])([H])C([H])([H])C([H])([H])C([H])(n6nc(-c7c([H])c([H])c(Oc8c([H])c([H])c(F)c([H])c8F)c([H])c7[H])c(C(=O)N([H])[H])c6N([H])[H])C5([H])[H])C([H])([H])C4([H])[H])C3([H])C([H])([H])[H])c([H])c([H])c2C1([H])[H]

$$$$
3:0:0
     RDKit          3D

 94103  0  0  1  0  0  0  0  0999 V2000
  -29.3760  -23.1240   21.7150 C   0  0  0  0  0  3  0  0  0  0  0  0
  -28.8050  -23.9450   20.7140 C   0  0  0  0  0  0  0  0  0  0  0  0
  -28.6660  -23.2830   19.4740 C   0  0  0  0  0  0  0  0  0  0  0  0
  -29.6540  -21.3170   20.2860 C   0  0  0  0  0  0  0  0  0  0  0  0
  -27.9800  -23.9410   18.2950 C   0  0  0  0  0  1  0  0  0  0  0  0
  -29.7740  -21.8410   21.5060 N   0  0  0  0  0  0  0  0  0  0  0  0
  -29.1040  -22.0050   19.2740 N   0  0  0  0  0  0  0  0  0  0  0  0
  -28.2050  -25.3460   21.0990 C   0  0  0  0  0  2  0  0  0  0  0  0
  -28.4180  -26.5420   20.2760 O   0  0  0  0  0  0  0  0  0  0  0  0
  -24.5970  -31.8810   23.2410 C   0  0  0  0  0  0  0  0  0  0  0  0
  -27.3150  -27.3960   20.2260 C   0  0  0  0  0  0  0  0  0  0  0  0
  -23.4330  -30.4720   21.5800 C   0  0  0  0  0  3  0  0  0  0  0  0
  -24.9260  -28.9480   20.1740 C   0  0  0  0  0  0  0  0  0  0  0  0
  -25.9650  -30.8380   21.4270 C   0  0  0  0  0  2  0  0  0  0  0  0
  -26.0780  -29.4630   20.7860 C   0  0  0  0  0  0  0  0  0  0  0  0
  -27.2790  -28.6970   20.8050 C   0  0  0  0  0  3  0  0  0  0  0  0
  -26.1450  -26.9250   19.5930 C   0  0  0  0  0  3  0  0  0  0  0  0
  -24.9590  -27.6820   19.5710 C   0  0  0  0  0  3  0  0  0  0  0  0
  -23.6740  -29.8010   20.2030 C   0  0  0  0  0  2  0  0  0  0  0  0
  -24.6830  -31.0800   22.1410 N   0  0  0  0  0  0  0  0  0  0  0  0
  -23.5030  -32.1440   23.7610 O   0  0  0  0  0  0  0  0  0  0  0  0
  -22.7710  -29.4440   22.5290 C   0  0  0  0  0  0  0  0  0  0  0  0
  -21.4440  -29.2690   22.3950 N   0  0  0  0  0  0  0  0  0  0  0  0
  -23.4470  -28.8080   23.3390 O   0  0  0  0  0  0  0  0  0  0  0  0
  -20.9580  -29.8350   21.7150 H   0  0  0  0  0  0  0  0  0  0  0  0
  -18.0600  -28.1070   22.9060 C   0  0  0  0  0  0  0  0  0  0  0  0
  -20.6240  -28.3270   23.1570 C   0  0  0  0  0  3  0  0  0  0  0  0
  -20.7020  -26.9050   22.5520 C   0  0  0  0  0  2  0  0  0  0  0  0
  -19.5850  -26.6180   21.5430 C   0  0  0  0  0  2  0  0  0  0  0  0
  -18.2110  -26.7700   22.2020 C   0  0  0  0  0  2  0  0  0  0  0  0
  -19.1920  -28.8450   23.3410 C   0  0  0  0  0  0  0  0  0  0  0  0
  -18.9940  -30.0990   23.9590 C   0  0  0  0  0  3  0  0  0  0  0  0
  -17.6980  -30.6120   24.1470 C   0  0  0  0  0  3  0  0  0  0  0  0
  -16.5810  -29.8710   23.7280 C   0  0  0  0  0  3  0  0  0  0  0  0
  -16.7630  -28.6210   23.1110 C   0  0  0  0  0  3  0  0  0  0  0  0
  -25.8650  -32.5240   23.8830 C   0  0  0  0  0  3  0  0  0  0  0  0
  -26.3520  -31.7730   25.1820 C   0  0  1  0  0  0  0  0  0  0  0  0
  -25.2330  -31.5450   26.2260 C   0  0  0  0  0  1  0  0  0  0  0  0
  -26.9510  -30.3930   24.8230 C   0  0  0  0  0  1  0  0  0  0  0  0
  -27.4820  -32.5810   25.8620 C   0  0  0  0  0  1  0  0  0  0  0  0
  -25.5470  -33.9260   24.1850 N   0  0  0  0  0  0  0  0  0  0  0  0
  -25.8980  -34.9680   23.4200 C   0  0  0  0  0  0  0  0  0  0  0  0
  -26.5930  -34.8500   22.4080 O   0  0  0  0  0  0  0  0  0  0  0  0
  -24.9360  -34.0910   24.9720 H   0  0  0  0  0  0  0  0  0  0  0  0
  -24.1880  -36.7590   22.9850 C   0  0  0  0  0  1  0  0  0  0  0  0
  -25.3990  -36.3630   23.8440 C   0  0  0  0  0  3  0  0  0  0  0  0
  -27.5000  -37.2560   24.7450 C   0  0  0  0  0  1  0  0  0  0  0  0
  -26.4380  -37.4120   23.7560 N   0  0  0  0  0  0  0  0  0  0  0  0
  -26.0290  -38.3340   23.8760 H   0  0  0  0  0  0  0  0  0  0  0  0
  -30.4080  -19.9620   19.9630 C   0  0  0  0  0  3  0  0  0  0  0  0
  -29.9530  -17.9660   21.7550 C   0  0  0  0  0  2  0  0  0  0  0  0
  -29.8000  -18.5490   20.3800 C   0  0  0  0  0  3  0  0  0  0  0  0
  -30.6050  -17.1990   20.6120 C   0  0  0  0  0  3  0  0  0  0  0  0
  -30.8390  -14.7160   20.0310 C   0  0  0  0  0  0  0  0  0  0  0  0
  -30.5300  -12.5080   18.9360 C   0  0  0  0  0  2  0  0  0  0  0  0
  -29.5240  -12.6490   17.7750 C   0  0  0  0  0  2  0  0  0  0  0  0
  -28.0750  -12.4870   18.2800 C   0  0  0  0  0  2  0  0  0  0  0  0
  -27.7870  -13.3330   19.5500 C   0  0  0  0  0  3  0  0  0  0  0  0
  -28.9070  -13.1780   20.5990 C   0  0  0  0  0  2  0  0  0  0  0  0
  -30.1770  -13.5200   19.9470 N   0  0  0  0  0  0  0  0  0  0  0  0
  -31.9940  -14.8340   19.6120 O   0  0  0  0  0  0  0  0  0  0  0  0
  -30.1160  -15.8150   20.4210 N   0  0  0  0  0  0  0  0  0  0  0  0
  -29.1510  -15.6370   20.6520 H   0  0  0  0  0  0  0  0  0  0  0  0
  -25.4490  -13.9250   20.4270 C   0  0  0  0  0  0  0  0  0  0  0  0
  -24.4000  -13.1490   20.8370 C   0  0  0  0  0  0  0  0  0  0  0  0
  -24.8480  -11.7940   20.7390 C   0  0  0  0  0  0  0  0  0  0  0  0
  -26.4700  -13.0450   20.1070 N   0  0  0  0  0  0  0  0  0  0  0  0
  -26.1190  -11.7570   20.3550 N   0  0  0  0  0  0  0  0  0  0  0  0
  -24.1210  -10.5310   20.9310 C   0  0  0  0  0  0  0  0  0  0  0  0
  -24.5410   -9.5770   21.8830 C   0  0  0  0  0  3  0  0  0  0  0  0
  -23.8170   -8.3800   22.0660 C   0  0  0  0  0  3  0  0  0  0  0  0
  -22.6570   -8.1290   21.2930 C   0  0  0  0  0  0  0  0  0  0  0  0
  -22.2570   -9.0720   20.3310 C   0  0  0  0  0  3  0  0  0  0  0  0
  -22.9820  -10.2610   20.1480 C   0  0  0  0  0  3  0  0  0  0  0  0
  -21.9040   -6.9840   21.3830 O   0  0  0  0  0  0  0  0  0  0  0  0
  -21.7660   -6.3030   22.5660 C   0  0  0  0  0  0  0  0  0  0  0  0
  -21.2070   -6.9080   23.7130 C   0  0  0  0  0  3  0  0  0  0  0  0
  -21.0200   -6.1510   24.8870 C   0  0  0  0  0  3  0  0  0  0  0  0
  -21.3830   -4.7900   24.9150 C   0  0  0  0  0  0  0  0  0  0  0  0
  -21.9320   -4.1850   23.7720 C   0  0  0  0  0  3  0  0  0  0  0  0
  -22.1220   -4.9400   22.6000 C   0  0  0  0  0  0  0  0  0  0  0  0
  -22.6340   -4.3460   21.4950 F   0  0  0  0  0  0  0  0  0  0  0  0
  -21.1950   -4.0630   26.0400 F   0  0  0  0  0  0  0  0  0  0  0  0
  -23.0240  -13.6260   21.2000 C   0  0  0  0  0  0  0  0  0  0  0  0
  -22.3400  -12.9060   22.0820 N   0  0  0  0  0  0  0  0  0  0  0  0
  -22.5670  -14.6720   20.7370 O   0  0  0  0  0  0  0  0  0  0  0  0
  -22.7270  -12.0600   22.4730 H   0  0  0  0  0  0  0  0  0  0  0  0
  -21.4190  -13.2050   22.3680 H   0  0  0  0  0  0  0  0  0  0  0  0
  -25.6160  -15.3020   20.2770 N   0  0  0  0  0  0  0  0  0  0  0  0
  -24.8600  -15.9570   20.4450 H   0  0  0  0  0  0  0  0  0  0  0  0
  -26.4330  -15.7390   19.8720 H   0  0  0  0  0  0  0  0  0  0  0  0
  -32.7200  -19.3710   18.9380 C   0  0  0  0  0  1  0  0  0  0  0  0
  -32.6240  -19.9960   21.4210 C   0  0  0  0  0  1  0  0  0  0  0  0
  -31.9640  -20.1530   20.0330 C   0  0  0  0  0  3  0  0  0  0  0  0
  2  8  1  0
  2  1  2  0
  3  2  1  0
  4  6  2  0
  5  3  1  0
  6  1  1  0
  7  3  2  0
  7  4  1  0
  9  8  1  0
 10 21  2  0
 11  9  1  0
 11 16  1  0
 12 20  1  0
 12 22  1  0
 13 19  1  0
 13 15  1  0
 14 20  1  0
 15 16  2  0
 15 14  1  0
 17 11  2  0
 18 17  1  0
 18 13  2  0
 19 12  1  0
 20 10  1  0
 22 24  2  0
 23 22  1  0
 25 23  1  0
 26 35  2  0
 26 31  1  0
 27 23  1  0
 27 31  1  0
 28 27  1  0
 29 30  1  0
 29 28  1  0
 30 26  1  0
 31 32  2  0
 32 33  1  0
 34 33  2  0
 35 34  1  0
 36 10  1  0
 36 41  1  0
 36 37  1  0
 37 40  1  1
 37 38  1  0
 39 37  1  0
 41 44  1  0
 42 46  1  0
 42 41  1  0
 43 42  2  0
 46 45  1  0
 48 46  1  0
 48 49  1  0
 48 47  1  0
 50 94  1  0
 50  4  1  0
 52 50  1  0
 52 53  1  0
 52 51  1  0
 53 62  1  0
 53 51  1  0
 54 62  1  0
 55 60  1  0
 56 57  1  0
 56 55  1  0
 58 57  1  0
 58 67  1  0
 58 59  1  0
 60 54  1  0
 60 59  1  0
 61 54  2  0
 62 63  1  0
 64 65  2  0
 65 84  1  0
 66 65  1  0
 66 69  1  0
 67 68  1  0
 67 64  1  0
 68 66  2  0
 69 70  1  0
 70 71  2  0
 72 75  1  0
 72 71  1  0
 73 72  2  0
 74 73  1  0
 74 69  2  0
 75 76  1  0
 76 81  2  0
 76 77  1  0
 77 78  2  0
 78 79  1  0
 79 83  1  0
 80 79  2  0
 81 80  1  0
 82 81  1  0
 84 85  1  0
 85 88  1  0
 85 87  1  0
 86 84  2  0
 89 64  1  0
 89 90  1  0
 91 89  1  0
 92 94  1  0
 94 93  1  0
M  ISO  4   8 101   9 101  54 100  62 100
M  END
>  <TORSDO>  (4) 
F 20

>  <SCORE>  (4) 
-13.676

>  <name>  (4) 
3

>  <ligand_id>  (4) 
3

>  <original_smiles>  (4) 
[H]c1nc(C([H])(C([H])(C([H])([H])[H])C([H])([H])[H])C2([H])C([H])([H])C2([H])N([H])C(=O)N2C([H])([H])C([H])([H])C([H])([H])C([H])(n3nc(-c4c([H])c([H])c(Oc5c([H])c([H])c(F)c([H])c5F)c([H])c4[H])c(C(=O)N([H])[H])c3N([H])[H])C2([H])[H])nc(C([H])([H])[H])c1C([H])([H])Oc1c([H])c([H])c2c(c1[H])C([H])([H])N(C(=O)C([H])(N([H])C(=O)C([H])(N([H])C([H])([H])[H])C([H])([H])[H])C(C([H])([H])[H])(C([H])([H])[H])C([H])([H])[H])C([H])(C(=O)N([H])C1([H])c3c([H])c([H])c([H])c([H])c3C([H])([H])C([H])([H])C1([H])[H])C2([H])[H]

>  <smiles>  (4) 
[H]c1nc(C([H])(C([H])(C([H])([H])[H])C([H])([H])[H])C2([H])C([H])([H])C2([H])N([H])C(=O)N2C([H])([H])C([H])([H])C([H])([H])C([H])(n3nc(-c4c([H])c([H])c(Oc5c([H])c([H])c(F)c([H])c5F)c([H])c4[H])c(C(=O)N([H])[H])c3N([H])[H])C2([H])[H])nc(C([H])([H])[H])c1C([H])([H])Oc1c([H])c([H])c2c(c1[H])C([H])([H])N(C(=O)C([H])(N([H])C(=O)C([H])(N([H])C([H])([H])[H])C([H])([H])[H])C(C([H])([H])[H])(C([H])([H])[H])C([H])([H])[H])C([H])(C(=O)N([H])C1([H])c3c([H])c([H])c([H])c([H])c3C([H])([H])C([H])([H])C1([H])[H])C2([H])[H]

$$$$
4:0:0
     RDKit          3D

 98107  0  0  1  0  0  0  0  0999 V2000
  -29.3960  -18.1930   19.0560 C   0  0  0  0  0  3  0  0  0  0  0  0
  -29.9210  -18.1260   20.3610 C   0  0  0  0  0  0  0  0  0  0  0  0
  -28.9120  -19.4230   18.5590 C   0  0  0  0  0  0  0  0  0  0  0  0
  -29.9050  -19.3220   21.1200 C   0  0  0  0  0  0  0  0  0  0  0  0
  -28.9670  -20.5730   19.3830 C   0  0  0  0  0  0  0  0  0  0  0  0
  -30.4180  -19.3530   22.5470 C   0  0  0  0  0  2  0  0  0  0  0  0
  -31.4070  -18.2240   22.8510 C   0  0  0  0  0  2  0  0  0  0  0  0
  -30.5960  -16.8350   20.8820 C   0  0  0  0  0  3  0  0  0  0  0  0
  -30.8770  -16.8450   22.4110 C   0  0  0  0  0  3  0  0  0  0  0  0
  -28.3720  -19.4870   17.1380 C   0  0  0  0  0  1  0  0  0  0  0  0
  -29.4420  -20.5070   20.6490 N   0  0  0  0  0  0  0  0  0  0  0  0
  -30.4670  -14.6280   19.6660 C   0  0  0  0  0  0  0  0  0  0  0  0
  -29.9730  -12.5660   18.4020 C   0  0  0  0  0  2  0  0  0  0  0  0
  -28.8900  -12.8540   17.3420 C   0  0  0  0  0  2  0  0  0  0  0  0
  -27.4820  -12.6910   17.9470 C   0  0  0  0  0  2  0  0  0  0  0  0
  -27.3190  -13.4430   19.2940 C   0  0  0  0  0  3  0  0  0  0  0  0
  -28.5020  -13.1480   20.2440 C   0  0  0  0  0  2  0  0  0  0  0  0
  -29.7460  -13.4820   19.5320 N   0  0  0  0  0  0  0  0  0  0  0  0
  -31.5000  -14.8390   19.0260 O   0  0  0  0  0  0  0  0  0  0  0  0
  -29.9480  -15.5670   20.4850 N   0  0  0  0  0  0  0  0  0  0  0  0
  -29.0870  -15.3260   20.9520 H   0  0  0  0  0  0  0  0  0  0  0  0
  -25.0220  -14.0090   20.3050 C   0  0  0  0  0  0  0  0  0  0  0  0
  -24.0060  -13.2190   20.7690 C   0  0  0  0  0  0  0  0  0  0  0  0
  -24.4610  -11.8710   20.6320 C   0  0  0  0  0  0  0  0  0  0  0  0
  -26.0330  -13.1440   19.9190 N   0  0  0  0  0  0  0  0  0  0  0  0
  -25.7050  -11.8500   20.1720 N   0  0  0  0  0  0  0  0  0  0  0  0
  -23.7640  -10.5990   20.8590 C   0  0  0  0  0  0  0  0  0  0  0  0
  -24.2760   -9.6240   21.7430 C   0  0  0  0  0  3  0  0  0  0  0  0
  -23.5780   -8.4150   21.9580 C   0  0  0  0  0  3  0  0  0  0  0  0
  -22.3550   -8.1740   21.2900 C   0  0  0  0  0  0  0  0  0  0  0  0
  -21.8610   -9.1380   20.3950 C   0  0  0  0  0  3  0  0  0  0  0  0
  -22.5590  -10.3390   20.1770 C   0  0  0  0  0  3  0  0  0  0  0  0
  -21.6200   -7.0200   21.4180 O   0  0  0  0  0  0  0  0  0  0  0  0
  -21.6360   -6.2810   22.5740 C   0  0  0  0  0  0  0  0  0  0  0  0
  -21.2300   -6.8250   23.8120 C   0  0  0  0  0  3  0  0  0  0  0  0
  -21.1960   -6.0100   24.9620 C   0  0  0  0  0  3  0  0  0  0  0  0
  -21.5590   -4.6530   24.8750 C   0  0  0  0  0  0  0  0  0  0  0  0
  -21.9590   -4.1090   23.6420 C   0  0  0  0  0  3  0  0  0  0  0  0
  -21.9940   -4.9210   22.4940 C   0  0  0  0  0  0  0  0  0  0  0  0
  -22.3600   -4.3850   21.3040 F   0  0  0  0  0  0  0  0  0  0  0  0
  -21.5190   -3.8680   25.9770 F   0  0  0  0  0  0  0  0  0  0  0  0
  -22.6510  -13.6770   21.2240 C   0  0  0  0  0  0  0  0  0  0  0  0
  -22.0400  -12.9520   22.1540 N   0  0  0  0  0  0  0  0  0  0  0  0
  -22.1490  -14.7130   20.7920 O   0  0  0  0  0  0  0  0  0  0  0  0
  -22.4610  -12.1120   22.5220 H   0  0  0  0  0  0  0  0  0  0  0  0
  -21.1360  -13.2380   22.5010 H   0  0  0  0  0  0  0  0  0  0  0  0
  -25.1640  -15.3870   20.1600 N   0  0  0  0  0  0  0  0  0  0  0  0
  -24.4160  -16.0330   20.3840 H   0  0  0  0  0  0  0  0  0  0  0  0
  -25.9720  -15.8410   19.7530 H   0  0  0  0  0  0  0  0  0  0  0  0
  -32.0100  -15.5300   24.3440 C   0  0  0  0  0  1  0  0  0  0  0  0
  -31.8480  -15.7120   22.8270 C   0  0  0  0  0  2  0  0  0  0  0  0
  -28.5310  -21.9580   18.8710 C   0  0  0  0  0  2  0  0  0  0  0  0
  -28.5850  -23.0320   19.8930 N   0  0  0  0  0  4  0  0  0  0  0  0
  -29.4720  -22.9150   20.3580 H   0  0  0  0  0  0  0  0  0  0  0  0
  -27.8770  -22.8110   20.5760 H   0  0  0  0  0  0  0  0  0  0  0  0
  -28.4150  -24.4220   19.3600 C   0  0  0  0  0  2  0  0  0  0  0  0
  -28.3350  -25.5170   20.4580 C   0  0  0  0  0  2  0  0  0  0  0  0
  -28.3870  -26.8670   19.9470 O   0  0  0  0  0  0  0  0  0  0  0  0
  -24.5930  -31.9310   23.2430 C   0  0  0  0  0  0  0  0  0  0  0  0
  -27.2150  -27.5940   19.9910 C   0  0  0  0  0  0  0  0  0  0  0  0
  -23.3750  -30.5840   21.5650 C   0  0  0  0  0  3  0  0  0  0  0  0
  -24.8170  -29.0950   20.0770 C   0  0  0  0  0  0  0  0  0  0  0  0
  -25.8970  -30.9550   21.3530 C   0  0  0  0  0  2  0  0  0  0  0  0
  -25.9820  -29.6060   20.6640 C   0  0  0  0  0  0  0  0  0  0  0  0
  -27.1860  -28.8660   20.6110 C   0  0  0  0  0  3  0  0  0  0  0  0
  -26.0330  -27.0970   19.4020 C   0  0  0  0  0  3  0  0  0  0  0  0
  -24.8380  -27.8400   19.4430 C   0  0  0  0  0  3  0  0  0  0  0  0
  -23.5730  -29.9510   20.1620 C   0  0  0  0  0  2  0  0  0  0  0  0
  -24.6410  -31.1700   22.1130 N   0  0  0  0  0  0  0  0  0  0  0  0
  -23.5160  -32.1810   23.8020 O   0  0  0  0  0  0  0  0  0  0  0  0
  -22.7340  -29.5290   22.4940 C   0  0  0  0  0  0  0  0  0  0  0  0
  -21.4120  -29.3330   22.3570 N   0  0  0  0  0  0  0  0  0  0  0  0
  -23.4230  -28.8920   23.2960 O   0  0  0  0  0  0  0  0  0  0  0  0
  -20.9160  -29.8990   21.6830 H   0  0  0  0  0  0  0  0  0  0  0  0
  -18.0560  -28.0680   22.7960 C   0  0  0  0  0  0  0  0  0  0  0  0
  -20.6060  -28.3630   23.0990 C   0  0  0  0  0  3  0  0  0  0  0  0
  -20.7380  -26.9480   22.4900 C   0  0  0  0  0  2  0  0  0  0  0  0
  -19.6520  -26.6310   21.4600 C   0  0  0  0  0  2  0  0  0  0  0  0
  -18.2610  -26.7370   22.0930 C   0  0  0  0  0  2  0  0  0  0  0  0
  -19.1570  -28.8390   23.2540 C   0  0  0  0  0  0  0  0  0  0  0  0
  -18.9110  -30.0860   23.8680 C   0  0  0  0  0  3  0  0  0  0  0  0
  -17.5970  -30.5620   24.0330 C   0  0  0  0  0  3  0  0  0  0  0  0
  -16.5100  -29.7870   23.5920 C   0  0  0  0  0  3  0  0  0  0  0  0
  -16.7400  -28.5420   22.9800 C   0  0  0  0  0  3  0  0  0  0  0  0
  -25.8840  -32.5440   23.8720 C   0  0  0  0  0  3  0  0  0  0  0  0
  -25.5870  -33.9400   24.2190 N   0  0  0  0  0  0  0  0  0  0  0  0
  -25.9250  -34.9980   23.4680 C   0  0  0  0  0  0  0  0  0  0  0  0
  -26.5910  -34.9000   22.4330 O   0  0  0  0  0  0  0  0  0  0  0  0
  -24.9960  -34.0920   25.0220 H   0  0  0  0  0  0  0  0  0  0  0  0
  -24.2120  -36.8080   23.1320 C   0  0  0  0  0  1  0  0  0  0  0  0
  -25.4480  -36.3840   23.9400 C   0  0  0  0  0  3  0  0  0  0  0  0
  -27.5860  -37.2450   24.7890 C   0  0  0  0  0  1  0  0  0  0  0  0
  -26.4900  -37.4300   23.8410 N   0  0  0  0  0  0  0  0  0  0  0  0
  -26.0900  -38.3520   23.9970 H   0  0  0  0  0  0  0  0  0  0  0  0
  -26.3950  -31.7520   25.1380 C   0  0  1  0  0  0  0  0  0  0  0  0
  -25.3000  -31.5020   26.2020 C   0  0  0  0  0  1  0  0  0  0  0  0
  -26.9750  -30.3780   24.7250 C   0  0  0  0  0  1  0  0  0  0  0  0
  -27.5490  -32.5310   25.8120 C   0  0  0  0  0  1  0  0  0  0  0  0
  1  2  1  0
  2  8  1  0
  2  4  2  0
  3  1  2  0
  3  5  1  0
  4  6  1  0
  5 11  2  0
  6  7  1  0
  8 20  1  0
  8  9  1  0
  9 51  1  0
  9  7  1  0
 10  3  1  0
 11  4  1  0
 12 20  1  0
 13 18  1  0
 14 15  1  0
 14 13  1  0
 16 15  1  0
 16 25  1  0
 16 17  1  0
 18 12  1  0
 18 17  1  0
 19 12  2  0
 20 21  1  0
 22 23  2  0
 23 42  1  0
 24 23  1  0
 24 27  1  0
 25 26  1  0
 25 22  1  0
 26 24  2  0
 27 28  1  0
 28 29  2  0
 30 33  1  0
 30 29  1  0
 31 30  2  0
 32 31  1  0
 32 27  2  0
 33 34  1  0
 34 35  1  0
 35 36  2  0
 37 36  1  0
 37 41  1  0
 38 37  2  0
 39 34  2  0
 39 38  1  0
 40 39  1  0
 42 43  1  0
 43 46  1  0
 43 45  1  0
 44 42  2  0
 47 22  1  0
 47 48  1  0
 49 47  1  0
 51 50  1  0
 52  5  1  0
 52 53  1  0
 53 54  1  0
 53 55  1  0
 56 53  1  0
 56 57  1  0
 58 60  1  0
 58 57  1  0
 59 70  2  0
 60 65  1  0
 61 69  1  0
 61 71  1  0
 62 68  1  0
 62 64  1  0
 63 69  1  0
 64 63  1  0
 65 64  2  0
 66 67  1  0
 66 60  2  0
 67 62  2  0
 68 61  1  0
 69 59  1  0
 71 73  2  0
 72 71  1  0
 74 72  1  0
 75 84  2  0
 75 80  1  0
 76 72  1  0
 76 80  1  0
 77 76  1  0
 78 79  1  0
 78 77  1  0
 79 75  1  0
 80 81  2  0
 81 82  1  0
 83 82  2  0
 84 83  1  0
 85 59  1  0
 85 86  1  0
 85 95  1  0
 86 89  1  0
 87 91  1  0
 87 86  1  0
 88 87  2  0
 91 90  1  0
 93 91  1  0
 93 94  1  0
 93 92  1  0
 95 98  1  1
 95 96  1  0
 97 95  1  0
M  ISO  4  12 100  20 100  57 101  58 101
M  END
>  <TORSDO>  (5) 
F 21

>  <SCORE>  (5) 
-5.331

>  <name>  (5) 
4

>  <ligand_id>  (5) 
4

>  <original_smiles>  (5) 
[H]c1c([H])c([H])c2c(c1[H])C([H])([H])C([H])([H])C([H])([H])C2([H])N([H])C(=O)C1([H])N(C(=O)C([H])(N([H])C(=O)C([H])(N([H])C([H])([H])[H])C([H])([H])[H])C(C([H])([H])[H])(C([H])([H])[H])C([H])([H])[H])C([H])([H])c2c([H])c(OC([H])([H])C([H])([H])[N+]([H])([H])C([H])([H])c3nc4c(c([H])c3C([H])([H])[H])C([H])(N([H])C(=O)N3C([H])([H])C([H])([H])C([H])([H])C([H])(n5nc(-c6c([H])c([H])c(Oc7c([H])c([H])c(F)c([H])c7F)c([H])c6[H])c(C(=O)N([H])[H])c5N([H])[H])C3([H])[H])C([H])(C([H])([H])C([H])([H])[H])C([H])([H])C4([H])[H])c([H])c([H])c2C1([H])[H]

>  <smiles>  (5) 
[H]c1c([H])c([H])c2c(c1[H])C([H])([H])C([H])([H])C([H])([H])C2([H])N([H])C(=O)C1([H])N(C(=O)C([H])(N([H])C(=O)C([H])(N([H])C([H])([H])[H])C([H])([H])[H])C(C([H])([H])[H])(C([H])([H])[H])C([H])([H])[H])C([H])([H])c2c([H])c(OC([H])([H])C([H])([H])[N+]([H])([H])C([H])([H])c3nc4c(c([H])c3C([H])([H])[H])C([H])(N([H])C(=O)N3C([H])([H])C([H])([H])C([H])([H])C([H])(n5nc(-c6c([H])c([H])c(Oc7c([H])c([H])c(F)c([H])c7F)c([H])c6[H])c(C(=O)N([H])[H])c5N([H])[H])C3([H])[H])C([H])(C([H])([H])C([H])([H])[H])C([H])([H])C4([H])[H])c([H])c([H])c2C1([H])[H]

$$$$
5:0:0
     RDKit          3D

 96106  0  0  1  0  0  0  0  0999 V2000
  -30.7850  -19.3110   20.9580 C   0  0  0  0  0  3  0  0  0  0  0  0
  -30.5460  -19.4290   23.7920 C   0  0  0  0  0  3  0  0  0  0  0  0
  -30.3340  -20.4760   21.6090 C   0  0  0  0  0  0  0  0  0  0  0  0
  -30.2390  -20.5330   22.9790 C   0  0  0  0  0  0  0  0  0  0  0  0
  -31.1520  -18.1860   21.7470 C   0  0  0  0  0  0  0  0  0  0  0  0
  -31.0090  -18.2420   23.1660 C   0  0  0  0  0  0  0  0  0  0  0  0
  -29.9770  -21.7990   21.0230 C   0  0  0  0  0  0  0  0  0  0  0  0
  -29.8170  -21.9290   23.3610 C   0  0  0  0  0  2  0  0  0  0  0  0
  -31.3950  -17.0600   24.0410 C   0  0  0  0  0  1  0  0  0  0  0  0
  -29.6530  -22.6230   22.0580 N   0  0  0  0  0  0  0  0  0  0  0  0
  -30.0330  -22.0600   19.8180 O   0  0  0  0  0  0  0  0  0  0  0  0
  -28.1480  -24.5400   22.7190 C   0  0  0  0  0  2  0  0  0  0  0  0
  -27.4910  -25.5430   21.7670 C   0  0  0  0  0  2  0  0  0  0  0  0
  -29.4910  -24.8370   20.6980 C   0  0  0  0  0  2  0  0  0  0  0  0
  -29.4790  -24.0980   22.0640 C   0  0  0  0  0  3  0  0  0  0  0  0
  -28.6310  -26.0990   20.8970 C   0  0  0  0  0  3  0  0  0  0  0  0
  -28.2450  -26.7020   19.6480 O   0  0  0  0  0  0  0  0  0  0  0  0
  -24.6770  -31.6740   23.2960 C   0  0  0  0  0  0  0  0  0  0  0  0
  -27.1480  -27.5280   19.7220 C   0  0  0  0  0  0  0  0  0  0  0  0
  -23.4020  -30.4690   21.5510 C   0  0  0  0  0  3  0  0  0  0  0  0
  -24.7930  -29.0630   19.9360 C   0  0  0  0  0  0  0  0  0  0  0  0
  -25.9290  -30.8010   21.3280 C   0  0  0  0  0  2  0  0  0  0  0  0
  -25.9730  -29.5030   20.5520 C   0  0  0  0  0  0  0  0  0  0  0  0
  -27.1570  -28.7370   20.4520 C   0  0  0  0  0  3  0  0  0  0  0  0
  -25.9650  -27.1120   19.0830 C   0  0  0  0  0  3  0  0  0  0  0  0
  -24.7820  -27.8650   19.2000 C   0  0  0  0  0  3  0  0  0  0  0  0
  -23.5660  -29.9290   20.1040 C   0  0  0  0  0  2  0  0  0  0  0  0
  -24.6890  -30.9890   22.1170 N   0  0  0  0  0  0  0  0  0  0  0  0
  -23.6150  -31.9110   23.8870 O   0  0  0  0  0  0  0  0  0  0  0  0
  -22.7520  -29.3690   22.4190 C   0  0  0  0  0  0  0  0  0  0  0  0
  -21.4230  -29.2240   22.3000 N   0  0  0  0  0  0  0  0  0  0  0  0
  -23.4380  -28.6550   23.1550 O   0  0  0  0  0  0  0  0  0  0  0  0
  -20.9310  -29.8540   21.6820 H   0  0  0  0  0  0  0  0  0  0  0  0
  -18.0390  -28.0260   22.7220 C   0  0  0  0  0  0  0  0  0  0  0  0
  -20.6020  -28.2280   22.9900 C   0  0  0  0  0  3  0  0  0  0  0  0
  -20.6800  -26.8560   22.2830 C   0  0  0  0  0  2  0  0  0  0  0  0
  -19.5660  -26.6410   21.2550 C   0  0  0  0  0  2  0  0  0  0  0  0
  -18.1910  -26.7430   21.9220 C   0  0  0  0  0  2  0  0  0  0  0  0
  -19.1710  -28.7330   23.2090 C   0  0  0  0  0  0  0  0  0  0  0  0
  -18.9740  -29.9390   23.9150 C   0  0  0  0  0  3  0  0  0  0  0  0
  -17.6770  -30.4400   24.1370 C   0  0  0  0  0  3  0  0  0  0  0  0
  -16.5590  -29.7280   23.6670 C   0  0  0  0  0  3  0  0  0  0  0  0
  -16.7410  -28.5220   22.9670 C   0  0  0  0  0  3  0  0  0  0  0  0
  -25.9920  -32.2120   23.9430 C   0  0  0  0  0  3  0  0  0  0  0  0
  -25.7250  -33.5750   24.4180 N   0  0  0  0  0  0  0  0  0  0  0  0
  -26.0790  -34.6910   23.7660 C   0  0  0  0  0  0  0  0  0  0  0  0
  -26.7380  -34.6760   22.7230 O   0  0  0  0  0  0  0  0  0  0  0  0
  -25.1450  -33.6620   25.2400 H   0  0  0  0  0  0  0  0  0  0  0  0
  -24.3850  -36.5430   23.6280 C   0  0  0  0  0  1  0  0  0  0  0  0
  -25.6330  -36.0360   24.3680 C   0  0  0  0  0  3  0  0  0  0  0  0
  -27.7990  -36.7950   25.2420 C   0  0  0  0  0  1  0  0  0  0  0  0
  -26.6870  -37.0740   24.3350 N   0  0  0  0  0  0  0  0  0  0  0  0
  -26.3050  -37.9850   24.5750 H   0  0  0  0  0  0  0  0  0  0  0  0
  -26.5250  -31.3030   25.1180 C   0  0  1  0  0  0  0  0  0  0  0  0
  -25.4580  -30.9880   26.1930 C   0  0  0  0  0  1  0  0  0  0  0  0
  -27.0540  -29.9570   24.5700 C   0  0  0  0  0  1  0  0  0  0  0  0
  -27.7190  -31.9960   25.8160 C   0  0  0  0  0  1  0  0  0  0  0  0
  -31.8360  -17.0070   21.0510 C   0  0  0  0  0  2  0  0  0  0  0  0
  -31.5430  -14.7400   20.1610 C   0  0  0  0  0  0  0  0  0  0  0  0
  -31.1550  -12.5160   19.1710 C   0  0  0  0  0  2  0  0  0  0  0  0
  -30.2570  -12.6360   17.9260 C   0  0  0  0  0  2  0  0  0  0  0  0
  -28.7720  -12.5720   18.3240 C   0  0  0  0  0  2  0  0  0  0  0  0
  -28.4240  -13.5290   19.4960 C   0  0  0  0  0  3  0  0  0  0  0  0
  -29.4450  -13.4070   20.6510 C   0  0  0  0  0  2  0  0  0  0  0  0
  -30.7930  -13.6050   20.0960 N   0  0  0  0  0  0  0  0  0  0  0  0
  -32.6260  -14.8440   19.5800 O   0  0  0  0  0  0  0  0  0  0  0  0
  -31.0550  -15.7760   20.8650 N   0  0  0  0  0  0  0  0  0  0  0  0
  -30.1580  -15.6880   21.3160 H   0  0  0  0  0  0  0  0  0  0  0  0
  -26.0390  -14.2480   20.1430 C   0  0  0  0  0  0  0  0  0  0  0  0
  -24.9370  -13.5280   20.5190 C   0  0  0  0  0  0  0  0  0  0  0  0
  -25.3450  -12.1590   20.5370 C   0  0  0  0  0  0  0  0  0  0  0  0
  -27.0540  -13.3200   19.9590 N   0  0  0  0  0  0  0  0  0  0  0  0
  -26.6370  -12.0600   20.2510 N   0  0  0  0  0  0  0  0  0  0  0  0
  -24.5660  -10.9330   20.7550 C   0  0  0  0  0  0  0  0  0  0  0  0
  -24.9320   -9.9920   21.7420 C   0  0  0  0  0  3  0  0  0  0  0  0
  -24.1550   -8.8300   21.9460 C   0  0  0  0  0  3  0  0  0  0  0  0
  -22.9980   -8.6020   21.1620 C   0  0  0  0  0  0  0  0  0  0  0  0
  -22.6520   -9.5320   20.1660 C   0  0  0  0  0  3  0  0  0  0  0  0
  -23.4290  -10.6850   19.9610 C   0  0  0  0  0  3  0  0  0  0  0  0
  -22.1990   -7.4910   21.2720 O   0  0  0  0  0  0  0  0  0  0  0  0
  -22.0370   -6.8360   22.4670 C   0  0  0  0  0  0  0  0  0  0  0  0
  -21.5640   -7.4980   23.6210 C   0  0  0  0  0  3  0  0  0  0  0  0
  -21.3460   -6.7720   24.8100 C   0  0  0  0  0  3  0  0  0  0  0  0
  -21.5900   -5.3860   24.8430 C   0  0  0  0  0  0  0  0  0  0  0  0
  -22.0540   -4.7240   23.6920 C   0  0  0  0  0  3  0  0  0  0  0  0
  -22.2730   -5.4470   22.5070 C   0  0  0  0  0  0  0  0  0  0  0  0
  -22.7010   -4.8010   21.3960 F   0  0  0  0  0  0  0  0  0  0  0  0
  -21.3730   -4.6860   25.9820 F   0  0  0  0  0  0  0  0  0  0  0  0
  -23.5570  -14.0680   20.7560 C   0  0  0  0  0  0  0  0  0  0  0  0
  -22.8070  -13.4560   21.6670 N   0  0  0  0  0  0  0  0  0  0  0  0
  -23.1520  -15.0700   20.1690 O   0  0  0  0  0  0  0  0  0  0  0  0
  -23.1470  -12.6460   22.1620 H   0  0  0  0  0  0  0  0  0  0  0  0
  -21.8800  -13.8020   21.8700 H   0  0  0  0  0  0  0  0  0  0  0  0
  -26.2610  -15.6030   19.9240 N   0  0  0  0  0  0  0  0  0  0  0  0
  -25.5220  -16.2940   20.0020 H   0  0  0  0  0  0  0  0  0  0  0  0
  -27.1420  -15.9980   19.6160 H   0  0  0  0  0  0  0  0  0  0  0  0
  1  3  2  0
  1  5  1  0
  3  4  1  0
  4  8  1  0
  4  2  2  0
  5  6  2  0
  6  2  1  0
  6  9  1  0
  7  3  1  0
  7 10  1  0
 10 15  1  0
 10  8  1  0
 11  7  2  0
 13 12  1  0
 14 16  1  0
 15 14  1  0
 15 12  1  0
 16 17  1  0
 16 13  1  0
 17 19  1  0
 18 29  2  0
 19 24  1  0
 20 28  1  0
 20 30  1  0
 21 27  1  0
 21 23  1  0
 22 28  1  0
 23 22  1  0
 24 23  2  0
 25 26  1  0
 25 19  2  0
 26 21  2  0
 27 20  1  0
 28 18  1  0
 30 32  2  0
 31 30  1  0
 33 31  1  0
 34 43  2  0
 34 39  1  0
 35 31  1  0
 35 39  1  0
 36 35  1  0
 37 38  1  0
 37 36  1  0
 38 34  1  0
 39 40  2  0
 40 41  1  0
 42 41  2  0
 43 42  1  0
 44 18  1  0
 44 45  1  0
 44 54  1  0
 45 48  1  0
 46 50  1  0
 46 45  1  0
 47 46  2  0
 50 49  1  0
 52 50  1  0
 52 53  1  0
 52 51  1  0
 54 57  1  1
 54 55  1  0
 56 54  1  0
 58  5  1  0
 59 67  1  0
 60 65  1  0
 61 62  1  0
 61 60  1  0
 63 62  1  0
 63 72  1  0
 63 64  1  0
 65 59  1  0
 65 64  1  0
 66 59  2  0
 67 58  1  0
 67 68  1  0
 69 70  2  0
 70 71  1  0
 70 89  1  0
 71 74  1  0
 72 69  1  0
 72 73  1  0
 73 71  2  0
 74 75  1  0
 75 76  2  0
 77 80  1  0
 77 76  1  0
 78 77  2  0
 79 78  1  0
 79 74  2  0
 80 81  1  0
 81 86  2  0
 81 82  1  0
 82 83  2  0
 83 84  1  0
 84 88  1  0
 85 84  2  0
 86 85  1  0
 87 86  1  0
 89 90  1  0
 90 93  1  0
 90 92  1  0
 91 89  2  0
 94 95  1  0
 94 69  1  0
 96 94  1  0
M  ISO  4  16 101  17 101  59 100  67 100
M  END
>  <TORSDO>  (6) 
F 18

>  <SCORE>  (6) 
-10.219

>  <name>  (6) 
5

>  <ligand_id>  (6) 
5

>  <original_smiles>  (6) 
[H]c1c([H])c([H])c2c(c1[H])C([H])([H])C([H])([H])C([H])([H])C2([H])N([H])C(=O)C1([H])N(C(=O)C([H])(N([H])C(=O)C([H])(N([H])C([H])([H])[H])C([H])([H])[H])C(C([H])([H])[H])(C([H])([H])[H])C([H])([H])[H])C([H])([H])c2c([H])c(OC3([H])C([H])([H])C([H])([H])C([H])(N4C(=O)c5c([H])c(C([H])([H])N([H])C(=O)N6C([H])([H])C([H])([H])C([H])([H])C([H])(n7nc(-c8c([H])c([H])c(Oc9c([H])c([H])c(F)c([H])c9F)c([H])c8[H])c(C(=O)N([H])[H])c7N([H])[H])C6([H])[H])c(C([H])([H])[H])c([H])c5C4([H])[H])C3([H])[H])c([H])c([H])c2C1([H])[H]

>  <smiles>  (6) 
[H]c1c([H])c([H])c2c(c1[H])C([H])([H])C([H])([H])C([H])([H])C2([H])N([H])C(=O)C1([H])N(C(=O)C([H])(N([H])C(=O)C([H])(N([H])C([H])([H])[H])C([H])([H])[H])C(C([H])([H])[H])(C([H])([H])[H])C([H])([H])[H])C([H])([H])c2c([H])c(OC3([H])C([H])([H])C([H])([H])C([H])(N4C(=O)c5c([H])c(C([H])([H])N([H])C(=O)N6C([H])([H])C([H])([H])C([H])([H])C([H])(n7nc(-c8c([H])c([H])c(Oc9c([H])c([H])c(F)c([H])c9F)c([H])c8[H])c(C(=O)N([H])[H])c7N([H])[H])C6([H])[H])c(C([H])([H])[H])c([H])c5C4([H])[H])C3([H])[H])c([H])c([H])c2C1([H])[H]

$$$$
6:0:0
     RDKit          3D

 89 98  0  0  1  0  0  0  0  0999 V2000
  -30.2700  -15.8070   20.2820 C   0  0  0  0  0  0  0  0  0  0  0  0
  -30.3750  -13.2260   19.4870 C   0  0  0  0  0  2  0  0  0  0  0  0
  -29.5220  -12.7200   18.2880 C   0  0  0  0  0  2  0  0  0  0  0  0
  -28.1030  -12.3500   18.7350 C   0  0  0  0  0  2  0  0  0  0  0  0
  -27.5570  -13.3760   19.7520 C   0  0  0  0  0  3  0  0  0  0  0  0
  -28.5630  -13.7850   20.8570 C   0  0  0  0  0  2  0  0  0  0  0  0
  -29.7100  -14.4400   20.1740 N   0  0  0  0  0  0  0  0  0  0  0  0
  -31.5090  -15.6470   20.2230 O   0  0  0  0  0  0  0  0  0  0  0  0
  -30.1850  -20.2480   17.5740 C   0  0  0  0  0  3  0  0  0  0  0  0
  -29.9360  -21.6030   17.3810 C   0  0  0  0  0  3  0  0  0  0  0  0
  -29.8170  -19.6190   18.7590 C   0  0  0  0  0  0  0  0  0  0  0  0
  -29.1980  -20.3650   19.8130 C   0  0  0  0  0  0  0  0  0  0  0  0
  -29.3120  -22.4390   18.3320 C   0  0  0  0  0  0  0  0  0  0  0  0
  -28.8790  -22.0320   19.6460 C   0  0  0  0  0  0  0  0  0  0  0  0
  -30.1260  -18.0480   18.8690 C   0  0  0  0  0  3  0  0  0  0  0  0
  -29.1910  -18.8140   20.7080 C   0  0  0  0  0  3  0  0  0  0  0  0
  -29.0940  -23.8560   17.8030 C   0  0  0  0  0  1  0  0  0  0  0  0
  -29.6340  -17.2620   20.0520 N   0  0  0  0  0  0  0  0  0  0  0  0
  -25.1890  -13.9000   20.4840 C   0  0  0  0  0  0  0  0  0  0  0  0
  -24.1250  -13.1200   20.8340 C   0  0  0  0  0  0  0  0  0  0  0  0
  -24.5990  -11.7730   20.8200 C   0  0  0  0  0  0  0  0  0  0  0  0
  -26.2400  -13.0310   20.2640 N   0  0  0  0  0  0  0  0  0  0  0  0
  -25.8980  -11.7420   20.5330 N   0  0  0  0  0  0  0  0  0  0  0  0
  -23.8680  -10.5090   21.0050 C   0  0  0  0  0  0  0  0  0  0  0  0
  -24.2810   -9.5470   21.9530 C   0  0  0  0  0  3  0  0  0  0  0  0
  -23.5480   -8.3530   22.1290 C   0  0  0  0  0  3  0  0  0  0  0  0
  -22.3870   -8.1120   21.3550 C   0  0  0  0  0  0  0  0  0  0  0  0
  -21.9930   -9.0620   20.3970 C   0  0  0  0  0  3  0  0  0  0  0  0
  -22.7270  -10.2470   20.2200 C   0  0  0  0  0  3  0  0  0  0  0  0
  -21.6270   -6.9700   21.4390 O   0  0  0  0  0  0  0  0  0  0  0  0
  -21.5550   -6.2370   22.5970 C   0  0  0  0  0  0  0  0  0  0  0  0
  -21.1100   -6.8040   23.8110 C   0  0  0  0  0  3  0  0  0  0  0  0
  -20.9850   -5.9990   24.9610 C   0  0  0  0  0  3  0  0  0  0  0  0
  -21.2920   -4.6260   24.8960 C   0  0  0  0  0  0  0  0  0  0  0  0
  -21.7260   -4.0580   23.6860 C   0  0  0  0  0  3  0  0  0  0  0  0
  -21.8540   -4.8610   22.5390 C   0  0  0  0  0  0  0  0  0  0  0  0
  -22.2530   -4.3040   21.3700 F   0  0  0  0  0  0  0  0  0  0  0  0
  -21.1630   -3.8490   25.9970 F   0  0  0  0  0  0  0  0  0  0  0  0
  -22.7200  -13.5950   21.0630 C   0  0  0  0  0  0  0  0  0  0  0  0
  -21.9760  -12.9130   21.9270 N   0  0  0  0  0  0  0  0  0  0  0  0
  -22.2900  -14.6080   20.5110 O   0  0  0  0  0  0  0  0  0  0  0  0
  -22.3360  -12.0950   22.3960 H   0  0  0  0  0  0  0  0  0  0  0  0
  -21.0310  -13.2110   22.1200 H   0  0  0  0  0  0  0  0  0  0  0  0
  -25.3510  -15.2700   20.2940 N   0  0  0  0  0  0  0  0  0  0  0  0
  -24.5840  -15.9250   20.3900 H   0  0  0  0  0  0  0  0  0  0  0  0
  -26.2100  -15.7050   19.9820 H   0  0  0  0  0  0  0  0  0  0  0  0
  -28.0330  -23.4680   21.8730 C   0  0  0  0  0  1  0  0  0  0  0  0
  -28.0770  -23.6110   20.3490 C   0  0  0  0  0  3  0  0  0  0  0  0
  -28.1870  -25.4040   20.1000 O   0  0  0  0  0  0  0  0  0  0  0  0
  -24.6830  -31.8170   23.0600 C   0  0  0  0  0  0  0  0  0  0  0  0
  -27.2090  -26.6440   20.1170 C   0  0  0  0  0  0  0  0  0  0  0  0
  -23.4970  -30.3970   21.4450 C   0  0  0  0  0  3  0  0  0  0  0  0
  -24.9430  -28.7200   20.0560 C   0  0  0  0  0  0  0  0  0  0  0  0
  -26.0810  -30.5240   21.3170 C   0  0  0  0  0  2  0  0  0  0  0  0
  -26.1460  -29.0750   20.6770 C   0  0  0  0  0  0  0  0  0  0  0  0
  -27.2630  -28.0690   20.6650 C   0  0  0  0  0  3  0  0  0  0  0  0
  -25.9660  -26.5210   19.4420 C   0  0  0  0  0  3  0  0  0  0  0  0
  -24.8970  -27.4710   19.4110 C   0  0  0  0  0  3  0  0  0  0  0  0
  -23.7390  -29.6780   20.0850 C   0  0  0  0  0  2  0  0  0  0  0  0
  -24.7800  -30.9480   21.9920 N   0  0  0  0  0  0  0  0  0  0  0  0
  -23.5910  -32.1170   23.5700 O   0  0  0  0  0  0  0  0  0  0  0  0
  -22.7830  -29.4330   22.4330 C   0  0  0  0  0  0  0  0  0  0  0  0
  -21.4470  -29.2900   22.3300 N   0  0  0  0  0  0  0  0  0  0  0  0
  -23.4450  -28.8090   23.2650 O   0  0  0  0  0  0  0  0  0  0  0  0
  -20.9620  -29.8450   21.6390 H   0  0  0  0  0  0  0  0  0  0  0  0
  -18.0560  -28.1100   22.9160 C   0  0  0  0  0  0  0  0  0  0  0  0
  -20.6250  -28.3600   23.1180 C   0  0  0  0  0  3  0  0  0  0  0  0
  -20.7010  -26.9270   22.5430 C   0  0  0  0  0  2  0  0  0  0  0  0
  -19.5740  -26.6140   21.5520 C   0  0  0  0  0  2  0  0  0  0  0  0
  -18.2090  -26.7640   22.2280 C   0  0  0  0  0  2  0  0  0  0  0  0
  -19.1900  -28.8660   23.3200 C   0  0  0  0  0  0  0  0  0  0  0  0
  -18.9890  -30.1220   23.9330 C   0  0  0  0  0  3  0  0  0  0  0  0
  -17.6910  -30.6240   24.1380 C   0  0  0  0  0  3  0  0  0  0  0  0
  -16.5730  -29.8670   23.7480 C   0  0  0  0  0  3  0  0  0  0  0  0
  -16.7570  -28.6100   23.1420 C   0  0  0  0  0  3  0  0  0  0  0  0
  -25.9430  -32.4870   23.6900 C   0  0  0  0  0  3  0  0  0  0  0  0
  -25.5950  -33.8760   24.0570 N   0  0  0  0  0  0  0  0  0  0  0  0
  -25.9070  -34.9650   23.3420 C   0  0  0  0  0  0  0  0  0  0  0  0
  -26.5720  -34.9080   22.3050 O   0  0  0  0  0  0  0  0  0  0  0  0
  -25.0020  -33.9900   24.8640 H   0  0  0  0  0  0  0  0  0  0  0  0
  -24.1570  -36.7600   23.0700 C   0  0  0  0  0  1  0  0  0  0  0  0
  -25.4080  -36.3350   23.8560 C   0  0  0  0  0  3  0  0  0  0  0  0
  -27.5380  -37.2240   24.7020 C   0  0  0  0  0  1  0  0  0  0  0  0
  -26.4270  -37.4070   23.7720 N   0  0  0  0  0  0  0  0  0  0  0  0
  -26.0100  -38.3160   23.9520 H   0  0  0  0  0  0  0  0  0  0  0  0
  -26.4730  -31.7210   24.9660 C   0  0  1  0  0  0  0  0  0  0  0  0
  -25.3900  -31.4680   26.0420 C   0  0  0  0  0  1  0  0  0  0  0  0
  -27.0700  -30.3500   24.5820 C   0  0  0  0  0  1  0  0  0  0  0  0
  -27.6170  -32.5280   25.6240 C   0  0  0  0  0  1  0  0  0  0  0  0
  2  7  1  0
  3  4  1  0
  3  2  1  0
  5  4  1  0
  5 22  1  0
  5  6  1  0
  7  1  1  0
  7  6  1  0
  8  1  2  0
  9 11  1  0
 10  9  2  0
 10 13  1  0
 11 15  2  0
 11 12  1  0
 12 16  2  0
 13 14  2  0
 14 12  1  0
 14 48  1  0
 15 18  1  0
 17 13  1  0
 18  1  1  0
 18 16  1  0
 19 20  2  0
 20 39  1  0
 21 20  1  0
 21 24  1  0
 22 19  1  0
 22 23  1  0
 23 21  2  0
 24 25  1  0
 25 26  2  0
 27 30  1  0
 27 26  1  0
 28 27  2  0
 29 28  1  0
 29 24  2  0
 30 31  1  0
 31 32  1  0
 32 33  2  0
 34 33  1  0
 34 38  1  0
 35 34  2  0
 36 31  2  0
 36 35  1  0
 37 36  1  0
 39 40  1  0
 40 43  1  0
 40 42  1  0
 41 39  2  0
 44 45  1  0
 44 19  1  0
 46 44  1  0
 48 47  1  0
 49 51  1  0
 49 48  1  0
 50 61  2  0
 51 56  1  0
 52 60  1  0
 52 62  1  0
 53 59  1  0
 53 55  1  0
 54 60  1  0
 55 54  1  0
 56 55  2  0
 57 51  2  0
 58 57  1  0
 58 53  2  0
 59 52  1  0
 60 50  1  0
 62 64  2  0
 63 62  1  0
 65 63  1  0
 66 75  2  0
 66 71  1  0
 67 63  1  0
 67 71  1  0
 68 67  1  0
 69 70  1  0
 69 68  1  0
 70 66  1  0
 71 72  2  0
 72 73  1  0
 74 73  2  0
 75 74  1  0
 76 50  1  0
 76 77  1  0
 76 86  1  0
 77 80  1  0
 78 82  1  0
 78 77  1  0
 79 78  2  0
 82 81  1  0
 84 82  1  0
 84 85  1  0
 84 83  1  0
 86 89  1  1
 86 87  1  0
 88 86  1  0
M  ISO  4   1 100  18 100  48 101  49 101
M  END
>  <TORSDO>  (7) 
F 16

>  <SCORE>  (7) 
-16.375

>  <name>  (7) 
6

>  <ligand_id>  (7) 
6

>  <original_smiles>  (7) 
[H]c1c([H])c([H])c2c(c1[H])C([H])([H])C([H])([H])C([H])([H])C2([H])N([H])C(=O)C1([H])N(C(=O)C([H])(N([H])C(=O)C([H])(N([H])C([H])([H])[H])C([H])([H])[H])C(C([H])([H])[H])(C([H])([H])[H])C([H])([H])[H])C([H])([H])c2c([H])c(OC([H])(c3c(C([H])([H])[H])c([H])c([H])c4c3C([H])([H])N(C(=O)N3C([H])([H])C([H])([H])C([H])([H])C([H])(n5nc(-c6c([H])c([H])c(Oc7c([H])c([H])c(F)c([H])c7F)c([H])c6[H])c(C(=O)N([H])[H])c5N([H])[H])C3([H])[H])C4([H])[H])C([H])([H])[H])c([H])c([H])c2C1([H])[H]

>  <smiles>  (7) 
[H]c1c([H])c([H])c2c(c1[H])C([H])([H])C([H])([H])C([H])([H])C2([H])N([H])C(=O)C1([H])N(C(=O)C([H])(N([H])C(=O)C([H])(N([H])C([H])([H])[H])C([H])([H])[H])C(C([H])([H])[H])(C([H])([H])[H])C([H])([H])[H])C([H])([H])c2c([H])c(OC([H])(c3c(C([H])([H])[H])c([H])c([H])c4c3C([H])([H])N(C(=O)N3C([H])([H])C([H])([H])C([H])([H])C([H])(n5nc(-c6c([H])c([H])c(Oc7c([H])c([H])c(F)c([H])c7F)c([H])c6[H])c(C(=O)N([H])[H])c5N([H])[H])C3([H])[H])C4([H])[H])C([H])([H])[H])c([H])c([H])c2C1([H])[H]

$$$$
7:0:0
     RDKit          3D

 96105  0  0  1  0  0  0  0  0999 V2000
  -30.2590  -23.3400   19.4590 C   0  0  0  0  0  3  0  0  0  0  0  0
  -28.9840  -23.9150   19.7140 C   0  0  0  0  0  0  0  0  0  0  0  0
  -28.2540  -21.7100   20.2260 C   0  0  0  0  0  0  0  0  0  0  0  0
  -29.5430  -21.1290   19.9420 C   0  0  0  0  0  0  0  0  0  0  0  0
  -29.2310  -18.4600   20.3030 C   0  0  0  0  0  2  0  0  0  0  0  0
  -31.2730  -19.3590   19.4850 C   0  0  0  0  0  2  0  0  0  0  0  0
  -30.3280  -17.3310   20.5190 C   0  0  0  0  0  3  0  0  0  0  0  0
  -31.3850  -17.8150   19.5070 C   0  0  0  0  0  3  0  0  0  0  0  0
  -27.0610  -20.8720   20.6370 C   0  0  0  0  0  1  0  0  0  0  0  0
  -30.5230  -22.0030   19.5770 N   0  0  0  0  0  0  0  0  0  0  0  0
  -27.9900  -23.0640   20.1130 N   0  0  0  0  0  0  0  0  0  0  0  0
  -29.9410  -19.7290   19.9660 N   0  0  0  0  0  0  0  0  0  0  0  0
  -30.6610  -14.7530   20.1290 C   0  0  0  0  0  0  0  0  0  0  0  0
  -30.3740  -12.5560   19.0230 C   0  0  0  0  0  2  0  0  0  0  0  0
  -29.3900  -12.7250   17.8450 C   0  0  0  0  0  2  0  0  0  0  0  0
  -27.9360  -12.5500   18.3250 C   0  0  0  0  0  2  0  0  0  0  0  0
  -27.6240  -13.3790   19.6020 C   0  0  0  0  0  3  0  0  0  0  0  0
  -28.7240  -13.2140   20.6720 C   0  0  0  0  0  2  0  0  0  0  0  0
  -30.0050  -13.5570   20.0410 N   0  0  0  0  0  0  0  0  0  0  0  0
  -31.8380  -14.8610   19.7730 O   0  0  0  0  0  0  0  0  0  0  0  0
  -29.9150  -15.8730   20.4070 N   0  0  0  0  0  0  0  0  0  0  0  0
  -28.9480  -15.6820   20.6250 H   0  0  0  0  0  0  0  0  0  0  0  0
  -25.2610  -13.9550   20.4270 C   0  0  0  0  0  0  0  0  0  0  0  0
  -24.2120  -13.1710   20.8250 C   0  0  0  0  0  0  0  0  0  0  0  0
  -24.6810  -11.8230   20.7590 C   0  0  0  0  0  0  0  0  0  0  0  0
  -26.2970  -13.0820   20.1340 N   0  0  0  0  0  0  0  0  0  0  0  0
  -25.9580  -11.7950   20.4000 N   0  0  0  0  0  0  0  0  0  0  0  0
  -23.9670  -10.5540   20.9580 C   0  0  0  0  0  0  0  0  0  0  0  0
  -24.4200   -9.5890   21.8840 C   0  0  0  0  0  3  0  0  0  0  0  0
  -23.7060   -8.3840   22.0710 C   0  0  0  0  0  3  0  0  0  0  0  0
  -22.5260   -8.1400   21.3310 C   0  0  0  0  0  0  0  0  0  0  0  0
  -22.0890   -9.0940   20.3950 C   0  0  0  0  0  3  0  0  0  0  0  0
  -22.8040  -10.2880   20.2070 C   0  0  0  0  0  3  0  0  0  0  0  0
  -21.7800   -6.9900   21.4300 O   0  0  0  0  0  0  0  0  0  0  0  0
  -21.7330   -6.2560   22.5880 C   0  0  0  0  0  0  0  0  0  0  0  0
  -21.2710   -6.8130   23.8010 C   0  0  0  0  0  3  0  0  0  0  0  0
  -21.1750   -6.0070   24.9530 C   0  0  0  0  0  3  0  0  0  0  0  0
  -21.5300   -4.6460   24.8920 C   0  0  0  0  0  0  0  0  0  0  0  0
  -21.9850   -4.0900   23.6830 C   0  0  0  0  0  3  0  0  0  0  0  0
  -22.0830   -4.8920   22.5340 C   0  0  0  0  0  0  0  0  0  0  0  0
  -22.5020   -4.3480   21.3650 F   0  0  0  0  0  0  0  0  0  0  0  0
  -21.4300   -3.8680   25.9950 F   0  0  0  0  0  0  0  0  0  0  0  0
  -22.8220  -13.6390   21.1540 C   0  0  0  0  0  0  0  0  0  0  0  0
  -22.1300  -12.9250   22.0360 N   0  0  0  0  0  0  0  0  0  0  0  0
  -22.3660  -14.6720   20.6700 O   0  0  0  0  0  0  0  0  0  0  0  0
  -22.5180  -12.0890   22.4470 H   0  0  0  0  0  0  0  0  0  0  0  0
  -21.2010  -13.2190   22.3000 H   0  0  0  0  0  0  0  0  0  0  0  0
  -25.4120  -15.3270   20.2600 N   0  0  0  0  0  0  0  0  0  0  0  0
  -24.6340  -15.9670   20.3800 H   0  0  0  0  0  0  0  0  0  0  0  0
  -26.2310  -15.7720   19.8690 H   0  0  0  0  0  0  0  0  0  0  0  0
  -32.7490  -17.3580   19.8090 N   0  0  0  0  0  4  0  0  0  0  0  0
  -33.0730  -17.7170   20.6900 H   0  0  0  0  0  0  0  0  0  0  0  0
  -33.3900  -17.6290   19.0820 H   0  0  0  0  0  0  0  0  0  0  0  0
  -32.7160  -16.3430   19.8620 H   0  0  0  0  0  0  0  0  0  0  0  0
  -28.6350  -25.3820   19.2150 C   0  0  0  0  0  2  0  0  0  0  0  0
  -28.4730  -26.5490   20.1260 O   0  0  0  0  0  0  0  0  0  0  0  0
  -24.6810  -31.8890   23.2200 C   0  0  0  0  0  0  0  0  0  0  0  0
  -27.3400  -27.3910   20.0740 C   0  0  0  0  0  0  0  0  0  0  0  0
  -23.4890  -30.5010   21.5640 C   0  0  0  0  0  3  0  0  0  0  0  0
  -24.9520  -28.9910   20.1100 C   0  0  0  0  0  0  0  0  0  0  0  0
  -26.0250  -30.8500   21.3730 C   0  0  0  0  0  2  0  0  0  0  0  0
  -26.1210  -29.4800   20.7050 C   0  0  0  0  0  0  0  0  0  0  0  0
  -27.3140  -28.6900   20.6820 C   0  0  0  0  0  3  0  0  0  0  0  0
  -26.1310  -26.9550   19.4850 C   0  0  0  0  0  3  0  0  0  0  0  0
  -24.9610  -27.7340   19.4940 C   0  0  0  0  0  3  0  0  0  0  0  0
  -23.7070  -29.8490   20.1740 C   0  0  0  0  0  2  0  0  0  0  0  0
  -24.7520  -31.0970   22.1090 N   0  0  0  0  0  0  0  0  0  0  0  0
  -23.5950  -32.1460   23.7600 O   0  0  0  0  0  0  0  0  0  0  0  0
  -22.8390  -29.4630   22.5100 C   0  0  0  0  0  0  0  0  0  0  0  0
  -21.5130  -29.2810   22.3920 N   0  0  0  0  0  0  0  0  0  0  0  0
  -23.5280  -28.8250   23.3090 O   0  0  0  0  0  0  0  0  0  0  0  0
  -21.0130  -29.8470   21.7190 H   0  0  0  0  0  0  0  0  0  0  0  0
  -18.1470  -28.0630   22.9170 C   0  0  0  0  0  0  0  0  0  0  0  0
  -20.7090  -28.3240   23.1540 C   0  0  0  0  0  3  0  0  0  0  0  0
  -20.8040  -26.9070   22.5460 C   0  0  0  0  0  2  0  0  0  0  0  0
  -19.6890  -26.6030   21.5400 C   0  0  0  0  0  2  0  0  0  0  0  0
  -18.3160  -26.7300   22.2060 C   0  0  0  0  0  2  0  0  0  0  0  0
  -19.2710  -28.8190   23.3460 C   0  0  0  0  0  0  0  0  0  0  0  0
  -19.0580  -30.0630   23.9740 C   0  0  0  0  0  3  0  0  0  0  0  0
  -17.7560  -30.5600   24.1700 C   0  0  0  0  0  3  0  0  0  0  0  0
  -16.6470  -29.8050   23.7530 C   0  0  0  0  0  3  0  0  0  0  0  0
  -16.8430  -28.5560   23.1360 C   0  0  0  0  0  3  0  0  0  0  0  0
  -25.9540  -32.5320   23.8460 C   0  0  0  0  0  3  0  0  0  0  0  0
  -26.4710  -31.7570   25.1210 C   0  0  1  0  0  0  0  0  0  0  0  0
  -25.3750  -31.4970   26.1820 C   0  0  0  0  0  1  0  0  0  0  0  0
  -27.0670  -30.3870   24.7230 C   0  0  0  0  0  1  0  0  0  0  0  0
  -27.6160  -32.5520   25.7900 C   0  0  0  0  0  1  0  0  0  0  0  0
  -25.6290  -33.9240   24.1830 N   0  0  0  0  0  0  0  0  0  0  0  0
  -25.9530  -34.9860   23.4320 C   0  0  0  0  0  0  0  0  0  0  0  0
  -26.6260  -34.8950   22.4010 O   0  0  0  0  0  0  0  0  0  0  0  0
  -25.0290  -34.0690   24.9820 H   0  0  0  0  0  0  0  0  0  0  0  0
  -24.2120  -36.7670   23.0780 C   0  0  0  0  0  1  0  0  0  0  0  0
  -25.4500  -36.3650   23.8970 C   0  0  0  0  0  3  0  0  0  0  0  0
  -27.5670  -37.2610   24.7560 C   0  0  0  0  0  1  0  0  0  0  0  0
  -26.4740  -37.4290   23.8030 N   0  0  0  0  0  0  0  0  0  0  0  0
  -26.0590  -38.3440   23.9580 H   0  0  0  0  0  0  0  0  0  0  0  0
  1 10  2  0
  1  2  1  0
  2 11  2  0
  3  9  1  0
  4 12  1  0
  4  3  2  0
  5  7  1  0
  6  8  1  0
  6 12  1  0
  7 21  1  0
  8 51  1  0
  8  7  1  0
 10  4  1  0
 11  3  1  0
 12  5  1  0
 13 21  1  0
 14 19  1  0
 15 16  1  0
 15 14  1  0
 17 16  1  0
 17 26  1  0
 17 18  1  0
 19 13  1  0
 19 18  1  0
 20 13  2  0
 21 22  1  0
 23 24  2  0
 24 43  1  0
 25 24  1  0
 25 28  1  0
 26 27  1  0
 26 23  1  0
 27 25  2  0
 28 29  1  0
 29 30  2  0
 31 34  1  0
 31 30  1  0
 32 31  2  0
 33 32  1  0
 33 28  2  0
 34 35  1  0
 35 36  1  0
 36 37  2  0
 38 37  1  0
 38 42  1  0
 39 38  2  0
 40 35  2  0
 40 39  1  0
 41 40  1  0
 43 44  1  0
 44 47  1  0
 44 46  1  0
 45 43  2  0
 48 49  1  0
 48 23  1  0
 50 48  1  0
 51 54  1  0
 51 52  1  0
 53 51  1  0
 55  2  1  0
 55 56  1  0
 57 68  2  0
 58 56  1  0
 58 63  1  0
 59 67  1  0
 59 69  1  0
 60 66  1  0
 60 62  1  0
 61 67  1  0
 62 61  1  0
 63 62  2  0
 64 65  1  0
 64 58  2  0
 65 60  2  0
 66 59  1  0
 67 57  1  0
 69 71  2  0
 70 69  1  0
 72 70  1  0
 73 82  2  0
 73 78  1  0
 74 70  1  0
 74 78  1  0
 75 74  1  0
 76 77  1  0
 76 75  1  0
 77 73  1  0
 78 79  2  0
 79 80  1  0
 81 80  2  0
 82 81  1  0
 83 57  1  0
 83 88  1  0
 83 84  1  0
 84 87  1  1
 84 85  1  0
 86 84  1  0
 88 91  1  0
 89 93  1  0
 89 88  1  0
 90 89  2  0
 93 92  1  0
 95 93  1  0
 95 96  1  0
 95 94  1  0
M  ISO  4  13 100  21 100  55 101  56 101
M  END
>  <TORSDO>  (8) 
F 18

>  <SCORE>  (8) 
-14.014

>  <name>  (8) 
7

>  <ligand_id>  (8) 
7

>  <original_smiles>  (8) 
[H]c1nc(N2C([H])([H])C([H])(N([H])C(=O)N3C([H])([H])C([H])([H])C([H])([H])C([H])(n4nc(-c5c([H])c([H])c(Oc6c([H])c([H])c(F)c([H])c6F)c([H])c5[H])c(C(=O)N([H])[H])c4N([H])[H])C3([H])[H])C([H])([N+]([H])([H])[H])C2([H])[H])c(C([H])([H])[H])nc1C([H])([H])Oc1c([H])c([H])c2c(c1[H])C([H])([H])N(C(=O)C([H])(N([H])C(=O)C([H])(N([H])C([H])([H])[H])C([H])([H])[H])C(C([H])([H])[H])(C([H])([H])[H])C([H])([H])[H])C([H])(C(=O)N([H])C1([H])c3c([H])c([H])c([H])c([H])c3C([H])([H])C([H])([H])C1([H])[H])C2([H])[H]

>  <smiles>  (8) 
[H]c1nc(N2C([H])([H])C([H])(N([H])C(=O)N3C([H])([H])C([H])([H])C([H])([H])C([H])(n4nc(-c5c([H])c([H])c(Oc6c([H])c([H])c(F)c([H])c6F)c([H])c5[H])c(C(=O)N([H])[H])c4N([H])[H])C3([H])[H])C([H])([N+]([H])([H])[H])C2([H])[H])c(C([H])([H])[H])nc1C([H])([H])Oc1c([H])c([H])c2c(c1[H])C([H])([H])N(C(=O)C([H])(N([H])C(=O)C([H])(N([H])C([H])([H])[H])C([H])([H])[H])C(C([H])([H])[H])(C([H])([H])[H])C([H])([H])[H])C([H])(C(=O)N([H])C1([H])c3c([H])c([H])c([H])c([H])c3C([H])([H])C([H])([H])C1([H])[H])C2([H])[H]

$$$$
9:0:0
     RDKit          3D

 94103  0  0  1  0  0  0  0  0999 V2000
  -28.4690  -20.6710   19.6690 C   0  0  0  0  0  3  0  0  0  0  0  0
  -28.2150  -22.0480   19.4350 C   0  0  0  0  0  0  0  0  0  0  0  0
  -28.3470  -22.9730   20.5130 C   0  0  0  0  0  0  0  0  0  0  0  0
  -28.7170  -22.4230   21.7700 C   0  0  0  0  0  0  0  0  0  0  0  0
  -28.7940  -20.2360   20.9660 C   0  0  0  0  0  0  0  0  0  0  0  0
  -27.7490  -22.4620   18.0500 C   0  0  0  0  0  1  0  0  0  0  0  0
  -28.8630  -23.2660   23.0260 C   0  0  0  0  0  1  0  0  0  0  0  0
  -28.9210  -21.1030   21.9800 N   0  0  0  0  0  0  0  0  0  0  0  0
  -28.8940  -18.8900   21.3440 N   0  0  0  0  0  0  0  0  0  0  0  0
  -28.9580  -18.7950   22.3510 H   0  0  0  0  0  0  0  0  0  0  0  0
  -29.4070  -17.2660   19.3800 C   0  0  0  0  0  2  0  0  0  0  0  0
  -29.8040  -17.9890   20.6460 C   0  0  0  0  0  3  0  0  0  0  0  0
  -29.5070  -16.4880   20.6800 C   0  0  0  0  0  3  0  0  0  0  0  0
  -31.0310  -14.6200   20.1240 C   0  0  0  0  0  0  0  0  0  0  0  0
  -30.5620  -12.5290   18.8990 C   0  0  0  0  0  2  0  0  0  0  0  0
  -29.5610  -12.7960   17.7600 C   0  0  0  0  0  2  0  0  0  0  0  0
  -28.1190  -12.6480   18.2800 C   0  0  0  0  0  2  0  0  0  0  0  0
  -27.8700  -13.4370   19.5950 C   0  0  0  0  0  3  0  0  0  0  0  0
  -28.9940  -13.1940   20.6280 C   0  0  0  0  0  2  0  0  0  0  0  0
  -30.2800  -13.4920   19.9770 N   0  0  0  0  0  0  0  0  0  0  0  0
  -32.1160  -14.7730   19.5640 O   0  0  0  0  0  0  0  0  0  0  0  0
  -30.6010  -15.5930   20.9430 N   0  0  0  0  0  0  0  0  0  0  0  0
  -31.3860  -16.0990   21.3300 H   0  0  0  0  0  0  0  0  0  0  0  0
  -25.5280  -14.0240   20.4770 C   0  0  0  0  0  0  0  0  0  0  0  0
  -24.4780  -13.2410   20.8790 C   0  0  0  0  0  0  0  0  0  0  0  0
  -24.9270  -11.8900   20.7680 C   0  0  0  0  0  0  0  0  0  0  0  0
  -26.5510  -13.1480   20.1500 N   0  0  0  0  0  0  0  0  0  0  0  0
  -26.1980  -11.8580   20.3840 N   0  0  0  0  0  0  0  0  0  0  0  0
  -24.2050  -10.6240   20.9540 C   0  0  0  0  0  0  0  0  0  0  0  0
  -24.6310   -9.6610   21.8930 C   0  0  0  0  0  3  0  0  0  0  0  0
  -23.9100   -8.4600   22.0660 C   0  0  0  0  0  3  0  0  0  0  0  0
  -22.7450   -8.2160   21.3000 C   0  0  0  0  0  0  0  0  0  0  0  0
  -22.3370   -9.1690   20.3500 C   0  0  0  0  0  3  0  0  0  0  0  0
  -23.0600  -10.3620   20.1750 C   0  0  0  0  0  3  0  0  0  0  0  0
  -21.9970   -7.0670   21.3820 O   0  0  0  0  0  0  0  0  0  0  0  0
  -21.8570   -6.3810   22.5620 C   0  0  0  0  0  0  0  0  0  0  0  0
  -21.3250   -6.9900   23.7200 C   0  0  0  0  0  3  0  0  0  0  0  0
  -21.1300   -6.2280   24.8880 C   0  0  0  0  0  3  0  0  0  0  0  0
  -21.4610   -4.8610   24.9020 C   0  0  0  0  0  0  0  0  0  0  0  0
  -21.9870   -4.2520   23.7490 C   0  0  0  0  0  3  0  0  0  0  0  0
  -22.1810   -5.0100   22.5810 C   0  0  0  0  0  0  0  0  0  0  0  0
  -22.6670   -4.4130   21.4670 F   0  0  0  0  0  0  0  0  0  0  0  0
  -21.2690   -4.1280   26.0240 F   0  0  0  0  0  0  0  0  0  0  0  0
  -23.1040  -13.7150   21.2540 C   0  0  0  0  0  0  0  0  0  0  0  0
  -22.4380  -13.0080   22.1600 N   0  0  0  0  0  0  0  0  0  0  0  0
  -22.6330  -14.7490   20.7820 O   0  0  0  0  0  0  0  0  0  0  0  0
  -22.8350  -12.1700   22.5600 H   0  0  0  0  0  0  0  0  0  0  0  0
  -21.5190  -13.3090   22.4530 H   0  0  0  0  0  0  0  0  0  0  0  0
  -25.6890  -15.4000   20.3450 N   0  0  0  0  0  0  0  0  0  0  0  0
  -24.9480  -16.0570   20.5570 H   0  0  0  0  0  0  0  0  0  0  0  0
  -26.5240  -15.8540   19.9960 H   0  0  0  0  0  0  0  0  0  0  0  0
  -27.9990  -24.4870   20.4170 C   0  0  0  0  0  2  0  0  0  0  0  0
  -28.5760  -25.3580   19.2650 C   0  0  0  0  0  2  0  0  0  0  0  0
  -28.5330  -26.7750   19.5460 O   0  0  0  0  0  0  0  0  0  0  0  0
  -24.6750  -31.6420   23.0490 C   0  0  0  0  0  0  0  0  0  0  0  0
  -27.3310  -27.4590   19.6000 C   0  0  0  0  0  0  0  0  0  0  0  0
  -23.4620  -30.3390   21.3320 C   0  0  0  0  0  3  0  0  0  0  0  0
  -24.9110  -28.9310   19.7720 C   0  0  0  0  0  0  0  0  0  0  0  0
  -25.9790  -30.7490   21.1160 C   0  0  0  0  0  2  0  0  0  0  0  0
  -26.0720  -29.4280   20.3740 C   0  0  0  0  0  0  0  0  0  0  0  0
  -27.2820  -28.6990   20.2860 C   0  0  0  0  0  3  0  0  0  0  0  0
  -26.1450  -26.9810   18.9960 C   0  0  0  0  0  3  0  0  0  0  0  0
  -24.9410  -27.7070   19.0840 C   0  0  0  0  0  3  0  0  0  0  0  0
  -23.6560  -29.7650   19.9030 C   0  0  0  0  0  2  0  0  0  0  0  0
  -24.7250  -30.9210   21.8920 N   0  0  0  0  0  0  0  0  0  0  0  0
  -23.6000  -31.8560   23.6260 O   0  0  0  0  0  0  0  0  0  0  0  0
  -22.8450  -29.2420   22.2260 C   0  0  0  0  0  0  0  0  0  0  0  0
  -21.5180  -29.0580   22.1210 N   0  0  0  0  0  0  0  0  0  0  0  0
  -23.5550  -28.5600   22.9710 O   0  0  0  0  0  0  0  0  0  0  0  0
  -21.0040  -29.6630   21.4950 H   0  0  0  0  0  0  0  0  0  0  0  0
  -18.1680  -27.7980   22.6170 C   0  0  0  0  0  0  0  0  0  0  0  0
  -20.7300  -28.0540   22.8360 C   0  0  0  0  0  3  0  0  0  0  0  0
  -20.8250  -26.6750   22.1450 C   0  0  0  0  0  2  0  0  0  0  0  0
  -19.6970  -26.4250   21.1390 C   0  0  0  0  0  2  0  0  0  0  0  0
  -18.3350  -26.5080   21.8310 C   0  0  0  0  0  2  0  0  0  0  0  0
  -19.2940  -28.5320   23.0740 C   0  0  0  0  0  0  0  0  0  0  0  0
  -19.0850  -29.7430   23.7690 C   0  0  0  0  0  3  0  0  0  0  0  0
  -17.7820  -30.2200   24.0090 C   0  0  0  0  0  3  0  0  0  0  0  0
  -16.6710  -29.4810   23.5670 C   0  0  0  0  0  3  0  0  0  0  0  0
  -16.8650  -28.2710   22.8770 C   0  0  0  0  0  3  0  0  0  0  0  0
  -25.9630  -32.2490   23.6900 C   0  0  0  0  0  3  0  0  0  0  0  0
  -26.5250  -31.3910   24.8900 C   0  0  1  0  0  0  0  0  0  0  0  0
  -25.4640  -31.0560   25.9650 C   0  0  0  0  0  1  0  0  0  0  0  0
  -27.1140  -30.0560   24.3750 C   0  0  0  0  0  1  0  0  0  0  0  0
  -27.6840  -32.1480   25.5800 C   0  0  0  0  0  1  0  0  0  0  0  0
  -25.6360  -33.6090   24.1360 N   0  0  0  0  0  0  0  0  0  0  0  0
  -25.9350  -34.7230   23.4550 C   0  0  0  0  0  0  0  0  0  0  0  0
  -26.5870  -34.7160   22.4070 O   0  0  0  0  0  0  0  0  0  0  0  0
  -25.0570  -33.6910   24.9590 H   0  0  0  0  0  0  0  0  0  0  0  0
  -24.1640  -36.4980   23.2750 C   0  0  0  0  0  1  0  0  0  0  0  0
  -25.4310  -36.0630   24.0280 C   0  0  0  0  0  3  0  0  0  0  0  0
  -27.5650  -36.9260   24.8790 C   0  0  0  0  0  1  0  0  0  0  0  0
  -26.4400  -37.1430   23.9730 N   0  0  0  0  0  0  0  0  0  0  0  0
  -26.0190  -38.0410   24.1990 H   0  0  0  0  0  0  0  0  0  0  0  0
  1  5  1  0
  2  1  2  0
  2  3  1  0
  3  4  2  0
  4  8  1  0
  4  7  1  0
  5  9  1  0
  5  8  2  0
  6  2  1  0
  9 10  1  0
 11 12  1  0
 11 13  1  0
 12 13  1  0
 12  9  1  0
 13 22  1  0
 14 22  1  0
 15 20  1  0
 16 17  1  0
 16 15  1  0
 18 17  1  0
 18 27  1  0
 18 19  1  0
 20 14  1  0
 20 19  1  0
 21 14  2  0
 22 23  1  0
 24 25  2  0
 25 44  1  0
 26 25  1  0
 26 29  1  0
 27 28  1  0
 27 24  1  0
 28 26  2  0
 29 30  1  0
 30 31  2  0
 32 35  1  0
 32 31  1  0
 33 32  2  0
 34 33  1  0
 34 29  2  0
 35 36  1  0
 36 41  2  0
 36 37  1  0
 37 38  2  0
 38 39  1  0
 39 43  1  0
 40 39  2  0
 41 40  1  0
 42 41  1  0
 44 45  1  0
 45 48  1  0
 45 47  1  0
 46 44  2  0
 49 24  1  0
 49 50  1  0
 51 49  1  0
 52  3  1  0
 53 54  1  0
 53 52  1  0
 54 56  1  0
 55 66  2  0
 56 61  1  0
 57 65  1  0
 57 67  1  0
 58 64  1  0
 58 60  1  0
 59 65  1  0
 60 59  1  0
 61 60  2  0
 62 63  1  0
 62 56  2  0
 63 58  2  0
 64 57  1  0
 65 55  1  0
 67 69  2  0
 68 67  1  0
 70 68  1  0
 71 80  2  0
 71 76  1  0
 72 68  1  0
 72 76  1  0
 73 72  1  0
 74 75  1  0
 74 73  1  0
 75 71  1  0
 76 77  2  0
 77 78  1  0
 79 78  2  0
 80 79  1  0
 81 55  1  0
 81 86  1  0
 81 82  1  0
 82 85  1  1
 82 83  1  0
 84 82  1  0
 86 89  1  0
 87 91  1  0
 87 86  1  0
 88 87  2  0
 91 90  1  0
 93 91  1  0
 93 94  1  0
 93 92  1  0
M  ISO  4  14 100  22 100  53 101  54 101
M  END
>  <TORSDO>  (9) 
F 19

>  <SCORE>  (9) 
-12.744

>  <name>  (9) 
9

>  <ligand_id>  (9) 
9

>  <original_smiles>  (9) 
[H]c1c([H])c([H])c2c(c1[H])C([H])([H])C([H])([H])C([H])([H])C2([H])N([H])C(=O)C1([H])N(C(=O)C([H])(N([H])C(=O)C([H])(N([H])C([H])([H])[H])C([H])([H])[H])C(C([H])([H])[H])(C([H])([H])[H])C([H])([H])[H])C([H])([H])c2c([H])c(OC([H])([H])C([H])([H])c3c(C([H])([H])[H])nc(N([H])C4([H])C([H])([H])C4([H])N([H])C(=O)N4C([H])([H])C([H])([H])C([H])([H])C([H])(n5nc(-c6c([H])c([H])c(Oc7c([H])c([H])c(F)c([H])c7F)c([H])c6[H])c(C(=O)N([H])[H])c5N([H])[H])C4([H])[H])c([H])c3C([H])([H])[H])c([H])c([H])c2C1([H])[H]

>  <smiles>  (9) 
[H]c1c([H])c([H])c2c(c1[H])C([H])([H])C([H])([H])C([H])([H])C2([H])N([H])C(=O)C1([H])N(C(=O)C([H])(N([H])C(=O)C([H])(N([H])C([H])([H])[H])C([H])([H])[H])C(C([H])([H])[H])(C([H])([H])[H])C([H])([H])[H])C([H])([H])c2c([H])c(OC([H])([H])C([H])([H])c3c(C([H])([H])[H])nc(N([H])C4([H])C([H])([H])C4([H])N([H])C(=O)N4C([H])([H])C([H])([H])C([H])([H])C([H])(n5nc(-c6c([H])c([H])c(Oc7c([H])c([H])c(F)c([H])c7F)c([H])c6[H])c(C(=O)N([H])[H])c5N([H])[H])C4([H])[H])c([H])c3C([H])([H])[H])c([H])c([H])c2C1([H])[H]

$$$$
10:0:0
     RDKit          3D

 90 99  0  0  1  0  0  0  0  0999 V2000
  -29.1500  -22.5530   18.9030 C   0  0  0  0  0  3  0  0  0  0  0  0
  -28.6470  -22.3890   21.1810 C   0  0  0  0  0  3  0  0  0  0  0  0
  -28.6740  -23.2630   20.0530 C   0  0  0  0  0  0  0  0  0  0  0  0
  -29.4860  -21.1360   18.8950 C   0  0  0  0  0  0  0  0  0  0  0  0
  -29.3590  -20.3250   20.0780 C   0  0  0  0  0  0  0  0  0  0  0  0
  -29.8980  -20.5350   17.5530 C   0  0  0  0  0  1  0  0  0  0  0  0
  -28.9560  -21.0340   21.1860 N   0  0  0  0  0  0  0  0  0  0  0  0
  -30.6880  -14.8970   19.9210 C   0  0  0  0  0  0  0  0  0  0  0  0
  -30.4300  -12.5870   18.9420 C   0  0  0  0  0  2  0  0  0  0  0  0
  -29.4220  -12.6240   17.7730 C   0  0  0  0  0  2  0  0  0  0  0  0
  -27.9860  -12.4110   18.2920 C   0  0  0  0  0  2  0  0  0  0  0  0
  -27.6730  -13.2760   19.5440 C   0  0  0  0  0  3  0  0  0  0  0  0
  -28.8120  -13.2360   20.5880 C   0  0  0  0  0  2  0  0  0  0  0  0
  -30.0440  -13.6590   19.8990 N   0  0  0  0  0  0  0  0  0  0  0  0
  -31.8350  -14.9400   19.4640 O   0  0  0  0  0  0  0  0  0  0  0  0
  -29.6250  -18.1020   21.6000 C   0  0  0  0  0  2  0  0  0  0  0  0
  -29.5910  -16.5390   21.4930 C   0  0  0  0  0  2  0  0  0  0  0  0
  -30.1430  -17.4940   19.4360 C   0  0  0  0  0  2  0  0  0  0  0  0
  -29.3220  -18.6720   20.2100 C   0  0  0  0  0  3  0  0  0  0  0  0
  -29.9910  -16.1190   20.1390 N   0  0  0  0  0  0  0  0  0  0  0  0
  -25.3370  -13.8050   20.4500 C   0  0  0  0  0  0  0  0  0  0  0  0
  -24.3090  -13.0070   20.8710 C   0  0  0  0  0  0  0  0  0  0  0  0
  -24.7830  -11.6640   20.7720 C   0  0  0  0  0  0  0  0  0  0  0  0
  -26.3720  -12.9460   20.1190 N   0  0  0  0  0  0  0  0  0  0  0  0
  -26.0520  -11.6510   20.3760 N   0  0  0  0  0  0  0  0  0  0  0  0
  -24.0830  -10.3880   20.9760 C   0  0  0  0  0  0  0  0  0  0  0  0
  -24.5380   -9.4350   21.9140 C   0  0  0  0  0  3  0  0  0  0  0  0
  -23.8320   -8.2270   22.1030 C   0  0  0  0  0  3  0  0  0  0  0  0
  -22.6590   -7.9650   21.3570 C   0  0  0  0  0  0  0  0  0  0  0  0
  -22.2260   -8.9040   20.4060 C   0  0  0  0  0  3  0  0  0  0  0  0
  -22.9300  -10.1040   20.2140 C   0  0  0  0  0  3  0  0  0  0  0  0
  -21.9200   -6.8100   21.4590 O   0  0  0  0  0  0  0  0  0  0  0  0
  -21.8220   -6.1230   22.6420 C   0  0  0  0  0  0  0  0  0  0  0  0
  -21.3110   -6.7220   23.8150 C   0  0  0  0  0  3  0  0  0  0  0  0
  -21.1570   -5.9560   24.9880 C   0  0  0  0  0  3  0  0  0  0  0  0
  -21.5080   -4.5920   24.9920 C   0  0  0  0  0  0  0  0  0  0  0  0
  -22.0100   -3.9940   23.8240 C   0  0  0  0  0  3  0  0  0  0  0  0
  -22.1650   -4.7550   22.6520 C   0  0  0  0  0  0  0  0  0  0  0  0
  -22.6260   -4.1660   21.5230 F   0  0  0  0  0  0  0  0  0  0  0  0
  -21.3610   -3.8550   26.1180 F   0  0  0  0  0  0  0  0  0  0  0  0
  -22.9270  -13.4600   21.2470 C   0  0  0  0  0  0  0  0  0  0  0  0
  -22.2720  -12.7450   22.1540 N   0  0  0  0  0  0  0  0  0  0  0  0
  -22.4390  -14.4850   20.7700 O   0  0  0  0  0  0  0  0  0  0  0  0
  -22.6830  -11.9180   22.5600 H   0  0  0  0  0  0  0  0  0  0  0  0
  -21.3490  -13.0280   22.4470 H   0  0  0  0  0  0  0  0  0  0  0  0
  -25.4700  -15.1830   20.2980 N   0  0  0  0  0  0  0  0  0  0  0  0
  -24.7030  -15.8230   20.4760 H   0  0  0  0  0  0  0  0  0  0  0  0
  -26.2840  -15.6340   19.9060 H   0  0  0  0  0  0  0  0  0  0  0  0
  -27.8440  -24.6770   19.9690 C   0  0  0  0  0  2  0  0  0  0  0  0
  -28.2510  -26.1480   20.2290 O   0  0  0  0  0  0  0  0  0  0  0  0
  -24.6280  -31.8320   23.2310 C   0  0  0  0  0  0  0  0  0  0  0  0
  -27.2110  -27.1510   20.1650 C   0  0  0  0  0  0  0  0  0  0  0  0
  -23.4310  -30.4540   21.5770 C   0  0  0  0  0  3  0  0  0  0  0  0
  -24.8840  -28.8960   20.1470 C   0  0  0  0  0  0  0  0  0  0  0  0
  -25.9900  -30.7130   21.4320 C   0  0  0  0  0  2  0  0  0  0  0  0
  -26.0620  -29.3320   20.7660 C   0  0  0  0  0  0  0  0  0  0  0  0
  -27.2280  -28.4760   20.7610 C   0  0  0  0  0  3  0  0  0  0  0  0
  -26.0030  -26.8280   19.5080 C   0  0  0  0  0  3  0  0  0  0  0  0
  -24.8650  -27.6550   19.5070 C   0  0  0  0  0  3  0  0  0  0  0  0
  -23.6600  -29.7910   20.1960 C   0  0  0  0  0  2  0  0  0  0  0  0
  -24.7010  -31.0210   22.1340 N   0  0  0  0  0  0  0  0  0  0  0  0
  -23.5390  -32.1180   23.7550 O   0  0  0  0  0  0  0  0  0  0  0  0
  -22.7450  -29.4390   22.5240 C   0  0  0  0  0  0  0  0  0  0  0  0
  -21.4160  -29.2810   22.3950 N   0  0  0  0  0  0  0  0  0  0  0  0
  -23.4120  -28.7980   23.3420 O   0  0  0  0  0  0  0  0  0  0  0  0
  -20.9360  -29.8450   21.7100 H   0  0  0  0  0  0  0  0  0  0  0  0
  -18.0210  -28.1240   22.9040 C   0  0  0  0  0  0  0  0  0  0  0  0
  -20.5850  -28.3440   23.1580 C   0  0  0  0  0  3  0  0  0  0  0  0
  -20.6620  -26.9180   22.5610 C   0  0  0  0  0  2  0  0  0  0  0  0
  -19.5470  -26.6270   21.5500 C   0  0  0  0  0  2  0  0  0  0  0  0
  -18.1720  -26.7830   22.2030 C   0  0  0  0  0  2  0  0  0  0  0  0
  -19.1530  -28.8640   23.3370 C   0  0  0  0  0  0  0  0  0  0  0  0
  -18.9550  -30.1190   23.9520 C   0  0  0  0  0  3  0  0  0  0  0  0
  -17.6590  -30.6340   24.1370 C   0  0  0  0  0  3  0  0  0  0  0  0
  -16.5410  -29.8900   23.7200 C   0  0  0  0  0  3  0  0  0  0  0  0
  -16.7240  -28.6370   23.1100 C   0  0  0  0  0  3  0  0  0  0  0  0
  -25.9050  -32.4570   23.8690 C   0  0  0  0  0  3  0  0  0  0  0  0
  -25.5970  -33.8570   24.2030 N   0  0  0  0  0  0  0  0  0  0  0  0
  -25.9160  -34.9130   23.4410 C   0  0  0  0  0  0  0  0  0  0  0  0
  -26.5690  -34.8110   22.3990 O   0  0  0  0  0  0  0  0  0  0  0  0
  -25.0270  -34.0100   25.0210 H   0  0  0  0  0  0  0  0  0  0  0  0
  -24.1730  -36.6990   23.1310 C   0  0  0  0  0  1  0  0  0  0  0  0
  -25.4360  -36.3000   23.9100 C   0  0  0  0  0  3  0  0  0  0  0  0
  -27.5870  -37.1960   24.6850 C   0  0  0  0  0  1  0  0  0  0  0  0
  -26.4610  -37.3570   23.7700 N   0  0  0  0  0  0  0  0  0  0  0  0
  -26.0530  -38.2750   23.9230 H   0  0  0  0  0  0  0  0  0  0  0  0
  -26.4030  -31.6810   25.1500 C   0  0  1  0  0  0  0  0  0  0  0  0
  -25.3000  -31.4490   26.2070 C   0  0  0  0  0  1  0  0  0  0  0  0
  -26.9860  -30.3010   24.7700 C   0  0  0  0  0  1  0  0  0  0  0  0
  -27.5500  -32.4700   25.8250 C   0  0  0  0  0  1  0  0  0  0  0  0
  1  3  1  0
  2  7  1  0
  3  2  2  0
  4  1  2  0
  4  5  1  0
  5  7  2  0
  6  4  1  0
  8 20  1  0
  9 14  1  0
 10 11  1  0
 10  9  1  0
 12 11  1  0
 12 24  1  0
 12 13  1  0
 14  8  1  0
 14 13  1  0
 15  8  2  0
 17 16  1  0
 18 20  1  0
 18 19  1  0
 19  5  1  0
 19 16  1  0
 20 17  1  0
 21 22  2  0
 22 41  1  0
 23 22  1  0
 23 26  1  0
 24 25  1  0
 24 21  1  0
 25 23  2  0
 26 27  1  0
 27 28  2  0
 29 32  1  0
 29 28  1  0
 30 29  2  0
 31 30  1  0
 31 26  2  0
 32 33  1  0
 33 38  2  0
 33 34  1  0
 34 35  2  0
 35 36  1  0
 36 40  1  0
 37 36  2  0
 38 37  1  0
 39 38  1  0
 41 42  1  0
 42 45  1  0
 42 44  1  0
 43 41  2  0
 46 21  1  0
 46 47  1  0
 48 46  1  0
 49  3  1  0
 49 50  1  0
 51 62  2  0
 52 50  1  0
 52 57  1  0
 53 61  1  0
 53 63  1  0
 54 60  1  0
 54 56  1  0
 55 61  1  0
 56 55  1  0
 57 56  2  0
 58 52  2  0
 59 58  1  0
 59 54  2  0
 60 53  1  0
 61 51  1  0
 63 65  2  0
 64 63  1  0
 66 64  1  0
 67 76  2  0
 67 72  1  0
 68 64  1  0
 68 72  1  0
 69 68  1  0
 70 71  1  0
 70 69  1  0
 71 67  1  0
 72 73  2  0
 73 74  1  0
 75 74  2  0
 76 75  1  0
 77 51  1  0
 77 78  1  0
 77 87  1  0
 78 81  1  0
 79 83  1  0
 79 78  1  0
 80 79  2  0
 83 82  1  0
 85 83  1  0
 85 86  1  0
 85 84  1  0
 87 90  1  1
 87 88  1  0
 89 87  1  0
M  ISO  4   8 100  20 100  49 101  50 101
M  END
>  <TORSDO>  (10) 
F 17

>  <SCORE>  (10) 
-14.590

>  <name>  (10) 
10

>  <ligand_id>  (10) 
10

>  <original_smiles>  (10) 
[H]c1nc(C2([H])C([H])([H])N(C(=O)N3C([H])([H])C([H])([H])C([H])([H])C([H])(n4nc(-c5c([H])c([H])c(Oc6c([H])c([H])c(F)c([H])c6F)c([H])c5[H])c(C(=O)N([H])[H])c4N([H])[H])C3([H])[H])C([H])([H])C2([H])[H])c(C([H])([H])[H])c([H])c1C([H])([H])Oc1c([H])c([H])c2c(c1[H])C([H])([H])N(C(=O)C([H])(N([H])C(=O)C([H])(N([H])C([H])([H])[H])C([H])([H])[H])C(C([H])([H])[H])(C([H])([H])[H])C([H])([H])[H])C([H])(C(=O)N([H])C1([H])c3c([H])c([H])c([H])c([H])c3C([H])([H])C([H])([H])C1([H])[H])C2([H])[H]

>  <smiles>  (10) 
[H]c1nc(C2([H])C([H])([H])N(C(=O)N3C([H])([H])C([H])([H])C([H])([H])C([H])(n4nc(-c5c([H])c([H])c(Oc6c([H])c([H])c(F)c([H])c6F)c([H])c5[H])c(C(=O)N([H])[H])c4N([H])[H])C3([H])[H])C([H])([H])C2([H])[H])c(C([H])([H])[H])c([H])c1C([H])([H])Oc1c([H])c([H])c2c(c1[H])C([H])([H])N(C(=O)C([H])(N([H])C(=O)C([H])(N([H])C([H])([H])[H])C([H])([H])[H])C(C([H])([H])[H])(C([H])([H])[H])C([H])([H])[H])C([H])(C(=O)N([H])C1([H])c3c([H])c([H])c([H])c([H])c3C([H])([H])C([H])([H])C1([H])[H])C2([H])[H]

$$$$
11:0:0
     RDKit          3D

101111  0  0  1  0  0  0  0  0999 V2000
  -29.8700  -20.3680   19.8990 C   0  0  0  0  0  3  0  0  0  0  0  0
  -30.8200  -21.7480   22.1490 C   0  0  0  0  0  3  0  0  0  0  0  0
  -30.0640  -21.7710   19.8370 C   0  0  0  0  0  0  0  0  0  0  0  0
  -30.1670  -19.6370   21.0800 C   0  0  0  0  0  0  0  0  0  0  0  0
  -30.5860  -22.4580   20.9570 C   0  0  0  0  0  0  0  0  0  0  0  0
  -30.6140  -20.3570   22.2260 C   0  0  0  0  0  0  0  0  0  0  0  0
  -30.9160  -23.9490   20.9160 C   0  0  0  0  0  3  0  0  0  0  0  0
  -30.9530  -24.6040   19.5140 C   0  0  0  0  0  3  0  0  0  0  0  0
  -30.7960  -23.6280   18.3330 C   0  0  0  0  0  2  0  0  0  0  0  0
  -29.7050  -22.5720   18.5890 C   0  0  0  0  0  3  0  0  0  0  0  0
  -31.0760  -14.1320   19.9600 C   0  0  0  0  0  0  0  0  0  0  0  0
  -30.8630  -11.7110   19.4720 C   0  0  0  0  0  2  0  0  0  0  0  0
  -29.8790  -11.4700   18.3110 C   0  0  0  0  0  2  0  0  0  0  0  0
  -28.4330  -11.3770   18.8360 C   0  0  0  0  0  2  0  0  0  0  0  0
  -28.0710  -12.5540   19.7810 C   0  0  0  0  0  3  0  0  0  0  0  0
  -29.1620  -12.7390   20.8580 C   0  0  0  0  0  2  0  0  0  0  0  0
  -30.4500  -12.9390   20.1730 N   0  0  0  0  0  0  0  0  0  0  0  0
  -32.1270  -14.2210   19.3140 O   0  0  0  0  0  0  0  0  0  0  0  0
  -29.4640  -17.4150   19.8700 C   0  0  0  0  0  2  0  0  0  0  0  0
  -31.4470  -17.4580   21.3440 C   0  0  0  0  0  2  0  0  0  0  0  0
  -29.3220  -15.8860   20.0920 C   0  0  0  0  0  2  0  0  0  0  0  0
  -31.3380  -15.9420   21.5970 C   0  0  0  0  0  2  0  0  0  0  0  0
  -30.0720  -18.0970   21.1060 C   0  0  0  0  0  3  0  0  0  0  0  0
  -30.5480  -15.2170   20.5850 N   0  0  0  0  0  0  0  0  0  0  0  0
  -25.8190  -13.3420   20.7480 C   0  0  0  0  0  0  0  0  0  0  0  0
  -24.7170  -12.6520   21.1740 C   0  0  0  0  0  0  0  0  0  0  0  0
  -25.0370  -11.2680   21.0200 C   0  0  0  0  0  0  0  0  0  0  0  0
  -26.7470  -12.3830   20.3700 N   0  0  0  0  0  0  0  0  0  0  0  0
  -26.2830  -11.1270   20.5900 N   0  0  0  0  0  0  0  0  0  0  0  0
  -24.2100  -10.0690   21.2060 C   0  0  0  0  0  0  0  0  0  0  0  0
  -24.3590   -9.2360   22.3360 C   0  0  0  0  0  3  0  0  0  0  0  0
  -23.5400   -8.0980   22.4990 C   0  0  0  0  0  3  0  0  0  0  0  0
  -22.5570   -7.7870   21.5300 C   0  0  0  0  0  0  0  0  0  0  0  0
  -22.4300   -8.6070   20.3930 C   0  0  0  0  0  3  0  0  0  0  0  0
  -23.2490   -9.7360   20.2300 C   0  0  0  0  0  3  0  0  0  0  0  0
  -21.7340   -6.6900   21.5920 O   0  0  0  0  0  0  0  0  0  0  0  0
  -20.9490   -6.4410   22.6890 C   0  0  0  0  0  0  0  0  0  0  0  0
  -19.8960   -7.3030   23.0630 C   0  0  0  0  0  3  0  0  0  0  0  0
  -19.0700   -6.9740   24.1560 C   0  0  0  0  0  3  0  0  0  0  0  0
  -19.2890   -5.7800   24.8700 C   0  0  0  0  0  0  0  0  0  0  0  0
  -20.3360   -4.9180   24.4960 C   0  0  0  0  0  3  0  0  0  0  0  0
  -21.1600   -5.2450   23.4060 C   0  0  0  0  0  0  0  0  0  0  0  0
  -22.1530   -4.4010   23.0370 F   0  0  0  0  0  0  0  0  0  0  0  0
  -18.4930   -5.4590   25.9160 F   0  0  0  0  0  0  0  0  0  0  0  0
  -23.4050  -13.2390   21.6080 C   0  0  0  0  0  0  0  0  0  0  0  0
  -22.6840  -12.5500   22.4880 N   0  0  0  0  0  0  0  0  0  0  0  0
  -23.0320  -14.3390   21.2050 O   0  0  0  0  0  0  0  0  0  0  0  0
  -22.9970  -11.6560   22.8350 H   0  0  0  0  0  0  0  0  0  0  0  0
  -21.8060  -12.9250   22.8200 H   0  0  0  0  0  0  0  0  0  0  0  0
  -26.1020  -14.7010   20.6320 N   0  0  0  0  0  0  0  0  0  0  0  0
  -25.4170  -15.4140   20.8590 H   0  0  0  0  0  0  0  0  0  0  0  0
  -26.9580  -15.0800   20.2490 H   0  0  0  0  0  0  0  0  0  0  0  0
  -28.3750  -23.1710   18.8380 N   0  0  0  0  0  4  0  0  0  0  0  0
  -28.4080  -23.5870   19.7530 H   0  0  0  0  0  0  0  0  0  0  0  0
  -27.7290  -22.3980   18.9030 H   0  0  0  0  0  0  0  0  0  0  0  0
  -27.8220  -24.1570   17.8680 C   0  0  0  0  0  2  0  0  0  0  0  0
  -25.4410  -23.8820   18.6840 C   0  0  0  0  0  1  0  0  0  0  0  0
  -26.6000  -24.8870   18.4750 C   0  0  0  0  0  3  0  0  0  0  0  0
  -26.2650  -26.0210   17.6450 O   0  0  0  0  0  0  0  0  0  0  0  0
  -25.0730  -30.4810   23.0920 C   0  0  0  0  0  0  0  0  0  0  0  0
  -25.4430  -26.9720   18.2170 C   0  0  0  0  0  0  0  0  0  0  0  0
  -23.1610  -30.0640   21.5800 C   0  0  0  0  0  3  0  0  0  0  0  0
  -23.7140  -28.8720   19.3990 C   0  0  0  0  0  0  0  0  0  0  0  0
  -25.5660  -29.8940   20.7220 C   0  0  0  0  0  2  0  0  0  0  0  0
  -25.0740  -28.8610   19.7310 C   0  0  0  0  0  0  0  0  0  0  0  0
  -25.9450  -27.9090   19.1520 C   0  0  0  0  0  3  0  0  0  0  0  0
  -24.0840  -27.0520   17.8440 C   0  0  0  0  0  3  0  0  0  0  0  0
  -23.2110  -27.9650   18.4560 C   0  0  0  0  0  3  0  0  0  0  0  0
  -22.8420  -29.9060   20.0720 C   0  0  0  0  0  2  0  0  0  0  0  0
  -24.6340  -30.1360   21.8490 N   0  0  0  0  0  0  0  0  0  0  0  0
  -24.2760  -30.7750   23.9930 O   0  0  0  0  0  0  0  0  0  0  0  0
  -22.4500  -28.9360   22.3620 C   0  0  0  0  0  0  0  0  0  0  0  0
  -21.1080  -28.9450   22.3360 N   0  0  0  0  0  0  0  0  0  0  0  0
  -23.1000  -28.0660   22.9480 O   0  0  0  0  0  0  0  0  0  0  0  0
  -20.6480  -29.6950   21.8380 H   0  0  0  0  0  0  0  0  0  0  0  0
  -17.6840  -27.8140   22.5560 C   0  0  0  0  0  0  0  0  0  0  0  0
  -20.2300  -27.9630   22.9730 C   0  0  0  0  0  3  0  0  0  0  0  0
  -20.3240  -26.5920   22.2640 C   0  0  0  0  0  2  0  0  0  0  0  0
  -19.2650  -26.4020   21.1720 C   0  0  0  0  0  2  0  0  0  0  0  0
  -17.8570  -26.5310   21.7600 C   0  0  0  0  0  2  0  0  0  0  0  0
  -18.7990  -28.4940   23.1120 C   0  0  0  0  0  0  0  0  0  0  0  0
  -18.5850  -29.7030   23.8110 C   0  0  0  0  0  3  0  0  0  0  0  0
  -17.2880  -30.2260   23.9630 C   0  0  0  0  0  3  0  0  0  0  0  0
  -16.1850  -29.5390   23.4260 C   0  0  0  0  0  3  0  0  0  0  0  0
  -16.3840  -28.3360   22.7260 C   0  0  0  0  0  3  0  0  0  0  0  0
  -26.5920  -30.5470   23.4320 C   0  0  0  0  0  3  0  0  0  0  0  0
  -27.1160  -29.2700   24.1960 C   0  0  1  0  0  0  0  0  0  0  0  0
  -26.2660  -28.8940   25.4310 C   0  0  0  0  0  1  0  0  0  0  0  0
  -27.1480  -28.0460   23.2520 C   0  0  0  0  0  1  0  0  0  0  0  0
  -28.5720  -29.5020   24.6650 C   0  0  0  0  0  1  0  0  0  0  0  0
  -26.8160  -31.7600   24.2290 N   0  0  0  0  0  0  0  0  0  0  0  0
  -27.4620  -32.8500   23.7930 C   0  0  0  0  0  0  0  0  0  0  0  0
  -28.0060  -32.9090   22.6880 O   0  0  0  0  0  0  0  0  0  0  0  0
  -26.3530  -31.8040   25.1260 H   0  0  0  0  0  0  0  0  0  0  0  0
  -26.5380  -35.1430   24.2440 C   0  0  0  0  0  1  0  0  0  0  0  0
  -27.5160  -34.0660   24.7380 C   0  0  0  0  0  3  0  0  0  0  0  0
  -29.7930  -33.7880   25.6110 C   0  0  0  0  0  1  0  0  0  0  0  0
  -28.8690  -34.6460   24.8740 N   0  0  0  0  0  0  0  0  0  0  0  0
  -28.8290  -35.5460   25.3460 H   0  0  0  0  0  0  0  0  0  0  0  0
  -30.2830  -20.4760   24.7380 C   0  0  0  0  0  1  0  0  0  0  0  0
  -30.8950  -19.6890   23.5700 C   0  0  0  0  0  2  0  0  0  0  0  0
  1  4  1  0
  2  6  1  0
  3  1  2  0
  3  5  1  0
  4  6  2  0
  5  2  2  0
  6101  1  0
  7  5  1  0
  8  7  2  0
  9 10  1  0
  9  8  1  0
 10 53  1  0
 10  3  1  0
 11 17  1  0
 11 24  1  0
 12 17  1  0
 13 14  1  0
 13 12  1  0
 15 14  1  0
 15 28  1  0
 15 16  1  0
 17 16  1  0
 18 11  2  0
 19 21  1  0
 19 23  1  0
 20 22  1  0
 21 24  1  0
 23  4  1  0
 23 20  1  0
 24 22  1  0
 25 26  2  0
 26 45  1  0
 27 26  1  0
 27 30  1  0
 28 29  1  0
 28 25  1  0
 29 27  2  0
 30 31  1  0
 31 32  2  0
 33 36  1  0
 33 32  1  0
 34 33  2  0
 35 34  1  0
 35 30  2  0
 36 37  1  0
 37 38  2  0
 37 42  1  0
 38 39  1  0
 39 40  2  0
 40 44  1  0
 41 40  1  0
 42 41  2  0
 43 42  1  0
 45 46  1  0
 46 49  1  0
 46 48  1  0
 47 45  2  0
 50 25  1  0
 50 51  1  0
 52 50  1  0
 53 55  1  0
 53 54  1  0
 56 58  1  0
 56 53  1  0
 58 57  1  0
 59 61  1  0
 59 58  1  0
 60 71  2  0
 61 66  1  0
 62 70  1  0
 62 72  1  0
 63 65  1  0
 63 69  1  0
 64 70  1  0
 65 64  1  0
 66 65  2  0
 67 61  2  0
 67 68  1  0
 68 63  2  0
 69 62  1  0
 70 60  1  0
 72 74  2  0
 73 72  1  0
 75 73  1  0
 76 85  2  0
 76 81  1  0
 77 73  1  0
 77 81  1  0
 78 77  1  0
 79 80  1  0
 79 78  1  0
 80 76  1  0
 81 82  2  0
 82 83  1  0
 84 83  2  0
 85 84  1  0
 86 60  1  0
 86 87  1  0
 86 91  1  0
 87 90  1  1
 87 88  1  0
 89 87  1  0
 91 94  1  0
 92 91  1  0
 92 96  1  0
 93 92  2  0
 96 95  1  0
 96 98  1  0
 98 99  1  0
 98 97  1  0
101100  1  0
M  ISO  4  11 100  24 100  58 101  59 101
M  END
>  <TORSDO>  (11) 
F 20

>  <SCORE>  (11) 
-8.923

>  <name>  (11) 
11

>  <ligand_id>  (11) 
11

>  <original_smiles>  (11) 
[H]c1c([H])c([H])c2c(c1[H])C([H])([H])C([H])([H])C([H])([H])C2([H])N([H])C(=O)C1([H])N(C(=O)C([H])(N([H])C(=O)C([H])(N([H])C([H])([H])[H])C([H])([H])[H])C(C([H])([H])[H])(C([H])([H])[H])C([H])([H])[H])C([H])([H])c2c([H])c(OC([H])(C([H])([H])[H])C([H])([H])[N+]([H])([H])C3([H])c4c([H])c(C5([H])C([H])([H])C([H])([H])N(C(=O)N6C([H])([H])C([H])([H])C([H])([H])C([H])(n7nc(-c8c([H])c([H])c(Oc9c([H])c([H])c(F)c([H])c9F)c([H])c8[H])c(C(=O)N([H])[H])c7N([H])[H])C6([H])[H])C([H])([H])C5([H])[H])c(C([H])([H])C([H])([H])[H])c([H])c4C([H])([H])C([H])([H])C3([H])[H])c([H])c([H])c2C1([H])[H]

>  <smiles>  (11) 
[H]c1c([H])c([H])c2c(c1[H])C([H])([H])C([H])([H])C([H])([H])C2([H])N([H])C(=O)C1([H])N(C(=O)C([H])(N([H])C(=O)C([H])(N([H])C([H])([H])[H])C([H])([H])[H])C(C([H])([H])[H])(C([H])([H])[H])C([H])([H])[H])C([H])([H])c2c([H])c(OC([H])(C([H])([H])[H])C([H])([H])[N+]([H])([H])C3([H])c4c([H])c(C5([H])C([H])([H])C([H])([H])N(C(=O)N6C([H])([H])C([H])([H])C([H])([H])C([H])(n7nc(-c8c([H])c([H])c(Oc9c([H])c([H])c(F)c([H])c9F)c([H])c8[H])c(C(=O)N([H])[H])c7N([H])[H])C6([H])[H])C([H])([H])C5([H])[H])c(C([H])([H])C([H])([H])[H])c([H])c4C([H])([H])C([H])([H])C3([H])[H])c([H])c([H])c2C1([H])[H]

$$$$
13:0:0
     RDKit          3D

 90 99  0  0  1  0  0  0  0  0999 V2000
  -28.3150  -21.0950   18.9790 C   0  0  0  0  0  3  0  0  0  0  0  0
  -27.9560  -22.4790   19.1840 C   0  0  0  0  0  0  0  0  0  0  0  0
  -29.3410  -20.4360   19.7220 C   0  0  0  0  0  0  0  0  0  0  0  0
  -28.6970  -23.3060   20.0970 C   0  0  0  0  0  0  0  0  0  0  0  0
  -26.6730  -22.9520   18.5160 C   0  0  0  0  0  1  0  0  0  0  0  0
  -30.0140  -21.2700   20.5940 N   0  0  0  0  0  0  0  0  0  0  0  0
  -29.7160  -22.6160   20.7500 N   0  0  0  0  0  0  0  0  0  0  0  0
  -30.7750  -15.0090   19.8870 C   0  0  0  0  0  0  0  0  0  0  0  0
  -30.5030  -12.6850   18.9270 C   0  0  0  0  0  2  0  0  0  0  0  0
  -29.4810  -12.6540   17.7700 C   0  0  0  0  0  2  0  0  0  0  0  0
  -28.0530  -12.4360   18.3000 C   0  0  0  0  0  2  0  0  0  0  0  0
  -27.7370  -13.3280   19.5290 C   0  0  0  0  0  3  0  0  0  0  0  0
  -28.8870  -13.3380   20.5660 C   0  0  0  0  0  2  0  0  0  0  0  0
  -30.0990  -13.7810   19.8520 N   0  0  0  0  0  0  0  0  0  0  0  0
  -31.9520  -14.9930   19.5190 O   0  0  0  0  0  0  0  0  0  0  0  0
  -28.6630  -18.1270   20.8730 C   0  0  0  0  0  2  0  0  0  0  0  0
  -28.9560  -16.5910   20.8350 C   0  0  0  0  0  2  0  0  0  0  0  0
  -30.6050  -17.7040   19.5850 C   0  0  0  0  0  2  0  0  0  0  0  0
  -29.4050  -18.7880   19.7280 C   0  0  0  0  0  3  0  0  0  0  0  0
  -30.1280  -16.2840   20.0000 N   0  0  0  0  0  0  0  0  0  0  0  0
  -25.4010  -13.8790   20.4310 C   0  0  0  0  0  0  0  0  0  0  0  0
  -24.3650  -13.0970   20.8520 C   0  0  0  0  0  0  0  0  0  0  0  0
  -24.8220  -11.7460   20.7450 C   0  0  0  0  0  0  0  0  0  0  0  0
  -26.4320  -13.0130   20.1090 N   0  0  0  0  0  0  0  0  0  0  0  0
  -26.0930  -11.7200   20.3580 N   0  0  0  0  0  0  0  0  0  0  0  0
  -24.1030  -10.4800   20.9340 C   0  0  0  0  0  0  0  0  0  0  0  0
  -24.5530   -9.5050   21.8510 C   0  0  0  0  0  3  0  0  0  0  0  0
  -23.8310   -8.3060   22.0340 C   0  0  0  0  0  3  0  0  0  0  0  0
  -22.6440   -8.0710   21.2990 C   0  0  0  0  0  0  0  0  0  0  0  0
  -22.2150   -9.0330   20.3680 C   0  0  0  0  0  3  0  0  0  0  0  0
  -22.9390  -10.2250   20.1840 C   0  0  0  0  0  3  0  0  0  0  0  0
  -21.8930   -6.9240   21.3940 O   0  0  0  0  0  0  0  0  0  0  0  0
  -21.8160   -6.2070   22.5600 C   0  0  0  0  0  0  0  0  0  0  0  0
  -21.3150   -6.7750   23.7530 C   0  0  0  0  0  3  0  0  0  0  0  0
  -21.1880   -5.9840   24.9100 C   0  0  0  0  0  3  0  0  0  0  0  0
  -21.5500   -4.6230   24.8790 C   0  0  0  0  0  0  0  0  0  0  0  0
  -22.0420   -4.0550   23.6910 C   0  0  0  0  0  3  0  0  0  0  0  0
  -22.1700   -4.8430   22.5350 C   0  0  0  0  0  0  0  0  0  0  0  0
  -22.6260   -4.2830   21.3870 F   0  0  0  0  0  0  0  0  0  0  0  0
  -21.4200   -3.8610   25.9890 F   0  0  0  0  0  0  0  0  0  0  0  0
  -22.9890  -13.5630   21.2270 C   0  0  0  0  0  0  0  0  0  0  0  0
  -22.3210  -12.8410   22.1160 N   0  0  0  0  0  0  0  0  0  0  0  0
  -22.5190  -14.6060   20.7700 O   0  0  0  0  0  0  0  0  0  0  0  0
  -22.7180  -11.9960   22.5030 H   0  0  0  0  0  0  0  0  0  0  0  0
  -21.4020  -13.1340   22.4150 H   0  0  0  0  0  0  0  0  0  0  0  0
  -25.5380  -15.2540   20.2590 N   0  0  0  0  0  0  0  0  0  0  0  0
  -24.7470  -15.8810   20.3680 H   0  0  0  0  0  0  0  0  0  0  0  0
  -26.2940  -15.6650   19.7260 H   0  0  0  0  0  0  0  0  0  0  0  0
  -28.1630  -24.7620   20.6870 C   0  0  0  0  0  2  0  0  0  0  0  0
  -28.4370  -26.2090   20.1930 O   0  0  0  0  0  0  0  0  0  0  0  0
  -24.6450  -31.8310   23.1510 C   0  0  0  0  0  0  0  0  0  0  0  0
  -27.3700  -27.1750   20.1740 C   0  0  0  0  0  0  0  0  0  0  0  0
  -23.5050  -30.4180   21.4890 C   0  0  0  0  0  3  0  0  0  0  0  0
  -25.0130  -28.8740   20.0960 C   0  0  0  0  0  0  0  0  0  0  0  0
  -26.0620  -30.7240   21.3880 C   0  0  0  0  0  2  0  0  0  0  0  0
  -26.1740  -29.3370   20.7330 C   0  0  0  0  0  0  0  0  0  0  0  0
  -27.3540  -28.4990   20.7630 C   0  0  0  0  0  3  0  0  0  0  0  0
  -26.1840  -26.8050   19.5010 C   0  0  0  0  0  3  0  0  0  0  0  0
  -25.0280  -27.6140   19.4770 C   0  0  0  0  0  3  0  0  0  0  0  0
  -23.7700  -29.7550   20.1130 C   0  0  0  0  0  2  0  0  0  0  0  0
  -24.7560  -31.0140   22.0630 N   0  0  0  0  0  0  0  0  0  0  0  0
  -23.5420  -32.1000   23.6550 O   0  0  0  0  0  0  0  0  0  0  0  0
  -22.8300  -29.3920   22.4310 C   0  0  0  0  0  0  0  0  0  0  0  0
  -21.5070  -29.2040   22.2820 N   0  0  0  0  0  0  0  0  0  0  0  0
  -23.4980  -28.7680   23.2620 O   0  0  0  0  0  0  0  0  0  0  0  0
  -21.0250  -29.7540   21.5850 H   0  0  0  0  0  0  0  0  0  0  0  0
  -18.1260  -27.9840   22.7360 C   0  0  0  0  0  0  0  0  0  0  0  0
  -20.6820  -28.2540   23.0340 C   0  0  0  0  0  3  0  0  0  0  0  0
  -20.7990  -26.8300   22.4410 C   0  0  0  0  0  2  0  0  0  0  0  0
  -19.7090  -26.5150   21.4130 C   0  0  0  0  0  2  0  0  0  0  0  0
  -18.3180  -26.6450   22.0430 C   0  0  0  0  0  2  0  0  0  0  0  0
  -19.2370  -28.7480   23.1850 C   0  0  0  0  0  0  0  0  0  0  0  0
  -19.0050  -30.0010   23.7900 C   0  0  0  0  0  3  0  0  0  0  0  0
  -17.6960  -30.4920   23.9550 C   0  0  0  0  0  3  0  0  0  0  0  0
  -16.5990  -29.7240   23.5240 C   0  0  0  0  0  3  0  0  0  0  0  0
  -16.8160  -28.4730   22.9190 C   0  0  0  0  0  3  0  0  0  0  0  0
  -25.8970  -32.4880   23.8060 C   0  0  0  0  0  3  0  0  0  0  0  0
  -25.5510  -33.8780   24.1420 N   0  0  0  0  0  0  0  0  0  0  0  0
  -25.8730  -34.9440   23.4020 C   0  0  0  0  0  0  0  0  0  0  0  0
  -26.5630  -34.8660   22.3820 O   0  0  0  0  0  0  0  0  0  0  0  0
  -24.9370  -34.0120   24.9320 H   0  0  0  0  0  0  0  0  0  0  0  0
  -24.1190  -36.7100   23.0380 C   0  0  0  0  0  1  0  0  0  0  0  0
  -25.3520  -36.3170   23.8670 C   0  0  0  0  0  3  0  0  0  0  0  0
  -27.4440  -37.2390   24.7600 C   0  0  0  0  0  1  0  0  0  0  0  0
  -26.3660  -37.3920   23.7880 N   0  0  0  0  0  0  0  0  0  0  0  0
  -25.9370  -38.3020   23.9320 H   0  0  0  0  0  0  0  0  0  0  0  0
  -26.3960  -31.7190   25.0900 C   0  0  1  0  0  0  0  0  0  0  0  0
  -25.2800  -31.4530   26.1280 C   0  0  0  0  0  1  0  0  0  0  0  0
  -27.0180  -30.3540   24.7140 C   0  0  0  0  0  1  0  0  0  0  0  0
  -27.5160  -32.5340   25.7780 C   0  0  0  0  0  1  0  0  0  0  0  0
  1  2  2  0
  1  3  1  0
  2  4  1  0
  3  6  2  0
  4 49  1  0
  4  7  2  0
  5  2  1  0
  6  7  1  0
  8 20  1  0
  9 14  1  0
 10 11  1  0
 10  9  1  0
 12 11  1  0
 12 24  1  0
 12 13  1  0
 14  8  1  0
 14 13  1  0
 15  8  2  0
 17 16  1  0
 18 19  1  0
 18 20  1  0
 19  3  1  0
 19 16  1  0
 20 17  1  0
 21 22  2  0
 22 41  1  0
 23 22  1  0
 23 26  1  0
 24 25  1  0
 24 21  1  0
 25 23  2  0
 26 27  1  0
 27 28  2  0
 29 32  1  0
 29 28  1  0
 30 29  2  0
 31 30  1  0
 31 26  2  0
 32 33  1  0
 33 34  1  0
 34 35  2  0
 36 35  1  0
 36 40  1  0
 37 36  2  0
 38 33  2  0
 38 37  1  0
 39 38  1  0
 41 42  1  0
 42 45  1  0
 42 44  1  0
 43 41  2  0
 46 47  1  0
 46 21  1  0
 48 46  1  0
 50 49  1  0
 51 62  2  0
 52 50  1  0
 52 57  1  0
 53 61  1  0
 53 63  1  0
 54 60  1  0
 54 56  1  0
 55 61  1  0
 56 57  2  0
 56 55  1  0
 58 52  2  0
 59 58  1  0
 59 54  2  0
 60 53  1  0
 61 51  1  0
 63 65  2  0
 64 63  1  0
 66 64  1  0
 67 76  2  0
 67 72  1  0
 68 64  1  0
 68 72  1  0
 69 68  1  0
 70 71  1  0
 70 69  1  0
 71 67  1  0
 72 73  2  0
 73 74  1  0
 75 74  2  0
 76 75  1  0
 77 51  1  0
 77 78  1  0
 77 87  1  0
 78 81  1  0
 79 83  1  0
 79 78  1  0
 80 79  2  0
 83 82  1  0
 85 83  1  0
 85 86  1  0
 85 84  1  0
 87 90  1  1
 87 88  1  0
 89 87  1  0
M  ISO  4   8 100  20 100  49 101  50 101
M  END
>  <TORSDO>  (12) 
F 17

>  <SCORE>  (12) 
-14.753

>  <name>  (12) 
13

>  <ligand_id>  (12) 
13

>  <original_smiles>  (12) 
[H]c1c([H])c([H])c2c(c1[H])C([H])([H])C([H])([H])C([H])([H])C2([H])N([H])C(=O)C1([H])N(C(=O)C([H])(N([H])C(=O)C([H])(N([H])C([H])([H])[H])C([H])([H])[H])C(C([H])([H])[H])(C([H])([H])[H])C([H])([H])[H])C([H])([H])c2c([H])c(OC([H])([H])c3nnc(C4([H])C([H])([H])N(C(=O)N5C([H])([H])C([H])([H])C([H])([H])C([H])(n6nc(-c7c([H])c([H])c(Oc8c([H])c([H])c(F)c([H])c8F)c([H])c7[H])c(C(=O)N([H])[H])c6N([H])[H])C5([H])[H])C([H])([H])C4([H])[H])c([H])c3C([H])([H])[H])c([H])c([H])c2C1([H])[H]

>  <smiles>  (12) 
[H]c1c([H])c([H])c2c(c1[H])C([H])([H])C([H])([H])C([H])([H])C2([H])N([H])C(=O)C1([H])N(C(=O)C([H])(N([H])C(=O)C([H])(N([H])C([H])([H])[H])C([H])([H])[H])C(C([H])([H])[H])(C([H])([H])[H])C([H])([H])[H])C([H])([H])c2c([H])c(OC([H])([H])c3nnc(C4([H])C([H])([H])N(C(=O)N5C([H])([H])C([H])([H])C([H])([H])C([H])(n6nc(-c7c([H])c([H])c(Oc8c([H])c([H])c(F)c([H])c8F)c([H])c7[H])c(C(=O)N([H])[H])c6N([H])[H])C5([H])[H])C([H])([H])C4([H])[H])c([H])c3C([H])([H])[H])c([H])c([H])c2C1([H])[H]

$$$$
14:0:0
     RDKit          3D

 94103  0  0  1  0  0  0  0  0999 V2000
  -27.9080  -20.5760   20.3080 C   0  0  0  0  0  2  0  0  0  0  0  0
  -28.2840  -21.9110   21.0200 C   0  0  0  0  0  2  0  0  0  0  0  0
  -30.3960  -22.0230   19.8630 C   0  0  0  0  0  2  0  0  0  0  0  0
  -30.0770  -20.7370   19.0460 C   0  0  0  0  0  3  0  0  0  0  0  0
  -29.1060  -19.7180   19.7610 C   0  0  0  0  0  3  0  0  0  0  0  0
  -31.2900  -20.2030   18.2600 C   0  0  0  0  0  1  0  0  0  0  0  0
  -29.1350  -22.7660   20.1450 N   0  0  2  0  0  4  0  0  0  0  0  0
  -28.6630  -22.8290   19.2550 H   0  0  0  0  0  0  0  0  0  0  0  0
  -30.7570  -14.5700   20.1350 C   0  0  0  0  0  0  0  0  0  0  0  0
  -30.3750  -12.4170   18.9670 C   0  0  0  0  0  2  0  0  0  0  0  0
  -29.3830  -12.6140   17.8050 C   0  0  0  0  0  2  0  0  0  0  0  0
  -27.9270  -12.4620   18.2930 C   0  0  0  0  0  2  0  0  0  0  0  0
  -27.6480  -13.2620   19.5920 C   0  0  0  0  0  3  0  0  0  0  0  0
  -28.7670  -13.0440   20.6420 C   0  0  0  0  0  2  0  0  0  0  0  0
  -30.0420  -13.4060   20.0140 N   0  0  0  0  0  0  0  0  0  0  0  0
  -31.8740  -14.6560   19.6150 O   0  0  0  0  0  0  0  0  0  0  0  0
  -31.1660  -16.7240   21.2770 C   0  0  0  0  0  2  0  0  0  0  0  0
  -28.8960  -16.2220   20.5660 C   0  0  0  0  0  2  0  0  0  0  0  0
  -30.9540  -18.0510   20.4810 C   0  0  0  0  0  2  0  0  0  0  0  0
  -28.6300  -17.6510   21.1390 C   0  0  0  0  0  2  0  0  0  0  0  0
  -30.2470  -15.6560   20.8100 N   0  0  0  0  0  0  0  0  0  0  0  0
  -29.6370  -18.6970   20.7620 N   0  0  2  0  0  4  0  0  0  0  0  0
  -29.7910  -19.2100   21.6190 H   0  0  0  0  0  0  0  0  0  0  0  0
  -25.2940  -13.8770   20.4280 C   0  0  0  0  0  0  0  0  0  0  0  0
  -24.2380  -13.1090   20.8310 C   0  0  0  0  0  0  0  0  0  0  0  0
  -24.6880  -11.7550   20.7600 C   0  0  0  0  0  0  0  0  0  0  0  0
  -26.3220  -12.9920   20.1330 N   0  0  0  0  0  0  0  0  0  0  0  0
  -25.9630  -11.7080   20.3910 N   0  0  0  0  0  0  0  0  0  0  0  0
  -23.9610  -10.4970   20.9590 C   0  0  0  0  0  0  0  0  0  0  0  0
  -24.4060   -9.5240   21.8820 C   0  0  0  0  0  3  0  0  0  0  0  0
  -23.6800   -8.3300   22.0680 C   0  0  0  0  0  3  0  0  0  0  0  0
  -22.4900   -8.1000   21.3340 C   0  0  0  0  0  0  0  0  0  0  0  0
  -22.0670   -9.0610   20.3980 C   0  0  0  0  0  3  0  0  0  0  0  0
  -22.7950  -10.2470   20.2100 C   0  0  0  0  0  3  0  0  0  0  0  0
  -21.7290   -6.9630   21.4370 O   0  0  0  0  0  0  0  0  0  0  0  0
  -21.6740   -6.2370   22.6010 C   0  0  0  0  0  0  0  0  0  0  0  0
  -21.2390   -6.8090   23.8170 C   0  0  0  0  0  3  0  0  0  0  0  0
  -21.1360   -6.0120   24.9730 C   0  0  0  0  0  3  0  0  0  0  0  0
  -21.4530   -4.6420   24.9140 C   0  0  0  0  0  0  0  0  0  0  0  0
  -21.8780   -4.0680   23.7020 C   0  0  0  0  0  3  0  0  0  0  0  0
  -21.9870   -4.8640   22.5500 C   0  0  0  0  0  0  0  0  0  0  0  0
  -22.3780   -4.3040   21.3800 F   0  0  0  0  0  0  0  0  0  0  0  0
  -21.3450   -3.8720   26.0220 F   0  0  0  0  0  0  0  0  0  0  0  0
  -22.8570  -13.5940   21.1610 C   0  0  0  0  0  0  0  0  0  0  0  0
  -22.1580  -12.8930   22.0470 N   0  0  0  0  0  0  0  0  0  0  0  0
  -22.4040  -14.6280   20.6710 O   0  0  0  0  0  0  0  0  0  0  0  0
  -22.5370  -12.0610   22.4730 H   0  0  0  0  0  0  0  0  0  0  0  0
  -21.2270  -13.1940   22.2990 H   0  0  0  0  0  0  0  0  0  0  0  0
  -25.4520  -15.2490   20.2610 N   0  0  0  0  0  0  0  0  0  0  0  0
  -24.6860  -15.8910   20.4360 H   0  0  0  0  0  0  0  0  0  0  0  0
  -26.2550  -15.6900   19.8390 H   0  0  0  0  0  0  0  0  0  0  0  0
  -29.3020  -24.2050   20.5760 C   0  0  0  0  0  2  0  0  0  0  0  0
  -28.1700  -25.1550   20.0480 C   0  0  0  0  0  2  0  0  0  0  0  0
  -28.3310  -26.5890   20.2870 O   0  0  0  0  0  0  0  0  0  0  0  0
  -24.5930  -31.9250   23.2620 C   0  0  0  0  0  0  0  0  0  0  0  0
  -27.1900  -27.3930   20.2150 C   0  0  0  0  0  0  0  0  0  0  0  0
  -23.3780  -30.5240   21.6300 C   0  0  0  0  0  3  0  0  0  0  0  0
  -24.8210  -28.9750   20.2020 C   0  0  0  0  0  0  0  0  0  0  0  0
  -25.9120  -30.8480   21.4350 C   0  0  0  0  0  2  0  0  0  0  0  0
  -25.9860  -29.4710   20.7960 C   0  0  0  0  0  0  0  0  0  0  0  0
  -27.1730  -28.6890   20.7980 C   0  0  0  0  0  3  0  0  0  0  0  0
  -26.0050  -26.9390   19.5890 C   0  0  0  0  0  3  0  0  0  0  0  0
  -24.8300  -27.7140   19.5900 C   0  0  0  0  0  3  0  0  0  0  0  0
  -23.5810  -29.8440   20.2520 C   0  0  0  0  0  2  0  0  0  0  0  0
  -24.6470  -31.1150   22.1660 N   0  0  0  0  0  0  0  0  0  0  0  0
  -23.5120  -32.2070   23.8000 O   0  0  0  0  0  0  0  0  0  0  0  0
  -22.7190  -29.5090   22.5930 C   0  0  0  0  0  0  0  0  0  0  0  0
  -21.3940  -29.3310   22.4640 N   0  0  0  0  0  0  0  0  0  0  0  0
  -23.3980  -28.8870   23.4140 O   0  0  0  0  0  0  0  0  0  0  0  0
  -20.9070  -29.8790   21.7690 H   0  0  0  0  0  0  0  0  0  0  0  0
  -18.0150  -28.1520   22.9650 C   0  0  0  0  0  0  0  0  0  0  0  0
  -20.5730  -28.4020   23.2410 C   0  0  0  0  0  3  0  0  0  0  0  0
  -20.6730  -26.9670   22.6770 C   0  0  0  0  0  2  0  0  0  0  0  0
  -19.5720  -26.6410   21.6620 C   0  0  0  0  0  2  0  0  0  0  0  0
  -18.1880  -26.7980   22.2990 C   0  0  0  0  0  2  0  0  0  0  0  0
  -19.1350  -28.9120   23.3930 C   0  0  0  0  0  0  0  0  0  0  0  0
  -18.9200  -30.1800   23.9740 C   0  0  0  0  0  3  0  0  0  0  0  0
  -17.6160  -30.6890   24.1330 C   0  0  0  0  0  3  0  0  0  0  0  0
  -16.5100  -29.9240   23.7230 C   0  0  0  0  0  3  0  0  0  0  0  0
  -16.7110  -28.6580   23.1450 C   0  0  0  0  0  3  0  0  0  0  0  0
  -25.8810  -32.5520   23.8760 C   0  0  0  0  0  3  0  0  0  0  0  0
  -25.5780  -33.9520   24.2010 N   0  0  0  0  0  0  0  0  0  0  0  0
  -25.9030  -34.9990   23.4290 C   0  0  0  0  0  0  0  0  0  0  0  0
  -26.5560  -34.8840   22.3890 O   0  0  0  0  0  0  0  0  0  0  0  0
  -24.9930  -34.1170   25.0070 H   0  0  0  0  0  0  0  0  0  0  0  0
  -24.1580  -36.7790   23.1020 C   0  0  0  0  0  1  0  0  0  0  0  0
  -25.4250  -36.3910   23.8810 C   0  0  0  0  0  3  0  0  0  0  0  0
  -27.5830  -37.2880   24.6380 C   0  0  0  0  0  1  0  0  0  0  0  0
  -26.4520  -37.4460   23.7270 N   0  0  0  0  0  0  0  0  0  0  0  0
  -26.0480  -38.3660   23.8830 H   0  0  0  0  0  0  0  0  0  0  0  0
  -26.4000  -31.7820   25.1520 C   0  0  1  0  0  0  0  0  0  0  0  0
  -25.3070  -31.5440   26.2200 C   0  0  0  0  0  1  0  0  0  0  0  0
  -26.9780  -30.4030   24.7590 C   0  0  0  0  0  1  0  0  0  0  0  0
  -27.5570  -32.5700   25.8070 C   0  0  0  0  0  1  0  0  0  0  0  0
  1  2  1  0
  3  7  1  0
  4  6  1  0
  4  5  1  0
  4  3  1  0
  5  1  1  0
  5 22  1  0
  7 52  1  0
  7  2  1  0
  7  8  1  6
  9 21  1  0
 10 15  1  0
 11 12  1  0
 11 10  1  0
 13 12  1  0
 13 27  1  0
 13 14  1  0
 15  9  1  0
 15 14  1  0
 16  9  2  0
 18 21  1  0
 18 20  1  0
 19 22  1  0
 19 17  1  0
 21 17  1  0
 22 20  1  0
 22 23  1  1
 24 25  2  0
 25 44  1  0
 26 25  1  0
 26 29  1  0
 27 28  1  0
 27 24  1  0
 28 26  2  0
 29 30  1  0
 30 31  2  0
 32 35  1  0
 32 31  1  0
 33 32  2  0
 34 33  1  0
 34 29  2  0
 35 36  1  0
 36 37  1  0
 37 38  2  0
 39 38  1  0
 39 43  1  0
 40 39  2  0
 41 36  2  0
 41 40  1  0
 42 41  1  0
 44 45  1  0
 45 48  1  0
 45 47  1  0
 46 44  2  0
 49 24  1  0
 49 50  1  0
 51 49  1  0
 53 54  1  0
 53 52  1  0
 55 66  2  0
 56 54  1  0
 56 61  1  0
 57 65  1  0
 57 67  1  0
 58 64  1  0
 58 60  1  0
 59 65  1  0
 60 61  2  0
 60 59  1  0
 62 63  1  0
 62 56  2  0
 63 58  2  0
 64 57  1  0
 65 55  1  0
 67 69  2  0
 68 67  1  0
 70 68  1  0
 71 80  2  0
 71 76  1  0
 72 68  1  0
 72 76  1  0
 73 72  1  0
 74 75  1  0
 74 73  1  0
 75 71  1  0
 76 77  2  0
 77 78  1  0
 79 78  2  0
 80 79  1  0
 81 55  1  0
 81 82  1  0
 81 91  1  0
 82 85  1  0
 83 87  1  0
 83 82  1  0
 84 83  2  0
 87 86  1  0
 89 87  1  0
 89 90  1  0
 89 88  1  0
 91 94  1  1
 91 92  1  0
 93 91  1  0
M  ISO  4   9 100  21 100  53 101  54 101
M  END
>  <TORSDO>  (13) 
F 18

>  <SCORE>  (13) 
-14.506

>  <name>  (13) 
14

>  <ligand_id>  (13) 
14

>  <original_smiles>  (13) 
[H]c1c([H])c([H])c2c(c1[H])C([H])([H])C([H])([H])C([H])([H])C2([H])N([H])C(=O)C1([H])N(C(=O)C([H])(N([H])C(=O)C([H])(N([H])C([H])([H])[H])C([H])([H])[H])C(C([H])([H])[H])(C([H])([H])[H])C([H])([H])[H])C([H])([H])c2c([H])c(OC([H])([H])C([H])([H])[N+]3([H])C([H])([H])C([H])([H])C([H])([N+]4([H])C([H])([H])C([H])([H])N(C(=O)N5C([H])([H])C([H])([H])C([H])([H])C([H])(n6nc(-c7c([H])c([H])c(Oc8c([H])c([H])c(F)c([H])c8F)c([H])c7[H])c(C(=O)N([H])[H])c6N([H])[H])C5([H])[H])C([H])([H])C4([H])[H])C([H])(C([H])([H])[H])C3([H])[H])c([H])c([H])c2C1([H])[H]

>  <smiles>  (13) 
[H]c1c([H])c([H])c2c(c1[H])C([H])([H])C([H])([H])C([H])([H])C2([H])N([H])C(=O)C1([H])N(C(=O)C([H])(N([H])C(=O)C([H])(N([H])C([H])([H])[H])C([H])([H])[H])C(C([H])([H])[H])(C([H])([H])[H])C([H])([H])[H])C([H])([H])c2c([H])c(OC([H])([H])C([H])([H])[N+]3([H])C([H])([H])C([H])([H])C([H])([N+]4([H])C([H])([H])C([H])([H])N(C(=O)N5C([H])([H])C([H])([H])C([H])([H])C([H])(n6nc(-c7c([H])c([H])c(Oc8c([H])c([H])c(F)c([H])c8F)c([H])c7[H])c(C(=O)N([H])[H])c6N([H])[H])C5([H])[H])C([H])([H])C4([H])[H])C([H])(C([H])([H])[H])C3([H])[H])c([H])c([H])c2C1([H])[H]

$$$$
15:0:0
     RDKit          3D

 96106  0  0  1  0  0  0  0  0999 V2000
  -30.1280  -22.6460   21.0240 C   0  0  0  0  0  3  0  0  0  0  0  0
  -29.5430  -23.9380   20.9920 C   0  0  0  0  0  0  0  0  0  0  0  0
  -28.3610  -24.1390   20.2320 C   0  0  0  0  0  0  0  0  0  0  0  0
  -27.8720  -22.9980   19.5260 C   0  0  0  0  0  0  0  0  0  0  0  0
  -29.5380  -21.5620   20.3450 C   0  0  0  0  0  0  0  0  0  0  0  0
  -26.6210  -23.0760   18.6730 C   0  0  0  0  0  1  0  0  0  0  0  0
  -28.4350  -21.7530   19.5920 N   0  0  0  0  0  0  0  0  0  0  0  0
  -30.1300  -20.2790   20.4650 N   0  0  0  0  0  0  0  0  0  0  0  0
  -30.9780  -20.2590   21.0200 H   0  0  0  0  0  0  0  0  0  0  0  0
  -30.6280  -14.8110   19.9270 C   0  0  0  0  0  0  0  0  0  0  0  0
  -30.3890  -12.5570   18.9340 C   0  0  0  0  0  2  0  0  0  0  0  0
  -29.3690  -12.6430   17.7780 C   0  0  0  0  0  2  0  0  0  0  0  0
  -27.9330  -12.4460   18.3060 C   0  0  0  0  0  2  0  0  0  0  0  0
  -27.6260  -13.3150   19.5560 C   0  0  0  0  0  3  0  0  0  0  0  0
  -28.7630  -13.2270   20.5980 C   0  0  0  0  0  2  0  0  0  0  0  0
  -30.0160  -13.5870   19.9200 N   0  0  0  0  0  0  0  0  0  0  0  0
  -31.7640  -14.9590   19.4650 O   0  0  0  0  0  0  0  0  0  0  0  0
  -29.7870  -17.9910   21.4380 C   0  0  0  0  0  2  0  0  0  0  0  0
  -30.0780  -18.2430   18.9930 C   0  0  0  0  0  2  0  0  0  0  0  0
  -29.3030  -16.5190   21.2340 C   0  0  0  0  0  2  0  0  0  0  0  0
  -29.5780  -16.7770   18.8160 C   0  0  0  0  0  2  0  0  0  0  0  0
  -29.5080  -18.9500   20.2450 C   0  0  0  0  0  3  0  0  0  0  0  0
  -29.7970  -15.9000   19.9890 N   0  0  0  0  0  0  0  0  0  0  0  0
  -25.2940  -13.8360   20.5020 C   0  0  0  0  0  0  0  0  0  0  0  0
  -24.2720  -13.0270   20.9170 C   0  0  0  0  0  0  0  0  0  0  0  0
  -24.7470  -11.6860   20.7770 C   0  0  0  0  0  0  0  0  0  0  0  0
  -26.3270  -12.9860   20.1370 N   0  0  0  0  0  0  0  0  0  0  0  0
  -26.0070  -11.6850   20.3600 N   0  0  0  0  0  0  0  0  0  0  0  0
  -24.0560  -10.4040   20.9600 C   0  0  0  0  0  0  0  0  0  0  0  0
  -24.5210   -9.4380   21.8800 C   0  0  0  0  0  3  0  0  0  0  0  0
  -23.8270   -8.2210   22.0520 C   0  0  0  0  0  3  0  0  0  0  0  0
  -22.6560   -7.9600   21.3020 C   0  0  0  0  0  0  0  0  0  0  0  0
  -22.2110   -8.9140   20.3700 C   0  0  0  0  0  3  0  0  0  0  0  0
  -22.9060  -10.1230   20.1970 C   0  0  0  0  0  3  0  0  0  0  0  0
  -21.9330   -6.7930   21.3820 O   0  0  0  0  0  0  0  0  0  0  0  0
  -21.7880   -6.1170   22.5680 C   0  0  0  0  0  0  0  0  0  0  0  0
  -21.1600   -6.7030   23.6880 C   0  0  0  0  0  3  0  0  0  0  0  0
  -20.9680   -5.9500   24.8620 C   0  0  0  0  0  3  0  0  0  0  0  0
  -21.3950   -4.6090   24.9170 C   0  0  0  0  0  0  0  0  0  0  0  0
  -22.0170   -4.0220   23.8010 C   0  0  0  0  0  3  0  0  0  0  0  0
  -22.2100   -4.7740   22.6290 C   0  0  0  0  0  0  0  0  0  0  0  0
  -22.7890   -4.1960   21.5490 F   0  0  0  0  0  0  0  0  0  0  0  0
  -21.2050   -3.8830   26.0430 F   0  0  0  0  0  0  0  0  0  0  0  0
  -22.8970  -13.4650   21.3300 C   0  0  0  0  0  0  0  0  0  0  0  0
  -22.2630  -12.7280   22.2370 N   0  0  0  0  0  0  0  0  0  0  0  0
  -22.3920  -14.4950   20.8850 O   0  0  0  0  0  0  0  0  0  0  0  0
  -22.6850  -11.8960   22.6220 H   0  0  0  0  0  0  0  0  0  0  0  0
  -21.3440  -13.0030   22.5520 H   0  0  0  0  0  0  0  0  0  0  0  0
  -25.4250  -15.2160   20.3820 N   0  0  0  0  0  0  0  0  0  0  0  0
  -24.6610  -15.8520   20.5840 H   0  0  0  0  0  0  0  0  0  0  0  0
  -26.2420  -15.6840   20.0110 H   0  0  0  0  0  0  0  0  0  0  0  0
  -30.0640  -26.4810   21.4020 C   0  0  0  0  0  2  0  0  0  0  0  0
  -31.3940  -25.7650   21.3860 C   0  0  0  0  0  2  0  0  0  0  0  0
  -30.1460  -25.0330   21.8260 C   0  0  0  0  0  3  0  0  0  0  0  0
  -27.5180  -25.4440   20.3860 C   0  0  0  0  0  2  0  0  0  0  0  0
  -27.7860  -26.6230   19.5610 O   0  0  0  0  0  0  0  0  0  0  0  0
  -24.4850  -31.8910   23.1390 C   0  0  0  0  0  0  0  0  0  0  0  0
  -26.7340  -27.5320   19.6120 C   0  0  0  0  0  0  0  0  0  0  0  0
  -23.1210  -30.6400   21.5010 C   0  0  0  0  0  3  0  0  0  0  0  0
  -24.4220  -29.1650   19.8680 C   0  0  0  0  0  0  0  0  0  0  0  0
  -25.6450  -30.9180   21.1530 C   0  0  0  0  0  2  0  0  0  0  0  0
  -25.6400  -29.5900   20.4160 C   0  0  0  0  0  0  0  0  0  0  0  0
  -26.8040  -28.7820   20.2870 C   0  0  0  0  0  3  0  0  0  0  0  0
  -25.5050  -27.1610   19.0250 C   0  0  0  0  0  3  0  0  0  0  0  0
  -24.3530  -27.9540   19.1630 C   0  0  0  0  0  3  0  0  0  0  0  0
  -23.2160  -30.0570   20.0650 C   0  0  0  0  0  2  0  0  0  0  0  0
  -24.4400  -31.1610   21.9880 N   0  0  0  0  0  0  0  0  0  0  0  0
  -23.4520  -32.1600   23.7700 O   0  0  0  0  0  0  0  0  0  0  0  0
  -22.5020  -29.5750   22.4360 C   0  0  0  0  0  0  0  0  0  0  0  0
  -21.1770  -29.3740   22.3270 N   0  0  0  0  0  0  0  0  0  0  0  0
  -23.2080  -28.9340   23.2190 O   0  0  0  0  0  0  0  0  0  0  0  0
  -20.6660  -29.9460   21.6690 H   0  0  0  0  0  0  0  0  0  0  0  0
  -17.8430  -28.0570   22.7970 C   0  0  0  0  0  0  0  0  0  0  0  0
  -20.3910  -28.3980   23.0810 C   0  0  0  0  0  3  0  0  0  0  0  0
  -20.5420  -26.9800   22.4850 C   0  0  0  0  0  2  0  0  0  0  0  0
  -19.4560  -26.6350   21.4610 C   0  0  0  0  0  2  0  0  0  0  0  0
  -18.0680  -26.7250   22.1030 C   0  0  0  0  0  2  0  0  0  0  0  0
  -18.9340  -28.8490   23.2440 C   0  0  0  0  0  0  0  0  0  0  0  0
  -18.6720  -30.0960   23.8540 C   0  0  0  0  0  3  0  0  0  0  0  0
  -17.3500  -30.5490   24.0230 C   0  0  0  0  0  3  0  0  0  0  0  0
  -16.2740  -29.7540   23.5930 C   0  0  0  0  0  3  0  0  0  0  0  0
  -16.5210  -28.5100   22.9860 C   0  0  0  0  0  3  0  0  0  0  0  0
  -25.8300  -32.4420   23.7040 C   0  0  0  0  0  3  0  0  0  0  0  0
  -25.6090  -33.8450   24.0830 N   0  0  0  0  0  0  0  0  0  0  0  0
  -25.9790  -34.9000   23.3450 C   0  0  0  0  0  0  0  0  0  0  0  0
  -26.6160  -34.7910   22.2920 O   0  0  0  0  0  0  0  0  0  0  0  0
  -25.0480  -34.0080   24.9050 H   0  0  0  0  0  0  0  0  0  0  0  0
  -24.3510  -36.7990   23.0810 C   0  0  0  0  0  1  0  0  0  0  0  0
  -25.5820  -36.2980   23.8540 C   0  0  0  0  0  3  0  0  0  0  0  0
  -27.7740  -37.0400   24.6780 C   0  0  0  0  0  1  0  0  0  0  0  0
  -26.6710  -37.2950   23.7550 N   0  0  0  0  0  0  0  0  0  0  0  0
  -26.3170  -38.2300   23.9360 H   0  0  0  0  0  0  0  0  0  0  0  0
  -26.3750  -31.6120   24.9310 C   0  0  1  0  0  0  0  0  0  0  0  0
  -25.3320  -31.4000   26.0510 C   0  0  0  0  0  1  0  0  0  0  0  0
  -26.8660  -30.2190   24.4720 C   0  0  0  0  0  1  0  0  0  0  0  0
  -27.5990  -32.3310   25.5460 C   0  0  0  0  0  1  0  0  0  0  0  0
  2  1  1  0
  2 54  1  0
  3 55  1  0
  3  2  2  0
  4  7  2  0
  4  3  1  0
  5  8  1  0
  5  1  2  0
  6  4  1  0
  7  5  1  0
  8  9  1  0
 10 23  1  0
 11 16  1  0
 12 13  1  0
 12 11  1  0
 14 13  1  0
 14 27  1  0
 14 15  1  0
 16 10  1  0
 16 15  1  0
 17 10  2  0
 19 22  1  0
 20 18  1  0
 21 19  1  0
 21 23  1  0
 22  8  1  0
 22 18  1  0
 23 20  1  0
 24 25  2  0
 25 44  1  0
 26 25  1  0
 26 29  1  0
 27 28  1  0
 27 24  1  0
 28 26  2  0
 29 30  1  0
 30 31  2  0
 32 35  1  0
 32 31  1  0
 33 32  2  0
 34 33  1  0
 34 29  2  0
 35 36  1  0
 36 41  2  0
 36 37  1  0
 37 38  2  0
 38 39  1  0
 39 43  1  0
 40 39  2  0
 41 40  1  0
 42 41  1  0
 44 45  1  0
 45 48  1  0
 45 47  1  0
 46 44  2  0
 49 24  1  0
 49 50  1  0
 51 49  1  0
 52 54  1  0
 53 52  1  0
 53 54  1  0
 56 58  1  0
 56 55  1  0
 57 68  2  0
 58 63  1  0
 59 67  1  0
 59 69  1  0
 60 66  1  0
 60 62  1  0
 61 67  1  0
 62 61  1  0
 63 62  2  0
 64 65  1  0
 64 58  2  0
 65 60  2  0
 66 59  1  0
 67 57  1  0
 69 71  2  0
 70 69  1  0
 72 70  1  0
 73 82  2  0
 73 78  1  0
 74 70  1  0
 74 78  1  0
 75 74  1  0
 76 77  1  0
 76 75  1  0
 77 73  1  0
 78 79  2  0
 79 80  1  0
 81 80  2  0
 82 81  1  0
 83 57  1  0
 83 84  1  0
 83 93  1  0
 84 87  1  0
 85 89  1  0
 85 84  1  0
 86 85  2  0
 89 88  1  0
 91 89  1  0
 91 92  1  0
 91 90  1  0
 93 96  1  1
 93 94  1  0
 95 93  1  0
M  ISO  4  10 100  23 100  55 101  56 101
M  END
>  <TORSDO>  (14) 
F 18

>  <SCORE>  (14) 
-14.012

>  <name>  (14) 
15

>  <ligand_id>  (14) 
15

>  <original_smiles>  (14) 
[H]c1c([H])c([H])c2c(c1[H])C([H])([H])C([H])([H])C([H])([H])C2([H])N([H])C(=O)C1([H])N(C(=O)C([H])(N([H])C(=O)C([H])(N([H])C([H])([H])[H])C([H])([H])[H])C(C([H])([H])[H])(C([H])([H])[H])C([H])([H])[H])C([H])([H])c2c([H])c(OC([H])([H])c3c(C([H])([H])[H])nc(N([H])C4([H])C([H])([H])C([H])([H])N(C(=O)N5C([H])([H])C([H])([H])C([H])([H])C([H])(n6nc(-c7c([H])c([H])c(Oc8c([H])c([H])c(F)c([H])c8F)c([H])c7[H])c(C(=O)N([H])[H])c6N([H])[H])C5([H])[H])C([H])([H])C4([H])[H])c([H])c3C3([H])C([H])([H])C3([H])[H])c([H])c([H])c2C1([H])[H]

>  <smiles>  (14) 
[H]c1c([H])c([H])c2c(c1[H])C([H])([H])C([H])([H])C([H])([H])C2([H])N([H])C(=O)C1([H])N(C(=O)C([H])(N([H])C(=O)C([H])(N([H])C([H])([H])[H])C([H])([H])[H])C(C([H])([H])[H])(C([H])([H])[H])C([H])([H])[H])C([H])([H])c2c([H])c(OC([H])([H])c3c(C([H])([H])[H])nc(N([H])C4([H])C([H])([H])C([H])([H])N(C(=O)N5C([H])([H])C([H])([H])C([H])([H])C([H])(n6nc(-c7c([H])c([H])c(Oc8c([H])c([H])c(F)c([H])c8F)c([H])c7[H])c(C(=O)N([H])[H])c6N([H])[H])C5([H])[H])C([H])([H])C4([H])[H])c([H])c3C3([H])C([H])([H])C3([H])[H])c([H])c([H])c2C1([H])[H]

$$$$
16:0:0
     RDKit          3D

 95104  0  0  1  0  0  0  0  0999 V2000
  -28.9130  -23.0180   19.2880 C   0  0  0  0  0  3  0  0  0  0  0  0
  -28.8920  -24.4340   19.1500 C   0  0  0  0  0  0  0  0  0  0  0  0
  -28.4050  -25.2430   20.2090 C   0  0  0  0  0  0  0  0  0  0  0  0
  -28.4650  -22.4230   20.4880 C   0  0  0  0  0  0  0  0  0  0  0  0
  -27.9830  -24.5530   21.3740 C   0  0  0  0  0  0  0  0  0  0  0  0
  -29.3890  -25.0800   17.8700 C   0  0  0  0  0  1  0  0  0  0  0  0
  -27.4610  -25.3020   22.5850 C   0  0  0  0  0  1  0  0  0  0  0  0
  -28.0140  -23.1980   21.5060 N   0  0  0  0  0  0  0  0  0  0  0  0
  -28.4350  -26.6380   20.1140 O   0  0  0  0  0  0  0  0  0  0  0  0
  -24.6380  -31.8690   23.2240 C   0  0  0  0  0  0  0  0  0  0  0  0
  -27.2710  -27.3950   20.1280 C   0  0  0  0  0  0  0  0  0  0  0  0
  -23.4320  -30.4720   21.5790 C   0  0  0  0  0  3  0  0  0  0  0  0
  -24.8820  -28.9330   20.1450 C   0  0  0  0  0  0  0  0  0  0  0  0
  -25.9630  -30.8150   21.3880 C   0  0  0  0  0  2  0  0  0  0  0  0
  -26.0430  -29.4420   20.7420 C   0  0  0  0  0  0  0  0  0  0  0  0
  -27.2390  -28.6790   20.7320 C   0  0  0  0  0  3  0  0  0  0  0  0
  -26.0950  -26.9110   19.5190 C   0  0  0  0  0  3  0  0  0  0  0  0
  -24.9060  -27.6670   19.5310 C   0  0  0  0  0  3  0  0  0  0  0  0
  -23.6410  -29.7960   20.1980 C   0  0  0  0  0  2  0  0  0  0  0  0
  -24.6950  -31.0690   22.1200 N   0  0  0  0  0  0  0  0  0  0  0  0
  -23.5560  -32.1430   23.7610 O   0  0  0  0  0  0  0  0  0  0  0  0
  -22.7790  -29.4510   22.5380 C   0  0  0  0  0  0  0  0  0  0  0  0
  -21.4530  -29.2750   22.4140 N   0  0  0  0  0  0  0  0  0  0  0  0
  -23.4620  -28.8200   23.3470 O   0  0  0  0  0  0  0  0  0  0  0  0
  -20.9630  -29.8370   21.7300 H   0  0  0  0  0  0  0  0  0  0  0  0
  -18.0730  -28.1060   22.9320 C   0  0  0  0  0  0  0  0  0  0  0  0
  -20.6350  -28.3380   23.1820 C   0  0  0  0  0  3  0  0  0  0  0  0
  -20.7170  -26.9130   22.5870 C   0  0  0  0  0  2  0  0  0  0  0  0
  -19.6020  -26.6160   21.5790 C   0  0  0  0  0  2  0  0  0  0  0  0
  -18.2290  -26.7640   22.2390 C   0  0  0  0  0  2  0  0  0  0  0  0
  -19.2020  -28.8540   23.3600 C   0  0  0  0  0  0  0  0  0  0  0  0
  -19.0010  -30.1100   23.9670 C   0  0  0  0  0  3  0  0  0  0  0  0
  -17.7030  -30.6220   24.1510 C   0  0  0  0  0  3  0  0  0  0  0  0
  -16.5870  -29.8720   23.7360 C   0  0  0  0  0  3  0  0  0  0  0  0
  -16.7740  -28.6160   23.1350 C   0  0  0  0  0  3  0  0  0  0  0  0
  -25.9250  -32.4960   23.8440 C   0  0  0  0  0  3  0  0  0  0  0  0
  -25.6140  -33.8920   24.1820 N   0  0  0  0  0  0  0  0  0  0  0  0
  -25.9380  -34.9500   23.4270 C   0  0  0  0  0  0  0  0  0  0  0  0
  -26.6000  -34.8520   22.3900 O   0  0  0  0  0  0  0  0  0  0  0  0
  -25.0180  -34.0400   24.9850 H   0  0  0  0  0  0  0  0  0  0  0  0
  -24.1950  -36.7330   23.0990 C   0  0  0  0  0  1  0  0  0  0  0  0
  -25.4480  -36.3340   23.8940 C   0  0  0  0  0  3  0  0  0  0  0  0
  -27.5890  -37.2230   24.7030 C   0  0  0  0  0  1  0  0  0  0  0  0
  -26.4740  -37.3920   23.7730 N   0  0  0  0  0  0  0  0  0  0  0  0
  -26.0660  -38.3090   23.9310 H   0  0  0  0  0  0  0  0  0  0  0  0
  -26.4460  -31.7170   25.1140 C   0  0  1  0  0  0  0  0  0  0  0  0
  -25.3560  -31.4720   26.1840 C   0  0  0  0  0  1  0  0  0  0  0  0
  -27.0260  -30.3410   24.7140 C   0  0  0  0  0  1  0  0  0  0  0  0
  -27.6000  -32.5080   25.7740 C   0  0  0  0  0  1  0  0  0  0  0  0
  -28.3730  -20.8850   20.6860 C   0  0  0  0  0  2  0  0  0  0  0  0
  -29.6620  -20.1420   20.5810 N   0  0  0  0  0  4  0  0  0  0  0  0
  -29.9580  -20.1770   19.6210 H   0  0  0  0  0  0  0  0  0  0  0  0
  -30.3150  -20.6980   21.1090 H   0  0  0  0  0  0  0  0  0  0  0  0
  -30.7250  -14.6130   20.0940 C   0  0  0  0  0  0  0  0  0  0  0  0
  -30.3330  -12.4450   18.9370 C   0  0  0  0  0  2  0  0  0  0  0  0
  -29.3250  -12.5890   17.7780 C   0  0  0  0  0  2  0  0  0  0  0  0
  -27.8900  -12.3890   18.2970 C   0  0  0  0  0  2  0  0  0  0  0  0
  -27.6030  -13.2430   19.5550 C   0  0  0  0  0  3  0  0  0  0  0  0
  -28.7260  -13.0940   20.6140 C   0  0  0  0  0  2  0  0  0  0  0  0
  -29.9950  -13.4540   19.9700 N   0  0  0  0  0  0  0  0  0  0  0  0
  -31.8310  -14.6850   19.5480 O   0  0  0  0  0  0  0  0  0  0  0  0
  -31.1380  -18.1020   20.9210 C   0  0  0  0  0  2  0  0  0  0  0  0
  -28.7240  -17.7210   20.4960 C   0  0  0  0  0  2  0  0  0  0  0  0
  -31.2490  -16.6410   21.4510 C   0  0  0  0  0  2  0  0  0  0  0  0
  -28.9140  -16.2540   21.0110 C   0  0  0  0  0  2  0  0  0  0  0  0
  -29.7330  -18.7270   21.1100 C   0  0  0  0  0  3  0  0  0  0  0  0
  -30.2820  -15.6990   20.8350 N   0  0  0  0  0  0  0  0  0  0  0  0
  -25.2740  -13.8520   20.4560 C   0  0  0  0  0  0  0  0  0  0  0  0
  -24.2270  -13.0770   20.8710 C   0  0  0  0  0  0  0  0  0  0  0  0
  -24.6730  -11.7240   20.7700 C   0  0  0  0  0  0  0  0  0  0  0  0
  -26.2900  -12.9680   20.1230 N   0  0  0  0  0  0  0  0  0  0  0  0
  -25.9390  -11.6830   20.3770 N   0  0  0  0  0  0  0  0  0  0  0  0
  -23.9510  -10.4630   20.9660 C   0  0  0  0  0  0  0  0  0  0  0  0
  -24.3990   -9.4930   21.8900 C   0  0  0  0  0  3  0  0  0  0  0  0
  -23.6790   -8.2930   22.0720 C   0  0  0  0  0  3  0  0  0  0  0  0
  -22.4970   -8.0570   21.3310 C   0  0  0  0  0  0  0  0  0  0  0  0
  -22.0680   -9.0140   20.3970 C   0  0  0  0  0  3  0  0  0  0  0  0
  -22.7900  -10.2060   20.2120 C   0  0  0  0  0  3  0  0  0  0  0  0
  -21.7460   -6.9090   21.4250 O   0  0  0  0  0  0  0  0  0  0  0  0
  -21.6670   -6.1950   22.5930 C   0  0  0  0  0  0  0  0  0  0  0  0
  -21.2040   -6.7770   23.7930 C   0  0  0  0  0  3  0  0  0  0  0  0
  -21.0710   -5.9880   24.9540 C   0  0  0  0  0  3  0  0  0  0  0  0
  -21.3950   -4.6180   24.9150 C   0  0  0  0  0  0  0  0  0  0  0  0
  -21.8510   -4.0360   23.7190 C   0  0  0  0  0  3  0  0  0  0  0  0
  -21.9840   -4.8220   22.5610 C   0  0  0  0  0  0  0  0  0  0  0  0
  -22.4060   -4.2510   21.4060 F   0  0  0  0  0  0  0  0  0  0  0  0
  -21.2610   -3.8580   26.0260 F   0  0  0  0  0  0  0  0  0  0  0  0
  -22.8540  -13.5560   21.2430 C   0  0  0  0  0  0  0  0  0  0  0  0
  -22.1750  -12.8390   22.1330 N   0  0  0  0  0  0  0  0  0  0  0  0
  -22.3920  -14.6000   20.7820 O   0  0  0  0  0  0  0  0  0  0  0  0
  -22.5630  -11.9950   22.5280 H   0  0  0  0  0  0  0  0  0  0  0  0
  -21.2560  -13.1390   22.4230 H   0  0  0  0  0  0  0  0  0  0  0  0
  -25.4360  -15.2260   20.3110 N   0  0  0  0  0  0  0  0  0  0  0  0
  -24.6840  -15.8780   20.5010 H   0  0  0  0  0  0  0  0  0  0  0  0
  -26.2600  -15.6730   19.9300 H   0  0  0  0  0  0  0  0  0  0  0  0
  1  4  1  0
  2  1  2  0
  2  3  1  0
  3  5  2  0
  4 50  1  0
  4  8  2  0
  5  8  1  0
  5  7  1  0
  6  2  1  0
  9 11  1  0
  9  3  1  0
 10 21  2  0
 11 16  1  0
 12 20  1  0
 12 22  1  0
 13 19  1  0
 13 15  1  0
 14 20  1  0
 15 14  1  0
 16 15  2  0
 17 18  1  0
 17 11  2  0
 18 13  2  0
 19 12  1  0
 20 10  1  0
 22 24  2  0
 23 22  1  0
 25 23  1  0
 26 35  2  0
 26 31  1  0
 27 23  1  0
 27 31  1  0
 28 27  1  0
 29 30  1  0
 29 28  1  0
 30 26  1  0
 31 32  2  0
 32 33  1  0
 34 33  2  0
 35 34  1  0
 36 10  1  0
 36 37  1  0
 36 46  1  0
 37 40  1  0
 38 42  1  0
 38 37  1  0
 39 38  2  0
 42 41  1  0
 44 42  1  0
 44 45  1  0
 44 43  1  0
 46 49  1  1
 46 47  1  0
 48 46  1  0
 51 50  1  0
 51 53  1  0
 52 51  1  0
 54 67  1  0
 55 60  1  0
 56 57  1  0
 56 55  1  0
 58 57  1  0
 58 71  1  0
 58 59  1  0
 60 54  1  0
 60 59  1  0
 61 54  2  0
 62 66  1  0
 62 64  1  0
 63 65  1  0
 63 66  1  0
 66 51  1  0
 67 65  1  0
 67 64  1  0
 68 69  2  0
 69 88  1  0
 70 69  1  0
 70 73  1  0
 71 72  1  0
 71 68  1  0
 72 70  2  0
 73 74  1  0
 74 75  2  0
 76 79  1  0
 76 75  1  0
 77 76  2  0
 78 77  1  0
 78 73  2  0
 79 80  1  0
 80 81  1  0
 81 82  2  0
 83 82  1  0
 83 87  1  0
 84 83  2  0
 85 80  2  0
 85 84  1  0
 86 85  1  0
 88 89  1  0
 89 92  1  0
 89 91  1  0
 90 88  2  0
 93 68  1  0
 93 94  1  0
 95 93  1  0
M  ISO  4   3 101   9 101  54 100  67 100
M  END
>  <TORSDO>  (15) 
F 18

>  <SCORE>  (15) 
-14.697

>  <name>  (15) 
16

>  <ligand_id>  (15) 
16

>  <original_smiles>  (15) 
[H]c1c([H])c([H])c2c(c1[H])C([H])([H])C([H])([H])C([H])([H])C2([H])N([H])C(=O)C1([H])N(C(=O)C([H])(N([H])C(=O)C([H])(N([H])C([H])([H])[H])C([H])([H])[H])C(C([H])([H])[H])(C([H])([H])[H])C([H])([H])[H])C([H])([H])c2c([H])c(Oc3c(C([H])([H])[H])nc(C([H])([H])[N+]([H])([H])C4([H])C([H])([H])C([H])([H])N(C(=O)N5C([H])([H])C([H])([H])C([H])([H])C([H])(n6nc(-c7c([H])c([H])c(Oc8c([H])c([H])c(F)c([H])c8F)c([H])c7[H])c(C(=O)N([H])[H])c6N([H])[H])C5([H])[H])C([H])([H])C4([H])[H])c([H])c3C([H])([H])[H])c([H])c([H])c2C1([H])[H]

>  <smiles>  (15) 
[H]c1c([H])c([H])c2c(c1[H])C([H])([H])C([H])([H])C([H])([H])C2([H])N([H])C(=O)C1([H])N(C(=O)C([H])(N([H])C(=O)C([H])(N([H])C([H])([H])[H])C([H])([H])[H])C(C([H])([H])[H])(C([H])([H])[H])C([H])([H])[H])C([H])([H])c2c([H])c(Oc3c(C([H])([H])[H])nc(C([H])([H])[N+]([H])([H])C4([H])C([H])([H])C([H])([H])N(C(=O)N5C([H])([H])C([H])([H])C([H])([H])C([H])(n6nc(-c7c([H])c([H])c(Oc8c([H])c([H])c(F)c([H])c8F)c([H])c7[H])c(C(=O)N([H])[H])c6N([H])[H])C5([H])[H])C([H])([H])C4([H])[H])c([H])c3C([H])([H])[H])c([H])c([H])c2C1([H])[H]

$$$$
17:0:0
     RDKit          3D

 96106  0  0  1  0  0  0  0  0999 V2000
  -28.2040  -21.0490   21.1320 C   0  0  0  0  0  2  0  0  0  0  0  0
  -27.0610  -21.8420   19.0620 C   0  0  0  0  0  2  0  0  0  0  0  0
  -29.0870  -20.2510   18.7990 C   0  0  0  0  0  2  0  0  0  0  0  0
  -27.3290  -19.2730   19.4400 C   0  0  0  0  0  2  0  0  0  0  0  0
  -27.9680  -22.5260   21.5160 C   0  0  0  0  0  2  0  0  0  0  0  0
  -27.8050  -23.1920   19.1350 C   0  0  0  0  0  2  0  0  0  0  0  0
  -28.7030  -18.7820   18.9790 C   0  0  0  0  0  3  0  0  0  0  0  0
  -27.8850  -20.6970   19.6590 C   0  0  1  0  0  0  0  0  0  0  0  0
  -28.4540  -23.4430   20.4560 N   0  0  1  0  0  4  0  0  0  0  0  0
  -29.4300  -23.2060   20.3440 H   0  0  0  0  0  0  0  0  0  0  0  0
  -32.5250  -14.4540   20.4090 C   0  0  0  0  0  0  0  0  0  0  0  0
  -32.0500  -12.1030   19.9690 C   0  0  0  0  0  2  0  0  0  0  0  0
  -31.2430  -12.0250   18.6560 C   0  0  0  0  0  2  0  0  0  0  0  0
  -29.7320  -12.1440   18.9400 C   0  0  0  0  0  2  0  0  0  0  0  0
  -29.3850  -13.3430   19.8650 C   0  0  0  0  0  3  0  0  0  0  0  0
  -30.3270  -13.3840   21.0920 C   0  0  0  0  0  2  0  0  0  0  0  0
  -31.7080  -13.3850   20.5970 N   0  0  0  0  0  0  0  0  0  0  0  0
  -33.7470  -14.3540   20.3040 O   0  0  0  0  0  0  0  0  0  0  0  0
  -30.5110  -16.7590   21.3940 C   0  0  0  0  0  3  0  0  0  0  0  0
  -29.5650  -17.7170   21.1400 C   0  0  0  0  0  3  0  0  0  0  0  0
  -30.9740  -16.4120   20.0940 C   0  0  0  0  0  0  0  0  0  0  0  0
  -30.4080  -17.1150   19.1340 N   0  0  0  0  0  0  0  0  0  0  0  0
  -29.5440  -17.9280   19.7720 N   0  0  0  0  0  0  0  0  0  0  0  0
  -31.9890  -15.4980   19.7640 N   0  0  0  0  0  0  0  0  0  0  0  0
  -32.6270  -15.8700   19.0780 H   0  0  0  0  0  0  0  0  0  0  0  0
  -27.1060  -14.3980   20.4220 C   0  0  0  0  0  0  0  0  0  0  0  0
  -25.8890  -13.8450   20.7130 C   0  0  0  0  0  0  0  0  0  0  0  0
  -26.0880  -12.4300   20.7010 C   0  0  0  0  0  0  0  0  0  0  0  0
  -27.9790  -13.3340   20.2560 N   0  0  0  0  0  0  0  0  0  0  0  0
  -27.3650  -12.1450   20.4820 N   0  0  0  0  0  0  0  0  0  0  0  0
  -25.1250  -11.3300   20.8270 C   0  0  0  0  0  0  0  0  0  0  0  0
  -25.3410  -10.2600   21.7220 C   0  0  0  0  0  3  0  0  0  0  0  0
  -24.3930   -9.2220   21.8370 C   0  0  0  0  0  3  0  0  0  0  0  0
  -23.2130   -9.2480   21.0570 C   0  0  0  0  0  0  0  0  0  0  0  0
  -23.0130  -10.3040   20.1500 C   0  0  0  0  0  3  0  0  0  0  0  0
  -23.9610  -11.3350   20.0320 C   0  0  0  0  0  3  0  0  0  0  0  0
  -22.2480   -8.2710   21.0870 O   0  0  0  0  0  0  0  0  0  0  0  0
  -22.0440   -7.4920   22.1970 C   0  0  0  0  0  0  0  0  0  0  0  0
  -21.7450   -8.0560   23.4560 C   0  0  0  0  0  3  0  0  0  0  0  0
  -21.4740   -7.2190   24.5560 C   0  0  0  0  0  3  0  0  0  0  0  0
  -21.4900   -5.8200   24.3970 C   0  0  0  0  0  0  0  0  0  0  0  0
  -21.7820   -5.2560   23.1440 C   0  0  0  0  0  3  0  0  0  0  0  0
  -22.0570   -6.0910   22.0460 C   0  0  0  0  0  0  0  0  0  0  0  0
  -22.3160   -5.5430   20.8340 F   0  0  0  0  0  0  0  0  0  0  0  0
  -21.2210   -5.0140   25.4520 F   0  0  0  0  0  0  0  0  0  0  0  0
  -24.5920  -14.5810   20.8960 C   0  0  0  0  0  0  0  0  0  0  0  0
  -23.6980  -14.0510   21.7230 N   0  0  0  0  0  0  0  0  0  0  0  0
  -24.3850  -15.6590   20.3420 O   0  0  0  0  0  0  0  0  0  0  0  0
  -23.8760  -13.1780   22.1970 H   0  0  0  0  0  0  0  0  0  0  0  0
  -22.8220  -14.5260   21.8850 H   0  0  0  0  0  0  0  0  0  0  0  0
  -27.5330  -15.7100   20.2600 N   0  0  0  0  0  0  0  0  0  0  0  0
  -26.8970  -16.4950   20.3320 H   0  0  0  0  0  0  0  0  0  0  0  0
  -28.4910  -15.9840   20.0700 H   0  0  0  0  0  0  0  0  0  0  0  0
  -28.4030  -24.8680   20.8750 C   0  0  0  0  0  2  0  0  0  0  0  0
  -29.2780  -25.7980   20.0050 C   0  0  0  0  0  2  0  0  0  0  0  0
  -29.1250  -27.1530   20.4300 O   0  0  0  0  0  0  0  0  0  0  0  0
  -24.7150  -31.9100   23.3080 C   0  0  0  0  0  0  0  0  0  0  0  0
  -27.8790  -27.7370   20.3540 C   0  0  0  0  0  0  0  0  0  0  0  0
  -23.7270  -30.4530   21.5690 C   0  0  0  0  0  3  0  0  0  0  0  0
  -25.3780  -29.0470   20.2350 C   0  0  0  0  0  0  0  0  0  0  0  0
  -26.2260  -30.9960   21.5510 C   0  0  0  0  0  2  0  0  0  0  0  0
  -26.4500  -29.6480   20.9030 C   0  0  0  0  0  0  0  0  0  0  0  0
  -27.7020  -29.0000   20.9600 C   0  0  0  0  0  3  0  0  0  0  0  0
  -26.7810  -27.1440   19.6840 C   0  0  0  0  0  3  0  0  0  0  0  0
  -25.5360  -27.7930   19.6250 C   0  0  0  0  0  3  0  0  0  0  0  0
  -24.0760  -29.8110   20.2010 C   0  0  0  0  0  2  0  0  0  0  0  0
  -24.9030  -31.1350   22.2020 N   0  0  0  0  0  0  0  0  0  0  0  0
  -23.5820  -32.0970   23.7710 O   0  0  0  0  0  0  0  0  0  0  0  0
  -23.0890  -29.3720   22.4700 C   0  0  0  0  0  0  0  0  0  0  0  0
  -21.7840  -29.1290   22.2750 N   0  0  0  0  0  0  0  0  0  0  0  0
  -23.7680  -28.7580   23.2970 O   0  0  0  0  0  0  0  0  0  0  0  0
  -21.2990  -29.6830   21.5820 H   0  0  0  0  0  0  0  0  0  0  0  0
  -18.4370  -27.8190   22.6330 C   0  0  0  0  0  0  0  0  0  0  0  0
  -20.9780  -28.1330   22.9810 C   0  0  0  0  0  3  0  0  0  0  0  0
  -21.1340  -26.7350   22.3420 C   0  0  0  0  0  2  0  0  0  0  0  0
  -20.0690  -26.4320   21.2830 C   0  0  0  0  0  2  0  0  0  0  0  0
  -18.6680  -26.5120   21.8930 C   0  0  0  0  0  2  0  0  0  0  0  0
  -19.5230  -28.5900   23.1270 C   0  0  0  0  0  0  0  0  0  0  0  0
  -19.2550  -29.8150   23.7740 C   0  0  0  0  0  3  0  0  0  0  0  0
  -17.9340  -30.2720   23.9350 C   0  0  0  0  0  3  0  0  0  0  0  0
  -16.8620  -29.4980   23.4610 C   0  0  0  0  0  3  0  0  0  0  0  0
  -17.1130  -28.2740   22.8140 C   0  0  0  0  0  3  0  0  0  0  0  0
  -25.9080  -32.6170   24.0240 C   0  0  0  0  0  3  0  0  0  0  0  0
  -25.5060  -34.0040   24.2860 N   0  0  0  0  0  0  0  0  0  0  0  0
  -25.8420  -35.0510   23.5190 C   0  0  0  0  0  0  0  0  0  0  0  0
  -26.5950  -34.9530   22.5460 O   0  0  0  0  0  0  0  0  0  0  0  0
  -24.8460  -34.1520   25.0350 H   0  0  0  0  0  0  0  0  0  0  0  0
  -24.0440  -36.7250   22.9910 C   0  0  0  0  0  1  0  0  0  0  0  0
  -25.2510  -36.4230   23.8930 C   0  0  0  0  0  3  0  0  0  0  0  0
  -27.2880  -37.4430   24.8030 C   0  0  0  0  0  1  0  0  0  0  0  0
  -26.2280  -37.5290   23.8030 N   0  0  0  0  0  0  0  0  0  0  0  0
  -25.7650  -38.4280   23.9050 H   0  0  0  0  0  0  0  0  0  0  0  0
  -26.3470  -31.9000   25.3590 C   0  0  1  0  0  0  0  0  0  0  0  0
  -25.1690  -31.5700   26.3060 C   0  0  0  0  0  1  0  0  0  0  0  0
  -27.0850  -30.5780   25.0500 C   0  0  0  0  0  1  0  0  0  0  0  0
  -27.3470  -32.7940   26.1310 C   0  0  0  0  0  1  0  0  0  0  0  0
  1  5  1  0
  2  6  1  0
  8  2  1  6
  4  8  1  0
  6  9  1  0
  7  3  1  0
  7  4  1  0
  7 23  1  0
  8  3  1  0
  8  1  1  0
  9 54  1  0
  9  5  1  0
  9 10  1  6
 11 17  1  0
 12 17  1  0
 13 14  1  0
 13 12  1  0
 15 14  1  0
 15 29  1  0
 15 16  1  0
 17 16  1  0
 18 11  2  0
 20 19  2  0
 21 19  1  0
 22 23  1  0
 22 21  2  0
 23 20  1  0
 24 21  1  0
 24 11  1  0
 25 24  1  0
 26 27  2  0
 27 46  1  0
 28 27  1  0
 28 31  1  0
 29 26  1  0
 29 30  1  0
 30 28  2  0
 31 32  1  0
 32 33  2  0
 34 37  1  0
 34 33  1  0
 35 34  2  0
 36 35  1  0
 36 31  2  0
 37 38  1  0
 38 39  1  0
 39 40  2  0
 41 40  1  0
 41 45  1  0
 42 41  2  0
 43 38  2  0
 43 42  1  0
 44 43  1  0
 46 47  1  0
 47 50  1  0
 47 49  1  0
 48 46  2  0
 51 52  1  0
 51 26  1  0
 53 51  1  0
 55 56  1  0
 55 54  1  0
 57 68  2  0
 58 56  1  0
 58 63  1  0
 59 67  1  0
 59 69  1  0
 60 62  1  0
 61 67  1  0
 62 63  2  0
 62 61  1  0
 64 58  2  0
 65 64  1  0
 65 60  2  0
 66 60  1  0
 66 59  1  0
 67 57  1  0
 69 71  2  0
 70 69  1  0
 72 70  1  0
 73 82  2  0
 73 78  1  0
 74 70  1  0
 74 78  1  0
 75 74  1  0
 76 77  1  0
 76 75  1  0
 77 73  1  0
 78 79  2  0
 79 80  1  0
 81 80  2  0
 82 81  1  0
 83 57  1  0
 83 84  1  0
 83 93  1  0
 84 87  1  0
 85 89  1  0
 85 84  1  0
 86 85  2  0
 89 88  1  0
 91 89  1  0
 91 92  1  0
 91 90  1  0
 93 96  1  1
 93 94  1  0
 95 93  1  0
M  ISO  4  11 100  24 100  55 101  56 101
M  END
>  <TORSDO>  (16) 
F 18

>  <SCORE>  (16) 
-12.945

>  <name>  (16) 
17

>  <ligand_id>  (16) 
17

>  <original_smiles>  (16) 
[H]c1c([H])c([H])c2c(c1[H])C([H])([H])C([H])([H])C([H])([H])C2([H])N([H])C(=O)C1([H])N(C(=O)C([H])(N([H])C(=O)C([H])(N([H])C([H])([H])[H])C([H])([H])[H])C(C([H])([H])[H])(C([H])([H])[H])C([H])([H])[H])C([H])([H])c2c([H])c(OC([H])([H])C([H])([H])[N+]3([H])C([H])([H])C([H])([H])C4(C([H])([H])C([H])(n5nc(N([H])C(=O)N6C([H])([H])C([H])([H])C([H])([H])C([H])(n7nc(-c8c([H])c([H])c(Oc9c([H])c([H])c(F)c([H])c9F)c([H])c8[H])c(C(=O)N([H])[H])c7N([H])[H])C6([H])[H])c([H])c5[H])C4([H])[H])C([H])([H])C3([H])[H])c([H])c([H])c2C1([H])[H]

>  <smiles>  (16) 
[H]c1c([H])c([H])c2c(c1[H])C([H])([H])C([H])([H])C([H])([H])C2([H])N([H])C(=O)C1([H])N(C(=O)C([H])(N([H])C(=O)C([H])(N([H])C([H])([H])[H])C([H])([H])[H])C(C([H])([H])[H])(C([H])([H])[H])C([H])([H])[H])C([H])([H])c2c([H])c(OC([H])([H])C([H])([H])[N+]3([H])C([H])([H])C([H])([H])C4(C([H])([H])C([H])(n5nc(N([H])C(=O)N6C([H])([H])C([H])([H])C([H])([H])C([H])(n7nc(-c8c([H])c([H])c(Oc9c([H])c([H])c(F)c([H])c9F)c([H])c8[H])c(C(=O)N([H])[H])c7N([H])[H])C6([H])[H])c([H])c5[H])C4([H])[H])C([H])([H])C3([H])[H])c([H])c([H])c2C1([H])[H]

$$$$
18:0:0
     RDKit          3D

 93103  0  0  1  0  0  0  0  0999 V2000
  -29.2440  -21.8740   21.6930 C   0  0  0  0  0  3  0  0  0  0  0  0
  -29.2660  -20.4530   21.6290 C   0  0  0  0  0  3  0  0  0  0  0  0
  -29.2520  -22.6540   20.5080 C   0  0  0  0  0  0  0  0  0  0  0  0
  -29.2710  -19.8020   20.3780 C   0  0  0  0  0  0  0  0  0  0  0  0
  -29.2850  -21.9140   19.2980 C   0  0  0  0  0  0  0  0  0  0  0  0
  -29.2510  -20.5520   19.2470 N   0  0  0  0  0  0  0  0  0  0  0  0
  -30.3180  -22.0180   16.8830 C   0  0  0  0  0  2  0  0  0  0  0  0
  -30.6660  -23.3080   17.5720 C   0  0  0  0  0  2  0  0  0  0  0  0
  -29.3950  -22.5720   17.9520 C   0  0  0  0  0  3  0  0  0  0  0  0
  -30.1120  -17.6690   19.1420 C   0  0  0  0  0  2  0  0  0  0  0  0
  -29.1780  -18.2680   20.1720 C   0  0  0  0  0  3  0  0  0  0  0  0
  -30.2000  -17.1370   20.5460 C   0  0  0  0  0  3  0  0  0  0  0  0
  -30.6210  -14.6390   20.4430 C   0  0  0  0  0  0  0  0  0  0  0  0
  -30.3850  -12.4210   19.3720 C   0  0  0  0  0  2  0  0  0  0  0  0
  -29.4550  -12.5720   18.1490 C   0  0  0  0  0  2  0  0  0  0  0  0
  -27.9780  -12.4230   18.5670 C   0  0  0  0  0  2  0  0  0  0  0  0
  -27.6150  -13.2840   19.8060 C   0  0  0  0  0  3  0  0  0  0  0  0
  -28.6630  -13.1220   20.9310 C   0  0  0  0  0  2  0  0  0  0  0  0
  -29.9810  -13.4360   20.3610 N   0  0  0  0  0  0  0  0  0  0  0  0
  -31.7910  -14.7830   20.0790 O   0  0  0  0  0  0  0  0  0  0  0  0
  -29.8360  -15.7210   20.7040 N   0  0  0  0  0  0  0  0  0  0  0  0
  -28.8850  -15.5190   20.9750 H   0  0  0  0  0  0  0  0  0  0  0  0
  -25.2180  -13.8950   20.5040 C   0  0  0  0  0  0  0  0  0  0  0  0
  -24.1470  -13.1240   20.8700 C   0  0  0  0  0  0  0  0  0  0  0  0
  -24.6060  -11.7720   20.8440 C   0  0  0  0  0  0  0  0  0  0  0  0
  -26.2610  -13.0100   20.2790 N   0  0  0  0  0  0  0  0  0  0  0  0
  -25.8980  -11.7280   20.5430 N   0  0  0  0  0  0  0  0  0  0  0  0
  -23.8760  -10.5120   21.0290 C   0  0  0  0  0  0  0  0  0  0  0  0
  -24.2960   -9.5480   21.9730 C   0  0  0  0  0  3  0  0  0  0  0  0
  -23.5690   -8.3510   22.1470 C   0  0  0  0  0  3  0  0  0  0  0  0
  -22.4060   -8.1090   21.3770 C   0  0  0  0  0  0  0  0  0  0  0  0
  -22.0050   -9.0610   20.4230 C   0  0  0  0  0  3  0  0  0  0  0  0
  -22.7330  -10.2490   20.2480 C   0  0  0  0  0  3  0  0  0  0  0  0
  -21.6500   -6.9650   21.4610 O   0  0  0  0  0  0  0  0  0  0  0  0
  -21.5750   -6.2340   22.6190 C   0  0  0  0  0  0  0  0  0  0  0  0
  -21.1090   -6.7960   23.8270 C   0  0  0  0  0  3  0  0  0  0  0  0
  -20.9830   -5.9920   24.9770 C   0  0  0  0  0  3  0  0  0  0  0  0
  -21.3130   -4.6240   24.9190 C   0  0  0  0  0  0  0  0  0  0  0  0
  -21.7740   -4.0610   23.7160 C   0  0  0  0  0  3  0  0  0  0  0  0
  -21.9020   -4.8640   22.5690 C   0  0  0  0  0  0  0  0  0  0  0  0
  -22.3260   -4.3110   21.4060 F   0  0  0  0  0  0  0  0  0  0  0  0
  -21.1850   -3.8490   26.0200 F   0  0  0  0  0  0  0  0  0  0  0  0
  -22.7480  -13.6040   21.1310 C   0  0  0  0  0  0  0  0  0  0  0  0
  -22.0140  -12.9080   21.9920 N   0  0  0  0  0  0  0  0  0  0  0  0
  -22.3160  -14.6300   20.6050 O   0  0  0  0  0  0  0  0  0  0  0  0
  -22.3760  -12.0770   22.4330 H   0  0  0  0  0  0  0  0  0  0  0  0
  -21.0740  -13.2090   22.2100 H   0  0  0  0  0  0  0  0  0  0  0  0
  -25.3890  -15.2640   20.3210 N   0  0  0  0  0  0  0  0  0  0  0  0
  -24.6170  -15.9180   20.4020 H   0  0  0  0  0  0  0  0  0  0  0  0
  -26.2260  -15.6870   19.9440 H   0  0  0  0  0  0  0  0  0  0  0  0
  -29.3630  -24.2210   20.5650 C   0  0  0  0  0  3  0  0  0  0  0  0
  -28.1310  -25.1170   20.1560 C   0  0  0  0  0  3  0  0  0  0  0  0
  -28.3270  -26.5770   20.2190 O   0  0  0  0  0  0  0  0  0  0  0  0
  -24.5800  -31.9120   23.2340 C   0  0  0  0  0  0  0  0  0  0  0  0
  -27.1920  -27.3950   20.1580 C   0  0  0  0  0  0  0  0  0  0  0  0
  -23.3730  -30.5220   21.5860 C   0  0  0  0  0  3  0  0  0  0  0  0
  -24.8200  -28.9820   20.1450 C   0  0  0  0  0  0  0  0  0  0  0  0
  -25.9060  -30.8530   21.3950 C   0  0  0  0  0  2  0  0  0  0  0  0
  -25.9850  -29.4800   20.7420 C   0  0  0  0  0  0  0  0  0  0  0  0
  -27.1760  -28.7000   20.7330 C   0  0  0  0  0  3  0  0  0  0  0  0
  -26.0040  -26.9430   19.5380 C   0  0  0  0  0  3  0  0  0  0  0  0
  -24.8290  -27.7220   19.5310 C   0  0  0  0  0  3  0  0  0  0  0  0
  -23.5820  -29.8530   20.2000 C   0  0  0  0  0  2  0  0  0  0  0  0
  -24.6390  -31.1120   22.1300 N   0  0  0  0  0  0  0  0  0  0  0  0
  -23.4970  -32.1850   23.7720 O   0  0  0  0  0  0  0  0  0  0  0  0
  -22.7120  -29.5020   22.5410 C   0  0  0  0  0  0  0  0  0  0  0  0
  -21.3850  -29.3270   22.4140 N   0  0  0  0  0  0  0  0  0  0  0  0
  -23.3910  -28.8680   23.3530 O   0  0  0  0  0  0  0  0  0  0  0  0
  -20.8960  -29.8920   21.7320 H   0  0  0  0  0  0  0  0  0  0  0  0
  -18.0020  -28.1570   22.9220 C   0  0  0  0  0  0  0  0  0  0  0  0
  -20.5640  -28.3880   23.1790 C   0  0  0  0  0  3  0  0  0  0  0  0
  -20.6490  -26.9630   22.5840 C   0  0  0  0  0  2  0  0  0  0  0  0
  -19.5370  -26.6640   21.5730 C   0  0  0  0  0  2  0  0  0  0  0  0
  -18.1610  -26.8150   22.2280 C   0  0  0  0  0  2  0  0  0  0  0  0
  -19.1300  -28.9020   23.3530 C   0  0  0  0  0  0  0  0  0  0  0  0
  -18.9260  -30.1610   23.9610 C   0  0  0  0  0  3  0  0  0  0  0  0
  -17.6290  -30.6720   24.1440 C   0  0  0  0  0  3  0  0  0  0  0  0
  -16.5130  -29.9230   23.7280 C   0  0  0  0  0  3  0  0  0  0  0  0
  -16.7020  -28.6680   23.1220 C   0  0  0  0  0  3  0  0  0  0  0  0
  -25.8640  -32.5370   23.8620 C   0  0  0  0  0  3  0  0  0  0  0  0
  -26.3750  -31.7600   25.1370 C   0  0  1  0  0  0  0  0  0  0  0  0
  -25.2800  -31.5210   26.2010 C   0  0  0  0  0  1  0  0  0  0  0  0
  -26.9480  -30.3810   24.7370 C   0  0  0  0  0  1  0  0  0  0  0  0
  -27.5260  -32.5460   25.8060 C   0  0  0  0  0  1  0  0  0  0  0  0
  -25.5620  -33.9350   24.1950 N   0  0  0  0  0  0  0  0  0  0  0  0
  -25.8900  -34.9890   23.4340 C   0  0  0  0  0  0  0  0  0  0  0  0
  -26.5480  -34.8840   22.3950 O   0  0  0  0  0  0  0  0  0  0  0  0
  -24.9830  -34.0940   25.0070 H   0  0  0  0  0  0  0  0  0  0  0  0
  -24.1560  -36.7800   23.0980 C   0  0  0  0  0  1  0  0  0  0  0  0
  -25.4070  -36.3760   23.8950 C   0  0  0  0  0  3  0  0  0  0  0  0
  -27.5520  -37.2620   24.6990 C   0  0  0  0  0  1  0  0  0  0  0  0
  -26.4380  -37.4300   23.7690 N   0  0  0  0  0  0  0  0  0  0  0  0
  -26.0320  -38.3510   23.9170 H   0  0  0  0  0  0  0  0  0  0  0  0
  2  1  1  0
  3 51  1  0
  3  1  2  0
  4  2  2  0
  5  3  1  0
  6  5  2  0
  6  4  1  0
  7  8  1  0
  7  9  1  0
  8  9  1  0
  9  5  1  0
 10 11  1  0
 10 12  1  0
 11  4  1  0
 11 12  1  0
 12 21  1  0
 13 21  1  0
 14 19  1  0
 15 16  1  0
 15 14  1  0
 17 16  1  0
 17 26  1  0
 17 18  1  0
 19 13  1  0
 19 18  1  0
 20 13  2  0
 21 22  1  0
 23 24  2  0
 24 43  1  0
 25 24  1  0
 25 28  1  0
 26 23  1  0
 26 27  1  0
 27 25  2  0
 28 29  1  0
 29 30  2  0
 31 34  1  0
 31 30  1  0
 32 31  2  0
 33 32  1  0
 33 28  2  0
 34 35  1  0
 35 36  1  0
 36 37  2  0
 38 37  1  0
 38 42  1  0
 39 38  2  0
 40 35  2  0
 40 39  1  0
 41 40  1  0
 43 44  1  0
 44 47  1  0
 44 46  1  0
 45 43  2  0
 48 49  1  0
 48 23  1  0
 50 48  1  0
 52 53  1  0
 52 51  2  0
 54 65  2  0
 55 53  1  0
 55 60  1  0
 56 64  1  0
 56 66  1  0
 57 63  1  0
 57 59  1  0
 58 64  1  0
 59 58  1  0
 60 59  2  0
 61 55  2  0
 62 61  1  0
 62 57  2  0
 63 56  1  0
 64 54  1  0
 66 68  2  0
 67 66  1  0
 69 67  1  0
 70 79  2  0
 70 75  1  0
 71 67  1  0
 71 75  1  0
 72 71  1  0
 73 74  1  0
 73 72  1  0
 74 70  1  0
 75 76  2  0
 76 77  1  0
 78 77  2  0
 79 78  1  0
 80 54  1  0
 80 85  1  0
 80 81  1  0
 81 84  1  1
 81 82  1  0
 83 81  1  0
 85 88  1  0
 86 90  1  0
 86 85  1  0
 87 86  2  0
 90 89  1  0
 92 90  1  0
 92 93  1  0
 92 91  1  0
M  ISO  4  13 100  21 100  52 101  53 101
M  END
>  <TORSDO>  (17) 
F 20

>  <SCORE>  (17) 
-13.817

>  <name>  (17) 
18

>  <ligand_id>  (17) 
18

>  <original_smiles>  (17) 
[H]c1c(C2([H])C([H])([H])C2([H])N([H])C(=O)N2C([H])([H])C([H])([H])C([H])([H])C([H])(n3nc(-c4c([H])c([H])c(Oc5c([H])c([H])c(F)c([H])c5F)c([H])c4[H])c(C(=O)N([H])[H])c3N([H])[H])C2([H])[H])nc(C2([H])C([H])([H])C2([H])[H])c(C([H])([H])C([H])([H])Oc2c([H])c([H])c3c(c2[H])C([H])([H])N(C(=O)C([H])(N([H])C(=O)C([H])(N([H])C([H])([H])[H])C([H])([H])[H])C(C([H])([H])[H])(C([H])([H])[H])C([H])([H])[H])C([H])(C(=O)N([H])C2([H])c4c([H])c([H])c([H])c([H])c4C([H])([H])C([H])([H])C2([H])[H])C3([H])[H])c1[H]

>  <smiles>  (17) 
[H]c1c(C2([H])C([H])([H])C2([H])N([H])C(=O)N2C([H])([H])C([H])([H])C([H])([H])C([H])(n3nc(-c4c([H])c([H])c(Oc5c([H])c([H])c(F)c([H])c5F)c([H])c4[H])c(C(=O)N([H])[H])c3N([H])[H])C2([H])[H])nc(C2([H])C([H])([H])C2([H])[H])c(C([H])([H])C([H])([H])Oc2c([H])c([H])c3c(c2[H])C([H])([H])N(C(=O)C([H])(N([H])C(=O)C([H])(N([H])C([H])([H])[H])C([H])([H])[H])C(C([H])([H])[H])(C([H])([H])[H])C([H])([H])[H])C([H])(C(=O)N([H])C2([H])c4c([H])c([H])c([H])c([H])c4C([H])([H])C([H])([H])C2([H])[H])C3([H])[H])c1[H]

$$$$
19:0:0
     RDKit          3D

105115  0  0  1  0  0  0  0  0999 V2000
  -31.5840  -21.4900   22.7250 C   0  0  0  0  0  0  0  0  0  0  0  0
  -30.5650  -20.6470   20.6470 C   0  0  0  0  0  0  0  0  0  0  0  0
  -30.6130  -21.6090   21.6960 C   0  0  0  0  0  0  0  0  0  0  0  0
  -32.5530  -20.4740   22.5910 C   0  0  0  0  0  0  0  0  0  0  0  0
  -31.5210  -19.5790   20.7010 C   0  0  0  0  0  0  0  0  0  0  0  0
  -33.7300  -20.3340   23.5410 C   0  0  0  0  0  1  0  0  0  0  0  0
  -32.5020  -19.5440   21.6250 N   0  0  0  0  0  0  0  0  0  0  0  0
  -31.5800  -21.8240   25.3450 C   0  0  0  0  0  2  0  0  0  0  0  0
  -30.3630  -22.5340   24.8190 C   0  0  0  0  0  2  0  0  0  0  0  0
  -31.5890  -22.3880   23.9370 C   0  0  0  0  0  3  0  0  0  0  0  0
  -28.3190  -19.7740   19.8640 C   0  0  0  0  0  1  0  0  0  0  0  0
  -29.4820  -20.7260   19.5360 C   0  0  0  0  0  3  0  0  0  0  0  0
  -28.9450  -22.0830   19.2060 N   0  0  0  0  0  4  0  0  0  0  0  0
  -28.0730  -21.9410   18.7180 H   0  0  0  0  0  0  0  0  0  0  0  0
  -28.7180  -22.5660   20.0640 H   0  0  0  0  0  0  0  0  0  0  0  0
  -29.7820  -22.9730   18.3550 C   0  0  0  0  0  2  0  0  0  0  0  0
  -29.0610  -24.2970   17.9950 C   0  0  0  0  0  2  0  0  0  0  0  0
  -28.9010  -25.1690   19.1310 O   0  0  0  0  0  0  0  0  0  0  0  0
  -25.4710  -29.9420   23.1690 C   0  0  0  0  0  0  0  0  0  0  0  0
  -27.8010  -26.0110   19.2230 C   0  0  0  0  0  0  0  0  0  0  0  0
  -24.2230  -29.1040   21.2060 C   0  0  0  0  0  3  0  0  0  0  0  0
  -25.5840  -27.7630   19.5190 C   0  0  0  0  0  0  0  0  0  0  0  0
  -26.7810  -29.1800   21.1890 C   0  0  0  0  0  2  0  0  0  0  0  0
  -26.7540  -27.9870   20.2530 C   0  0  0  0  0  0  0  0  0  0  0  0
  -27.8590  -27.1140   20.1110 C   0  0  0  0  0  3  0  0  0  0  0  0
  -26.5960  -25.7960   18.5090 C   0  0  0  0  0  3  0  0  0  0  0  0
  -25.4990  -26.6640   18.6510 C   0  0  0  0  0  3  0  0  0  0  0  0
  -24.4430  -28.7360   19.7170 C   0  0  0  0  0  2  0  0  0  0  0  0
  -25.5080  -29.4090   21.9150 N   0  0  0  0  0  0  0  0  0  0  0  0
  -24.3950  -30.2170   23.7170 O   0  0  0  0  0  0  0  0  0  0  0  0
  -23.4030  -27.9790   21.8800 C   0  0  0  0  0  0  0  0  0  0  0  0
  -22.0770  -27.9930   21.6670 N   0  0  0  0  0  0  0  0  0  0  0  0
  -23.9600  -27.1070   22.5520 O   0  0  0  0  0  0  0  0  0  0  0  0
  -21.6960  -28.7460   21.1110 H   0  0  0  0  0  0  0  0  0  0  0  0
  -18.5630  -27.1580   21.7790 C   0  0  0  0  0  0  0  0  0  0  0  0
  -21.1130  -27.0140   22.1700 C   0  0  0  0  0  3  0  0  0  0  0  0
  -21.0780  -25.7560   21.2730 C   0  0  0  0  0  2  0  0  0  0  0  0
  -20.0040  -25.8230   20.1830 C   0  0  0  0  0  2  0  0  0  0  0  0
  -18.6150  -25.9920   20.8060 C   0  0  0  0  0  2  0  0  0  0  0  0
  -19.7380  -27.6480   22.4080 C   0  0  0  0  0  0  0  0  0  0  0  0
  -19.6400  -28.7560   23.2770 C   0  0  0  0  0  3  0  0  0  0  0  0
  -18.3970  -29.3690   23.5220 C   0  0  0  0  0  3  0  0  0  0  0  0
  -17.2340  -28.8700   22.9090 C   0  0  0  0  0  3  0  0  0  0  0  0
  -17.3170  -27.7650   22.0440 C   0  0  0  0  0  3  0  0  0  0  0  0
  -26.7770  -30.2560   23.9620 C   0  0  0  0  0  3  0  0  0  0  0  0
  -26.6040  -31.5690   24.5970 N   0  0  0  0  0  0  0  0  0  0  0  0
  -27.1500  -32.7080   24.1500 C   0  0  0  0  0  0  0  0  0  0  0  0
  -27.9220  -32.7480   23.1880 O   0  0  0  0  0  0  0  0  0  0  0  0
  -25.9420  -31.6210   25.3580 H   0  0  0  0  0  0  0  0  0  0  0  0
  -25.7420  -34.7900   24.0680 C   0  0  0  0  0  1  0  0  0  0  0  0
  -26.7830  -34.0100   24.8870 C   0  0  0  0  0  3  0  0  0  0  0  0
  -28.8630  -34.3140   26.1560 C   0  0  0  0  0  1  0  0  0  0  0  0
  -27.9480  -34.8780   25.1670 N   0  0  0  0  0  0  0  0  0  0  0  0
  -27.6460  -35.7900   25.4980 H   0  0  0  0  0  0  0  0  0  0  0  0
  -27.1300  -29.1580   25.0390 C   0  0  1  0  0  0  0  0  0  0  0  0
  -25.9580  -28.8230   25.9920 C   0  0  0  0  0  1  0  0  0  0  0  0
  -27.5730  -27.8450   24.3550 C   0  0  0  0  0  1  0  0  0  0  0  0
  -28.3230  -29.6340   25.9010 C   0  0  0  0  0  1  0  0  0  0  0  0
  -30.1560  -23.9440   21.5140 C   0  0  0  0  0  1  0  0  0  0  0  0
  -29.6700  -22.6160   21.7160 O   0  0  0  0  0  0  0  0  0  0  0  0
  -31.5680  -18.3560   19.7620 C   0  0  0  0  0  2  0  0  0  0  0  0
  -30.8030  -13.2490   19.3500 C   0  0  0  0  0  0  0  0  0  0  0  0
  -29.9650  -11.3550   17.9910 C   0  0  0  0  0  2  0  0  0  0  0  0
  -28.8400  -11.7850   17.0300 C   0  0  0  0  0  2  0  0  0  0  0  0
  -27.4710  -11.6790   17.7270 C   0  0  0  0  0  2  0  0  0  0  0  0
  -27.4620  -12.3800   19.1070 C   0  0  0  0  0  3  0  0  0  0  0  0
  -28.6880  -11.9600   19.9590 C   0  0  0  0  0  2  0  0  0  0  0  0
  -29.9110  -12.2210   19.1850 N   0  0  0  0  0  0  0  0  0  0  0  0
  -31.7810  -13.3720   18.6120 O   0  0  0  0  0  0  0  0  0  0  0  0
  -31.8400  -14.6730   21.0560 C   0  0  0  0  0  2  0  0  0  0  0  0
  -32.2980  -16.0420   20.4720 C   0  0  0  0  0  2  0  0  0  0  0  0
  -29.9720  -16.4710   19.8020 C   0  0  0  0  0  2  0  0  0  0  0  0
  -29.5490  -15.1120   20.4210 C   0  0  0  0  0  3  0  0  0  0  0  0
  -28.9110  -15.2550   21.8190 C   0  0  0  0  0  1  0  0  0  0  0  0
  -30.6410  -14.1180   20.3940 N   0  0  0  0  0  0  0  0  0  0  0  0
  -31.1990  -17.0520   20.4100 N   0  0  2  0  0  4  0  0  0  0  0  0
  -30.9750  -17.2870   21.3650 H   0  0  0  0  0  0  0  0  0  0  0  0
  -25.2730  -13.1060   20.2510 C   0  0  0  0  0  0  0  0  0  0  0  0
  -24.2450  -12.3860   20.7970 C   0  0  0  0  0  0  0  0  0  0  0  0
  -24.6170  -11.0120   20.6690 C   0  0  0  0  0  0  0  0  0  0  0  0
  -26.2070  -12.1720   19.8240 N   0  0  0  0  0  0  0  0  0  0  0  0
  -25.8290  -10.9090   20.1350 N   0  0  0  0  0  0  0  0  0  0  0  0
  -23.8700   -9.7860   20.9670 C   0  0  0  0  0  0  0  0  0  0  0  0
  -24.3660   -8.8190   21.8680 C   0  0  0  0  0  3  0  0  0  0  0  0
  -23.6200   -7.6550   22.1510 C   0  0  0  0  0  3  0  0  0  0  0  0
  -22.3630   -7.4510   21.5330 C   0  0  0  0  0  0  0  0  0  0  0  0
  -21.8840   -8.4060   20.6210 C   0  0  0  0  0  3  0  0  0  0  0  0
  -22.6290   -9.5620   20.3340 C   0  0  0  0  0  3  0  0  0  0  0  0
  -21.5810   -6.3380   21.7280 O   0  0  0  0  0  0  0  0  0  0  0  0
  -21.5970   -5.6450   22.9110 C   0  0  0  0  0  0  0  0  0  0  0  0
  -21.2640   -6.2580   24.1390 C   0  0  0  0  0  3  0  0  0  0  0  0
  -21.2260   -5.4920   25.3210 C   0  0  0  0  0  3  0  0  0  0  0  0
  -21.5110   -4.1150   25.2760 C   0  0  0  0  0  0  0  0  0  0  0  0
  -21.8390   -3.5020   24.0540 C   0  0  0  0  0  3  0  0  0  0  0  0
  -21.8780   -4.2650   22.8740 C   0  0  0  0  0  0  0  0  0  0  0  0
  -22.1740   -3.6660   21.6950 F   0  0  0  0  0  0  0  0  0  0  0  0
  -21.4680   -3.3750   26.4100 F   0  0  0  0  0  0  0  0  0  0  0  0
  -22.9440  -12.9310   21.3150 C   0  0  0  0  0  0  0  0  0  0  0  0
  -22.3500  -12.2700   22.3010 N   0  0  0  0  0  0  0  0  0  0  0  0
  -22.4700  -13.9780   20.8790 O   0  0  0  0  0  0  0  0  0  0  0  0
  -22.7470  -11.4230   22.6790 H   0  0  0  0  0  0  0  0  0  0  0  0
  -21.4870  -12.6220   22.6890 H   0  0  0  0  0  0  0  0  0  0  0  0
  -25.4780  -14.4690   20.0600 N   0  0  0  0  0  0  0  0  0  0  0  0
  -24.7750  -15.1560   20.3080 H   0  0  0  0  0  0  0  0  0  0  0  0
  -26.2660  -14.8690   19.5690 H   0  0  0  0  0  0  0  0  0  0  0  0
  1 10  1  0
  2  5  2  0
  2  3  1  0
  3 60  1  0
  3  1  2  0
  4  1  1  0
  4  6  1  0
  5  7  1  0
  7  4  2  0
  9  8  1  0
 10  9  1  0
 10  8  1  0
 12 11  1  0
 12  2  1  0
 13 12  1  0
 13 15  1  0
 14 13  1  0
 16 13  1  0
 17 16  1  0
 17 18  1  0
 18 20  1  0
 19 30  2  0
 20 25  1  0
 21 31  1  0
 21 29  1  0
 22 28  1  0
 22 24  1  0
 23 29  1  0
 24 23  1  0
 25 24  2  0
 26 27  1  0
 26 20  2  0
 27 22  2  0
 28 21  1  0
 29 19  1  0
 31 33  2  0
 32 31  1  0
 34 32  1  0
 35 44  2  0
 35 40  1  0
 36 32  1  0
 36 40  1  0
 37 36  1  0
 38 39  1  0
 38 37  1  0
 39 35  1  0
 40 41  2  0
 41 42  1  0
 43 42  2  0
 44 43  1  0
 45 19  1  0
 45 46  1  0
 45 55  1  0
 46 49  1  0
 47 46  1  0
 47 51  1  0
 48 47  2  0
 51 50  1  0
 51 53  1  0
 53 54  1  0
 53 52  1  0
 55 58  1  1
 55 56  1  0
 57 55  1  0
 59 60  1  0
 61 76  1  0
 61  5  1  0
 62 75  1  0
 63 68  1  0
 64 65  1  0
 64 63  1  0
 66 65  1  0
 66 81  1  0
 66 67  1  0
 68 62  1  0
 68 67  1  0
 69 62  2  0
 71 70  1  0
 72 76  1  0
 72 73  1  0
 73 74  1  0
 75 73  1  0
 75 70  1  0
 76 71  1  0
 76 77  1  1
 78 79  2  0
 79 98  1  0
 80 79  1  0
 80 83  1  0
 81 82  1  0
 81 78  1  0
 82 80  2  0
 83 84  1  0
 84 85  2  0
 86 89  1  0
 86 85  1  0
 87 86  2  0
 88 87  1  0
 88 83  2  0
 89 90  1  0
 90 91  1  0
 91 92  2  0
 93 92  1  0
 93 97  1  0
 94 93  2  0
 95 90  2  0
 95 94  1  0
 96 95  1  0
 98 99  1  0
 99101  1  0
 99102  1  0
100 98  2  0
103 78  1  0
103104  1  0
105103  1  0
M  ISO  4  17 101  18 101  62 100  75 100
M  END
>  <TORSDO>  (18) 
F 23

>  <SCORE>  (18) 
-5.947

>  <name>  (18) 
19

>  <ligand_id>  (18) 
19

>  <original_smiles>  (18) 
[H]c1c([H])c([H])c2c(c1[H])C([H])([H])C([H])([H])C([H])([H])C2([H])N([H])C(=O)C1([H])N(C(=O)C([H])(N([H])C(=O)C([H])(N([H])C([H])([H])[H])C([H])([H])[H])C(C([H])([H])[H])(C([H])([H])[H])C([H])([H])[H])C([H])([H])c2c([H])c(OC([H])([H])C([H])([H])[N+]([H])([H])C([H])(c3c(C([H])([H])[N+]4([H])C([H])([H])C([H])([H])N(C(=O)N5C([H])([H])C([H])([H])C([H])([H])C([H])(n6nc(-c7c([H])c([H])c(Oc8c([H])c([H])c(F)c([H])c8F)c([H])c7[H])c(C(=O)N([H])[H])c6N([H])[H])C5([H])[H])C([H])(C([H])([H])[H])C4([H])[H])nc(C([H])([H])[H])c(C4([H])C([H])([H])C4([H])[H])c3OC([H])([H])[H])C([H])([H])[H])c([H])c([H])c2C1([H])[H]

>  <smiles>  (18) 
[H]c1c([H])c([H])c2c(c1[H])C([H])([H])C([H])([H])C([H])([H])C2([H])N([H])C(=O)C1([H])N(C(=O)C([H])(N([H])C(=O)C([H])(N([H])C([H])([H])[H])C([H])([H])[H])C(C([H])([H])[H])(C([H])([H])[H])C([H])([H])[H])C([H])([H])c2c([H])c(OC([H])([H])C([H])([H])[N+]([H])([H])C([H])(c3c(C([H])([H])[N+]4([H])C([H])([H])C([H])([H])N(C(=O)N5C([H])([H])C([H])([H])C([H])([H])C([H])(n6nc(-c7c([H])c([H])c(Oc8c([H])c([H])c(F)c([H])c8F)c([H])c7[H])c(C(=O)N([H])[H])c6N([H])[H])C5([H])[H])C([H])(C([H])([H])[H])C4([H])[H])nc(C([H])([H])[H])c(C4([H])C([H])([H])C4([H])[H])c3OC([H])([H])[H])C([H])([H])[H])c([H])c([H])c2C1([H])[H]

$$$$
20:0:0
     RDKit          3D

 93102  0  0  1  0  0  0  0  0999 V2000
  -30.7010  -21.7530   18.3360 C   0  0  0  0  0  3  0  0  0  0  0  0
  -29.4080  -21.2670   20.3070 C   0  0  0  0  0  0  0  0  0  0  0  0
  -30.6770  -21.4040   19.7050 C   0  0  0  0  0  0  0  0  0  0  0  0
  -29.5060  -22.1640   17.7000 C   0  0  0  0  0  0  0  0  0  0  0  0
  -28.5980  -22.5790   19.9160 C   0  0  0  0  0  0  0  0  0  0  0  0
  -28.4410  -22.6330   18.5130 C   0  0  0  0  0  0  0  0  0  0  0  0
  -31.9450  -21.0230   20.4380 C   0  0  0  0  0  1  0  0  0  0  0  0
  -29.4320  -22.2090   16.1830 C   0  0  0  0  0  1  0  0  0  0  0  0
  -27.2430  -23.3480   17.9070 C   0  0  0  0  0  1  0  0  0  0  0  0
  -30.3850  -15.3970   20.2360 C   0  0  0  0  0  0  0  0  0  0  0  0
  -30.3310  -12.9340   19.3440 C   0  0  0  0  0  2  0  0  0  0  0  0
  -29.4010  -12.6700   18.1340 C   0  0  0  0  0  2  0  0  0  0  0  0
  -27.9720  -12.3740   18.6120 C   0  0  0  0  0  2  0  0  0  0  0  0
  -27.5180  -13.3500   19.7220 C   0  0  0  0  0  3  0  0  0  0  0  0
  -28.5830  -13.5620   20.8190 C   0  0  0  0  0  2  0  0  0  0  0  0
  -29.7770  -14.1010   20.1380 N   0  0  0  0  0  0  0  0  0  0  0  0
  -31.6170  -15.2980   20.1110 O   0  0  0  0  0  0  0  0  0  0  0  0
  -30.1080  -18.1120   20.6630 C   0  0  0  0  0  0  0  0  0  0  0  0
  -28.3400  -18.7090   19.3390 C   0  0  0  0  0  2  0  0  0  0  0  0
  -28.4270  -17.1260   19.6270 C   0  0  0  0  0  2  0  0  0  0  0  0
  -29.0940  -19.4990   20.4470 C   0  0  0  0  0  3  0  0  0  0  0  0
  -29.7060  -16.7560   20.2820 N   0  0  0  0  0  0  0  0  0  0  0  0
  -31.1950  -18.2790   21.2190 O   0  0  0  0  0  0  0  0  0  0  0  0
  -25.1620  -13.8930   20.5190 C   0  0  0  0  0  0  0  0  0  0  0  0
  -24.1050  -13.1120   20.8880 C   0  0  0  0  0  0  0  0  0  0  0  0
  -24.5730  -11.7640   20.8460 C   0  0  0  0  0  0  0  0  0  0  0  0
  -26.2030  -13.0220   20.2550 N   0  0  0  0  0  0  0  0  0  0  0  0
  -25.8610  -11.7330   20.5190 N   0  0  0  0  0  0  0  0  0  0  0  0
  -23.8440  -10.5030   21.0410 C   0  0  0  0  0  0  0  0  0  0  0  0
  -24.2830   -9.5320   21.9670 C   0  0  0  0  0  3  0  0  0  0  0  0
  -23.5520   -8.3390   22.1500 C   0  0  0  0  0  3  0  0  0  0  0  0
  -22.3700   -8.1080   21.4070 C   0  0  0  0  0  0  0  0  0  0  0  0
  -21.9500   -9.0700   20.4720 C   0  0  0  0  0  3  0  0  0  0  0  0
  -22.6790  -10.2550   20.2860 C   0  0  0  0  0  3  0  0  0  0  0  0
  -21.6120   -6.9650   21.4990 O   0  0  0  0  0  0  0  0  0  0  0  0
  -21.5790   -6.2170   22.6490 C   0  0  0  0  0  0  0  0  0  0  0  0
  -21.1720   -6.7670   23.8840 C   0  0  0  0  0  3  0  0  0  0  0  0
  -21.0810   -5.9440   25.0250 C   0  0  0  0  0  3  0  0  0  0  0  0
  -21.3870   -4.5740   24.9340 C   0  0  0  0  0  0  0  0  0  0  0  0
  -21.7860   -4.0230   23.7030 C   0  0  0  0  0  3  0  0  0  0  0  0
  -21.8790   -4.8420   22.5640 C   0  0  0  0  0  0  0  0  0  0  0  0
  -22.2440   -4.3030   21.3760 F   0  0  0  0  0  0  0  0  0  0  0  0
  -21.2930   -3.7820   26.0280 F   0  0  0  0  0  0  0  0  0  0  0  0
  -22.7110  -13.5940   21.1630 C   0  0  0  0  0  0  0  0  0  0  0  0
  -21.9850  -12.9040   22.0350 N   0  0  0  0  0  0  0  0  0  0  0  0
  -22.2780  -14.6200   20.6420 O   0  0  0  0  0  0  0  0  0  0  0  0
  -22.3540  -12.0780   22.4820 H   0  0  0  0  0  0  0  0  0  0  0  0
  -21.0490  -13.2100   22.2590 H   0  0  0  0  0  0  0  0  0  0  0  0
  -25.3100  -15.2660   20.3620 N   0  0  0  0  0  0  0  0  0  0  0  0
  -24.5330  -15.8910   20.5490 H   0  0  0  0  0  0  0  0  0  0  0  0
  -26.1420  -15.7460   20.0460 H   0  0  0  0  0  0  0  0  0  0  0  0
  -28.1790  -24.1390   20.6700 C   0  0  0  0  0  2  0  0  0  0  0  0
  -28.2650  -25.7650   20.2210 O   0  0  0  0  0  0  0  0  0  0  0  0
  -24.6590  -31.8370   23.1960 C   0  0  0  0  0  0  0  0  0  0  0  0
  -27.2410  -26.8740   20.2610 C   0  0  0  0  0  0  0  0  0  0  0  0
  -23.4810  -30.4180   21.5680 C   0  0  0  0  0  3  0  0  0  0  0  0
  -24.9420  -28.7890   20.1810 C   0  0  0  0  0  0  0  0  0  0  0  0
  -26.0510  -30.6220   21.4360 C   0  0  0  0  0  2  0  0  0  0  0  0
  -26.1300  -29.1940   20.8030 C   0  0  0  0  0  0  0  0  0  0  0  0
  -27.2760  -28.2630   20.8080 C   0  0  0  0  0  3  0  0  0  0  0  0
  -26.0180  -26.6370   19.5950 C   0  0  0  0  0  3  0  0  0  0  0  0
  -24.9150  -27.5320   19.5570 C   0  0  0  0  0  3  0  0  0  0  0  0
  -23.7280  -29.7190   20.2020 C   0  0  0  0  0  2  0  0  0  0  0  0
  -24.7520  -30.9900   22.1200 N   0  0  0  0  0  0  0  0  0  0  0  0
  -23.5650  -32.1300   23.7070 O   0  0  0  0  0  0  0  0  0  0  0  0
  -22.7810  -29.4320   22.5440 C   0  0  0  0  0  0  0  0  0  0  0  0
  -21.4500  -29.2700   22.4230 N   0  0  0  0  0  0  0  0  0  0  0  0
  -23.4470  -28.8140   23.3790 O   0  0  0  0  0  0  0  0  0  0  0  0
  -20.9640  -29.8250   21.7330 H   0  0  0  0  0  0  0  0  0  0  0  0
  -18.0690  -28.0580   22.9470 C   0  0  0  0  0  0  0  0  0  0  0  0
  -20.6280  -28.3370   23.2020 C   0  0  0  0  0  3  0  0  0  0  0  0
  -20.7330  -26.9000   22.6400 C   0  0  0  0  0  2  0  0  0  0  0  0
  -19.6300  -26.5650   21.6310 C   0  0  0  0  0  2  0  0  0  0  0  0
  -18.2490  -26.7060   22.2770 C   0  0  0  0  0  2  0  0  0  0  0  0
  -19.1850  -28.8300   23.3690 C   0  0  0  0  0  0  0  0  0  0  0  0
  -18.9590  -30.0890   23.9630 C   0  0  0  0  0  3  0  0  0  0  0  0
  -17.6510  -30.5810   24.1350 C   0  0  0  0  0  3  0  0  0  0  0  0
  -16.5500  -29.8080   23.7270 C   0  0  0  0  0  3  0  0  0  0  0  0
  -16.7600  -28.5480   23.1400 C   0  0  0  0  0  3  0  0  0  0  0  0
  -25.9210  -32.4970   23.8290 C   0  0  0  0  0  3  0  0  0  0  0  0
  -25.5910  -33.8970   24.1540 N   0  0  0  0  0  0  0  0  0  0  0  0
  -25.9180  -34.9590   23.4040 C   0  0  0  0  0  0  0  0  0  0  0  0
  -26.5900  -34.8620   22.3740 O   0  0  0  0  0  0  0  0  0  0  0  0
  -24.9960  -34.0450   24.9560 H   0  0  0  0  0  0  0  0  0  0  0  0
  -24.1820  -36.7520   23.0590 C   0  0  0  0  0  1  0  0  0  0  0  0
  -25.4250  -36.3460   23.8660 C   0  0  0  0  0  3  0  0  0  0  0  0
  -27.5560  -37.2460   24.6980 C   0  0  0  0  0  1  0  0  0  0  0  0
  -26.4530  -37.4050   23.7550 N   0  0  0  0  0  0  0  0  0  0  0  0
  -26.0420  -38.3230   23.9000 H   0  0  0  0  0  0  0  0  0  0  0  0
  -26.4270  -31.7470   25.1240 C   0  0  1  0  0  0  0  0  0  0  0  0
  -25.3230  -31.5220   26.1850 C   0  0  0  0  0  1  0  0  0  0  0  0
  -27.0200  -30.3640   24.7680 C   0  0  0  0  0  1  0  0  0  0  0  0
  -27.5700  -32.5530   25.7870 C   0  0  0  0  0  1  0  0  0  0  0  0
  1  3  1  0
  3  2  2  0
  3  7  1  0
  4  1  2  0
  4  6  1  0
  5  2  1  0
  5 52  1  0
  6  5  2  0
  8  4  1  0
  9  6  1  0
 10 22  1  0
 11 16  1  0
 12 13  1  0
 12 11  1  0
 14 13  1  0
 14 27  1  0
 14 15  1  0
 16 10  1  0
 16 15  1  0
 17 10  2  0
 18 23  2  0
 19 20  1  0
 19 21  1  0
 20 22  1  0
 21  2  1  0
 21 18  1  0
 22 18  1  0
 24 25  2  0
 25 44  1  0
 26 25  1  0
 26 29  1  0
 27 24  1  0
 27 28  1  0
 28 26  2  0
 29 30  1  0
 30 31  2  0
 32 35  1  0
 32 31  1  0
 33 32  2  0
 34 33  1  0
 34 29  2  0
 35 36  1  0
 36 37  1  0
 37 38  2  0
 39 38  1  0
 39 43  1  0
 40 39  2  0
 41 36  2  0
 41 40  1  0
 42 41  1  0
 44 45  1  0
 45 48  1  0
 45 47  1  0
 46 44  2  0
 49 24  1  0
 49 50  1  0
 51 49  1  0
 53 55  1  0
 53 52  1  0
 54 65  2  0
 55 60  1  0
 56 64  1  0
 56 66  1  0
 57 63  1  0
 57 59  1  0
 58 64  1  0
 59 60  2  0
 59 58  1  0
 61 55  2  0
 62 61  1  0
 62 57  2  0
 63 56  1  0
 64 54  1  0
 66 68  2  0
 67 66  1  0
 69 67  1  0
 70 79  2  0
 70 75  1  0
 71 67  1  0
 71 75  1  0
 72 71  1  0
 73 74  1  0
 73 72  1  0
 74 70  1  0
 75 76  2  0
 76 77  1  0
 78 77  2  0
 79 78  1  0
 80 54  1  0
 80 81  1  0
 80 90  1  0
 81 84  1  0
 82 86  1  0
 82 81  1  0
 83 82  2  0
 86 85  1  0
 88 86  1  0
 88 89  1  0
 88 87  1  0
 90 93  1  1
 90 91  1  0
 92 90  1  0
M  ISO  4  10 100  22 100  52 101  53 101
M  END
>  <TORSDO>  (19) 
F 17

>  <SCORE>  (19) 
-16.914

>  <name>  (19) 
20

>  <ligand_id>  (19) 
20

>  <original_smiles>  (19) 
[H]c1c([H])c([H])c2c(c1[H])C([H])([H])C([H])([H])C([H])([H])C2([H])N([H])C(=O)C1([H])N(C(=O)C([H])(N([H])C(=O)C([H])(N([H])C([H])([H])[H])C([H])([H])[H])C(C([H])([H])[H])(C([H])([H])[H])C([H])([H])[H])C([H])([H])c2c([H])c(OC([H])([H])c3c(C([H])([H])[H])c(C([H])([H])[H])c([H])c(C([H])([H])[H])c3C3([H])C(=O)N(C(=O)N4C([H])([H])C([H])([H])C([H])([H])C([H])(n5nc(-c6c([H])c([H])c(Oc7c([H])c([H])c(F)c([H])c7F)c([H])c6[H])c(C(=O)N([H])[H])c5N([H])[H])C4([H])[H])C([H])([H])C3([H])[H])c([H])c([H])c2C1([H])[H]

>  <smiles>  (19) 
[H]c1c([H])c([H])c2c(c1[H])C([H])([H])C([H])([H])C([H])([H])C2([H])N([H])C(=O)C1([H])N(C(=O)C([H])(N([H])C(=O)C([H])(N([H])C([H])([H])[H])C([H])([H])[H])C(C([H])([H])[H])(C([H])([H])[H])C([H])([H])[H])C([H])([H])c2c([H])c(OC([H])([H])c3c(C([H])([H])[H])c(C([H])([H])[H])c([H])c(C([H])([H])[H])c3C3([H])C(=O)N(C(=O)N4C([H])([H])C([H])([H])C([H])([H])C([H])(n5nc(-c6c([H])c([H])c(Oc7c([H])c([H])c(F)c([H])c7F)c([H])c6[H])c(C(=O)N([H])[H])c5N([H])[H])C4([H])[H])C([H])([H])C3([H])[H])c([H])c([H])c2C1([H])[H]

$$$$
21:0:0
     RDKit          3D

 92101  0  0  1  0  0  0  0  0999 V2000
  -29.9030  -23.3770   20.0950 C   0  0  0  0  0  3  0  0  0  0  0  0
  -28.5980  -23.7060   20.5490 C   0  0  0  0  0  0  0  0  0  0  0  0
  -30.3410  -22.0130   19.9550 C   0  0  0  0  0  0  0  0  0  0  0  0
  -29.4770  -20.9130   20.2730 C   0  0  0  0  0  0  0  0  0  0  0  0
  -27.8060  -22.5380   20.8220 C   0  0  0  0  0  0  0  0  0  0  0  0
  -26.3870  -22.6650   21.3480 C   0  0  0  0  0  1  0  0  0  0  0  0
  -28.2190  -21.2280   20.6900 N   0  0  0  0  0  0  0  0  0  0  0  0
  -31.9630  -21.7440   19.4180 Cl  0  0  0  0  0  0  0  0  0  0  0  0
  -30.8220  -14.9300   20.1510 C   0  0  0  0  0  0  0  0  0  0  0  0
  -30.5540  -12.6590   19.1440 C   0  0  0  0  0  2  0  0  0  0  0  0
  -29.5800  -12.7210   17.9480 C   0  0  0  0  0  2  0  0  0  0  0  0
  -28.1290  -12.5370   18.4310 C   0  0  0  0  0  2  0  0  0  0  0  0
  -27.7890  -13.4240   19.6590 C   0  0  0  0  0  3  0  0  0  0  0  0
  -28.8870  -13.3740   20.7420 C   0  0  0  0  0  2  0  0  0  0  0  0
  -30.1520  -13.7250   20.0910 N   0  0  0  0  0  0  0  0  0  0  0  0
  -32.0100  -14.9670   19.8150 O   0  0  0  0  0  0  0  0  0  0  0  0
  -30.0440  -18.5440   21.5150 C   0  0  0  0  0  2  0  0  0  0  0  0
  -29.1180  -18.3770   19.2970 C   0  0  0  0  0  2  0  0  0  0  0  0
  -30.6890  -17.0980   21.3650 C   0  0  0  0  0  2  0  0  0  0  0  0
  -29.7550  -16.9250   19.1330 C   0  0  0  0  0  2  0  0  0  0  0  0
  -29.9220  -19.3600   20.1960 C   0  0  0  0  0  3  0  0  0  0  0  0
  -30.1330  -16.1360   20.3550 N   0  0  0  0  0  0  0  0  0  0  0  0
  -25.4330  -13.9860   20.4950 C   0  0  0  0  0  0  0  0  0  0  0  0
  -24.3840  -13.2000   20.8840 C   0  0  0  0  0  0  0  0  0  0  0  0
  -24.8490  -11.8510   20.8060 C   0  0  0  0  0  0  0  0  0  0  0  0
  -26.4690  -13.1160   20.1990 N   0  0  0  0  0  0  0  0  0  0  0  0
  -26.1280  -11.8250   20.4510 N   0  0  0  0  0  0  0  0  0  0  0  0
  -24.1320  -10.5820   20.9940 C   0  0  0  0  0  0  0  0  0  0  0  0
  -24.5650   -9.6200   21.9320 C   0  0  0  0  0  3  0  0  0  0  0  0
  -23.8480   -8.4170   22.1070 C   0  0  0  0  0  3  0  0  0  0  0  0
  -22.6830   -8.1680   21.3430 C   0  0  0  0  0  0  0  0  0  0  0  0
  -22.2690   -9.1190   20.3950 C   0  0  0  0  0  3  0  0  0  0  0  0
  -22.9870  -10.3130   20.2170 C   0  0  0  0  0  3  0  0  0  0  0  0
  -21.9360   -7.0170   21.4280 O   0  0  0  0  0  0  0  0  0  0  0  0
  -21.8490   -6.3010   22.5950 C   0  0  0  0  0  0  0  0  0  0  0  0
  -21.3310   -6.8660   23.7800 C   0  0  0  0  0  3  0  0  0  0  0  0
  -21.1930   -6.0730   24.9370 C   0  0  0  0  0  3  0  0  0  0  0  0
  -21.5640   -4.7160   24.9080 C   0  0  0  0  0  0  0  0  0  0  0  0
  -22.0750   -4.1490   23.7290 C   0  0  0  0  0  3  0  0  0  0  0  0
  -22.2140   -4.9400   22.5730 C   0  0  0  0  0  0  0  0  0  0  0  0
  -22.6870   -4.3830   21.4320 F   0  0  0  0  0  0  0  0  0  0  0  0
  -21.4250   -3.9510   26.0180 F   0  0  0  0  0  0  0  0  0  0  0  0
  -22.9970  -13.6660   21.2160 C   0  0  0  0  0  0  0  0  0  0  0  0
  -22.2980  -12.9430   22.0840 N   0  0  0  0  0  0  0  0  0  0  0  0
  -22.5420  -14.7070   20.7420 O   0  0  0  0  0  0  0  0  0  0  0  0
  -22.6800  -12.1020   22.4900 H   0  0  0  0  0  0  0  0  0  0  0  0
  -21.3690  -13.2370   22.3490 H   0  0  0  0  0  0  0  0  0  0  0  0
  -25.5880  -15.3610   20.3460 N   0  0  0  0  0  0  0  0  0  0  0  0
  -24.8310  -16.0140   20.5140 H   0  0  0  0  0  0  0  0  0  0  0  0
  -26.4400  -15.8130   20.0330 H   0  0  0  0  0  0  0  0  0  0  0  0
  -28.1010  -25.1860   20.9490 C   0  0  0  0  0  2  0  0  0  0  0  0
  -28.4180  -26.4780   20.2440 O   0  0  0  0  0  0  0  0  0  0  0  0
  -24.6570  -31.9410   23.2580 C   0  0  0  0  0  0  0  0  0  0  0  0
  -27.3540  -27.4080   20.1940 C   0  0  0  0  0  0  0  0  0  0  0  0
  -23.4930  -30.5410   21.5920 C   0  0  0  0  0  3  0  0  0  0  0  0
  -24.9830  -29.0270   20.1610 C   0  0  0  0  0  0  0  0  0  0  0  0
  -26.0330  -30.8880   21.4420 C   0  0  0  0  0  2  0  0  0  0  0  0
  -26.1420  -29.5140   20.7810 C   0  0  0  0  0  0  0  0  0  0  0  0
  -27.3350  -28.7170   20.7860 C   0  0  0  0  0  3  0  0  0  0  0  0
  -26.1770  -26.9980   19.5330 C   0  0  0  0  0  3  0  0  0  0  0  0
  -25.0060  -27.7770   19.5240 C   0  0  0  0  0  3  0  0  0  0  0  0
  -23.7330  -29.8860   20.2070 C   0  0  0  0  0  2  0  0  0  0  0  0
  -24.7460  -31.1410   22.1540 N   0  0  0  0  0  0  0  0  0  0  0  0
  -23.5640  -32.1970   23.7830 O   0  0  0  0  0  0  0  0  0  0  0  0
  -22.8330  -29.5060   22.5360 C   0  0  0  0  0  0  0  0  0  0  0  0
  -21.5090  -29.3190   22.4010 N   0  0  0  0  0  0  0  0  0  0  0  0
  -23.5130  -28.8760   23.3500 O   0  0  0  0  0  0  0  0  0  0  0  0
  -21.0190  -29.8790   21.7190 H   0  0  0  0  0  0  0  0  0  0  0  0
  -18.1360  -28.0990   22.8910 C   0  0  0  0  0  0  0  0  0  0  0  0
  -20.6950  -28.3620   23.1560 C   0  0  0  0  0  3  0  0  0  0  0  0
  -20.7990  -26.9430   22.5510 C   0  0  0  0  0  2  0  0  0  0  0  0
  -19.6940  -26.6370   21.5340 C   0  0  0  0  0  2  0  0  0  0  0  0
  -18.3150  -26.7650   22.1870 C   0  0  0  0  0  2  0  0  0  0  0  0
  -19.2540  -28.8560   23.3320 C   0  0  0  0  0  0  0  0  0  0  0  0
  -19.0330  -30.1050   23.9520 C   0  0  0  0  0  3  0  0  0  0  0  0
  -17.7270  -30.5980   24.1350 C   0  0  0  0  0  3  0  0  0  0  0  0
  -16.6240  -29.8370   23.7090 C   0  0  0  0  0  3  0  0  0  0  0  0
  -16.8290  -28.5890   23.0930 C   0  0  0  0  0  3  0  0  0  0  0  0
  -25.9220  -32.5880   23.9000 C   0  0  0  0  0  3  0  0  0  0  0  0
  -25.5980  -33.9880   24.2080 N   0  0  0  0  0  0  0  0  0  0  0  0
  -25.9440  -35.0360   23.4470 C   0  0  0  0  0  0  0  0  0  0  0  0
  -26.6370  -34.9250   22.4310 O   0  0  0  0  0  0  0  0  0  0  0  0
  -24.9850  -34.1480   24.9920 H   0  0  0  0  0  0  0  0  0  0  0  0
  -24.2250  -36.8250   23.0300 C   0  0  0  0  0  1  0  0  0  0  0  0
  -25.4420  -36.4270   23.8790 C   0  0  0  0  0  3  0  0  0  0  0  0
  -27.5470  -37.3240   24.7710 C   0  0  0  0  0  1  0  0  0  0  0  0
  -26.4760  -37.4810   23.7900 N   0  0  0  0  0  0  0  0  0  0  0  0
  -26.0650  -38.4020   23.9140 H   0  0  0  0  0  0  0  0  0  0  0  0
  -26.4120  -31.8350   25.1980 C   0  0  1  0  0  0  0  0  0  0  0  0
  -25.2960  -31.6020   26.2420 C   0  0  0  0  0  1  0  0  0  0  0  0
  -27.0150  -30.4570   24.8370 C   0  0  0  0  0  1  0  0  0  0  0  0
  -27.5410  -32.6460   25.8780 C   0  0  0  0  0  1  0  0  0  0  0  0
  1  2  1  0
  2  5  2  0
  2 51  1  0
  3  1  2  0
  3  4  1  0
  4  7  2  0
  5  6  1  0
  7  5  1  0
  8  3  1  0
  9 22  1  0
 10 15  1  0
 11 12  1  0
 11 10  1  0
 13 12  1  0
 13 26  1  0
 13 14  1  0
 15  9  1  0
 15 14  1  0
 16  9  2  0
 18 21  1  0
 19 17  1  0
 20 18  1  0
 20 22  1  0
 21  4  1  0
 21 17  1  0
 22 19  1  0
 23 24  2  0
 24 43  1  0
 25 24  1  0
 25 28  1  0
 26 27  1  0
 26 23  1  0
 27 25  2  0
 28 29  1  0
 29 30  2  0
 31 34  1  0
 31 30  1  0
 32 31  2  0
 33 32  1  0
 33 28  2  0
 34 35  1  0
 35 36  1  0
 36 37  2  0
 38 37  1  0
 38 42  1  0
 39 38  2  0
 40 35  2  0
 40 39  1  0
 41 40  1  0
 43 44  1  0
 44 47  1  0
 44 46  1  0
 45 43  2  0
 48 23  1  0
 48 49  1  0
 50 48  1  0
 52 51  1  0
 53 64  2  0
 54 52  1  0
 54 59  1  0
 55 63  1  0
 55 65  1  0
 56 62  1  0
 56 58  1  0
 57 63  1  0
 58 59  2  0
 58 57  1  0
 60 54  2  0
 61 60  1  0
 61 56  2  0
 62 55  1  0
 63 53  1  0
 65 67  2  0
 66 65  1  0
 68 66  1  0
 69 78  2  0
 69 74  1  0
 70 66  1  0
 70 74  1  0
 71 70  1  0
 72 73  1  0
 72 71  1  0
 73 69  1  0
 74 75  2  0
 75 76  1  0
 77 76  2  0
 78 77  1  0
 79 53  1  0
 79 80  1  0
 79 89  1  0
 80 83  1  0
 81 85  1  0
 81 80  1  0
 82 81  2  0
 85 84  1  0
 87 85  1  0
 87 88  1  0
 87 86  1  0
 89 92  1  1
 89 90  1  0
 91 89  1  0
M  ISO  4   9 100  22 100  51 101  52 101
M  END
>  <TORSDO>  (20) 
F 17

>  <SCORE>  (20) 
-14.774

>  <name>  (20) 
21

>  <ligand_id>  (20) 
21

>  <original_smiles>  (20) 
[H]c1c([H])c([H])c2c(c1[H])C([H])([H])C([H])([H])C([H])([H])C2([H])N([H])C(=O)C1([H])N(C(=O)C([H])(N([H])C(=O)C([H])(N([H])C([H])([H])[H])C([H])([H])[H])C(C([H])([H])[H])(C([H])([H])[H])C([H])([H])[H])C([H])([H])c2c([H])c(OC([H])([H])c3c(C([H])([H])[H])nc(C4([H])C([H])([H])C([H])([H])N(C(=O)N5C([H])([H])C([H])([H])C([H])([H])C([H])(n6nc(-c7c([H])c([H])c(Oc8c([H])c([H])c(F)c([H])c8F)c([H])c7[H])c(C(=O)N([H])[H])c6N([H])[H])C5([H])[H])C([H])([H])C4([H])[H])c(Cl)c3[H])c([H])c([H])c2C1([H])[H]

>  <smiles>  (20) 
[H]c1c([H])c([H])c2c(c1[H])C([H])([H])C([H])([H])C([H])([H])C2([H])N([H])C(=O)C1([H])N(C(=O)C([H])(N([H])C(=O)C([H])(N([H])C([H])([H])[H])C([H])([H])[H])C(C([H])([H])[H])(C([H])([H])[H])C([H])([H])[H])C([H])([H])c2c([H])c(OC([H])([H])c3c(C([H])([H])[H])nc(C4([H])C([H])([H])C([H])([H])N(C(=O)N5C([H])([H])C([H])([H])C([H])([H])C([H])(n6nc(-c7c([H])c([H])c(Oc8c([H])c([H])c(F)c([H])c8F)c([H])c7[H])c(C(=O)N([H])[H])c6N([H])[H])C5([H])[H])C([H])([H])C4([H])[H])c(Cl)c3[H])c([H])c([H])c2C1([H])[H]

$$$$
22:0:0
     RDKit          3D

 94103  0  0  1  0  0  0  0  0999 V2000
  -28.9140  -22.4930   20.9850 C   0  0  0  0  0  0  0  0  0  0  0  0
  -28.6060  -23.7370   20.3000 C   0  0  0  0  0  0  0  0  0  0  0  0
  -29.0750  -21.2750   20.2270 C   0  0  0  0  0  0  0  0  0  0  0  0
  -28.6090  -22.5250   18.3460 C   0  0  0  0  0  0  0  0  0  0  0  0
  -29.0490  -22.4700   22.5010 C   0  0  0  0  0  1  0  0  0  0  0  0
  -28.4490  -22.5270   16.8410 C   0  0  0  0  0  1  0  0  0  0  0  0
  -28.4680  -23.6980   18.9620 N   0  0  0  0  0  0  0  0  0  0  0  0
  -28.8860  -21.3450   18.9020 N   0  0  0  0  0  0  0  0  0  0  0  0
  -29.4600  -19.9870   20.7730 N   0  0  0  0  0  0  0  0  0  0  0  0
  -29.6440  -19.9970   21.7690 H   0  0  0  0  0  0  0  0  0  0  0  0
  -30.1360  -18.4510   18.8300 C   0  0  0  0  0  2  0  0  0  0  0  0
  -31.2920  -17.8250   19.6110 C   0  0  0  0  0  2  0  0  0  0  0  0
  -29.3550  -18.6020   20.1470 C   0  0  0  0  0  3  0  0  0  0  0  0
  -30.2960  -17.3990   20.7070 C   0  0  0  0  0  3  0  0  0  0  0  0
  -30.6110  -14.7760   20.3920 C   0  0  0  0  0  0  0  0  0  0  0  0
  -30.3980  -12.5250   19.3280 C   0  0  0  0  0  2  0  0  0  0  0  0
  -29.4600  -12.6110   18.1060 C   0  0  0  0  0  2  0  0  0  0  0  0
  -27.9910  -12.4280   18.5350 C   0  0  0  0  0  2  0  0  0  0  0  0
  -27.6140  -13.3010   19.7620 C   0  0  0  0  0  3  0  0  0  0  0  0
  -28.6710  -13.2030   20.8820 C   0  0  0  0  0  2  0  0  0  0  0  0
  -29.9640  -13.5660   20.2890 N   0  0  0  0  0  0  0  0  0  0  0  0
  -31.8150  -14.8380   20.1320 O   0  0  0  0  0  0  0  0  0  0  0  0
  -29.8580  -15.9300   20.5770 N   0  0  0  0  0  0  0  0  0  0  0  0
  -28.8730  -15.7680   20.7240 H   0  0  0  0  0  0  0  0  0  0  0  0
  -25.2180  -13.8750   20.4730 C   0  0  0  0  0  0  0  0  0  0  0  0
  -24.1560  -13.0940   20.8370 C   0  0  0  0  0  0  0  0  0  0  0  0
  -24.6310  -11.7470   20.8160 C   0  0  0  0  0  0  0  0  0  0  0  0
  -26.2710  -13.0040   20.2470 N   0  0  0  0  0  0  0  0  0  0  0  0
  -25.9240  -11.7190   20.5190 N   0  0  0  0  0  0  0  0  0  0  0  0
  -23.9120  -10.4800   21.0030 C   0  0  0  0  0  0  0  0  0  0  0  0
  -24.3330   -9.5260   21.9580 C   0  0  0  0  0  3  0  0  0  0  0  0
  -23.6140   -8.3250   22.1330 C   0  0  0  0  0  3  0  0  0  0  0  0
  -22.4610   -8.0670   21.3540 C   0  0  0  0  0  0  0  0  0  0  0  0
  -22.0610   -9.0080   20.3890 C   0  0  0  0  0  3  0  0  0  0  0  0
  -22.7800  -10.2020   20.2120 C   0  0  0  0  0  3  0  0  0  0  0  0
  -21.7150   -6.9160   21.4370 O   0  0  0  0  0  0  0  0  0  0  0  0
  -21.6350   -6.1930   22.6000 C   0  0  0  0  0  0  0  0  0  0  0  0
  -21.1410   -6.7580   23.7960 C   0  0  0  0  0  3  0  0  0  0  0  0
  -21.0100   -5.9610   24.9510 C   0  0  0  0  0  3  0  0  0  0  0  0
  -21.3620   -4.5980   24.9100 C   0  0  0  0  0  0  0  0  0  0  0  0
  -21.8480   -4.0320   23.7170 C   0  0  0  0  0  3  0  0  0  0  0  0
  -21.9810   -4.8270   22.5660 C   0  0  0  0  0  0  0  0  0  0  0  0
  -22.4300   -4.2710   21.4150 F   0  0  0  0  0  0  0  0  0  0  0  0
  -21.2300   -3.8290   26.0150 F   0  0  0  0  0  0  0  0  0  0  0  0
  -22.7520  -13.5610   21.0920 C   0  0  0  0  0  0  0  0  0  0  0  0
  -22.0190  -12.8590   21.9490 N   0  0  0  0  0  0  0  0  0  0  0  0
  -22.3130  -14.5830   20.5680 O   0  0  0  0  0  0  0  0  0  0  0  0
  -22.3850  -12.0320   22.3960 H   0  0  0  0  0  0  0  0  0  0  0  0
  -21.0760  -13.1530   22.1610 H   0  0  0  0  0  0  0  0  0  0  0  0
  -25.3720  -15.2470   20.2890 N   0  0  0  0  0  0  0  0  0  0  0  0
  -24.5980  -15.8930   20.3890 H   0  0  0  0  0  0  0  0  0  0  0  0
  -26.2090  -15.6870   19.9290 H   0  0  0  0  0  0  0  0  0  0  0  0
  -28.3080  -25.1440   20.9980 C   0  0  0  0  0  2  0  0  0  0  0  0
  -28.4270  -26.4550   20.2800 O   0  0  0  0  0  0  0  0  0  0  0  0
  -24.6200  -31.8860   23.2550 C   0  0  0  0  0  0  0  0  0  0  0  0
  -27.3170  -27.3190   20.2700 C   0  0  0  0  0  0  0  0  0  0  0  0
  -23.4590  -30.4780   21.5920 C   0  0  0  0  0  3  0  0  0  0  0  0
  -24.9470  -28.9260   20.2020 C   0  0  0  0  0  0  0  0  0  0  0  0
  -25.9990  -30.8090   21.4580 C   0  0  0  0  0  2  0  0  0  0  0  0
  -26.1020  -29.4250   20.8190 C   0  0  0  0  0  0  0  0  0  0  0  0
  -27.2950  -28.6350   20.8380 C   0  0  0  0  0  3  0  0  0  0  0  0
  -26.1420  -26.8750   19.6330 C   0  0  0  0  0  3  0  0  0  0  0  0
  -24.9700  -27.6580   19.5990 C   0  0  0  0  0  3  0  0  0  0  0  0
  -23.7040  -29.7970   20.2200 C   0  0  0  0  0  2  0  0  0  0  0  0
  -24.7110  -31.0770   22.1590 N   0  0  0  0  0  0  0  0  0  0  0  0
  -23.5240  -32.1560   23.7700 O   0  0  0  0  0  0  0  0  0  0  0  0
  -22.7820  -29.4610   22.5430 C   0  0  0  0  0  0  0  0  0  0  0  0
  -21.4590  -29.2780   22.3940 N   0  0  0  0  0  0  0  0  0  0  0  0
  -23.4490  -28.8380   23.3730 O   0  0  0  0  0  0  0  0  0  0  0  0
  -20.9800  -29.8320   21.6980 H   0  0  0  0  0  0  0  0  0  0  0  0
  -18.0770  -28.0740   22.8450 C   0  0  0  0  0  0  0  0  0  0  0  0
  -20.6310  -28.3360   23.1490 C   0  0  0  0  0  3  0  0  0  0  0  0
  -20.7430  -26.9070   22.5690 C   0  0  0  0  0  2  0  0  0  0  0  0
  -19.6550  -26.5860   21.5390 C   0  0  0  0  0  2  0  0  0  0  0  0
  -18.2640  -26.7280   22.1650 C   0  0  0  0  0  2  0  0  0  0  0  0
  -19.1880  -28.8360   23.2930 C   0  0  0  0  0  0  0  0  0  0  0  0
  -18.9600  -30.0960   23.8890 C   0  0  0  0  0  3  0  0  0  0  0  0
  -17.6530  -30.5940   24.0400 C   0  0  0  0  0  3  0  0  0  0  0  0
  -16.5550  -29.8290   23.6090 C   0  0  0  0  0  3  0  0  0  0  0  0
  -16.7680  -28.5710   23.0180 C   0  0  0  0  0  3  0  0  0  0  0  0
  -25.8860  -32.5290   23.9030 C   0  0  0  0  0  3  0  0  0  0  0  0
  -25.5670  -33.9320   24.2080 N   0  0  0  0  0  0  0  0  0  0  0  0
  -25.9090  -34.9760   23.4410 C   0  0  0  0  0  0  0  0  0  0  0  0
  -26.5940  -34.8600   22.4210 O   0  0  0  0  0  0  0  0  0  0  0  0
  -24.9650  -34.0950   25.0010 H   0  0  0  0  0  0  0  0  0  0  0  0
  -24.1870  -36.7610   23.0310 C   0  0  0  0  0  1  0  0  0  0  0  0
  -25.4130  -36.3700   23.8720 C   0  0  0  0  0  3  0  0  0  0  0  0
  -27.5290  -37.2690   24.7350 C   0  0  0  0  0  1  0  0  0  0  0  0
  -26.4470  -37.4220   23.7650 N   0  0  0  0  0  0  0  0  0  0  0  0
  -26.0380  -38.3440   23.8900 H   0  0  0  0  0  0  0  0  0  0  0  0
  -26.3680  -31.7780   25.2040 C   0  0  1  0  0  0  0  0  0  0  0  0
  -25.2460  -31.5540   26.2460 C   0  0  0  0  0  1  0  0  0  0  0  0
  -26.9630  -30.3960   24.8480 C   0  0  0  0  0  1  0  0  0  0  0  0
  -27.5000  -32.5820   25.8860 C   0  0  0  0  0  1  0  0  0  0  0  0
  1  5  1  0
  2  1  2  0
  2 53  1  0
  3  9  1  0
  3  1  1  0
  4  8  1  0
  4  7  2  0
  6  4  1  0
  7  2  1  0
  8  3  2  0
  9 10  1  0
 11 12  1  0
 11 13  1  0
 12 14  1  0
 13 14  1  0
 13  9  1  0
 14 23  1  0
 15 23  1  0
 16 21  1  0
 17 18  1  0
 17 16  1  0
 19 18  1  0
 19 28  1  0
 19 20  1  0
 21 15  1  0
 21 20  1  0
 22 15  2  0
 23 24  1  0
 25 26  2  0
 26 45  1  0
 27 26  1  0
 27 30  1  0
 28 25  1  0
 28 29  1  0
 29 27  2  0
 30 31  1  0
 31 32  2  0
 33 36  1  0
 33 32  1  0
 34 33  2  0
 35 34  1  0
 35 30  2  0
 36 37  1  0
 37 38  1  0
 38 39  2  0
 40 39  1  0
 40 44  1  0
 41 40  2  0
 42 37  2  0
 42 41  1  0
 43 42  1  0
 45 46  1  0
 46 49  1  0
 46 48  1  0
 47 45  2  0
 50 51  1  0
 50 25  1  0
 52 50  1  0
 54 53  1  0
 55 66  2  0
 56 54  1  0
 56 61  1  0
 57 65  1  0
 57 67  1  0
 58 64  1  0
 58 60  1  0
 59 65  1  0
 60 61  2  0
 60 59  1  0
 62 56  2  0
 63 62  1  0
 63 58  2  0
 64 57  1  0
 65 55  1  0
 67 69  2  0
 68 67  1  0
 70 68  1  0
 71 80  2  0
 71 76  1  0
 72 68  1  0
 72 76  1  0
 73 72  1  0
 74 75  1  0
 74 73  1  0
 75 71  1  0
 76 77  2  0
 77 78  1  0
 79 78  2  0
 80 79  1  0
 81 55  1  0
 81 82  1  0
 81 91  1  0
 82 85  1  0
 83 87  1  0
 83 82  1  0
 84 83  2  0
 87 86  1  0
 89 87  1  0
 89 90  1  0
 89 88  1  0
 91 94  1  1
 91 92  1  0
 93 91  1  0
M  ISO  4  15 100  23 100  53 101  54 101
M  END
>  <TORSDO>  (21) 
F 18

>  <SCORE>  (21) 
-14.534

>  <name>  (21) 
22

>  <ligand_id>  (21) 
22

>  <original_smiles>  (21) 
[H]c1c([H])c([H])c2c(c1[H])C([H])([H])C([H])([H])C([H])([H])C2([H])N([H])C(=O)C1([H])N(C(=O)C([H])(N([H])C(=O)C([H])(N([H])C([H])([H])[H])C([H])([H])[H])C(C([H])([H])[H])(C([H])([H])[H])C([H])([H])[H])C([H])([H])c2c([H])c(OC([H])([H])c3nc(C([H])([H])[H])nc(N([H])C4([H])C([H])([H])C([H])([H])C4([H])N([H])C(=O)N4C([H])([H])C([H])([H])C([H])([H])C([H])(n5nc(-c6c([H])c([H])c(Oc7c([H])c([H])c(F)c([H])c7F)c([H])c6[H])c(C(=O)N([H])[H])c5N([H])[H])C4([H])[H])c3C([H])([H])[H])c([H])c([H])c2C1([H])[H]

>  <smiles>  (21) 
[H]c1c([H])c([H])c2c(c1[H])C([H])([H])C([H])([H])C([H])([H])C2([H])N([H])C(=O)C1([H])N(C(=O)C([H])(N([H])C(=O)C([H])(N([H])C([H])([H])[H])C([H])([H])[H])C(C([H])([H])[H])(C([H])([H])[H])C([H])([H])[H])C([H])([H])c2c([H])c(OC([H])([H])c3nc(C([H])([H])[H])nc(N([H])C4([H])C([H])([H])C([H])([H])C4([H])N([H])C(=O)N4C([H])([H])C([H])([H])C([H])([H])C([H])(n5nc(-c6c([H])c([H])c(Oc7c([H])c([H])c(F)c([H])c7F)c([H])c6[H])c(C(=O)N([H])[H])c5N([H])[H])C4([H])[H])c3C([H])([H])[H])c([H])c([H])c2C1([H])[H]

$$$$
23:0:0
     RDKit          3D

 97107  0  0  1  0  0  0  0  0999 V2000
  -29.0850  -21.9890   20.0120 C   0  0  0  0  0  3  0  0  0  0  0  0
  -29.5520  -20.9090   20.8990 C   0  0  0  0  0  0  0  0  0  0  0  0
  -29.0050  -23.6670   21.7950 C   0  0  0  0  0  0  0  0  0  0  0  0
  -29.5670  -22.7030   22.6990 C   0  0  0  0  0  0  0  0  0  0  0  0
  -28.7990  -23.3820   20.4190 C   0  0  0  0  0  0  0  0  0  0  0  0
  -29.7690  -21.3400   22.2570 C   0  0  0  0  0  0  0  0  0  0  0  0
  -28.5750  -25.0530   22.2830 C   0  0  0  0  0  2  0  0  0  0  0  0
  -28.4970  -25.2290   23.7820 C   0  0  0  0  0  2  0  0  0  0  0  0
  -29.7810  -24.6960   24.3730 C   0  0  0  0  0  2  0  0  0  0  0  0
  -29.9530  -23.1700   24.1520 C   0  0  1  0  0  0  0  0  0  0  0  0
  -30.1800  -20.2620   23.2700 C   0  0  0  0  0  1  0  0  0  0  0  0
  -29.0370  -22.5220   25.2360 C   0  0  0  0  0  1  0  0  0  0  0  0
  -31.4760  -22.9860   24.4340 C   0  0  0  0  0  1  0  0  0  0  0  0
  -31.0130  -14.8200   19.7810 C   0  0  0  0  0  0  0  0  0  0  0  0
  -30.6610  -12.5160   18.8160 C   0  0  0  0  0  2  0  0  0  0  0  0
  -29.6710  -12.5260   17.6340 C   0  0  0  0  0  2  0  0  0  0  0  0
  -28.2240  -12.3810   18.1400 C   0  0  0  0  0  2  0  0  0  0  0  0
  -27.9210  -13.3040   19.3520 C   0  0  0  0  0  3  0  0  0  0  0  0
  -29.0390  -13.2560   20.4160 C   0  0  0  0  0  2  0  0  0  0  0  0
  -30.2770  -13.6370   19.7250 N   0  0  0  0  0  0  0  0  0  0  0  0
  -32.2110  -14.7160   19.4910 O   0  0  0  0  0  0  0  0  0  0  0  0
  -28.9930  -18.1070   20.9020 C   0  0  0  0  0  3  0  0  0  0  0  0
  -30.6500  -18.8120   19.2430 C   0  0  0  0  0  2  0  0  0  0  0  0
  -29.1130  -16.6750   20.1740 C   0  0  0  0  0  2  0  0  0  0  0  0
  -31.3070  -17.3410   19.4090 C   0  0  0  0  0  2  0  0  0  0  0  0
  -29.9510  -19.3290   20.5330 C   0  0  0  0  0  0  0  0  0  0  0  0
  -30.4680  -16.1460   19.8310 N   0  0  0  0  0  0  0  0  0  0  0  0
  -25.5980  -13.9570   20.2010 C   0  0  0  0  0  0  0  0  0  0  0  0
  -24.5300  -13.2140   20.6220 C   0  0  0  0  0  0  0  0  0  0  0  0
  -24.9510  -11.8490   20.5710 C   0  0  0  0  0  0  0  0  0  0  0  0
  -26.6030  -13.0470   19.9180 N   0  0  0  0  0  0  0  0  0  0  0  0
  -26.2260  -11.7750   20.2040 N   0  0  0  0  0  0  0  0  0  0  0  0
  -24.1960  -10.6100   20.7940 C   0  0  0  0  0  0  0  0  0  0  0  0
  -24.5840   -9.6750   21.7780 C   0  0  0  0  0  3  0  0  0  0  0  0
  -23.8280   -8.5000   21.9870 C   0  0  0  0  0  3  0  0  0  0  0  0
  -22.6690   -8.2560   21.2120 C   0  0  0  0  0  0  0  0  0  0  0  0
  -22.3010   -9.1790   20.2180 C   0  0  0  0  0  3  0  0  0  0  0  0
  -23.0580  -10.3440   20.0070 C   0  0  0  0  0  3  0  0  0  0  0  0
  -21.8860   -7.1330   21.3290 O   0  0  0  0  0  0  0  0  0  0  0  0
  -21.7120   -6.4990   22.5330 C   0  0  0  0  0  0  0  0  0  0  0  0
  -21.1930   -7.1710   23.6610 C   0  0  0  0  0  3  0  0  0  0  0  0
  -20.9660   -6.4630   24.8590 C   0  0  0  0  0  3  0  0  0  0  0  0
  -21.2470   -5.0850   24.9270 C   0  0  0  0  0  0  0  0  0  0  0  0
  -21.7590   -4.4140   23.8030 C   0  0  0  0  0  3  0  0  0  0  0  0
  -21.9870   -5.1180   22.6080 C   0  0  0  0  0  0  0  0  0  0  0  0
  -22.4600   -4.4620   21.5220 F   0  0  0  0  0  0  0  0  0  0  0  0
  -21.0220   -4.4030   26.0740 F   0  0  0  0  0  0  0  0  0  0  0  0
  -23.1620  -13.7330   20.9540 C   0  0  0  0  0  0  0  0  0  0  0  0
  -22.4590  -13.0740   21.8670 N   0  0  0  0  0  0  0  0  0  0  0  0
  -22.7290  -14.7640   20.4370 O   0  0  0  0  0  0  0  0  0  0  0  0
  -22.8240  -12.2430   22.3080 H   0  0  0  0  0  0  0  0  0  0  0  0
  -21.5410  -13.4050   22.1300 H   0  0  0  0  0  0  0  0  0  0  0  0
  -25.7880  -15.3210   20.0080 N   0  0  0  0  0  0  0  0  0  0  0  0
  -25.0390  -15.9900   20.1460 H   0  0  0  0  0  0  0  0  0  0  0  0
  -26.6240  -15.7380   19.6190 H   0  0  0  0  0  0  0  0  0  0  0  0
  -28.1890  -24.5530   19.4450 C   0  0  0  0  0  2  0  0  0  0  0  0
  -28.2930  -26.0840   19.6710 O   0  0  0  0  0  0  0  0  0  0  0  0
  -24.6640  -31.5250   22.9650 C   0  0  0  0  0  0  0  0  0  0  0  0
  -27.2070  -27.0220   19.6370 C   0  0  0  0  0  0  0  0  0  0  0  0
  -23.4420  -30.2210   21.2670 C   0  0  0  0  0  3  0  0  0  0  0  0
  -24.8700  -28.7350   19.7370 C   0  0  0  0  0  0  0  0  0  0  0  0
  -25.9910  -30.5050   21.0830 C   0  0  0  0  0  2  0  0  0  0  0  0
  -26.0530  -29.1550   20.3560 C   0  0  0  0  0  0  0  0  0  0  0  0
  -27.2200  -28.3110   20.2960 C   0  0  0  0  0  3  0  0  0  0  0  0
  -25.9960  -26.6990   18.9820 C   0  0  0  0  0  3  0  0  0  0  0  0
  -24.8520  -27.5200   19.0390 C   0  0  0  0  0  3  0  0  0  0  0  0
  -23.6430  -29.6230   19.8490 C   0  0  0  0  0  2  0  0  0  0  0  0
  -24.7200  -30.7690   21.8270 N   0  0  0  0  0  0  0  0  0  0  0  0
  -23.5850  -31.7770   23.5220 O   0  0  0  0  0  0  0  0  0  0  0  0
  -22.7800  -29.1580   22.1800 C   0  0  0  0  0  0  0  0  0  0  0  0
  -21.4450  -29.0190   22.0850 N   0  0  0  0  0  0  0  0  0  0  0  0
  -23.4660  -28.4670   22.9350 O   0  0  0  0  0  0  0  0  0  0  0  0
  -20.9490  -29.6300   21.4500 H   0  0  0  0  0  0  0  0  0  0  0  0
  -18.0580  -27.8610   22.6270 C   0  0  0  0  0  0  0  0  0  0  0  0
  -20.6300  -28.0470   22.8190 C   0  0  0  0  0  3  0  0  0  0  0  0
  -20.6770  -26.6580   22.1420 C   0  0  0  0  0  2  0  0  0  0  0  0
  -19.5330  -26.4310   21.1490 C   0  0  0  0  0  2  0  0  0  0  0  0
  -18.1780  -26.5590   21.8510 C   0  0  0  0  0  2  0  0  0  0  0  0
  -19.2080  -28.5670   23.0680 C   0  0  0  0  0  0  0  0  0  0  0  0
  -19.0400  -29.7870   23.7570 C   0  0  0  0  0  3  0  0  0  0  0  0
  -17.7540  -30.3010   24.0090 C   0  0  0  0  0  3  0  0  0  0  0  0
  -16.6180  -29.5910   23.5830 C   0  0  0  0  0  3  0  0  0  0  0  0
  -16.7710  -28.3720   22.8990 C   0  0  0  0  0  3  0  0  0  0  0  0
  -25.9510  -32.1240   23.6080 C   0  0  0  0  0  3  0  0  0  0  0  0
  -25.6290  -33.4840   24.0670 N   0  0  0  0  0  0  0  0  0  0  0  0
  -25.9510  -34.6070   23.4110 C   0  0  0  0  0  0  0  0  0  0  0  0
  -26.6170  -34.6070   22.3720 O   0  0  0  0  0  0  0  0  0  0  0  0
  -25.0370  -33.5590   24.8810 H   0  0  0  0  0  0  0  0  0  0  0  0
  -24.2170  -36.4220   23.2270 C   0  0  0  0  0  1  0  0  0  0  0  0
  -25.4580  -35.9440   23.9990 C   0  0  0  0  0  3  0  0  0  0  0  0
  -27.5850  -36.7580   24.9200 C   0  0  0  0  0  1  0  0  0  0  0  0
  -26.4860  -37.0080   23.9910 N   0  0  0  0  0  0  0  0  0  0  0  0
  -26.0740  -37.9090   24.2210 H   0  0  0  0  0  0  0  0  0  0  0  0
  -26.5070  -31.2570   24.8050 C   0  0  1  0  0  0  0  0  0  0  0  0
  -25.4460  -30.9310   25.8820 C   0  0  0  0  0  1  0  0  0  0  0  0
  -27.0850  -29.9170   24.2930 C   0  0  0  0  0  1  0  0  0  0  0  0
  -27.6730  -32.0030   25.4950 C   0  0  0  0  0  1  0  0  0  0  0  0
  1  5  2  0
  1  2  1  0
  2  6  2  0
  3  7  1  0
  3  4  2  0
  4 10  1  0
  5  3  1  0
  6  4  1  0
  6 11  1  0
  7  8  1  0
  8  9  1  0
 10  9  1  0
 10 13  1  1
 10 12  1  0
 14 27  1  0
 15 20  1  0
 16 17  1  0
 16 15  1  0
 18 17  1  0
 18 31  1  0
 18 19  1  0
 20 14  1  0
 20 19  1  0
 21 14  2  0
 23 25  1  0
 23 26  1  0
 24 22  1  0
 25 27  1  0
 26  2  1  0
 26 22  2  0
 27 24  1  0
 28 29  2  0
 29 48  1  0
 30 29  1  0
 30 33  1  0
 31 28  1  0
 31 32  1  0
 32 30  2  0
 33 34  1  0
 34 35  2  0
 36 39  1  0
 36 35  1  0
 37 36  2  0
 38 37  1  0
 38 33  2  0
 39 40  1  0
 40 45  2  0
 40 41  1  0
 41 42  2  0
 42 43  1  0
 43 47  1  0
 44 43  2  0
 45 44  1  0
 46 45  1  0
 48 49  1  0
 49 52  1  0
 49 51  1  0
 50 48  2  0
 53 54  1  0
 53 28  1  0
 55 53  1  0
 56 57  1  0
 56  5  1  0
 58 69  2  0
 59 57  1  0
 59 64  1  0
 60 68  1  0
 60 70  1  0
 61 67  1  0
 61 63  1  0
 62 68  1  0
 63 62  1  0
 64 63  2  0
 65 66  1  0
 65 59  2  0
 66 61  2  0
 67 60  1  0
 68 58  1  0
 70 72  2  0
 71 70  1  0
 73 71  1  0
 74 83  2  0
 74 79  1  0
 75 71  1  0
 75 79  1  0
 76 75  1  0
 77 78  1  0
 77 76  1  0
 78 74  1  0
 79 80  2  0
 80 81  1  0
 82 81  2  0
 83 82  1  0
 84 58  1  0
 84 85  1  0
 84 94  1  0
 85 88  1  0
 86 90  1  0
 86 85  1  0
 87 86  2  0
 90 89  1  0
 92 90  1  0
 92 93  1  0
 92 91  1  0
 94 97  1  1
 94 95  1  0
 96 94  1  0
M  ISO  4  14 100  27 100  56 101  57 101
M  END
>  <TORSDO>  (22) 
F 17

>  <SCORE>  (22) 
-8.396

>  <name>  (22) 
23

>  <ligand_id>  (22) 
23

>  <original_smiles>  (22) 
[H]c1c([H])c([H])c2c(c1[H])C([H])([H])C([H])([H])C([H])([H])C2([H])N([H])C(=O)C1([H])N(C(=O)C([H])(N([H])C(=O)C([H])(N([H])C([H])([H])[H])C([H])([H])[H])C(C([H])([H])[H])(C([H])([H])[H])C([H])([H])[H])C([H])([H])c2c([H])c(OC([H])([H])c3c([H])c(C4([H])C([H])([H])C([H])([H])N(C(=O)N5C([H])([H])C([H])([H])C([H])([H])C([H])(n6nc(-c7c([H])c([H])c(Oc8c([H])c([H])c(F)c([H])c8F)c([H])c7[H])c(C(=O)N([H])[H])c6N([H])[H])C5([H])[H])C([H])([H])C4([H])[H])c(C([H])([H])[H])c4c3C([H])([H])C([H])([H])C([H])([H])C4(C([H])([H])[H])C([H])([H])[H])c([H])c([H])c2C1([H])[H]

>  <smiles>  (22) 
[H]c1c([H])c([H])c2c(c1[H])C([H])([H])C([H])([H])C([H])([H])C2([H])N([H])C(=O)C1([H])N(C(=O)C([H])(N([H])C(=O)C([H])(N([H])C([H])([H])[H])C([H])([H])[H])C(C([H])([H])[H])(C([H])([H])[H])C([H])([H])[H])C([H])([H])c2c([H])c(OC([H])([H])c3c([H])c(C4([H])C([H])([H])C([H])([H])N(C(=O)N5C([H])([H])C([H])([H])C([H])([H])C([H])(n6nc(-c7c([H])c([H])c(Oc8c([H])c([H])c(F)c([H])c8F)c([H])c7[H])c(C(=O)N([H])[H])c6N([H])[H])C5([H])[H])C([H])([H])C4([H])[H])c(C([H])([H])[H])c4c3C([H])([H])C([H])([H])C([H])([H])C4(C([H])([H])[H])C([H])([H])[H])c([H])c([H])c2C1([H])[H]

$$$$
24:0:0
     RDKit          3D

 96106  0  0  1  0  0  0  0  0999 V2000
  -28.6240  -22.1080   20.6750 C   0  0  0  0  0  3  0  0  0  0  0  0
  -29.9160  -23.5990   19.3370 C   0  0  0  0  0  0  0  0  0  0  0  0
  -28.8600  -23.5090   20.2670 C   0  0  0  0  0  0  0  0  0  0  0  0
  -29.3770  -20.9510   20.1660 C   0  0  0  0  0  0  0  0  0  0  0  0
  -30.6080  -22.4680   18.9010 C   0  0  0  0  0  0  0  0  0  0  0  0
  -30.4610  -24.8510   18.7010 C   0  0  0  0  0  3  0  0  0  0  0  0
  -31.7210  -24.3740   17.9470 C   0  0  0  0  0  3  0  0  0  0  0  0
  -31.7180  -22.8170   17.9270 C   0  0  2  0  0  0  0  0  0  0  0  0
  -31.3840  -22.2960   16.5180 C   0  0  0  0  0  1  0  0  0  0  0  0
  -33.0760  -22.2690   18.4070 C   0  0  0  0  0  1  0  0  0  0  0  0
  -30.3590  -21.1870   19.2660 N   0  0  0  0  0  0  0  0  0  0  0  0
  -30.5710  -14.8700   20.2510 C   0  0  0  0  0  0  0  0  0  0  0  0
  -30.3510  -12.5660   19.2620 C   0  0  0  0  0  2  0  0  0  0  0  0
  -29.4030  -12.5880   18.0440 C   0  0  0  0  0  2  0  0  0  0  0  0
  -27.9420  -12.4050   18.4950 C   0  0  0  0  0  2  0  0  0  0  0  0
  -27.5720  -13.3090   19.7030 C   0  0  0  0  0  3  0  0  0  0  0  0
  -28.6460  -13.2780   20.8100 C   0  0  0  0  0  2  0  0  0  0  0  0
  -29.9180  -13.6500   20.1830 N   0  0  0  0  0  0  0  0  0  0  0  0
  -31.7680  -14.9020   19.9460 O   0  0  0  0  0  0  0  0  0  0  0  0
  -28.7320  -18.3500   19.4460 C   0  0  0  0  0  2  0  0  0  0  0  0
  -30.4130  -18.6120   21.2090 C   0  0  0  0  0  2  0  0  0  0  0  0
  -29.4950  -16.9390   19.2440 C   0  0  0  0  0  2  0  0  0  0  0  0
  -30.2130  -17.0490   21.5350 C   0  0  0  0  0  2  0  0  0  0  0  0
  -29.2050  -19.3730   20.5560 C   0  0  0  0  0  3  0  0  0  0  0  0
  -29.8640  -16.0870   20.4290 N   0  0  0  0  0  0  0  0  0  0  0  0
  -25.2020  -13.8890   20.4780 C   0  0  0  0  0  0  0  0  0  0  0  0
  -24.1420  -13.1120   20.8560 C   0  0  0  0  0  0  0  0  0  0  0  0
  -24.6050  -11.7620   20.8140 C   0  0  0  0  0  0  0  0  0  0  0  0
  -26.2410  -13.0110   20.2190 N   0  0  0  0  0  0  0  0  0  0  0  0
  -25.8910  -11.7260   20.4870 N   0  0  0  0  0  0  0  0  0  0  0  0
  -23.8790  -10.4990   21.0060 C   0  0  0  0  0  0  0  0  0  0  0  0
  -24.3140   -9.5320   21.9400 C   0  0  0  0  0  3  0  0  0  0  0  0
  -23.5870   -8.3360   22.1230 C   0  0  0  0  0  3  0  0  0  0  0  0
  -22.4120   -8.0960   21.3690 C   0  0  0  0  0  0  0  0  0  0  0  0
  -21.9990   -9.0510   20.4240 C   0  0  0  0  0  3  0  0  0  0  0  0
  -22.7250  -10.2390   20.2400 C   0  0  0  0  0  3  0  0  0  0  0  0
  -21.6580   -6.9520   21.4600 O   0  0  0  0  0  0  0  0  0  0  0  0
  -21.5980   -6.2180   22.6180 C   0  0  0  0  0  0  0  0  0  0  0  0
  -21.1460   -6.7790   23.8320 C   0  0  0  0  0  3  0  0  0  0  0  0
  -21.0340   -5.9710   24.9810 C   0  0  0  0  0  3  0  0  0  0  0  0
  -21.3640   -4.6040   24.9190 C   0  0  0  0  0  0  0  0  0  0  0  0
  -21.8100   -4.0440   23.7090 C   0  0  0  0  0  3  0  0  0  0  0  0
  -21.9240   -4.8480   22.5610 C   0  0  0  0  0  0  0  0  0  0  0  0
  -22.3330   -4.2970   21.3930 F   0  0  0  0  0  0  0  0  0  0  0  0
  -21.2490   -3.8260   26.0200 F   0  0  0  0  0  0  0  0  0  0  0  0
  -22.7480  -13.5900   21.1460 C   0  0  0  0  0  0  0  0  0  0  0  0
  -22.0290  -12.8890   22.0140 N   0  0  0  0  0  0  0  0  0  0  0  0
  -22.3060  -14.6190   20.6360 O   0  0  0  0  0  0  0  0  0  0  0  0
  -22.3990  -12.0560   22.4480 H   0  0  0  0  0  0  0  0  0  0  0  0
  -21.0940  -13.1910   22.2500 H   0  0  0  0  0  0  0  0  0  0  0  0
  -25.3670  -15.2600   20.3080 N   0  0  0  0  0  0  0  0  0  0  0  0
  -24.6070  -15.9190   20.4330 H   0  0  0  0  0  0  0  0  0  0  0  0
  -26.2260  -15.7010   20.0040 H   0  0  0  0  0  0  0  0  0  0  0  0
  -26.6480  -24.4810   21.2100 C   0  0  0  0  0  1  0  0  0  0  0  0
  -28.1010  -24.8410   20.8290 C   0  0  0  0  0  3  0  0  0  0  0  0
  -28.2820  -26.2590   20.2340 O   0  0  0  0  0  0  0  0  0  0  0  0
  -24.6190  -31.8670   23.2370 C   0  0  0  0  0  0  0  0  0  0  0  0
  -27.2250  -27.2220   20.2040 C   0  0  0  0  0  0  0  0  0  0  0  0
  -23.4280  -30.4710   21.5890 C   0  0  0  0  0  3  0  0  0  0  0  0
  -24.8880  -28.9210   20.1600 C   0  0  0  0  0  0  0  0  0  0  0  0
  -25.9770  -30.7640   21.4300 C   0  0  0  0  0  2  0  0  0  0  0  0
  -26.0600  -29.3780   20.7800 C   0  0  0  0  0  0  0  0  0  0  0  0
  -27.2320  -28.5410   20.7930 C   0  0  0  0  0  3  0  0  0  0  0  0
  -26.0500  -26.8760   19.5050 C   0  0  0  0  0  3  0  0  0  0  0  0
  -24.8930  -27.6800   19.5070 C   0  0  0  0  0  3  0  0  0  0  0  0
  -23.6530  -29.8030   20.2070 C   0  0  0  0  0  2  0  0  0  0  0  0
  -24.6930  -31.0550   22.1400 N   0  0  0  0  0  0  0  0  0  0  0  0
  -23.5320  -32.1430   23.7650 O   0  0  0  0  0  0  0  0  0  0  0  0
  -22.7570  -29.4540   22.5440 C   0  0  0  0  0  0  0  0  0  0  0  0
  -21.4290  -29.2810   22.4190 N   0  0  0  0  0  0  0  0  0  0  0  0
  -23.4320  -28.8230   23.3610 O   0  0  0  0  0  0  0  0  0  0  0  0
  -20.9410  -29.8410   21.7350 H   0  0  0  0  0  0  0  0  0  0  0  0
  -18.0490  -28.0900   22.9330 C   0  0  0  0  0  0  0  0  0  0  0  0
  -20.6100  -28.3410   23.1880 C   0  0  0  0  0  3  0  0  0  0  0  0
  -20.7030  -26.9130   22.6020 C   0  0  0  0  0  2  0  0  0  0  0  0
  -19.5940  -26.6030   21.5910 C   0  0  0  0  0  2  0  0  0  0  0  0
  -18.2170  -26.7470   22.2430 C   0  0  0  0  0  2  0  0  0  0  0  0
  -19.1730  -28.8460   23.3620 C   0  0  0  0  0  0  0  0  0  0  0  0
  -18.9610  -30.1040   23.9670 C   0  0  0  0  0  3  0  0  0  0  0  0
  -17.6580  -30.6060   24.1470 C   0  0  0  0  0  3  0  0  0  0  0  0
  -16.5490  -29.8490   23.7320 C   0  0  0  0  0  3  0  0  0  0  0  0
  -16.7460  -28.5930   23.1310 C   0  0  0  0  0  3  0  0  0  0  0  0
  -25.8940  -32.5040   23.8660 C   0  0  0  0  0  3  0  0  0  0  0  0
  -25.5810  -33.9050   24.1880 N   0  0  0  0  0  0  0  0  0  0  0  0
  -25.9160  -34.9560   23.4280 C   0  0  0  0  0  0  0  0  0  0  0  0
  -26.5910  -34.8500   22.4000 O   0  0  0  0  0  0  0  0  0  0  0  0
  -24.9820  -34.0620   24.9850 H   0  0  0  0  0  0  0  0  0  0  0  0
  -24.1910  -36.7520   23.0600 C   0  0  0  0  0  1  0  0  0  0  0  0
  -25.4280  -36.3470   23.8800 C   0  0  0  0  0  3  0  0  0  0  0  0
  -27.5560  -37.2330   24.7250 C   0  0  0  0  0  1  0  0  0  0  0  0
  -26.4620  -37.3980   23.7720 N   0  0  0  0  0  0  0  0  0  0  0  0
  -26.0550  -38.3190   23.9130 H   0  0  0  0  0  0  0  0  0  0  0  0
  -26.4000  -31.7420   25.1520 C   0  0  1  0  0  0  0  0  0  0  0  0
  -25.2960  -31.5140   26.2130 C   0  0  0  0  0  1  0  0  0  0  0  0
  -26.9840  -30.3600   24.7800 C   0  0  0  0  0  1  0  0  0  0  0  0
  -27.5430  -32.5410   25.8200 C   0  0  0  0  0  1  0  0  0  0  0  0
  2  3  2  0
  3  1  1  0
  3 55  1  0
  4  1  2  0
  5 11  2  0
  5  2  1  0
  6  2  1  0
  7  6  2  0
  8  7  1  0
  8 10  1  1
  8  5  1  0
  9  8  1  0
 11  4  1  0
 12 25  1  0
 13 18  1  0
 14 15  1  0
 14 13  1  0
 16 15  1  0
 16 29  1  0
 16 17  1  0
 18 12  1  0
 18 17  1  0
 19 12  2  0
 20 24  1  0
 21 23  1  0
 22 20  1  0
 22 25  1  0
 24  4  1  0
 24 21  1  0
 25 23  1  0
 26 27  2  0
 27 46  1  0
 28 27  1  0
 28 31  1  0
 29 26  1  0
 29 30  1  0
 30 28  2  0
 31 32  1  0
 32 33  2  0
 34 37  1  0
 34 33  1  0
 35 34  2  0
 36 35  1  0
 36 31  2  0
 37 38  1  0
 38 39  1  0
 39 40  2  0
 41 40  1  0
 41 45  1  0
 42 41  2  0
 43 38  2  0
 43 42  1  0
 44 43  1  0
 46 47  1  0
 47 50  1  0
 47 49  1  0
 48 46  2  0
 51 52  1  0
 51 26  1  0
 53 51  1  0
 55 54  1  0
 56 55  1  0
 57 68  2  0
 58 56  1  0
 58 63  1  0
 59 67  1  0
 59 69  1  0
 60 66  1  0
 60 62  1  0
 61 67  1  0
 62 63  2  0
 62 61  1  0
 64 65  1  0
 64 58  2  0
 65 60  2  0
 66 59  1  0
 67 57  1  0
 69 71  2  0
 70 69  1  0
 72 70  1  0
 73 82  2  0
 73 78  1  0
 74 70  1  0
 74 78  1  0
 75 74  1  0
 76 77  1  0
 76 75  1  0
 77 73  1  0
 78 79  2  0
 79 80  1  0
 81 80  2  0
 82 81  1  0
 83 57  1  0
 83 84  1  0
 83 93  1  0
 84 87  1  0
 85 89  1  0
 85 84  1  0
 86 85  2  0
 89 88  1  0
 91 89  1  0
 91 92  1  0
 91 90  1  0
 93 96  1  1
 93 94  1  0
 95 93  1  0
M  ISO  4  12 100  25 100  55 101  56 101
M  END
>  <TORSDO>  (23) 
F 17

>  <SCORE>  (23) 
-15.406

>  <name>  (23) 
24

>  <ligand_id>  (23) 
24

>  <original_smiles>  (23) 
[H]c1c([H])c([H])c2c(c1[H])C([H])([H])C([H])([H])C([H])([H])C2([H])N([H])C(=O)C1([H])N(C(=O)C([H])(N([H])C(=O)C([H])(N([H])C([H])([H])[H])C([H])([H])[H])C(C([H])([H])[H])(C([H])([H])[H])C([H])([H])[H])C([H])([H])c2c([H])c(OC([H])(c3c([H])c(C4([H])C([H])([H])C([H])([H])N(C(=O)N5C([H])([H])C([H])([H])C([H])([H])C([H])(n6nc(-c7c([H])c([H])c(Oc8c([H])c([H])c(F)c([H])c8F)c([H])c7[H])c(C(=O)N([H])[H])c6N([H])[H])C5([H])[H])C([H])([H])C4([H])[H])nc4c3C([H])([H])C([H])([H])C4(C([H])([H])[H])C([H])([H])[H])C([H])([H])[H])c([H])c([H])c2C1([H])[H]

>  <smiles>  (23) 
[H]c1c([H])c([H])c2c(c1[H])C([H])([H])C([H])([H])C([H])([H])C2([H])N([H])C(=O)C1([H])N(C(=O)C([H])(N([H])C(=O)C([H])(N([H])C([H])([H])[H])C([H])([H])[H])C(C([H])([H])[H])(C([H])([H])[H])C([H])([H])[H])C([H])([H])c2c([H])c(OC([H])(c3c([H])c(C4([H])C([H])([H])C([H])([H])N(C(=O)N5C([H])([H])C([H])([H])C([H])([H])C([H])(n6nc(-c7c([H])c([H])c(Oc8c([H])c([H])c(F)c([H])c8F)c([H])c7[H])c(C(=O)N([H])[H])c6N([H])[H])C5([H])[H])C([H])([H])C4([H])[H])nc4c3C([H])([H])C([H])([H])C4(C([H])([H])[H])C([H])([H])[H])C([H])([H])[H])c([H])c([H])c2C1([H])[H]

$$$$
25:0:0
     RDKit          3D

 86 94  0  0  1  0  0  0  0  0999 V2000
  -30.3010  -15.8770   20.3280 C   0  0  0  0  0  0  0  0  0  0  0  0
  -30.4180  -13.2650   19.5580 C   0  0  0  0  0  2  0  0  0  0  0  0
  -29.5900  -12.7040   18.3580 C   0  0  0  0  0  2  0  0  0  0  0  0
  -28.1930  -12.2860   18.8240 C   0  0  0  0  0  2  0  0  0  0  0  0
  -27.6060  -13.3450   19.7780 C   0  0  0  0  0  3  0  0  0  0  0  0
  -28.5840  -13.8270   20.8880 C   0  0  0  0  0  2  0  0  0  0  0  0
  -29.7370  -14.5000   20.2240 N   0  0  0  0  0  0  0  0  0  0  0  0
  -31.5350  -15.6880   20.1870 O   0  0  0  0  0  0  0  0  0  0  0  0
  -27.4340  -23.1170   21.4940 C   0  0  0  0  0  2  0  0  0  0  0  0
  -28.5360  -22.0850   21.8850 C   0  0  0  0  0  2  0  0  0  0  0  0
  -27.9960  -19.9660   20.2080 C   0  0  0  0  0  2  0  0  0  0  0  0
  -30.1600  -20.5640   20.2460 C   0  0  0  0  0  2  0  0  0  0  0  0
  -28.4730  -18.3160   20.7330 C   0  0  0  0  0  2  0  0  0  0  0  0
  -30.4890  -18.8060   19.9520 C   0  0  0  0  0  2  0  0  0  0  0  0
  -28.0420  -23.4220   20.1060 C   0  0  0  0  0  2  0  0  0  0  0  0
  -28.7200  -21.5280   20.4500 C   0  0  0  0  0  3  0  0  0  0  0  0
  -29.7390  -17.4050   20.3070 N   0  0  0  0  0  0  0  0  0  0  0  0
  -25.2240  -13.8480   20.4700 C   0  0  0  0  0  0  0  0  0  0  0  0
  -24.1640  -13.0590   20.8150 C   0  0  0  0  0  0  0  0  0  0  0  0
  -24.6530  -11.7160   20.8230 C   0  0  0  0  0  0  0  0  0  0  0  0
  -26.2870  -12.9870   20.2740 N   0  0  0  0  0  0  0  0  0  0  0  0
  -25.9580  -11.6970   20.5510 N   0  0  0  0  0  0  0  0  0  0  0  0
  -23.9350  -10.4470   21.0130 C   0  0  0  0  0  0  0  0  0  0  0  0
  -24.3550   -9.4900   21.9630 C   0  0  0  0  0  3  0  0  0  0  0  0
  -23.6270   -8.2940   22.1450 C   0  0  0  0  0  3  0  0  0  0  0  0
  -22.4650   -8.0460   21.3760 C   0  0  0  0  0  0  0  0  0  0  0  0
  -22.0630   -8.9910   20.4170 C   0  0  0  0  0  3  0  0  0  0  0  0
  -22.7930  -10.1790   20.2340 C   0  0  0  0  0  3  0  0  0  0  0  0
  -21.7100   -6.9020   21.4710 O   0  0  0  0  0  0  0  0  0  0  0  0
  -21.6560   -6.1660   22.6270 C   0  0  0  0  0  0  0  0  0  0  0  0
  -21.2380   -6.7330   23.8510 C   0  0  0  0  0  3  0  0  0  0  0  0
  -21.1280   -5.9230   24.9990 C   0  0  0  0  0  3  0  0  0  0  0  0
  -21.4270   -4.5500   24.9250 C   0  0  0  0  0  0  0  0  0  0  0  0
  -21.8370   -3.9830   23.7050 C   0  0  0  0  0  3  0  0  0  0  0  0
  -21.9470   -4.7900   22.5590 C   0  0  0  0  0  0  0  0  0  0  0  0
  -22.3230   -4.2330   21.3820 F   0  0  0  0  0  0  0  0  0  0  0  0
  -21.3180   -3.7720   26.0260 F   0  0  0  0  0  0  0  0  0  0  0  0
  -22.7550  -13.5260   21.0290 C   0  0  0  0  0  0  0  0  0  0  0  0
  -22.0130  -12.8460   21.8970 N   0  0  0  0  0  0  0  0  0  0  0  0
  -22.3200  -14.5320   20.4630 O   0  0  0  0  0  0  0  0  0  0  0  0
  -22.3780  -12.0330   22.3690 H   0  0  0  0  0  0  0  0  0  0  0  0
  -21.0670  -13.1460   22.0910 H   0  0  0  0  0  0  0  0  0  0  0  0
  -25.3700  -15.2180   20.2750 N   0  0  0  0  0  0  0  0  0  0  0  0
  -24.5880  -15.8600   20.3650 H   0  0  0  0  0  0  0  0  0  0  0  0
  -26.2220  -15.6740   19.9760 H   0  0  0  0  0  0  0  0  0  0  0  0
  -28.1650  -25.2640   20.1400 O   0  0  0  0  0  0  0  0  0  0  0  0
  -24.7060  -31.7600   23.0170 C   0  0  0  0  0  0  0  0  0  0  0  0
  -27.2030  -26.5460   20.0620 C   0  0  0  0  0  0  0  0  0  0  0  0
  -23.5100  -30.3540   21.3940 C   0  0  0  0  0  3  0  0  0  0  0  0
  -24.9480  -28.6760   19.9790 C   0  0  0  0  0  0  0  0  0  0  0  0
  -26.0920  -30.4600   21.2620 C   0  0  0  0  0  2  0  0  0  0  0  0
  -26.1510  -29.0090   20.6160 C   0  0  0  0  0  0  0  0  0  0  0  0
  -27.2540  -27.9760   20.6150 C   0  0  0  0  0  3  0  0  0  0  0  0
  -25.9670  -26.4660   19.3550 C   0  0  0  0  0  3  0  0  0  0  0  0
  -24.9060  -27.4360   19.3200 C   0  0  0  0  0  3  0  0  0  0  0  0
  -23.7470  -29.6440   20.0270 C   0  0  0  0  0  2  0  0  0  0  0  0
  -24.7950  -30.8960   21.9420 N   0  0  0  0  0  0  0  0  0  0  0  0
  -23.6160  -32.0630   23.5330 O   0  0  0  0  0  0  0  0  0  0  0  0
  -22.7920  -29.3890   22.3800 C   0  0  0  0  0  0  0  0  0  0  0  0
  -21.4530  -29.2580   22.2880 N   0  0  0  0  0  0  0  0  0  0  0  0
  -23.4550  -28.7520   23.2030 O   0  0  0  0  0  0  0  0  0  0  0  0
  -20.9630  -29.8230   21.6070 H   0  0  0  0  0  0  0  0  0  0  0  0
  -18.0630  -28.0900   22.8960 C   0  0  0  0  0  0  0  0  0  0  0  0
  -20.6340  -28.3250   23.0740 C   0  0  0  0  0  3  0  0  0  0  0  0
  -20.6960  -26.8970   22.4820 C   0  0  0  0  0  2  0  0  0  0  0  0
  -19.5580  -26.6020   21.4980 C   0  0  0  0  0  2  0  0  0  0  0  0
  -18.2000  -26.7510   22.1900 C   0  0  0  0  0  2  0  0  0  0  0  0
  -19.2020  -28.8350   23.2960 C   0  0  0  0  0  0  0  0  0  0  0  0
  -19.0150  -30.0860   23.9250 C   0  0  0  0  0  3  0  0  0  0  0  0
  -17.7190  -30.5910   24.1490 C   0  0  0  0  0  3  0  0  0  0  0  0
  -16.5950  -29.8440   23.7610 C   0  0  0  0  0  3  0  0  0  0  0  0
  -16.7670  -28.5940   23.1400 C   0  0  0  0  0  3  0  0  0  0  0  0
  -25.9700  -32.4200   23.6480 C   0  0  0  0  0  3  0  0  0  0  0  0
  -25.6270  -33.8010   24.0410 N   0  0  0  0  0  0  0  0  0  0  0  0
  -25.9250  -34.9050   23.3420 C   0  0  0  0  0  0  0  0  0  0  0  0
  -26.5710  -34.8690   22.2910 O   0  0  0  0  0  0  0  0  0  0  0  0
  -25.0430  -33.9010   24.8590 H   0  0  0  0  0  0  0  0  0  0  0  0
  -24.1580  -36.6930   23.1480 C   0  0  0  0  0  1  0  0  0  0  0  0
  -25.4330  -36.2620   23.8900 C   0  0  0  0  0  3  0  0  0  0  0  0
  -27.5850  -37.1470   24.6820 C   0  0  0  0  0  1  0  0  0  0  0  0
  -26.4410  -37.3430   23.7950 N   0  0  0  0  0  0  0  0  0  0  0  0
  -26.0230  -38.2430   24.0150 H   0  0  0  0  0  0  0  0  0  0  0  0
  -26.5160  -31.6330   24.9050 C   0  0  1  0  0  0  0  0  0  0  0  0
  -25.4440  -31.3640   25.9890 C   0  0  0  0  0  1  0  0  0  0  0  0
  -27.1110  -30.2690   24.4940 C   0  0  0  0  0  1  0  0  0  0  0  0
  -27.6690  -32.4300   25.5600 C   0  0  0  0  0  1  0  0  0  0  0  0
  2  7  1  0
  3  4  1  0
  3  2  1  0
  5  4  1  0
  5 21  1  0
  5  6  1  0
  7  1  1  0
  7  6  1  0
  8  1  2  0
  9 10  1  0
 11 16  1  0
 11 13  1  0
 12 16  1  0
 14 12  1  0
 14 17  1  0
 15 46  1  0
 15  9  1  0
 16 10  1  0
 17  1  1  0
 17 13  1  0
 18 19  2  0
 19 20  1  0
 19 38  1  0
 20 23  1  0
 21 18  1  0
 21 22  1  0
 22 20  2  0
 23 24  1  0
 24 25  2  0
 26 29  1  0
 26 25  1  0
 27 26  2  0
 28 27  1  0
 28 23  2  0
 29 30  1  0
 30 31  1  0
 31 32  2  0
 33 32  1  0
 33 37  1  0
 34 33  2  0
 35 30  2  0
 35 34  1  0
 36 35  1  0
 38 39  1  0
 39 42  1  0
 39 41  1  0
 40 38  2  0
 43 44  1  0
 43 18  1  0
 45 43  1  0
 47 58  2  0
 48 46  1  0
 48 53  1  0
 49 57  1  0
 49 59  1  0
 50 56  1  0
 50 52  1  0
 51 57  1  0
 52 51  1  0
 53 52  2  0
 54 48  2  0
 55 54  1  0
 55 50  2  0
 56 49  1  0
 57 47  1  0
 59 61  2  0
 60 59  1  0
 62 60  1  0
 63 72  2  0
 63 68  1  0
 64 60  1  0
 64 68  1  0
 65 64  1  0
 66 67  1  0
 66 65  1  0
 67 63  1  0
 68 69  2  0
 69 70  1  0
 71 70  2  0
 72 71  1  0
 73 47  1  0
 73 74  1  0
 73 83  1  0
 74 77  1  0
 75 79  1  0
 75 74  1  0
 76 75  2  0
 79 78  1  0
 81 79  1  0
 81 82  1  0
 81 80  1  0
 83 86  1  1
 83 84  1  0
 85 83  1  0
M  ISO  4   1 100  15 101  17 100  46 101
M  END
>  <TORSDO>  (24) 
F 15

>  <SCORE>  (24) 
-16.219

>  <name>  (24) 
25

>  <ligand_id>  (24) 
25

>  <original_smiles>  (24) 
[H]c1c([H])c([H])c2c(c1[H])C([H])([H])C([H])([H])C([H])([H])C2([H])N([H])C(=O)C1([H])N(C(=O)C([H])(N([H])C(=O)C([H])(N([H])C([H])([H])[H])C([H])([H])[H])C(C([H])([H])[H])(C([H])([H])[H])C([H])([H])[H])C([H])([H])c2c([H])c(OC3([H])C([H])([H])C([H])([H])C34C([H])([H])C([H])([H])N(C(=O)N3C([H])([H])C([H])([H])C([H])([H])C([H])(n5nc(-c6c([H])c([H])c(Oc7c([H])c([H])c(F)c([H])c7F)c([H])c6[H])c(C(=O)N([H])[H])c5N([H])[H])C3([H])[H])C([H])([H])C4([H])[H])c([H])c([H])c2C1([H])[H]

>  <smiles>  (24) 
[H]c1c([H])c([H])c2c(c1[H])C([H])([H])C([H])([H])C([H])([H])C2([H])N([H])C(=O)C1([H])N(C(=O)C([H])(N([H])C(=O)C([H])(N([H])C([H])([H])[H])C([H])([H])[H])C(C([H])([H])[H])(C([H])([H])[H])C([H])([H])[H])C([H])([H])c2c([H])c(OC3([H])C([H])([H])C([H])([H])C34C([H])([H])C([H])([H])N(C(=O)N3C([H])([H])C([H])([H])C([H])([H])C([H])(n5nc(-c6c([H])c([H])c(Oc7c([H])c([H])c(F)c([H])c7F)c([H])c6[H])c(C(=O)N([H])[H])c5N([H])[H])C3([H])[H])C([H])([H])C4([H])[H])c([H])c([H])c2C1([H])[H]

$$$$
26:0:0
     RDKit          3D

 90 99  0  0  1  0  0  0  0  0999 V2000
  -28.1050  -23.0680   19.8810 C   0  0  0  0  0  3  0  0  0  0  0  0
  -28.8930  -21.7960   20.1980 C   0  0  0  0  0  0  0  0  0  0  0  0
  -28.5340  -24.4910   20.2250 C   0  0  0  0  0  0  0  0  0  0  0  0
  -30.4280  -23.3280   21.0360 C   0  0  0  0  0  0  0  0  0  0  0  0
  -31.8280  -23.5150   21.5840 C   0  0  0  0  0  1  0  0  0  0  0  0
  -30.0710  -22.0600   20.7840 N   0  0  0  0  0  0  0  0  0  0  0  0
  -29.7520  -24.4650   20.8110 N   0  0  0  0  0  0  0  0  0  0  0  0
  -28.6570  -20.2870   19.9760 N   0  0  0  0  0  0  0  0  0  0  0  0
  -27.7340  -20.1100   19.5920 H   0  0  0  0  0  0  0  0  0  0  0  0
  -30.3100  -15.2310   19.8510 C   0  0  0  0  0  0  0  0  0  0  0  0
  -30.2080  -12.8040   18.9410 C   0  0  0  0  0  2  0  0  0  0  0  0
  -29.2050  -12.6570   17.7730 C   0  0  0  0  0  2  0  0  0  0  0  0
  -27.7770  -12.4070   18.2880 C   0  0  0  0  0  2  0  0  0  0  0  0
  -27.4260  -13.3160   19.4990 C   0  0  0  0  0  3  0  0  0  0  0  0
  -28.5590  -13.4060   20.5430 C   0  0  0  0  0  2  0  0  0  0  0  0
  -29.7280  -13.9310   19.8260 N   0  0  0  0  0  0  0  0  0  0  0  0
  -31.4880  -15.2230   19.4650 O   0  0  0  0  0  0  0  0  0  0  0  0
  -29.0720  -17.5460   20.9400 C   0  0  0  0  0  2  0  0  0  0  0  0
  -29.6510  -17.7700   18.9750 C   0  0  0  0  0  2  0  0  0  0  0  0
  -29.5180  -18.8980   20.1370 C   0  0  0  0  0  3  0  0  0  0  0  0
  -29.5670  -16.5200   19.8840 N   0  0  0  0  0  0  0  0  0  0  0  0
  -25.1330  -13.8510   20.4840 C   0  0  0  0  0  0  0  0  0  0  0  0
  -24.0970  -13.0660   20.9040 C   0  0  0  0  0  0  0  0  0  0  0  0
  -24.5400  -11.7140   20.7580 C   0  0  0  0  0  0  0  0  0  0  0  0
  -26.1380  -12.9830   20.0980 N   0  0  0  0  0  0  0  0  0  0  0  0
  -25.7980  -11.6840   20.3270 N   0  0  0  0  0  0  0  0  0  0  0  0
  -23.8110  -10.4520   20.9460 C   0  0  0  0  0  0  0  0  0  0  0  0
  -24.2470   -9.4740   21.8680 C   0  0  0  0  0  3  0  0  0  0  0  0
  -23.5200   -8.2770   22.0420 C   0  0  0  0  0  3  0  0  0  0  0  0
  -22.3390   -8.0500   21.2950 C   0  0  0  0  0  0  0  0  0  0  0  0
  -21.9200   -9.0170   20.3640 C   0  0  0  0  0  3  0  0  0  0  0  0
  -22.6470  -10.2040   20.1860 C   0  0  0  0  0  3  0  0  0  0  0  0
  -21.5770   -6.9090   21.3870 O   0  0  0  0  0  0  0  0  0  0  0  0
  -21.4810   -6.1960   22.5550 C   0  0  0  0  0  0  0  0  0  0  0  0
  -20.9410   -6.7620   23.7310 C   0  0  0  0  0  3  0  0  0  0  0  0
  -20.7960   -5.9730   24.8890 C   0  0  0  0  0  3  0  0  0  0  0  0
  -21.1800   -4.6180   24.8740 C   0  0  0  0  0  0  0  0  0  0  0  0
  -21.7120   -4.0520   23.7040 C   0  0  0  0  0  3  0  0  0  0  0  0
  -21.8590   -4.8390   22.5470 C   0  0  0  0  0  0  0  0  0  0  0  0
  -22.3530   -4.2820   21.4140 F   0  0  0  0  0  0  0  0  0  0  0  0
  -21.0310   -3.8580   25.9840 F   0  0  0  0  0  0  0  0  0  0  0  0
  -22.7340  -13.5430   21.3160 C   0  0  0  0  0  0  0  0  0  0  0  0
  -22.0690  -12.8200   22.2120 N   0  0  0  0  0  0  0  0  0  0  0  0
  -22.2700  -14.5960   20.8790 O   0  0  0  0  0  0  0  0  0  0  0  0
  -22.4570  -11.9710   22.5980 H   0  0  0  0  0  0  0  0  0  0  0  0
  -21.1560  -13.1220   22.5150 H   0  0  0  0  0  0  0  0  0  0  0  0
  -25.3000  -15.2300   20.3690 N   0  0  0  0  0  0  0  0  0  0  0  0
  -24.5660  -15.8880   20.6030 H   0  0  0  0  0  0  0  0  0  0  0  0
  -26.1340  -15.6770   20.0090 H   0  0  0  0  0  0  0  0  0  0  0  0
  -28.2160  -25.9460   19.8480 O   0  0  0  0  0  0  0  0  0  0  0  0
  -24.5420  -31.7640   23.0500 C   0  0  0  0  0  0  0  0  0  0  0  0
  -27.1160  -26.9360   19.9830 C   0  0  0  0  0  0  0  0  0  0  0  0
  -23.3440  -30.3650   21.4140 C   0  0  0  0  0  3  0  0  0  0  0  0
  -24.7860  -28.7720   19.9770 C   0  0  0  0  0  0  0  0  0  0  0  0
  -25.9010  -30.6050   21.2340 C   0  0  0  0  0  2  0  0  0  0  0  0
  -25.9750  -29.1930   20.5850 C   0  0  0  0  0  0  0  0  0  0  0  0
  -27.1330  -28.2980   20.5610 C   0  0  0  0  0  3  0  0  0  0  0  0
  -25.8940  -26.6590   19.3340 C   0  0  0  0  0  3  0  0  0  0  0  0
  -24.7650  -27.5220   19.3350 C   0  0  0  0  0  3  0  0  0  0  0  0
  -23.5620  -29.6820   20.0330 C   0  0  0  0  0  2  0  0  0  0  0  0
  -24.6160  -30.9410   21.9510 N   0  0  0  0  0  0  0  0  0  0  0  0
  -23.4570  -32.0390   23.5870 O   0  0  0  0  0  0  0  0  0  0  0  0
  -22.6720  -29.3560   22.3830 C   0  0  0  0  0  0  0  0  0  0  0  0
  -21.3370  -29.2070   22.3000 N   0  0  0  0  0  0  0  0  0  0  0  0
  -23.3590  -28.7100   23.1780 O   0  0  0  0  0  0  0  0  0  0  0  0
  -20.8410  -29.7830   21.6360 H   0  0  0  0  0  0  0  0  0  0  0  0
  -17.9580  -28.0190   22.8970 C   0  0  0  0  0  0  0  0  0  0  0  0
  -20.5300  -28.2570   23.0740 C   0  0  0  0  0  3  0  0  0  0  0  0
  -20.5950  -26.8380   22.4640 C   0  0  0  0  0  2  0  0  0  0  0  0
  -19.4540  -26.5480   21.4820 C   0  0  0  0  0  2  0  0  0  0  0  0
  -18.0980  -26.6870   22.1810 C   0  0  0  0  0  2  0  0  0  0  0  0
  -19.0990  -28.7620   23.3020 C   0  0  0  0  0  0  0  0  0  0  0  0
  -18.9100  -30.0090   23.9370 C   0  0  0  0  0  3  0  0  0  0  0  0
  -17.6190  -30.5130   24.1690 C   0  0  0  0  0  3  0  0  0  0  0  0
  -16.4930  -29.7660   23.7780 C   0  0  0  0  0  3  0  0  0  0  0  0
  -16.6650  -28.5210   23.1480 C   0  0  0  0  0  3  0  0  0  0  0  0
  -25.8160  -32.4130   23.6690 C   0  0  0  0  0  3  0  0  0  0  0  0
  -25.4730  -33.7880   24.0700 N   0  0  0  0  0  0  0  0  0  0  0  0
  -25.7590  -34.8900   23.3610 C   0  0  0  0  0  0  0  0  0  0  0  0
  -26.4010  -34.8530   22.3080 O   0  0  0  0  0  0  0  0  0  0  0  0
  -24.8910  -33.8850   24.8900 H   0  0  0  0  0  0  0  0  0  0  0  0
  -23.9900  -36.6670   23.1380 C   0  0  0  0  0  1  0  0  0  0  0  0
  -25.2560  -36.2440   23.9000 C   0  0  0  0  0  3  0  0  0  0  0  0
  -27.3790  -37.1410   24.7450 C   0  0  0  0  0  1  0  0  0  0  0  0
  -26.2660  -37.3220   23.8200 N   0  0  0  0  0  0  0  0  0  0  0  0
  -25.8420  -38.2280   24.0060 H   0  0  0  0  0  0  0  0  0  0  0  0
  -26.3770  -31.6110   24.9080 C   0  0  1  0  0  0  0  0  0  0  0  0
  -25.3140  -31.3060   25.9910 C   0  0  0  0  0  1  0  0  0  0  0  0
  -26.9920  -30.2630   24.4670 C   0  0  0  0  0  1  0  0  0  0  0  0
  -27.5220  -32.4080   25.5770 C   0  0  0  0  0  1  0  0  0  0  0  0
  1  2  2  0
  1  3  1  0
  2  6  1  0
  3  7  2  0
  4  5  1  0
  6  4  2  0
  7  4  1  0
  8  2  1  0
  9  8  1  0
 10 21  1  0
 11 16  1  0
 12 13  1  0
 12 11  1  0
 14 13  1  0
 14 25  1  0
 14 15  1  0
 16 10  1  0
 16 15  1  0
 17 10  2  0
 19 21  1  0
 19 20  1  0
 20  8  1  0
 20 18  1  0
 21 18  1  0
 22 23  2  0
 23 42  1  0
 24 23  1  0
 24 27  1  0
 25 26  1  0
 25 22  1  0
 26 24  2  0
 27 28  1  0
 28 29  2  0
 30 33  1  0
 30 29  1  0
 31 30  2  0
 32 31  1  0
 32 27  2  0
 33 34  1  0
 34 35  1  0
 35 36  2  0
 37 36  1  0
 37 41  1  0
 38 37  2  0
 39 34  2  0
 39 38  1  0
 40 39  1  0
 42 43  1  0
 43 46  1  0
 43 45  1  0
 44 42  2  0
 47 22  1  0
 47 48  1  0
 49 47  1  0
 50 52  1  0
 50  3  1  0
 51 62  2  0
 52 57  1  0
 53 61  1  0
 53 63  1  0
 54 60  1  0
 54 56  1  0
 55 61  1  0
 56 55  1  0
 57 56  2  0
 58 59  1  0
 58 52  2  0
 59 54  2  0
 60 53  1  0
 61 51  1  0
 63 65  2  0
 64 63  1  0
 66 64  1  0
 67 76  2  0
 67 72  1  0
 68 64  1  0
 68 72  1  0
 69 68  1  0
 70 71  1  0
 70 69  1  0
 71 67  1  0
 72 73  2  0
 73 74  1  0
 75 74  2  0
 76 75  1  0
 77 51  1  0
 77 78  1  0
 77 87  1  0
 78 81  1  0
 79 83  1  0
 79 78  1  0
 80 79  2  0
 83 82  1  0
 85 83  1  0
 85 86  1  0
 85 84  1  0
 87 90  1  1
 87 88  1  0
 89 87  1  0
M  ISO  4   3 101  10 100  21 100  50 101
M  END
>  <TORSDO>  (25) 
F 17

>  <SCORE>  (25) 
-13.655

>  <name>  (25) 
26

>  <ligand_id>  (25) 
26

>  <original_smiles>  (25) 
[H]c1c(Oc2c([H])c([H])c3c(c2[H])C([H])([H])N(C(=O)C([H])(N([H])C(=O)C([H])(N([H])C([H])([H])[H])C([H])([H])[H])C(C([H])([H])[H])(C([H])([H])[H])C([H])([H])[H])C([H])(C(=O)N([H])C2([H])c4c([H])c([H])c([H])c([H])c4C([H])([H])C([H])([H])C2([H])[H])C3([H])[H])nc(C([H])([H])[H])nc1N([H])C1([H])C([H])([H])N(C(=O)N2C([H])([H])C([H])([H])C([H])([H])C([H])(n3nc(-c4c([H])c([H])c(Oc5c([H])c([H])c(F)c([H])c5F)c([H])c4[H])c(C(=O)N([H])[H])c3N([H])[H])C2([H])[H])C1([H])[H]

>  <smiles>  (25) 
[H]c1c(Oc2c([H])c([H])c3c(c2[H])C([H])([H])N(C(=O)C([H])(N([H])C(=O)C([H])(N([H])C([H])([H])[H])C([H])([H])[H])C(C([H])([H])[H])(C([H])([H])[H])C([H])([H])[H])C([H])(C(=O)N([H])C2([H])c4c([H])c([H])c([H])c([H])c4C([H])([H])C([H])([H])C2([H])[H])C3([H])[H])nc(C([H])([H])[H])nc1N([H])C1([H])C([H])([H])N(C(=O)N2C([H])([H])C([H])([H])C([H])([H])C([H])(n3nc(-c4c([H])c([H])c(Oc5c([H])c([H])c(F)c([H])c5F)c([H])c4[H])c(C(=O)N([H])[H])c3N([H])[H])C2([H])[H])C1([H])[H]

$$$$
27:0:0
     RDKit          3D

 92101  0  0  1  0  0  0  0  0999 V2000
  -29.7220  -21.1800   19.1090 C   0  0  0  0  0  3  0  0  0  0  0  0
  -29.7880  -21.9020   21.4050 C   0  0  0  0  0  3  0  0  0  0  0  0
  -29.9530  -19.8360   19.5760 C   0  0  0  0  0  0  0  0  0  0  0  0
  -29.6420  -22.2820   20.0450 C   0  0  0  0  0  0  0  0  0  0  0  0
  -30.1090  -19.6240   20.9300 C   0  0  0  0  0  0  0  0  0  0  0  0
  -30.0600  -18.4700   18.8380 C   0  0  0  0  0  2  0  0  0  0  0  0
  -30.6400  -17.4160   19.8880 C   0  0  0  0  0  3  0  0  0  0  0  0
  -30.3220  -18.1270   21.2730 C   0  0  2  0  0  0  0  0  0  0  0  0
  -29.0250  -17.5710   21.8940 C   0  0  0  0  0  1  0  0  0  0  0  0
  -31.5000  -17.9310   22.2420 C   0  0  0  0  0  1  0  0  0  0  0  0
  -30.0040  -20.6230   21.8430 N   0  0  0  0  0  0  0  0  0  0  0  0
  -31.0570  -14.7890   19.5390 C   0  0  0  0  0  0  0  0  0  0  0  0
  -30.7470  -12.5010   18.5710 C   0  0  0  0  0  2  0  0  0  0  0  0
  -29.7050  -12.5730   17.4330 C   0  0  0  0  0  2  0  0  0  0  0  0
  -28.2740  -12.4350   17.9920 C   0  0  0  0  0  2  0  0  0  0  0  0
  -28.0230  -13.3450   19.2240 C   0  0  0  0  0  3  0  0  0  0  0  0
  -29.1720  -13.2430   20.2490 C   0  0  0  0  0  2  0  0  0  0  0  0
  -30.4170  -13.5700   19.5410 N   0  0  0  0  0  0  0  0  0  0  0  0
  -32.2190  -14.8770   19.1340 O   0  0  0  0  0  0  0  0  0  0  0  0
  -30.2980  -15.9180   19.8050 N   0  0  0  0  0  0  0  0  0  0  0  0
  -29.3440  -15.7060   20.0520 H   0  0  0  0  0  0  0  0  0  0  0  0
  -25.7330  -14.0050   20.1730 C   0  0  0  0  0  0  0  0  0  0  0  0
  -24.6790  -13.2610   20.6300 C   0  0  0  0  0  0  0  0  0  0  0  0
  -25.0910  -11.8960   20.5420 C   0  0  0  0  0  0  0  0  0  0  0  0
  -26.7200  -13.0950   19.8320 N   0  0  0  0  0  0  0  0  0  0  0  0
  -26.3470  -11.8210   20.1170 N   0  0  0  0  0  0  0  0  0  0  0  0
  -24.3430  -10.6550   20.7810 C   0  0  0  0  0  0  0  0  0  0  0  0
  -24.7530   -9.7220   21.7580 C   0  0  0  0  0  3  0  0  0  0  0  0
  -24.0040   -8.5460   21.9830 C   0  0  0  0  0  3  0  0  0  0  0  0
  -22.8320   -8.2950   21.2300 C   0  0  0  0  0  0  0  0  0  0  0  0
  -22.4420   -9.2170   20.2430 C   0  0  0  0  0  3  0  0  0  0  0  0
  -23.1900  -10.3840   20.0170 C   0  0  0  0  0  3  0  0  0  0  0  0
  -22.0580   -7.1690   21.3620 O   0  0  0  0  0  0  0  0  0  0  0  0
  -21.8800   -6.5540   22.5760 C   0  0  0  0  0  0  0  0  0  0  0  0
  -21.3270   -7.2370   23.6810 C   0  0  0  0  0  3  0  0  0  0  0  0
  -21.0980   -6.5490   24.8900 C   0  0  0  0  0  3  0  0  0  0  0  0
  -21.4110   -5.1800   24.9930 C   0  0  0  0  0  0  0  0  0  0  0  0
  -21.9560   -4.4980   23.8910 C   0  0  0  0  0  3  0  0  0  0  0  0
  -22.1870   -5.1830   22.6850 C   0  0  0  0  0  0  0  0  0  0  0  0
  -22.6920   -4.5150   21.6190 F   0  0  0  0  0  0  0  0  0  0  0  0
  -21.1830   -4.5180   26.1500 F   0  0  0  0  0  0  0  0  0  0  0  0
  -23.3280  -13.7800   21.0300 C   0  0  0  0  0  0  0  0  0  0  0  0
  -22.6670  -13.1100   21.9660 N   0  0  0  0  0  0  0  0  0  0  0  0
  -22.8710  -14.8140   20.5440 O   0  0  0  0  0  0  0  0  0  0  0  0
  -23.0510  -12.2740   22.3800 H   0  0  0  0  0  0  0  0  0  0  0  0
  -21.7640  -13.4390   22.2760 H   0  0  0  0  0  0  0  0  0  0  0  0
  -25.9220  -15.3720   19.9930 N   0  0  0  0  0  0  0  0  0  0  0  0
  -25.1810  -16.0400   20.1720 H   0  0  0  0  0  0  0  0  0  0  0  0
  -26.7210  -15.7840   19.5300 H   0  0  0  0  0  0  0  0  0  0  0  0
  -29.5010  -23.8200   19.5980 C   0  0  0  0  0  3  0  0  0  0  0  0
  -28.7190  -24.9520   20.4600 C   0  0  0  0  0  3  0  0  0  0  0  0
  -28.8590  -26.4240   20.1500 O   0  0  0  0  0  0  0  0  0  0  0  0
  -24.8500  -31.6890   23.1830 C   0  0  0  0  0  0  0  0  0  0  0  0
  -27.7170  -27.2570   20.1270 C   0  0  0  0  0  0  0  0  0  0  0  0
  -23.7460  -30.2750   21.4890 C   0  0  0  0  0  3  0  0  0  0  0  0
  -25.2940  -28.8020   20.0760 C   0  0  0  0  0  0  0  0  0  0  0  0
  -26.2780  -30.6880   21.3780 C   0  0  0  0  0  2  0  0  0  0  0  0
  -26.4310  -29.3220   20.7110 C   0  0  0  0  0  0  0  0  0  0  0  0
  -27.6470  -28.5640   20.7190 C   0  0  0  0  0  3  0  0  0  0  0  0
  -26.5570  -26.8050   19.4630 C   0  0  0  0  0  3  0  0  0  0  0  0
  -25.3620  -27.5510   19.4420 C   0  0  0  0  0  3  0  0  0  0  0  0
  -24.0240  -29.6300   20.1050 C   0  0  0  0  0  2  0  0  0  0  0  0
  -24.9750  -30.9030   22.0740 N   0  0  0  0  0  0  0  0  0  0  0  0
  -23.7430  -31.9140   23.6950 O   0  0  0  0  0  0  0  0  0  0  0  0
  -23.0980  -29.2180   22.4160 C   0  0  0  0  0  0  0  0  0  0  0  0
  -21.7830  -28.9930   22.2520 N   0  0  0  0  0  0  0  0  0  0  0  0
  -23.7800  -28.6050   23.2410 O   0  0  0  0  0  0  0  0  0  0  0  0
  -21.2890  -29.5410   21.5630 H   0  0  0  0  0  0  0  0  0  0  0  0
  -18.4470  -27.6430   22.6380 C   0  0  0  0  0  0  0  0  0  0  0  0
  -20.9840  -28.0080   22.9860 C   0  0  0  0  0  3  0  0  0  0  0  0
  -21.1640  -26.5920   22.3930 C   0  0  0  0  0  2  0  0  0  0  0  0
  -20.1070  -26.2380   21.3420 C   0  0  0  0  0  2  0  0  0  0  0  0
  -18.7020  -26.3140   21.9480 C   0  0  0  0  0  2  0  0  0  0  0  0
  -19.5190  -28.4460   23.1120 C   0  0  0  0  0  0  0  0  0  0  0  0
  -19.2280  -29.6890   23.7150 C   0  0  0  0  0  3  0  0  0  0  0  0
  -17.8980  -30.1300   23.8510 C   0  0  0  0  0  3  0  0  0  0  0  0
  -16.8410  -29.3250   23.3940 C   0  0  0  0  0  3  0  0  0  0  0  0
  -17.1160  -28.0830   22.7920 C   0  0  0  0  0  3  0  0  0  0  0  0
  -26.0890  -32.3620   23.8520 C   0  0  0  0  0  3  0  0  0  0  0  0
  -25.7170  -33.7440   24.1890 N   0  0  0  0  0  0  0  0  0  0  0  0
  -26.0310  -34.8200   23.4550 C   0  0  0  0  0  0  0  0  0  0  0  0
  -26.7320  -34.7550   22.4400 O   0  0  0  0  0  0  0  0  0  0  0  0
  -25.0950  -33.8650   24.9750 H   0  0  0  0  0  0  0  0  0  0  0  0
  -24.2440  -36.5510   23.0840 C   0  0  0  0  0  1  0  0  0  0  0  0
  -25.4820  -36.1840   23.9160 C   0  0  0  0  0  3  0  0  0  0  0  0
  -27.5600  -37.1420   24.8070 C   0  0  0  0  0  1  0  0  0  0  0  0
  -26.4760  -37.2760   23.8380 N   0  0  0  0  0  0  0  0  0  0  0  0
  -26.0320  -38.1790   23.9800 H   0  0  0  0  0  0  0  0  0  0  0  0
  -26.5950  -31.5960   25.1350 C   0  0  1  0  0  0  0  0  0  0  0  0
  -25.4790  -31.3040   26.1660 C   0  0  0  0  0  1  0  0  0  0  0  0
  -27.2430  -30.2460   24.7480 C   0  0  0  0  0  1  0  0  0  0  0  0
  -27.6920  -32.4250   25.8420 C   0  0  0  0  0  1  0  0  0  0  0  0
  1  3  2  0
  1  4  1  0
  2 11  1  0
  3  5  1  0
  4  2  2  0
  5  8  1  0
  5 11  2  0
  6  3  1  0
  6  7  1  0
  7 20  1  0
  7  8  1  0
  8  9  1  1
  8 10  1  0
 12 18  1  0
 12 20  1  0
 13 18  1  0
 14 15  1  0
 14 13  1  0
 16 15  1  0
 16 25  1  0
 16 17  1  0
 18 17  1  0
 19 12  2  0
 20 21  1  0
 22 23  2  0
 23 42  1  0
 24 23  1  0
 24 27  1  0
 25 26  1  0
 25 22  1  0
 26 24  2  0
 27 28  1  0
 28 29  2  0
 30 33  1  0
 30 29  1  0
 31 30  2  0
 32 31  1  0
 32 27  2  0
 33 34  1  0
 34 39  2  0
 34 35  1  0
 35 36  2  0
 36 37  1  0
 37 41  1  0
 38 37  2  0
 39 38  1  0
 40 39  1  0
 42 43  1  0
 43 46  1  0
 43 45  1  0
 44 42  2  0
 47 48  1  0
 47 22  1  0
 49 47  1  0
 50  4  1  0
 50 51  2  0
 52 51  1  0
 53 64  2  0
 54 52  1  0
 54 59  1  0
 55 63  1  0
 55 65  1  0
 56 62  1  0
 56 58  1  0
 57 63  1  0
 58 59  2  0
 58 57  1  0
 60 54  2  0
 61 60  1  0
 61 56  2  0
 62 55  1  0
 63 53  1  0
 65 67  2  0
 66 65  1  0
 68 66  1  0
 69 78  2  0
 69 74  1  0
 70 66  1  0
 70 74  1  0
 71 70  1  0
 72 73  1  0
 72 71  1  0
 73 69  1  0
 74 75  2  0
 75 76  1  0
 77 76  2  0
 78 77  1  0
 79 53  1  0
 79 80  1  0
 79 89  1  0
 80 83  1  0
 81 85  1  0
 81 80  1  0
 82 81  2  0
 85 84  1  0
 87 85  1  0
 87 88  1  0
 87 86  1  0
 89 92  1  1
 89 90  1  0
 91 89  1  0
M  ISO  4  12 100  20 100  51 101  52 101
M  END
>  <TORSDO>  (26) 
F 18

>  <SCORE>  (26) 
-11.809

>  <name>  (26) 
27

>  <ligand_id>  (26) 
27

>  <original_smiles>  (26) 
[H]c1nc2c(c([H])c1C([H])([H])C([H])([H])Oc1c([H])c([H])c3c(c1[H])C([H])([H])N(C(=O)C([H])(N([H])C(=O)C([H])(N([H])C([H])([H])[H])C([H])([H])[H])C(C([H])([H])[H])(C([H])([H])[H])C([H])([H])[H])C([H])(C(=O)N([H])C1([H])c4c([H])c([H])c([H])c([H])c4C([H])([H])C([H])([H])C1([H])[H])C3([H])[H])C([H])([H])C([H])(N([H])C(=O)N1C([H])([H])C([H])([H])C([H])([H])C([H])(n3nc(-c4c([H])c([H])c(Oc5c([H])c([H])c(F)c([H])c5F)c([H])c4[H])c(C(=O)N([H])[H])c3N([H])[H])C1([H])[H])C2(C([H])([H])[H])C([H])([H])[H]

>  <smiles>  (26) 
[H]c1nc2c(c([H])c1C([H])([H])C([H])([H])Oc1c([H])c([H])c3c(c1[H])C([H])([H])N(C(=O)C([H])(N([H])C(=O)C([H])(N([H])C([H])([H])[H])C([H])([H])[H])C(C([H])([H])[H])(C([H])([H])[H])C([H])([H])[H])C([H])(C(=O)N([H])C1([H])c4c([H])c([H])c([H])c([H])c4C([H])([H])C([H])([H])C1([H])[H])C3([H])[H])C([H])([H])C([H])(N([H])C(=O)N1C([H])([H])C([H])([H])C([H])([H])C([H])(n3nc(-c4c([H])c([H])c(Oc5c([H])c([H])c(F)c([H])c5F)c([H])c4[H])c(C(=O)N([H])[H])c3N([H])[H])C1([H])[H])C2(C([H])([H])[H])C([H])([H])[H]

$$$$
28:0:0
     RDKit          3D

 98107  0  0  1  0  0  0  0  0999 V2000
  -32.1510  -22.8610   21.4940 C   0  0  0  0  0  3  0  0  0  0  0  0
  -32.3290  -21.8490   22.4630 C   0  0  0  0  0  3  0  0  0  0  0  0
  -30.0610  -21.0120   22.0550 C   0  0  0  0  0  3  0  0  0  0  0  0
  -30.9270  -22.9220   20.8060 C   0  0  0  0  0  0  0  0  0  0  0  0
  -29.9140  -21.9950   21.0580 C   0  0  0  0  0  0  0  0  0  0  0  0
  -31.2870  -20.9340   22.7510 C   0  0  0  0  0  0  0  0  0  0  0  0
  -30.4790  -24.0010   19.8460 C   0  0  0  0  0  2  0  0  0  0  0  0
  -28.6940  -22.2370   20.1850 C   0  0  0  0  0  3  0  0  0  0  0  0
  -28.9450  -23.8320   19.8920 C   0  0  0  0  0  3  0  0  0  0  0  0
  -31.4870  -19.8720   23.8150 C   0  0  0  0  0  1  0  0  0  0  0  0
  -28.6190  -21.1540   19.0900 N   0  0  0  0  0  4  0  0  0  0  0  0
  -28.5400  -21.6010   18.1940 H   0  0  0  0  0  0  0  0  0  0  0  0
  -27.7450  -20.6720   19.2310 H   0  0  0  0  0  0  0  0  0  0  0  0
  -29.6530  -20.0170   18.9690 C   0  0  0  0  0  2  0  0  0  0  0  0
  -29.1240  -18.5210   19.1280 C   0  0  0  0  0  0  0  0  0  0  0  0
  -27.9340  -18.3420   19.4020 O   0  0  0  0  0  0  0  0  0  0  0  0
  -30.3780  -17.1150   17.3820 C   0  0  0  0  0  1  0  0  0  0  0  0
  -30.1310  -17.2730   18.9010 C   0  0  0  0  0  3  0  0  0  0  0  0
  -30.5760  -14.7630   19.4540 C   0  0  0  0  0  0  0  0  0  0  0  0
  -30.3500  -12.4020   18.7160 C   0  0  0  0  0  2  0  0  0  0  0  0
  -29.3150  -12.3410   17.5720 C   0  0  0  0  0  2  0  0  0  0  0  0
  -27.8910  -12.1830   18.1400 C   0  0  0  0  0  2  0  0  0  0  0  0
  -27.5920  -13.1770   19.2940 C   0  0  0  0  0  3  0  0  0  0  0  0
  -28.7420  -13.2320   20.3230 C   0  0  0  0  0  2  0  0  0  0  0  0
  -29.9730  -13.5360   19.5850 N   0  0  0  0  0  0  0  0  0  0  0  0
  -31.7450  -14.8360   19.0700 O   0  0  0  0  0  0  0  0  0  0  0  0
  -29.7830  -15.8980   19.4750 N   0  0  0  0  0  0  0  0  0  0  0  0
  -28.8320  -15.7830   19.7950 H   0  0  0  0  0  0  0  0  0  0  0  0
  -25.3050  -13.7920   20.2810 C   0  0  0  0  0  0  0  0  0  0  0  0
  -24.2770  -13.0290   20.7600 C   0  0  0  0  0  0  0  0  0  0  0  0
  -24.7170  -11.6720   20.6720 C   0  0  0  0  0  0  0  0  0  0  0  0
  -26.3060  -12.9030   19.9270 N   0  0  0  0  0  0  0  0  0  0  0  0
  -25.9660  -11.6210   20.2250 N   0  0  0  0  0  0  0  0  0  0  0  0
  -24.0000  -10.4170   20.9310 C   0  0  0  0  0  0  0  0  0  0  0  0
  -24.4580   -9.4860   21.8890 C   0  0  0  0  0  3  0  0  0  0  0  0
  -23.7390   -8.2960   22.1330 C   0  0  0  0  0  3  0  0  0  0  0  0
  -22.5460   -8.0280   21.4200 C   0  0  0  0  0  0  0  0  0  0  0  0
  -22.1060   -8.9480   20.4510 C   0  0  0  0  0  3  0  0  0  0  0  0
  -22.8260  -10.1280   20.2050 C   0  0  0  0  0  3  0  0  0  0  0  0
  -21.7970   -6.8870   21.5710 O   0  0  0  0  0  0  0  0  0  0  0  0
  -21.7240   -6.2290   22.7730 C   0  0  0  0  0  0  0  0  0  0  0  0
  -21.2220   -6.8550   23.9360 C   0  0  0  0  0  3  0  0  0  0  0  0
  -21.1000   -6.1210   25.1330 C   0  0  0  0  0  3  0  0  0  0  0  0
  -21.4670   -4.7620   25.1680 C   0  0  0  0  0  0  0  0  0  0  0  0
  -21.9590   -4.1360   24.0090 C   0  0  0  0  0  3  0  0  0  0  0  0
  -22.0840   -4.8670   22.8150 C   0  0  0  0  0  0  0  0  0  0  0  0
  -22.5400   -4.2530   21.6960 F   0  0  0  0  0  0  0  0  0  0  0  0
  -21.3410   -4.0550   26.3140 F   0  0  0  0  0  0  0  0  0  0  0  0
  -22.9230  -13.5200   21.1830 C   0  0  0  0  0  0  0  0  0  0  0  0
  -22.2790  -12.8210   22.1100 N   0  0  0  0  0  0  0  0  0  0  0  0
  -22.4500  -14.5590   20.7240 O   0  0  0  0  0  0  0  0  0  0  0  0
  -22.6770  -11.9800   22.5010 H   0  0  0  0  0  0  0  0  0  0  0  0
  -21.3750  -13.1330   22.4360 H   0  0  0  0  0  0  0  0  0  0  0  0
  -25.4640  -15.1630   20.0950 N   0  0  0  0  0  0  0  0  0  0  0  0
  -24.7180  -15.8190   20.2950 H   0  0  0  0  0  0  0  0  0  0  0  0
  -26.2680  -15.6020   19.6670 H   0  0  0  0  0  0  0  0  0  0  0  0
  -28.0430  -24.9320   19.1490 C   0  0  0  0  0  2  0  0  0  0  0  0
  -28.1850  -26.3650   19.5850 O   0  0  0  0  0  0  0  0  0  0  0  0
  -24.5300  -31.5890   23.0360 C   0  0  0  0  0  0  0  0  0  0  0  0
  -27.0610  -27.2220   19.6150 C   0  0  0  0  0  0  0  0  0  0  0  0
  -23.2770  -30.2670   21.3710 C   0  0  0  0  0  3  0  0  0  0  0  0
  -24.6850  -28.8220   19.7930 C   0  0  0  0  0  0  0  0  0  0  0  0
  -25.8060  -30.6250   21.1040 C   0  0  0  0  0  2  0  0  0  0  0  0
  -25.8740  -29.2860   20.3700 C   0  0  0  0  0  0  0  0  0  0  0  0
  -27.0630  -28.4980   20.2710 C   0  0  0  0  0  3  0  0  0  0  0  0
  -25.8490  -26.8260   19.0080 C   0  0  0  0  0  3  0  0  0  0  0  0
  -24.6760  -27.6000   19.1010 C   0  0  0  0  0  3  0  0  0  0  0  0
  -23.4420  -29.6780   19.9460 C   0  0  0  0  0  2  0  0  0  0  0  0
  -24.5590  -30.8430   21.8930 N   0  0  0  0  0  0  0  0  0  0  0  0
  -23.4660  -31.8230   23.6280 O   0  0  0  0  0  0  0  0  0  0  0  0
  -22.6670  -29.1890   22.2980 C   0  0  0  0  0  0  0  0  0  0  0  0
  -21.3410  -28.9940   22.2090 N   0  0  0  0  0  0  0  0  0  0  0  0
  -23.3850  -28.5330   23.0580 O   0  0  0  0  0  0  0  0  0  0  0  0
  -20.8190  -29.5780   21.5700 H   0  0  0  0  0  0  0  0  0  0  0  0
  -17.9990  -27.7250   22.7790 C   0  0  0  0  0  0  0  0  0  0  0  0
  -20.5640  -28.0020   22.9540 C   0  0  0  0  0  3  0  0  0  0  0  0
  -20.6550  -26.6100   22.2890 C   0  0  0  0  0  2  0  0  0  0  0  0
  -19.5140  -26.3340   21.3040 C   0  0  0  0  0  2  0  0  0  0  0  0
  -18.1610  -26.4210   22.0160 C   0  0  0  0  0  2  0  0  0  0  0  0
  -19.1270  -28.4760   23.2060 C   0  0  0  0  0  0  0  0  0  0  0  0
  -18.9210  -29.6970   23.8810 C   0  0  0  0  0  3  0  0  0  0  0  0
  -17.6200  -30.1690   24.1350 C   0  0  0  0  0  3  0  0  0  0  0  0
  -16.5070  -29.4170   23.7240 C   0  0  0  0  0  3  0  0  0  0  0  0
  -16.6970  -28.1950   23.0530 C   0  0  0  0  0  3  0  0  0  0  0  0
  -25.8310  -32.2030   23.6420 C   0  0  0  0  0  3  0  0  0  0  0  0
  -25.5510  -33.6120   23.9540 N   0  0  0  0  0  0  0  0  0  0  0  0
  -25.8720  -34.6450   23.1630 C   0  0  0  0  0  0  0  0  0  0  0  0
  -26.5020  -34.5100   22.1110 O   0  0  0  0  0  0  0  0  0  0  0  0
  -24.9870  -33.7910   24.7720 H   0  0  0  0  0  0  0  0  0  0  0  0
  -24.1450  -36.4470   22.8570 C   0  0  0  0  0  1  0  0  0  0  0  0
  -25.4240  -36.0490   23.6110 C   0  0  0  0  0  3  0  0  0  0  0  0
  -27.6000  -36.9410   24.3160 C   0  0  0  0  0  1  0  0  0  0  0  0
  -26.4590  -37.0880   23.4160 N   0  0  0  0  0  0  0  0  0  0  0  0
  -26.0660  -38.0160   23.5500 H   0  0  0  0  0  0  0  0  0  0  0  0
  -26.3380  -31.4410   24.9280 C   0  0  1  0  0  0  0  0  0  0  0  0
  -25.2430  -31.2390   26.0030 C   0  0  0  0  0  1  0  0  0  0  0  0
  -26.8960  -30.0480   24.5560 C   0  0  0  0  0  1  0  0  0  0  0  0
  -27.5060  -32.2250   25.5720 C   0  0  0  0  0  1  0  0  0  0  0  0
  1  2  1  0
  2  6  2  0
  3  6  1  0
  4  5  1  0
  4  1  2  0
  5  3  2  0
  6 10  1  0
  7  9  1  0
  7  4  1  0
  8 11  1  0
  8  5  1  0
  9 57  1  0
  9  8  1  0
 11 13  1  0
 12 11  1  0
 14 11  1  0
 14 15  1  0
 15 16  2  0
 18 17  1  0
 18 15  1  0
 18 27  1  0
 19 27  1  0
 19 25  1  0
 20 25  1  0
 21 22  1  0
 21 20  1  0
 23 22  1  0
 23 32  1  0
 23 24  1  0
 25 24  1  0
 26 19  2  0
 27 28  1  0
 29 30  2  0
 30 49  1  0
 31 30  1  0
 31 34  1  0
 32 33  1  0
 32 29  1  0
 33 31  2  0
 34 35  1  0
 35 36  2  0
 37 40  1  0
 37 36  1  0
 38 37  2  0
 39 38  1  0
 39 34  2  0
 40 41  1  0
 41 46  2  0
 41 42  1  0
 42 43  2  0
 43 44  1  0
 44 48  1  0
 45 44  2  0
 46 45  1  0
 47 46  1  0
 49 50  1  0
 50 53  1  0
 50 52  1  0
 51 49  2  0
 54 29  1  0
 54 55  1  0
 56 54  1  0
 57 58  1  0
 58 60  1  0
 59 70  2  0
 60 65  1  0
 61 69  1  0
 61 71  1  0
 62 68  1  0
 62 64  1  0
 63 69  1  0
 64 63  1  0
 65 64  2  0
 66 67  1  0
 66 60  2  0
 67 62  2  0
 68 61  1  0
 69 59  1  0
 71 73  2  0
 72 71  1  0
 74 72  1  0
 75 84  2  0
 75 80  1  0
 76 72  1  0
 76 80  1  0
 77 76  1  0
 78 79  1  0
 78 77  1  0
 79 75  1  0
 80 81  2  0
 81 82  1  0
 83 82  2  0
 84 83  1  0
 85 59  1  0
 85 86  1  0
 85 95  1  0
 86 89  1  0
 87 91  1  0
 87 86  1  0
 88 87  2  0
 91 90  1  0
 93 94  1  0
 93 91  1  0
 93 92  1  0
 95 98  1  1
 95 96  1  0
 97 95  1  0
M  ISO  4  19 100  27 100  57 101  58 101
M  END
>  <TORSDO>  (27) 
F 21

>  <SCORE>  (27) 
-10.927

>  <name>  (27) 
28

>  <ligand_id>  (27) 
28

>  <original_smiles>  (27) 
[H]c1c([H])c([H])c2c(c1[H])C([H])([H])C([H])([H])C([H])([H])C2([H])N([H])C(=O)C1([H])N(C(=O)C([H])(N([H])C(=O)C([H])(N([H])C([H])([H])[H])C([H])([H])[H])C(C([H])([H])[H])(C([H])([H])[H])C([H])([H])[H])C([H])([H])c2c([H])c(OC([H])([H])C3([H])C([H])([H])c4c([H])c([H])c(C([H])([H])[H])c([H])c4C3([H])[N+]([H])([H])C([H])([H])C(=O)C([H])(N([H])C(=O)N3C([H])([H])C([H])([H])C([H])([H])C([H])(n4nc(-c5c([H])c([H])c(Oc6c([H])c([H])c(F)c([H])c6F)c([H])c5[H])c(C(=O)N([H])[H])c4N([H])[H])C3([H])[H])C([H])([H])[H])c([H])c([H])c2C1([H])[H]

>  <smiles>  (27) 
[H]c1c([H])c([H])c2c(c1[H])C([H])([H])C([H])([H])C([H])([H])C2([H])N([H])C(=O)C1([H])N(C(=O)C([H])(N([H])C(=O)C([H])(N([H])C([H])([H])[H])C([H])([H])[H])C(C([H])([H])[H])(C([H])([H])[H])C([H])([H])[H])C([H])([H])c2c([H])c(OC([H])([H])C3([H])C([H])([H])c4c([H])c([H])c(C([H])([H])[H])c([H])c4C3([H])[N+]([H])([H])C([H])([H])C(=O)C([H])(N([H])C(=O)N3C([H])([H])C([H])([H])C([H])([H])C([H])(n4nc(-c5c([H])c([H])c(Oc6c([H])c([H])c(F)c([H])c6F)c([H])c5[H])c(C(=O)N([H])[H])c4N([H])[H])C3([H])[H])C([H])([H])[H])c([H])c([H])c2C1([H])[H]

$$$$
29:0:0
     RDKit          3D

 94103  0  0  1  0  0  0  0  0999 V2000
  -28.2060  -21.9450   18.4280 C   0  0  0  0  0  0  0  0  0  0  0  0
  -28.8090  -21.8060   19.7280 C   0  0  0  0  0  0  0  0  0  0  0  0
  -28.8960  -20.3400   20.1880 C   0  0  0  0  0  0  0  0  0  0  0  0
  -27.3520  -20.9400   17.9320 C   0  0  0  0  0  0  0  0  0  0  0  0
  -27.9160  -19.4790   19.6090 C   0  0  0  0  0  0  0  0  0  0  0  0
  -26.5450  -21.0920   16.6490 C   0  0  0  0  0  1  0  0  0  0  0  0
  -27.5720  -18.0910   20.1370 C   0  0  0  0  0  1  0  0  0  0  0  0
  -27.1530  -19.7860   18.5580 N   0  0  0  0  0  0  0  0  0  0  0  0
  -29.2000  -22.8970   16.1960 C   0  0  0  0  0  2  0  0  0  0  0  0
  -29.8130  -23.7410   17.2780 C   0  0  0  0  0  2  0  0  0  0  0  0
  -28.4470  -23.1150   17.4950 C   0  0  0  0  0  3  0  0  0  0  0  0
  -29.2470  -23.2920   20.3460 C   0  0  0  0  0  2  0  0  0  0  0  0
  -28.2380  -24.6910   20.3100 C   0  0  0  0  0  2  0  0  0  0  0  0
  -28.5260  -26.2420   20.3640 O   0  0  0  0  0  0  0  0  0  0  0  0
  -24.7030  -31.8930   23.2730 C   0  0  0  0  0  0  0  0  0  0  0  0
  -27.4620  -27.2300   20.2830 C   0  0  0  0  0  0  0  0  0  0  0  0
  -23.5810  -30.4760   21.6020 C   0  0  0  0  0  3  0  0  0  0  0  0
  -25.1010  -28.9470   20.2040 C   0  0  0  0  0  0  0  0  0  0  0  0
  -26.1350  -30.7980   21.5040 C   0  0  0  0  0  2  0  0  0  0  0  0
  -26.2570  -29.4090   20.8440 C   0  0  0  0  0  0  0  0  0  0  0  0
  -27.4390  -28.5680   20.8650 C   0  0  0  0  0  3  0  0  0  0  0  0
  -26.2720  -26.8830   19.6030 C   0  0  0  0  0  3  0  0  0  0  0  0
  -25.1240  -27.7000   19.5660 C   0  0  0  0  0  3  0  0  0  0  0  0
  -23.8510  -29.8150   20.2260 C   0  0  0  0  0  2  0  0  0  0  0  0
  -24.8250  -31.0790   22.1810 N   0  0  0  0  0  0  0  0  0  0  0  0
  -23.5970  -32.1470   23.7740 O   0  0  0  0  0  0  0  0  0  0  0  0
  -22.9060  -29.4460   22.5440 C   0  0  0  0  0  0  0  0  0  0  0  0
  -21.5900  -29.2220   22.3690 N   0  0  0  0  0  0  0  0  0  0  0  0
  -23.5670  -28.8490   23.3970 O   0  0  0  0  0  0  0  0  0  0  0  0
  -21.1090  -29.7580   21.6610 H   0  0  0  0  0  0  0  0  0  0  0  0
  -18.2400  -27.8950   22.7500 C   0  0  0  0  0  0  0  0  0  0  0  0
  -20.7750  -28.2580   23.1140 C   0  0  0  0  0  3  0  0  0  0  0  0
  -20.9540  -26.8280   22.5520 C   0  0  0  0  0  2  0  0  0  0  0  0
  -19.9040  -26.4590   21.4990 C   0  0  0  0  0  2  0  0  0  0  0  0
  -18.4940  -26.5510   22.0880 C   0  0  0  0  0  2  0  0  0  0  0  0
  -19.3100  -28.7020   23.2170 C   0  0  0  0  0  0  0  0  0  0  0  0
  -19.0170  -29.9580   23.7940 C   0  0  0  0  0  3  0  0  0  0  0  0
  -17.6870  -30.4030   23.9120 C   0  0  0  0  0  3  0  0  0  0  0  0
  -16.6310  -29.5930   23.4610 C   0  0  0  0  0  3  0  0  0  0  0  0
  -16.9090  -28.3410   22.8840 C   0  0  0  0  0  3  0  0  0  0  0  0
  -25.9460  -32.5610   23.9360 C   0  0  0  0  0  3  0  0  0  0  0  0
  -25.5960  -33.9570   24.2420 N   0  0  0  0  0  0  0  0  0  0  0  0
  -25.9530  -35.0150   23.5010 C   0  0  0  0  0  0  0  0  0  0  0  0
  -26.6770  -34.9190   22.5070 O   0  0  0  0  0  0  0  0  0  0  0  0
  -24.9600  -34.1040   25.0110 H   0  0  0  0  0  0  0  0  0  0  0  0
  -24.2360  -36.7980   23.0440 C   0  0  0  0  0  1  0  0  0  0  0  0
  -25.4260  -36.3980   23.9310 C   0  0  0  0  0  3  0  0  0  0  0  0
  -27.4890  -37.3070   24.9050 C   0  0  0  0  0  1  0  0  0  0  0  0
  -26.4520  -37.4630   23.8870 N   0  0  0  0  0  0  0  0  0  0  0  0
  -26.0270  -38.3780   24.0040 H   0  0  0  0  0  0  0  0  0  0  0  0
  -26.4230  -31.8180   25.2440 C   0  0  1  0  0  0  0  0  0  0  0  0
  -25.2930  -31.5770   26.2720 C   0  0  0  0  0  1  0  0  0  0  0  0
  -27.0470  -30.4460   24.9020 C   0  0  0  0  0  1  0  0  0  0  0  0
  -27.5310  -32.6450   25.9390 C   0  0  0  0  0  1  0  0  0  0  0  0
  -29.8500  -19.4580   21.2020 C   0  0  0  0  0  2  0  0  0  0  0  0
  -30.6300  -17.9830   20.7830 C   0  0  0  0  0  2  0  0  0  0  0  0
  -30.9960  -15.2530   20.9770 C   0  0  0  0  0  0  0  0  0  0  0  0
  -30.9440  -12.9010   20.0160 C   0  0  0  0  0  2  0  0  0  0  0  0
  -30.1180  -12.8590   18.7080 C   0  0  0  0  0  2  0  0  0  0  0  0
  -28.6270  -12.6370   19.0170 C   0  0  0  0  0  2  0  0  0  0  0  0
  -28.1220  -13.5560   20.1600 C   0  0  0  0  0  3  0  0  0  0  0  0
  -29.0790  -13.5750   21.3710 C   0  0  0  0  0  2  0  0  0  0  0  0
  -30.3940  -13.9940   20.8740 N   0  0  0  0  0  0  0  0  0  0  0  0
  -32.2150  -15.2950   20.7770 O   0  0  0  0  0  0  0  0  0  0  0  0
  -30.2410  -16.4640   21.0840 N   0  0  0  0  0  0  0  0  0  0  0  0
  -29.2600  -16.3090   21.2660 H   0  0  0  0  0  0  0  0  0  0  0  0
  -25.6840  -14.1180   20.6900 C   0  0  0  0  0  0  0  0  0  0  0  0
  -24.5980  -13.3380   20.9740 C   0  0  0  0  0  0  0  0  0  0  0  0
  -25.0740  -11.9920   20.9980 C   0  0  0  0  0  0  0  0  0  0  0  0
  -26.7500  -13.2470   20.5460 N   0  0  0  0  0  0  0  0  0  0  0  0
  -26.3880  -11.9630   20.8000 N   0  0  0  0  0  0  0  0  0  0  0  0
  -24.3440  -10.7250   21.1390 C   0  0  0  0  0  0  0  0  0  0  0  0
  -24.6920   -9.7770   22.1260 C   0  0  0  0  0  3  0  0  0  0  0  0
  -23.9620   -8.5740   22.2540 C   0  0  0  0  0  3  0  0  0  0  0  0
  -22.8700   -8.3120   21.3940 C   0  0  0  0  0  0  0  0  0  0  0  0
  -22.5410   -9.2500   20.4000 C   0  0  0  0  0  3  0  0  0  0  0  0
  -23.2710  -10.4430   20.2700 C   0  0  0  0  0  3  0  0  0  0  0  0
  -22.1180   -7.1620   21.4300 O   0  0  0  0  0  0  0  0  0  0  0  0
  -21.9380   -6.4570   22.5920 C   0  0  0  0  0  0  0  0  0  0  0  0
  -21.3180   -7.0300   23.7240 C   0  0  0  0  0  3  0  0  0  0  0  0
  -21.0880   -6.2470   24.8730 C   0  0  0  0  0  3  0  0  0  0  0  0
  -21.4690   -4.8920   24.8900 C   0  0  0  0  0  0  0  0  0  0  0  0
  -22.0810   -4.3180   23.7610 C   0  0  0  0  0  3  0  0  0  0  0  0
  -22.3120   -5.0980   22.6160 C   0  0  0  0  0  0  0  0  0  0  0  0
  -22.8840   -4.5350   21.5230 F   0  0  0  0  0  0  0  0  0  0  0  0
  -21.2420   -4.1370   25.9900 F   0  0  0  0  0  0  0  0  0  0  0  0
  -23.1790  -13.8070   21.1130 C   0  0  0  0  0  0  0  0  0  0  0  0
  -22.3850  -13.1210   21.9260 N   0  0  0  0  0  0  0  0  0  0  0  0
  -22.7820  -14.8170   20.5360 O   0  0  0  0  0  0  0  0  0  0  0  0
  -22.7190  -12.3060   22.4190 H   0  0  0  0  0  0  0  0  0  0  0  0
  -21.4270  -13.4140   22.0590 H   0  0  0  0  0  0  0  0  0  0  0  0
  -25.8500  -15.4870   20.5140 N   0  0  0  0  0  0  0  0  0  0  0  0
  -25.0660  -16.1280   20.5510 H   0  0  0  0  0  0  0  0  0  0  0  0
  -26.7130  -15.9260   20.2250 H   0  0  0  0  0  0  0  0  0  0  0  0
  1  2  1  0
  2  3  2  0
  2 12  1  0
  3 55  1  0
  4  1  2  0
  4  8  1  0
  5  7  1  0
  5  3  1  0
  6  4  1  0
  8  5  2  0
  9 10  1  0
  9 11  1  0
 10 11  1  0
 11  1  1  0
 13 12  1  0
 13 14  1  0
 15 26  2  0
 16 14  1  0
 16 21  1  0
 17 25  1  0
 17 27  1  0
 18 24  1  0
 18 20  1  0
 19 25  1  0
 20 21  2  0
 20 19  1  0
 22 16  2  0
 23 22  1  0
 23 18  2  0
 24 17  1  0
 25 15  1  0
 27 29  2  0
 28 27  1  0
 30 28  1  0
 31 40  2  0
 31 36  1  0
 32 28  1  0
 32 36  1  0
 33 32  1  0
 34 35  1  0
 34 33  1  0
 35 31  1  0
 36 37  2  0
 37 38  1  0
 39 38  2  0
 40 39  1  0
 41 15  1  0
 41 42  1  0
 41 51  1  0
 42 45  1  0
 43 47  1  0
 43 42  1  0
 44 43  2  0
 47 46  1  0
 49 47  1  0
 49 50  1  0
 49 48  1  0
 51 54  1  1
 51 52  1  0
 53 51  1  0
 56 65  1  0
 56 55  1  0
 57 65  1  0
 58 63  1  0
 59 60  1  0
 59 58  1  0
 61 60  1  0
 61 70  1  0
 61 62  1  0
 63 57  1  0
 63 62  1  0
 64 57  2  0
 65 66  1  0
 67 68  2  0
 68 69  1  0
 68 87  1  0
 69 72  1  0
 70 67  1  0
 70 71  1  0
 71 69  2  0
 72 73  1  0
 73 74  2  0
 75 78  1  0
 75 74  1  0
 76 75  2  0
 77 76  1  0
 77 72  2  0
 78 79  1  0
 79 84  2  0
 79 80  1  0
 80 81  2  0
 81 82  1  0
 82 86  1  0
 83 82  2  0
 84 83  1  0
 85 84  1  0
 87 88  1  0
 88 91  1  0
 88 90  1  0
 89 87  2  0
 92 93  1  0
 92 67  1  0
 94 92  1  0
M  ISO  4  13 101  14 101  57 100  65 100
M  END
>  <TORSDO>  (28) 
F 21

>  <SCORE>  (28) 
-13.447

>  <name>  (28) 
29

>  <ligand_id>  (28) 
29

>  <original_smiles>  (28) 
[H]c1c([H])c([H])c2c(c1[H])C([H])([H])C([H])([H])C([H])([H])C2([H])N([H])C(=O)C1([H])N(C(=O)C([H])(N([H])C(=O)C([H])(N([H])C([H])([H])[H])C([H])([H])[H])C(C([H])([H])[H])(C([H])([H])[H])C([H])([H])[H])C([H])([H])c2c([H])c(OC([H])([H])C([H])([H])c3c(C([H])([H])C([H])([H])N([H])C(=O)N4C([H])([H])C([H])([H])C([H])([H])C([H])(n5nc(-c6c([H])c([H])c(Oc7c([H])c([H])c(F)c([H])c7F)c([H])c6[H])c(C(=O)N([H])[H])c5N([H])[H])C4([H])[H])c(C([H])([H])[H])nc(C([H])([H])[H])c3C3([H])C([H])([H])C3([H])[H])c([H])c([H])c2C1([H])[H]

>  <smiles>  (28) 
[H]c1c([H])c([H])c2c(c1[H])C([H])([H])C([H])([H])C([H])([H])C2([H])N([H])C(=O)C1([H])N(C(=O)C([H])(N([H])C(=O)C([H])(N([H])C([H])([H])[H])C([H])([H])[H])C(C([H])([H])[H])(C([H])([H])[H])C([H])([H])[H])C([H])([H])c2c([H])c(OC([H])([H])C([H])([H])c3c(C([H])([H])C([H])([H])N([H])C(=O)N4C([H])([H])C([H])([H])C([H])([H])C([H])(n5nc(-c6c([H])c([H])c(Oc7c([H])c([H])c(F)c([H])c7F)c([H])c6[H])c(C(=O)N([H])[H])c5N([H])[H])C4([H])[H])c(C([H])([H])[H])nc(C([H])([H])[H])c3C3([H])C([H])([H])C3([H])[H])c([H])c([H])c2C1([H])[H]

$$$$
30:0:0
     RDKit          3D

 90 99  0  0  1  0  0  0  0  0999 V2000
  -29.8600  -21.2870   18.9330 C   0  0  0  0  0  3  0  0  0  0  0  0
  -29.0200  -22.7750   21.0880 C   0  0  0  0  0  3  0  0  0  0  0  0
  -29.8170  -20.5160   20.1500 C   0  0  0  0  0  0  0  0  0  0  0  0
  -29.4910  -22.6960   18.7880 C   0  0  0  0  0  0  0  0  0  0  0  0
  -29.3950  -21.3680   21.2340 C   0  0  0  0  0  0  0  0  0  0  0  0
  -29.0310  -23.5400   19.8680 C   0  0  0  0  0  0  0  0  0  0  0  0
  -29.5480  -23.2960   17.3940 C   0  0  0  0  0  1  0  0  0  0  0  0
  -29.3260  -20.7610   22.6220 C   0  0  0  0  0  1  0  0  0  0  0  0
  -31.2140  -15.4420   20.2020 C   0  0  0  0  0  0  0  0  0  0  0  0
  -31.0830  -13.0620   19.3320 C   0  0  0  0  0  2  0  0  0  0  0  0
  -30.1550  -12.9450   18.1040 C   0  0  0  0  0  2  0  0  0  0  0  0
  -28.7010  -12.7160   18.5540 C   0  0  0  0  0  2  0  0  0  0  0  0
  -28.2750  -13.6780   19.6950 C   0  0  0  0  0  3  0  0  0  0  0  0
  -29.3340  -13.7850   20.8120 C   0  0  0  0  0  2  0  0  0  0  0  0
  -30.5860  -14.1970   20.1670 N   0  0  0  0  0  0  0  0  0  0  0  0
  -32.4210  -15.4410   19.9380 O   0  0  0  0  0  0  0  0  0  0  0  0
  -29.6170  -17.5910   20.8590 C   0  0  0  0  0  2  0  0  0  0  0  0
  -30.8830  -17.9100   19.2340 C   0  0  0  0  0  2  0  0  0  0  0  0
  -30.3090  -18.9220   20.3040 C   0  0  0  0  0  3  0  0  0  0  0  0
  -30.5060  -16.6780   20.0370 N   0  0  0  0  0  0  0  0  0  0  0  0
  -25.9200  -14.2280   20.5230 C   0  0  0  0  0  0  0  0  0  0  0  0
  -24.8590  -13.4410   20.8740 C   0  0  0  0  0  0  0  0  0  0  0  0
  -25.3130  -12.0910   20.7640 C   0  0  0  0  0  0  0  0  0  0  0  0
  -26.9510  -13.3580   20.2140 N   0  0  0  0  0  0  0  0  0  0  0  0
  -26.5970  -12.0630   20.4260 N   0  0  0  0  0  0  0  0  0  0  0  0
  -24.5810  -10.8240   20.9040 C   0  0  0  0  0  0  0  0  0  0  0  0
  -24.9560   -9.8530   21.8580 C   0  0  0  0  0  3  0  0  0  0  0  0
  -24.2210   -8.6540   21.9870 C   0  0  0  0  0  3  0  0  0  0  0  0
  -23.0980   -8.4180   21.1610 C   0  0  0  0  0  0  0  0  0  0  0  0
  -22.7420   -9.3780   20.1970 C   0  0  0  0  0  3  0  0  0  0  0  0
  -23.4760  -10.5680   20.0660 C   0  0  0  0  0  3  0  0  0  0  0  0
  -22.3410   -7.2720   21.1970 O   0  0  0  0  0  0  0  0  0  0  0  0
  -22.1050   -6.6020   22.3710 C   0  0  0  0  0  0  0  0  0  0  0  0
  -21.4350   -7.2120   23.4550 C   0  0  0  0  0  3  0  0  0  0  0  0
  -21.1520   -6.4660   24.6170 C   0  0  0  0  0  3  0  0  0  0  0  0
  -21.5270   -5.1120   24.6930 C   0  0  0  0  0  0  0  0  0  0  0  0
  -22.1890   -4.5010   23.6130 C   0  0  0  0  0  3  0  0  0  0  0  0
  -22.4730   -5.2450   22.4540 C   0  0  0  0  0  0  0  0  0  0  0  0
  -23.0910   -4.6460   21.4080 F   0  0  0  0  0  0  0  0  0  0  0  0
  -21.2480   -4.3920   25.8050 F   0  0  0  0  0  0  0  0  0  0  0  0
  -23.4710  -13.9130   21.1940 C   0  0  0  0  0  0  0  0  0  0  0  0
  -22.7580  -13.1860   22.0460 N   0  0  0  0  0  0  0  0  0  0  0  0
  -23.0290  -14.9620   20.7260 O   0  0  0  0  0  0  0  0  0  0  0  0
  -23.1300  -12.3360   22.4460 H   0  0  0  0  0  0  0  0  0  0  0  0
  -21.8270  -13.4830   22.3050 H   0  0  0  0  0  0  0  0  0  0  0  0
  -26.0910  -15.6040   20.4120 N   0  0  0  0  0  0  0  0  0  0  0  0
  -25.3330  -16.2580   20.5710 H   0  0  0  0  0  0  0  0  0  0  0  0
  -26.9380  -16.0490   20.0800 H   0  0  0  0  0  0  0  0  0  0  0  0
  -28.2280  -24.9940   19.6970 C   0  0  0  0  0  2  0  0  0  0  0  0
  -28.6280  -26.4900   19.9350 O   0  0  0  0  0  0  0  0  0  0  0  0
  -24.8490  -31.8500   23.3800 C   0  0  0  0  0  0  0  0  0  0  0  0
  -27.5850  -27.5050   19.9350 C   0  0  0  0  0  0  0  0  0  0  0  0
  -23.7130  -30.5980   21.5900 C   0  0  0  0  0  3  0  0  0  0  0  0
  -25.2240  -29.2180   20.0380 C   0  0  0  0  0  0  0  0  0  0  0  0
  -26.2660  -30.9310   21.5040 C   0  0  0  0  0  2  0  0  0  0  0  0
  -26.3850  -29.6160   20.7120 C   0  0  0  0  0  0  0  0  0  0  0  0
  -27.5670  -28.7780   20.6470 C   0  0  0  0  0  3  0  0  0  0  0  0
  -26.3940  -27.2360   19.2210 C   0  0  0  0  0  3  0  0  0  0  0  0
  -25.2430  -28.0450   19.2780 C   0  0  0  0  0  3  0  0  0  0  0  0
  -23.9730  -30.0760   20.1540 C   0  0  0  0  0  2  0  0  0  0  0  0
  -24.9620  -31.1430   22.2150 N   0  0  0  0  0  0  0  0  0  0  0  0
  -23.7470  -32.0550   23.9120 O   0  0  0  0  0  0  0  0  0  0  0  0
  -23.0470  -29.4800   22.4330 C   0  0  0  0  0  0  0  0  0  0  0  0
  -21.7300  -29.2730   22.2490 N   0  0  0  0  0  0  0  0  0  0  0  0
  -23.7170  -28.8060   23.2190 O   0  0  0  0  0  0  0  0  0  0  0  0
  -21.2440  -29.8700   21.5950 H   0  0  0  0  0  0  0  0  0  0  0  0
  -18.3830  -27.9150   22.5390 C   0  0  0  0  0  0  0  0  0  0  0  0
  -20.9220  -28.2410   22.9050 C   0  0  0  0  0  3  0  0  0  0  0  0
  -21.0940  -26.8720   22.2060 C   0  0  0  0  0  2  0  0  0  0  0  0
  -20.0310  -26.6050   21.1350 C   0  0  0  0  0  2  0  0  0  0  0  0
  -18.6280  -26.6420   21.7470 C   0  0  0  0  0  2  0  0  0  0  0  0
  -19.4610  -28.6740   23.0700 C   0  0  0  0  0  0  0  0  0  0  0  0
  -19.1760  -29.8650   23.7710 C   0  0  0  0  0  3  0  0  0  0  0  0
  -17.8490  -30.3000   23.9470 C   0  0  0  0  0  3  0  0  0  0  0  0
  -16.7860  -29.5370   23.4330 C   0  0  0  0  0  3  0  0  0  0  0  0
  -17.0540  -28.3460   22.7350 C   0  0  0  0  0  3  0  0  0  0  0  0
  -26.0990  -32.4530   24.0890 C   0  0  0  0  0  3  0  0  0  0  0  0
  -25.7720  -33.8350   24.4770 N   0  0  0  0  0  0  0  0  0  0  0  0
  -26.0870  -34.9250   23.7660 C   0  0  0  0  0  0  0  0  0  0  0  0
  -26.7520  -34.8740   22.7280 O   0  0  0  0  0  0  0  0  0  0  0  0
  -25.1820  -33.9470   25.2890 H   0  0  0  0  0  0  0  0  0  0  0  0
  -24.3210  -36.7010   23.5210 C   0  0  0  0  0  1  0  0  0  0  0  0
  -25.5880  -36.2860   24.2880 C   0  0  0  0  0  3  0  0  0  0  0  0
  -27.7190  -37.1840   25.1140 C   0  0  0  0  0  1  0  0  0  0  0  0
  -26.5990  -37.3630   24.1950 N   0  0  0  0  0  0  0  0  0  0  0  0
  -26.1770  -38.2680   24.3840 H   0  0  0  0  0  0  0  0  0  0  0  0
  -26.5550  -31.6230   25.3510 C   0  0  1  0  0  0  0  0  0  0  0  0
  -25.4120  -31.3360   26.3530 C   0  0  0  0  0  1  0  0  0  0  0  0
  -27.1610  -30.2650   24.9290 C   0  0  0  0  0  1  0  0  0  0  0  0
  -27.6730  -32.3850   26.1020 C   0  0  0  0  0  1  0  0  0  0  0  0
  1  3  1  0
  2  5  1  0
  3  5  2  0
  4  1  2  0
  4  6  1  0
  5  8  1  0
  6  2  2  0
  7  4  1  0
 10 15  1  0
 11 12  1  0
 11 10  1  0
 13 12  1  0
 13 24  1  0
 13 14  1  0
 15  9  1  0
 15 14  1  0
 16  9  2  0
 18 20  1  0
 18 19  1  0
 19  3  1  0
 19 17  1  0
 20  9  1  0
 20 17  1  0
 21 22  2  0
 22 41  1  0
 23 22  1  0
 23 26  1  0
 24 25  1  0
 24 21  1  0
 25 23  2  0
 26 27  1  0
 27 28  2  0
 29 32  1  0
 29 28  1  0
 30 29  2  0
 31 30  1  0
 31 26  2  0
 32 33  1  0
 33 38  2  0
 33 34  1  0
 34 35  2  0
 35 36  1  0
 36 40  1  0
 37 36  2  0
 38 37  1  0
 39 38  1  0
 41 42  1  0
 42 45  1  0
 42 44  1  0
 43 41  2  0
 46 21  1  0
 46 47  1  0
 48 46  1  0
 49  6  1  0
 49 50  1  0
 50 52  1  0
 51 62  2  0
 52 57  1  0
 53 61  1  0
 53 63  1  0
 54 60  1  0
 54 56  1  0
 55 61  1  0
 56 55  1  0
 57 56  2  0
 58 59  1  0
 58 52  2  0
 59 54  2  0
 60 53  1  0
 61 51  1  0
 63 65  2  0
 64 63  1  0
 66 64  1  0
 67 76  2  0
 67 72  1  0
 68 64  1  0
 68 72  1  0
 69 68  1  0
 70 71  1  0
 70 69  1  0
 71 67  1  0
 72 73  2  0
 73 74  1  0
 75 74  2  0
 76 75  1  0
 77 51  1  0
 77 78  1  0
 77 87  1  0
 78 81  1  0
 79 83  1  0
 79 78  1  0
 80 79  2  0
 83 82  1  0
 85 83  1  0
 85 86  1  0
 85 84  1  0
 87 90  1  1
 87 88  1  0
 89 87  1  0
M  ISO  4   9 100  20 100  49 101  50 101
M  END
>  <TORSDO>  (29) 
F 17

>  <SCORE>  (29) 
-12.944

>  <name>  (29) 
30

>  <ligand_id>  (29) 
30

>  <original_smiles>  (29) 
[H]c1c([H])c([H])c2c(c1[H])C([H])([H])C([H])([H])C([H])([H])C2([H])N([H])C(=O)C1([H])N(C(=O)C([H])(N([H])C(=O)C([H])(N([H])C([H])([H])[H])C([H])([H])[H])C(C([H])([H])[H])(C([H])([H])[H])C([H])([H])[H])C([H])([H])c2c([H])c(OC([H])([H])c3c([H])c(C([H])([H])[H])c(C4([H])C([H])([H])N(C(=O)N5C([H])([H])C([H])([H])C([H])([H])C([H])(n6nc(-c7c([H])c([H])c(Oc8c([H])c([H])c(F)c([H])c8F)c([H])c7[H])c(C(=O)N([H])[H])c6N([H])[H])C5([H])[H])C4([H])[H])c([H])c3C([H])([H])[H])c([H])c([H])c2C1([H])[H]

>  <smiles>  (29) 
[H]c1c([H])c([H])c2c(c1[H])C([H])([H])C([H])([H])C([H])([H])C2([H])N([H])C(=O)C1([H])N(C(=O)C([H])(N([H])C(=O)C([H])(N([H])C([H])([H])[H])C([H])([H])[H])C(C([H])([H])[H])(C([H])([H])[H])C([H])([H])[H])C([H])([H])c2c([H])c(OC([H])([H])c3c([H])c(C([H])([H])[H])c(C4([H])C([H])([H])N(C(=O)N5C([H])([H])C([H])([H])C([H])([H])C([H])(n6nc(-c7c([H])c([H])c(Oc8c([H])c([H])c(F)c([H])c8F)c([H])c7[H])c(C(=O)N([H])[H])c6N([H])[H])C5([H])[H])C4([H])[H])c([H])c3C([H])([H])[H])c([H])c([H])c2C1([H])[H]

$$$$
31:0:0
     RDKit          3D

 94103  0  0  1  0  0  0  0  0999 V2000
  -29.4810  -22.3020   21.2030 C   0  0  0  0  0  3  0  0  0  0  0  0
  -29.3000  -23.2890   18.6170 C   0  0  0  0  0  3  0  0  0  0  0  0
  -29.0760  -23.6540   20.9920 C   0  0  0  0  0  0  0  0  0  0  0  0
  -29.7220  -21.9510   18.8240 C   0  0  0  0  0  0  0  0  0  0  0  0
  -29.8550  -21.4320   20.1420 C   0  0  0  0  0  0  0  0  0  0  0  0
  -29.0150  -24.1840   19.6730 C   0  0  0  0  0  0  0  0  0  0  0  0
  -28.7630  -24.5150   22.2030 C   0  0  0  0  0  1  0  0  0  0  0  0
  -30.0710  -21.1350   17.5940 C   0  0  0  0  0  1  0  0  0  0  0  0
  -30.5940  -20.0910   20.4720 C   0  0  0  0  0  2  0  0  0  0  0  0
  -30.7330  -14.6330   20.1370 C   0  0  0  0  0  0  0  0  0  0  0  0
  -30.4240  -12.4530   19.0170 C   0  0  0  0  0  2  0  0  0  0  0  0
  -29.4250  -12.6520   17.8560 C   0  0  0  0  0  2  0  0  0  0  0  0
  -27.9720  -12.4990   18.3520 C   0  0  0  0  0  2  0  0  0  0  0  0
  -27.6850  -13.3150   19.6420 C   0  0  0  0  0  3  0  0  0  0  0  0
  -28.7970  -13.1130   20.6960 C   0  0  0  0  0  2  0  0  0  0  0  0
  -30.0800  -13.4370   20.0580 N   0  0  0  0  0  0  0  0  0  0  0  0
  -31.8910  -14.7690   19.7320 O   0  0  0  0  0  0  0  0  0  0  0  0
  -29.4800  -16.4250   21.3950 C   0  0  0  0  0  2  0  0  0  0  0  0
  -29.7520  -16.5840   18.9840 C   0  0  0  0  0  2  0  0  0  0  0  0
  -30.0440  -17.8810   21.5370 C   0  0  0  0  0  2  0  0  0  0  0  0
  -30.4060  -17.9790   19.1360 C   0  0  0  0  0  2  0  0  0  0  0  0
  -29.9170  -15.7290   20.1720 N   0  0  0  0  0  0  0  0  0  0  0  0
  -29.9130  -18.7470   20.3190 N   0  0  2  0  0  4  0  0  0  0  0  0
  -28.9300  -18.9350   20.1870 H   0  0  0  0  0  0  0  0  0  0  0  0
  -25.3310  -13.8980   20.4900 C   0  0  0  0  0  0  0  0  0  0  0  0
  -24.2810  -13.1150   20.8870 C   0  0  0  0  0  0  0  0  0  0  0  0
  -24.7380  -11.7640   20.7950 C   0  0  0  0  0  0  0  0  0  0  0  0
  -26.3610  -13.0240   20.1810 N   0  0  0  0  0  0  0  0  0  0  0  0
  -26.0130  -11.7350   20.4240 N   0  0  0  0  0  0  0  0  0  0  0  0
  -24.0200  -10.4980   20.9820 C   0  0  0  0  0  0  0  0  0  0  0  0
  -24.4620   -9.5270   21.9080 C   0  0  0  0  0  3  0  0  0  0  0  0
  -23.7440   -8.3250   22.0840 C   0  0  0  0  0  3  0  0  0  0  0  0
  -22.5700   -8.0840   21.3320 C   0  0  0  0  0  0  0  0  0  0  0  0
  -22.1470   -9.0420   20.3940 C   0  0  0  0  0  3  0  0  0  0  0  0
  -22.8660  -10.2360   20.2170 C   0  0  0  0  0  3  0  0  0  0  0  0
  -21.8220   -6.9350   21.4170 O   0  0  0  0  0  0  0  0  0  0  0  0
  -21.7320   -6.2190   22.5840 C   0  0  0  0  0  0  0  0  0  0  0  0
  -21.2200   -6.7870   23.7700 C   0  0  0  0  0  3  0  0  0  0  0  0
  -21.0820   -5.9970   24.9270 C   0  0  0  0  0  3  0  0  0  0  0  0
  -21.4450   -4.6370   24.9000 C   0  0  0  0  0  0  0  0  0  0  0  0
  -21.9500   -4.0660   23.7170 C   0  0  0  0  0  3  0  0  0  0  0  0
  -22.0900   -4.8560   22.5620 C   0  0  0  0  0  0  0  0  0  0  0  0
  -22.5570   -4.2960   21.4200 F   0  0  0  0  0  0  0  0  0  0  0  0
  -21.3050   -3.8750   26.0090 F   0  0  0  0  0  0  0  0  0  0  0  0
  -22.8980  -13.5840   21.2380 C   0  0  0  0  0  0  0  0  0  0  0  0
  -22.2090  -12.8600   22.1140 N   0  0  0  0  0  0  0  0  0  0  0  0
  -22.4410  -14.6260   20.7730 O   0  0  0  0  0  0  0  0  0  0  0  0
  -22.5960  -12.0160   22.5120 H   0  0  0  0  0  0  0  0  0  0  0  0
  -21.2840  -13.1550   22.3900 H   0  0  0  0  0  0  0  0  0  0  0  0
  -25.4900  -15.2730   20.3450 N   0  0  0  0  0  0  0  0  0  0  0  0
  -24.7280  -15.9240   20.5000 H   0  0  0  0  0  0  0  0  0  0  0  0
  -26.3210  -15.7150   19.9750 H   0  0  0  0  0  0  0  0  0  0  0  0
  -28.7280  -25.6610   19.2610 C   0  0  0  0  0  2  0  0  0  0  0  0
  -28.4460  -26.6760   20.2590 O   0  0  0  0  0  0  0  0  0  0  0  0
  -24.6250  -31.9370   23.2400 C   0  0  0  0  0  0  0  0  0  0  0  0
  -27.2760  -27.4280   20.2000 C   0  0  0  0  0  0  0  0  0  0  0  0
  -23.4230  -30.5140   21.6150 C   0  0  0  0  0  3  0  0  0  0  0  0
  -24.8800  -28.9650   20.2000 C   0  0  0  0  0  0  0  0  0  0  0  0
  -25.9530  -30.8670   21.4140 C   0  0  0  0  0  2  0  0  0  0  0  0
  -26.0410  -29.4870   20.7840 C   0  0  0  0  0  0  0  0  0  0  0  0
  -27.2380  -28.7240   20.7840 C   0  0  0  0  0  3  0  0  0  0  0  0
  -26.0840  -26.9270   19.6280 C   0  0  0  0  0  3  0  0  0  0  0  0
  -24.8990  -27.6870   19.6210 C   0  0  0  0  0  3  0  0  0  0  0  0
  -23.6350  -29.8240   20.2420 C   0  0  0  0  0  2  0  0  0  0  0  0
  -24.6860  -31.1220   22.1470 N   0  0  0  0  0  0  0  0  0  0  0  0
  -23.5440  -32.2100   23.7790 O   0  0  0  0  0  0  0  0  0  0  0  0
  -22.7750  -29.5000   22.5880 C   0  0  0  0  0  0  0  0  0  0  0  0
  -21.4550  -29.2940   22.4510 N   0  0  0  0  0  0  0  0  0  0  0  0
  -23.4600  -28.9000   23.4220 O   0  0  0  0  0  0  0  0  0  0  0  0
  -20.9620  -29.8310   21.7510 H   0  0  0  0  0  0  0  0  0  0  0  0
  -18.1020  -28.0250   22.9110 C   0  0  0  0  0  0  0  0  0  0  0  0
  -20.6460  -28.3560   23.2310 C   0  0  0  0  0  3  0  0  0  0  0  0
  -20.7960  -26.9120   22.6950 C   0  0  0  0  0  2  0  0  0  0  0  0
  -19.7250  -26.5350   21.6680 C   0  0  0  0  0  2  0  0  0  0  0  0
  -18.3270  -26.6630   22.2780 C   0  0  0  0  0  2  0  0  0  0  0  0
  -19.1920  -28.8280   23.3450 C   0  0  0  0  0  0  0  0  0  0  0  0
  -18.9280  -30.1000   23.8950 C   0  0  0  0  0  3  0  0  0  0  0  0
  -17.6080  -30.5730   24.0170 C   0  0  0  0  0  3  0  0  0  0  0  0
  -16.5330  -29.7690   23.6020 C   0  0  0  0  0  3  0  0  0  0  0  0
  -16.7810  -28.4970   23.0560 C   0  0  0  0  0  3  0  0  0  0  0  0
  -25.9090  -32.5820   23.8500 C   0  0  0  0  0  3  0  0  0  0  0  0
  -25.5920  -33.9780   24.1750 N   0  0  0  0  0  0  0  0  0  0  0  0
  -25.9140  -35.0300   23.4090 C   0  0  0  0  0  0  0  0  0  0  0  0
  -26.5810  -34.9250   22.3760 O   0  0  0  0  0  0  0  0  0  0  0  0
  -25.0000  -34.1330   24.9780 H   0  0  0  0  0  0  0  0  0  0  0  0
  -24.1820  -36.8140   23.0400 C   0  0  0  0  0  1  0  0  0  0  0  0
  -25.4190  -36.4160   23.8620 C   0  0  0  0  0  3  0  0  0  0  0  0
  -27.5410  -37.3120   24.7090 C   0  0  0  0  0  1  0  0  0  0  0  0
  -26.4480  -37.4730   23.7540 N   0  0  0  0  0  0  0  0  0  0  0  0
  -26.0370  -38.3930   23.8960 H   0  0  0  0  0  0  0  0  0  0  0  0
  -26.4400  -31.8210   25.1270 C   0  0  1  0  0  0  0  0  0  0  0  0
  -25.3530  -31.5730   26.1990 C   0  0  0  0  0  1  0  0  0  0  0  0
  -27.0370  -30.4490   24.7350 C   0  0  0  0  0  1  0  0  0  0  0  0
  -27.5860  -32.6290   25.7820 C   0  0  0  0  0  1  0  0  0  0  0  0
  2  4  2  0
  2  6  1  0
  3  1  1  0
  3  7  1  0
  4  5  1  0
  5  9  1  0
  5  1  2  0
  6  3  2  0
  8  4  1  0
 10 22  1  0
 11 16  1  0
 12 13  1  0
 12 11  1  0
 14 13  1  0
 14 28  1  0
 14 15  1  0
 16 10  1  0
 16 15  1  0
 17 10  2  0
 18 20  1  0
 19 21  1  0
 19 22  1  0
 21 23  1  0
 22 18  1  0
 23  9  1  0
 23 20  1  0
 23 24  1  6
 25 26  2  0
 26 45  1  0
 27 26  1  0
 27 30  1  0
 28 29  1  0
 28 25  1  0
 29 27  2  0
 30 31  1  0
 31 32  2  0
 33 36  1  0
 33 32  1  0
 34 33  2  0
 35 34  1  0
 35 30  2  0
 36 37  1  0
 37 38  1  0
 38 39  2  0
 40 39  1  0
 40 44  1  0
 41 40  2  0
 42 37  2  0
 42 41  1  0
 43 42  1  0
 45 46  1  0
 46 49  1  0
 46 48  1  0
 47 45  2  0
 50 25  1  0
 50 51  1  0
 52 50  1  0
 53  6  1  0
 53 54  1  0
 55 66  2  0
 56 54  1  0
 56 61  1  0
 57 65  1  0
 57 67  1  0
 58 64  1  0
 58 60  1  0
 59 65  1  0
 60 59  1  0
 61 60  2  0
 62 56  2  0
 63 62  1  0
 63 58  2  0
 64 57  1  0
 65 55  1  0
 67 69  2  0
 68 67  1  0
 70 68  1  0
 71 80  2  0
 71 76  1  0
 72 68  1  0
 72 76  1  0
 73 72  1  0
 74 75  1  0
 74 73  1  0
 75 71  1  0
 76 77  2  0
 77 78  1  0
 79 78  2  0
 80 79  1  0
 81 55  1  0
 81 82  1  0
 81 91  1  0
 82 85  1  0
 83 87  1  0
 83 82  1  0
 84 83  2  0
 87 86  1  0
 89 87  1  0
 89 90  1  0
 89 88  1  0
 91 94  1  1
 91 92  1  0
 93 91  1  0
M  ISO  4  10 100  22 100  53 101  54 101
M  END
>  <TORSDO>  (30) 
F 18

>  <SCORE>  (30) 
-14.595

>  <name>  (30) 
31

>  <ligand_id>  (30) 
31

>  <original_smiles>  (30) 
[H]c1c([H])c([H])c2c(c1[H])C([H])([H])C([H])([H])C([H])([H])C2([H])N([H])C(=O)C1([H])N(C(=O)C([H])(N([H])C(=O)C([H])(N([H])C([H])([H])[H])C([H])([H])[H])C(C([H])([H])[H])(C([H])([H])[H])C([H])([H])[H])C([H])([H])c2c([H])c(OC([H])([H])c3c([H])c(C([H])([H])[H])c(C([H])([H])[N+]4([H])C([H])([H])C([H])([H])N(C(=O)N5C([H])([H])C([H])([H])C([H])([H])C([H])(n6nc(-c7c([H])c([H])c(Oc8c([H])c([H])c(F)c([H])c8F)c([H])c7[H])c(C(=O)N([H])[H])c6N([H])[H])C5([H])[H])C([H])([H])C4([H])[H])c([H])c3C([H])([H])[H])c([H])c([H])c2C1([H])[H]

>  <smiles>  (30) 
[H]c1c([H])c([H])c2c(c1[H])C([H])([H])C([H])([H])C([H])([H])C2([H])N([H])C(=O)C1([H])N(C(=O)C([H])(N([H])C(=O)C([H])(N([H])C([H])([H])[H])C([H])([H])[H])C(C([H])([H])[H])(C([H])([H])[H])C([H])([H])[H])C([H])([H])c2c([H])c(OC([H])([H])c3c([H])c(C([H])([H])[H])c(C([H])([H])[N+]4([H])C([H])([H])C([H])([H])N(C(=O)N5C([H])([H])C([H])([H])C([H])([H])C([H])(n6nc(-c7c([H])c([H])c(Oc8c([H])c([H])c(F)c([H])c8F)c([H])c7[H])c(C(=O)N([H])[H])c6N([H])[H])C5([H])[H])C([H])([H])C4([H])[H])c([H])c3C([H])([H])[H])c([H])c([H])c2C1([H])[H]

$$$$
32:0:0
     RDKit          3D

 91100  0  0  1  0  0  0  0  0999 V2000
  -30.1160  -21.7170   22.3470 C   0  0  0  0  0  3  0  0  0  0  0  0
  -29.4440  -22.8180   21.7530 C   0  0  0  0  0  3  0  0  0  0  0  0
  -28.8440  -21.2670   19.9790 C   0  0  0  0  0  3  0  0  0  0  0  0
  -30.1730  -20.4150   21.7770 C   0  0  0  0  0  0  0  0  0  0  0  0
  -29.5140  -20.0090   20.6060 C   0  0  0  0  0  0  0  0  0  0  0  0
  -28.7790  -22.7390   20.5110 C   0  0  0  0  0  0  0  0  0  0  0  0
  -31.1520  -19.3810   22.2630 C   0  0  0  0  0  2  0  0  0  0  0  0
  -30.1190  -18.3800   20.1960 C   0  0  0  0  0  3  0  0  0  0  0  0
  -31.4180  -18.4470   21.0630 C   0  0  0  0  0  3  0  0  0  0  0  0
  -30.4250  -15.4270   20.2190 C   0  0  0  0  0  0  0  0  0  0  0  0
  -30.3790  -12.9710   19.3380 C   0  0  0  0  0  2  0  0  0  0  0  0
  -29.4460  -12.7400   18.1210 C   0  0  0  0  0  2  0  0  0  0  0  0
  -28.0110  -12.4500   18.5890 C   0  0  0  0  0  2  0  0  0  0  0  0
  -27.5690  -13.4140   19.7180 C   0  0  0  0  0  3  0  0  0  0  0  0
  -28.6340  -13.5930   20.8240 C   0  0  0  0  0  2  0  0  0  0  0  0
  -29.8420  -14.1200   20.1680 N   0  0  0  0  0  0  0  0  0  0  0  0
  -31.6350  -15.3870   19.9500 O   0  0  0  0  0  0  0  0  0  0  0  0
  -29.7190  -16.7440   20.3740 N   0  0  0  0  0  0  0  0  0  0  0  0
  -28.7380  -16.6180   20.5750 H   0  0  0  0  0  0  0  0  0  0  0  0
  -25.2170  -13.9510   20.5300 C   0  0  0  0  0  0  0  0  0  0  0  0
  -24.1640  -13.1670   20.9070 C   0  0  0  0  0  0  0  0  0  0  0  0
  -24.6340  -11.8180   20.8490 C   0  0  0  0  0  0  0  0  0  0  0  0
  -26.2560  -13.0830   20.2520 N   0  0  0  0  0  0  0  0  0  0  0  0
  -25.9200  -11.7930   20.5140 N   0  0  0  0  0  0  0  0  0  0  0  0
  -23.9120  -10.5520   21.0340 C   0  0  0  0  0  0  0  0  0  0  0  0
  -24.3470   -9.5800   21.9610 C   0  0  0  0  0  3  0  0  0  0  0  0
  -23.6210   -8.3810   22.1370 C   0  0  0  0  0  3  0  0  0  0  0  0
  -22.4450   -8.1470   21.3840 C   0  0  0  0  0  0  0  0  0  0  0  0
  -22.0300   -9.1070   20.4450 C   0  0  0  0  0  3  0  0  0  0  0  0
  -22.7570  -10.2960   20.2670 C   0  0  0  0  0  3  0  0  0  0  0  0
  -21.6910   -7.0010   21.4680 O   0  0  0  0  0  0  0  0  0  0  0  0
  -21.6310   -6.2630   22.6240 C   0  0  0  0  0  0  0  0  0  0  0  0
  -21.1760   -6.8200   23.8400 C   0  0  0  0  0  3  0  0  0  0  0  0
  -21.0620   -6.0080   24.9860 C   0  0  0  0  0  3  0  0  0  0  0  0
  -21.3940   -4.6410   24.9180 C   0  0  0  0  0  0  0  0  0  0  0  0
  -21.8430   -4.0860   23.7070 C   0  0  0  0  0  3  0  0  0  0  0  0
  -21.9570   -4.8940   22.5620 C   0  0  0  0  0  0  0  0  0  0  0  0
  -22.3690   -4.3490   21.3920 F   0  0  0  0  0  0  0  0  0  0  0  0
  -21.2790   -3.8590   26.0160 F   0  0  0  0  0  0  0  0  0  0  0  0
  -22.7700  -13.6370   21.2040 C   0  0  0  0  0  0  0  0  0  0  0  0
  -22.0580  -12.9320   22.0740 N   0  0  0  0  0  0  0  0  0  0  0  0
  -22.3250  -14.6680   20.7010 O   0  0  0  0  0  0  0  0  0  0  0  0
  -22.4350  -12.0980   22.5010 H   0  0  0  0  0  0  0  0  0  0  0  0
  -21.1240  -13.2280   22.3170 H   0  0  0  0  0  0  0  0  0  0  0  0
  -25.3700  -15.3260   20.3680 N   0  0  0  0  0  0  0  0  0  0  0  0
  -24.5990  -15.9710   20.5030 H   0  0  0  0  0  0  0  0  0  0  0  0
  -26.2030  -15.7730   20.0080 H   0  0  0  0  0  0  0  0  0  0  0  0
  -32.4920  -18.9560   20.2870 O   0  0  0  0  0  0  0  0  0  0  0  0
  -33.2810  -18.9050   20.8200 H   0  0  0  0  0  0  0  0  0  0  0  0
  -28.0180  -24.2420   19.9660 C   0  0  0  0  0  2  0  0  0  0  0  0
  -28.2060  -25.8540   20.3630 O   0  0  0  0  0  0  0  0  0  0  0  0
  -24.6620  -31.9010   23.2550 C   0  0  0  0  0  0  0  0  0  0  0  0
  -27.2150  -26.9820   20.2550 C   0  0  0  0  0  0  0  0  0  0  0  0
  -23.4720  -30.5030   21.6160 C   0  0  0  0  0  3  0  0  0  0  0  0
  -24.9210  -28.8920   20.1950 C   0  0  0  0  0  0  0  0  0  0  0  0
  -26.0400  -30.7010   21.4800 C   0  0  0  0  0  2  0  0  0  0  0  0
  -26.1080  -29.2870   20.8240 C   0  0  0  0  0  0  0  0  0  0  0  0
  -27.2450  -28.3530   20.8310 C   0  0  0  0  0  3  0  0  0  0  0  0
  -26.0020  -26.7530   19.5660 C   0  0  0  0  0  3  0  0  0  0  0  0
  -24.8960  -27.6450   19.5450 C   0  0  0  0  0  3  0  0  0  0  0  0
  -23.7040  -29.8160   20.2400 C   0  0  0  0  0  2  0  0  0  0  0  0
  -24.7460  -31.0630   22.1700 N   0  0  0  0  0  0  0  0  0  0  0  0
  -23.5720  -32.1930   23.7730 O   0  0  0  0  0  0  0  0  0  0  0  0
  -22.7730  -29.5120   22.5850 C   0  0  0  0  0  0  0  0  0  0  0  0
  -21.4420  -29.3480   22.4590 N   0  0  0  0  0  0  0  0  0  0  0  0
  -23.4350  -28.8920   23.4190 O   0  0  0  0  0  0  0  0  0  0  0  0
  -20.9590  -29.9010   21.7650 H   0  0  0  0  0  0  0  0  0  0  0  0
  -18.0610  -28.1270   22.9600 C   0  0  0  0  0  0  0  0  0  0  0  0
  -20.6190  -28.4100   23.2320 C   0  0  0  0  0  3  0  0  0  0  0  0
  -20.7310  -26.9750   22.6680 C   0  0  0  0  0  2  0  0  0  0  0  0
  -19.6350  -26.6400   21.6510 C   0  0  0  0  0  2  0  0  0  0  0  0
  -18.2490  -26.7780   22.2870 C   0  0  0  0  0  2  0  0  0  0  0  0
  -19.1740  -28.9010   23.3900 C   0  0  0  0  0  0  0  0  0  0  0  0
  -18.9410  -30.1610   23.9820 C   0  0  0  0  0  3  0  0  0  0  0  0
  -17.6300  -30.6480   24.1470 C   0  0  0  0  0  3  0  0  0  0  0  0
  -16.5340  -29.8740   23.7310 C   0  0  0  0  0  3  0  0  0  0  0  0
  -16.7500  -28.6140   23.1440 C   0  0  0  0  0  3  0  0  0  0  0  0
  -25.9310  -32.5460   23.8900 C   0  0  0  0  0  3  0  0  0  0  0  0
  -25.6140  -33.9480   24.2200 N   0  0  0  0  0  0  0  0  0  0  0  0
  -25.9290  -35.0070   23.4630 C   0  0  0  0  0  0  0  0  0  0  0  0
  -26.5790  -34.9080   22.4190 O   0  0  0  0  0  0  0  0  0  0  0  0
  -25.0360  -34.0990   25.0340 H   0  0  0  0  0  0  0  0  0  0  0  0
  -24.1770  -36.7940   23.1700 C   0  0  0  0  0  1  0  0  0  0  0  0
  -25.4510  -36.3960   23.9350 C   0  0  0  0  0  3  0  0  0  0  0  0
  -27.6050  -37.3050   24.6890 C   0  0  0  0  0  1  0  0  0  0  0  0
  -26.4700  -37.4570   23.7810 N   0  0  0  0  0  0  0  0  0  0  0  0
  -26.0620  -38.3750   23.9340 H   0  0  0  0  0  0  0  0  0  0  0  0
  -26.4310  -31.7880   25.1820 C   0  0  1  0  0  0  0  0  0  0  0  0
  -25.3250  -31.5650   26.2420 C   0  0  0  0  0  1  0  0  0  0  0  0
  -27.0180  -30.4050   24.8210 C   0  0  0  0  0  1  0  0  0  0  0  0
  -27.5760  -32.5890   25.8480 C   0  0  0  0  0  1  0  0  0  0  0  0
  2  1  2  0
  3  6  2  0
  3  5  1  0
  4  7  1  0
  4  1  1  0
  5  4  2  0
  6  2  1  0
  8 18  1  0
  8  5  1  0
  8  9  1  0
  9 48  1  0
  9  7  1  0
 10 18  1  0
 11 16  1  0
 12 13  1  0
 12 11  1  0
 14 13  1  0
 14 23  1  0
 14 15  1  0
 16 10  1  0
 16 15  1  0
 17 10  2  0
 18 19  1  0
 20 21  2  0
 21 40  1  0
 22 21  1  0
 22 25  1  0
 23 24  1  0
 23 20  1  0
 24 22  2  0
 25 26  1  0
 26 27  2  0
 28 31  1  0
 28 27  1  0
 29 28  2  0
 30 29  1  0
 30 25  2  0
 31 32  1  0
 32 33  1  0
 33 34  2  0
 35 34  1  0
 35 39  1  0
 36 35  2  0
 37 32  2  0
 37 36  1  0
 38 37  1  0
 40 41  1  0
 41 44  1  0
 41 43  1  0
 42 40  2  0
 45 46  1  0
 45 20  1  0
 47 45  1  0
 48 49  1  0
 50 51  1  0
 50  6  1  0
 52 63  2  0
 53 51  1  0
 53 58  1  0
 54 62  1  0
 54 64  1  0
 55 61  1  0
 55 57  1  0
 56 62  1  0
 57 58  2  0
 57 56  1  0
 59 53  2  0
 60 59  1  0
 60 55  2  0
 61 54  1  0
 62 52  1  0
 64 66  2  0
 65 64  1  0
 67 65  1  0
 68 77  2  0
 68 73  1  0
 69 65  1  0
 69 73  1  0
 70 69  1  0
 71 72  1  0
 71 70  1  0
 72 68  1  0
 73 74  2  0
 74 75  1  0
 76 75  2  0
 77 76  1  0
 78 52  1  0
 78 79  1  0
 78 88  1  0
 79 82  1  0
 80 84  1  0
 80 79  1  0
 81 80  2  0
 84 83  1  0
 86 87  1  0
 86 84  1  0
 86 85  1  0
 88 91  1  1
 88 89  1  0
 90 88  1  0
M  ISO  4  10 100  18 100  50 101  51 101
M  END
>  <TORSDO>  (31) 
F 18

>  <SCORE>  (31) 
-16.751

>  <name>  (31) 
32

>  <ligand_id>  (31) 
32

>  <original_smiles>  (31) 
[H]OC1([H])C([H])([H])c2c([H])c([H])c(C([H])([H])Oc3c([H])c([H])c4c(c3[H])C([H])([H])N(C(=O)C([H])(N([H])C(=O)C([H])(N([H])C([H])([H])[H])C([H])([H])[H])C(C([H])([H])[H])(C([H])([H])[H])C([H])([H])[H])C([H])(C(=O)N([H])C3([H])c5c([H])c([H])c([H])c([H])c5C([H])([H])C([H])([H])C3([H])[H])C4([H])[H])c([H])c2C1([H])N([H])C(=O)N1C([H])([H])C([H])([H])C([H])([H])C([H])(n2nc(-c3c([H])c([H])c(Oc4c([H])c([H])c(F)c([H])c4F)c([H])c3[H])c(C(=O)N([H])[H])c2N([H])[H])C1([H])[H]

>  <smiles>  (31) 
[H]OC1([H])C([H])([H])c2c([H])c([H])c(C([H])([H])Oc3c([H])c([H])c4c(c3[H])C([H])([H])N(C(=O)C([H])(N([H])C(=O)C([H])(N([H])C([H])([H])[H])C([H])([H])[H])C(C([H])([H])[H])(C([H])([H])[H])C([H])([H])[H])C([H])(C(=O)N([H])C3([H])c5c([H])c([H])c([H])c([H])c5C([H])([H])C([H])([H])C3([H])[H])C4([H])[H])c([H])c2C1([H])N([H])C(=O)N1C([H])([H])C([H])([H])C([H])([H])C([H])(n2nc(-c3c([H])c([H])c(Oc4c([H])c([H])c(F)c([H])c4F)c([H])c3[H])c(C(=O)N([H])[H])c2N([H])[H])C1([H])[H]

$$$$
33:0:0
     RDKit          3D

100110  0  0  1  0  0  0  0  0999 V2000
  -30.5100  -24.1820   19.7370 C   0  0  0  0  0  3  0  0  0  0  0  0
  -28.9400  -22.6300   20.7100 C   0  0  0  0  0  3  0  0  0  0  0  0
  -29.2340  -23.9560   20.2860 C   0  0  0  0  0  0  0  0  0  0  0  0
  -31.4340  -23.1200   19.6110 C   0  0  0  0  0  0  0  0  0  0  0  0
  -29.8990  -21.6010   20.5640 C   0  0  0  0  0  0  0  0  0  0  0  0
  -33.4340  -24.5150   19.2610 C   0  0  0  0  0  2  0  0  0  0  0  0
  -33.7870  -22.3950   19.3490 C   0  0  0  0  0  2  0  0  0  0  0  0
  -34.6890  -23.6380   19.4000 C   0  0  0  0  0  3  0  0  0  0  0  0
  -31.1080  -21.8670   20.0230 N   0  0  0  0  0  0  0  0  0  0  0  0
  -32.6980  -23.2910   18.9800 N   0  0  0  0  0  0  0  0  0  0  0  0
  -35.3800  -23.8040   20.6960 N   0  0  0  0  0  4  0  0  0  0  0  0
  -34.7380  -23.7790   21.4670 H   0  0  0  0  0  0  0  0  0  0  0  0
  -35.8700  -24.6800   20.7240 H   0  0  0  0  0  0  0  0  0  0  0  0
  -36.0600  -23.0780   20.8290 H   0  0  0  0  0  0  0  0  0  0  0  0
  -29.6070  -20.2670   20.9530 N   0  0  0  0  0  0  0  0  0  0  0  0
  -28.7210  -20.0990   21.4160 H   0  0  0  0  0  0  0  0  0  0  0  0
  -30.3760  -17.9740   21.8680 C   0  0  0  0  0  2  0  0  0  0  0  0
  -30.2220  -18.0310   19.7910 C   0  0  0  0  0  2  0  0  0  0  0  0
  -30.5510  -19.1270   20.8410 C   0  0  0  0  0  3  0  0  0  0  0  0
  -30.8860  -17.0160   20.7620 C   0  0  0  0  0  3  0  0  0  0  0  0
  -31.0150  -14.5270   20.3660 C   0  0  0  0  0  0  0  0  0  0  0  0
  -30.7070  -12.3080   19.3240 C   0  0  0  0  0  2  0  0  0  0  0  0
  -29.7670  -12.4550   18.1090 C   0  0  0  0  0  2  0  0  0  0  0  0
  -28.2960  -12.3150   18.5490 C   0  0  0  0  0  2  0  0  0  0  0  0
  -27.9520  -13.1960   19.7830 C   0  0  0  0  0  3  0  0  0  0  0  0
  -29.0170  -13.0580   20.8950 C   0  0  0  0  0  2  0  0  0  0  0  0
  -30.3300  -13.3470   20.2990 N   0  0  0  0  0  0  0  0  0  0  0  0
  -32.1630  -14.6380   19.9280 O   0  0  0  0  0  0  0  0  0  0  0  0
  -30.3330  -15.6300   20.7690 N   0  0  0  0  0  0  0  0  0  0  0  0
  -29.3820  -15.4970   21.0770 H   0  0  0  0  0  0  0  0  0  0  0  0
  -25.5840  -13.8120   20.5690 C   0  0  0  0  0  0  0  0  0  0  0  0
  -24.5070  -13.0460   20.9270 C   0  0  0  0  0  0  0  0  0  0  0  0
  -24.9400  -11.6870   20.8320 C   0  0  0  0  0  0  0  0  0  0  0  0
  -26.6050  -12.9200   20.2810 N   0  0  0  0  0  0  0  0  0  0  0  0
  -26.2250  -11.6350   20.4970 N   0  0  0  0  0  0  0  0  0  0  0  0
  -24.1910  -10.4330   20.9840 C   0  0  0  0  0  0  0  0  0  0  0  0
  -24.5710   -9.4570   21.9310 C   0  0  0  0  0  3  0  0  0  0  0  0
  -23.8250   -8.2670   22.0730 C   0  0  0  0  0  3  0  0  0  0  0  0
  -22.6830   -8.0460   21.2680 C   0  0  0  0  0  0  0  0  0  0  0  0
  -22.3210   -9.0100   20.3100 C   0  0  0  0  0  3  0  0  0  0  0  0
  -23.0680  -10.1900   20.1670 C   0  0  0  0  0  3  0  0  0  0  0  0
  -21.9130   -6.9090   21.3180 O   0  0  0  0  0  0  0  0  0  0  0  0
  -21.7290   -6.2130   22.4860 C   0  0  0  0  0  0  0  0  0  0  0  0
  -21.1560   -6.8130   23.6280 C   0  0  0  0  0  3  0  0  0  0  0  0
  -20.9240   -6.0430   24.7850 C   0  0  0  0  0  3  0  0  0  0  0  0
  -21.2510   -4.6750   24.7990 C   0  0  0  0  0  0  0  0  0  0  0  0
  -21.8160   -4.0730   23.6610 C   0  0  0  0  0  3  0  0  0  0  0  0
  -22.0520   -4.8410   22.5060 C   0  0  0  0  0  0  0  0  0  0  0  0
  -22.5770   -4.2520   21.4040 F   0  0  0  0  0  0  0  0  0  0  0  0
  -21.0210   -3.9330   25.9070 F   0  0  0  0  0  0  0  0  0  0  0  0
  -23.1260  -13.5390   21.2430 C   0  0  0  0  0  0  0  0  0  0  0  0
  -22.3990  -12.8280   22.0990 N   0  0  0  0  0  0  0  0  0  0  0  0
  -22.6980  -14.5910   20.7690 O   0  0  0  0  0  0  0  0  0  0  0  0
  -22.7580  -11.9770   22.5060 H   0  0  0  0  0  0  0  0  0  0  0  0
  -21.4720  -13.1380   22.3490 H   0  0  0  0  0  0  0  0  0  0  0  0
  -25.7740  -15.1840   20.4410 N   0  0  0  0  0  0  0  0  0  0  0  0
  -25.0210  -15.8490   20.5800 H   0  0  0  0  0  0  0  0  0  0  0  0
  -26.6270  -15.6160   20.1090 H   0  0  0  0  0  0  0  0  0  0  0  0
  -28.1190  -25.0290   20.2750 C   0  0  0  0  0  2  0  0  0  0  0  0
  -28.4280  -26.4570   20.4090 O   0  0  0  0  0  0  0  0  0  0  0  0
  -24.7390  -31.9060   23.3300 C   0  0  0  0  0  0  0  0  0  0  0  0
  -27.3160  -27.3090   20.3360 C   0  0  0  0  0  0  0  0  0  0  0  0
  -23.5260  -30.5040   21.6990 C   0  0  0  0  0  3  0  0  0  0  0  0
  -24.9650  -28.9300   20.3030 C   0  0  0  0  0  0  0  0  0  0  0  0
  -26.0700  -30.7940   21.5280 C   0  0  0  0  0  2  0  0  0  0  0  0
  -26.1370  -29.4110   20.9010 C   0  0  0  0  0  0  0  0  0  0  0  0
  -27.3150  -28.6120   20.9130 C   0  0  0  0  0  3  0  0  0  0  0  0
  -26.1170  -26.8820   19.7090 C   0  0  0  0  0  3  0  0  0  0  0  0
  -24.9560  -27.6690   19.6990 C   0  0  0  0  0  3  0  0  0  0  0  0
  -23.7360  -29.8120   20.3310 C   0  0  0  0  0  2  0  0  0  0  0  0
  -24.7960  -31.0860   22.2410 N   0  0  0  0  0  0  0  0  0  0  0  0
  -23.6570  -32.2030   23.8550 O   0  0  0  0  0  0  0  0  0  0  0  0
  -22.8460  -29.5050   22.6670 C   0  0  0  0  0  0  0  0  0  0  0  0
  -21.5340  -29.2840   22.4800 N   0  0  0  0  0  0  0  0  0  0  0  0
  -23.5020  -28.9290   23.5380 O   0  0  0  0  0  0  0  0  0  0  0  0
  -21.0670  -29.8010   21.7490 H   0  0  0  0  0  0  0  0  0  0  0  0
  -18.1700  -28.0050   22.8410 C   0  0  0  0  0  0  0  0  0  0  0  0
  -20.6990  -28.3600   23.2490 C   0  0  0  0  0  3  0  0  0  0  0  0
  -20.8780  -26.9060   22.7540 C   0  0  0  0  0  2  0  0  0  0  0  0
  -19.8500  -26.4970   21.6950 C   0  0  0  0  0  2  0  0  0  0  0  0
  -18.4280  -26.6310   22.2460 C   0  0  0  0  0  2  0  0  0  0  0  0
  -19.2380  -28.8230   23.2960 C   0  0  0  0  0  0  0  0  0  0  0  0
  -18.9460  -30.1070   23.8080 C   0  0  0  0  0  3  0  0  0  0  0  0
  -17.6190  -30.5740   23.8700 C   0  0  0  0  0  3  0  0  0  0  0  0
  -16.5650  -29.7520   23.4340 C   0  0  0  0  0  3  0  0  0  0  0  0
  -16.8420  -28.4710   22.9250 C   0  0  0  0  0  3  0  0  0  0  0  0
  -26.0270  -32.5280   23.9500 C   0  0  0  0  0  3  0  0  0  0  0  0
  -26.5380  -31.7500   25.2250 C   0  0  1  0  0  0  0  0  0  0  0  0
  -25.4390  -31.5020   26.2840 C   0  0  0  0  0  1  0  0  0  0  0  0
  -27.1280  -30.3770   24.8290 C   0  0  0  0  0  1  0  0  0  0  0  0
  -27.6820  -32.5460   25.8980 C   0  0  0  0  0  1  0  0  0  0  0  0
  -25.7270  -33.9260   24.2820 N   0  0  0  0  0  0  0  0  0  0  0  0
  -26.0130  -34.9740   23.4960 C   0  0  0  0  0  0  0  0  0  0  0  0
  -26.6280  -34.8640   22.4310 O   0  0  0  0  0  0  0  0  0  0  0  0
  -25.1770  -34.0860   25.1130 H   0  0  0  0  0  0  0  0  0  0  0  0
  -24.2320  -36.7340   23.2460 C   0  0  0  0  0  1  0  0  0  0  0  0
  -25.5400  -36.3630   23.9640 C   0  0  0  0  0  3  0  0  0  0  0  0
  -27.7140  -37.3000   24.6120 C   0  0  0  0  0  1  0  0  0  0  0  0
  -26.5430  -37.4300   23.7510 N   0  0  0  0  0  0  0  0  0  0  0  0
  -26.1320  -38.3450   23.9100 H   0  0  0  0  0  0  0  0  0  0  0  0
  1  3  1  0
  3  2  2  0
  4  1  2  0
  4  9  1  0
  5  2  1  0
  5 15  1  0
  6  8  1  0
  7  8  1  0
  8 11  1  0
  9  5  2  0
 10  6  1  0
 10  7  1  0
 10  4  1  0
 11 13  1  0
 11 14  1  0
 11 12  1  0
 15 16  1  0
 18 20  1  0
 18 19  1  0
 19 15  1  0
 19 17  1  0
 20 29  1  0
 20 17  1  0
 21 29  1  0
 22 27  1  0
 23 24  1  0
 23 22  1  0
 25 24  1  0
 25 34  1  0
 25 26  1  0
 27 21  1  0
 27 26  1  0
 28 21  2  0
 29 30  1  0
 31 32  2  0
 32 51  1  0
 33 32  1  0
 33 36  1  0
 34 35  1  0
 34 31  1  0
 35 33  2  0
 36 37  1  0
 37 38  2  0
 39 42  1  0
 39 38  1  0
 40 39  2  0
 41 40  1  0
 41 36  2  0
 42 43  1  0
 43 48  2  0
 43 44  1  0
 44 45  2  0
 45 46  1  0
 46 50  1  0
 47 46  2  0
 48 47  1  0
 49 48  1  0
 51 52  1  0
 52 55  1  0
 52 54  1  0
 53 51  2  0
 56 31  1  0
 56 57  1  0
 58 56  1  0
 59  3  1  0
 59 60  1  0
 61 72  2  0
 62 60  1  0
 62 67  1  0
 63 71  1  0
 63 73  1  0
 64 70  1  0
 64 66  1  0
 65 71  1  0
 66 67  2  0
 66 65  1  0
 68 62  2  0
 69 68  1  0
 69 64  2  0
 70 63  1  0
 71 61  1  0
 73 75  2  0
 74 73  1  0
 76 74  1  0
 77 86  2  0
 77 82  1  0
 78 74  1  0
 78 82  1  0
 79 78  1  0
 80 81  1  0
 80 79  1  0
 81 77  1  0
 82 83  2  0
 83 84  1  0
 85 84  2  0
 86 85  1  0
 87 61  1  0
 87 92  1  0
 87 88  1  0
 88 91  1  1
 88 89  1  0
 90 88  1  0
 92 95  1  0
 93 97  1  0
 93 92  1  0
 94 93  2  0
 97 96  1  0
 99100  1  0
 99 97  1  0
 99 98  1  0
M  ISO  4  21 100  29 100  59 101  60 101
M  END
>  <TORSDO>  (32) 
F 20

>  <SCORE>  (32) 
-13.878

>  <name>  (32) 
33

>  <ligand_id>  (32) 
33

>  <original_smiles>  (32) 
[H]c1c([H])c([H])c2c(c1[H])C([H])([H])C([H])([H])C([H])([H])C2([H])N([H])C(=O)C1([H])N(C(=O)C([H])(N([H])C(=O)C([H])(N([H])C([H])([H])[H])C([H])([H])[H])C(C([H])([H])[H])(C([H])([H])[H])C([H])([H])[H])C([H])([H])c2c([H])c(OC([H])([H])c3c([H])c(N4C([H])([H])C([H])([N+]([H])([H])[H])C4([H])[H])nc(N([H])C4([H])C([H])([H])C([H])(N([H])C(=O)N5C([H])([H])C([H])([H])C([H])([H])C([H])(n6nc(-c7c([H])c([H])c(Oc8c([H])c([H])c(F)c([H])c8F)c([H])c7[H])c(C(=O)N([H])[H])c6N([H])[H])C5([H])[H])C4([H])[H])c3[H])c([H])c([H])c2C1([H])[H]

>  <smiles>  (32) 
[H]c1c([H])c([H])c2c(c1[H])C([H])([H])C([H])([H])C([H])([H])C2([H])N([H])C(=O)C1([H])N(C(=O)C([H])(N([H])C(=O)C([H])(N([H])C([H])([H])[H])C([H])([H])[H])C(C([H])([H])[H])(C([H])([H])[H])C([H])([H])[H])C([H])([H])c2c([H])c(OC([H])([H])c3c([H])c(N4C([H])([H])C([H])([N+]([H])([H])[H])C4([H])[H])nc(N([H])C4([H])C([H])([H])C([H])(N([H])C(=O)N5C([H])([H])C([H])([H])C([H])([H])C([H])(n6nc(-c7c([H])c([H])c(Oc8c([H])c([H])c(F)c([H])c8F)c([H])c7[H])c(C(=O)N([H])[H])c6N([H])[H])C5([H])[H])C4([H])[H])c3[H])c([H])c([H])c2C1([H])[H]

$$$$
34:0:0
     RDKit          3D

101111  0  0  1  0  0  0  0  0999 V2000
  -30.0200  -19.5260   17.7450 C   0  0  0  0  0  3  0  0  0  0  0  0
  -29.4690  -21.3560   19.2790 C   0  0  0  0  0  0  0  0  0  0  0  0
  -29.6650  -19.9440   19.0510 C   0  0  0  0  0  0  0  0  0  0  0  0
  -29.6640  -22.2530   18.1740 C   0  0  0  0  0  3  0  0  0  0  0  0
  -30.2090  -20.4550   16.7150 C   0  0  0  0  0  0  0  0  0  0  0  0
  -30.6220  -20.0450   15.3140 C   0  0  0  0  0  1  0  0  0  0  0  0
  -30.0250  -21.7560   16.9720 N   0  0  0  0  0  0  0  0  0  0  0  0
  -30.1550  -22.4180   16.2040 H   0  0  0  0  0  0  0  0  0  0  0  0
  -30.7610  -24.5410   17.9160 C   0  0  0  0  0  2  0  0  0  0  0  0
  -29.4800  -23.7570   18.0860 C   0  0  0  0  0  3  0  0  0  0  0  0
  -29.8480  -24.8860   19.0600 C   0  0  0  0  0  3  0  0  0  0  0  0
  -29.2110  -26.2720   18.9630 C   0  0  0  0  0  2  0  0  0  0  0  0
  -28.7300  -26.7830   20.2080 O   0  0  0  0  0  0  0  0  0  0  0  0
  -24.6500  -31.7480   23.2790 C   0  0  0  0  0  0  0  0  0  0  0  0
  -27.5400  -27.4800   20.1710 C   0  0  0  0  0  0  0  0  0  0  0  0
  -23.5500  -30.3680   21.5460 C   0  0  0  0  0  3  0  0  0  0  0  0
  -25.1020  -28.9120   20.1390 C   0  0  0  0  0  0  0  0  0  0  0  0
  -26.0710  -30.7960   21.4660 C   0  0  0  0  0  2  0  0  0  0  0  0
  -26.2190  -29.4470   20.7930 C   0  0  0  0  0  0  0  0  0  0  0  0
  -27.4370  -28.7300   20.8190 C   0  0  0  0  0  3  0  0  0  0  0  0
  -26.3980  -26.9460   19.5340 C   0  0  0  0  0  3  0  0  0  0  0  0
  -25.1840  -27.6580   19.5110 C   0  0  0  0  0  3  0  0  0  0  0  0
  -23.8350  -29.7360   20.1570 C   0  0  0  0  0  2  0  0  0  0  0  0
  -24.7730  -30.9840   22.1570 N   0  0  0  0  0  0  0  0  0  0  0  0
  -23.5410  -31.9760   23.7810 O   0  0  0  0  0  0  0  0  0  0  0  0
  -22.8890  -29.2990   22.4470 C   0  0  0  0  0  0  0  0  0  0  0  0
  -21.5730  -29.0990   22.2700 N   0  0  0  0  0  0  0  0  0  0  0  0
  -23.5570  -28.6560   23.2600 O   0  0  0  0  0  0  0  0  0  0  0  0
  -21.0940  -29.6710   21.5880 H   0  0  0  0  0  0  0  0  0  0  0  0
  -18.1990  -27.8610   22.6390 C   0  0  0  0  0  0  0  0  0  0  0  0
  -20.7480  -28.1210   22.9780 C   0  0  0  0  0  3  0  0  0  0  0  0
  -20.8730  -26.7190   22.3370 C   0  0  0  0  0  2  0  0  0  0  0  0
  -19.7960  -26.4390   21.2850 C   0  0  0  0  0  2  0  0  0  0  0  0
  -18.4000  -26.5460   21.9040 C   0  0  0  0  0  2  0  0  0  0  0  0
  -19.3030  -28.6080   23.1290 C   0  0  0  0  0  0  0  0  0  0  0  0
  -19.0640  -29.8420   23.7730 C   0  0  0  0  0  3  0  0  0  0  0  0
  -17.7520  -30.3290   23.9320 C   0  0  0  0  0  3  0  0  0  0  0  0
  -16.6620  -29.5780   23.4590 C   0  0  0  0  0  3  0  0  0  0  0  0
  -16.8870  -28.3450   22.8190 C   0  0  0  0  0  3  0  0  0  0  0  0
  -25.8930  -32.3910   23.9690 C   0  0  0  0  0  3  0  0  0  0  0  0
  -25.5550  -33.7870   24.2750 N   0  0  0  0  0  0  0  0  0  0  0  0
  -25.9110  -34.8370   23.5240 C   0  0  0  0  0  0  0  0  0  0  0  0
  -26.6290  -34.7340   22.5250 O   0  0  0  0  0  0  0  0  0  0  0  0
  -24.9210  -33.9410   25.0470 H   0  0  0  0  0  0  0  0  0  0  0  0
  -24.1840  -36.6090   23.0700 C   0  0  0  0  0  1  0  0  0  0  0  0
  -25.3860  -36.2230   23.9470 C   0  0  0  0  0  3  0  0  0  0  0  0
  -27.4610  -37.1400   24.8880 C   0  0  0  0  0  1  0  0  0  0  0  0
  -26.4130  -37.2860   23.8810 N   0  0  0  0  0  0  0  0  0  0  0  0
  -25.9900  -38.2030   23.9940 H   0  0  0  0  0  0  0  0  0  0  0  0
  -26.3440  -31.6270   25.2730 C   0  0  1  0  0  0  0  0  0  0  0  0
  -25.1950  -31.3830   26.2780 C   0  0  0  0  0  1  0  0  0  0  0  0
  -26.9600  -30.2550   24.9160 C   0  0  0  0  0  1  0  0  0  0  0  0
  -27.4500  -32.4320   25.9970 C   0  0  0  0  0  1  0  0  0  0  0  0
  -27.6300  -21.4350   21.0960 C   0  0  0  0  0  1  0  0  0  0  0  0
  -29.0230  -21.9250   20.6420 C   0  0  0  0  0  3  0  0  0  0  0  0
  -30.0470  -21.7650   21.6960 N   0  0  0  0  0  4  0  0  0  0  0  0
  -30.2980  -20.8050   21.8530 H   0  0  0  0  0  0  0  0  0  0  0  0
  -29.7130  -22.1460   22.5660 H   0  0  0  0  0  0  0  0  0  0  0  0
  -30.8870  -22.2630   21.4590 H   0  0  0  0  0  0  0  0  0  0  0  0
  -29.5440  -18.9720   20.0830 N   0  0  0  0  0  0  0  0  0  0  0  0
  -28.9690  -19.2380   20.8720 H   0  0  0  0  0  0  0  0  0  0  0  0
  -30.9680  -14.5830   20.3900 C   0  0  0  0  0  0  0  0  0  0  0  0
  -30.6540  -12.4070   19.3120 C   0  0  0  0  0  2  0  0  0  0  0  0
  -29.7190  -12.6090   18.1020 C   0  0  0  0  0  2  0  0  0  0  0  0
  -28.2450  -12.4720   18.5370 C   0  0  0  0  0  2  0  0  0  0  0  0
  -27.9000  -13.3300   19.7860 C   0  0  0  0  0  3  0  0  0  0  0  0
  -28.9590  -13.1570   20.8980 C   0  0  0  0  0  2  0  0  0  0  0  0
  -30.2780  -13.4180   20.3070 N   0  0  0  0  0  0  0  0  0  0  0  0
  -32.1740  -14.6530   20.1420 O   0  0  0  0  0  0  0  0  0  0  0  0
  -30.7580  -16.8340   19.3980 C   0  0  0  0  0  2  0  0  0  0  0  0
  -29.4430  -16.5720   20.9660 C   0  0  0  0  0  2  0  0  0  0  0  0
  -29.4500  -17.5370   19.7620 C   0  0  0  0  0  3  0  0  0  0  0  0
  -30.2190  -15.6700   20.1040 N   0  0  0  0  0  0  0  0  0  0  0  0
  -25.5080  -13.9410   20.5060 C   0  0  0  0  0  0  0  0  0  0  0  0
  -24.4380  -13.1710   20.8740 C   0  0  0  0  0  0  0  0  0  0  0  0
  -24.8950  -11.8180   20.8400 C   0  0  0  0  0  0  0  0  0  0  0  0
  -26.5490  -13.0570   20.2700 N   0  0  0  0  0  0  0  0  0  0  0  0
  -26.1850  -11.7750   20.5300 N   0  0  0  0  0  0  0  0  0  0  0  0
  -24.1650  -10.5580   21.0250 C   0  0  0  0  0  0  0  0  0  0  0  0
  -24.5760   -9.5990   21.9760 C   0  0  0  0  0  3  0  0  0  0  0  0
  -23.8470   -8.4020   22.1480 C   0  0  0  0  0  3  0  0  0  0  0  0
  -22.6930   -8.1560   21.3670 C   0  0  0  0  0  0  0  0  0  0  0  0
  -22.3000   -9.1040   20.4060 C   0  0  0  0  0  3  0  0  0  0  0  0
  -23.0310  -10.2920   20.2320 C   0  0  0  0  0  3  0  0  0  0  0  0
  -21.9380   -7.0100   21.4470 O   0  0  0  0  0  0  0  0  0  0  0  0
  -21.8430   -6.2910   22.6120 C   0  0  0  0  0  0  0  0  0  0  0  0
  -21.3270   -6.8580   23.7970 C   0  0  0  0  0  3  0  0  0  0  0  0
  -21.1820   -6.0630   24.9520 C   0  0  0  0  0  3  0  0  0  0  0  0
  -21.5410   -4.7030   24.9220 C   0  0  0  0  0  0  0  0  0  0  0  0
  -22.0510   -4.1350   23.7400 C   0  0  0  0  0  3  0  0  0  0  0  0
  -22.1980   -4.9280   22.5870 C   0  0  0  0  0  0  0  0  0  0  0  0
  -22.6690   -4.3700   21.4450 F   0  0  0  0  0  0  0  0  0  0  0  0
  -21.3950   -3.9370   26.0280 F   0  0  0  0  0  0  0  0  0  0  0  0
  -23.0410  -13.6530   21.1440 C   0  0  0  0  0  0  0  0  0  0  0  0
  -22.3070  -12.9550   22.0030 N   0  0  0  0  0  0  0  0  0  0  0  0
  -22.6100  -14.6840   20.6300 O   0  0  0  0  0  0  0  0  0  0  0  0
  -22.6670  -12.1230   22.4460 H   0  0  0  0  0  0  0  0  0  0  0  0
  -21.3690  -13.2600   22.2220 H   0  0  0  0  0  0  0  0  0  0  0  0
  -25.6770  -15.3120   20.3300 N   0  0  0  0  0  0  0  0  0  0  0  0
  -24.9100  -15.9670   20.4410 H   0  0  0  0  0  0  0  0  0  0  0  0
  -26.5210  -15.7400   19.9750 H   0  0  0  0  0  0  0  0  0  0  0  0
  1  3  1  0
  2 55  1  0
  3  2  2  0
  3 60  1  0
  4  2  1  0
  5  7  1  0
  5  1  2  0
  6  5  1  0
  7  4  1  0
  8  7  1  0
  9 11  1  0
 10  9  1  0
 10  4  1  0
 10 11  1  0
 11 12  1  0
 12 13  1  0
 14 25  2  0
 15 13  1  0
 15 20  1  0
 16 24  1  0
 16 26  1  0
 17 23  1  0
 17 19  1  0
 18 24  1  0
 19 20  2  0
 19 18  1  0
 21 15  2  0
 22 21  1  0
 22 17  2  0
 23 16  1  0
 24 14  1  0
 26 28  2  0
 27 26  1  0
 29 27  1  0
 30 39  2  0
 30 35  1  0
 31 27  1  0
 31 35  1  0
 32 31  1  0
 33 34  1  0
 33 32  1  0
 34 30  1  0
 35 36  2  0
 36 37  1  0
 38 37  2  0
 39 38  1  0
 40 14  1  0
 40 41  1  0
 40 50  1  0
 41 44  1  0
 42 46  1  0
 42 41  1  0
 43 42  2  0
 46 45  1  0
 48 46  1  0
 48 49  1  0
 48 47  1  0
 50 53  1  1
 50 51  1  0
 52 50  1  0
 55 54  1  0
 55 56  1  0
 56 57  1  0
 56 58  1  0
 59 56  1  0
 60 61  1  0
 63 68  1  0
 64 65  1  0
 64 63  1  0
 66 65  1  0
 66 77  1  0
 66 67  1  0
 68 62  1  0
 68 67  1  0
 69 62  2  0
 70 72  1  0
 70 73  1  0
 72 60  1  0
 72 71  1  0
 73 62  1  0
 73 71  1  0
 74 75  2  0
 75 94  1  0
 76 75  1  0
 76 79  1  0
 77 74  1  0
 77 78  1  0
 78 76  2  0
 79 80  1  0
 80 81  2  0
 82 85  1  0
 82 81  1  0
 83 82  2  0
 84 83  1  0
 84 79  2  0
 85 86  1  0
 86 87  1  0
 87 88  2  0
 89 88  1  0
 89 93  1  0
 90 89  2  0
 91 86  2  0
 91 90  1  0
 92 91  1  0
 94 95  1  0
 95 98  1  0
 95 97  1  0
 96 94  2  0
 99100  1  0
 99 74  1  0
101 99  1  0
M  ISO  4  12 101  13 101  62 100  73 100
M  END
>  <TORSDO>  (33) 
F 21

>  <SCORE>  (33) 
-13.477

>  <name>  (33) 
34

>  <ligand_id>  (33) 
34

>  <original_smiles>  (33) 
[H]c1c([H])c([H])c2c(c1[H])C([H])([H])C([H])([H])C([H])([H])C2([H])N([H])C(=O)C1([H])N(C(=O)C([H])(N([H])C(=O)C([H])(N([H])C([H])([H])[H])C([H])([H])[H])C(C([H])([H])[H])(C([H])([H])[H])C([H])([H])[H])C([H])([H])c2c([H])c(OC([H])([H])C3([H])C([H])([H])C3([H])c3c(C([H])(C([H])([H])[H])[N+]([H])([H])[H])c(N([H])C4([H])C([H])([H])N(C(=O)N5C([H])([H])C([H])([H])C([H])([H])C([H])(n6nc(-c7c([H])c([H])c(Oc8c([H])c([H])c(F)c([H])c8F)c([H])c7[H])c(C(=O)N([H])[H])c6N([H])[H])C5([H])[H])C4([H])[H])c([H])c(C([H])([H])[H])[n+]3[H])c([H])c([H])c2C1([H])[H]

>  <smiles>  (33) 
[H]c1c([H])c([H])c2c(c1[H])C([H])([H])C([H])([H])C([H])([H])C2([H])N([H])C(=O)C1([H])N(C(=O)C([H])(N([H])C(=O)C([H])(N([H])C([H])([H])[H])C([H])([H])[H])C(C([H])([H])[H])(C([H])([H])[H])C([H])([H])[H])C([H])([H])c2c([H])c(OC([H])([H])C3([H])C([H])([H])C3([H])c3c(C([H])(C([H])([H])[H])[N+]([H])([H])[H])c(N([H])C4([H])C([H])([H])N(C(=O)N5C([H])([H])C([H])([H])C([H])([H])C([H])(n6nc(-c7c([H])c([H])c(Oc8c([H])c([H])c(F)c([H])c8F)c([H])c7[H])c(C(=O)N([H])[H])c6N([H])[H])C5([H])[H])C4([H])[H])c([H])c(C([H])([H])[H])[n+]3[H])c([H])c([H])c2C1([H])[H]

$$$$
35:0:0
     RDKit          3D

 92101  0  0  1  0  0  0  0  0999 V2000
  -30.4770  -15.3730   20.3570 C   0  0  0  0  0  0  0  0  0  0  0  0
  -30.4160  -12.9240   19.4790 C   0  0  0  0  0  2  0  0  0  0  0  0
  -29.5300  -12.6580   18.2390 C   0  0  0  0  0  2  0  0  0  0  0  0
  -28.0810  -12.3690   18.6640 C   0  0  0  0  0  2  0  0  0  0  0  0
  -27.5910  -13.3560   19.7540 C   0  0  0  0  0  3  0  0  0  0  0  0
  -28.6170  -13.5780   20.8870 C   0  0  0  0  0  2  0  0  0  0  0  0
  -29.8400  -14.0960   20.2460 N   0  0  0  0  0  0  0  0  0  0  0  0
  -31.7060  -15.2460   20.2570 O   0  0  0  0  0  0  0  0  0  0  0  0
  -27.9420  -21.3320   20.0760 C   0  0  0  0  0  3  0  0  0  0  0  0
  -30.5690  -20.9900   20.5930 C   0  0  0  0  0  3  0  0  0  0  0  0
  -28.5380  -19.9430   20.1320 C   0  0  0  0  0  0  0  0  0  0  0  0
  -29.9100  -19.7130   20.3440 C   0  0  0  0  0  0  0  0  0  0  0  0
  -29.9860  -22.3490   20.5500 C   0  0  0  0  0  0  0  0  0  0  0  0
  -28.6040  -22.6660   20.2560 C   0  0  0  0  0  0  0  0  0  0  0  0
  -27.8170  -18.5670   19.9110 C   0  0  0  0  0  2  0  0  0  0  0  0
  -28.4280  -17.1680   20.5180 C   0  0  0  0  0  2  0  0  0  0  0  0
  -30.6140  -18.1780   20.2190 C   0  0  0  0  0  3  0  0  0  0  0  0
  -30.9140  -23.5170   20.8260 C   0  0  0  0  0  1  0  0  0  0  0  0
  -29.8710  -16.7560   20.3260 N   0  0  0  0  0  0  0  0  0  0  0  0
  -25.2010  -13.8910   20.4530 C   0  0  0  0  0  0  0  0  0  0  0  0
  -24.1420  -13.1060   20.8090 C   0  0  0  0  0  0  0  0  0  0  0  0
  -24.6300  -11.7640   20.8140 C   0  0  0  0  0  0  0  0  0  0  0  0
  -26.2620  -13.0280   20.2500 N   0  0  0  0  0  0  0  0  0  0  0  0
  -25.9300  -11.7430   20.5370 N   0  0  0  0  0  0  0  0  0  0  0  0
  -23.9160  -10.4950   21.0050 C   0  0  0  0  0  0  0  0  0  0  0  0
  -24.3330   -9.5460   21.9640 C   0  0  0  0  0  3  0  0  0  0  0  0
  -23.6130   -8.3450   22.1430 C   0  0  0  0  0  3  0  0  0  0  0  0
  -22.4610   -8.0850   21.3630 C   0  0  0  0  0  0  0  0  0  0  0  0
  -22.0640   -9.0220   20.3930 C   0  0  0  0  0  3  0  0  0  0  0  0
  -22.7850  -10.2150   20.2120 C   0  0  0  0  0  3  0  0  0  0  0  0
  -21.7150   -6.9350   21.4490 O   0  0  0  0  0  0  0  0  0  0  0  0
  -21.6420   -6.2110   22.6130 C   0  0  0  0  0  0  0  0  0  0  0  0
  -21.1650   -6.7780   23.8140 C   0  0  0  0  0  3  0  0  0  0  0  0
  -21.0400   -5.9790   24.9690 C   0  0  0  0  0  3  0  0  0  0  0  0
  -21.3840   -4.6140   24.9230 C   0  0  0  0  0  0  0  0  0  0  0  0
  -21.8540   -4.0470   23.7240 C   0  0  0  0  0  3  0  0  0  0  0  0
  -21.9780   -4.8430   22.5730 C   0  0  0  0  0  0  0  0  0  0  0  0
  -22.4100   -4.2860   21.4150 F   0  0  0  0  0  0  0  0  0  0  0  0
  -21.2580   -3.8440   26.0290 F   0  0  0  0  0  0  0  0  0  0  0  0
  -22.7320  -13.5710   21.0270 C   0  0  0  0  0  0  0  0  0  0  0  0
  -21.9920  -12.8900   21.8930 N   0  0  0  0  0  0  0  0  0  0  0  0
  -22.2980  -14.5750   20.4650 O   0  0  0  0  0  0  0  0  0  0  0  0
  -22.3590  -12.0790   22.3680 H   0  0  0  0  0  0  0  0  0  0  0  0
  -21.0440  -13.1830   22.0840 H   0  0  0  0  0  0  0  0  0  0  0  0
  -25.3400  -15.2600   20.2540 N   0  0  0  0  0  0  0  0  0  0  0  0
  -24.5520  -15.8940   20.3330 H   0  0  0  0  0  0  0  0  0  0  0  0
  -26.1790  -15.7090   19.9160 H   0  0  0  0  0  0  0  0  0  0  0  0
  -30.7370  -17.9220   17.6500 C   0  0  0  0  0  1  0  0  0  0  0  0
  -32.5170  -19.2970   18.7810 C   0  0  0  0  0  1  0  0  0  0  0  0
  -31.5360  -18.1240   18.9510 C   0  0  0  0  0  3  0  0  0  0  0  0
  -27.8110  -24.2410   20.1040 C   0  0  0  0  0  2  0  0  0  0  0  0
  -28.1840  -25.8430   20.2950 O   0  0  0  0  0  0  0  0  0  0  0  0
  -24.6710  -31.8790   23.2490 C   0  0  0  0  0  0  0  0  0  0  0  0
  -27.2050  -26.9790   20.2270 C   0  0  0  0  0  0  0  0  0  0  0  0
  -23.4770  -30.4980   21.6010 C   0  0  0  0  0  3  0  0  0  0  0  0
  -24.9220  -28.8910   20.1760 C   0  0  0  0  0  0  0  0  0  0  0  0
  -26.0470  -30.6880   21.4680 C   0  0  0  0  0  2  0  0  0  0  0  0
  -26.1120  -29.2780   20.8050 C   0  0  0  0  0  0  0  0  0  0  0  0
  -27.2480  -28.3450   20.8050 C   0  0  0  0  0  3  0  0  0  0  0  0
  -25.9870  -26.7520   19.5480 C   0  0  0  0  0  3  0  0  0  0  0  0
  -24.8870  -27.6470   19.5260 C   0  0  0  0  0  3  0  0  0  0  0  0
  -23.7090  -29.8200   20.2230 C   0  0  0  0  0  2  0  0  0  0  0  0
  -24.7540  -31.0490   22.1580 N   0  0  0  0  0  0  0  0  0  0  0  0
  -23.5800  -32.1740   23.7630 O   0  0  0  0  0  0  0  0  0  0  0  0
  -22.7700  -29.5030   22.5610 C   0  0  0  0  0  0  0  0  0  0  0  0
  -21.4410  -29.3440   22.4260 N   0  0  0  0  0  0  0  0  0  0  0  0
  -23.4260  -28.8740   23.3950 O   0  0  0  0  0  0  0  0  0  0  0  0
  -20.9650  -29.9020   21.7310 H   0  0  0  0  0  0  0  0  0  0  0  0
  -18.0490  -28.1370   22.9020 C   0  0  0  0  0  0  0  0  0  0  0  0
  -20.6070  -28.4070   23.1890 C   0  0  0  0  0  3  0  0  0  0  0  0
  -20.7150  -26.9740   22.6180 C   0  0  0  0  0  2  0  0  0  0  0  0
  -19.6240  -26.6480   21.5940 C   0  0  0  0  0  2  0  0  0  0  0  0
  -18.2350  -26.7900   22.2240 C   0  0  0  0  0  2  0  0  0  0  0  0
  -19.1630  -28.9030   23.3400 C   0  0  0  0  0  0  0  0  0  0  0  0
  -18.9350  -30.1620   23.9370 C   0  0  0  0  0  3  0  0  0  0  0  0
  -17.6260  -30.6560   24.0980 C   0  0  0  0  0  3  0  0  0  0  0  0
  -16.5280  -29.8880   23.6740 C   0  0  0  0  0  3  0  0  0  0  0  0
  -16.7390  -28.6300   23.0820 C   0  0  0  0  0  3  0  0  0  0  0  0
  -25.9400  -32.5140   23.8920 C   0  0  0  0  0  3  0  0  0  0  0  0
  -25.6300  -33.9160   24.2220 N   0  0  0  0  0  0  0  0  0  0  0  0
  -25.9610  -34.9760   23.4710 C   0  0  0  0  0  0  0  0  0  0  0  0
  -26.6230  -34.8740   22.4340 O   0  0  0  0  0  0  0  0  0  0  0  0
  -25.0460  -34.0710   25.0300 H   0  0  0  0  0  0  0  0  0  0  0  0
  -24.2290  -36.7780   23.1590 C   0  0  0  0  0  1  0  0  0  0  0  0
  -25.4860  -36.3670   23.9430 C   0  0  0  0  0  3  0  0  0  0  0  0
  -27.6380  -37.2500   24.7310 C   0  0  0  0  0  1  0  0  0  0  0  0
  -26.5170  -37.4200   23.8100 N   0  0  0  0  0  0  0  0  0  0  0  0
  -26.1150  -38.3400   23.9650 H   0  0  0  0  0  0  0  0  0  0  0  0
  -26.4290  -31.7490   25.1840 C   0  0  1  0  0  0  0  0  0  0  0  0
  -25.3170  -31.5330   26.2380 C   0  0  0  0  0  1  0  0  0  0  0  0
  -27.0020  -30.3610   24.8200 C   0  0  0  0  0  1  0  0  0  0  0  0
  -27.5800  -32.5350   25.8540 C   0  0  0  0  0  1  0  0  0  0  0  0
  2  7  1  0
  3  4  1  0
  3  2  1  0
  5  4  1  0
  5 23  1  0
  5  6  1  0
  7  1  1  0
  7  6  1  0
  8  1  2  0
  9 11  2  0
  9 14  1  0
 11 12  1  0
 12 10  2  0
 13 10  1  0
 13 18  1  0
 14 13  2  0
 15 11  1  0
 15 16  1  0
 17 50  1  0
 17 19  1  0
 17 12  1  0
 19  1  1  0
 19 16  1  0
 20 21  2  0
 21 22  1  0
 21 40  1  0
 22 25  1  0
 23 20  1  0
 23 24  1  0
 24 22  2  0
 25 26  1  0
 26 27  2  0
 28 31  1  0
 28 27  1  0
 29 28  2  0
 30 29  1  0
 30 25  2  0
 31 32  1  0
 32 33  1  0
 33 34  2  0
 35 34  1  0
 35 39  1  0
 36 35  2  0
 37 32  2  0
 37 36  1  0
 38 37  1  0
 40 41  1  0
 41 44  1  0
 41 43  1  0
 42 40  2  0
 45 46  1  0
 45 20  1  0
 47 45  1  0
 48 50  1  0
 49 50  1  0
 51 14  1  0
 51 52  1  0
 53 64  2  0
 54 52  1  0
 54 59  1  0
 55 63  1  0
 55 65  1  0
 56 62  1  0
 56 58  1  0
 57 63  1  0
 58 57  1  0
 59 58  2  0
 60 54  2  0
 61 60  1  0
 61 56  2  0
 62 55  1  0
 63 53  1  0
 65 67  2  0
 66 65  1  0
 68 66  1  0
 69 78  2  0
 69 74  1  0
 70 66  1  0
 70 74  1  0
 71 70  1  0
 72 73  1  0
 72 71  1  0
 73 69  1  0
 74 75  2  0
 75 76  1  0
 77 76  2  0
 78 77  1  0
 79 53  1  0
 79 80  1  0
 79 89  1  0
 80 83  1  0
 81 85  1  0
 81 80  1  0
 82 81  2  0
 85 84  1  0
 87 85  1  0
 87 88  1  0
 87 86  1  0
 89 92  1  1
 89 90  1  0
 91 89  1  0
M  ISO  4   1 100  19 100  51 101  52 101
M  END
>  <TORSDO>  (34) 
F 17

>  <SCORE>  (34) 
-16.582

>  <name>  (34) 
35

>  <ligand_id>  (34) 
35

>  <original_smiles>  (34) 
[H]c1c([H])c([H])c2c(c1[H])C([H])([H])C([H])([H])C([H])([H])C2([H])N([H])C(=O)C1([H])N(C(=O)C([H])(N([H])C(=O)C([H])(N([H])C([H])([H])[H])C([H])([H])[H])C(C([H])([H])[H])(C([H])([H])[H])C([H])([H])[H])C([H])([H])c2c([H])c(OC([H])([H])c3c([H])c4c(c([H])c3C([H])([H])[H])C([H])(C([H])(C([H])([H])[H])C([H])([H])[H])N(C(=O)N3C([H])([H])C([H])([H])C([H])([H])C([H])(n5nc(-c6c([H])c([H])c(Oc7c([H])c([H])c(F)c([H])c7F)c([H])c6[H])c(C(=O)N([H])[H])c5N([H])[H])C3([H])[H])C([H])([H])C4([H])[H])c([H])c([H])c2C1([H])[H]

>  <smiles>  (34) 
[H]c1c([H])c([H])c2c(c1[H])C([H])([H])C([H])([H])C([H])([H])C2([H])N([H])C(=O)C1([H])N(C(=O)C([H])(N([H])C(=O)C([H])(N([H])C([H])([H])[H])C([H])([H])[H])C(C([H])([H])[H])(C([H])([H])[H])C([H])([H])[H])C([H])([H])c2c([H])c(OC([H])([H])c3c([H])c4c(c([H])c3C([H])([H])[H])C([H])(C([H])(C([H])([H])[H])C([H])([H])[H])N(C(=O)N3C([H])([H])C([H])([H])C([H])([H])C([H])(n5nc(-c6c([H])c([H])c(Oc7c([H])c([H])c(F)c([H])c7F)c([H])c6[H])c(C(=O)N([H])[H])c5N([H])[H])C3([H])[H])C([H])([H])C4([H])[H])c([H])c([H])c2C1([H])[H]

$$$$
36:0:0
     RDKit          3D

 96106  0  0  1  0  0  0  0  0999 V2000
  -28.9700  -21.5080   19.0440 C   0  0  0  0  0  3  0  0  0  0  0  0
  -29.5330  -21.0200   20.2520 C   0  0  0  0  0  0  0  0  0  0  0  0
  -29.3490  -23.3960   21.0850 C   0  0  0  0  0  0  0  0  0  0  0  0
  -28.5690  -22.8720   18.8600 C   0  0  0  0  0  0  0  0  0  0  0  0
  -28.7040  -23.8570   19.8940 C   0  0  0  0  0  0  0  0  0  0  0  0
  -29.7280  -22.0150   21.2580 C   0  0  0  0  0  0  0  0  0  0  0  0
  -27.9270  -23.2320   17.5300 C   0  0  0  0  0  1  0  0  0  0  0  0
  -31.2010  -15.1310   20.3020 C   0  0  0  0  0  0  0  0  0  0  0  0
  -30.9640  -12.8280   19.3800 C   0  0  0  0  0  2  0  0  0  0  0  0
  -30.0330  -12.7960   18.1530 C   0  0  0  0  0  2  0  0  0  0  0  0
  -28.5720  -12.5980   18.6010 C   0  0  0  0  0  2  0  0  0  0  0  0
  -28.1700  -13.5380   19.7730 C   0  0  0  0  0  3  0  0  0  0  0  0
  -29.2390  -13.5660   20.8870 C   0  0  0  0  0  2  0  0  0  0  0  0
  -30.5020  -13.9430   20.2430 N   0  0  0  0  0  0  0  0  0  0  0  0
  -32.4070  -15.0850   20.0500 O   0  0  0  0  0  0  0  0  0  0  0  0
  -28.9270  -18.4060   20.7480 C   0  0  0  0  0  2  0  0  0  0  0  0
  -30.7810  -18.8700   19.2910 C   0  0  0  0  0  2  0  0  0  0  0  0
  -29.4550  -16.9260   21.0290 C   0  0  0  0  0  2  0  0  0  0  0  0
  -31.4370  -17.4990   19.6560 C   0  0  0  0  0  2  0  0  0  0  0  0
  -29.9980  -19.5030   20.4540 C   0  0  0  0  0  3  0  0  0  0  0  0
  -30.5820  -16.3910   20.2030 N   0  0  0  0  0  0  0  0  0  0  0  0
  -25.7950  -14.0700   20.5710 C   0  0  0  0  0  0  0  0  0  0  0  0
  -24.7460  -13.2700   20.9340 C   0  0  0  0  0  0  0  0  0  0  0  0
  -25.2240  -11.9260   20.8430 C   0  0  0  0  0  0  0  0  0  0  0  0
  -26.8450  -13.2130   20.2860 N   0  0  0  0  0  0  0  0  0  0  0  0
  -26.5100  -11.9150   20.5130 N   0  0  0  0  0  0  0  0  0  0  0  0
  -24.5140  -10.6490   20.9960 C   0  0  0  0  0  0  0  0  0  0  0  0
  -24.8680   -9.7240   22.0020 C   0  0  0  0  0  3  0  0  0  0  0  0
  -24.1550   -8.5130   22.1430 C   0  0  0  0  0  3  0  0  0  0  0  0
  -23.0760   -8.2200   21.2770 C   0  0  0  0  0  0  0  0  0  0  0  0
  -22.7440   -9.1350   20.2620 C   0  0  0  0  0  3  0  0  0  0  0  0
  -23.4560  -10.3360   20.1180 C   0  0  0  0  0  3  0  0  0  0  0  0
  -22.3410   -7.0600   21.3240 O   0  0  0  0  0  0  0  0  0  0  0  0
  -21.9750   -6.4870   22.5150 C   0  0  0  0  0  0  0  0  0  0  0  0
  -21.1830   -7.1740   23.4610 C   0  0  0  0  0  3  0  0  0  0  0  0
  -20.7710   -6.5220   24.6420 C   0  0  0  0  0  3  0  0  0  0  0  0
  -21.1430   -5.1850   24.8740 C   0  0  0  0  0  0  0  0  0  0  0  0
  -21.9280   -4.4980   23.9310 C   0  0  0  0  0  3  0  0  0  0  0  0
  -22.3400   -5.1480   22.7540 C   0  0  0  0  0  0  0  0  0  0  0  0
  -23.0770   -4.4740   21.8380 F   0  0  0  0  0  0  0  0  0  0  0  0
  -20.7430   -4.5560   26.0030 F   0  0  0  0  0  0  0  0  0  0  0  0
  -23.3490  -13.7220   21.2460 C   0  0  0  0  0  0  0  0  0  0  0  0
  -22.6520  -13.0000   22.1160 N   0  0  0  0  0  0  0  0  0  0  0  0
  -22.8880  -14.7510   20.7560 O   0  0  0  0  0  0  0  0  0  0  0  0
  -23.0410  -12.1690   22.5350 H   0  0  0  0  0  0  0  0  0  0  0  0
  -21.7140  -13.2840   22.3660 H   0  0  0  0  0  0  0  0  0  0  0  0
  -25.9350  -15.4470   20.4330 N   0  0  0  0  0  0  0  0  0  0  0  0
  -25.1550  -16.0810   20.5640 H   0  0  0  0  0  0  0  0  0  0  0  0
  -26.7620  -15.9040   20.0700 H   0  0  0  0  0  0  0  0  0  0  0  0
  -30.2420  -25.7100   21.9790 C   0  0  0  0  0  2  0  0  0  0  0  0
  -30.9580  -24.6360   22.7590 C   0  0  0  0  0  2  0  0  0  0  0  0
  -29.5740  -24.3710   22.2090 C   0  0  0  0  0  3  0  0  0  0  0  0
  -29.4270  -21.5230   23.5350 C   0  0  0  0  0  1  0  0  0  0  0  0
  -30.3190  -21.6170   22.4310 O   0  0  0  0  0  0  0  0  0  0  0  0
  -27.8470  -25.2020   19.8760 C   0  0  0  0  0  2  0  0  0  0  0  0
  -28.3170  -26.6130   19.6310 O   0  0  0  0  0  0  0  0  0  0  0  0
  -24.6590  -31.8020   23.1960 C   0  0  0  0  0  0  0  0  0  0  0  0
  -27.2690  -27.5720   19.6530 C   0  0  0  0  0  0  0  0  0  0  0  0
  -23.4640  -30.5790   21.4230 C   0  0  0  0  0  3  0  0  0  0  0  0
  -24.9190  -29.2180   19.8300 C   0  0  0  0  0  0  0  0  0  0  0  0
  -26.0090  -30.9160   21.2790 C   0  0  0  0  0  2  0  0  0  0  0  0
  -26.0940  -29.6160   20.4820 C   0  0  0  0  0  0  0  0  0  0  0  0
  -27.2740  -28.8030   20.3940 C   0  0  0  0  0  3  0  0  0  0  0  0
  -26.0780  -27.2890   18.9390 C   0  0  0  0  0  3  0  0  0  0  0  0
  -24.9180  -28.0620   19.0490 C   0  0  0  0  0  3  0  0  0  0  0  0
  -23.6800  -30.0740   19.9770 C   0  0  0  0  0  2  0  0  0  0  0  0
  -24.7310  -31.1100   22.0230 N   0  0  0  0  0  0  0  0  0  0  0  0
  -23.5730  -32.0130   23.7560 O   0  0  0  0  0  0  0  0  0  0  0  0
  -22.8110  -29.4540   22.2640 C   0  0  0  0  0  0  0  0  0  0  0  0
  -21.4810  -29.3010   22.1460 N   0  0  0  0  0  0  0  0  0  0  0  0
  -23.5000  -28.7300   22.9870 O   0  0  0  0  0  0  0  0  0  0  0  0
  -20.9840  -29.9390   21.5410 H   0  0  0  0  0  0  0  0  0  0  0  0
  -18.0950  -28.1160   22.6340 C   0  0  0  0  0  0  0  0  0  0  0  0
  -20.6690  -28.2850   22.8200 C   0  0  0  0  0  3  0  0  0  0  0  0
  -20.7100  -26.9410   22.0570 C   0  0  0  0  0  2  0  0  0  0  0  0
  -19.5590  -26.7810   21.0600 C   0  0  0  0  0  2  0  0  0  0  0  0
  -18.2080  -26.8660   21.7760 C   0  0  0  0  0  2  0  0  0  0  0  0
  -19.2510  -28.7910   23.1110 C   0  0  0  0  0  0  0  0  0  0  0  0
  -19.0900  -29.9660   23.8760 C   0  0  0  0  0  3  0  0  0  0  0  0
  -17.8050  -30.4670   24.1660 C   0  0  0  0  0  3  0  0  0  0  0  0
  -16.6660  -29.7860   23.7040 C   0  0  0  0  0  3  0  0  0  0  0  0
  -16.8120  -28.6120   22.9440 C   0  0  0  0  0  3  0  0  0  0  0  0
  -25.9350  -32.3780   23.8780 C   0  0  0  0  0  3  0  0  0  0  0  0
  -26.4190  -31.5200   25.1110 C   0  0  1  0  0  0  0  0  0  0  0  0
  -25.3050  -31.2320   26.1440 C   0  0  0  0  0  1  0  0  0  0  0  0
  -26.9910  -30.1610   24.6450 C   0  0  0  0  0  1  0  0  0  0  0  0
  -27.5700  -32.2540   25.8380 C   0  0  0  0  0  1  0  0  0  0  0  0
  -25.6310  -33.7560   24.2940 N   0  0  0  0  0  0  0  0  0  0  0  0
  -25.9400  -34.8510   23.5860 C   0  0  0  0  0  0  0  0  0  0  0  0
  -26.5810  -34.8070   22.5330 O   0  0  0  0  0  0  0  0  0  0  0  0
  -25.0600  -33.8630   25.1190 H   0  0  0  0  0  0  0  0  0  0  0  0
  -24.1840  -36.6440   23.3990 C   0  0  0  0  0  1  0  0  0  0  0  0
  -25.4610  -36.2100   24.1350 C   0  0  0  0  0  3  0  0  0  0  0  0
  -27.6170  -37.0790   24.9290 C   0  0  0  0  0  1  0  0  0  0  0  0
  -26.4790  -37.2780   24.0340 N   0  0  0  0  0  0  0  0  0  0  0  0
  -26.0710  -38.1850   24.2380 H   0  0  0  0  0  0  0  0  0  0  0  0
  1  2  1  0
  2  6  2  0
  3  6  1  0
  3 52  1  0
  4  1  2  0
  4  5  1  0
  5  3  2  0
  6 54  1  0
  7  4  1  0
  9 14  1  0
 10 11  1  0
 10  9  1  0
 12 11  1  0
 12 25  1  0
 12 13  1  0
 14  8  1  0
 14 13  1  0
 15  8  2  0
 16 18  1  0
 17 19  1  0
 17 20  1  0
 19 21  1  0
 20  2  1  0
 20 16  1  0
 21  8  1  0
 21 18  1  0
 22 23  2  0
 23 42  1  0
 24 23  1  0
 24 27  1  0
 25 26  1  0
 25 22  1  0
 26 24  2  0
 27 28  1  0
 28 29  2  0
 30 33  1  0
 30 29  1  0
 31 30  2  0
 32 31  1  0
 32 27  2  0
 33 34  1  0
 34 39  2  0
 34 35  1  0
 35 36  2  0
 36 37  1  0
 37 41  1  0
 38 37  2  0
 39 38  1  0
 40 39  1  0
 42 43  1  0
 43 46  1  0
 43 45  1  0
 44 42  2  0
 47 48  1  0
 47 22  1  0
 49 47  1  0
 50 52  1  0
 50 51  1  0
 52 51  1  0
 54 53  1  0
 55  5  1  0
 56 58  1  0
 56 55  1  0
 57 68  2  0
 58 63  1  0
 59 67  1  0
 59 69  1  0
 60 66  1  0
 60 62  1  0
 61 67  1  0
 62 61  1  0
 63 62  2  0
 64 65  1  0
 64 58  2  0
 65 60  2  0
 66 59  1  0
 67 57  1  0
 69 71  2  0
 70 69  1  0
 72 70  1  0
 73 82  2  0
 73 78  1  0
 74 70  1  0
 74 78  1  0
 75 74  1  0
 76 77  1  0
 76 75  1  0
 77 73  1  0
 78 79  2  0
 79 80  1  0
 81 80  2  0
 82 81  1  0
 83 57  1  0
 83 88  1  0
 83 84  1  0
 84 87  1  1
 84 85  1  0
 86 84  1  0
 88 91  1  0
 89 93  1  0
 89 88  1  0
 90 89  2  0
 93 92  1  0
 95 93  1  0
 95 96  1  0
 95 94  1  0
M  ISO  4   8 100  21 100  55 101  56 101
M  END
>  <TORSDO>  (35) 
F 19

>  <SCORE>  (35) 
-11.518

>  <name>  (35) 
36

>  <ligand_id>  (35) 
36

>  <original_smiles>  (35) 
[H]c1c([H])c([H])c2c(c1[H])C([H])([H])C([H])([H])C([H])([H])C2([H])N([H])C(=O)C1([H])N(C(=O)C([H])(N([H])C(=O)C([H])(N([H])C([H])([H])[H])C([H])([H])[H])C(C([H])([H])[H])(C([H])([H])[H])C([H])([H])[H])C([H])([H])c2c([H])c(OC([H])([H])c3c(C([H])([H])[H])c([H])c(C4([H])C([H])([H])C([H])([H])N(C(=O)N5C([H])([H])C([H])([H])C([H])([H])C([H])(n6nc(-c7c([H])c([H])c(Oc8c([H])c([H])c(F)c([H])c8F)c([H])c7[H])c(C(=O)N([H])[H])c6N([H])[H])C5([H])[H])C([H])([H])C4([H])[H])c(OC([H])([H])[H])c3C3([H])C([H])([H])C3([H])[H])c([H])c([H])c2C1([H])[H]

>  <smiles>  (35) 
[H]c1c([H])c([H])c2c(c1[H])C([H])([H])C([H])([H])C([H])([H])C2([H])N([H])C(=O)C1([H])N(C(=O)C([H])(N([H])C(=O)C([H])(N([H])C([H])([H])[H])C([H])([H])[H])C(C([H])([H])[H])(C([H])([H])[H])C([H])([H])[H])C([H])([H])c2c([H])c(OC([H])([H])c3c(C([H])([H])[H])c([H])c(C4([H])C([H])([H])C([H])([H])N(C(=O)N5C([H])([H])C([H])([H])C([H])([H])C([H])(n6nc(-c7c([H])c([H])c(Oc8c([H])c([H])c(F)c([H])c8F)c([H])c7[H])c(C(=O)N([H])[H])c6N([H])[H])C5([H])[H])C([H])([H])C4([H])[H])c(OC([H])([H])[H])c3C3([H])C([H])([H])C3([H])[H])c([H])c([H])c2C1([H])[H]

$$$$
37:0:0
     RDKit          3D

 96106  0  0  1  0  0  0  0  0999 V2000
  -28.6920  -21.0920   18.9790 C   0  0  0  0  0  3  0  0  0  0  0  0
  -29.6360  -20.1560   20.9840 C   0  0  0  0  0  3  0  0  0  0  0  0
  -29.0640  -21.3090   20.3190 C   0  0  0  0  0  0  0  0  0  0  0  0
  -29.5210  -18.7490   18.9880 C   0  0  0  0  0  0  0  0  0  0  0  0
  -28.8910  -19.8490   18.3300 C   0  0  0  0  0  0  0  0  0  0  0  0
  -29.8560  -18.8640   20.3660 C   0  0  0  0  0  0  0  0  0  0  0  0
  -28.3860  -19.7410   16.8980 C   0  0  0  0  0  1  0  0  0  0  0  0
  -31.2660  -16.9510   18.1820 C   0  0  0  0  0  2  0  0  0  0  0  0
  -30.6190  -17.4630   16.9280 C   0  0  0  0  0  2  0  0  0  0  0  0
  -29.8450  -17.4790   18.2350 C   0  0  0  0  0  3  0  0  0  0  0  0
  -28.6620  -22.7030   22.5420 C   0  0  0  0  0  2  0  0  0  0  0  0
  -27.3720  -22.6110   21.8120 C   0  0  0  0  0  2  0  0  0  0  0  0
  -28.6740  -22.6810   21.0120 C   0  0  2  0  0  0  0  0  0  0  0  0
  -30.3590  -24.6660   20.8520 C   0  0  0  0  0  1  0  0  0  0  0  0
  -29.0670  -24.0650   20.2710 C   0  0  0  0  0  3  0  0  0  0  0  0
  -27.9530  -25.2300   20.0860 C   0  0  0  0  0  2  0  0  0  0  0  0
  -28.2380  -26.7060   20.0620 O   0  0  0  0  0  0  0  0  0  0  0  0
  -24.6340  -32.0680   23.4000 C   0  0  0  0  0  0  0  0  0  0  0  0
  -27.1340  -27.5930   20.0930 C   0  0  0  0  0  0  0  0  0  0  0  0
  -23.3800  -30.7410   21.7430 C   0  0  0  0  0  3  0  0  0  0  0  0
  -24.7830  -29.2500   20.2120 C   0  0  0  0  0  0  0  0  0  0  0  0
  -25.9200  -31.0440   21.5100 C   0  0  0  0  0  2  0  0  0  0  0  0
  -25.9750  -29.6950   20.7970 C   0  0  0  0  0  0  0  0  0  0  0  0
  -27.1520  -28.8820   20.7270 C   0  0  0  0  0  3  0  0  0  0  0  0
  -25.9110  -27.2190   19.4850 C   0  0  0  0  0  3  0  0  0  0  0  0
  -24.7570  -28.0180   19.5450 C   0  0  0  0  0  3  0  0  0  0  0  0
  -23.5510  -30.1230   20.3310 C   0  0  0  0  0  2  0  0  0  0  0  0
  -24.6650  -31.2990   22.2730 N   0  0  0  0  0  0  0  0  0  0  0  0
  -23.5660  -32.3320   23.9700 O   0  0  0  0  0  0  0  0  0  0  0  0
  -22.7380  -29.6890   22.6800 C   0  0  0  0  0  0  0  0  0  0  0  0
  -21.4310  -29.4310   22.4980 N   0  0  0  0  0  0  0  0  0  0  0  0
  -23.4160  -29.1050   23.5290 O   0  0  0  0  0  0  0  0  0  0  0  0
  -20.9420  -29.9520   21.7830 H   0  0  0  0  0  0  0  0  0  0  0  0
  -18.1360  -27.9640   22.7930 C   0  0  0  0  0  0  0  0  0  0  0  0
  -20.6350  -28.4510   23.2420 C   0  0  0  0  0  3  0  0  0  0  0  0
  -20.9030  -27.0160   22.7310 C   0  0  0  0  0  2  0  0  0  0  0  0
  -19.9130  -26.5680   21.6520 C   0  0  0  0  0  2  0  0  0  0  0  0
  -18.4770  -26.6140   22.1840 C   0  0  0  0  0  2  0  0  0  0  0  0
  -19.1510  -28.8330   23.2750 C   0  0  0  0  0  0  0  0  0  0  0  0
  -18.7820  -30.0910   23.7980 C   0  0  0  0  0  3  0  0  0  0  0  0
  -17.4320  -30.4810   23.8510 C   0  0  0  0  0  3  0  0  0  0  0  0
  -16.4300  -29.6100   23.3880 C   0  0  0  0  0  3  0  0  0  0  0  0
  -16.7830  -28.3540   22.8620 C   0  0  0  0  0  3  0  0  0  0  0  0
  -25.9370  -32.6720   24.0080 C   0  0  0  0  0  3  0  0  0  0  0  0
  -25.6640  -34.0790   24.3300 N   0  0  0  0  0  0  0  0  0  0  0  0
  -26.0130  -35.1200   23.5610 C   0  0  0  0  0  0  0  0  0  0  0  0
  -26.6730  -34.9950   22.5250 O   0  0  0  0  0  0  0  0  0  0  0  0
  -25.0810  -34.2490   25.1350 H   0  0  0  0  0  0  0  0  0  0  0  0
  -24.3200  -36.9480   23.2220 C   0  0  0  0  0  1  0  0  0  0  0  0
  -25.5660  -36.5260   24.0160 C   0  0  0  0  0  3  0  0  0  0  0  0
  -27.7280  -37.3740   24.8120 C   0  0  0  0  0  1  0  0  0  0  0  0
  -26.6210  -37.5540   23.8750 N   0  0  0  0  0  0  0  0  0  0  0  0
  -26.2370  -38.4860   24.0140 H   0  0  0  0  0  0  0  0  0  0  0  0
  -26.4400  -31.8980   25.2890 C   0  0  1  0  0  0  0  0  0  0  0  0
  -25.3350  -31.6640   26.3460 C   0  0  0  0  0  1  0  0  0  0  0  0
  -27.0200  -30.5170   24.9040 C   0  0  0  0  0  1  0  0  0  0  0  0
  -27.5900  -32.6870   25.9560 C   0  0  0  0  0  1  0  0  0  0  0  0
  -30.5560  -17.6760   21.1610 C   0  0  0  0  0  2  0  0  0  0  0  0
  -30.8570  -15.0930   21.0770 C   0  0  0  0  0  0  0  0  0  0  0  0
  -30.7860  -12.7680   20.1820 C   0  0  0  0  0  2  0  0  0  0  0  0
  -30.0190  -12.7660   18.8420 C   0  0  0  0  0  2  0  0  0  0  0  0
  -28.5020  -12.6220   19.0810 C   0  0  0  0  0  2  0  0  0  0  0  0
  -27.9690  -13.5510   20.2060 C   0  0  0  0  0  3  0  0  0  0  0  0
  -28.8810  -13.5370   21.4520 C   0  0  0  0  0  2  0  0  0  0  0  0
  -30.2380  -13.8700   21.0010 N   0  0  0  0  0  0  0  0  0  0  0  0
  -32.0760  -15.1840   20.9170 O   0  0  0  0  0  0  0  0  0  0  0  0
  -30.0800  -16.2310   21.1230 N   0  0  0  0  0  0  0  0  0  0  0  0
  -29.0860  -16.0880   21.2080 H   0  0  0  0  0  0  0  0  0  0  0  0
  -25.5080  -14.1200   20.6630 C   0  0  0  0  0  0  0  0  0  0  0  0
  -24.4110  -13.3370   20.8980 C   0  0  0  0  0  0  0  0  0  0  0  0
  -24.8810  -11.9890   20.8990 C   0  0  0  0  0  0  0  0  0  0  0  0
  -26.5770  -13.2490   20.5360 N   0  0  0  0  0  0  0  0  0  0  0  0
  -26.1990  -11.9600   20.7390 N   0  0  0  0  0  0  0  0  0  0  0  0
  -24.1450  -10.7200   20.9840 C   0  0  0  0  0  0  0  0  0  0  0  0
  -24.5050   -9.7180   21.9120 C   0  0  0  0  0  3  0  0  0  0  0  0
  -23.7680   -8.5160   21.9880 C   0  0  0  0  0  3  0  0  0  0  0  0
  -22.6600   -8.3060   21.1340 C   0  0  0  0  0  0  0  0  0  0  0  0
  -22.3230   -9.2970   20.1960 C   0  0  0  0  0  3  0  0  0  0  0  0
  -23.0580  -10.4910   20.1180 C   0  0  0  0  0  3  0  0  0  0  0  0
  -21.9040   -7.1610   21.1200 O   0  0  0  0  0  0  0  0  0  0  0  0
  -21.7600   -6.3780   22.2380 C   0  0  0  0  0  0  0  0  0  0  0  0
  -21.1960   -6.8790   23.4310 C   0  0  0  0  0  3  0  0  0  0  0  0
  -21.0070   -6.0220   24.5340 C   0  0  0  0  0  3  0  0  0  0  0  0
  -21.3660   -4.6640   24.4410 C   0  0  0  0  0  0  0  0  0  0  0  0
  -21.9200   -4.1610   23.2500 C   0  0  0  0  0  3  0  0  0  0  0  0
  -22.1140   -5.0150   22.1500 C   0  0  0  0  0  0  0  0  0  0  0  0
  -22.6290   -4.5220   21.0000 F   0  0  0  0  0  0  0  0  0  0  0  0
  -21.1750   -3.8380   25.4960 F   0  0  0  0  0  0  0  0  0  0  0  0
  -22.9900  -13.8040   21.0210 C   0  0  0  0  0  0  0  0  0  0  0  0
  -22.1790  -13.1000   21.8030 N   0  0  0  0  0  0  0  0  0  0  0  0
  -22.6030  -14.8290   20.4590 O   0  0  0  0  0  0  0  0  0  0  0  0
  -22.5000  -12.2680   22.2760 H   0  0  0  0  0  0  0  0  0  0  0  0
  -21.2220  -13.3960   21.9320 H   0  0  0  0  0  0  0  0  0  0  0  0
  -25.6860  -15.4920   20.5230 N   0  0  0  0  0  0  0  0  0  0  0  0
  -24.9130  -16.1480   20.5590 H   0  0  0  0  0  0  0  0  0  0  0  0
  -26.5630  -15.9400   20.2950 H   0  0  0  0  0  0  0  0  0  0  0  0
  1  3  1  0
  3  2  2  0
  3 13  1  0
  4  6  2  0
  5  1  2  0
  5  4  1  0
  6  2  1  0
  6 58  1  0
  7  5  1  0
  8 10  1  0
  9  8  1  0
  9 10  1  0
 10  4  1  0
 12 11  1  0
 13 12  1  0
 13 11  1  0
 15 14  1  0
 13 15  1  6
 16 15  1  0
 17 16  1  0
 17 19  1  0
 18 29  2  0
 19 24  1  0
 20 28  1  0
 20 30  1  0
 21 27  1  0
 21 23  1  0
 22 28  1  0
 23 22  1  0
 24 23  2  0
 25 26  1  0
 25 19  2  0
 26 21  2  0
 27 20  1  0
 28 18  1  0
 30 32  2  0
 31 30  1  0
 33 31  1  0
 34 43  2  0
 34 39  1  0
 35 31  1  0
 35 39  1  0
 36 35  1  0
 37 38  1  0
 37 36  1  0
 38 34  1  0
 39 40  2  0
 40 41  1  0
 42 41  2  0
 43 42  1  0
 44 18  1  0
 44 45  1  0
 44 54  1  0
 45 48  1  0
 46 50  1  0
 46 45  1  0
 47 46  2  0
 50 49  1  0
 52 53  1  0
 52 50  1  0
 52 51  1  0
 54 57  1  1
 54 55  1  0
 56 54  1  0
 59 67  1  0
 60 65  1  0
 61 62  1  0
 61 60  1  0
 63 62  1  0
 63 72  1  0
 63 64  1  0
 65 59  1  0
 65 64  1  0
 66 59  2  0
 67 58  1  0
 67 68  1  0
 69 70  2  0
 70 71  1  0
 70 89  1  0
 71 74  1  0
 72 69  1  0
 72 73  1  0
 73 71  2  0
 74 75  1  0
 75 76  2  0
 77 76  1  0
 78 77  2  0
 79 78  1  0
 79 74  2  0
 80 77  1  0
 80 81  1  0
 81 82  1  0
 82 83  2  0
 84 83  1  0
 84 88  1  0
 85 84  2  0
 86 81  2  0
 86 85  1  0
 87 86  1  0
 89 90  1  0
 90 93  1  0
 90 92  1  0
 91 89  2  0
 94 95  1  0
 94 69  1  0
 96 94  1  0
M  ISO  4  16 101  17 101  59 100  67 100
M  END
>  <TORSDO>  (36) 
F 21

>  <SCORE>  (36) 
-12.587

>  <name>  (36) 
37

>  <ligand_id>  (36) 
37

>  <original_smiles>  (36) 
[H]c1c([H])c([H])c2c(c1[H])C([H])([H])C([H])([H])C([H])([H])C2([H])N([H])C(=O)C1([H])N(C(=O)C([H])(N([H])C(=O)C([H])(N([H])C([H])([H])[H])C([H])([H])[H])C(C([H])([H])[H])(C([H])([H])[H])C([H])([H])[H])C([H])([H])c2c([H])c(OC([H])([H])C([H])(C([H])([H])[H])C3(c4c([H])c(C([H])([H])[H])c(C5([H])C([H])([H])C5([H])[H])c(C([H])([H])N([H])C(=O)N5C([H])([H])C([H])([H])C([H])([H])C([H])(n6nc(-c7c([H])c([H])c(Oc8c([H])c([H])c(F)c([H])c8F)c([H])c7[H])c(C(=O)N([H])[H])c6N([H])[H])C5([H])[H])c4[H])C([H])([H])C3([H])[H])c([H])c([H])c2C1([H])[H]

>  <smiles>  (36) 
[H]c1c([H])c([H])c2c(c1[H])C([H])([H])C([H])([H])C([H])([H])C2([H])N([H])C(=O)C1([H])N(C(=O)C([H])(N([H])C(=O)C([H])(N([H])C([H])([H])[H])C([H])([H])[H])C(C([H])([H])[H])(C([H])([H])[H])C([H])([H])[H])C([H])([H])c2c([H])c(OC([H])([H])C([H])(C([H])([H])[H])C3(c4c([H])c(C([H])([H])[H])c(C5([H])C([H])([H])C5([H])[H])c(C([H])([H])N([H])C(=O)N5C([H])([H])C([H])([H])C([H])([H])C([H])(n6nc(-c7c([H])c([H])c(Oc8c([H])c([H])c(F)c([H])c8F)c([H])c7[H])c(C(=O)N([H])[H])c6N([H])[H])C5([H])[H])c4[H])C([H])([H])C3([H])[H])c([H])c([H])c2C1([H])[H]

$$$$
38:0:0
     RDKit          3D

 96106  0  0  1  0  0  0  0  0999 V2000
  -29.9420  -22.1350   19.6610 C   0  0  0  0  0  3  0  0  0  0  0  0
  -30.1200  -21.3070   20.7480 C   0  0  0  0  0  0  0  0  0  0  0  0
  -29.6440  -21.8890   22.0030 C   0  0  0  0  0  0  0  0  0  0  0  0
  -28.8020  -22.9280   22.0180 C   0  0  0  0  0  0  0  0  0  0  0  0
  -28.4130  -23.6390   20.8060 C   0  0  0  0  0  0  0  0  0  0  0  0
  -28.4600  -23.4100   23.4020 C   0  0  0  0  0  2  0  0  0  0  0  0
  -29.0980  -22.3430   24.3090 C   0  0  0  0  0  2  0  0  0  0  0  0
  -30.0870  -21.5510   23.4200 C   0  0  0  0  0  3  0  0  0  0  0  0
  -31.5350  -21.9970   23.6790 C   0  0  0  0  0  1  0  0  0  0  0  0
  -29.2080  -23.3880   19.7250 N   0  0  0  0  0  0  0  0  0  0  0  0
  -27.4820  -24.4530   20.7850 O   0  0  0  0  0  0  0  0  0  0  0  0
  -32.2770  -15.6680   20.0780 C   0  0  0  0  0  0  0  0  0  0  0  0
  -31.9010  -13.4120   19.0810 C   0  0  0  0  0  2  0  0  0  0  0  0
  -30.9310  -13.4720   17.8830 C   0  0  0  0  0  2  0  0  0  0  0  0
  -29.4740  -13.3340   18.3640 C   0  0  0  0  0  2  0  0  0  0  0  0
  -29.1610  -14.2680   19.5600 C   0  0  0  0  0  3  0  0  0  0  0  0
  -30.2540  -14.1640   20.6540 C   0  0  0  0  0  2  0  0  0  0  0  0
  -31.5280  -14.5080   20.0100 N   0  0  0  0  0  0  0  0  0  0  0  0
  -33.4550  -15.6030   19.7090 O   0  0  0  0  0  0  0  0  0  0  0  0
  -29.8650  -18.7060   20.3940 C   0  0  0  0  0  2  0  0  0  0  0  0
  -32.0750  -19.5750   20.0140 C   0  0  0  0  0  2  0  0  0  0  0  0
  -30.4160  -17.3260   20.8660 C   0  0  0  0  0  2  0  0  0  0  0  0
  -32.6620  -18.1360   20.3110 C   0  0  0  0  0  2  0  0  0  0  0  0
  -30.7880  -19.8780   20.8020 C   0  0  0  0  0  3  0  0  0  0  0  0
  -31.7380  -16.9420   20.3120 N   0  0  0  0  0  0  0  0  0  0  0  0
  -26.8470  -14.9750   20.4200 C   0  0  0  0  0  0  0  0  0  0  0  0
  -25.7530  -14.2480   20.8000 C   0  0  0  0  0  0  0  0  0  0  0  0
  -26.1320  -12.8760   20.6830 C   0  0  0  0  0  0  0  0  0  0  0  0
  -27.8250  -14.0480   20.0980 N   0  0  0  0  0  0  0  0  0  0  0  0
  -27.4040  -12.7780   20.3170 N   0  0  0  0  0  0  0  0  0  0  0  0
  -25.3420  -11.6500   20.8370 C   0  0  0  0  0  0  0  0  0  0  0  0
  -25.6820  -10.6690   21.7940 C   0  0  0  0  0  3  0  0  0  0  0  0
  -24.8960   -9.5060   21.9360 C   0  0  0  0  0  3  0  0  0  0  0  0
  -23.7540   -9.3180   21.1210 C   0  0  0  0  0  0  0  0  0  0  0  0
  -23.4340  -10.2870   20.1540 C   0  0  0  0  0  3  0  0  0  0  0  0
  -24.2210  -11.4410   20.0100 C   0  0  0  0  0  3  0  0  0  0  0  0
  -22.9450   -8.2080   21.1710 O   0  0  0  0  0  0  0  0  0  0  0  0
  -22.6240   -7.6070   22.3610 C   0  0  0  0  0  0  0  0  0  0  0  0
  -21.9900   -8.3130   23.4060 C   0  0  0  0  0  3  0  0  0  0  0  0
  -21.6140   -7.6390   24.5850 C   0  0  0  0  0  3  0  0  0  0  0  0
  -21.8630   -6.2590   24.7180 C   0  0  0  0  0  0  0  0  0  0  0  0
  -22.4890   -5.5530   23.6760 C   0  0  0  0  0  3  0  0  0  0  0  0
  -22.8660   -6.2250   22.4990 C   0  0  0  0  0  0  0  0  0  0  0  0
  -23.4500   -5.5360   21.4900 F   0  0  0  0  0  0  0  0  0  0  0  0
  -21.4940   -5.6090   25.8460 F   0  0  0  0  0  0  0  0  0  0  0  0
  -24.3980  -14.7910   21.1520 C   0  0  0  0  0  0  0  0  0  0  0  0
  -23.6770  -14.1100   22.0360 N   0  0  0  0  0  0  0  0  0  0  0  0
  -23.9910  -15.8530   20.6820 O   0  0  0  0  0  0  0  0  0  0  0  0
  -24.0200  -13.2510   22.4390 H   0  0  0  0  0  0  0  0  0  0  0  0
  -22.7700  -14.4540   22.3160 H   0  0  0  0  0  0  0  0  0  0  0  0
  -27.0780  -16.3420   20.2980 N   0  0  0  0  0  0  0  0  0  0  0  0
  -26.3520  -17.0270   20.4780 H   0  0  0  0  0  0  0  0  0  0  0  0
  -27.9310  -16.7530   19.9420 H   0  0  0  0  0  0  0  0  0  0  0  0
  -29.1110  -24.3490   18.5590 C   0  0  0  0  0  2  0  0  0  0  0  0
  -29.2800  -25.9010   18.8990 C   0  0  0  0  0  2  0  0  0  0  0  0
  -28.7100  -26.9220   18.0050 O   0  0  0  0  0  0  0  0  0  0  0  0
  -25.1070  -30.6450   23.0100 C   0  0  0  0  0  0  0  0  0  0  0  0
  -27.5230  -27.5290   18.4130 C   0  0  0  0  0  0  0  0  0  0  0  0
  -23.7510  -29.5520   21.2550 C   0  0  0  0  0  3  0  0  0  0  0  0
  -25.0430  -28.6660   19.2360 C   0  0  0  0  0  0  0  0  0  0  0  0
  -26.1490  -30.3070   20.7600 C   0  0  0  0  0  2  0  0  0  0  0  0
  -26.2440  -29.1750   19.7480 C   0  0  0  0  0  0  0  0  0  0  0  0
  -27.4870  -28.6230   19.3260 C   0  0  0  0  0  3  0  0  0  0  0  0
  -26.2970  -27.0520   17.9050 C   0  0  0  0  0  3  0  0  0  0  0  0
  -25.0680  -27.6110   18.3070 C   0  0  0  0  0  3  0  0  0  0  0  0
  -23.7540  -29.2930   19.7250 C   0  0  0  0  0  2  0  0  0  0  0  0
  -25.0300  -30.1720   21.7320 N   0  0  0  0  0  0  0  0  0  0  0  0
  -24.1290  -30.6030   23.7710 O   0  0  0  0  0  0  0  0  0  0  0  0
  -23.4020  -28.2330   21.9840 C   0  0  0  0  0  0  0  0  0  0  0  0
  -22.1630  -27.7470   21.7920 N   0  0  0  0  0  0  0  0  0  0  0  0
  -24.2420  -27.6560   22.6790 O   0  0  0  0  0  0  0  0  0  0  0  0
  -21.5300  -28.2830   21.2160 H   0  0  0  0  0  0  0  0  0  0  0  0
  -19.3440  -25.4860   21.7070 C   0  0  0  0  0  0  0  0  0  0  0  0
  -21.6350  -26.4990   22.3440 C   0  0  0  0  0  3  0  0  0  0  0  0
  -22.2590  -25.2710   21.6410 C   0  0  0  0  0  2  0  0  0  0  0  0
  -21.4250  -24.7650   20.4600 C   0  0  0  0  0  2  0  0  0  0  0  0
  -20.0190  -24.3720   20.9240 C   0  0  0  0  0  2  0  0  0  0  0  0
  -20.1020  -26.4930   22.3600 C   0  0  0  0  0  0  0  0  0  0  0  0
  -19.4240  -27.5240   23.0460 C   0  0  0  0  0  3  0  0  0  0  0  0
  -18.0170  -27.5580   23.0870 C   0  0  0  0  0  3  0  0  0  0  0  0
  -17.2720  -26.5500   22.4500 C   0  0  0  0  0  3  0  0  0  0  0  0
  -17.9350  -25.5160   21.7670 C   0  0  0  0  0  3  0  0  0  0  0  0
  -26.4170  -31.2810   23.5680 C   0  0  0  0  0  3  0  0  0  0  0  0
  -26.0450  -32.5110   24.2810 N   0  0  0  0  0  0  0  0  0  0  0  0
  -26.2720  -33.7520   23.8290 C   0  0  0  0  0  0  0  0  0  0  0  0
  -26.8890  -33.9810   22.7840 O   0  0  0  0  0  0  0  0  0  0  0  0
  -25.4880  -32.3990   25.1150 H   0  0  0  0  0  0  0  0  0  0  0  0
  -24.4400  -35.4640   24.0280 C   0  0  0  0  0  1  0  0  0  0  0  0
  -25.7300  -34.9260   24.6680 C   0  0  0  0  0  3  0  0  0  0  0  0
  -27.8420  -35.6730   25.6740 C   0  0  0  0  0  1  0  0  0  0  0  0
  -26.7020  -36.0290   24.8340 N   0  0  0  0  0  0  0  0  0  0  0  0
  -26.2520  -36.8470   25.2370 H   0  0  0  0  0  0  0  0  0  0  0  0
  -27.2240  -30.3110   24.5170 C   0  0  1  0  0  0  0  0  0  0  0  0
  -26.3680  -29.6970   25.6500 C   0  0  0  0  0  1  0  0  0  0  0  0
  -27.8430  -29.1480   23.7090 C   0  0  0  0  0  1  0  0  0  0  0  0
  -28.4010  -31.0750   25.1690 C   0  0  0  0  0  1  0  0  0  0  0  0
  1 10  1  0
  1  2  2  0
  2  3  1  0
  3  4  2  0
  3  8  1  0
  4  6  1  0
  5  4  1  0
  6  7  1  0
  8  9  1  0
  8  7  1  0
 10  5  1  0
 11  5  2  0
 12 25  1  0
 13 18  1  0
 14 15  1  0
 14 13  1  0
 16 15  1  0
 16 29  1  0
 16 17  1  0
 18 12  1  0
 18 17  1  0
 19 12  2  0
 20 24  1  0
 20 22  1  0
 21 23  1  0
 21 24  1  0
 23 25  1  0
 24  2  1  0
 25 22  1  0
 26 27  2  0
 27 46  1  0
 28 27  1  0
 28 31  1  0
 29 30  1  0
 29 26  1  0
 30 28  2  0
 31 32  1  0
 32 33  2  0
 34 37  1  0
 34 33  1  0
 35 34  2  0
 36 35  1  0
 36 31  2  0
 37 38  1  0
 38 43  2  0
 38 39  1  0
 39 40  2  0
 40 41  1  0
 41 45  1  0
 42 41  2  0
 43 42  1  0
 44 43  1  0
 46 47  1  0
 47 50  1  0
 47 49  1  0
 48 46  2  0
 51 26  1  0
 51 52  1  0
 53 51  1  0
 54 55  1  0
 54 10  1  0
 56 58  1  0
 56 55  1  0
 57 68  2  0
 58 63  1  0
 59 67  1  0
 59 69  1  0
 60 66  1  0
 60 62  1  0
 61 67  1  0
 62 61  1  0
 63 62  2  0
 64 65  1  0
 64 58  2  0
 65 60  2  0
 66 59  1  0
 67 57  1  0
 69 71  2  0
 70 69  1  0
 72 70  1  0
 73 82  2  0
 73 78  1  0
 74 70  1  0
 74 78  1  0
 75 74  1  0
 76 77  1  0
 76 75  1  0
 77 73  1  0
 78 79  2  0
 79 80  1  0
 81 80  2  0
 82 81  1  0
 83 57  1  0
 83 84  1  0
 83 93  1  0
 84 87  1  0
 85 84  1  0
 85 89  1  0
 86 85  2  0
 89 88  1  0
 89 91  1  0
 91 92  1  0
 91 90  1  0
 93 96  1  1
 93 94  1  0
 95 93  1  0
M  ISO  4  12 100  25 100  55 101  56 101
M  END
>  <TORSDO>  (37) 
F 18

>  <SCORE>  (37) 
-5.856

>  <name>  (37) 
38

>  <ligand_id>  (37) 
38

>  <original_smiles>  (37) 
[H]c1c([H])c([H])c2c(c1[H])C([H])([H])C([H])([H])C([H])([H])C2([H])N([H])C(=O)C1([H])N(C(=O)C([H])(N([H])C(=O)C([H])(N([H])C([H])([H])[H])C([H])([H])[H])C(C([H])([H])[H])(C([H])([H])[H])C([H])([H])[H])C([H])([H])c2c([H])c(OC([H])([H])C([H])([H])n3c([H])c(C4([H])C([H])([H])C([H])([H])N(C(=O)N5C([H])([H])C([H])([H])C([H])([H])C([H])(n6nc(-c7c([H])c([H])c(Oc8c([H])c([H])c(F)c([H])c8F)c([H])c7[H])c(C(=O)N([H])[H])c6N([H])[H])C5([H])[H])C([H])([H])C4([H])[H])c4c(c3=O)C([H])([H])C([H])([H])C4([H])C([H])([H])[H])c([H])c([H])c2C1([H])[H]

>  <smiles>  (37) 
[H]c1c([H])c([H])c2c(c1[H])C([H])([H])C([H])([H])C([H])([H])C2([H])N([H])C(=O)C1([H])N(C(=O)C([H])(N([H])C(=O)C([H])(N([H])C([H])([H])[H])C([H])([H])[H])C(C([H])([H])[H])(C([H])([H])[H])C([H])([H])[H])C([H])([H])c2c([H])c(OC([H])([H])C([H])([H])n3c([H])c(C4([H])C([H])([H])C([H])([H])N(C(=O)N5C([H])([H])C([H])([H])C([H])([H])C([H])(n6nc(-c7c([H])c([H])c(Oc8c([H])c([H])c(F)c([H])c8F)c([H])c7[H])c(C(=O)N([H])[H])c6N([H])[H])C5([H])[H])C([H])([H])C4([H])[H])c4c(c3=O)C([H])([H])C([H])([H])C4([H])C([H])([H])[H])c([H])c([H])c2C1([H])[H]

$$$$
39:0:0
     RDKit          3D

 92101  0  0  1  0  0  0  0  0999 V2000
  -29.4110  -20.4990   20.7080 C   0  0  0  0  0  3  0  0  0  0  0  0
  -28.9530  -21.7110   19.9760 C   0  0  0  0  0  0  0  0  0  0  0  0
  -28.6110  -21.3980   18.6600 C   0  0  0  0  0  0  0  0  0  0  0  0
  -29.3870  -19.1150   20.1450 C   0  0  0  0  0  0  0  0  0  0  0  0
  -28.5340  -20.0680   18.1730 C   0  0  0  0  0  0  0  0  0  0  0  0
  -28.6120  -22.6440   17.8070 C   0  0  0  0  0  2  0  0  0  0  0  0
  -29.4780  -23.6330   18.6220 C   0  0  0  0  0  2  0  0  0  0  0  0
  -29.1650  -23.3620   20.1170 C   0  0  2  0  0  0  0  0  0  0  0  0
  -28.1570  -19.8000   16.7300 C   0  0  0  0  0  1  0  0  0  0  0  0
  -30.3700  -23.6240   21.0310 C   0  0  0  0  0  1  0  0  0  0  0  0
  -28.8810  -18.9700   18.9000 N   0  0  0  0  0  0  0  0  0  0  0  0
  -30.0880  -17.7340   20.7460 C   0  0  0  0  0  2  0  0  0  0  0  0
  -30.5070  -15.0210   20.3310 C   0  0  0  0  0  0  0  0  0  0  0  0
  -30.4020  -12.6680   19.3690 C   0  0  0  0  0  2  0  0  0  0  0  0
  -29.4670  -12.6030   18.1400 C   0  0  0  0  0  2  0  0  0  0  0  0
  -28.0040  -12.3870   18.5780 C   0  0  0  0  0  2  0  0  0  0  0  0
  -27.5930  -13.3100   19.7550 C   0  0  0  0  0  3  0  0  0  0  0  0
  -28.6510  -13.3330   20.8750 C   0  0  0  0  0  2  0  0  0  0  0  0
  -29.9090  -13.7620   20.2530 N   0  0  0  0  0  0  0  0  0  0  0  0
  -31.7230  -15.0690   20.1170 O   0  0  0  0  0  0  0  0  0  0  0  0
  -29.7330  -16.2140   20.4550 N   0  0  0  0  0  0  0  0  0  0  0  0
  -28.7380  -16.0490   20.4570 H   0  0  0  0  0  0  0  0  0  0  0  0
  -25.2130  -13.8800   20.5030 C   0  0  0  0  0  0  0  0  0  0  0  0
  -24.1510  -13.1030   20.8740 C   0  0  0  0  0  0  0  0  0  0  0  0
  -24.6210  -11.7540   20.8440 C   0  0  0  0  0  0  0  0  0  0  0  0
  -26.2580  -13.0060   20.2600 N   0  0  0  0  0  0  0  0  0  0  0  0
  -25.9120  -11.7220   20.5350 N   0  0  0  0  0  0  0  0  0  0  0  0
  -23.8970  -10.4890   21.0320 C   0  0  0  0  0  0  0  0  0  0  0  0
  -24.3280   -9.5230   21.9680 C   0  0  0  0  0  3  0  0  0  0  0  0
  -23.6020   -8.3260   22.1470 C   0  0  0  0  0  3  0  0  0  0  0  0
  -22.4320   -8.0860   21.3870 C   0  0  0  0  0  0  0  0  0  0  0  0
  -22.0200   -9.0410   20.4390 C   0  0  0  0  0  3  0  0  0  0  0  0
  -22.7470  -10.2280   20.2590 C   0  0  0  0  0  3  0  0  0  0  0  0
  -21.6770   -6.9420   21.4750 O   0  0  0  0  0  0  0  0  0  0  0  0
  -21.6180   -6.2030   22.6300 C   0  0  0  0  0  0  0  0  0  0  0  0
  -21.1750   -6.7610   23.8490 C   0  0  0  0  0  3  0  0  0  0  0  0
  -21.0650   -5.9490   24.9960 C   0  0  0  0  0  3  0  0  0  0  0  0
  -21.3880   -4.5810   24.9250 C   0  0  0  0  0  0  0  0  0  0  0  0
  -21.8250   -4.0230   23.7100 C   0  0  0  0  0  3  0  0  0  0  0  0
  -21.9360   -4.8320   22.5660 C   0  0  0  0  0  0  0  0  0  0  0  0
  -22.3360   -4.2840   21.3930 F   0  0  0  0  0  0  0  0  0  0  0  0
  -21.2750   -3.7980   26.0240 F   0  0  0  0  0  0  0  0  0  0  0  0
  -22.7520  -13.5770   21.1390 C   0  0  0  0  0  0  0  0  0  0  0  0
  -22.0200  -12.8800   22.0000 N   0  0  0  0  0  0  0  0  0  0  0  0
  -22.3180  -14.6030   20.6170 O   0  0  0  0  0  0  0  0  0  0  0  0
  -22.3870  -12.0530   22.4490 H   0  0  0  0  0  0  0  0  0  0  0  0
  -21.0810  -13.1800   22.2160 H   0  0  0  0  0  0  0  0  0  0  0  0
  -25.3680  -15.2520   20.3220 N   0  0  0  0  0  0  0  0  0  0  0  0
  -24.5900  -15.8950   20.4290 H   0  0  0  0  0  0  0  0  0  0  0  0
  -26.1950  -15.6950   19.9410 H   0  0  0  0  0  0  0  0  0  0  0  0
  -28.0170  -24.5850   20.4170 C   0  0  0  0  0  2  0  0  0  0  0  0
  -28.2590  -26.1430   20.3200 O   0  0  0  0  0  0  0  0  0  0  0  0
  -24.6240  -31.8980   23.2490 C   0  0  0  0  0  0  0  0  0  0  0  0
  -27.1980  -27.1310   20.2710 C   0  0  0  0  0  0  0  0  0  0  0  0
  -23.4250  -30.4880   21.6230 C   0  0  0  0  0  3  0  0  0  0  0  0
  -24.8730  -28.8960   20.2170 C   0  0  0  0  0  0  0  0  0  0  0  0
  -25.9820  -30.7450   21.4590 C   0  0  0  0  0  2  0  0  0  0  0  0
  -26.0550  -29.3430   20.8230 C   0  0  0  0  0  0  0  0  0  0  0  0
  -27.2170  -28.4770   20.8290 C   0  0  0  0  0  3  0  0  0  0  0  0
  -25.9900  -26.7960   19.6200 C   0  0  0  0  0  3  0  0  0  0  0  0
  -24.8560  -27.6380   19.5980 C   0  0  0  0  0  3  0  0  0  0  0  0
  -23.6490  -29.7980   20.2520 C   0  0  0  0  0  2  0  0  0  0  0  0
  -24.6980  -31.0670   22.1650 N   0  0  0  0  0  0  0  0  0  0  0  0
  -23.5370  -32.1890   23.7730 O   0  0  0  0  0  0  0  0  0  0  0  0
  -22.7450  -29.4910   22.5940 C   0  0  0  0  0  0  0  0  0  0  0  0
  -21.4180  -29.3150   22.4640 N   0  0  0  0  0  0  0  0  0  0  0  0
  -23.4150  -28.8760   23.4280 O   0  0  0  0  0  0  0  0  0  0  0  0
  -20.9330  -29.8650   21.7680 H   0  0  0  0  0  0  0  0  0  0  0  0
  -18.0380  -28.1120   22.9710 C   0  0  0  0  0  0  0  0  0  0  0  0
  -20.5950  -28.3850   23.2430 C   0  0  0  0  0  3  0  0  0  0  0  0
  -20.7020  -26.9470   22.6860 C   0  0  0  0  0  2  0  0  0  0  0  0
  -19.6040  -26.6080   21.6710 C   0  0  0  0  0  2  0  0  0  0  0  0
  -18.2200  -26.7560   22.3100 C   0  0  0  0  0  2  0  0  0  0  0  0
  -19.1530  -28.8830   23.3950 C   0  0  0  0  0  0  0  0  0  0  0  0
  -18.9270  -30.1490   23.9760 C   0  0  0  0  0  3  0  0  0  0  0  0
  -17.6200  -30.6460   24.1370 C   0  0  0  0  0  3  0  0  0  0  0  0
  -16.5190  -29.8730   23.7270 C   0  0  0  0  0  3  0  0  0  0  0  0
  -16.7300  -28.6080   23.1510 C   0  0  0  0  0  3  0  0  0  0  0  0
  -25.9000  -32.5410   23.8730 C   0  0  0  0  0  3  0  0  0  0  0  0
  -25.5840  -33.9430   24.1940 N   0  0  0  0  0  0  0  0  0  0  0  0
  -25.9110  -34.9960   23.4320 C   0  0  0  0  0  0  0  0  0  0  0  0
  -26.5740  -34.8880   22.3960 O   0  0  0  0  0  0  0  0  0  0  0  0
  -24.9970  -34.0990   25.0000 H   0  0  0  0  0  0  0  0  0  0  0  0
  -24.1790  -36.7880   23.0840 C   0  0  0  0  0  1  0  0  0  0  0  0
  -25.4270  -36.3870   23.8870 C   0  0  0  0  0  3  0  0  0  0  0  0
  -27.5660  -37.2800   24.6990 C   0  0  0  0  0  1  0  0  0  0  0  0
  -26.4580  -37.4400   23.7610 N   0  0  0  0  0  0  0  0  0  0  0  0
  -26.0520  -38.3610   23.9030 H   0  0  0  0  0  0  0  0  0  0  0  0
  -26.4090  -31.7860   25.1620 C   0  0  1  0  0  0  0  0  0  0  0  0
  -25.3090  -31.5610   26.2280 C   0  0  0  0  0  1  0  0  0  0  0  0
  -26.9930  -30.4030   24.7950 C   0  0  0  0  0  1  0  0  0  0  0  0
  -27.5560  -32.5870   25.8220 C   0  0  0  0  0  1  0  0  0  0  0  0
  2  8  1  0
  2  1  2  0
  3  2  1  0
  4  1  1  0
  4 12  1  0
  5  3  2  0
  5 11  1  0
  6  7  1  0
  6  3  1  0
  7  8  1  0
  8 51  1  0
  8 10  1  1
  9  5  1  0
 11  4  2  0
 13 21  1  0
 14 19  1  0
 15 16  1  0
 15 14  1  0
 17 16  1  0
 17 26  1  0
 17 18  1  0
 19 13  1  0
 19 18  1  0
 20 13  2  0
 21 22  1  0
 21 12  1  0
 23 24  2  0
 24 43  1  0
 25 24  1  0
 25 28  1  0
 26 23  1  0
 26 27  1  0
 27 25  2  0
 28 29  1  0
 29 30  2  0
 31 34  1  0
 31 30  1  0
 32 31  2  0
 33 32  1  0
 33 28  2  0
 34 35  1  0
 35 36  1  0
 36 37  2  0
 38 37  1  0
 38 42  1  0
 39 38  2  0
 40 35  2  0
 40 39  1  0
 41 40  1  0
 43 44  1  0
 44 47  1  0
 44 46  1  0
 45 43  2  0
 48 49  1  0
 48 23  1  0
 50 48  1  0
 52 51  1  0
 53 64  2  0
 54 52  1  0
 54 59  1  0
 55 63  1  0
 55 65  1  0
 56 62  1  0
 56 58  1  0
 57 63  1  0
 58 59  2  0
 58 57  1  0
 60 54  2  0
 61 60  1  0
 61 56  2  0
 62 55  1  0
 63 53  1  0
 65 67  2  0
 66 65  1  0
 68 66  1  0
 69 78  2  0
 69 74  1  0
 70 66  1  0
 70 74  1  0
 71 70  1  0
 72 73  1  0
 72 71  1  0
 73 69  1  0
 74 75  2  0
 75 76  1  0
 77 76  2  0
 78 77  1  0
 79 53  1  0
 79 80  1  0
 79 89  1  0
 80 83  1  0
 81 85  1  0
 81 80  1  0
 82 81  2  0
 85 84  1  0
 87 85  1  0
 87 88  1  0
 87 86  1  0
 89 92  1  1
 89 90  1  0
 91 89  1  0
M  ISO  4  13 100  21 100  51 101  52 101
M  END
>  <TORSDO>  (38) 
F 18

>  <SCORE>  (38) 
-15.549

>  <name>  (38) 
39

>  <ligand_id>  (38) 
39

>  <original_smiles>  (38) 
[H]c1c([H])c([H])c2c(c1[H])C([H])([H])C([H])([H])C([H])([H])C2([H])N([H])C(=O)C1([H])N(C(=O)C([H])(N([H])C(=O)C([H])(N([H])C([H])([H])[H])C([H])([H])[H])C(C([H])([H])[H])(C([H])([H])[H])C([H])([H])[H])C([H])([H])c2c([H])c(OC([H])([H])C3(C([H])([H])[H])c4c([H])c(C([H])([H])N([H])C(=O)N5C([H])([H])C([H])([H])C([H])([H])C([H])(n6nc(-c7c([H])c([H])c(Oc8c([H])c([H])c(F)c([H])c8F)c([H])c7[H])c(C(=O)N([H])[H])c6N([H])[H])C5([H])[H])nc(C([H])([H])[H])c4C([H])([H])C3([H])[H])c([H])c([H])c2C1([H])[H]

>  <smiles>  (38) 
[H]c1c([H])c([H])c2c(c1[H])C([H])([H])C([H])([H])C([H])([H])C2([H])N([H])C(=O)C1([H])N(C(=O)C([H])(N([H])C(=O)C([H])(N([H])C([H])([H])[H])C([H])([H])[H])C(C([H])([H])[H])(C([H])([H])[H])C([H])([H])[H])C([H])([H])c2c([H])c(OC([H])([H])C3(C([H])([H])[H])c4c([H])c(C([H])([H])N([H])C(=O)N5C([H])([H])C([H])([H])C([H])([H])C([H])(n6nc(-c7c([H])c([H])c(Oc8c([H])c([H])c(F)c([H])c8F)c([H])c7[H])c(C(=O)N([H])[H])c6N([H])[H])C5([H])[H])nc(C([H])([H])[H])c4C([H])([H])C3([H])[H])c([H])c([H])c2C1([H])[H]

$$$$
40:0:0
     RDKit          3D

 93102  0  0  1  0  0  0  0  0999 V2000
  -30.1870  -23.8140   21.3690 C   0  0  0  0  0  3  0  0  0  0  0  0
  -30.7150  -22.5000   21.3500 C   0  0  0  0  0  3  0  0  0  0  0  0
  -28.9030  -24.0660   20.8410 C   0  0  0  0  0  0  0  0  0  0  0  0
  -28.2440  -22.9400   20.2650 C   0  0  0  0  0  0  0  0  0  0  0  0
  -29.9650  -21.4340   20.8160 C   0  0  0  0  0  0  0  0  0  0  0  0
  -26.8660  -23.0720   19.6450 C   0  0  0  0  0  1  0  0  0  0  0  0
  -28.7560  -21.6700   20.2580 N   0  0  0  0  0  0  0  0  0  0  0  0
  -30.4970  -20.1180   20.8880 N   0  0  0  0  0  0  0  0  0  0  0  0
  -31.4060  -20.0450   21.3320 H   0  0  0  0  0  0  0  0  0  0  0  0
  -30.7000  -14.6470   20.1370 C   0  0  0  0  0  0  0  0  0  0  0  0
  -30.3770  -12.4630   19.0250 C   0  0  0  0  0  2  0  0  0  0  0  0
  -29.3830  -12.6470   17.8590 C   0  0  0  0  0  2  0  0  0  0  0  0
  -27.9310  -12.4860   18.3520 C   0  0  0  0  0  2  0  0  0  0  0  0
  -27.6380  -13.3060   19.6380 C   0  0  0  0  0  3  0  0  0  0  0  0
  -28.7490  -13.1250   20.6950 C   0  0  0  0  0  2  0  0  0  0  0  0
  -30.0280  -13.4580   20.0540 N   0  0  0  0  0  0  0  0  0  0  0  0
  -31.8530  -14.7600   19.7090 O   0  0  0  0  0  0  0  0  0  0  0  0
  -30.0550  -17.8010   21.7730 C   0  0  0  0  0  2  0  0  0  0  0  0
  -30.3630  -18.1380   19.3470 C   0  0  0  0  0  2  0  0  0  0  0  0
  -29.4680  -16.3760   21.5080 C   0  0  0  0  0  2  0  0  0  0  0  0
  -29.7780  -16.7140   19.1020 C   0  0  0  0  0  2  0  0  0  0  0  0
  -29.8220  -18.8230   20.6250 C   0  0  0  0  0  3  0  0  0  0  0  0
  -29.9240  -15.7750   20.2400 N   0  0  0  0  0  0  0  0  0  0  0  0
  -25.2810  -13.8750   20.4890 C   0  0  0  0  0  0  0  0  0  0  0  0
  -24.2340  -13.0880   20.8870 C   0  0  0  0  0  0  0  0  0  0  0  0
  -24.6980  -11.7390   20.7930 C   0  0  0  0  0  0  0  0  0  0  0  0
  -26.3140  -13.0060   20.1800 N   0  0  0  0  0  0  0  0  0  0  0  0
  -25.9710  -11.7140   20.4210 N   0  0  0  0  0  0  0  0  0  0  0  0
  -23.9830  -10.4700   20.9800 C   0  0  0  0  0  0  0  0  0  0  0  0
  -24.4240   -9.5030   21.9110 C   0  0  0  0  0  3  0  0  0  0  0  0
  -23.7100   -8.2990   22.0860 C   0  0  0  0  0  3  0  0  0  0  0  0
  -22.5400   -8.0510   21.3300 C   0  0  0  0  0  0  0  0  0  0  0  0
  -22.1180   -9.0060   20.3870 C   0  0  0  0  0  3  0  0  0  0  0  0
  -22.8330  -10.2030   20.2110 C   0  0  0  0  0  3  0  0  0  0  0  0
  -21.7980   -6.8970   21.4130 O   0  0  0  0  0  0  0  0  0  0  0  0
  -21.6980   -6.1900   22.5840 C   0  0  0  0  0  0  0  0  0  0  0  0
  -21.1810   -6.7710   23.7620 C   0  0  0  0  0  3  0  0  0  0  0  0
  -21.0250   -5.9880   24.9250 C   0  0  0  0  0  3  0  0  0  0  0  0
  -21.3810   -4.6270   24.9080 C   0  0  0  0  0  0  0  0  0  0  0  0
  -21.8930   -4.0440   23.7360 C   0  0  0  0  0  3  0  0  0  0  0  0
  -22.0470   -4.8240   22.5760 C   0  0  0  0  0  0  0  0  0  0  0  0
  -22.5190   -4.2540   21.4410 F   0  0  0  0  0  0  0  0  0  0  0  0
  -21.2270   -3.8730   26.0230 F   0  0  0  0  0  0  0  0  0  0  0  0
  -22.8500  -13.5520   21.2410 C   0  0  0  0  0  0  0  0  0  0  0  0
  -22.1680  -12.8280   22.1230 N   0  0  0  0  0  0  0  0  0  0  0  0
  -22.3840  -14.5890   20.7730 O   0  0  0  0  0  0  0  0  0  0  0  0
  -22.5590  -11.9910   22.5260 H   0  0  0  0  0  0  0  0  0  0  0  0
  -21.2410  -13.1190   22.3990 H   0  0  0  0  0  0  0  0  0  0  0  0
  -25.4330  -15.2500   20.3410 N   0  0  0  0  0  0  0  0  0  0  0  0
  -24.6690  -15.9010   20.4900 H   0  0  0  0  0  0  0  0  0  0  0  0
  -26.2660  -15.6930   19.9740 H   0  0  0  0  0  0  0  0  0  0  0  0
  -28.1910  -25.4270   21.1250 C   0  0  0  0  0  2  0  0  0  0  0  0
  -28.4220  -26.5900   20.2680 O   0  0  0  0  0  0  0  0  0  0  0  0
  -24.6250  -31.9090   23.2410 C   0  0  0  0  0  0  0  0  0  0  0  0
  -27.3160  -27.4320   20.2080 C   0  0  0  0  0  0  0  0  0  0  0  0
  -23.4410  -30.4890   21.6010 C   0  0  0  0  0  3  0  0  0  0  0  0
  -24.9200  -28.9610   20.1810 C   0  0  0  0  0  0  0  0  0  0  0  0
  -25.9680  -30.8600   21.4160 C   0  0  0  0  0  2  0  0  0  0  0  0
  -26.0740  -29.4850   20.7790 C   0  0  0  0  0  0  0  0  0  0  0  0
  -27.2800  -28.7290   20.7880 C   0  0  0  0  0  3  0  0  0  0  0  0
  -26.1460  -26.9490   19.5830 C   0  0  0  0  0  3  0  0  0  0  0  0
  -24.9530  -27.6940   19.5760 C   0  0  0  0  0  3  0  0  0  0  0  0
  -23.6670  -29.8120   20.2230 C   0  0  0  0  0  2  0  0  0  0  0  0
  -24.6950  -31.1030   22.1430 N   0  0  0  0  0  0  0  0  0  0  0  0
  -23.5390  -32.1730   23.7760 O   0  0  0  0  0  0  0  0  0  0  0  0
  -22.7940  -29.4660   22.5630 C   0  0  0  0  0  0  0  0  0  0  0  0
  -21.4690  -29.2730   22.4380 N   0  0  0  0  0  0  0  0  0  0  0  0
  -23.4810  -28.8450   23.3790 O   0  0  0  0  0  0  0  0  0  0  0  0
  -20.9720  -29.8280   21.7560 H   0  0  0  0  0  0  0  0  0  0  0  0
  -18.1040  -28.0580   22.9530 C   0  0  0  0  0  0  0  0  0  0  0  0
  -20.6610  -28.3310   23.2130 C   0  0  0  0  0  3  0  0  0  0  0  0
  -20.7690  -26.8990   22.6360 C   0  0  0  0  0  2  0  0  0  0  0  0
  -19.6660  -26.5720   21.6260 C   0  0  0  0  0  2  0  0  0  0  0  0
  -18.2860  -26.7080   22.2760 C   0  0  0  0  0  2  0  0  0  0  0  0
  -19.2200  -28.8260   23.3780 C   0  0  0  0  0  0  0  0  0  0  0  0
  -18.9980  -30.0860   23.9720 C   0  0  0  0  0  3  0  0  0  0  0  0
  -17.6910  -30.5810   24.1430 C   0  0  0  0  0  3  0  0  0  0  0  0
  -16.5880  -29.8100   23.7330 C   0  0  0  0  0  3  0  0  0  0  0  0
  -16.7960  -28.5500   23.1450 C   0  0  0  0  0  3  0  0  0  0  0  0
  -25.9010  -32.5580   23.8630 C   0  0  0  0  0  3  0  0  0  0  0  0
  -25.5770  -33.9540   24.1830 N   0  0  0  0  0  0  0  0  0  0  0  0
  -25.9060  -35.0060   23.4210 C   0  0  0  0  0  0  0  0  0  0  0  0
  -26.5840  -34.9030   22.3950 O   0  0  0  0  0  0  0  0  0  0  0  0
  -24.9780  -34.1080   24.9820 H   0  0  0  0  0  0  0  0  0  0  0  0
  -24.1730  -36.7860   23.0320 C   0  0  0  0  0  1  0  0  0  0  0  0
  -25.4010  -36.3910   23.8670 C   0  0  0  0  0  3  0  0  0  0  0  0
  -27.5140  -37.2920   24.7360 C   0  0  0  0  0  1  0  0  0  0  0  0
  -26.4280  -37.4520   23.7720 N   0  0  0  0  0  0  0  0  0  0  0  0
  -26.0120  -38.3680   23.9140 H   0  0  0  0  0  0  0  0  0  0  0  0
  -26.4240  -31.7970   25.1420 C   0  0  1  0  0  0  0  0  0  0  0  0
  -25.3340  -31.5560   26.2120 C   0  0  0  0  0  1  0  0  0  0  0  0
  -27.0210  -30.4220   24.7590 C   0  0  0  0  0  1  0  0  0  0  0  0
  -27.5660  -32.6040   25.8020 C   0  0  0  0  0  1  0  0  0  0  0  0
  2  1  1  0
  3 52  1  0
  3  1  2  0
  4  3  1  0
  5  8  1  0
  5  2  2  0
  6  4  1  0
  7  4  2  0
  7  5  1  0
  8  9  1  0
 10 23  1  0
 11 16  1  0
 12 13  1  0
 12 11  1  0
 14 13  1  0
 14 27  1  0
 14 15  1  0
 16 10  1  0
 16 15  1  0
 17 10  2  0
 19 22  1  0
 20 18  1  0
 21 19  1  0
 21 23  1  0
 22  8  1  0
 22 18  1  0
 23 20  1  0
 24 25  2  0
 25 44  1  0
 26 25  1  0
 26 29  1  0
 27 28  1  0
 27 24  1  0
 28 26  2  0
 29 30  1  0
 30 31  2  0
 32 35  1  0
 32 31  1  0
 33 32  2  0
 34 33  1  0
 34 29  2  0
 35 36  1  0
 36 37  1  0
 37 38  2  0
 39 38  1  0
 39 43  1  0
 40 39  2  0
 41 36  2  0
 41 40  1  0
 42 41  1  0
 44 45  1  0
 45 48  1  0
 45 47  1  0
 46 44  2  0
 49 24  1  0
 49 50  1  0
 51 49  1  0
 53 52  1  0
 54 65  2  0
 55 53  1  0
 55 60  1  0
 56 64  1  0
 56 66  1  0
 57 63  1  0
 57 59  1  0
 58 64  1  0
 59 60  2  0
 59 58  1  0
 61 55  2  0
 62 61  1  0
 62 57  2  0
 63 56  1  0
 64 54  1  0
 66 68  2  0
 67 66  1  0
 69 67  1  0
 70 79  2  0
 70 75  1  0
 71 67  1  0
 71 75  1  0
 72 71  1  0
 73 74  1  0
 73 72  1  0
 74 70  1  0
 75 76  2  0
 76 77  1  0
 78 77  2  0
 79 78  1  0
 80 54  1  0
 80 81  1  0
 80 90  1  0
 81 84  1  0
 82 86  1  0
 82 81  1  0
 83 82  2  0
 86 85  1  0
 88 86  1  0
 88 89  1  0
 88 87  1  0
 90 93  1  1
 90 91  1  0
 92 90  1  0
M  ISO  4  10 100  23 100  52 101  53 101
M  END
>  <TORSDO>  (39) 
F 17

>  <SCORE>  (39) 
-15.050

>  <name>  (39) 
40

>  <ligand_id>  (39) 
40

>  <original_smiles>  (39) 
[H]c1c(N([H])C2([H])C([H])([H])C([H])([H])N(C(=O)N3C([H])([H])C([H])([H])C([H])([H])C([H])(n4nc(-c5c([H])c([H])c(Oc6c([H])c([H])c(F)c([H])c6F)c([H])c5[H])c(C(=O)N([H])[H])c4N([H])[H])C3([H])[H])C([H])([H])C2([H])[H])nc(C([H])([H])[H])c(C([H])([H])Oc2c([H])c([H])c3c(c2[H])C([H])([H])N(C(=O)C([H])(N([H])C(=O)C([H])(N([H])C([H])([H])[H])C([H])([H])[H])C(C([H])([H])[H])(C([H])([H])[H])C([H])([H])[H])C([H])(C(=O)N([H])C2([H])c4c([H])c([H])c([H])c([H])c4C([H])([H])C([H])([H])C2([H])[H])C3([H])[H])c1[H]

>  <smiles>  (39) 
[H]c1c(N([H])C2([H])C([H])([H])C([H])([H])N(C(=O)N3C([H])([H])C([H])([H])C([H])([H])C([H])(n4nc(-c5c([H])c([H])c(Oc6c([H])c([H])c(F)c([H])c6F)c([H])c5[H])c(C(=O)N([H])[H])c4N([H])[H])C3([H])[H])C([H])([H])C2([H])[H])nc(C([H])([H])[H])c(C([H])([H])Oc2c([H])c([H])c3c(c2[H])C([H])([H])N(C(=O)C([H])(N([H])C(=O)C([H])(N([H])C([H])([H])[H])C([H])([H])[H])C(C([H])([H])[H])(C([H])([H])[H])C([H])([H])[H])C([H])(C(=O)N([H])C2([H])c4c([H])c([H])c([H])c([H])c4C([H])([H])C([H])([H])C2([H])[H])C3([H])[H])c1[H]

$$$$
41:0:0
     RDKit          3D

 98107  0  0  1  0  0  0  0  0999 V2000
  -27.9300  -20.8350   19.3460 C   0  0  0  0  0  3  0  0  0  0  0  0
  -29.3310  -22.8120   19.4010 C   0  0  0  0  0  3  0  0  0  0  0  0
  -29.2270  -21.3530   19.4400 C   0  0  0  0  0  0  0  0  0  0  0  0
  -26.8160  -21.6590   19.1410 C   0  0  0  0  0  0  0  0  0  0  0  0
  -28.2100  -23.7280   19.2060 C   0  0  0  0  0  0  0  0  0  0  0  0
  -26.9460  -23.0680   19.0020 C   0  0  0  0  0  0  0  0  0  0  0  0
  -25.4720  -20.9510   19.0120 C   0  0  0  0  0  1  0  0  0  0  0  0
  -25.6890  -23.7930   18.5380 C   0  0  0  0  0  1  0  0  0  0  0  0
  -31.0930  -20.0430   21.9610 C   0  0  0  0  0  2  0  0  0  0  0  0
  -30.4500  -20.3240   19.6040 C   0  0  0  0  0  3  0  0  0  0  0  0
  -31.3260  -20.9370   20.7250 C   0  0  0  0  0  3  0  0  0  0  0  0
  -30.2110  -18.7860   20.1280 C   0  0  0  0  0  3  0  0  0  0  0  0
  -32.7950  -21.2110   20.3380 C   0  0  0  0  0  1  0  0  0  0  0  0
  -30.1280  -18.9890   21.5790 N   0  0  0  0  0  4  0  0  0  0  0  0
  -29.2090  -19.3500   21.7650 H   0  0  0  0  0  0  0  0  0  0  0  0
  -30.2650  -18.1470   22.1130 H   0  0  0  0  0  0  0  0  0  0  0  0
  -32.5830  -17.5830   20.3990 C   0  0  0  0  0  1  0  0  0  0  0  0
  -31.1500  -17.4760   19.8010 C   0  0  0  0  0  3  0  0  0  0  0  0
  -31.1330  -14.8520   19.7590 C   0  0  0  0  0  0  0  0  0  0  0  0
  -30.7840  -12.5090   18.9950 C   0  0  0  0  0  2  0  0  0  0  0  0
  -29.7990  -12.4270   17.8090 C   0  0  0  0  0  2  0  0  0  0  0  0
  -28.3550  -12.2780   18.3160 C   0  0  0  0  0  2  0  0  0  0  0  0
  -28.0140  -13.3090   19.4270 C   0  0  0  0  0  3  0  0  0  0  0  0
  -29.1260  -13.4050   20.5010 C   0  0  0  0  0  2  0  0  0  0  0  0
  -30.4130  -13.6730   19.8330 N   0  0  0  0  0  0  0  0  0  0  0  0
  -32.2520  -14.8460   19.2520 O   0  0  0  0  0  0  0  0  0  0  0  0
  -30.5690  -16.0750   20.0920 N   0  0  0  0  0  0  0  0  0  0  0  0
  -29.6550  -16.0200   20.5090 H   0  0  0  0  0  0  0  0  0  0  0  0
  -25.7220  -13.9750   20.3760 C   0  0  0  0  0  0  0  0  0  0  0  0
  -24.6490  -13.2390   20.7970 C   0  0  0  0  0  0  0  0  0  0  0  0
  -25.0340  -11.8700   20.6640 C   0  0  0  0  0  0  0  0  0  0  0  0
  -26.6970  -13.0600   20.0170 N   0  0  0  0  0  0  0  0  0  0  0  0
  -26.2900  -11.7830   20.2510 N   0  0  0  0  0  0  0  0  0  0  0  0
  -24.2540  -10.6350   20.8540 C   0  0  0  0  0  0  0  0  0  0  0  0
  -24.6560   -9.6510   21.7870 C   0  0  0  0  0  3  0  0  0  0  0  0
  -23.8890   -8.4810   21.9730 C   0  0  0  0  0  3  0  0  0  0  0  0
  -22.7030   -8.2860   21.2280 C   0  0  0  0  0  0  0  0  0  0  0  0
  -22.3150   -9.2550   20.2830 C   0  0  0  0  0  3  0  0  0  0  0  0
  -23.0850  -10.4160   20.0980 C   0  0  0  0  0  3  0  0  0  0  0  0
  -21.9040   -7.1720   21.3280 O   0  0  0  0  0  0  0  0  0  0  0  0
  -21.7620   -6.4850   22.5060 C   0  0  0  0  0  0  0  0  0  0  0  0
  -21.2560   -7.0960   23.6730 C   0  0  0  0  0  3  0  0  0  0  0  0
  -21.0690   -6.3350   24.8430 C   0  0  0  0  0  3  0  0  0  0  0  0
  -21.3730   -4.9600   24.8440 C   0  0  0  0  0  0  0  0  0  0  0  0
  -21.8610   -4.3460   23.6790 C   0  0  0  0  0  3  0  0  0  0  0  0
  -22.0520   -5.1040   22.5120 C   0  0  0  0  0  0  0  0  0  0  0  0
  -22.5120   -4.5030   21.3890 F   0  0  0  0  0  0  0  0  0  0  0  0
  -21.1760   -4.2270   25.9640 F   0  0  0  0  0  0  0  0  0  0  0  0
  -23.3050  -13.7670   21.1980 C   0  0  0  0  0  0  0  0  0  0  0  0
  -22.6190  -13.0780   22.1000 N   0  0  0  0  0  0  0  0  0  0  0  0
  -22.8710  -14.8260   20.7430 O   0  0  0  0  0  0  0  0  0  0  0  0
  -22.9870  -12.2270   22.4990 H   0  0  0  0  0  0  0  0  0  0  0  0
  -21.7070  -13.3970   22.3930 H   0  0  0  0  0  0  0  0  0  0  0  0
  -25.9500  -15.3430   20.2440 N   0  0  0  0  0  0  0  0  0  0  0  0
  -25.2330  -16.0440   20.4010 H   0  0  0  0  0  0  0  0  0  0  0  0
  -26.7770  -15.7270   19.8080 H   0  0  0  0  0  0  0  0  0  0  0  0
  -28.3970  -25.3120   18.9080 C   0  0  0  0  0  2  0  0  0  0  0  0
  -28.2670  -26.4640   19.8750 O   0  0  0  0  0  0  0  0  0  0  0  0
  -24.6010  -31.8250   23.1610 C   0  0  0  0  0  0  0  0  0  0  0  0
  -27.1830  -27.3770   19.8730 C   0  0  0  0  0  0  0  0  0  0  0  0
  -23.3830  -30.4990   21.4780 C   0  0  0  0  0  3  0  0  0  0  0  0
  -24.8230  -29.0280   19.9640 C   0  0  0  0  0  0  0  0  0  0  0  0
  -25.9280  -30.8270   21.2820 C   0  0  0  0  0  2  0  0  0  0  0  0
  -26.0080  -29.4800   20.5650 C   0  0  0  0  0  0  0  0  0  0  0  0
  -27.1890  -28.6640   20.5150 C   0  0  0  0  0  3  0  0  0  0  0  0
  -25.9600  -26.9920   19.3020 C   0  0  0  0  0  3  0  0  0  0  0  0
  -24.8040  -27.7840   19.3290 C   0  0  0  0  0  3  0  0  0  0  0  0
  -23.5810  -29.8910   20.0670 C   0  0  0  0  0  2  0  0  0  0  0  0
  -24.6570  -31.0620   22.0300 N   0  0  0  0  0  0  0  0  0  0  0  0
  -23.5240  -32.0740   23.7200 O   0  0  0  0  0  0  0  0  0  0  0  0
  -22.7350  -29.4340   22.3970 C   0  0  0  0  0  0  0  0  0  0  0  0
  -21.4110  -29.2410   22.2660 N   0  0  0  0  0  0  0  0  0  0  0  0
  -23.4230  -28.7880   23.1920 O   0  0  0  0  0  0  0  0  0  0  0  0
  -20.9110  -29.8130   21.6000 H   0  0  0  0  0  0  0  0  0  0  0  0
  -18.0560  -27.9640   22.7070 C   0  0  0  0  0  0  0  0  0  0  0  0
  -20.6070  -28.2640   23.0020 C   0  0  0  0  0  3  0  0  0  0  0  0
  -20.7420  -26.8550   22.3780 C   0  0  0  0  0  2  0  0  0  0  0  0
  -19.6520  -26.5440   21.3480 C   0  0  0  0  0  2  0  0  0  0  0  0
  -18.2630  -26.6420   21.9870 C   0  0  0  0  0  2  0  0  0  0  0  0
  -19.1570  -28.7320   23.1680 C   0  0  0  0  0  0  0  0  0  0  0  0
  -18.9110  -29.9730   23.7980 C   0  0  0  0  0  3  0  0  0  0  0  0
  -17.5970  -30.4430   23.9740 C   0  0  0  0  0  3  0  0  0  0  0  0
  -16.5080  -29.6690   23.5350 C   0  0  0  0  0  3  0  0  0  0  0  0
  -16.7390  -28.4330   22.9040 C   0  0  0  0  0  3  0  0  0  0  0  0
  -25.8880  -32.4380   23.7900 C   0  0  0  0  0  3  0  0  0  0  0  0
  -26.3940  -31.6400   25.0530 C   0  0  1  0  0  0  0  0  0  0  0  0
  -25.2940  -31.3940   26.1120 C   0  0  0  0  0  1  0  0  0  0  0  0
  -26.9670  -30.2630   24.6420 C   0  0  0  0  0  1  0  0  0  0  0  0
  -27.5520  -32.4100   25.7300 C   0  0  0  0  0  1  0  0  0  0  0  0
  -25.5890  -33.8320   24.1470 N   0  0  0  0  0  0  0  0  0  0  0  0
  -25.9210  -34.8970   23.4050 C   0  0  0  0  0  0  0  0  0  0  0  0
  -26.5790  -34.8070   22.3640 O   0  0  0  0  0  0  0  0  0  0  0  0
  -25.0020  -33.9730   24.9550 H   0  0  0  0  0  0  0  0  0  0  0  0
  -24.1950  -36.7000   23.1060 C   0  0  0  0  0  1  0  0  0  0  0  0
  -25.4460  -36.2800   23.8940 C   0  0  0  0  0  3  0  0  0  0  0  0
  -27.5890  -37.1480   24.7170 C   0  0  0  0  0  1  0  0  0  0  0  0
  -26.4800  -37.3320   23.7840 N   0  0  0  0  0  0  0  0  0  0  0  0
  -26.0780  -38.2500   23.9480 H   0  0  0  0  0  0  0  0  0  0  0  0
  1  3  1  0
  2  3  2  0
  4  1  2  0
  5  2  1  0
  6  4  1  0
  6  5  2  0
  7  4  1  0
  8  6  1  0
 10  3  1  0
 10 12  1  0
 10 11  1  0
 11 13  1  0
 11  9  1  0
 12 18  1  0
 12 14  1  0
 14 15  1  0
 14  9  1  0
 14 16  1  0
 18 27  1  0
 18 17  1  0
 19 25  1  0
 19 27  1  0
 20 25  1  0
 21 22  1  0
 21 20  1  0
 23 22  1  0
 23 32  1  0
 23 24  1  0
 25 24  1  0
 26 19  2  0
 27 28  1  0
 29 30  2  0
 30 49  1  0
 31 30  1  0
 31 34  1  0
 32 33  1  0
 32 29  1  0
 33 31  2  0
 34 35  1  0
 35 36  2  0
 37 40  1  0
 37 36  1  0
 38 37  2  0
 39 38  1  0
 39 34  2  0
 40 41  1  0
 41 46  2  0
 41 42  1  0
 42 43  2  0
 43 44  1  0
 44 48  1  0
 45 44  2  0
 46 45  1  0
 47 46  1  0
 49 50  1  0
 50 53  1  0
 50 52  1  0
 51 49  2  0
 54 29  1  0
 54 55  1  0
 56 54  1  0
 57  5  1  0
 57 58  1  0
 59 70  2  0
 60 58  1  0
 60 65  1  0
 61 69  1  0
 61 71  1  0
 62 68  1  0
 62 64  1  0
 63 69  1  0
 64 63  1  0
 65 64  2  0
 66 67  1  0
 66 60  2  0
 67 62  2  0
 68 61  1  0
 69 59  1  0
 71 73  2  0
 72 71  1  0
 74 72  1  0
 75 84  2  0
 75 80  1  0
 76 72  1  0
 76 80  1  0
 77 76  1  0
 78 79  1  0
 78 77  1  0
 79 75  1  0
 80 81  2  0
 81 82  1  0
 83 82  2  0
 84 83  1  0
 85 59  1  0
 85 90  1  0
 85 86  1  0
 86 89  1  1
 86 87  1  0
 88 86  1  0
 90 93  1  0
 91 95  1  0
 91 90  1  0
 92 91  2  0
 95 94  1  0
 97 95  1  0
 97 98  1  0
 97 96  1  0
M  ISO  4  19 100  27 100  57 101  58 101
M  END
>  <TORSDO>  (40) 
F 19

>  <SCORE>  (40) 
-13.756

>  <name>  (40) 
41

>  <ligand_id>  (40) 
41

>  <original_smiles>  (40) 
[H]c1c([H])c([H])c2c(c1[H])C([H])([H])C([H])([H])C([H])([H])C2([H])N([H])C(=O)C1([H])N(C(=O)C([H])(N([H])C(=O)C([H])(N([H])C([H])([H])[H])C([H])([H])[H])C(C([H])([H])[H])(C([H])([H])[H])C([H])([H])[H])C([H])([H])c2c([H])c(OC([H])([H])c3c([H])c(C4([H])C([H])(C([H])([H])[H])C([H])([H])[N+]([H])([H])C4([H])C([H])(N([H])C(=O)N4C([H])([H])C([H])([H])C([H])([H])C([H])(n5nc(-c6c([H])c([H])c(Oc7c([H])c([H])c(F)c([H])c7F)c([H])c6[H])c(C(=O)N([H])[H])c5N([H])[H])C4([H])[H])C([H])([H])[H])c([H])c(C([H])([H])[H])c3C([H])([H])[H])c([H])c([H])c2C1([H])[H]

>  <smiles>  (40) 
[H]c1c([H])c([H])c2c(c1[H])C([H])([H])C([H])([H])C([H])([H])C2([H])N([H])C(=O)C1([H])N(C(=O)C([H])(N([H])C(=O)C([H])(N([H])C([H])([H])[H])C([H])([H])[H])C(C([H])([H])[H])(C([H])([H])[H])C([H])([H])[H])C([H])([H])c2c([H])c(OC([H])([H])c3c([H])c(C4([H])C([H])(C([H])([H])[H])C([H])([H])[N+]([H])([H])C4([H])C([H])(N([H])C(=O)N4C([H])([H])C([H])([H])C([H])([H])C([H])(n5nc(-c6c([H])c([H])c(Oc7c([H])c([H])c(F)c([H])c7F)c([H])c6[H])c(C(=O)N([H])[H])c5N([H])[H])C4([H])[H])C([H])([H])[H])c([H])c(C([H])([H])[H])c3C([H])([H])[H])c([H])c([H])c2C1([H])[H]

$$$$
42:0:0
     RDKit          3D

 92101  0  0  1  0  0  0  0  0999 V2000
  -28.4040  -21.1260   20.6360 C   0  0  0  0  0  3  0  0  0  0  0  0
  -30.5150  -20.7410   20.1600 C   0  0  0  0  0  0  0  0  0  0  0  0
  -29.2970  -20.0490   20.4410 C   0  0  0  0  0  0  0  0  0  0  0  0
  -30.3130  -22.0760   20.2220 C   0  0  0  0  0  0  0  0  0  0  0  0
  -31.5220  -22.8350   20.0380 C   0  0  0  0  0  0  0  0  0  0  0  0
  -31.9480  -20.4050   19.8680 C   0  0  0  0  0  3  0  0  0  0  0  0
  -32.6390  -21.8100   19.7860 C   0  0  0  0  0  3  0  0  0  0  0  0
  -29.0050  -22.4220   20.5190 N   0  0  0  0  0  0  0  0  0  0  0  0
  -31.6700  -24.0570   20.0970 O   0  0  0  0  0  0  0  0  0  0  0  0
  -29.0230  -18.4760   20.5280 C   0  0  0  0  0  3  0  0  0  0  0  0
  -30.1970  -17.3650   20.4840 C   0  0  0  0  0  3  0  0  0  0  0  0
  -30.6060  -14.7610   20.3580 C   0  0  0  0  0  0  0  0  0  0  0  0
  -30.4110  -12.4920   19.3350 C   0  0  0  0  0  2  0  0  0  0  0  0
  -29.4670  -12.5740   18.1160 C   0  0  0  0  0  2  0  0  0  0  0  0
  -27.9990  -12.3980   18.5510 C   0  0  0  0  0  2  0  0  0  0  0  0
  -27.6300  -13.2760   19.7770 C   0  0  0  0  0  3  0  0  0  0  0  0
  -28.6940  -13.1770   20.8920 C   0  0  0  0  0  2  0  0  0  0  0  0
  -29.9860  -13.5350   20.2960 N   0  0  0  0  0  0  0  0  0  0  0  0
  -31.7850  -14.8770   20.0130 O   0  0  0  0  0  0  0  0  0  0  0  0
  -29.8290  -15.8820   20.6030 N   0  0  0  0  0  0  0  0  0  0  0  0
  -28.8700  -15.6870   20.8480 H   0  0  0  0  0  0  0  0  0  0  0  0
  -25.2410  -13.8570   20.5120 C   0  0  0  0  0  0  0  0  0  0  0  0
  -24.1810  -13.0790   20.8850 C   0  0  0  0  0  0  0  0  0  0  0  0
  -24.6500  -11.7300   20.8540 C   0  0  0  0  0  0  0  0  0  0  0  0
  -26.2880  -12.9830   20.2720 N   0  0  0  0  0  0  0  0  0  0  0  0
  -25.9390  -11.6970   20.5400 N   0  0  0  0  0  0  0  0  0  0  0  0
  -23.9300  -10.4640   21.0460 C   0  0  0  0  0  0  0  0  0  0  0  0
  -24.3710   -9.4960   21.9740 C   0  0  0  0  0  3  0  0  0  0  0  0
  -23.6510   -8.2960   22.1540 C   0  0  0  0  0  3  0  0  0  0  0  0
  -22.4740   -8.0540   21.4050 C   0  0  0  0  0  0  0  0  0  0  0  0
  -22.0520   -9.0120   20.4660 C   0  0  0  0  0  3  0  0  0  0  0  0
  -22.7730  -10.2030   20.2840 C   0  0  0  0  0  3  0  0  0  0  0  0
  -21.7240   -6.9070   21.4950 O   0  0  0  0  0  0  0  0  0  0  0  0
  -21.6860   -6.1600   22.6460 C   0  0  0  0  0  0  0  0  0  0  0  0
  -21.2650   -6.7090   23.8760 C   0  0  0  0  0  3  0  0  0  0  0  0
  -21.1750   -5.8890   25.0180 C   0  0  0  0  0  3  0  0  0  0  0  0
  -21.4950   -4.5210   24.9310 C   0  0  0  0  0  0  0  0  0  0  0  0
  -21.9080   -3.9710   23.7040 C   0  0  0  0  0  3  0  0  0  0  0  0
  -22.0000   -4.7880   22.5650 C   0  0  0  0  0  0  0  0  0  0  0  0
  -22.3800   -4.2490   21.3810 F   0  0  0  0  0  0  0  0  0  0  0  0
  -21.4000   -3.7310   26.0260 F   0  0  0  0  0  0  0  0  0  0  0  0
  -22.7830  -13.5500   21.1600 C   0  0  0  0  0  0  0  0  0  0  0  0
  -22.0590  -12.8490   22.0260 N   0  0  0  0  0  0  0  0  0  0  0  0
  -22.3400  -14.5740   20.6430 O   0  0  0  0  0  0  0  0  0  0  0  0
  -22.4300  -12.0200   22.4660 H   0  0  0  0  0  0  0  0  0  0  0  0
  -21.1210  -13.1470   22.2530 H   0  0  0  0  0  0  0  0  0  0  0  0
  -25.3980  -15.2280   20.3320 N   0  0  0  0  0  0  0  0  0  0  0  0
  -24.6240  -15.8760   20.4370 H   0  0  0  0  0  0  0  0  0  0  0  0
  -26.2310  -15.6680   19.9590 H   0  0  0  0  0  0  0  0  0  0  0  0
  -28.4230  -23.8080   20.8440 C   0  0  0  0  0  2  0  0  0  0  0  0
  -28.4440  -25.0440   19.8040 C   0  0  0  0  0  2  0  0  0  0  0  0
  -28.3610  -26.4690   20.2820 O   0  0  0  0  0  0  0  0  0  0  0  0
  -24.6050  -31.9030   23.2350 C   0  0  0  0  0  0  0  0  0  0  0  0
  -27.2180  -27.2960   20.2080 C   0  0  0  0  0  0  0  0  0  0  0  0
  -23.4040  -30.4980   21.5970 C   0  0  0  0  0  3  0  0  0  0  0  0
  -24.8550  -28.9330   20.1820 C   0  0  0  0  0  0  0  0  0  0  0  0
  -25.9450  -30.8050   21.4200 C   0  0  0  0  0  2  0  0  0  0  0  0
  -26.0220  -29.4200   20.7790 C   0  0  0  0  0  0  0  0  0  0  0  0
  -27.2030  -28.6130   20.7800 C   0  0  0  0  0  3  0  0  0  0  0  0
  -26.0220  -26.8650   19.5940 C   0  0  0  0  0  3  0  0  0  0  0  0
  -24.8590  -27.6640   19.5790 C   0  0  0  0  0  3  0  0  0  0  0  0
  -23.6210  -29.8130   20.2210 C   0  0  0  0  0  2  0  0  0  0  0  0
  -24.6700  -31.0880   22.1400 N   0  0  0  0  0  0  0  0  0  0  0  0
  -23.5200  -32.1840   23.7650 O   0  0  0  0  0  0  0  0  0  0  0  0
  -22.7350  -29.4890   22.5620 C   0  0  0  0  0  0  0  0  0  0  0  0
  -21.4070  -29.3220   22.4400 N   0  0  0  0  0  0  0  0  0  0  0  0
  -23.4110  -28.8610   23.3800 O   0  0  0  0  0  0  0  0  0  0  0  0
  -20.9220  -29.8800   21.7520 H   0  0  0  0  0  0  0  0  0  0  0  0
  -18.0220  -28.1540   22.9550 C   0  0  0  0  0  0  0  0  0  0  0  0
  -20.5840  -28.3910   23.2130 C   0  0  0  0  0  3  0  0  0  0  0  0
  -20.6710  -26.9590   22.6350 C   0  0  0  0  0  2  0  0  0  0  0  0
  -19.5600  -26.6480   21.6260 C   0  0  0  0  0  2  0  0  0  0  0  0
  -18.1830  -26.8040   22.2760 C   0  0  0  0  0  2  0  0  0  0  0  0
  -19.1490  -28.9060   23.3810 C   0  0  0  0  0  0  0  0  0  0  0  0
  -18.9430  -30.1700   23.9750 C   0  0  0  0  0  3  0  0  0  0  0  0
  -17.6440  -30.6810   24.1490 C   0  0  0  0  0  3  0  0  0  0  0  0
  -16.5310  -29.9260   23.7400 C   0  0  0  0  0  3  0  0  0  0  0  0
  -16.7220  -28.6640   23.1480 C   0  0  0  0  0  3  0  0  0  0  0  0
  -25.8860  -32.5370   23.8590 C   0  0  0  0  0  3  0  0  0  0  0  0
  -26.3980  -31.7690   25.1400 C   0  0  1  0  0  0  0  0  0  0  0  0
  -25.3020  -31.5380   26.2060 C   0  0  0  0  0  1  0  0  0  0  0  0
  -26.9810  -30.3890   24.7560 C   0  0  0  0  0  1  0  0  0  0  0  0
  -27.5480  -32.5650   25.8020 C   0  0  0  0  0  1  0  0  0  0  0  0
  -25.5760  -33.9370   24.1860 N   0  0  0  0  0  0  0  0  0  0  0  0
  -25.9090  -34.9890   23.4270 C   0  0  0  0  0  0  0  0  0  0  0  0
  -26.5790  -34.8830   22.3960 O   0  0  0  0  0  0  0  0  0  0  0  0
  -24.9810  -34.0920   24.9860 H   0  0  0  0  0  0  0  0  0  0  0  0
  -24.1840  -36.7860   23.0700 C   0  0  0  0  0  1  0  0  0  0  0  0
  -25.4240  -36.3780   23.8830 C   0  0  0  0  0  3  0  0  0  0  0  0
  -27.5580  -37.2600   24.7170 C   0  0  0  0  0  1  0  0  0  0  0  0
  -26.4580  -37.4310   23.7720 N   0  0  0  0  0  0  0  0  0  0  0  0
  -26.0520  -38.3510   23.9190 H   0  0  0  0  0  0  0  0  0  0  0  0
  2  4  2  0
  2  3  1  0
  3 10  1  0
  3  1  2  0
  4  8  1  0
  5  9  2  0
  5  4  1  0
  6  2  1  0
  7  6  2  0
  7  5  1  0
  8  1  1  0
  8 50  1  0
 11 10  2  0
 11 20  1  0
 12 20  1  0
 13 18  1  0
 14 15  1  0
 14 13  1  0
 16 15  1  0
 16 25  1  0
 16 17  1  0
 18 12  1  0
 18 17  1  0
 19 12  2  0
 20 21  1  0
 22 23  2  0
 23 42  1  0
 24 23  1  0
 24 27  1  0
 25 22  1  0
 25 26  1  0
 26 24  2  0
 27 28  1  0
 28 29  2  0
 30 33  1  0
 30 29  1  0
 31 30  2  0
 32 31  1  0
 32 27  2  0
 33 34  1  0
 34 35  1  0
 35 36  2  0
 37 36  1  0
 37 41  1  0
 38 37  2  0
 39 34  2  0
 39 38  1  0
 40 39  1  0
 42 43  1  0
 43 46  1  0
 43 45  1  0
 44 42  2  0
 47 48  1  0
 47 22  1  0
 49 47  1  0
 51 52  1  0
 51 50  1  0
 53 64  2  0
 54 52  1  0
 54 59  1  0
 55 63  1  0
 55 65  1  0
 56 62  1  0
 56 58  1  0
 57 63  1  0
 58 59  2  0
 58 57  1  0
 60 54  2  0
 61 60  1  0
 61 56  2  0
 62 55  1  0
 63 53  1  0
 65 67  2  0
 66 65  1  0
 68 66  1  0
 69 78  2  0
 69 74  1  0
 70 66  1  0
 70 74  1  0
 71 70  1  0
 72 73  1  0
 72 71  1  0
 73 69  1  0
 74 75  2  0
 75 76  1  0
 77 76  2  0
 78 77  1  0
 79 53  1  0
 79 84  1  0
 79 80  1  0
 80 83  1  1
 80 81  1  0
 82 80  1  0
 84 87  1  0
 85 89  1  0
 85 84  1  0
 86 85  2  0
 89 88  1  0
 91 89  1  0
 91 92  1  0
 91 90  1  0
M  ISO  4  12 100  20 100  51 101  52 101
M  END
>  <TORSDO>  (41) 
F 20

>  <SCORE>  (41) 
-14.025

>  <name>  (41) 
42

>  <ligand_id>  (41) 
42

>  <original_smiles>  (41) 
[H]c1c([H])c([H])c2c(c1[H])C([H])([H])C([H])([H])C([H])([H])C2([H])N([H])C(=O)C1([H])N(C(=O)C([H])(N([H])C(=O)C([H])(N([H])C([H])([H])[H])C([H])([H])[H])C(C([H])([H])[H])(C([H])([H])[H])C([H])([H])[H])C([H])([H])c2c([H])c(OC([H])([H])C([H])([H])n3c([H])c(C([H])([H])C([H])([H])N([H])C(=O)N4C([H])([H])C([H])([H])C([H])([H])C([H])(n5nc(-c6c([H])c([H])c(Oc7c([H])c([H])c(F)c([H])c7F)c([H])c6[H])c(C(=O)N([H])[H])c5N([H])[H])C4([H])[H])c4c3C(=O)C([H])([H])C4([H])[H])c([H])c([H])c2C1([H])[H]

>  <smiles>  (41) 
[H]c1c([H])c([H])c2c(c1[H])C([H])([H])C([H])([H])C([H])([H])C2([H])N([H])C(=O)C1([H])N(C(=O)C([H])(N([H])C(=O)C([H])(N([H])C([H])([H])[H])C([H])([H])[H])C(C([H])([H])[H])(C([H])([H])[H])C([H])([H])[H])C([H])([H])c2c([H])c(OC([H])([H])C([H])([H])n3c([H])c(C([H])([H])C([H])([H])N([H])C(=O)N4C([H])([H])C([H])([H])C([H])([H])C([H])(n5nc(-c6c([H])c([H])c(Oc7c([H])c([H])c(F)c([H])c7F)c([H])c6[H])c(C(=O)N([H])[H])c5N([H])[H])C4([H])[H])c4c3C(=O)C([H])([H])C4([H])[H])c([H])c([H])c2C1([H])[H]

$$$$
43:0:0
     RDKit          3D

 97106  0  0  1  0  0  0  0  0999 V2000
  -29.5800  -20.6750   20.6640 C   0  0  0  0  0  3  0  0  0  0  0  0
  -30.4570  -20.1970   22.8660 C   0  0  0  0  0  3  0  0  0  0  0  0
  -30.1080  -19.7170   21.5770 C   0  0  0  0  0  0  0  0  0  0  0  0
  -29.4290  -22.0400   21.0350 C   0  0  0  0  0  3  0  0  0  0  0  0
  -30.2740  -21.5570   23.2060 C   0  0  0  0  0  0  0  0  0  0  0  0
  -29.7610  -22.4050   22.2910 N   0  0  0  0  0  0  0  0  0  0  0  0
  -28.9640  -23.0350   20.1500 N   0  0  0  0  0  0  0  0  0  0  0  0
  -29.6420  -23.3860   22.5530 H   0  0  0  0  0  0  0  0  0  0  0  0
  -29.0710  -22.9070   19.1400 H   0  0  0  0  0  0  0  0  0  0  0  0
  -30.6920  -14.4770   19.9420 C   0  0  0  0  0  0  0  0  0  0  0  0
  -30.2990  -12.3390   18.7430 C   0  0  0  0  0  2  0  0  0  0  0  0
  -29.2700  -12.6290   17.6370 C   0  0  0  0  0  2  0  0  0  0  0  0
  -27.8410  -12.4330   18.1800 C   0  0  0  0  0  2  0  0  0  0  0  0
  -27.6060  -13.1970   19.5140 C   0  0  0  0  0  3  0  0  0  0  0  0
  -28.7590  -12.9450   20.5080 C   0  0  0  0  0  2  0  0  0  0  0  0
  -30.0220  -13.2880   19.8360 N   0  0  0  0  0  0  0  0  0  0  0  0
  -31.7520  -14.6890   19.3420 O   0  0  0  0  0  0  0  0  0  0  0  0
  -30.4040  -17.9090   19.8340 C   0  0  0  0  0  2  0  0  0  0  0  0
  -30.6700  -17.3060   22.1930 C   0  0  0  0  0  2  0  0  0  0  0  0
  -29.5460  -16.6440   19.6250 C   0  0  0  0  0  2  0  0  0  0  0  0
  -30.0910  -15.8820   21.9010 C   0  0  0  0  0  2  0  0  0  0  0  0
  -30.2580  -18.3330   21.2270 N   0  0  0  0  0  0  0  0  0  0  0  0
  -29.9910  -15.5170   20.4710 N   0  0  0  0  0  0  0  0  0  0  0  0
  -25.2680  -13.7170   20.4650 C   0  0  0  0  0  0  0  0  0  0  0  0
  -24.2540  -12.9050   20.9050 C   0  0  0  0  0  0  0  0  0  0  0  0
  -24.7400  -11.5680   20.7800 C   0  0  0  0  0  0  0  0  0  0  0  0
  -26.3040  -12.8680   20.1000 N   0  0  0  0  0  0  0  0  0  0  0  0
  -25.9950  -11.5710   20.3480 N   0  0  0  0  0  0  0  0  0  0  0  0
  -24.0570  -10.2820   20.9940 C   0  0  0  0  0  0  0  0  0  0  0  0
  -24.5180   -9.3440   21.9400 C   0  0  0  0  0  3  0  0  0  0  0  0
  -23.8320   -8.1250   22.1320 C   0  0  0  0  0  3  0  0  0  0  0  0
  -22.6680   -7.8400   21.3840 C   0  0  0  0  0  0  0  0  0  0  0  0
  -22.2360   -8.7600   20.4130 C   0  0  0  0  0  3  0  0  0  0  0  0
  -22.9230   -9.9710   20.2200 C   0  0  0  0  0  3  0  0  0  0  0  0
  -21.9450   -6.6770   21.4950 O   0  0  0  0  0  0  0  0  0  0  0  0
  -21.8050   -6.0260   22.6960 C   0  0  0  0  0  0  0  0  0  0  0  0
  -21.2030   -6.6380   23.8180 C   0  0  0  0  0  3  0  0  0  0  0  0
  -21.0320   -5.9080   25.0100 C   0  0  0  0  0  3  0  0  0  0  0  0
  -21.4420   -4.5660   25.0820 C   0  0  0  0  0  0  0  0  0  0  0  0
  -22.0300   -3.9510   23.9670 C   0  0  0  0  0  3  0  0  0  0  0  0
  -22.2150   -4.6800   22.7780 C   0  0  0  0  0  0  0  0  0  0  0  0
  -22.7660   -4.0770   21.6960 F   0  0  0  0  0  0  0  0  0  0  0  0
  -21.2660   -3.8590   26.2230 F   0  0  0  0  0  0  0  0  0  0  0  0
  -22.8800  -13.3390   21.3250 C   0  0  0  0  0  0  0  0  0  0  0  0
  -22.2470  -12.5960   22.2330 N   0  0  0  0  0  0  0  0  0  0  0  0
  -22.3690  -14.3650   20.8790 O   0  0  0  0  0  0  0  0  0  0  0  0
  -22.6670  -11.7600   22.6130 H   0  0  0  0  0  0  0  0  0  0  0  0
  -21.3290  -12.8610   22.5470 H   0  0  0  0  0  0  0  0  0  0  0  0
  -25.3930  -15.0950   20.3230 N   0  0  0  0  0  0  0  0  0  0  0  0
  -24.6530  -15.7490   20.5560 H   0  0  0  0  0  0  0  0  0  0  0  0
  -26.2190  -15.5530   19.9580 H   0  0  0  0  0  0  0  0  0  0  0  0
  -26.8850  -24.0030   21.1500 C   0  0  0  0  0  1  0  0  0  0  0  0
  -28.3290  -24.2750   20.6320 C   0  0  0  0  0  3  0  0  0  0  0  0
  -28.4230  -25.3560   19.5210 C   0  0  0  0  0  2  0  0  0  0  0  0
  -28.3860  -26.7090   20.0070 O   0  0  0  0  0  0  0  0  0  0  0  0
  -24.6060  -31.8730   23.1310 C   0  0  0  0  0  0  0  0  0  0  0  0
  -27.2020  -27.4140   20.0090 C   0  0  0  0  0  0  0  0  0  0  0  0
  -23.3910  -30.4760   21.5030 C   0  0  0  0  0  3  0  0  0  0  0  0
  -24.8210  -28.9420   20.0670 C   0  0  0  0  0  0  0  0  0  0  0  0
  -25.9210  -30.8210   21.2880 C   0  0  0  0  0  2  0  0  0  0  0  0
  -25.9930  -29.4540   20.6360 C   0  0  0  0  0  0  0  0  0  0  0  0
  -27.1870  -28.7010   20.5920 C   0  0  0  0  0  3  0  0  0  0  0  0
  -26.0010  -26.9180   19.4440 C   0  0  0  0  0  3  0  0  0  0  0  0
  -24.8190  -27.6740   19.4680 C   0  0  0  0  0  3  0  0  0  0  0  0
  -23.5900  -29.8150   20.1190 C   0  0  0  0  0  2  0  0  0  0  0  0
  -24.6610  -31.0690   22.0320 N   0  0  0  0  0  0  0  0  0  0  0  0
  -23.5230  -32.1490   23.6710 O   0  0  0  0  0  0  0  0  0  0  0  0
  -22.7490  -29.4430   22.4590 C   0  0  0  0  0  0  0  0  0  0  0  0
  -21.4280  -29.2440   22.3150 N   0  0  0  0  0  0  0  0  0  0  0  0
  -23.4270  -28.8380   23.2920 O   0  0  0  0  0  0  0  0  0  0  0  0
  -20.9440  -29.7790   21.6070 H   0  0  0  0  0  0  0  0  0  0  0  0
  -18.0670  -27.9990   22.7630 C   0  0  0  0  0  0  0  0  0  0  0  0
  -20.6120  -28.3020   23.0800 C   0  0  0  0  0  3  0  0  0  0  0  0
  -20.7560  -26.8720   22.5170 C   0  0  0  0  0  2  0  0  0  0  0  0
  -19.6760  -26.5160   21.4930 C   0  0  0  0  0  2  0  0  0  0  0  0
  -18.2780  -26.6450   22.1080 C   0  0  0  0  0  2  0  0  0  0  0  0
  -19.1640  -28.7850   23.2020 C   0  0  0  0  0  0  0  0  0  0  0  0
  -18.9180  -30.0500   23.7760 C   0  0  0  0  0  3  0  0  0  0  0  0
  -17.6040  -30.5360   23.9160 C   0  0  0  0  0  3  0  0  0  0  0  0
  -16.5170  -29.7490   23.4960 C   0  0  0  0  0  3  0  0  0  0  0  0
  -16.7510  -28.4830   22.9250 C   0  0  0  0  0  3  0  0  0  0  0  0
  -25.8940  -32.5060   23.7480 C   0  0  0  0  0  3  0  0  0  0  0  0
  -26.4310  -31.7110   25.0000 C   0  0  1  0  0  0  0  0  0  0  0  0
  -25.3440  -31.4130   26.0610 C   0  0  0  0  0  1  0  0  0  0  0  0
  -27.0600  -30.3660   24.5670 C   0  0  0  0  0  1  0  0  0  0  0  0
  -27.5590  -32.5190   25.6930 C   0  0  0  0  0  1  0  0  0  0  0  0
  -25.5750  -33.8940   24.1120 N   0  0  0  0  0  0  0  0  0  0  0  0
  -25.8820  -34.9660   23.3700 C   0  0  0  0  0  0  0  0  0  0  0  0
  -26.5390  -34.8930   22.3290 O   0  0  0  0  0  0  0  0  0  0  0  0
  -24.9880  -34.0300   24.9230 H   0  0  0  0  0  0  0  0  0  0  0  0
  -24.1270  -36.7460   23.0740 C   0  0  0  0  0  1  0  0  0  0  0  0
  -25.3800  -36.3380   23.8640 C   0  0  0  0  0  3  0  0  0  0  0  0
  -27.5020  -37.2270   24.7180 C   0  0  0  0  0  1  0  0  0  0  0  0
  -26.4000  -37.4050   23.7760 N   0  0  0  0  0  0  0  0  0  0  0  0
  -25.9820  -38.3160   23.9490 H   0  0  0  0  0  0  0  0  0  0  0  0
  -30.4730  -23.4450   24.7020 C   0  0  0  0  0  1  0  0  0  0  0  0
  -30.6260  -22.0460   24.4450 O   0  0  0  0  0  0  0  0  0  0  0  0
  1  4  1  0
  1  3  2  0
  2  5  2  0
  3  2  1  0
  4  7  1  0
  4  6  1  0
  5 97  1  0
  6  8  1  0
  6  5  1  0
  7 53  1  0
  9  7  1  0
 10 23  1  0
 11 16  1  0
 12 13  1  0
 12 11  1  0
 14 13  1  0
 14 27  1  0
 14 15  1  0
 16 10  1  0
 16 15  1  0
 17 10  2  0
 18 22  1  0
 20 18  1  0
 20 23  1  0
 21 19  1  0
 22  3  1  0
 22 19  1  0
 23 21  1  0
 24 25  2  0
 25 44  1  0
 26 25  1  0
 26 29  1  0
 27 28  1  0
 27 24  1  0
 28 26  2  0
 29 30  1  0
 30 31  2  0
 32 35  1  0
 32 31  1  0
 33 32  2  0
 34 33  1  0
 34 29  2  0
 35 36  1  0
 36 41  2  0
 36 37  1  0
 37 38  2  0
 38 39  1  0
 39 43  1  0
 40 39  2  0
 41 40  1  0
 42 41  1  0
 44 45  1  0
 45 48  1  0
 45 47  1  0
 46 44  2  0
 49 24  1  0
 49 50  1  0
 51 49  1  0
 53 52  1  0
 54 55  1  0
 54 53  1  0
 55 57  1  0
 56 67  2  0
 57 62  1  0
 58 66  1  0
 58 68  1  0
 59 65  1  0
 59 61  1  0
 60 66  1  0
 61 60  1  0
 62 61  2  0
 63 64  1  0
 63 57  2  0
 64 59  2  0
 65 58  1  0
 66 56  1  0
 68 70  2  0
 69 68  1  0
 71 69  1  0
 72 81  2  0
 72 77  1  0
 73 69  1  0
 73 77  1  0
 74 73  1  0
 75 76  1  0
 75 74  1  0
 76 72  1  0
 77 78  2  0
 78 79  1  0
 80 79  2  0
 81 80  1  0
 82 56  1  0
 82 87  1  0
 82 83  1  0
 83 86  1  1
 83 84  1  0
 85 83  1  0
 87 90  1  0
 88 92  1  0
 88 87  1  0
 89 88  2  0
 92 91  1  0
 94 92  1  0
 94 95  1  0
 94 93  1  0
 97 96  1  0
M  ISO  4  10 100  23 100  54 101  55 101
M  END
>  <TORSDO>  (42) 
F 19

>  <SCORE>  (42) 
-12.498

>  <name>  (42) 
43

>  <ligand_id>  (42) 
43

>  <original_smiles>  (42) 
[H]c1c([H])c([H])c2c(c1[H])C([H])([H])C([H])([H])C([H])([H])C2([H])N([H])C(=O)C1([H])N(C(=O)C([H])(N([H])C(=O)C([H])(N([H])C([H])([H])[H])C([H])([H])[H])C(C([H])([H])[H])(C([H])([H])[H])C([H])([H])[H])C([H])([H])c2c([H])c(OC([H])([H])C([H])(N([H])c3c([H])c(N4C([H])([H])C([H])([H])N(C(=O)N5C([H])([H])C([H])([H])C([H])([H])C([H])(n6nc(-c7c([H])c([H])c(Oc8c([H])c([H])c(F)c([H])c8F)c([H])c7[H])c(C(=O)N([H])[H])c6N([H])[H])C5([H])[H])C([H])([H])C4([H])[H])c([H])c(OC([H])([H])[H])[n+]3[H])C([H])([H])[H])c([H])c([H])c2C1([H])[H]

>  <smiles>  (42) 
[H]c1c([H])c([H])c2c(c1[H])C([H])([H])C([H])([H])C([H])([H])C2([H])N([H])C(=O)C1([H])N(C(=O)C([H])(N([H])C(=O)C([H])(N([H])C([H])([H])[H])C([H])([H])[H])C(C([H])([H])[H])(C([H])([H])[H])C([H])([H])[H])C([H])([H])c2c([H])c(OC([H])([H])C([H])(N([H])c3c([H])c(N4C([H])([H])C([H])([H])N(C(=O)N5C([H])([H])C([H])([H])C([H])([H])C([H])(n6nc(-c7c([H])c([H])c(Oc8c([H])c([H])c(F)c([H])c8F)c([H])c7[H])c(C(=O)N([H])[H])c6N([H])[H])C5([H])[H])C([H])([H])C4([H])[H])c([H])c(OC([H])([H])[H])[n+]3[H])C([H])([H])[H])c([H])c([H])c2C1([H])[H]

$$$$
44:0:0
     RDKit          3D

 98108  0  0  1  0  0  0  0  0999 V2000
  -29.2760  -20.4540   19.6090 C   0  0  0  0  0  3  0  0  0  0  0  0
  -30.0800  -19.3720   19.1840 C   0  0  0  0  0  0  0  0  0  0  0  0
  -31.2310  -19.7060   18.4010 C   0  0  0  0  0  0  0  0  0  0  0  0
  -31.5250  -21.0800   18.1750 C   0  0  0  0  0  0  0  0  0  0  0  0
  -30.5910  -22.0690   18.5810 C   0  0  0  0  0  0  0  0  0  0  0  0
  -32.1200  -18.6560   17.7350 C   0  0  0  0  0  1  0  0  0  0  0  0
  -32.8170  -21.4780   17.4500 C   0  0  0  0  0  1  0  0  0  0  0  0
  -29.4930  -21.7500   19.2980 N   0  0  0  0  0  0  0  0  0  0  0  0
  -30.7320  -14.4470   20.1140 C   0  0  0  0  0  0  0  0  0  0  0  0
  -30.3050  -12.3390   18.9250 C   0  0  0  0  0  2  0  0  0  0  0  0
  -29.3150  -12.6180   17.7760 C   0  0  0  0  0  2  0  0  0  0  0  0
  -27.8610  -12.4920   18.2720 C   0  0  0  0  0  2  0  0  0  0  0  0
  -27.6020  -13.2760   19.5880 C   0  0  0  0  0  3  0  0  0  0  0  0
  -28.7120  -13.0030   20.6290 C   0  0  0  0  0  2  0  0  0  0  0  0
  -29.9990  -13.3060   19.9900 N   0  0  0  0  0  0  0  0  0  0  0  0
  -31.9070  -14.4920   19.7350 O   0  0  0  0  0  0  0  0  0  0  0  0
  -29.2620  -17.7040   21.0360 C   0  0  0  0  0  2  0  0  0  0  0  0
  -29.2330  -16.1700   21.2100 C   0  0  0  0  0  2  0  0  0  0  0  0
  -30.4760  -16.7240   19.2740 C   0  0  0  0  0  2  0  0  0  0  0  0
  -29.5840  -17.9400   19.5540 C   0  0  0  0  0  3  0  0  0  0  0  0
  -30.0260  -15.6100   20.1140 N   0  0  0  0  0  0  0  0  0  0  0  0
  -25.2380  -13.8800   20.4010 C   0  0  0  0  0  0  0  0  0  0  0  0
  -24.1850  -13.1060   20.8100 C   0  0  0  0  0  0  0  0  0  0  0  0
  -24.6450  -11.7550   20.7540 C   0  0  0  0  0  0  0  0  0  0  0  0
  -26.2720  -13.0000   20.1250 N   0  0  0  0  0  0  0  0  0  0  0  0
  -25.9210  -11.7160   20.3940 N   0  0  0  0  0  0  0  0  0  0  0  0
  -23.9250  -10.4920   20.9650 C   0  0  0  0  0  0  0  0  0  0  0  0
  -24.3850   -9.5250   21.8870 C   0  0  0  0  0  3  0  0  0  0  0  0
  -23.6650   -8.3270   22.0850 C   0  0  0  0  0  3  0  0  0  0  0  0
  -22.4720   -8.0880   21.3620 C   0  0  0  0  0  0  0  0  0  0  0  0
  -22.0320   -9.0430   20.4300 C   0  0  0  0  0  3  0  0  0  0  0  0
  -22.7520  -10.2320   20.2300 C   0  0  0  0  0  3  0  0  0  0  0  0
  -21.7200   -6.9420   21.4720 O   0  0  0  0  0  0  0  0  0  0  0  0
  -21.6930   -6.2080   22.6300 C   0  0  0  0  0  0  0  0  0  0  0  0
  -21.2920   -6.7710   23.8620 C   0  0  0  0  0  3  0  0  0  0  0  0
  -21.2150   -5.9610   25.0130 C   0  0  0  0  0  3  0  0  0  0  0  0
  -21.5260   -4.5910   24.9330 C   0  0  0  0  0  0  0  0  0  0  0  0
  -21.9210   -4.0280   23.7070 C   0  0  0  0  0  3  0  0  0  0  0  0
  -22.0010   -4.8340   22.5570 C   0  0  0  0  0  0  0  0  0  0  0  0
  -22.3610   -4.2820   21.3740 F   0  0  0  0  0  0  0  0  0  0  0  0
  -21.4450   -3.8120   26.0370 F   0  0  0  0  0  0  0  0  0  0  0  0
  -22.8010  -13.5830   21.1400 C   0  0  0  0  0  0  0  0  0  0  0  0
  -22.1050  -12.8830   22.0290 N   0  0  0  0  0  0  0  0  0  0  0  0
  -22.3450  -14.6130   20.6450 O   0  0  0  0  0  0  0  0  0  0  0  0
  -22.4830  -12.0480   22.4520 H   0  0  0  0  0  0  0  0  0  0  0  0
  -21.1770  -13.1850   22.2910 H   0  0  0  0  0  0  0  0  0  0  0  0
  -25.3940  -15.2520   20.2200 N   0  0  0  0  0  0  0  0  0  0  0  0
  -24.6310  -15.9040   20.3620 H   0  0  0  0  0  0  0  0  0  0  0  0
  -26.2280  -15.6890   19.8520 H   0  0  0  0  0  0  0  0  0  0  0  0
  -28.9120  -23.6770   16.4810 C   0  0  0  0  0  2  0  0  0  0  0  0
  -30.4290  -23.5930   16.5630 C   0  0  0  0  0  2  0  0  0  0  0  0
  -28.5320  -24.4970   17.7160 C   0  0  0  0  0  2  0  0  0  0  0  0
  -30.6970  -23.5250   18.0730 C   0  0  0  0  0  3  0  0  0  0  0  0
  -29.6910  -24.4620   18.6530 N   0  0  1  0  0  4  0  0  0  0  0  0
  -29.3820  -24.0110   19.5060 H   0  0  0  0  0  0  0  0  0  0  0  0
  -30.3060  -25.7950   18.9760 C   0  0  0  0  0  2  0  0  0  0  0  0
  -29.3570  -26.9940   19.2140 C   0  0  0  0  0  2  0  0  0  0  0  0
  -28.4570  -26.7310   20.2770 O   0  0  0  0  0  0  0  0  0  0  0  0
  -24.6070  -31.9240   23.2630 C   0  0  0  0  0  0  0  0  0  0  0  0
  -27.3130  -27.4890   20.2500 C   0  0  0  0  0  0  0  0  0  0  0  0
  -23.4240  -30.4960   21.6250 C   0  0  0  0  0  3  0  0  0  0  0  0
  -24.9050  -28.9570   20.2270 C   0  0  0  0  0  0  0  0  0  0  0  0
  -25.9450  -30.8790   21.4410 C   0  0  0  0  0  2  0  0  0  0  0  0
  -26.0510  -29.5030   20.8180 C   0  0  0  0  0  0  0  0  0  0  0  0
  -27.2600  -28.7740   20.8320 C   0  0  0  0  0  3  0  0  0  0  0  0
  -26.1520  -26.9470   19.6640 C   0  0  0  0  0  3  0  0  0  0  0  0
  -24.9480  -27.6770   19.6470 C   0  0  0  0  0  3  0  0  0  0  0  0
  -23.6500  -29.8020   20.2540 C   0  0  0  0  0  2  0  0  0  0  0  0
  -24.6760  -31.1150   22.1680 N   0  0  0  0  0  0  0  0  0  0  0  0
  -23.5190  -32.1940   23.7930 O   0  0  0  0  0  0  0  0  0  0  0  0
  -22.7740  -29.4790   22.5910 C   0  0  0  0  0  0  0  0  0  0  0  0
  -21.4500  -29.2950   22.4610 N   0  0  0  0  0  0  0  0  0  0  0  0
  -23.4570  -28.8600   23.4110 O   0  0  0  0  0  0  0  0  0  0  0  0
  -20.9600  -29.8500   21.7730 H   0  0  0  0  0  0  0  0  0  0  0  0
  -18.0730  -28.1130   22.9670 C   0  0  0  0  0  0  0  0  0  0  0  0
  -20.6320  -28.3620   23.2350 C   0  0  0  0  0  3  0  0  0  0  0  0
  -20.7280  -26.9290   22.6590 C   0  0  0  0  0  2  0  0  0  0  0  0
  -19.6230  -26.6090   21.6480 C   0  0  0  0  0  2  0  0  0  0  0  0
  -18.2430  -26.7610   22.2930 C   0  0  0  0  0  2  0  0  0  0  0  0
  -19.1950  -28.8710   23.3940 C   0  0  0  0  0  0  0  0  0  0  0  0
  -18.9830  -30.1370   23.9810 C   0  0  0  0  0  3  0  0  0  0  0  0
  -17.6810  -30.6440   24.1460 C   0  0  0  0  0  3  0  0  0  0  0  0
  -16.5730  -29.8830   23.7370 C   0  0  0  0  0  3  0  0  0  0  0  0
  -16.7690  -28.6190   23.1520 C   0  0  0  0  0  3  0  0  0  0  0  0
  -25.8850  -32.5700   23.8860 C   0  0  0  0  0  3  0  0  0  0  0  0
  -26.4020  -31.8110   25.1700 C   0  0  1  0  0  0  0  0  0  0  0  0
  -25.3050  -31.5720   26.2340 C   0  0  0  0  0  1  0  0  0  0  0  0
  -26.9970  -30.4360   24.7880 C   0  0  0  0  0  1  0  0  0  0  0  0
  -27.5420  -32.6200   25.8330 C   0  0  0  0  0  1  0  0  0  0  0  0
  -25.5640  -33.9680   24.2010 N   0  0  0  0  0  0  0  0  0  0  0  0
  -25.8980  -35.0150   23.4340 C   0  0  0  0  0  0  0  0  0  0  0  0
  -26.5800  -34.9060   22.4120 O   0  0  0  0  0  0  0  0  0  0  0  0
  -24.9610  -34.1270   24.9940 H   0  0  0  0  0  0  0  0  0  0  0  0
  -24.1620  -36.7920   23.0420 C   0  0  0  0  0  1  0  0  0  0  0  0
  -25.3950  -36.4040   23.8730 C   0  0  0  0  0  3  0  0  0  0  0  0
  -27.5150  -37.3080   24.7210 C   0  0  0  0  0  1  0  0  0  0  0  0
  -26.4240  -37.4620   23.7640 N   0  0  0  0  0  0  0  0  0  0  0  0
  -26.0100  -38.3810   23.9000 H   0  0  0  0  0  0  0  0  0  0  0  0
  2  1  2  0
  3  2  1  0
  4  3  2  0
  4  5  1  0
  5  8  2  0
  6  3  1  0
  7  4  1  0
  8  1  1  0
 10 15  1  0
 11 12  1  0
 11 10  1  0
 13 12  1  0
 13 25  1  0
 13 14  1  0
 15  9  1  0
 15 14  1  0
 16  9  2  0
 17 18  1  0
 19 20  1  0
 19 21  1  0
 20  2  1  0
 20 17  1  0
 21  9  1  0
 21 18  1  0
 22 23  2  0
 23 42  1  0
 24 23  1  0
 24 27  1  0
 25 26  1  0
 25 22  1  0
 26 24  2  0
 27 28  1  0
 28 29  2  0
 30 33  1  0
 30 29  1  0
 31 30  2  0
 32 31  1  0
 32 27  2  0
 33 34  1  0
 34 35  1  0
 35 36  2  0
 37 36  1  0
 37 41  1  0
 38 37  2  0
 39 34  2  0
 39 38  1  0
 40 39  1  0
 42 43  1  0
 43 46  1  0
 43 45  1  0
 44 42  2  0
 47 48  1  0
 47 22  1  0
 49 47  1  0
 50 51  1  0
 50 52  1  0
 51 53  1  0
 52 54  1  0
 53  5  1  0
 53 54  1  0
 54 56  1  0
 54 55  1  1
 56 57  1  0
 57 58  1  0
 59 70  2  0
 60 58  1  0
 60 65  1  0
 61 69  1  0
 61 71  1  0
 62 68  1  0
 62 64  1  0
 63 69  1  0
 64 65  2  0
 64 63  1  0
 66 60  2  0
 67 66  1  0
 67 62  2  0
 68 61  1  0
 69 59  1  0
 71 73  2  0
 72 71  1  0
 74 72  1  0
 75 84  2  0
 75 80  1  0
 76 72  1  0
 76 80  1  0
 77 76  1  0
 78 79  1  0
 78 77  1  0
 79 75  1  0
 80 81  2  0
 81 82  1  0
 83 82  2  0
 84 83  1  0
 85 59  1  0
 85 90  1  0
 85 86  1  0
 86 89  1  1
 86 87  1  0
 88 86  1  0
 90 93  1  0
 91 95  1  0
 91 90  1  0
 92 91  2  0
 95 94  1  0
 97 95  1  0
 97 98  1  0
 97 96  1  0
M  ISO  4   9 100  21 100  57 101  58 101
M  END
>  <TORSDO>  (43) 
F 19

>  <SCORE>  (43) 
-13.990

>  <name>  (43) 
44

>  <ligand_id>  (43) 
44

>  <original_smiles>  (43) 
[H]c1nc(C2([H])C([H])([H])C([H])([H])C([H])([H])[N+]2([H])C([H])([H])C([H])([H])Oc2c([H])c([H])c3c(c2[H])C([H])([H])N(C(=O)C([H])(N([H])C(=O)C([H])(N([H])C([H])([H])[H])C([H])([H])[H])C(C([H])([H])[H])(C([H])([H])[H])C([H])([H])[H])C([H])(C(=O)N([H])C2([H])c4c([H])c([H])c([H])c([H])c4C([H])([H])C([H])([H])C2([H])[H])C3([H])[H])c(C([H])([H])[H])c(C([H])([H])[H])c1C1([H])C([H])([H])N(C(=O)N2C([H])([H])C([H])([H])C([H])([H])C([H])(n3nc(-c4c([H])c([H])c(Oc5c([H])c([H])c(F)c([H])c5F)c([H])c4[H])c(C(=O)N([H])[H])c3N([H])[H])C2([H])[H])C([H])([H])C1([H])[H]

>  <smiles>  (43) 
[H]c1nc(C2([H])C([H])([H])C([H])([H])C([H])([H])[N+]2([H])C([H])([H])C([H])([H])Oc2c([H])c([H])c3c(c2[H])C([H])([H])N(C(=O)C([H])(N([H])C(=O)C([H])(N([H])C([H])([H])[H])C([H])([H])[H])C(C([H])([H])[H])(C([H])([H])[H])C([H])([H])[H])C([H])(C(=O)N([H])C2([H])c4c([H])c([H])c([H])c([H])c4C([H])([H])C([H])([H])C2([H])[H])C3([H])[H])c(C([H])([H])[H])c(C([H])([H])[H])c1C1([H])C([H])([H])N(C(=O)N2C([H])([H])C([H])([H])C([H])([H])C([H])(n3nc(-c4c([H])c([H])c(Oc5c([H])c([H])c(F)c([H])c5F)c([H])c4[H])c(C(=O)N([H])[H])c3N([H])[H])C2([H])[H])C([H])([H])C1([H])[H]

$$$$
45:0:0
     RDKit          3D

 94103  0  0  1  0  0  0  0  0999 V2000
  -30.2920  -19.5510   18.6740 C   0  0  0  0  0  0  0  0  0  0  0  0
  -29.6080  -19.3530   19.8980 C   0  0  0  0  0  0  0  0  0  0  0  0
  -30.3730  -20.8740   18.1800 C   0  0  0  0  0  0  0  0  0  0  0  0
  -29.0180  -21.8080   19.8220 C   0  0  0  0  0  0  0  0  0  0  0  0
  -28.9490  -20.5240   20.4210 N   0  0  0  0  0  0  0  0  0  0  0  0
  -29.7650  -21.9370   18.7350 N   0  0  0  0  0  0  0  0  0  0  0  0
  -31.0040  -18.2510   16.4650 C   0  0  0  0  0  2  0  0  0  0  0  0
  -30.2260  -17.2810   17.3090 C   0  0  0  0  0  2  0  0  0  0  0  0
  -30.9940  -18.4030   17.9760 C   0  0  0  0  0  3  0  0  0  0  0  0
  -30.5170  -21.8740   15.9700 C   0  0  0  0  0  1  0  0  0  0  0  0
  -31.1720  -21.1800   17.0730 N   0  0  0  0  0  0  0  0  0  0  0  0
  -31.7150  -20.3810   16.7600 H   0  0  0  0  0  0  0  0  0  0  0  0
  -29.8300  -17.9020   20.7160 C   0  0  0  0  0  2  0  0  0  0  0  0
  -30.4880  -15.1710   20.2900 C   0  0  0  0  0  0  0  0  0  0  0  0
  -30.4250  -12.8020   19.3390 C   0  0  0  0  0  2  0  0  0  0  0  0
  -29.4790  -12.7180   18.1190 C   0  0  0  0  0  2  0  0  0  0  0  0
  -28.0290  -12.4680   18.5730 C   0  0  0  0  0  2  0  0  0  0  0  0
  -27.6090  -13.3940   19.7430 C   0  0  0  0  0  3  0  0  0  0  0  0
  -28.6730  -13.4390   20.8550 C   0  0  0  0  0  2  0  0  0  0  0  0
  -29.9170  -13.8960   20.2170 N   0  0  0  0  0  0  0  0  0  0  0  0
  -31.7140  -15.2270   20.1480 O   0  0  0  0  0  0  0  0  0  0  0  0
  -29.6710  -16.3540   20.3050 N   0  0  0  0  0  0  0  0  0  0  0  0
  -28.6990  -16.1190   20.1850 H   0  0  0  0  0  0  0  0  0  0  0  0
  -25.2380  -13.9500   20.5150 C   0  0  0  0  0  0  0  0  0  0  0  0
  -24.1800  -13.1660   20.8850 C   0  0  0  0  0  0  0  0  0  0  0  0
  -24.6540  -11.8180   20.8430 C   0  0  0  0  0  0  0  0  0  0  0  0
  -26.2820  -13.0800   20.2590 N   0  0  0  0  0  0  0  0  0  0  0  0
  -25.9420  -11.7930   20.5240 N   0  0  0  0  0  0  0  0  0  0  0  0
  -23.9360  -10.5490   21.0230 C   0  0  0  0  0  0  0  0  0  0  0  0
  -24.3600   -9.5920   21.9700 C   0  0  0  0  0  3  0  0  0  0  0  0
  -23.6420   -8.3880   22.1410 C   0  0  0  0  0  3  0  0  0  0  0  0
  -22.4860   -8.1370   21.3660 C   0  0  0  0  0  0  0  0  0  0  0  0
  -22.0830   -9.0840   20.4090 C   0  0  0  0  0  3  0  0  0  0  0  0
  -22.8020  -10.2780   20.2360 C   0  0  0  0  0  3  0  0  0  0  0  0
  -21.7370   -6.9880   21.4470 O   0  0  0  0  0  0  0  0  0  0  0  0
  -21.6520   -6.2670   22.6100 C   0  0  0  0  0  0  0  0  0  0  0  0
  -21.1420   -6.8270   23.8010 C   0  0  0  0  0  3  0  0  0  0  0  0
  -21.0040   -6.0280   24.9540 C   0  0  0  0  0  3  0  0  0  0  0  0
  -21.3680   -4.6690   24.9160 C   0  0  0  0  0  0  0  0  0  0  0  0
  -21.8720   -4.1070   23.7300 C   0  0  0  0  0  3  0  0  0  0  0  0
  -22.0100   -4.9030   22.5790 C   0  0  0  0  0  0  0  0  0  0  0  0
  -22.4760   -4.3510   21.4330 F   0  0  0  0  0  0  0  0  0  0  0  0
  -21.2310   -3.8990   26.0210 F   0  0  0  0  0  0  0  0  0  0  0  0
  -22.7790  -13.6320   21.1610 C   0  0  0  0  0  0  0  0  0  0  0  0
  -22.0560  -12.9190   22.0150 N   0  0  0  0  0  0  0  0  0  0  0  0
  -22.3360  -14.6640   20.6560 O   0  0  0  0  0  0  0  0  0  0  0  0
  -22.4290  -12.0870   22.4490 H   0  0  0  0  0  0  0  0  0  0  0  0
  -21.1130  -13.2080   22.2420 H   0  0  0  0  0  0  0  0  0  0  0  0
  -25.3890  -15.3250   20.3440 N   0  0  0  0  0  0  0  0  0  0  0  0
  -24.6150  -15.9700   20.4580 H   0  0  0  0  0  0  0  0  0  0  0  0
  -26.2160  -15.7650   19.9640 H   0  0  0  0  0  0  0  0  0  0  0  0
  -28.0450  -23.1650   20.0330 C   0  0  0  0  0  2  0  0  0  0  0  0
  -28.2980  -24.7090   20.7480 C   0  0  0  0  0  2  0  0  0  0  0  0
  -28.2590  -26.2230   20.2740 O   0  0  0  0  0  0  0  0  0  0  0  0
  -24.5670  -31.9780   23.2670 C   0  0  0  0  0  0  0  0  0  0  0  0
  -27.1650  -27.1770   20.3340 C   0  0  0  0  0  0  0  0  0  0  0  0
  -23.3820  -30.5620   21.6310 C   0  0  0  0  0  3  0  0  0  0  0  0
  -24.8420  -28.9420   20.2610 C   0  0  0  0  0  0  0  0  0  0  0  0
  -25.9390  -30.8130   21.4880 C   0  0  0  0  0  2  0  0  0  0  0  0
  -26.0200  -29.3990   20.8640 C   0  0  0  0  0  0  0  0  0  0  0  0
  -27.1850  -28.5350   20.8740 C   0  0  0  0  0  3  0  0  0  0  0  0
  -25.9550  -26.8180   19.7120 C   0  0  0  0  0  3  0  0  0  0  0  0
  -24.8240  -27.6690   19.6710 C   0  0  0  0  0  3  0  0  0  0  0  0
  -23.6200  -29.8530   20.2690 C   0  0  0  0  0  2  0  0  0  0  0  0
  -24.6490  -31.1430   22.1830 N   0  0  0  0  0  0  0  0  0  0  0  0
  -23.4760  -32.2730   23.7780 O   0  0  0  0  0  0  0  0  0  0  0  0
  -22.6870  -29.5760   22.6020 C   0  0  0  0  0  0  0  0  0  0  0  0
  -21.3600  -29.4070   22.4620 N   0  0  0  0  0  0  0  0  0  0  0  0
  -23.3470  -28.9600   23.4430 O   0  0  0  0  0  0  0  0  0  0  0  0
  -20.8830  -29.9600   21.7620 H   0  0  0  0  0  0  0  0  0  0  0  0
  -17.9670  -28.2330   22.9500 C   0  0  0  0  0  0  0  0  0  0  0  0
  -20.5260  -28.4820   23.2350 C   0  0  0  0  0  3  0  0  0  0  0  0
  -20.6230  -27.0440   22.6740 C   0  0  0  0  0  2  0  0  0  0  0  0
  -19.5260  -26.7220   21.6530 C   0  0  0  0  0  2  0  0  0  0  0  0
  -18.1410  -26.8790   22.2850 C   0  0  0  0  0  2  0  0  0  0  0  0
  -19.0870  -28.9930   23.3820 C   0  0  0  0  0  0  0  0  0  0  0  0
  -18.8700  -30.2590   23.9660 C   0  0  0  0  0  3  0  0  0  0  0  0
  -17.5660  -30.7650   24.1260 C   0  0  0  0  0  3  0  0  0  0  0  0
  -16.4620  -30.0040   23.7070 C   0  0  0  0  0  3  0  0  0  0  0  0
  -16.6620  -28.7400   23.1230 C   0  0  0  0  0  3  0  0  0  0  0  0
  -25.8370  -32.6210   23.9040 C   0  0  0  0  0  3  0  0  0  0  0  0
  -25.5300  -34.0300   24.2060 N   0  0  0  0  0  0  0  0  0  0  0  0
  -25.8810  -35.0720   23.4400 C   0  0  0  0  0  0  0  0  0  0  0  0
  -26.5730  -34.9470   22.4250 O   0  0  0  0  0  0  0  0  0  0  0  0
  -24.9320  -34.2000   25.0020 H   0  0  0  0  0  0  0  0  0  0  0  0
  -24.1890  -36.8830   23.0130 C   0  0  0  0  0  1  0  0  0  0  0  0
  -25.3990  -36.4720   23.8690 C   0  0  0  0  0  3  0  0  0  0  0  0
  -27.5130  -37.3440   24.7620 C   0  0  0  0  0  1  0  0  0  0  0  0
  -26.4470  -37.5130   23.7770 N   0  0  0  0  0  0  0  0  0  0  0  0
  -26.0460  -38.4390   23.9000 H   0  0  0  0  0  0  0  0  0  0  0  0
  -26.3140  -31.8780   25.2120 C   0  0  1  0  0  0  0  0  0  0  0  0
  -25.1930  -31.6770   26.2580 C   0  0  0  0  0  1  0  0  0  0  0  0
  -26.8960  -30.4880   24.8730 C   0  0  0  0  0  1  0  0  0  0  0  0
  -27.4530  -32.6800   25.8860 C   0  0  0  0  0  1  0  0  0  0  0  0
  1  2  2  0
  2  5  1  0
  2 13  1  0
  3  1  1  0
  3  6  2  0
  4 52  1  0
  4  5  2  0
  6  4  1  0
  7  8  1  0
  7  9  1  0
  8  9  1  0
  9  1  1  0
 10 11  1  0
 11  3  1  0
 12 11  1  0
 14 22  1  0
 15 20  1  0
 16 17  1  0
 16 15  1  0
 18 17  1  0
 18 27  1  0
 18 19  1  0
 20 14  1  0
 20 19  1  0
 21 14  2  0
 22 13  1  0
 23 22  1  0
 24 25  2  0
 25 44  1  0
 26 25  1  0
 26 29  1  0
 27 24  1  0
 27 28  1  0
 28 26  2  0
 29 30  1  0
 30 31  2  0
 32 35  1  0
 32 31  1  0
 33 32  2  0
 34 33  1  0
 34 29  2  0
 35 36  1  0
 36 37  1  0
 37 38  2  0
 39 38  1  0
 39 43  1  0
 40 39  2  0
 41 36  2  0
 41 40  1  0
 42 41  1  0
 44 45  1  0
 45 48  1  0
 45 47  1  0
 46 44  2  0
 49 50  1  0
 49 24  1  0
 51 49  1  0
 52 53  1  0
 54 56  1  0
 54 53  1  0
 55 66  2  0
 56 61  1  0
 57 65  1  0
 57 67  1  0
 58 64  1  0
 58 60  1  0
 59 65  1  0
 60 61  2  0
 60 59  1  0
 62 56  2  0
 63 62  1  0
 63 58  2  0
 64 57  1  0
 65 55  1  0
 67 69  2  0
 68 67  1  0
 70 68  1  0
 71 80  2  0
 71 76  1  0
 72 68  1  0
 72 76  1  0
 73 72  1  0
 74 75  1  0
 74 73  1  0
 75 71  1  0
 76 77  2  0
 77 78  1  0
 79 78  2  0
 80 79  1  0
 81 55  1  0
 81 82  1  0
 81 91  1  0
 82 85  1  0
 83 87  1  0
 83 82  1  0
 84 83  2  0
 87 86  1  0
 89 87  1  0
 89 90  1  0
 89 88  1  0
 91 94  1  1
 91 92  1  0
 93 91  1  0
M  ISO  4  14 100  22 100  53 101  54 101
M  END
>  <TORSDO>  (44) 
F 21

>  <SCORE>  (44) 
-13.737

>  <name>  (44) 
45

>  <ligand_id>  (44) 
45

>  <original_smiles>  (44) 
[H]c1c([H])c([H])c2c(c1[H])C([H])([H])C([H])([H])C([H])([H])C2([H])N([H])C(=O)C1([H])N(C(=O)C([H])(N([H])C(=O)C([H])(N([H])C([H])([H])[H])C([H])([H])[H])C(C([H])([H])[H])(C([H])([H])[H])C([H])([H])[H])C([H])([H])c2c([H])c(OC([H])([H])C([H])([H])c3nc(N([H])C([H])([H])[H])c(C4([H])C([H])([H])C4([H])[H])c(C([H])([H])N([H])C(=O)N4C([H])([H])C([H])([H])C([H])([H])C([H])(n5nc(-c6c([H])c([H])c(Oc7c([H])c([H])c(F)c([H])c7F)c([H])c6[H])c(C(=O)N([H])[H])c5N([H])[H])C4([H])[H])n3)c([H])c([H])c2C1([H])[H]

>  <smiles>  (44) 
[H]c1c([H])c([H])c2c(c1[H])C([H])([H])C([H])([H])C([H])([H])C2([H])N([H])C(=O)C1([H])N(C(=O)C([H])(N([H])C(=O)C([H])(N([H])C([H])([H])[H])C([H])([H])[H])C(C([H])([H])[H])(C([H])([H])[H])C([H])([H])[H])C([H])([H])c2c([H])c(OC([H])([H])C([H])([H])c3nc(N([H])C([H])([H])[H])c(C4([H])C([H])([H])C4([H])[H])c(C([H])([H])N([H])C(=O)N4C([H])([H])C([H])([H])C([H])([H])C([H])(n5nc(-c6c([H])c([H])c(Oc7c([H])c([H])c(F)c([H])c7F)c([H])c6[H])c(C(=O)N([H])[H])c5N([H])[H])C4([H])[H])n3)c([H])c([H])c2C1([H])[H]

$$$$
46:0:0
     RDKit          3D

100109  0  0  1  0  0  0  0  0999 V2000
  -30.7130  -18.5200   22.0320 C   0  0  0  0  0  3  0  0  0  0  0  0
  -29.9870  -18.2720   20.8500 C   0  0  0  0  0  0  0  0  0  0  0  0
  -30.9240  -19.8670   22.4330 C   0  0  0  0  0  0  0  0  0  0  0  0
  -29.5010  -19.3910   20.1420 C   0  0  0  0  0  0  0  0  0  0  0  0
  -30.4300  -20.9240   21.6170 C   0  0  0  0  0  0  0  0  0  0  0  0
  -28.6920  -19.1950   18.8750 C   0  0  0  0  0  2  0  0  0  0  0  0
  -29.2360  -18.0620   17.9790 C   0  0  0  0  0  2  0  0  0  0  0  0
  -29.7660  -16.8960   20.1940 C   0  0  0  0  0  3  0  0  0  0  0  0
  -30.1850  -17.0590   18.6950 C   0  0  0  0  0  3  0  0  0  0  0  0
  -31.6790  -20.1420   23.7230 C   0  0  0  0  0  1  0  0  0  0  0  0
  -29.7240  -20.6680   20.4970 N   0  0  0  0  0  0  0  0  0  0  0  0
  -30.8890  -14.6190   20.6960 C   0  0  0  0  0  0  0  0  0  0  0  0
  -30.7130  -12.3760   19.6750 C   0  0  0  0  0  2  0  0  0  0  0  0
  -29.8200  -12.4720   18.4140 C   0  0  0  0  0  2  0  0  0  0  0  0
  -28.3180  -12.4190   18.7660 C   0  0  0  0  0  2  0  0  0  0  0  0
  -27.9260  -13.2950   19.9900 C   0  0  0  0  0  3  0  0  0  0  0  0
  -28.9290  -13.1030   21.1550 C   0  0  0  0  0  2  0  0  0  0  0  0
  -30.2790  -13.4020   20.6400 N   0  0  0  0  0  0  0  0  0  0  0  0
  -32.0160  -14.8280   20.2400 O   0  0  0  0  0  0  0  0  0  0  0  0
  -30.0330  -15.6320   20.9360 N   0  0  0  0  0  0  0  0  0  0  0  0
  -29.2220  -15.3110   21.4440 H   0  0  0  0  0  0  0  0  0  0  0  0
  -25.4980  -13.9400   20.5800 C   0  0  0  0  0  0  0  0  0  0  0  0
  -24.4090  -13.1800   20.9130 C   0  0  0  0  0  0  0  0  0  0  0  0
  -24.8580  -11.8260   20.9180 C   0  0  0  0  0  0  0  0  0  0  0  0
  -26.5460  -13.0460   20.4070 N   0  0  0  0  0  0  0  0  0  0  0  0
  -26.1620  -11.7720   20.6770 N   0  0  0  0  0  0  0  0  0  0  0  0
  -24.1160  -10.5700   21.0900 C   0  0  0  0  0  0  0  0  0  0  0  0
  -24.5110   -9.6130   22.0510 C   0  0  0  0  0  3  0  0  0  0  0  0
  -23.7630   -8.4270   22.2240 C   0  0  0  0  0  3  0  0  0  0  0  0
  -22.6190   -8.1840   21.4280 C   0  0  0  0  0  0  0  0  0  0  0  0
  -22.2420   -9.1300   20.4570 C   0  0  0  0  0  3  0  0  0  0  0  0
  -22.9880  -10.3090   20.2860 C   0  0  0  0  0  3  0  0  0  0  0  0
  -21.8610   -7.0400   21.4960 O   0  0  0  0  0  0  0  0  0  0  0  0
  -21.7690   -6.3030   22.6500 C   0  0  0  0  0  0  0  0  0  0  0  0
  -21.2770   -6.8630   23.8510 C   0  0  0  0  0  3  0  0  0  0  0  0
  -21.1380   -6.0580   24.9970 C   0  0  0  0  0  3  0  0  0  0  0  0
  -21.4740   -4.6910   24.9480 C   0  0  0  0  0  0  0  0  0  0  0  0
  -21.9570   -4.1320   23.7540 C   0  0  0  0  0  3  0  0  0  0  0  0
  -22.1050   -4.9350   22.6070 C   0  0  0  0  0  0  0  0  0  0  0  0
  -22.5570   -4.3850   21.4540 F   0  0  0  0  0  0  0  0  0  0  0  0
  -21.3280   -3.9190   26.0490 F   0  0  0  0  0  0  0  0  0  0  0  0
  -23.0020  -13.6700   21.1090 C   0  0  0  0  0  0  0  0  0  0  0  0
  -22.2280  -13.0090   21.9610 N   0  0  0  0  0  0  0  0  0  0  0  0
  -22.5950  -14.6800   20.5340 O   0  0  0  0  0  0  0  0  0  0  0  0
  -22.5520  -12.1890   22.4540 H   0  0  0  0  0  0  0  0  0  0  0  0
  -21.2860  -13.3330   22.1240 H   0  0  0  0  0  0  0  0  0  0  0  0
  -25.6740  -15.3090   20.3820 N   0  0  0  0  0  0  0  0  0  0  0  0
  -24.8990  -15.9610   20.4830 H   0  0  0  0  0  0  0  0  0  0  0  0
  -26.4850  -15.7350   19.9580 H   0  0  0  0  0  0  0  0  0  0  0  0
  -30.2610  -15.8340   17.8950 N   0  0  0  0  0  4  0  0  0  0  0  0
  -29.3690  -15.3780   17.8240 H   0  0  0  0  0  0  0  0  0  0  0  0
  -30.9600  -15.2230   18.2850 H   0  0  0  0  0  0  0  0  0  0  0  0
  -30.5590  -16.0700   16.9630 H   0  0  0  0  0  0  0  0  0  0  0  0
  -30.6250  -22.4300   21.8950 C   0  0  0  0  0  2  0  0  0  0  0  0
  -29.5090  -23.2060   21.2850 N   0  0  0  0  0  4  0  0  0  0  0  0
  -28.7190  -23.1180   21.9020 H   0  0  0  0  0  0  0  0  0  0  0  0
  -29.2980  -22.6460   20.4690 H   0  0  0  0  0  0  0  0  0  0  0  0
  -29.7300  -24.6450   20.9200 C   0  0  0  0  0  2  0  0  0  0  0  0
  -28.4550  -25.3300   20.3360 C   0  0  0  0  0  2  0  0  0  0  0  0
  -28.5260  -26.7730   20.2840 O   0  0  0  0  0  0  0  0  0  0  0  0
  -24.5850  -31.9220   23.2460 C   0  0  0  0  0  0  0  0  0  0  0  0
  -27.3290  -27.4780   20.2340 C   0  0  0  0  0  0  0  0  0  0  0  0
  -23.4110  -30.4880   21.6070 C   0  0  0  0  0  3  0  0  0  0  0  0
  -24.9000  -28.9570   20.2000 C   0  0  0  0  0  0  0  0  0  0  0  0
  -25.9320  -30.8800   21.4230 C   0  0  0  0  0  2  0  0  0  0  0  0
  -26.0440  -29.5030   20.7950 C   0  0  0  0  0  0  0  0  0  0  0  0
  -27.2580  -28.7760   20.8020 C   0  0  0  0  0  3  0  0  0  0  0  0
  -26.1640  -26.9520   19.6270 C   0  0  0  0  0  3  0  0  0  0  0  0
  -24.9570  -27.6830   19.6070 C   0  0  0  0  0  3  0  0  0  0  0  0
  -23.6390  -29.7930   20.2360 C   0  0  0  0  0  2  0  0  0  0  0  0
  -24.6600  -31.1130   22.1510 N   0  0  0  0  0  0  0  0  0  0  0  0
  -23.4940  -32.1850   23.7740 O   0  0  0  0  0  0  0  0  0  0  0  0
  -22.7640  -29.4710   22.5740 C   0  0  0  0  0  0  0  0  0  0  0  0
  -21.4410  -29.2800   22.4450 N   0  0  0  0  0  0  0  0  0  0  0  0
  -23.4480  -28.8560   23.3930 O   0  0  0  0  0  0  0  0  0  0  0  0
  -20.9500  -29.8290   21.7530 H   0  0  0  0  0  0  0  0  0  0  0  0
  -18.0650  -28.0960   22.9710 C   0  0  0  0  0  0  0  0  0  0  0  0
  -20.6280  -28.3380   23.2120 C   0  0  0  0  0  3  0  0  0  0  0  0
  -20.7160  -26.9130   22.6180 C   0  0  0  0  0  2  0  0  0  0  0  0
  -19.5990  -26.6070   21.6160 C   0  0  0  0  0  2  0  0  0  0  0  0
  -18.2260  -26.7520   22.2780 C   0  0  0  0  0  2  0  0  0  0  0  0
  -19.1940  -28.8470   23.3940 C   0  0  0  0  0  0  0  0  0  0  0  0
  -18.9900  -30.1060   24.0000 C   0  0  0  0  0  3  0  0  0  0  0  0
  -17.6890  -30.6110   24.1890 C   0  0  0  0  0  3  0  0  0  0  0  0
  -16.5750  -29.8560   23.7830 C   0  0  0  0  0  3  0  0  0  0  0  0
  -16.7650  -28.6000   23.1790 C   0  0  0  0  0  3  0  0  0  0  0  0
  -25.8570  -32.5730   23.8750 C   0  0  0  0  0  3  0  0  0  0  0  0
  -25.5310  -33.9710   24.1890 N   0  0  0  0  0  0  0  0  0  0  0  0
  -25.8620  -35.0190   23.4220 C   0  0  0  0  0  0  0  0  0  0  0  0
  -26.5430  -34.9110   22.4000 O   0  0  0  0  0  0  0  0  0  0  0  0
  -24.9260  -34.1300   24.9810 H   0  0  0  0  0  0  0  0  0  0  0  0
  -24.1280  -36.7940   23.0190 C   0  0  0  0  0  1  0  0  0  0  0  0
  -25.3560  -36.4090   23.8570 C   0  0  0  0  0  3  0  0  0  0  0  0
  -27.4650  -37.3180   24.7230 C   0  0  0  0  0  1  0  0  0  0  0  0
  -26.3840  -37.4670   23.7540 N   0  0  0  0  0  0  0  0  0  0  0  0
  -25.9710  -38.3870   23.8750 H   0  0  0  0  0  0  0  0  0  0  0  0
  -26.3700  -31.8200   25.1630 C   0  0  1  0  0  0  0  0  0  0  0  0
  -25.2650  -31.5620   26.2150 C   0  0  0  0  0  1  0  0  0  0  0  0
  -26.9900  -30.4540   24.7850 C   0  0  0  0  0  1  0  0  0  0  0  0
  -27.4940  -32.6400   25.8360 C   0  0  0  0  0  1  0  0  0  0  0  0
  1  3  1  0
  2  1  2  0
  3 10  1  0
  4 11  2  0
  4  2  1  0
  5 54  1  0
  5  3  2  0
  6  4  1  0
  7  9  1  0
  7  6  1  0
  8  2  1  0
  8 20  1  0
  9 50  1  0
  9  8  1  0
 11  5  1  0
 12 20  1  0
 13 18  1  0
 14 15  1  0
 14 13  1  0
 16 15  1  0
 16 25  1  0
 16 17  1  0
 18 12  1  0
 18 17  1  0
 19 12  2  0
 20 21  1  0
 22 23  2  0
 23 24  1  0
 23 42  1  0
 24 27  1  0
 25 22  1  0
 25 26  1  0
 26 24  2  0
 27 28  1  0
 28 29  2  0
 30 33  1  0
 30 29  1  0
 31 30  2  0
 32 31  1  0
 32 27  2  0
 33 34  1  0
 34 35  1  0
 35 36  2  0
 37 36  1  0
 37 41  1  0
 38 37  2  0
 39 34  2  0
 39 38  1  0
 40 39  1  0
 42 43  1  0
 43 46  1  0
 43 45  1  0
 44 42  2  0
 47 48  1  0
 47 22  1  0
 49 47  1  0
 50 52  1  0
 51 50  1  0
 53 50  1  0
 55 54  1  0
 55 56  1  0
 57 55  1  0
 58 55  1  0
 59 58  1  0
 60 59  1  0
 61 72  2  0
 62 60  1  0
 62 67  1  0
 63 71  1  0
 63 73  1  0
 64 70  1  0
 64 66  1  0
 65 71  1  0
 66 67  2  0
 66 65  1  0
 68 62  2  0
 69 68  1  0
 69 64  2  0
 70 63  1  0
 71 61  1  0
 73 75  2  0
 74 73  1  0
 76 74  1  0
 77 86  2  0
 77 82  1  0
 78 74  1  0
 78 82  1  0
 79 78  1  0
 80 81  1  0
 80 79  1  0
 81 77  1  0
 82 83  2  0
 83 84  1  0
 85 84  2  0
 86 85  1  0
 87 61  1  0
 87 88  1  0
 87 97  1  0
 88 91  1  0
 89 93  1  0
 89 88  1  0
 90 89  2  0
 93 92  1  0
 95 93  1  0
 95 96  1  0
 95 94  1  0
 97100  1  1
 97 98  1  0
 99 97  1  0
M  ISO  4  12 100  20 100  59 101  60 101
M  END
>  <TORSDO>  (45) 
F 21

>  <SCORE>  (45) 
-13.463

>  <name>  (45) 
46

>  <ligand_id>  (45) 
46

>  <original_smiles>  (45) 
[H]c1c([H])c([H])c2c(c1[H])C([H])([H])C([H])([H])C([H])([H])C2([H])N([H])C(=O)C1([H])N(C(=O)C([H])(N([H])C(=O)C([H])(N([H])C([H])([H])[H])C([H])([H])[H])C(C([H])([H])[H])(C([H])([H])[H])C([H])([H])[H])C([H])([H])c2c([H])c(OC([H])([H])C([H])([H])[N+]([H])([H])C([H])([H])c3nc4c(c([H])c3C([H])([H])[H])C([H])(N([H])C(=O)N3C([H])([H])C([H])([H])C([H])([H])C([H])(n5nc(-c6c([H])c([H])c(Oc7c([H])c([H])c(F)c([H])c7F)c([H])c6[H])c(C(=O)N([H])[H])c5N([H])[H])C3([H])[H])C([H])([N+]([H])([H])[H])C([H])([H])C4([H])[H])c([H])c([H])c2C1([H])[H]

>  <smiles>  (45) 
[H]c1c([H])c([H])c2c(c1[H])C([H])([H])C([H])([H])C([H])([H])C2([H])N([H])C(=O)C1([H])N(C(=O)C([H])(N([H])C(=O)C([H])(N([H])C([H])([H])[H])C([H])([H])[H])C(C([H])([H])[H])(C([H])([H])[H])C([H])([H])[H])C([H])([H])c2c([H])c(OC([H])([H])C([H])([H])[N+]([H])([H])C([H])([H])c3nc4c(c([H])c3C([H])([H])[H])C([H])(N([H])C(=O)N3C([H])([H])C([H])([H])C([H])([H])C([H])(n5nc(-c6c([H])c([H])c(Oc7c([H])c([H])c(F)c([H])c7F)c([H])c6[H])c(C(=O)N([H])[H])c5N([H])[H])C3([H])[H])C([H])([N+]([H])([H])[H])C([H])([H])C4([H])[H])c([H])c([H])c2C1([H])[H]

$$$$
47:0:0
     RDKit          3D

 93102  0  0  1  0  0  0  0  0999 V2000
  -28.5370  -22.8810   22.8640 C   0  0  0  0  0  2  0  0  0  0  0  0
  -28.9160  -24.2960   22.4410 C   0  0  0  0  0  2  0  0  0  0  0  0
  -28.2510  -22.5460   21.3880 C   0  0  0  0  0  3  0  0  0  0  0  0
  -28.0900  -24.1530   21.1480 C   0  0  1  0  0  0  0  0  0  0  0  0
  -26.6170  -24.5790   21.3060 C   0  0  0  0  0  1  0  0  0  0  0  0
  -28.9150  -18.9660   19.8390 C   0  0  0  0  0  3  0  0  0  0  0  0
  -30.2340  -20.8340   21.3480 C   0  0  0  0  0  3  0  0  0  0  0  0
  -28.9900  -21.2580   20.8170 C   0  0  0  0  0  0  0  0  0  0  0  0
  -28.3470  -20.2710   19.9960 C   0  0  0  0  0  0  0  0  0  0  0  0
  -30.1290  -18.6250   20.4770 C   0  0  0  0  0  0  0  0  0  0  0  0
  -27.0210  -20.5440   19.3060 C   0  0  0  0  0  1  0  0  0  0  0  0
  -30.7710  -19.5880   21.1910 N   0  0  0  0  0  0  0  0  0  0  0  0
  -30.9000  -17.2570   20.3190 C   0  0  0  0  0  2  0  0  0  0  0  0
  -30.9900  -14.7260   20.3220 C   0  0  0  0  0  0  0  0  0  0  0  0
  -30.6980  -12.5040   19.2560 C   0  0  0  0  0  2  0  0  0  0  0  0
  -29.7670  -12.6460   18.0320 C   0  0  0  0  0  2  0  0  0  0  0  0
  -28.2930  -12.5130   18.4580 C   0  0  0  0  0  2  0  0  0  0  0  0
  -27.9420  -13.3840   19.6960 C   0  0  0  0  0  3  0  0  0  0  0  0
  -28.9950  -13.2380   20.8160 C   0  0  0  0  0  2  0  0  0  0  0  0
  -30.3020  -13.5440   20.2300 N   0  0  0  0  0  0  0  0  0  0  0  0
  -32.1790  -14.7790   19.9990 O   0  0  0  0  0  0  0  0  0  0  0  0
  -30.2930  -15.8920   20.5410 N   0  0  0  0  0  0  0  0  0  0  0  0
  -29.3050  -15.8460   20.7350 H   0  0  0  0  0  0  0  0  0  0  0  0
  -25.5520  -14.0120   20.3950 C   0  0  0  0  0  0  0  0  0  0  0  0
  -24.4750  -13.2540   20.7610 C   0  0  0  0  0  0  0  0  0  0  0  0
  -24.9230  -11.8970   20.7470 C   0  0  0  0  0  0  0  0  0  0  0  0
  -26.5890  -13.1190   20.1770 N   0  0  0  0  0  0  0  0  0  0  0  0
  -26.2160  -11.8430   20.4530 N   0  0  0  0  0  0  0  0  0  0  0  0
  -24.1820  -10.6430   20.9380 C   0  0  0  0  0  0  0  0  0  0  0  0
  -24.5680   -9.6980   21.9150 C   0  0  0  0  0  3  0  0  0  0  0  0
  -23.8250   -8.5110   22.0950 C   0  0  0  0  0  3  0  0  0  0  0  0
  -22.6840   -8.2590   21.2970 C   0  0  0  0  0  0  0  0  0  0  0  0
  -22.3180   -9.1930   20.3110 C   0  0  0  0  0  3  0  0  0  0  0  0
  -23.0620  -10.3720   20.1290 C   0  0  0  0  0  3  0  0  0  0  0  0
  -21.9200   -7.1210   21.3820 O   0  0  0  0  0  0  0  0  0  0  0  0
  -21.7670   -6.4420   22.5650 C   0  0  0  0  0  0  0  0  0  0  0  0
  -21.2410   -7.0640   23.7180 C   0  0  0  0  0  3  0  0  0  0  0  0
  -21.0380   -6.3110   24.8930 C   0  0  0  0  0  3  0  0  0  0  0  0
  -21.3510   -4.9380   24.9130 C   0  0  0  0  0  0  0  0  0  0  0  0
  -21.8700   -4.3170   23.7630 C   0  0  0  0  0  3  0  0  0  0  0  0
  -22.0750   -5.0670   22.5920 C   0  0  0  0  0  0  0  0  0  0  0  0
  -22.5550   -4.4580   21.4800 F   0  0  0  0  0  0  0  0  0  0  0  0
  -21.1490   -4.2130   26.0380 F   0  0  0  0  0  0  0  0  0  0  0  0
  -23.0800  -13.7480   21.0130 C   0  0  0  0  0  0  0  0  0  0  0  0
  -22.3370  -13.0740   21.8840 N   0  0  0  0  0  0  0  0  0  0  0  0
  -22.6560  -14.7690   20.4710 O   0  0  0  0  0  0  0  0  0  0  0  0
  -22.6920  -12.2470   22.3440 H   0  0  0  0  0  0  0  0  0  0  0  0
  -21.4030  -13.3890   22.0990 H   0  0  0  0  0  0  0  0  0  0  0  0
  -25.7340  -15.3790   20.2060 N   0  0  0  0  0  0  0  0  0  0  0  0
  -24.9720  -16.0420   20.3010 H   0  0  0  0  0  0  0  0  0  0  0  0
  -26.5830  -15.8010   19.8570 H   0  0  0  0  0  0  0  0  0  0  0  0
  -28.6460  -25.0520   19.9610 C   0  0  0  0  0  2  0  0  0  0  0  0
  -28.6640  -26.5370   20.1370 O   0  0  0  0  0  0  0  0  0  0  0  0
  -24.6330  -31.7070   23.0930 C   0  0  0  0  0  0  0  0  0  0  0  0
  -27.5170  -27.3380   20.0210 C   0  0  0  0  0  0  0  0  0  0  0  0
  -23.5400  -30.3070   21.3810 C   0  0  0  0  0  3  0  0  0  0  0  0
  -25.0980  -28.8620   19.9560 C   0  0  0  0  0  0  0  0  0  0  0  0
  -26.0660  -30.7350   21.2860 C   0  0  0  0  0  2  0  0  0  0  0  0
  -26.2240  -29.3820   20.6060 C   0  0  0  0  0  0  0  0  0  0  0  0
  -27.4350  -28.6290   20.6300 C   0  0  0  0  0  3  0  0  0  0  0  0
  -26.3730  -26.8830   19.3280 C   0  0  0  0  0  3  0  0  0  0  0  0
  -25.1740  -27.6200   19.3090 C   0  0  0  0  0  3  0  0  0  0  0  0
  -23.8260  -29.6850   19.9890 C   0  0  0  0  0  2  0  0  0  0  0  0
  -24.7640  -30.9330   21.9780 N   0  0  0  0  0  0  0  0  0  0  0  0
  -23.5230  -31.9230   23.5990 O   0  0  0  0  0  0  0  0  0  0  0  0
  -22.8900  -29.2360   22.2880 C   0  0  0  0  0  0  0  0  0  0  0  0
  -21.5660  -29.0500   22.1500 N   0  0  0  0  0  0  0  0  0  0  0  0
  -23.5740  -28.5790   23.0770 O   0  0  0  0  0  0  0  0  0  0  0  0
  -21.0670  -29.6460   21.5060 H   0  0  0  0  0  0  0  0  0  0  0  0
  -18.1950  -27.8270   22.6450 C   0  0  0  0  0  0  0  0  0  0  0  0
  -20.7600  -28.0620   22.8680 C   0  0  0  0  0  3  0  0  0  0  0  0
  -20.8460  -26.6740   22.1910 C   0  0  0  0  0  2  0  0  0  0  0  0
  -19.7090  -26.4050   21.1980 C   0  0  0  0  0  2  0  0  0  0  0  0
  -18.3460  -26.5200   21.8860 C   0  0  0  0  0  2  0  0  0  0  0  0
  -19.3280  -28.5560   23.0950 C   0  0  0  0  0  0  0  0  0  0  0  0
  -19.1290  -29.7800   23.7700 C   0  0  0  0  0  3  0  0  0  0  0  0
  -17.8310  -30.2750   23.9970 C   0  0  0  0  0  3  0  0  0  0  0  0
  -16.7150  -29.5390   23.5650 C   0  0  0  0  0  3  0  0  0  0  0  0
  -16.8970  -28.3170   22.8960 C   0  0  0  0  0  3  0  0  0  0  0  0
  -25.8690  -32.3740   23.7730 C   0  0  0  0  0  3  0  0  0  0  0  0
  -26.3660  -31.5970   25.0520 C   0  0  1  0  0  0  0  0  0  0  0  0
  -25.2430  -31.2970   26.0730 C   0  0  0  0  0  1  0  0  0  0  0  0
  -27.0140  -30.2500   24.6560 C   0  0  0  0  0  1  0  0  0  0  0  0
  -27.4610  -32.4190   25.7700 C   0  0  0  0  0  1  0  0  0  0  0  0
  -25.4940  -33.7550   24.1170 N   0  0  0  0  0  0  0  0  0  0  0  0
  -25.8070  -34.8330   23.3870 C   0  0  0  0  0  0  0  0  0  0  0  0
  -26.5120  -34.7750   22.3760 O   0  0  0  0  0  0  0  0  0  0  0  0
  -24.8690  -33.8700   24.9010 H   0  0  0  0  0  0  0  0  0  0  0  0
  -24.0180  -36.5600   23.0140 C   0  0  0  0  0  1  0  0  0  0  0  0
  -25.2530  -36.1940   23.8540 C   0  0  0  0  0  3  0  0  0  0  0  0
  -27.3260  -37.1490   24.7540 C   0  0  0  0  0  1  0  0  0  0  0  0
  -26.2440  -37.2890   23.7830 N   0  0  0  0  0  0  0  0  0  0  0  0
  -25.7990  -38.1900   23.9330 H   0  0  0  0  0  0  0  0  0  0  0  0
  2  1  1  0
  3  8  1  0
  3  1  1  0
  4  5  1  1
  4  3  1  0
  4  2  1  0
  6  9  2  0
  6 10  1  0
  8  7  2  0
  9  8  1  0
 10 12  2  0
 11  9  1  0
 12  7  1  0
 13 10  1  0
 13 22  1  0
 14 22  1  0
 15 20  1  0
 16 17  1  0
 16 15  1  0
 18 17  1  0
 18 27  1  0
 18 19  1  0
 20 14  1  0
 20 19  1  0
 21 14  2  0
 22 23  1  0
 24 25  2  0
 25 44  1  0
 26 25  1  0
 26 29  1  0
 27 24  1  0
 27 28  1  0
 28 26  2  0
 29 30  1  0
 30 31  2  0
 32 35  1  0
 32 31  1  0
 33 32  2  0
 34 33  1  0
 34 29  2  0
 35 36  1  0
 36 41  2  0
 36 37  1  0
 37 38  2  0
 38 39  1  0
 39 43  1  0
 40 39  2  0
 41 40  1  0
 42 41  1  0
 44 45  1  0
 45 48  1  0
 45 47  1  0
 46 44  2  0
 49 50  1  0
 49 24  1  0
 51 49  1  0
 52 53  1  0
 52  4  1  0
 54 65  2  0
 55 53  1  0
 55 60  1  0
 56 64  1  0
 56 66  1  0
 57 63  1  0
 57 59  1  0
 58 64  1  0
 59 60  2  0
 59 58  1  0
 61 55  2  0
 62 61  1  0
 62 57  2  0
 63 56  1  0
 64 54  1  0
 66 68  2  0
 67 66  1  0
 69 67  1  0
 70 79  2  0
 70 75  1  0
 71 67  1  0
 71 75  1  0
 72 71  1  0
 73 74  1  0
 73 72  1  0
 74 70  1  0
 75 76  2  0
 76 77  1  0
 78 77  2  0
 79 78  1  0
 80 54  1  0
 80 85  1  0
 80 81  1  0
 81 84  1  1
 81 82  1  0
 83 81  1  0
 85 88  1  0
 86 90  1  0
 86 85  1  0
 87 86  2  0
 90 89  1  0
 92 90  1  0
 92 93  1  0
 92 91  1  0
M  ISO  4  14 100  22 100  52 101  53 101
M  END
>  <TORSDO>  (46) 
F 19

>  <SCORE>  (46) 
-13.520

>  <name>  (46) 
47

>  <ligand_id>  (46) 
47

>  <original_smiles>  (46) 
[H]c1nc(C([H])([H])N([H])C(=O)N2C([H])([H])C([H])([H])C([H])([H])C([H])(n3nc(-c4c([H])c([H])c(Oc5c([H])c([H])c(F)c([H])c5F)c([H])c4[H])c(C(=O)N([H])[H])c3N([H])[H])C2([H])[H])c([H])c(C([H])([H])[H])c1C1([H])C([H])([H])C([H])([H])C1(C([H])([H])[H])C([H])([H])Oc1c([H])c([H])c2c(c1[H])C([H])([H])N(C(=O)C([H])(N([H])C(=O)C([H])(N([H])C([H])([H])[H])C([H])([H])[H])C(C([H])([H])[H])(C([H])([H])[H])C([H])([H])[H])C([H])(C(=O)N([H])C1([H])c3c([H])c([H])c([H])c([H])c3C([H])([H])C([H])([H])C1([H])[H])C2([H])[H]

>  <smiles>  (46) 
[H]c1nc(C([H])([H])N([H])C(=O)N2C([H])([H])C([H])([H])C([H])([H])C([H])(n3nc(-c4c([H])c([H])c(Oc5c([H])c([H])c(F)c([H])c5F)c([H])c4[H])c(C(=O)N([H])[H])c3N([H])[H])C2([H])[H])c([H])c(C([H])([H])[H])c1C1([H])C([H])([H])C([H])([H])C1(C([H])([H])[H])C([H])([H])Oc1c([H])c([H])c2c(c1[H])C([H])([H])N(C(=O)C([H])(N([H])C(=O)C([H])(N([H])C([H])([H])[H])C([H])([H])[H])C(C([H])([H])[H])(C([H])([H])[H])C([H])([H])[H])C([H])(C(=O)N([H])C1([H])c3c([H])c([H])c([H])c([H])c3C([H])([H])C([H])([H])C1([H])[H])C2([H])[H]

$$$$
48:0:0
     RDKit          3D

 93102  0  0  1  0  0  0  0  0999 V2000
  -28.9420  -23.4030   20.1650 C   0  0  0  0  0  0  0  0  0  0  0  0
  -30.3260  -23.5890   20.4240 C   0  0  0  0  0  0  0  0  0  0  0  0
  -28.5630  -21.9710   20.0270 C   0  0  0  0  0  0  0  0  0  0  0  0
  -31.1870  -22.4610   20.5190 C   0  0  0  0  0  0  0  0  0  0  0  0
  -29.5130  -20.8470   20.1390 C   0  0  0  0  0  0  0  0  0  0  0  0
  -30.8770  -25.0020   20.5940 C   0  0  0  0  0  1  0  0  0  0  0  0
  -27.1020  -21.6460   19.7570 C   0  0  0  0  0  1  0  0  0  0  0  0
  -32.6780  -22.6080   20.7710 C   0  0  0  0  0  1  0  0  0  0  0  0
  -30.7930  -21.1730   20.3880 N   0  0  0  0  0  0  0  0  0  0  0  0
  -30.6310  -14.9390   19.9140 C   0  0  0  0  0  0  0  0  0  0  0  0
  -30.3970  -12.6180   18.9490 C   0  0  0  0  0  2  0  0  0  0  0  0
  -29.3920  -12.6060   17.7780 C   0  0  0  0  0  2  0  0  0  0  0  0
  -27.9600  -12.3960   18.3030 C   0  0  0  0  0  2  0  0  0  0  0  0
  -27.6340  -13.3000   19.5220 C   0  0  0  0  0  3  0  0  0  0  0  0
  -28.7620  -13.3040   20.5760 C   0  0  0  0  0  2  0  0  0  0  0  0
  -29.9880  -13.7060   19.8800 N   0  0  0  0  0  0  0  0  0  0  0  0
  -31.8100  -14.9560   19.5430 O   0  0  0  0  0  0  0  0  0  0  0  0
  -30.1580  -18.6940   18.9910 C   0  0  0  0  0  2  0  0  0  0  0  0
  -29.4590  -18.5080   21.1840 C   0  0  0  0  0  2  0  0  0  0  0  0
  -29.9290  -17.1260   18.7410 C   0  0  0  0  0  2  0  0  0  0  0  0
  -29.2570  -16.9030   21.0340 C   0  0  0  0  0  2  0  0  0  0  0  0
  -29.2910  -19.3850   19.9850 N   0  0  0  0  0  0  0  0  0  0  0  0
  -29.9020  -16.1640   19.8950 N   0  0  0  0  0  0  0  0  0  0  0  0
  -25.3160  -13.8490   20.4510 C   0  0  0  0  0  0  0  0  0  0  0  0
  -24.2770  -13.0610   20.8630 C   0  0  0  0  0  0  0  0  0  0  0  0
  -24.7340  -11.7110   20.7470 C   0  0  0  0  0  0  0  0  0  0  0  0
  -26.3370  -12.9820   20.1040 N   0  0  0  0  0  0  0  0  0  0  0  0
  -26.0010  -11.6870   20.3480 N   0  0  0  0  0  0  0  0  0  0  0  0
  -24.0180  -10.4420   20.9370 C   0  0  0  0  0  0  0  0  0  0  0  0
  -24.4570   -9.4770   21.8700 C   0  0  0  0  0  3  0  0  0  0  0  0
  -23.7380   -8.2750   22.0490 C   0  0  0  0  0  3  0  0  0  0  0  0
  -22.5660   -8.0290   21.2940 C   0  0  0  0  0  0  0  0  0  0  0  0
  -22.1450   -8.9830   20.3500 C   0  0  0  0  0  3  0  0  0  0  0  0
  -22.8660  -10.1760   20.1700 C   0  0  0  0  0  3  0  0  0  0  0  0
  -21.8190   -6.8790   21.3830 O   0  0  0  0  0  0  0  0  0  0  0  0
  -21.7020   -6.1850   22.5600 C   0  0  0  0  0  0  0  0  0  0  0  0
  -21.1700   -6.7800   23.7250 C   0  0  0  0  0  3  0  0  0  0  0  0
  -21.0010   -6.0110   24.8940 C   0  0  0  0  0  3  0  0  0  0  0  0
  -21.3550   -4.6490   24.8980 C   0  0  0  0  0  0  0  0  0  0  0  0
  -21.8800   -4.0540   23.7380 C   0  0  0  0  0  3  0  0  0  0  0  0
  -22.0500   -4.8200   22.5720 C   0  0  0  0  0  0  0  0  0  0  0  0
  -22.5370   -4.2370   21.4500 F   0  0  0  0  0  0  0  0  0  0  0  0
  -21.1880   -3.9080   26.0190 F   0  0  0  0  0  0  0  0  0  0  0  0
  -22.9030  -13.5290   21.2470 C   0  0  0  0  0  0  0  0  0  0  0  0
  -22.2370  -12.8030   22.1370 N   0  0  0  0  0  0  0  0  0  0  0  0
  -22.4330  -14.5700   20.7930 O   0  0  0  0  0  0  0  0  0  0  0  0
  -22.6310  -11.9600   22.5260 H   0  0  0  0  0  0  0  0  0  0  0  0
  -21.3190  -13.0980   22.4390 H   0  0  0  0  0  0  0  0  0  0  0  0
  -25.4730  -15.2250   20.3160 N   0  0  0  0  0  0  0  0  0  0  0  0
  -24.7210  -15.8790   20.5050 H   0  0  0  0  0  0  0  0  0  0  0  0
  -26.3000  -15.6700   19.9370 H   0  0  0  0  0  0  0  0  0  0  0  0
  -27.9250  -24.6950   20.0200 C   0  0  0  0  0  2  0  0  0  0  0  0
  -28.2550  -26.1960   20.2400 O   0  0  0  0  0  0  0  0  0  0  0  0
  -24.6990  -31.8700   23.2860 C   0  0  0  0  0  0  0  0  0  0  0  0
  -27.2150  -27.1880   20.1790 C   0  0  0  0  0  0  0  0  0  0  0  0
  -23.4790  -30.5100   21.6330 C   0  0  0  0  0  3  0  0  0  0  0  0
  -24.9060  -28.9490   20.1790 C   0  0  0  0  0  0  0  0  0  0  0  0
  -26.0350  -30.7560   21.4620 C   0  0  0  0  0  2  0  0  0  0  0  0
  -26.0910  -29.3750   20.7900 C   0  0  0  0  0  0  0  0  0  0  0  0
  -27.2490  -28.5110   20.7760 C   0  0  0  0  0  3  0  0  0  0  0  0
  -26.0040  -26.8630   19.5260 C   0  0  0  0  0  3  0  0  0  0  0  0
  -24.8750  -27.7060   19.5310 C   0  0  0  0  0  3  0  0  0  0  0  0
  -23.6880  -29.8540   20.2430 C   0  0  0  0  0  2  0  0  0  0  0  0
  -24.7580  -31.0650   22.1820 N   0  0  0  0  0  0  0  0  0  0  0  0
  -23.6190  -32.1580   23.8220 O   0  0  0  0  0  0  0  0  0  0  0  0
  -22.7960  -29.4940   22.5820 C   0  0  0  0  0  0  0  0  0  0  0  0
  -21.4670  -29.3290   22.4490 N   0  0  0  0  0  0  0  0  0  0  0  0
  -23.4640  -28.8570   23.4010 O   0  0  0  0  0  0  0  0  0  0  0  0
  -20.9870  -29.8930   21.7630 H   0  0  0  0  0  0  0  0  0  0  0  0
  -18.0800  -28.1420   22.9300 C   0  0  0  0  0  0  0  0  0  0  0  0
  -20.6390  -28.3900   23.2100 C   0  0  0  0  0  3  0  0  0  0  0  0
  -20.7360  -26.9610   22.6250 C   0  0  0  0  0  2  0  0  0  0  0  0
  -19.6370  -26.6510   21.6040 C   0  0  0  0  0  2  0  0  0  0  0  0
  -18.2540  -26.7970   22.2430 C   0  0  0  0  0  2  0  0  0  0  0  0
  -19.2000  -28.8960   23.3700 C   0  0  0  0  0  0  0  0  0  0  0  0
  -18.9830  -30.1540   23.9730 C   0  0  0  0  0  3  0  0  0  0  0  0
  -17.6790  -30.6570   24.1410 C   0  0  0  0  0  3  0  0  0  0  0  0
  -16.5740  -29.9000   23.7170 C   0  0  0  0  0  3  0  0  0  0  0  0
  -16.7750  -28.6440   23.1170 C   0  0  0  0  0  3  0  0  0  0  0  0
  -25.9860  -32.4840   23.9160 C   0  0  0  0  0  3  0  0  0  0  0  0
  -25.6960  -33.8870   24.2490 N   0  0  0  0  0  0  0  0  0  0  0  0
  -26.0140  -34.9370   23.4800 C   0  0  0  0  0  0  0  0  0  0  0  0
  -26.6510  -34.8250   22.4290 O   0  0  0  0  0  0  0  0  0  0  0  0
  -25.1280  -34.0480   25.0670 H   0  0  0  0  0  0  0  0  0  0  0  0
  -24.2780  -36.7380   23.1950 C   0  0  0  0  0  1  0  0  0  0  0  0
  -25.5560  -36.3320   23.9490 C   0  0  0  0  0  3  0  0  0  0  0  0
  -27.7270  -37.2200   24.6760 C   0  0  0  0  0  1  0  0  0  0  0  0
  -26.5860  -37.3800   23.7790 N   0  0  0  0  0  0  0  0  0  0  0  0
  -26.1890  -38.3030   23.9310 H   0  0  0  0  0  0  0  0  0  0  0  0
  -26.4810  -31.7060   25.1980 C   0  0  1  0  0  0  0  0  0  0  0  0
  -25.3760  -31.4880   26.2580 C   0  0  0  0  0  1  0  0  0  0  0  0
  -27.0440  -30.3170   24.8160 C   0  0  0  0  0  1  0  0  0  0  0  0
  -27.6390  -32.4820   25.8670 C   0  0  0  0  0  1  0  0  0  0  0  0
  1  2  1  0
  2  4  2  0
  2  6  1  0
  3  5  1  0
  3  1  2  0
  4  8  1  0
  5  9  2  0
  7  3  1  0
  9  4  1  0
 11 16  1  0
 12 13  1  0
 12 11  1  0
 14 13  1  0
 14 27  1  0
 14 15  1  0
 16 10  1  0
 16 15  1  0
 17 10  2  0
 18 22  1  0
 20 18  1  0
 20 23  1  0
 21 19  1  0
 22  5  1  0
 22 19  1  0
 23 10  1  0
 23 21  1  0
 24 25  2  0
 25 44  1  0
 26 25  1  0
 26 29  1  0
 27 28  1  0
 27 24  1  0
 28 26  2  0
 29 30  1  0
 30 31  2  0
 32 35  1  0
 32 31  1  0
 33 32  2  0
 34 33  1  0
 34 29  2  0
 35 36  1  0
 36 41  2  0
 36 37  1  0
 37 38  2  0
 38 39  1  0
 39 43  1  0
 40 39  2  0
 41 40  1  0
 42 41  1  0
 44 45  1  0
 45 48  1  0
 45 47  1  0
 46 44  2  0
 49 24  1  0
 49 50  1  0
 51 49  1  0
 52  1  1  0
 52 53  1  0
 54 65  2  0
 55 53  1  0
 55 60  1  0
 56 64  1  0
 56 66  1  0
 57 63  1  0
 57 59  1  0
 58 64  1  0
 59 58  1  0
 60 59  2  0
 61 62  1  0
 61 55  2  0
 62 57  2  0
 63 56  1  0
 64 54  1  0
 66 68  2  0
 67 66  1  0
 69 67  1  0
 70 79  2  0
 70 75  1  0
 71 67  1  0
 71 75  1  0
 72 71  1  0
 73 74  1  0
 73 72  1  0
 74 70  1  0
 75 76  2  0
 76 77  1  0
 78 77  2  0
 79 78  1  0
 80 54  1  0
 80 81  1  0
 80 90  1  0
 81 84  1  0
 82 86  1  0
 82 81  1  0
 83 82  2  0
 86 85  1  0
 88 89  1  0
 88 86  1  0
 88 87  1  0
 90 93  1  1
 90 91  1  0
 92 90  1  0
M  ISO  4  10 100  23 100  52 101  53 101
M  END
>  <TORSDO>  (47) 
F 17

>  <SCORE>  (47) 
-14.381

>  <name>  (47) 
48

>  <ligand_id>  (47) 
48

>  <original_smiles>  (47) 
[H]c1c([H])c([H])c2c(c1[H])C([H])([H])C([H])([H])C([H])([H])C2([H])N([H])C(=O)C1([H])N(C(=O)C([H])(N([H])C(=O)C([H])(N([H])C([H])([H])[H])C([H])([H])[H])C(C([H])([H])[H])(C([H])([H])[H])C([H])([H])[H])C([H])([H])c2c([H])c(OC([H])([H])c3c(C([H])([H])[H])c(N4C([H])([H])C([H])([H])N(C(=O)N5C([H])([H])C([H])([H])C([H])([H])C([H])(n6nc(-c7c([H])c([H])c(Oc8c([H])c([H])c(F)c([H])c8F)c([H])c7[H])c(C(=O)N([H])[H])c6N([H])[H])C5([H])[H])C([H])([H])C4([H])[H])nc(C([H])([H])[H])c3C([H])([H])[H])c([H])c([H])c2C1([H])[H]

>  <smiles>  (47) 
[H]c1c([H])c([H])c2c(c1[H])C([H])([H])C([H])([H])C([H])([H])C2([H])N([H])C(=O)C1([H])N(C(=O)C([H])(N([H])C(=O)C([H])(N([H])C([H])([H])[H])C([H])([H])[H])C(C([H])([H])[H])(C([H])([H])[H])C([H])([H])[H])C([H])([H])c2c([H])c(OC([H])([H])c3c(C([H])([H])[H])c(N4C([H])([H])C([H])([H])N(C(=O)N5C([H])([H])C([H])([H])C([H])([H])C([H])(n6nc(-c7c([H])c([H])c(Oc8c([H])c([H])c(F)c([H])c8F)c([H])c7[H])c(C(=O)N([H])[H])c6N([H])[H])C5([H])[H])C([H])([H])C4([H])[H])nc(C([H])([H])[H])c3C([H])([H])[H])c([H])c([H])c2C1([H])[H]

$$$$
49:0:0
     RDKit          3D

 91101  0  0  1  0  0  0  0  0999 V2000
  -30.4930  -15.1540   20.4190 C   0  0  0  0  0  0  0  0  0  0  0  0
  -30.4260  -12.7680   19.5020 C   0  0  0  0  0  2  0  0  0  0  0  0
  -29.5050  -12.6380   18.2670 C   0  0  0  0  0  2  0  0  0  0  0  0
  -28.0420  -12.4070   18.6970 C   0  0  0  0  0  2  0  0  0  0  0  0
  -27.6060  -13.3290   19.8660 C   0  0  0  0  0  3  0  0  0  0  0  0
  -28.6600  -13.4130   20.9860 C   0  0  0  0  0  2  0  0  0  0  0  0
  -29.8970  -13.8820   20.3500 N   0  0  0  0  0  0  0  0  0  0  0  0
  -31.7230  -15.1590   20.2670 O   0  0  0  0  0  0  0  0  0  0  0  0
  -29.2220  -19.6140   18.1590 C   0  0  0  0  0  3  0  0  0  0  0  0
  -29.3750  -18.6370   19.1560 C   0  0  0  0  0  0  0  0  0  0  0  0
  -29.1180  -21.0030   18.4830 C   0  0  0  0  0  0  0  0  0  0  0  0
  -29.4240  -19.0600   20.4470 C   0  0  0  0  0  0  0  0  0  0  0  0
  -29.0480  -21.4960   19.8440 C   0  0  0  0  0  0  0  0  0  0  0  0
  -29.7490  -17.6890   21.2380 C   0  0  0  0  0  2  0  0  0  0  0  0
  -29.5530  -17.0950   18.9970 C   0  0  0  0  0  3  0  0  0  0  0  0
  -29.1970  -21.9240   17.2700 C   0  0  0  0  0  1  0  0  0  0  0  0
  -28.3550  -16.5370   18.2190 C   0  0  0  0  0  1  0  0  0  0  0  0
  -29.2460  -20.4440   20.8080 N   0  0  0  0  0  0  0  0  0  0  0  0
  -29.7390  -16.3990   20.3330 N   0  0  0  0  0  0  0  0  0  0  0  0
  -25.2210  -13.8890   20.5860 C   0  0  0  0  0  0  0  0  0  0  0  0
  -24.1570  -13.1070   20.9370 C   0  0  0  0  0  0  0  0  0  0  0  0
  -24.6320  -11.7600   20.9120 C   0  0  0  0  0  0  0  0  0  0  0  0
  -26.2710  -13.0190   20.3590 N   0  0  0  0  0  0  0  0  0  0  0  0
  -25.9280  -11.7320   20.6190 N   0  0  0  0  0  0  0  0  0  0  0  0
  -23.9140  -10.4930   21.0910 C   0  0  0  0  0  0  0  0  0  0  0  0
  -24.3500   -9.5220   22.0200 C   0  0  0  0  0  3  0  0  0  0  0  0
  -23.6310   -8.3200   22.1900 C   0  0  0  0  0  3  0  0  0  0  0  0
  -22.4610   -8.0800   21.4310 C   0  0  0  0  0  0  0  0  0  0  0  0
  -22.0440   -9.0390   20.4920 C   0  0  0  0  0  3  0  0  0  0  0  0
  -22.7640  -10.2320   20.3180 C   0  0  0  0  0  3  0  0  0  0  0  0
  -21.7120   -6.9300   21.5100 O   0  0  0  0  0  0  0  0  0  0  0  0
  -21.6690   -6.1790   22.6570 C   0  0  0  0  0  0  0  0  0  0  0  0
  -21.2420   -6.7230   23.8880 C   0  0  0  0  0  3  0  0  0  0  0  0
  -21.1470   -5.8970   25.0270 C   0  0  0  0  0  3  0  0  0  0  0  0
  -21.4670   -4.5300   24.9350 C   0  0  0  0  0  0  0  0  0  0  0  0
  -21.8880   -3.9860   23.7090 C   0  0  0  0  0  3  0  0  0  0  0  0
  -21.9850   -4.8080   22.5730 C   0  0  0  0  0  0  0  0  0  0  0  0
  -22.3700   -4.2740   21.3890 F   0  0  0  0  0  0  0  0  0  0  0  0
  -21.3690   -3.7350   26.0260 F   0  0  0  0  0  0  0  0  0  0  0  0
  -22.7520  -13.5750   21.1860 C   0  0  0  0  0  0  0  0  0  0  0  0
  -22.0160  -12.8800   22.0450 N   0  0  0  0  0  0  0  0  0  0  0  0
  -22.3150  -14.5950   20.6540 O   0  0  0  0  0  0  0  0  0  0  0  0
  -22.3810  -12.0580   22.5030 H   0  0  0  0  0  0  0  0  0  0  0  0
  -21.0720  -13.1790   22.2530 H   0  0  0  0  0  0  0  0  0  0  0  0
  -25.3760  -15.2620   20.4130 N   0  0  0  0  0  0  0  0  0  0  0  0
  -24.6060  -15.9120   20.5240 H   0  0  0  0  0  0  0  0  0  0  0  0
  -26.2370  -15.7130   20.1360 H   0  0  0  0  0  0  0  0  0  0  0  0
  -28.2980  -24.0500   19.0970 C   0  0  0  0  0  2  0  0  0  0  0  0
  -29.0300  -23.1920   20.1390 C   0  0  0  0  0  3  0  0  0  0  0  0
  -28.0080  -24.5490   20.4550 C   0  0  0  0  0  3  0  0  0  0  0  0
  -28.2620  -26.1230   20.4720 O   0  0  0  0  0  0  0  0  0  0  0  0
  -24.6340  -31.9760   23.2790 C   0  0  0  0  0  0  0  0  0  0  0  0
  -27.2200  -27.1390   20.3840 C   0  0  0  0  0  0  0  0  0  0  0  0
  -23.4530  -30.5590   21.6450 C   0  0  0  0  0  3  0  0  0  0  0  0
  -24.9140  -28.9380   20.2750 C   0  0  0  0  0  0  0  0  0  0  0  0
  -26.0150  -30.7880   21.5230 C   0  0  0  0  0  2  0  0  0  0  0  0
  -26.0880  -29.3780   20.8980 C   0  0  0  0  0  0  0  0  0  0  0  0
  -27.2420  -28.4960   20.9280 C   0  0  0  0  0  3  0  0  0  0  0  0
  -26.0190  -26.8120   19.7210 C   0  0  0  0  0  3  0  0  0  0  0  0
  -24.8970  -27.6720   19.6670 C   0  0  0  0  0  3  0  0  0  0  0  0
  -23.6950  -29.8530   20.2840 C   0  0  0  0  0  2  0  0  0  0  0  0
  -24.7210  -31.1320   22.2040 N   0  0  0  0  0  0  0  0  0  0  0  0
  -23.5400  -32.2770   23.7830 O   0  0  0  0  0  0  0  0  0  0  0  0
  -22.7470  -29.5770   22.6150 C   0  0  0  0  0  0  0  0  0  0  0  0
  -21.4170  -29.4230   22.4760 N   0  0  0  0  0  0  0  0  0  0  0  0
  -23.4000  -28.9550   23.4560 O   0  0  0  0  0  0  0  0  0  0  0  0
  -20.9470  -29.9750   21.7730 H   0  0  0  0  0  0  0  0  0  0  0  0
  -18.0140  -28.2770   22.9680 C   0  0  0  0  0  0  0  0  0  0  0  0
  -20.5750  -28.5070   23.2520 C   0  0  0  0  0  3  0  0  0  0  0  0
  -20.6610  -27.0670   22.6960 C   0  0  0  0  0  2  0  0  0  0  0  0
  -19.5620  -26.7480   21.6750 C   0  0  0  0  0  2  0  0  0  0  0  0
  -18.1780  -26.9180   22.3060 C   0  0  0  0  0  2  0  0  0  0  0  0
  -19.1400  -29.0290   23.3980 C   0  0  0  0  0  0  0  0  0  0  0  0
  -18.9320  -30.2990   23.9780 C   0  0  0  0  0  3  0  0  0  0  0  0
  -17.6330  -30.8170   24.1310 C   0  0  0  0  0  3  0  0  0  0  0  0
  -16.5220  -30.0620   23.7170 C   0  0  0  0  0  3  0  0  0  0  0  0
  -16.7140  -28.7940   23.1400 C   0  0  0  0  0  3  0  0  0  0  0  0
  -25.9020  -32.6160   23.9190 C   0  0  0  0  0  3  0  0  0  0  0  0
  -26.3920  -31.8600   25.2160 C   0  0  1  0  0  0  0  0  0  0  0  0
  -25.2770  -31.6360   26.2650 C   0  0  0  0  0  1  0  0  0  0  0  0
  -26.9790  -30.4750   24.8570 C   0  0  0  0  0  1  0  0  0  0  0  0
  -27.5310  -32.6590   25.8910 C   0  0  0  0  0  1  0  0  0  0  0  0
  -25.5870  -34.0190   24.2350 N   0  0  0  0  0  0  0  0  0  0  0  0
  -25.9160  -35.0690   23.4710 C   0  0  0  0  0  0  0  0  0  0  0  0
  -26.5820  -34.9580   22.4380 O   0  0  0  0  0  0  0  0  0  0  0  0
  -24.9940  -34.1770   25.0360 H   0  0  0  0  0  0  0  0  0  0  0  0
  -24.1750  -36.8570   23.1300 C   0  0  0  0  0  1  0  0  0  0  0  0
  -25.4330  -36.4630   23.9210 C   0  0  0  0  0  3  0  0  0  0  0  0
  -27.5780  -37.3710   24.7010 C   0  0  0  0  0  1  0  0  0  0  0  0
  -26.4590  -37.5180   23.7750 N   0  0  0  0  0  0  0  0  0  0  0  0
  -26.0520  -38.4400   23.9140 H   0  0  0  0  0  0  0  0  0  0  0  0
  2  7  1  0
  3  4  1  0
  3  2  1  0
  5  4  1  0
  5 23  1  0
  5  6  1  0
  7  1  1  0
  7  6  1  0
  8  1  2  0
  9 11  2  0
  9 10  1  0
 10 12  2  0
 11 13  1  0
 12 18  1  0
 12 14  1  0
 13 18  2  0
 15 17  1  0
 15 10  1  0
 15 19  1  0
 16 11  1  0
 19  1  1  0
 19 14  1  0
 20 21  2  0
 21 40  1  0
 22 21  1  0
 22 25  1  0
 23 20  1  0
 23 24  1  0
 24 22  2  0
 25 26  1  0
 26 27  2  0
 28 31  1  0
 28 27  1  0
 29 28  2  0
 30 29  1  0
 30 25  2  0
 31 32  1  0
 32 33  1  0
 33 34  2  0
 35 34  1  0
 35 39  1  0
 36 35  2  0
 37 32  2  0
 37 36  1  0
 38 37  1  0
 40 41  1  0
 41 44  1  0
 41 43  1  0
 42 40  2  0
 45 46  1  0
 45 20  1  0
 47 45  1  0
 48 49  1  0
 48 50  1  0
 49 13  1  0
 49 50  1  0
 50 51  1  0
 52 63  2  0
 53 51  1  0
 53 58  1  0
 54 62  1  0
 54 64  1  0
 55 61  1  0
 55 57  1  0
 56 62  1  0
 57 58  2  0
 57 56  1  0
 59 53  2  0
 60 59  1  0
 60 55  2  0
 61 54  1  0
 62 52  1  0
 64 66  2  0
 65 64  1  0
 67 65  1  0
 68 77  2  0
 68 73  1  0
 69 65  1  0
 69 73  1  0
 70 69  1  0
 71 72  1  0
 71 70  1  0
 72 68  1  0
 73 74  2  0
 74 75  1  0
 76 75  2  0
 77 76  1  0
 78 52  1  0
 78 83  1  0
 78 79  1  0
 79 82  1  1
 79 80  1  0
 81 79  1  0
 83 86  1  0
 84 88  1  0
 84 83  1  0
 85 84  2  0
 88 87  1  0
 90 91  1  0
 90 88  1  0
 90 89  1  0
M  ISO  4   1 100  19 100  50 101  51 101
M  END
>  <TORSDO>  (48) 
F 16

>  <SCORE>  (48) 
-15.388

>  <name>  (48) 
49

>  <ligand_id>  (48) 
49

>  <original_smiles>  (48) 
[H]c1c([H])c([H])c2c(c1[H])C([H])([H])C([H])([H])C([H])([H])C2([H])N([H])C(=O)C1([H])N(C(=O)C([H])(N([H])C(=O)C([H])(N([H])C([H])([H])[H])C([H])([H])[H])C(C([H])([H])[H])(C([H])([H])[H])C([H])([H])[H])C([H])([H])c2c([H])c(OC3([H])C([H])([H])C3([H])c3nc4c(c([H])c3C([H])([H])[H])C([H])(C([H])([H])[H])N(C(=O)N3C([H])([H])C([H])([H])C([H])([H])C([H])(n5nc(-c6c([H])c([H])c(Oc7c([H])c([H])c(F)c([H])c7F)c([H])c6[H])c(C(=O)N([H])[H])c5N([H])[H])C3([H])[H])C4([H])[H])c([H])c([H])c2C1([H])[H]

>  <smiles>  (48) 
[H]c1c([H])c([H])c2c(c1[H])C([H])([H])C([H])([H])C([H])([H])C2([H])N([H])C(=O)C1([H])N(C(=O)C([H])(N([H])C(=O)C([H])(N([H])C([H])([H])[H])C([H])([H])[H])C(C([H])([H])[H])(C([H])([H])[H])C([H])([H])[H])C([H])([H])c2c([H])c(OC3([H])C([H])([H])C3([H])c3nc4c(c([H])c3C([H])([H])[H])C([H])(C([H])([H])[H])N(C(=O)N3C([H])([H])C([H])([H])C([H])([H])C([H])(n5nc(-c6c([H])c([H])c(Oc7c([H])c([H])c(F)c([H])c7F)c([H])c6[H])c(C(=O)N([H])[H])c5N([H])[H])C3([H])[H])C4([H])[H])c([H])c([H])c2C1([H])[H]

$$$$
50:0:0
     RDKit          3D

 91100  0  0  1  0  0  0  0  0999 V2000
  -27.1960  -22.6070   20.8460 C   0  0  0  0  0  2  0  0  0  0  0  0
  -26.9320  -24.1260   20.5300 C   0  0  0  0  0  2  0  0  0  0  0  0
  -29.1920  -23.6460   20.0180 C   0  0  0  0  0  2  0  0  0  0  0  0
  -28.7100  -22.2630   20.7350 C   0  0  0  0  0  3  0  0  0  0  0  0
  -28.2710  -24.8990   20.5400 C   0  0  0  0  0  3  0  0  0  0  0  0
  -30.5920  -15.0780   20.0400 C   0  0  0  0  0  0  0  0  0  0  0  0
  -30.4620  -12.7480   19.0490 C   0  0  0  0  0  2  0  0  0  0  0  0
  -29.4570  -12.7410   17.8700 C   0  0  0  0  0  2  0  0  0  0  0  0
  -28.0170  -12.5190   18.3670 C   0  0  0  0  0  2  0  0  0  0  0  0
  -27.6730  -13.4140   19.5860 C   0  0  0  0  0  3  0  0  0  0  0  0
  -28.7850  -13.3770   20.6590 C   0  0  0  0  0  2  0  0  0  0  0  0
  -30.0340  -13.8030   20.0080 N   0  0  0  0  0  0  0  0  0  0  0  0
  -31.7570  -15.2100   19.6420 O   0  0  0  0  0  0  0  0  0  0  0  0
  -28.0800  -19.6530   20.5370 C   0  0  0  0  0  3  0  0  0  0  0  0
  -28.3550  -18.2420   20.4890 C   0  0  0  0  0  3  0  0  0  0  0  0
  -29.0780  -20.6700   20.4290 C   0  0  0  0  0  0  0  0  0  0  0  0
  -30.3720  -20.0400   20.2550 C   0  0  0  0  0  0  0  0  0  0  0  0
  -29.6550  -17.6830   20.3170 C   0  0  0  0  0  0  0  0  0  0  0  0
  -31.6140  -20.9070   20.1920 C   0  0  0  0  0  1  0  0  0  0  0  0
  -30.6260  -18.6570   20.1890 N   0  0  0  0  0  0  0  0  0  0  0  0
  -29.7390  -16.1580   20.3680 N   0  0  0  0  0  0  0  0  0  0  0  0
  -28.8640  -15.7700   20.6770 H   0  0  0  0  0  0  0  0  0  0  0  0
  -25.3320  -13.9800   20.4570 C   0  0  0  0  0  0  0  0  0  0  0  0
  -24.2890  -13.1970   20.8680 C   0  0  0  0  0  0  0  0  0  0  0  0
  -24.7460  -11.8460   20.7710 C   0  0  0  0  0  0  0  0  0  0  0  0
  -26.3590  -13.1070   20.1390 N   0  0  0  0  0  0  0  0  0  0  0  0
  -26.0190  -11.8170   20.3930 N   0  0  0  0  0  0  0  0  0  0  0  0
  -24.0250  -10.5790   20.9630 C   0  0  0  0  0  0  0  0  0  0  0  0
  -24.4640   -9.6140   21.8960 C   0  0  0  0  0  3  0  0  0  0  0  0
  -23.7410   -8.4150   22.0760 C   0  0  0  0  0  3  0  0  0  0  0  0
  -22.5680   -8.1720   21.3230 C   0  0  0  0  0  0  0  0  0  0  0  0
  -22.1480   -9.1270   20.3810 C   0  0  0  0  0  3  0  0  0  0  0  0
  -22.8690  -10.3190   20.1980 C   0  0  0  0  0  3  0  0  0  0  0  0
  -21.8180   -7.0230   21.4120 O   0  0  0  0  0  0  0  0  0  0  0  0
  -21.7240   -6.3140   22.5830 C   0  0  0  0  0  0  0  0  0  0  0  0
  -21.1910   -6.8850   23.7590 C   0  0  0  0  0  3  0  0  0  0  0  0
  -21.0480   -6.1000   24.9200 C   0  0  0  0  0  3  0  0  0  0  0  0
  -21.4300   -4.7460   24.9070 C   0  0  0  0  0  0  0  0  0  0  0  0
  -21.9560   -4.1730   23.7350 C   0  0  0  0  0  3  0  0  0  0  0  0
  -22.1000   -4.9550   22.5750 C   0  0  0  0  0  0  0  0  0  0  0  0
  -22.5890   -4.3940   21.4430 F   0  0  0  0  0  0  0  0  0  0  0  0
  -21.2850   -3.9890   26.0200 F   0  0  0  0  0  0  0  0  0  0  0  0
  -22.9110  -13.6700   21.2280 C   0  0  0  0  0  0  0  0  0  0  0  0
  -22.2220  -12.9450   22.1050 N   0  0  0  0  0  0  0  0  0  0  0  0
  -22.4530  -14.7150   20.7690 O   0  0  0  0  0  0  0  0  0  0  0  0
  -22.6030  -12.0970   22.4980 H   0  0  0  0  0  0  0  0  0  0  0  0
  -21.3020  -13.2480   22.3910 H   0  0  0  0  0  0  0  0  0  0  0  0
  -25.4840  -15.3550   20.2940 N   0  0  0  0  0  0  0  0  0  0  0  0
  -24.6910  -15.9790   20.3970 H   0  0  0  0  0  0  0  0  0  0  0  0
  -26.2400  -15.7690   19.7650 H   0  0  0  0  0  0  0  0  0  0  0  0
  -28.3380  -26.3760   20.0520 O   0  0  0  0  0  0  0  0  0  0  0  0
  -24.6310  -31.9190   23.1980 C   0  0  0  0  0  0  0  0  0  0  0  0
  -27.2430  -27.3040   20.0890 C   0  0  0  0  0  0  0  0  0  0  0  0
  -23.4310  -30.5260   21.5540 C   0  0  0  0  0  3  0  0  0  0  0  0
  -24.8870  -28.9980   20.0920 C   0  0  0  0  0  0  0  0  0  0  0  0
  -25.9760  -30.8400   21.3600 C   0  0  0  0  0  2  0  0  0  0  0  0
  -26.0630  -29.4570   20.7000 C   0  0  0  0  0  0  0  0  0  0  0  0
  -27.2430  -28.6270   20.6820 C   0  0  0  0  0  3  0  0  0  0  0  0
  -26.0520  -26.9580   19.4180 C   0  0  0  0  0  3  0  0  0  0  0  0
  -24.8950  -27.7610   19.4320 C   0  0  0  0  0  3  0  0  0  0  0  0
  -23.6460  -29.8730   20.1620 C   0  0  0  0  0  2  0  0  0  0  0  0
  -24.7000  -31.1150   22.0930 N   0  0  0  0  0  0  0  0  0  0  0  0
  -23.5480  -32.1810   23.7420 O   0  0  0  0  0  0  0  0  0  0  0  0
  -22.7810  -29.4950   22.5080 C   0  0  0  0  0  0  0  0  0  0  0  0
  -21.4530  -29.3100   22.3950 N   0  0  0  0  0  0  0  0  0  0  0  0
  -23.4720  -28.8640   23.3130 O   0  0  0  0  0  0  0  0  0  0  0  0
  -20.9560  -29.8700   21.7180 H   0  0  0  0  0  0  0  0  0  0  0  0
  -18.0930  -28.0610   22.9180 C   0  0  0  0  0  0  0  0  0  0  0  0
  -20.6510  -28.3540   23.1630 C   0  0  0  0  0  3  0  0  0  0  0  0
  -20.7650  -26.9310   22.5690 C   0  0  0  0  0  2  0  0  0  0  0  0
  -19.6580  -26.6070   21.5610 C   0  0  0  0  0  2  0  0  0  0  0  0
  -18.2820  -26.7220   22.2220 C   0  0  0  0  0  2  0  0  0  0  0  0
  -19.2060  -28.8330   23.3460 C   0  0  0  0  0  0  0  0  0  0  0  0
  -18.9760  -30.0830   23.9610 C   0  0  0  0  0  3  0  0  0  0  0  0
  -17.6670  -30.5630   24.1470 C   0  0  0  0  0  3  0  0  0  0  0  0
  -16.5680  -29.7880   23.7330 C   0  0  0  0  0  3  0  0  0  0  0  0
  -16.7820  -28.5380   23.1260 C   0  0  0  0  0  3  0  0  0  0  0  0
  -25.9100  -32.5610   23.8180 C   0  0  0  0  0  3  0  0  0  0  0  0
  -25.5920  -33.9590   24.1500 N   0  0  0  0  0  0  0  0  0  0  0  0
  -25.9140  -35.0160   23.3930 C   0  0  0  0  0  0  0  0  0  0  0  0
  -26.5800  -34.9190   22.3590 O   0  0  0  0  0  0  0  0  0  0  0  0
  -24.9930  -34.1080   24.9490 H   0  0  0  0  0  0  0  0  0  0  0  0
  -24.1860  -36.8120   23.0380 C   0  0  0  0  0  1  0  0  0  0  0  0
  -25.4220  -36.4030   23.8550 C   0  0  0  0  0  3  0  0  0  0  0  0
  -27.5450  -37.2920   24.7140 C   0  0  0  0  0  1  0  0  0  0  0  0
  -26.4550  -37.4580   23.7550 N   0  0  0  0  0  0  0  0  0  0  0  0
  -26.0470  -38.3780   23.8980 H   0  0  0  0  0  0  0  0  0  0  0  0
  -26.4310  -31.7930   25.0960 C   0  0  1  0  0  0  0  0  0  0  0  0
  -25.3400  -31.5500   26.1650 C   0  0  0  0  0  1  0  0  0  0  0  0
  -27.0170  -30.4160   24.7110 C   0  0  0  0  0  1  0  0  0  0  0  0
  -27.5760  -32.5950   25.7580 C   0  0  0  0  0  1  0  0  0  0  0  0
  2  5  1  0
  2  1  1  0
  3  5  1  0
  3  4  1  0
  4 16  1  0
  4  1  1  0
  5 51  1  0
  6 21  1  0
  7 12  1  0
  8  9  1  0
  8  7  1  0
 10  9  1  0
 10 26  1  0
 10 11  1  0
 12  6  1  0
 12 11  1  0
 13  6  2  0
 15 14  1  0
 16 14  2  0
 17 16  1  0
 18 21  1  0
 18 15  2  0
 19 17  1  0
 20 17  2  0
 20 18  1  0
 21 22  1  0
 23 24  2  0
 24 43  1  0
 25 24  1  0
 25 28  1  0
 26 27  1  0
 26 23  1  0
 27 25  2  0
 28 29  1  0
 29 30  2  0
 31 34  1  0
 31 30  1  0
 32 31  2  0
 33 32  1  0
 33 28  2  0
 34 35  1  0
 35 36  1  0
 36 37  2  0
 38 37  1  0
 38 42  1  0
 39 38  2  0
 40 35  2  0
 40 39  1  0
 41 40  1  0
 43 44  1  0
 44 47  1  0
 44 46  1  0
 45 43  2  0
 48 49  1  0
 48 23  1  0
 50 48  1  0
 51 53  1  0
 52 63  2  0
 53 58  1  0
 54 62  1  0
 54 64  1  0
 55 61  1  0
 55 57  1  0
 56 62  1  0
 57 56  1  0
 58 57  2  0
 59 60  1  0
 59 53  2  0
 60 55  2  0
 61 54  1  0
 62 52  1  0
 64 66  2  0
 65 64  1  0
 67 65  1  0
 68 77  2  0
 68 73  1  0
 69 65  1  0
 69 73  1  0
 70 69  1  0
 71 72  1  0
 71 70  1  0
 72 68  1  0
 73 74  2  0
 74 75  1  0
 76 75  2  0
 77 76  1  0
 78 52  1  0
 78 79  1  0
 78 88  1  0
 79 82  1  0
 80 84  1  0
 80 79  1  0
 81 80  2  0
 84 83  1  0
 86 84  1  0
 86 87  1  0
 86 85  1  0
 88 91  1  1
 88 89  1  0
 90 88  1  0
M  ISO  4   5 101   6 100  21 100  51 101
M  END
>  <TORSDO>  (49) 
F 16

>  <SCORE>  (49) 
-15.543

>  <name>  (49) 
50

>  <ligand_id>  (49) 
50

>  <original_smiles>  (49) 
[H]c1c(N([H])C(=O)N2C([H])([H])C([H])([H])C([H])([H])C([H])(n3nc(-c4c([H])c([H])c(Oc5c([H])c([H])c(F)c([H])c5F)c([H])c4[H])c(C(=O)N([H])[H])c3N([H])[H])C2([H])[H])nc(C([H])([H])[H])c(C2([H])C([H])([H])C([H])([H])C([H])(Oc3c([H])c([H])c4c(c3[H])C([H])([H])N(C(=O)C([H])(N([H])C(=O)C([H])(N([H])C([H])([H])[H])C([H])([H])[H])C(C([H])([H])[H])(C([H])([H])[H])C([H])([H])[H])C([H])(C(=O)N([H])C3([H])c5c([H])c([H])c([H])c([H])c5C([H])([H])C([H])([H])C3([H])[H])C4([H])[H])C2([H])[H])c1[H]

>  <smiles>  (49) 
[H]c1c(N([H])C(=O)N2C([H])([H])C([H])([H])C([H])([H])C([H])(n3nc(-c4c([H])c([H])c(Oc5c([H])c([H])c(F)c([H])c5F)c([H])c4[H])c(C(=O)N([H])[H])c3N([H])[H])C2([H])[H])nc(C([H])([H])[H])c(C2([H])C([H])([H])C([H])([H])C([H])(Oc3c([H])c([H])c4c(c3[H])C([H])([H])N(C(=O)C([H])(N([H])C(=O)C([H])(N([H])C([H])([H])[H])C([H])([H])[H])C(C([H])([H])[H])(C([H])([H])[H])C([H])([H])[H])C([H])(C(=O)N([H])C3([H])c5c([H])c([H])c([H])c([H])c5C([H])([H])C([H])([H])C3([H])[H])C4([H])[H])C2([H])[H])c1[H]

$$$$
51:0:0
     RDKit          3D

 99108  0  0  1  0  0  0  0  0999 V2000
  -30.3730  -24.5220   19.9130 C   0  0  0  0  0  3  0  0  0  0  0  0
  -31.0460  -23.5910   19.0990 C   0  0  0  0  0  0  0  0  0  0  0  0
  -28.9740  -24.6670   19.8680 C   0  0  0  0  0  0  0  0  0  0  0  0
  -28.2300  -23.8580   18.9630 C   0  0  0  0  0  0  0  0  0  0  0  0
  -28.9140  -23.0440   18.0220 C   0  0  0  0  0  0  0  0  0  0  0  0
  -30.3220  -22.8640   18.1180 C   0  0  0  0  0  0  0  0  0  0  0  0
  -32.5350  -23.3850   19.3410 C   0  0  0  0  0  1  0  0  0  0  0  0
  -26.7080  -23.7750   19.0050 C   0  0  0  0  0  1  0  0  0  0  0  0
  -28.0940  -22.3460   16.9320 C   0  0  0  0  0  1  0  0  0  0  0  0
  -31.0100  -21.8030   17.2580 C   0  0  0  0  0  2  0  0  0  0  0  0
  -30.5640  -20.4880   17.7450 N   0  0  0  0  0  4  0  0  0  0  0  0
  -29.5590  -20.5000   17.7860 H   0  0  0  0  0  0  0  0  0  0  0  0
  -30.9110  -20.3860   18.6830 H   0  0  0  0  0  0  0  0  0  0  0  0
  -31.0110  -19.3300   16.9510 C   0  0  0  0  0  2  0  0  0  0  0  0
  -28.8250  -17.9990   16.7550 C   0  0  0  0  0  1  0  0  0  0  0  0
  -30.2530  -18.0360   17.3320 C   0  0  0  0  0  3  0  0  0  0  0  0
  -31.1730  -14.6380   20.8220 C   0  0  0  0  0  0  0  0  0  0  0  0
  -30.8500  -12.4940   19.6950 C   0  0  0  0  0  2  0  0  0  0  0  0
  -29.9960  -12.7350   18.4330 C   0  0  0  0  0  2  0  0  0  0  0  0
  -28.4960  -12.6460   18.7690 C   0  0  0  0  0  2  0  0  0  0  0  0
  -28.0960  -13.4890   20.0100 C   0  0  0  0  0  3  0  0  0  0  0  0
  -29.0830  -13.2620   21.1800 C   0  0  0  0  0  2  0  0  0  0  0  0
  -30.4440  -13.5000   20.6830 N   0  0  0  0  0  0  0  0  0  0  0  0
  -32.4030  -14.6420   20.7650 O   0  0  0  0  0  0  0  0  0  0  0  0
  -29.1050  -17.4430   19.6680 C   0  0  0  0  0  2  0  0  0  0  0  0
  -29.5620  -16.5690   20.8420 C   0  0  0  0  0  2  0  0  0  0  0  0
  -31.1620  -16.3550   19.0760 C   0  0  0  0  0  2  0  0  0  0  0  0
  -30.3830  -17.6480   18.8460 C   0  0  0  0  0  3  0  0  0  0  0  0
  -30.5660  -15.6960   20.2460 N   0  0  0  0  0  0  0  0  0  0  0  0
  -25.6730  -14.1440   20.5960 C   0  0  0  0  0  0  0  0  0  0  0  0
  -24.5710  -13.3900   20.8890 C   0  0  0  0  0  0  0  0  0  0  0  0
  -25.0130  -12.0290   20.8820 C   0  0  0  0  0  0  0  0  0  0  0  0
  -26.7140  -13.2450   20.4140 N   0  0  0  0  0  0  0  0  0  0  0  0
  -26.3180  -11.9700   20.6540 N   0  0  0  0  0  0  0  0  0  0  0  0
  -24.2610  -10.7770   21.0150 C   0  0  0  0  0  0  0  0  0  0  0  0
  -24.5960   -9.8160   21.9930 C   0  0  0  0  0  3  0  0  0  0  0  0
  -23.8470   -8.6270   22.1170 C   0  0  0  0  0  3  0  0  0  0  0  0
  -22.7490   -8.3900   21.2590 C   0  0  0  0  0  0  0  0  0  0  0  0
  -22.4340   -9.3380   20.2680 C   0  0  0  0  0  3  0  0  0  0  0  0
  -23.1850  -10.5200   20.1420 C   0  0  0  0  0  3  0  0  0  0  0  0
  -21.9780   -7.2540   21.2900 O   0  0  0  0  0  0  0  0  0  0  0  0
  -21.7870   -6.5440   22.4480 C   0  0  0  0  0  0  0  0  0  0  0  0
  -21.1930   -7.1200   23.5920 C   0  0  0  0  0  3  0  0  0  0  0  0
  -20.9560   -6.3330   24.7360 C   0  0  0  0  0  3  0  0  0  0  0  0
  -21.3000   -4.9680   24.7350 C   0  0  0  0  0  0  0  0  0  0  0  0
  -21.8850   -4.3910   23.5940 C   0  0  0  0  0  3  0  0  0  0  0  0
  -22.1280   -5.1760   22.4530 C   0  0  0  0  0  0  0  0  0  0  0  0
  -22.6720   -4.6100   21.3490 F   0  0  0  0  0  0  0  0  0  0  0  0
  -21.0640   -4.2060   25.8280 F   0  0  0  0  0  0  0  0  0  0  0  0
  -23.1630  -13.8840   21.0620 C   0  0  0  0  0  0  0  0  0  0  0  0
  -22.3700  -13.1970   21.8710 N   0  0  0  0  0  0  0  0  0  0  0  0
  -22.7690  -14.9170   20.5190 O   0  0  0  0  0  0  0  0  0  0  0  0
  -22.6990  -12.3690   22.3430 H   0  0  0  0  0  0  0  0  0  0  0  0
  -21.4230  -13.5110   22.0350 H   0  0  0  0  0  0  0  0  0  0  0  0
  -25.8740  -15.5100   20.4320 N   0  0  0  0  0  0  0  0  0  0  0  0
  -25.1270  -16.1860   20.5310 H   0  0  0  0  0  0  0  0  0  0  0  0
  -26.7500  -15.9290   20.1530 H   0  0  0  0  0  0  0  0  0  0  0  0
  -28.3560  -25.6750   20.8420 C   0  0  0  0  0  2  0  0  0  0  0  0
  -28.4770  -27.0380   20.4090 O   0  0  0  0  0  0  0  0  0  0  0  0
  -24.5780  -32.1350   23.4810 C   0  0  0  0  0  0  0  0  0  0  0  0
  -27.3080  -27.7630   20.4060 C   0  0  0  0  0  0  0  0  0  0  0  0
  -23.4040  -30.7290   21.8180 C   0  0  0  0  0  3  0  0  0  0  0  0
  -24.8920  -29.2260   20.4000 C   0  0  0  0  0  0  0  0  0  0  0  0
  -25.9250  -31.1230   21.6530 C   0  0  0  0  0  2  0  0  0  0  0  0
  -26.0370  -29.7590   21.0110 C   0  0  0  0  0  0  0  0  0  0  0  0
  -27.2470  -29.0300   21.0240 C   0  0  0  0  0  3  0  0  0  0  0  0
  -26.1570  -27.2680   19.7590 C   0  0  0  0  0  3  0  0  0  0  0  0
  -24.9470  -27.9760   19.7690 C   0  0  0  0  0  3  0  0  0  0  0  0
  -23.6370  -30.0640   20.4360 C   0  0  0  0  0  2  0  0  0  0  0  0
  -24.6520  -31.3430   22.3760 N   0  0  0  0  0  0  0  0  0  0  0  0
  -23.4890  -32.3900   24.0140 O   0  0  0  0  0  0  0  0  0  0  0  0
  -22.7590  -29.6910   22.7630 C   0  0  0  0  0  0  0  0  0  0  0  0
  -21.4440  -29.4700   22.6020 N   0  0  0  0  0  0  0  0  0  0  0  0
  -23.4400  -29.0850   23.5960 O   0  0  0  0  0  0  0  0  0  0  0  0
  -20.9560  -30.0140   21.9050 H   0  0  0  0  0  0  0  0  0  0  0  0
  -18.0950  -28.1850   23.0140 C   0  0  0  0  0  0  0  0  0  0  0  0
  -20.6350  -28.5130   23.3550 C   0  0  0  0  0  3  0  0  0  0  0  0
  -20.7910  -27.0830   22.7900 C   0  0  0  0  0  2  0  0  0  0  0  0
  -19.7270  -26.7250   21.7480 C   0  0  0  0  0  2  0  0  0  0  0  0
  -18.3260  -26.8370   22.3530 C   0  0  0  0  0  2  0  0  0  0  0  0
  -19.1790  -28.9790   23.4700 C   0  0  0  0  0  0  0  0  0  0  0  0
  -18.9130  -30.2410   24.0450 C   0  0  0  0  0  3  0  0  0  0  0  0
  -17.5920  -30.7100   24.1680 C   0  0  0  0  0  3  0  0  0  0  0  0
  -16.5200  -29.9150   23.7290 C   0  0  0  0  0  3  0  0  0  0  0  0
  -16.7730  -28.6530   23.1590 C   0  0  0  0  0  3  0  0  0  0  0  0
  -25.8530  -32.7770   24.1140 C   0  0  0  0  0  3  0  0  0  0  0  0
  -25.5470  -34.1880   24.3840 N   0  0  0  0  0  0  0  0  0  0  0  0
  -25.9270  -35.2090   23.6040 C   0  0  0  0  0  0  0  0  0  0  0  0
  -26.6410  -35.0630   22.6090 O   0  0  0  0  0  0  0  0  0  0  0  0
  -24.9220  -34.3740   25.1550 H   0  0  0  0  0  0  0  0  0  0  0  0
  -24.2440  -37.0090   23.1010 C   0  0  0  0  0  1  0  0  0  0  0  0
  -25.4350  -36.6180   23.9900 C   0  0  0  0  0  3  0  0  0  0  0  0
  -27.5330  -37.5060   24.9080 C   0  0  0  0  0  1  0  0  0  0  0  0
  -26.4880  -37.6530   23.8980 N   0  0  0  0  0  0  0  0  0  0  0  0
  -26.0860  -38.5820   23.9900 H   0  0  0  0  0  0  0  0  0  0  0  0
  -26.3310  -32.0450   25.4280 C   0  0  1  0  0  0  0  0  0  0  0  0
  -25.2060  -31.8430   26.4700 C   0  0  0  0  0  1  0  0  0  0  0  0
  -26.9230  -30.6550   25.0930 C   0  0  0  0  0  1  0  0  0  0  0  0
  -27.4630  -32.8580   26.0980 C   0  0  0  0  0  1  0  0  0  0  0  0
  2  7  1  0
  2  1  2  0
  3  1  1  0
  3 58  1  0
  4  8  1  0
  4  3  2  0
  5  6  2  0
  5  4  1  0
  6  2  1  0
  9  5  1  0
 10 11  1  0
 10  6  1  0
 11 12  1  0
 11 13  1  0
 14 16  1  0
 14 11  1  0
 16 15  1  0
 18 23  1  0
 19 20  1  0
 19 18  1  0
 21 20  1  0
 21 33  1  0
 21 22  1  0
 23 17  1  0
 23 22  1  0
 24 17  2  0
 25 26  1  0
 27 29  1  0
 28 16  1  0
 28 27  1  0
 28 25  1  0
 29 17  1  0
 29 26  1  0
 30 31  2  0
 31 50  1  0
 32 31  1  0
 32 35  1  0
 33 30  1  0
 33 34  1  0
 34 32  2  0
 35 36  1  0
 36 37  2  0
 38 41  1  0
 38 37  1  0
 39 38  2  0
 40 39  1  0
 40 35  2  0
 41 42  1  0
 42 47  2  0
 42 43  1  0
 43 44  2  0
 45 44  1  0
 45 49  1  0
 46 45  2  0
 47 46  1  0
 48 47  1  0
 50 51  1  0
 51 54  1  0
 51 53  1  0
 52 50  2  0
 55 56  1  0
 55 30  1  0
 57 55  1  0
 59 58  1  0
 60 71  2  0
 61 59  1  0
 61 66  1  0
 62 70  1  0
 62 72  1  0
 63 69  1  0
 63 65  1  0
 64 70  1  0
 65 66  2  0
 65 64  1  0
 67 68  1  0
 67 61  2  0
 68 63  2  0
 69 62  1  0
 70 60  1  0
 72 74  2  0
 73 72  1  0
 75 73  1  0
 76 85  2  0
 76 81  1  0
 77 73  1  0
 77 81  1  0
 78 77  1  0
 79 80  1  0
 79 78  1  0
 80 76  1  0
 81 82  2  0
 82 83  1  0
 84 83  2  0
 85 84  1  0
 86 60  1  0
 86 87  1  0
 86 96  1  0
 87 90  1  0
 88 92  1  0
 88 87  1  0
 89 88  2  0
 92 91  1  0
 94 95  1  0
 94 92  1  0
 94 93  1  0
 96 99  1  1
 96 97  1  0
 98 96  1  0
M  ISO  4  17 100  29 100  58 101  59 101
M  END
>  <TORSDO>  (50) 
F 21

>  <SCORE>  (50) 
-11.963

>  <name>  (50) 
51

>  <ligand_id>  (50) 
51

>  <original_smiles>  (50) 
[H]c1c([H])c([H])c2c(c1[H])C([H])([H])C([H])([H])C([H])([H])C2([H])N([H])C(=O)C1([H])N(C(=O)C([H])(N([H])C(=O)C([H])(N([H])C([H])([H])[H])C([H])([H])[H])C(C([H])([H])[H])(C([H])([H])[H])C([H])([H])[H])C([H])([H])c2c([H])c(OC([H])([H])c3c([H])c(C([H])([H])[H])c(C([H])([H])[N+]([H])([H])C([H])([H])C([H])(C([H])([H])[H])C4([H])C([H])([H])N(C(=O)N5C([H])([H])C([H])([H])C([H])([H])C([H])(n6nc(-c7c([H])c([H])c(Oc8c([H])c([H])c(F)c([H])c8F)c([H])c7[H])c(C(=O)N([H])[H])c6N([H])[H])C5([H])[H])C([H])([H])C4([H])[H])c(C([H])([H])[H])c3C([H])([H])[H])c([H])c([H])c2C1([H])[H]

>  <smiles>  (50) 
[H]c1c([H])c([H])c2c(c1[H])C([H])([H])C([H])([H])C([H])([H])C2([H])N([H])C(=O)C1([H])N(C(=O)C([H])(N([H])C(=O)C([H])(N([H])C([H])([H])[H])C([H])([H])[H])C(C([H])([H])[H])(C([H])([H])[H])C([H])([H])[H])C([H])([H])c2c([H])c(OC([H])([H])c3c([H])c(C([H])([H])[H])c(C([H])([H])[N+]([H])([H])C([H])([H])C([H])(C([H])([H])[H])C4([H])C([H])([H])N(C(=O)N5C([H])([H])C([H])([H])C([H])([H])C([H])(n6nc(-c7c([H])c([H])c(Oc8c([H])c([H])c(F)c([H])c8F)c([H])c7[H])c(C(=O)N([H])[H])c6N([H])[H])C5([H])[H])C([H])([H])C4([H])[H])c(C([H])([H])[H])c3C([H])([H])[H])c([H])c([H])c2C1([H])[H]

$$$$
52:0:0
     RDKit          3D

 90 98  0  0  1  0  0  0  0  0999 V2000
  -29.2010  -21.2810   21.5210 C   0  0  0  0  0  3  0  0  0  0  0  0
  -29.0530  -20.4230   20.3900 C   0  0  0  0  0  0  0  0  0  0  0  0
  -28.7040  -21.1760   19.2180 C   0  0  0  0  0  0  0  0  0  0  0  0
  -28.4700  -22.6190   19.2580 C   0  0  0  0  0  0  0  0  0  0  0  0
  -28.5690  -23.3790   20.4740 C   0  0  0  0  0  0  0  0  0  0  0  0
  -28.4650  -20.3980   17.9300 C   0  0  0  0  0  1  0  0  0  0  0  0
  -28.0060  -23.3470   18.0010 C   0  0  0  0  0  1  0  0  0  0  0  0
  -28.9700  -22.6460   21.5630 N   0  0  0  0  0  0  0  0  0  0  0  0
  -28.9640  -18.7870   20.5360 C   0  0  0  0  0  3  0  0  0  0  0  0
  -30.1090  -17.6220   20.2550 C   0  0  0  0  0  3  0  0  0  0  0  0
  -30.5420  -14.9370   20.2480 C   0  0  0  0  0  0  0  0  0  0  0  0
  -30.3730  -12.6200   19.2680 C   0  0  0  0  0  2  0  0  0  0  0  0
  -29.4170  -12.6250   18.0520 C   0  0  0  0  0  2  0  0  0  0  0  0
  -27.9640  -12.4130   18.5130 C   0  0  0  0  0  2  0  0  0  0  0  0
  -27.5840  -13.3260   19.7100 C   0  0  0  0  0  3  0  0  0  0  0  0
  -28.6580  -13.3010   20.8190 C   0  0  0  0  0  2  0  0  0  0  0  0
  -29.9300  -13.6930   20.1990 N   0  0  0  0  0  0  0  0  0  0  0  0
  -31.7330  -15.0150   19.9320 O   0  0  0  0  0  0  0  0  0  0  0  0
  -29.7740  -16.1030   20.4330 N   0  0  0  0  0  0  0  0  0  0  0  0
  -28.8060  -15.9150   20.6470 H   0  0  0  0  0  0  0  0  0  0  0  0
  -25.2090  -13.8980   20.4760 C   0  0  0  0  0  0  0  0  0  0  0  0
  -24.1520  -13.1190   20.8560 C   0  0  0  0  0  0  0  0  0  0  0  0
  -24.6230  -11.7700   20.8200 C   0  0  0  0  0  0  0  0  0  0  0  0
  -26.2540  -13.0250   20.2230 N   0  0  0  0  0  0  0  0  0  0  0  0
  -25.9110  -11.7390   20.4980 N   0  0  0  0  0  0  0  0  0  0  0  0
  -23.9050  -10.5060   21.0170 C   0  0  0  0  0  0  0  0  0  0  0  0
  -24.3440   -9.5460   21.9570 C   0  0  0  0  0  3  0  0  0  0  0  0
  -23.6240   -8.3460   22.1420 C   0  0  0  0  0  3  0  0  0  0  0  0
  -22.4540   -8.0960   21.3850 C   0  0  0  0  0  0  0  0  0  0  0  0
  -22.0350   -9.0440   20.4370 C   0  0  0  0  0  3  0  0  0  0  0  0
  -22.7530  -10.2370   20.2500 C   0  0  0  0  0  3  0  0  0  0  0  0
  -21.7050   -6.9480   21.4790 O   0  0  0  0  0  0  0  0  0  0  0  0
  -21.6510   -6.2170   22.6390 C   0  0  0  0  0  0  0  0  0  0  0  0
  -21.1910   -6.7780   23.8500 C   0  0  0  0  0  3  0  0  0  0  0  0
  -21.0860   -5.9720   25.0020 C   0  0  0  0  0  3  0  0  0  0  0  0
  -21.4290   -4.6080   24.9420 C   0  0  0  0  0  0  0  0  0  0  0  0
  -21.8820   -4.0490   23.7350 C   0  0  0  0  0  3  0  0  0  0  0  0
  -21.9890   -4.8510   22.5860 C   0  0  0  0  0  0  0  0  0  0  0  0
  -22.4060   -4.3020   21.4200 F   0  0  0  0  0  0  0  0  0  0  0  0
  -21.3210   -3.8320   26.0460 F   0  0  0  0  0  0  0  0  0  0  0  0
  -22.7550  -13.5900   21.1380 C   0  0  0  0  0  0  0  0  0  0  0  0
  -22.0360  -12.8880   22.0050 N   0  0  0  0  0  0  0  0  0  0  0  0
  -22.3130  -14.6180   20.6270 O   0  0  0  0  0  0  0  0  0  0  0  0
  -22.4110  -12.0560   22.4380 H   0  0  0  0  0  0  0  0  0  0  0  0
  -21.1000  -13.1850   22.2380 H   0  0  0  0  0  0  0  0  0  0  0  0
  -25.3620  -15.2690   20.2950 N   0  0  0  0  0  0  0  0  0  0  0  0
  -24.5800  -15.9080   20.4070 H   0  0  0  0  0  0  0  0  0  0  0  0
  -26.1890  -15.7130   19.9170 H   0  0  0  0  0  0  0  0  0  0  0  0
  -27.8610  -24.8360   20.7630 C   0  0  0  0  0  2  0  0  0  0  0  0
  -28.2530  -26.2530   20.3020 O   0  0  0  0  0  0  0  0  0  0  0  0
  -24.6130  -31.9260   23.2610 C   0  0  0  0  0  0  0  0  0  0  0  0
  -27.2120  -27.2400   20.2540 C   0  0  0  0  0  0  0  0  0  0  0  0
  -23.4180  -30.5180   21.6280 C   0  0  0  0  0  3  0  0  0  0  0  0
  -24.8750  -28.9500   20.2110 C   0  0  0  0  0  0  0  0  0  0  0  0
  -25.9700  -30.8020   21.4600 C   0  0  0  0  0  2  0  0  0  0  0  0
  -26.0510  -29.4080   20.8210 C   0  0  0  0  0  0  0  0  0  0  0  0
  -27.2230  -28.5680   20.8310 C   0  0  0  0  0  3  0  0  0  0  0  0
  -26.0190  -26.8850   19.5860 C   0  0  0  0  0  3  0  0  0  0  0  0
  -24.8700  -27.6980   19.5800 C   0  0  0  0  0  3  0  0  0  0  0  0
  -23.6420  -29.8380   20.2530 C   0  0  0  0  0  2  0  0  0  0  0  0
  -24.6870  -31.1030   22.1720 N   0  0  0  0  0  0  0  0  0  0  0  0
  -23.5260  -32.2070   23.7880 O   0  0  0  0  0  0  0  0  0  0  0  0
  -22.7470  -29.5080   22.5930 C   0  0  0  0  0  0  0  0  0  0  0  0
  -21.4200  -29.3280   22.4650 N   0  0  0  0  0  0  0  0  0  0  0  0
  -23.4200  -28.8920   23.4220 O   0  0  0  0  0  0  0  0  0  0  0  0
  -20.9330  -29.8790   21.7720 H   0  0  0  0  0  0  0  0  0  0  0  0
  -18.0440  -28.1140   22.9660 C   0  0  0  0  0  0  0  0  0  0  0  0
  -20.6010  -28.3920   23.2390 C   0  0  0  0  0  3  0  0  0  0  0  0
  -20.7120  -26.9560   22.6760 C   0  0  0  0  0  2  0  0  0  0  0  0
  -19.6140  -26.6200   21.6610 C   0  0  0  0  0  2  0  0  0  0  0  0
  -18.2300  -26.7620   22.3000 C   0  0  0  0  0  2  0  0  0  0  0  0
  -19.1580  -28.8860   23.3920 C   0  0  0  0  0  0  0  0  0  0  0  0
  -18.9310  -30.1500   23.9780 C   0  0  0  0  0  3  0  0  0  0  0  0
  -17.6230  -30.6450   24.1380 C   0  0  0  0  0  3  0  0  0  0  0  0
  -16.5240  -29.8720   23.7280 C   0  0  0  0  0  3  0  0  0  0  0  0
  -16.7350  -28.6080   23.1480 C   0  0  0  0  0  3  0  0  0  0  0  0
  -25.8890  -32.5680   23.8840 C   0  0  0  0  0  3  0  0  0  0  0  0
  -26.3960  -31.8140   25.1750 C   0  0  1  0  0  0  0  0  0  0  0  0
  -25.2940  -31.5880   26.2370 C   0  0  0  0  0  1  0  0  0  0  0  0
  -26.9840  -30.4320   24.8060 C   0  0  0  0  0  1  0  0  0  0  0  0
  -27.5420  -32.6170   25.8340 C   0  0  0  0  0  1  0  0  0  0  0  0
  -25.5750  -33.9690   24.1990 N   0  0  0  0  0  0  0  0  0  0  0  0
  -25.9110  -35.0180   23.4350 C   0  0  0  0  0  0  0  0  0  0  0  0
  -26.5860  -34.9070   22.4080 O   0  0  0  0  0  0  0  0  0  0  0  0
  -24.9770  -34.1300   24.9960 H   0  0  0  0  0  0  0  0  0  0  0  0
  -24.1910  -36.8160   23.0580 C   0  0  0  0  0  1  0  0  0  0  0  0
  -25.4230  -36.4100   23.8820 C   0  0  0  0  0  3  0  0  0  0  0  0
  -27.5500  -37.2970   24.7280 C   0  0  0  0  0  1  0  0  0  0  0  0
  -26.4580  -37.4610   23.7730 N   0  0  0  0  0  0  0  0  0  0  0  0
  -26.0520  -38.3830   23.9120 H   0  0  0  0  0  0  0  0  0  0  0  0
  1  8  1  0
  2  9  1  0
  2  1  2  0
  3  4  2  0
  3  2  1  0
  4  5  1  0
  5 49  1  0
  5  8  2  0
  6  3  1  0
  7  4  1  0
 10 19  1  0
 10  9  2  0
 11 19  1  0
 12 17  1  0
 13 14  1  0
 13 12  1  0
 15 14  1  0
 15 24  1  0
 15 16  1  0
 17 11  1  0
 17 16  1  0
 18 11  2  0
 19 20  1  0
 21 22  2  0
 22 41  1  0
 23 22  1  0
 23 26  1  0
 24 21  1  0
 24 25  1  0
 25 23  2  0
 26 27  1  0
 27 28  2  0
 29 32  1  0
 29 28  1  0
 30 29  2  0
 31 30  1  0
 31 26  2  0
 32 33  1  0
 33 34  1  0
 34 35  2  0
 36 35  1  0
 36 40  1  0
 37 36  2  0
 38 33  2  0
 38 37  1  0
 39 38  1  0
 41 42  1  0
 42 45  1  0
 42 44  1  0
 43 41  2  0
 46 47  1  0
 46 21  1  0
 48 46  1  0
 50 49  1  0
 51 62  2  0
 52 50  1  0
 52 57  1  0
 53 61  1  0
 53 63  1  0
 54 60  1  0
 54 56  1  0
 55 61  1  0
 56 57  2  0
 56 55  1  0
 58 52  2  0
 59 58  1  0
 59 54  2  0
 60 53  1  0
 61 51  1  0
 63 65  2  0
 64 63  1  0
 66 64  1  0
 67 76  2  0
 67 72  1  0
 68 64  1  0
 68 72  1  0
 69 68  1  0
 70 71  1  0
 70 69  1  0
 71 67  1  0
 72 73  2  0
 73 74  1  0
 75 74  2  0
 76 75  1  0
 77 51  1  0
 77 82  1  0
 77 78  1  0
 78 81  1  1
 78 79  1  0
 80 78  1  0
 82 85  1  0
 83 87  1  0
 83 82  1  0
 84 83  2  0
 87 86  1  0
 89 87  1  0
 89 90  1  0
 89 88  1  0
M  ISO  4  11 100  19 100  49 101  50 101
M  END
>  <TORSDO>  (51) 
F 19

>  <SCORE>  (51) 
-14.324

>  <name>  (51) 
52

>  <ligand_id>  (51) 
52

>  <original_smiles>  (51) 
[H]c1nc(C([H])([H])Oc2c([H])c([H])c3c(c2[H])C([H])([H])N(C(=O)C([H])(N([H])C(=O)C([H])(N([H])C([H])([H])[H])C([H])([H])[H])C(C([H])([H])[H])(C([H])([H])[H])C([H])([H])[H])C([H])(C(=O)N([H])C2([H])c4c([H])c([H])c([H])c([H])c4C([H])([H])C([H])([H])C2([H])[H])C3([H])[H])c(C([H])([H])[H])c(C([H])([H])[H])c1C([H])([H])C([H])([H])N([H])C(=O)N1C([H])([H])C([H])([H])C([H])([H])C([H])(n2nc(-c3c([H])c([H])c(Oc4c([H])c([H])c(F)c([H])c4F)c([H])c3[H])c(C(=O)N([H])[H])c2N([H])[H])C1([H])[H]

>  <smiles>  (51) 
[H]c1nc(C([H])([H])Oc2c([H])c([H])c3c(c2[H])C([H])([H])N(C(=O)C([H])(N([H])C(=O)C([H])(N([H])C([H])([H])[H])C([H])([H])[H])C(C([H])([H])[H])(C([H])([H])[H])C([H])([H])[H])C([H])(C(=O)N([H])C2([H])c4c([H])c([H])c([H])c([H])c4C([H])([H])C([H])([H])C2([H])[H])C3([H])[H])c(C([H])([H])[H])c(C([H])([H])[H])c1C([H])([H])C([H])([H])N([H])C(=O)N1C([H])([H])C([H])([H])C([H])([H])C([H])(n2nc(-c3c([H])c([H])c(Oc4c([H])c([H])c(F)c([H])c4F)c([H])c3[H])c(C(=O)N([H])[H])c2N([H])[H])C1([H])[H]

$$$$
53:0:0
     RDKit          3D

 95104  0  0  1  0  0  0  0  0999 V2000
  -31.3390  -23.6020   21.4820 C   0  0  0  0  0  3  0  0  0  0  0  0
  -31.1400  -22.2410   21.2260 C   0  0  0  0  0  3  0  0  0  0  0  0
  -30.5100  -24.5610   20.8730 C   0  0  0  0  0  0  0  0  0  0  0  0
  -30.1240  -21.8130   20.3580 C   0  0  0  0  0  0  0  0  0  0  0  0
  -29.4870  -24.1300   19.9910 C   0  0  0  0  0  0  0  0  0  0  0  0
  -30.7390  -26.0220   21.2290 C   0  0  0  0  0  1  0  0  0  0  0  0
  -29.3120  -22.7650   19.7570 N   0  0  0  0  0  0  0  0  0  0  0  0
  -30.7990  -14.8630   19.9140 C   0  0  0  0  0  0  0  0  0  0  0  0
  -30.5870  -12.5980   18.8890 C   0  0  0  0  0  2  0  0  0  0  0  0
  -29.5870  -12.6890   17.7140 C   0  0  0  0  0  2  0  0  0  0  0  0
  -28.1370  -12.5160   18.2080 C   0  0  0  0  0  2  0  0  0  0  0  0
  -27.8220  -13.3980   19.4450 C   0  0  0  0  0  3  0  0  0  0  0  0
  -28.9270  -13.2670   20.5170 C   0  0  0  0  0  2  0  0  0  0  0  0
  -30.2050  -13.6230   19.8830 N   0  0  0  0  0  0  0  0  0  0  0  0
  -31.9410  -15.0190   19.4660 O   0  0  0  0  0  0  0  0  0  0  0  0
  -29.0240  -18.0950   20.8850 C   0  0  0  0  0  3  0  0  0  0  0  0
  -29.9660  -20.2940   20.2020 C   0  0  0  0  0  0  0  0  0  0  0  0
  -28.9820  -19.5250   20.8890 C   0  0  0  0  0  0  0  0  0  0  0  0
  -30.9270  -19.4700   19.5260 C   0  0  0  0  0  0  0  0  0  0  0  0
  -30.0470  -17.3630   20.2290 C   0  0  0  0  0  0  0  0  0  0  0  0
  -27.8990  -20.2220   21.6960 C   0  0  0  0  0  1  0  0  0  0  0  0
  -32.0520  -20.0920   18.7180 C   0  0  0  0  0  1  0  0  0  0  0  0
  -30.9640  -18.0950   19.5440 N   0  0  0  0  0  0  0  0  0  0  0  0
  -29.9950  -15.8990   20.3340 N   0  0  0  0  0  0  0  0  0  0  0  0
  -29.1360  -15.5610   20.7350 H   0  0  0  0  0  0  0  0  0  0  0  0
  -25.4700  -14.0010   20.2850 C   0  0  0  0  0  0  0  0  0  0  0  0
  -24.4180  -13.2280   20.6940 C   0  0  0  0  0  0  0  0  0  0  0  0
  -24.8710  -11.8750   20.6250 C   0  0  0  0  0  0  0  0  0  0  0  0
  -26.4960  -13.1180   19.9890 N   0  0  0  0  0  0  0  0  0  0  0  0
  -26.1440  -11.8340   20.2530 N   0  0  0  0  0  0  0  0  0  0  0  0
  -24.1480  -10.6130   20.8330 C   0  0  0  0  0  0  0  0  0  0  0  0
  -24.5690   -9.6710   21.7970 C   0  0  0  0  0  3  0  0  0  0  0  0
  -23.8470   -8.4750   21.9920 C   0  0  0  0  0  3  0  0  0  0  0  0
  -22.6880   -8.2110   21.2230 C   0  0  0  0  0  0  0  0  0  0  0  0
  -22.2860   -9.1420   20.2490 C   0  0  0  0  0  3  0  0  0  0  0  0
  -23.0100  -10.3310   20.0530 C   0  0  0  0  0  3  0  0  0  0  0  0
  -21.9400   -7.0650   21.3260 O   0  0  0  0  0  0  0  0  0  0  0  0
  -21.7930   -6.4040   22.5190 C   0  0  0  0  0  0  0  0  0  0  0  0
  -21.2340   -7.0320   23.6540 C   0  0  0  0  0  3  0  0  0  0  0  0
  -21.0380   -6.2970   24.8400 C   0  0  0  0  0  3  0  0  0  0  0  0
  -21.3900   -4.9350   24.8910 C   0  0  0  0  0  0  0  0  0  0  0  0
  -21.9410   -4.3070   23.7600 C   0  0  0  0  0  3  0  0  0  0  0  0
  -22.1390   -5.0390   22.5770 C   0  0  0  0  0  0  0  0  0  0  0  0
  -22.6510   -4.4230   21.4850 F   0  0  0  0  0  0  0  0  0  0  0  0
  -21.1940   -4.2270   26.0280 F   0  0  0  0  0  0  0  0  0  0  0  0
  -23.0370  -13.7090   21.0390 C   0  0  0  0  0  0  0  0  0  0  0  0
  -22.3650  -13.0290   21.9620 N   0  0  0  0  0  0  0  0  0  0  0  0
  -22.5650  -14.7210   20.5240 O   0  0  0  0  0  0  0  0  0  0  0  0
  -22.7600  -12.2100   22.3990 H   0  0  0  0  0  0  0  0  0  0  0  0
  -21.4420  -13.3330   22.2370 H   0  0  0  0  0  0  0  0  0  0  0  0
  -25.6340  -15.3740   20.1170 N   0  0  0  0  0  0  0  0  0  0  0  0
  -24.8730  -16.0270   20.2700 H   0  0  0  0  0  0  0  0  0  0  0  0
  -26.4550  -15.8130   19.7200 H   0  0  0  0  0  0  0  0  0  0  0  0
  -28.4780  -25.1630   19.3290 C   0  0  0  0  0  2  0  0  0  0  0  0
  -28.6030  -26.6350   19.5540 O   0  0  0  0  0  0  0  0  0  0  0  0
  -24.5640  -31.5070   23.0210 C   0  0  0  0  0  0  0  0  0  0  0  0
  -27.4360  -27.4240   19.5580 C   0  0  0  0  0  0  0  0  0  0  0  0
  -23.4380  -30.2000   21.2530 C   0  0  0  0  0  3  0  0  0  0  0  0
  -24.9760  -28.8880   19.6860 C   0  0  0  0  0  0  0  0  0  0  0  0
  -25.9510  -30.6970   21.0980 C   0  0  0  0  0  2  0  0  0  0  0  0
  -26.1140  -29.3920   20.3250 C   0  0  0  0  0  0  0  0  0  0  0  0
  -27.3470  -28.6740   20.2500 C   0  0  0  0  0  3  0  0  0  0  0  0
  -26.2710  -26.9790   18.8930 C   0  0  0  0  0  3  0  0  0  0  0  0
  -25.0570  -27.6900   18.9580 C   0  0  0  0  0  3  0  0  0  0  0  0
  -23.6850  -29.6730   19.8150 C   0  0  0  0  0  2  0  0  0  0  0  0
  -24.6700  -30.8140   21.8500 N   0  0  0  0  0  0  0  0  0  0  0  0
  -23.4690  -31.6640   23.5810 O   0  0  0  0  0  0  0  0  0  0  0  0
  -22.8460  -29.0590   22.1130 C   0  0  0  0  0  0  0  0  0  0  0  0
  -21.5260  -28.8330   21.9920 N   0  0  0  0  0  0  0  0  0  0  0  0
  -23.5700  -28.3830   22.8480 O   0  0  0  0  0  0  0  0  0  0  0  0
  -20.9980  -29.4370   21.3770 H   0  0  0  0  0  0  0  0  0  0  0  0
  -18.2060  -27.4810   22.4770 C   0  0  0  0  0  0  0  0  0  0  0  0
  -20.7670  -27.7820   22.6720 C   0  0  0  0  0  3  0  0  0  0  0  0
  -20.8780  -26.4360   21.9180 C   0  0  0  0  0  2  0  0  0  0  0  0
  -19.7390  -26.2080   20.9200 C   0  0  0  0  0  2  0  0  0  0  0  0
  -18.3850  -26.2310   21.6340 C   0  0  0  0  0  2  0  0  0  0  0  0
  -19.3240  -28.2180   22.9520 C   0  0  0  0  0  0  0  0  0  0  0  0
  -19.1010  -29.3920   23.7040 C   0  0  0  0  0  3  0  0  0  0  0  0
  -17.7920  -29.8270   23.9870 C   0  0  0  0  0  3  0  0  0  0  0  0
  -16.6900  -29.0860   23.5280 C   0  0  0  0  0  3  0  0  0  0  0  0
  -16.8970  -27.9140   22.7780 C   0  0  0  0  0  3  0  0  0  0  0  0
  -25.8100  -32.1530   23.7020 C   0  0  0  0  0  3  0  0  0  0  0  0
  -25.4530  -33.5350   24.0540 N   0  0  0  0  0  0  0  0  0  0  0  0
  -25.7630  -34.6120   23.3200 C   0  0  0  0  0  0  0  0  0  0  0  0
  -26.4470  -34.5490   22.2950 O   0  0  0  0  0  0  0  0  0  0  0  0
  -24.8400  -33.6550   24.8470 H   0  0  0  0  0  0  0  0  0  0  0  0
  -23.9720  -36.3510   23.0040 C   0  0  0  0  0  1  0  0  0  0  0  0
  -25.2310  -35.9760   23.8020 C   0  0  0  0  0  3  0  0  0  0  0  0
  -27.3310  -36.9300   24.6430 C   0  0  0  0  0  1  0  0  0  0  0  0
  -26.2240  -37.0650   23.7000 N   0  0  0  0  0  0  0  0  0  0  0  0
  -25.7850  -37.9680   23.8550 H   0  0  0  0  0  0  0  0  0  0  0  0
  -26.2990  -31.3620   24.9780 C   0  0  1  0  0  0  0  0  0  0  0  0
  -25.1750  -31.0790   26.0010 C   0  0  0  0  0  1  0  0  0  0  0  0
  -26.9250  -30.0070   24.5730 C   0  0  0  0  0  1  0  0  0  0  0  0
  -27.4050  -32.1680   25.6990 C   0  0  0  0  0  1  0  0  0  0  0  0
  2  1  1  0
  3  6  1  0
  3  1  2  0
  4  2  2  0
  5  3  1  0
  7  5  2  0
  7  4  1  0
  8 24  1  0
  9 14  1  0
 10 11  1  0
 10  9  1  0
 12 11  1  0
 12 29  1  0
 12 13  1  0
 14  8  1  0
 14 13  1  0
 15  8  2  0
 16 18  1  0
 17  4  1  0
 17 18  2  0
 18 21  1  0
 19 23  2  0
 19 17  1  0
 20 24  1  0
 20 16  2  0
 22 19  1  0
 23 20  1  0
 24 25  1  0
 26 27  2  0
 27 46  1  0
 28 27  1  0
 28 31  1  0
 29 30  1  0
 29 26  1  0
 30 28  2  0
 31 32  1  0
 32 33  2  0
 34 37  1  0
 34 33  1  0
 35 34  2  0
 36 35  1  0
 36 31  2  0
 37 38  1  0
 38 43  2  0
 38 39  1  0
 39 40  2  0
 40 41  1  0
 41 45  1  0
 42 41  2  0
 43 42  1  0
 44 43  1  0
 46 47  1  0
 47 50  1  0
 47 49  1  0
 48 46  2  0
 51 52  1  0
 51 26  1  0
 53 51  1  0
 54 55  1  0
 54  5  1  0
 55 57  1  0
 56 67  2  0
 57 62  1  0
 58 66  1  0
 58 68  1  0
 59 65  1  0
 59 61  1  0
 60 66  1  0
 61 60  1  0
 62 61  2  0
 63 64  1  0
 63 57  2  0
 64 59  2  0
 65 58  1  0
 66 56  1  0
 68 70  2  0
 69 68  1  0
 71 69  1  0
 72 81  2  0
 72 77  1  0
 73 69  1  0
 73 77  1  0
 74 73  1  0
 75 76  1  0
 75 74  1  0
 76 72  1  0
 77 78  2  0
 78 79  1  0
 80 79  2  0
 81 80  1  0
 82 56  1  0
 82 83  1  0
 82 92  1  0
 83 86  1  0
 84 88  1  0
 84 83  1  0
 85 84  2  0
 88 87  1  0
 90 88  1  0
 90 91  1  0
 90 89  1  0
 92 95  1  1
 92 93  1  0
 94 92  1  0
M  ISO  4   8 100  24 100  54 101  55 101
M  END
>  <TORSDO>  (52) 
F 17

>  <SCORE>  (52) 
-11.581

>  <name>  (52) 
53

>  <ligand_id>  (52) 
53

>  <original_smiles>  (52) 
[H]c1c(-c2c(C([H])([H])[H])nc(N([H])C(=O)N3C([H])([H])C([H])([H])C([H])([H])C([H])(n4nc(-c5c([H])c([H])c(Oc6c([H])c([H])c(F)c([H])c6F)c([H])c5[H])c(C(=O)N([H])[H])c4N([H])[H])C3([H])[H])c([H])c2C([H])([H])[H])nc(C([H])([H])Oc2c([H])c([H])c3c(c2[H])C([H])([H])N(C(=O)C([H])(N([H])C(=O)C([H])(N([H])C([H])([H])[H])C([H])([H])[H])C(C([H])([H])[H])(C([H])([H])[H])C([H])([H])[H])C([H])(C(=O)N([H])C2([H])c4c([H])c([H])c([H])c([H])c4C([H])([H])C([H])([H])C2([H])[H])C3([H])[H])c(C([H])([H])[H])c1[H]

>  <smiles>  (52) 
[H]c1c(-c2c(C([H])([H])[H])nc(N([H])C(=O)N3C([H])([H])C([H])([H])C([H])([H])C([H])(n4nc(-c5c([H])c([H])c(Oc6c([H])c([H])c(F)c([H])c6F)c([H])c5[H])c(C(=O)N([H])[H])c4N([H])[H])C3([H])[H])c([H])c2C([H])([H])[H])nc(C([H])([H])Oc2c([H])c([H])c3c(c2[H])C([H])([H])N(C(=O)C([H])(N([H])C(=O)C([H])(N([H])C([H])([H])[H])C([H])([H])[H])C(C([H])([H])[H])(C([H])([H])[H])C([H])([H])[H])C([H])(C(=O)N([H])C2([H])c4c([H])c([H])c([H])c([H])c4C([H])([H])C([H])([H])C2([H])[H])C3([H])[H])c(C([H])([H])[H])c1[H]

$$$$
54:0:0
     RDKit          3D

 92101  0  0  1  0  0  0  0  0999 V2000
  -29.5320  -20.5970   20.0790 C   0  0  0  0  0  0  0  0  0  0  0  0
  -28.8410  -21.4460   21.0290 C   0  0  0  0  0  0  0  0  0  0  0  0
  -28.6010  -22.8690   20.8110 C   0  0  0  0  0  0  0  0  0  0  0  0
  -29.9530  -21.3830   18.9510 C   0  0  0  0  0  0  0  0  0  0  0  0
  -29.0120  -23.5510   19.6210 C   0  0  0  0  0  0  0  0  0  0  0  0
  -28.3090  -20.8310   22.3230 C   0  0  0  0  0  1  0  0  0  0  0  0
  -27.8140  -23.6710   21.8440 C   0  0  0  0  0  1  0  0  0  0  0  0
  -30.7400  -20.7190   17.8420 C   0  0  0  0  0  1  0  0  0  0  0  0
  -29.6920  -22.7400   18.7400 N   0  0  0  0  0  0  0  0  0  0  0  0
  -30.9900  -15.1970   19.7870 C   0  0  0  0  0  0  0  0  0  0  0  0
  -30.7260  -12.8400   18.8980 C   0  0  0  0  0  2  0  0  0  0  0  0
  -29.7250  -12.8180   17.7220 C   0  0  0  0  0  2  0  0  0  0  0  0
  -28.2920  -12.6380   18.2520 C   0  0  0  0  0  2  0  0  0  0  0  0
  -27.9740  -13.5950   19.4320 C   0  0  0  0  0  3  0  0  0  0  0  0
  -29.0950  -13.6090   20.4940 C   0  0  0  0  0  2  0  0  0  0  0  0
  -30.3440  -13.9630   19.8050 N   0  0  0  0  0  0  0  0  0  0  0  0
  -32.1220  -15.2380   19.2890 O   0  0  0  0  0  0  0  0  0  0  0  0
  -30.4150  -18.4420   21.5570 C   0  0  0  0  0  2  0  0  0  0  0  0
  -30.3390  -16.8760   21.5100 C   0  0  0  0  0  2  0  0  0  0  0  0
  -30.2250  -17.7520   19.3490 C   0  0  0  0  0  2  0  0  0  0  0  0
  -29.6790  -18.9500   20.3060 C   0  0  0  0  0  3  0  0  0  0  0  0
  -30.3150  -16.4040   20.1110 N   0  0  0  0  0  0  0  0  0  0  0  0
  -25.6820  -14.2220   20.3840 C   0  0  0  0  0  0  0  0  0  0  0  0
  -24.6150  -13.4690   20.7930 C   0  0  0  0  0  0  0  0  0  0  0  0
  -25.0170  -12.1060   20.6510 C   0  0  0  0  0  0  0  0  0  0  0  0
  -26.6650  -13.3200   20.0160 N   0  0  0  0  0  0  0  0  0  0  0  0
  -26.2770  -12.0370   20.2380 N   0  0  0  0  0  0  0  0  0  0  0  0
  -24.2540  -10.8620   20.8270 C   0  0  0  0  0  0  0  0  0  0  0  0
  -24.6660   -9.8620   21.7350 C   0  0  0  0  0  3  0  0  0  0  0  0
  -23.9020   -8.6860   21.9040 C   0  0  0  0  0  3  0  0  0  0  0  0
  -22.7110   -8.5020   21.1640 C   0  0  0  0  0  0  0  0  0  0  0  0
  -22.3170   -9.4900   20.2440 C   0  0  0  0  0  3  0  0  0  0  0  0
  -23.0810  -10.6560   20.0740 C   0  0  0  0  0  3  0  0  0  0  0  0
  -21.9200   -7.3800   21.2410 O   0  0  0  0  0  0  0  0  0  0  0  0
  -21.7840   -6.6730   22.4090 C   0  0  0  0  0  0  0  0  0  0  0  0
  -21.2790   -7.2690   23.5850 C   0  0  0  0  0  3  0  0  0  0  0  0
  -21.0940   -6.4900   24.7440 C   0  0  0  0  0  3  0  0  0  0  0  0
  -21.4030   -5.1160   24.7280 C   0  0  0  0  0  0  0  0  0  0  0  0
  -21.9010   -4.5200   23.5560 C   0  0  0  0  0  3  0  0  0  0  0  0
  -22.0890   -5.2970   22.3990 C   0  0  0  0  0  0  0  0  0  0  0  0
  -22.5500   -4.7140   21.2650 F   0  0  0  0  0  0  0  0  0  0  0  0
  -21.2180   -4.3660   25.8380 F   0  0  0  0  0  0  0  0  0  0  0  0
  -23.2660  -13.9810   21.2060 C   0  0  0  0  0  0  0  0  0  0  0  0
  -22.5860  -13.2660   22.0930 N   0  0  0  0  0  0  0  0  0  0  0  0
  -22.8310  -15.0500   20.7750 O   0  0  0  0  0  0  0  0  0  0  0  0
  -22.9560  -12.4000   22.4570 H   0  0  0  0  0  0  0  0  0  0  0  0
  -21.6850  -13.5860   22.4190 H   0  0  0  0  0  0  0  0  0  0  0  0
  -25.8990  -15.5920   20.2740 N   0  0  0  0  0  0  0  0  0  0  0  0
  -25.1870  -16.2840   20.4850 H   0  0  0  0  0  0  0  0  0  0  0  0
  -26.7610  -16.0020   19.9390 H   0  0  0  0  0  0  0  0  0  0  0  0
  -28.3680  -24.9900   19.1090 C   0  0  0  0  0  2  0  0  0  0  0  0
  -28.5610  -26.4420   19.6300 O   0  0  0  0  0  0  0  0  0  0  0  0
  -24.6030  -31.6290   23.0400 C   0  0  0  0  0  0  0  0  0  0  0  0
  -27.4650  -27.3840   19.6010 C   0  0  0  0  0  0  0  0  0  0  0  0
  -23.4850  -30.2900   21.3000 C   0  0  0  0  0  3  0  0  0  0  0  0
  -25.0230  -28.9620   19.7290 C   0  0  0  0  0  0  0  0  0  0  0  0
  -26.0130  -30.7450   21.1480 C   0  0  0  0  0  2  0  0  0  0  0  0
  -26.1720  -29.4240   20.3810 C   0  0  0  0  0  0  0  0  0  0  0  0
  -27.3890  -28.6450   20.3180 C   0  0  0  0  0  3  0  0  0  0  0  0
  -26.2940  -27.0560   18.8770 C   0  0  0  0  0  3  0  0  0  0  0  0
  -25.0980  -27.7940   18.9580 C   0  0  0  0  0  3  0  0  0  0  0  0
  -23.7320  -29.7540   19.8640 C   0  0  0  0  0  2  0  0  0  0  0  0
  -24.7180  -30.9090   21.8840 N   0  0  0  0  0  0  0  0  0  0  0  0
  -23.5050  -31.7900   23.5960 O   0  0  0  0  0  0  0  0  0  0  0  0
  -22.9000  -29.1570   22.1780 C   0  0  0  0  0  0  0  0  0  0  0  0
  -21.5910  -28.8840   22.0320 N   0  0  0  0  0  0  0  0  0  0  0  0
  -23.6220  -28.5280   22.9560 O   0  0  0  0  0  0  0  0  0  0  0  0
  -21.0610  -29.4490   21.3840 H   0  0  0  0  0  0  0  0  0  0  0  0
  -18.3260  -27.3590   22.4190 C   0  0  0  0  0  0  0  0  0  0  0  0
  -20.8520  -27.8260   22.7270 C   0  0  0  0  0  3  0  0  0  0  0  0
  -21.0790  -26.4500   22.0550 C   0  0  0  0  0  2  0  0  0  0  0  0
  -20.0130  -26.0990   21.0140 C   0  0  0  0  0  2  0  0  0  0  0  0
  -18.6220  -26.0820   21.6520 C   0  0  0  0  0  2  0  0  0  0  0  0
  -19.3730  -28.1850   22.9090 C   0  0  0  0  0  0  0  0  0  0  0  0
  -19.0420  -29.3770   23.5860 C   0  0  0  0  0  3  0  0  0  0  0  0
  -17.6980  -29.7490   23.7780 C   0  0  0  0  0  3  0  0  0  0  0  0
  -16.6650  -28.9220   23.3020 C   0  0  0  0  0  3  0  0  0  0  0  0
  -16.9810  -27.7270   22.6310 C   0  0  0  0  0  3  0  0  0  0  0  0
  -25.8400  -32.3040   23.7060 C   0  0  0  0  0  3  0  0  0  0  0  0
  -25.4540  -33.6740   24.0760 N   0  0  0  0  0  0  0  0  0  0  0  0
  -25.7310  -34.7690   23.3530 C   0  0  0  0  0  0  0  0  0  0  0  0
  -26.4040  -34.7320   22.3190 O   0  0  0  0  0  0  0  0  0  0  0  0
  -24.8480  -33.7720   24.8770 H   0  0  0  0  0  0  0  0  0  0  0  0
  -23.9030  -36.4750   23.0700 C   0  0  0  0  0  1  0  0  0  0  0  0
  -25.1750  -36.1170   23.8550 C   0  0  0  0  0  3  0  0  0  0  0  0
  -27.2640  -37.0990   24.6900 C   0  0  0  0  0  1  0  0  0  0  0  0
  -26.1470  -37.2260   23.7580 N   0  0  0  0  0  0  0  0  0  0  0  0
  -25.6940  -38.1200   23.9240 H   0  0  0  0  0  0  0  0  0  0  0  0
  -26.3650  -31.5190   24.9710 C   0  0  1  0  0  0  0  0  0  0  0  0
  -25.2650  -31.2060   26.0130 C   0  0  0  0  0  1  0  0  0  0  0  0
  -27.0140  -30.1780   24.5580 C   0  0  0  0  0  1  0  0  0  0  0  0
  -27.4680  -32.3430   25.6730 C   0  0  0  0  0  1  0  0  0  0  0  0
  1  2  1  0
  2  6  1  0
  3  2  2  0
  3  7  1  0
  4  1  2  0
  5  3  1  0
  8  4  1  0
  9  4  1  0
  9  5  2  0
 10 16  1  0
 10 22  1  0
 11 16  1  0
 12 13  1  0
 12 11  1  0
 14 13  1  0
 14 26  1  0
 14 15  1  0
 16 15  1  0
 17 10  2  0
 19 18  1  0
 20 22  1  0
 20 21  1  0
 21  1  1  0
 21 18  1  0
 22 19  1  0
 23 24  2  0
 24 43  1  0
 25 24  1  0
 25 28  1  0
 26 27  1  0
 26 23  1  0
 27 25  2  0
 28 29  1  0
 29 30  2  0
 31 34  1  0
 31 30  1  0
 32 31  2  0
 33 32  1  0
 33 28  2  0
 34 35  1  0
 35 36  1  0
 36 37  2  0
 38 37  1  0
 38 42  1  0
 39 38  2  0
 40 35  2  0
 40 39  1  0
 41 40  1  0
 43 44  1  0
 44 47  1  0
 44 46  1  0
 45 43  2  0
 48 23  1  0
 48 49  1  0
 50 48  1  0
 51  5  1  0
 51 52  1  0
 53 64  2  0
 54 52  1  0
 54 59  1  0
 55 63  1  0
 55 65  1  0
 56 62  1  0
 56 58  1  0
 57 63  1  0
 58 57  1  0
 59 58  2  0
 60 61  1  0
 60 54  2  0
 61 56  2  0
 62 55  1  0
 63 53  1  0
 65 67  2  0
 66 65  1  0
 68 66  1  0
 69 78  2  0
 69 74  1  0
 70 66  1  0
 70 74  1  0
 71 70  1  0
 72 73  1  0
 72 71  1  0
 73 69  1  0
 74 75  2  0
 75 76  1  0
 77 76  2  0
 78 77  1  0
 79 53  1  0
 79 80  1  0
 79 89  1  0
 80 83  1  0
 81 85  1  0
 81 80  1  0
 82 81  2  0
 85 84  1  0
 87 85  1  0
 87 88  1  0
 87 86  1  0
 89 92  1  1
 89 90  1  0
 91 89  1  0
M  ISO  4  10 100  22 100  51 101  52 101
M  END
>  <TORSDO>  (53) 
F 17

>  <SCORE>  (53) 
-12.313

>  <name>  (53) 
54

>  <ligand_id>  (53) 
54

>  <original_smiles>  (53) 
[H]c1c([H])c([H])c2c(c1[H])C([H])([H])C([H])([H])C([H])([H])C2([H])N([H])C(=O)C1([H])N(C(=O)C([H])(N([H])C(=O)C([H])(N([H])C([H])([H])[H])C([H])([H])[H])C(C([H])([H])[H])(C([H])([H])[H])C([H])([H])[H])C([H])([H])c2c([H])c(OC([H])([H])c3nc(C([H])([H])[H])c(C4([H])C([H])([H])N(C(=O)N5C([H])([H])C([H])([H])C([H])([H])C([H])(n6nc(-c7c([H])c([H])c(Oc8c([H])c([H])c(F)c([H])c8F)c([H])c7[H])c(C(=O)N([H])[H])c6N([H])[H])C5([H])[H])C([H])([H])C4([H])[H])c(C([H])([H])[H])c3C([H])([H])[H])c([H])c([H])c2C1([H])[H]

>  <smiles>  (53) 
[H]c1c([H])c([H])c2c(c1[H])C([H])([H])C([H])([H])C([H])([H])C2([H])N([H])C(=O)C1([H])N(C(=O)C([H])(N([H])C(=O)C([H])(N([H])C([H])([H])[H])C([H])([H])[H])C(C([H])([H])[H])(C([H])([H])[H])C([H])([H])[H])C([H])([H])c2c([H])c(OC([H])([H])c3nc(C([H])([H])[H])c(C4([H])C([H])([H])N(C(=O)N5C([H])([H])C([H])([H])C([H])([H])C([H])(n6nc(-c7c([H])c([H])c(Oc8c([H])c([H])c(F)c([H])c8F)c([H])c7[H])c(C(=O)N([H])[H])c6N([H])[H])C5([H])[H])C([H])([H])C4([H])[H])c(C([H])([H])[H])c3C([H])([H])[H])c([H])c([H])c2C1([H])[H]

$$$$
55:0:0
     RDKit          3D

 91100  0  0  1  0  0  0  0  0999 V2000
  -27.9790  -21.2480   19.9670 C   0  0  0  0  0  3  0  0  0  0  0  0
  -27.6780  -22.6470   19.8570 C   0  0  0  0  0  3  0  0  0  0  0  0
  -29.3000  -20.7840   20.2250 C   0  0  0  0  0  0  0  0  0  0  0  0
  -28.6750  -23.6510   20.0040 C   0  0  0  0  0  0  0  0  0  0  0  0
  -30.2230  -21.8620   20.4320 C   0  0  0  0  0  0  0  0  0  0  0  0
  -31.6750  -21.5770   20.7690 C   0  0  0  0  0  1  0  0  0  0  0  0
  -29.9290  -23.2060   20.3160 N   0  0  0  0  0  0  0  0  0  0  0  0
  -30.6560  -14.7950   20.1680 C   0  0  0  0  0  0  0  0  0  0  0  0
  -30.3760  -12.5250   19.1610 C   0  0  0  0  0  2  0  0  0  0  0  0
  -29.4030  -12.5940   17.9670 C   0  0  0  0  0  2  0  0  0  0  0  0
  -27.9510  -12.4190   18.4520 C   0  0  0  0  0  2  0  0  0  0  0  0
  -27.6160  -13.3100   19.6780 C   0  0  0  0  0  3  0  0  0  0  0  0
  -28.7140  -13.2510   20.7610 C   0  0  0  0  0  2  0  0  0  0  0  0
  -29.9820  -13.5940   20.1100 N   0  0  0  0  0  0  0  0  0  0  0  0
  -31.8450  -14.8260   19.8330 O   0  0  0  0  0  0  0  0  0  0  0  0
  -29.8870  -18.4270   21.5050 C   0  0  0  0  0  2  0  0  0  0  0  0
  -28.9180  -18.2220   19.3170 C   0  0  0  0  0  2  0  0  0  0  0  0
  -30.5420  -16.9820   21.3560 C   0  0  0  0  0  2  0  0  0  0  0  0
  -29.5700  -16.7800   19.1480 C   0  0  0  0  0  2  0  0  0  0  0  0
  -29.7410  -19.2270   20.1780 C   0  0  0  0  0  3  0  0  0  0  0  0
  -29.9710  -16.0040   20.3690 N   0  0  0  0  0  0  0  0  0  0  0  0
  -25.2680  -13.8920   20.5200 C   0  0  0  0  0  0  0  0  0  0  0  0
  -24.2120  -13.1140   20.9100 C   0  0  0  0  0  0  0  0  0  0  0  0
  -24.6660  -11.7620   20.8290 C   0  0  0  0  0  0  0  0  0  0  0  0
  -26.2950  -13.0130   20.2200 N   0  0  0  0  0  0  0  0  0  0  0  0
  -25.9440  -11.7250   20.4710 N   0  0  0  0  0  0  0  0  0  0  0  0
  -23.9400  -10.4990   21.0160 C   0  0  0  0  0  0  0  0  0  0  0  0
  -24.3780   -9.5230   21.9380 C   0  0  0  0  0  3  0  0  0  0  0  0
  -23.6510   -8.3260   22.1140 C   0  0  0  0  0  3  0  0  0  0  0  0
  -22.4700   -8.0960   21.3670 C   0  0  0  0  0  0  0  0  0  0  0  0
  -22.0520   -9.0600   20.4330 C   0  0  0  0  0  3  0  0  0  0  0  0
  -22.7790  -10.2490   20.2560 C   0  0  0  0  0  3  0  0  0  0  0  0
  -21.7150   -6.9520   21.4520 O   0  0  0  0  0  0  0  0  0  0  0  0
  -21.6380   -6.2250   22.6130 C   0  0  0  0  0  0  0  0  0  0  0  0
  -21.1430   -6.7830   23.8110 C   0  0  0  0  0  3  0  0  0  0  0  0
  -21.0170   -5.9800   24.9620 C   0  0  0  0  0  3  0  0  0  0  0  0
  -21.3760   -4.6200   24.9170 C   0  0  0  0  0  0  0  0  0  0  0  0
  -21.8650   -4.0610   23.7230 C   0  0  0  0  0  3  0  0  0  0  0  0
  -21.9930   -4.8600   22.5730 C   0  0  0  0  0  0  0  0  0  0  0  0
  -22.4450   -4.3120   21.4200 F   0  0  0  0  0  0  0  0  0  0  0  0
  -21.2480   -3.8460   26.0200 F   0  0  0  0  0  0  0  0  0  0  0  0
  -22.8300  -13.5910   21.2440 C   0  0  0  0  0  0  0  0  0  0  0  0
  -22.1270  -12.8750   22.1150 N   0  0  0  0  0  0  0  0  0  0  0  0
  -22.3820  -14.6350   20.7690 O   0  0  0  0  0  0  0  0  0  0  0  0
  -22.5040  -12.0310   22.5200 H   0  0  0  0  0  0  0  0  0  0  0  0
  -21.2010  -13.1760   22.3830 H   0  0  0  0  0  0  0  0  0  0  0  0
  -25.4370  -15.2660   20.3720 N   0  0  0  0  0  0  0  0  0  0  0  0
  -24.6870  -15.9270   20.5380 H   0  0  0  0  0  0  0  0  0  0  0  0
  -26.2920  -15.7060   20.0570 H   0  0  0  0  0  0  0  0  0  0  0  0
  -28.4720  -25.1530   19.4560 C   0  0  0  0  0  2  0  0  0  0  0  0
  -28.3260  -26.3990   20.2920 O   0  0  0  0  0  0  0  0  0  0  0  0
  -24.6190  -31.9170   23.2190 C   0  0  0  0  0  0  0  0  0  0  0  0
  -27.2240  -27.2860   20.1880 C   0  0  0  0  0  0  0  0  0  0  0  0
  -23.4210  -30.5170   21.5790 C   0  0  0  0  0  3  0  0  0  0  0  0
  -24.8730  -28.9560   20.1610 C   0  0  0  0  0  0  0  0  0  0  0  0
  -25.9680  -30.8100   21.4130 C   0  0  0  0  0  2  0  0  0  0  0  0
  -26.0440  -29.4270   20.7660 C   0  0  0  0  0  0  0  0  0  0  0  0
  -27.2180  -28.6030   20.7710 C   0  0  0  0  0  3  0  0  0  0  0  0
  -26.0170  -26.8810   19.5710 C   0  0  0  0  0  3  0  0  0  0  0  0
  -24.8660  -27.6910   19.5540 C   0  0  0  0  0  3  0  0  0  0  0  0
  -23.6410  -29.8390   20.2010 C   0  0  0  0  0  2  0  0  0  0  0  0
  -24.6890  -31.1010   22.1260 N   0  0  0  0  0  0  0  0  0  0  0  0
  -23.5320  -32.2010   23.7460 O   0  0  0  0  0  0  0  0  0  0  0  0
  -22.7480  -29.5060   22.5400 C   0  0  0  0  0  0  0  0  0  0  0  0
  -21.4200  -29.3440   22.4190 N   0  0  0  0  0  0  0  0  0  0  0  0
  -23.4220  -28.8710   23.3550 O   0  0  0  0  0  0  0  0  0  0  0  0
  -20.9350  -29.9070   21.7340 H   0  0  0  0  0  0  0  0  0  0  0  0
  -18.0280  -28.1930   22.9420 C   0  0  0  0  0  0  0  0  0  0  0  0
  -20.5930  -28.4150   23.1910 C   0  0  0  0  0  3  0  0  0  0  0  0
  -20.6690  -26.9840   22.6080 C   0  0  0  0  0  2  0  0  0  0  0  0
  -19.5550  -26.6840   21.6010 C   0  0  0  0  0  2  0  0  0  0  0  0
  -18.1800  -26.8450   22.2570 C   0  0  0  0  0  2  0  0  0  0  0  0
  -19.1620  -28.9360   23.3670 C   0  0  0  0  0  0  0  0  0  0  0  0
  -18.9650  -30.1980   23.9690 C   0  0  0  0  0  3  0  0  0  0  0  0
  -17.6690  -30.7160   24.1500 C   0  0  0  0  0  3  0  0  0  0  0  0
  -16.5500  -29.9680   23.7410 C   0  0  0  0  0  3  0  0  0  0  0  0
  -16.7310  -28.7080   23.1440 C   0  0  0  0  0  3  0  0  0  0  0  0
  -25.8990  -32.5500   23.8460 C   0  0  0  0  0  3  0  0  0  0  0  0
  -25.5850  -33.9470   24.1830 N   0  0  0  0  0  0  0  0  0  0  0  0
  -25.9020  -35.0040   23.4250 C   0  0  0  0  0  0  0  0  0  0  0  0
  -26.5600  -34.9080   22.3850 O   0  0  0  0  0  0  0  0  0  0  0  0
  -24.9990  -34.0960   24.9920 H   0  0  0  0  0  0  0  0  0  0  0  0
  -24.1650  -36.7950   23.0960 C   0  0  0  0  0  1  0  0  0  0  0  0
  -25.4150  -36.3900   23.8930 C   0  0  0  0  0  3  0  0  0  0  0  0
  -27.5490  -37.2840   24.7150 C   0  0  0  0  0  1  0  0  0  0  0  0
  -26.4430  -37.4480   23.7760 N   0  0  0  0  0  0  0  0  0  0  0  0
  -26.0340  -38.3660   23.9230 H   0  0  0  0  0  0  0  0  0  0  0  0
  -26.4130  -31.7770   25.1220 C   0  0  1  0  0  0  0  0  0  0  0  0
  -25.3170  -31.5320   26.1860 C   0  0  0  0  0  1  0  0  0  0  0  0
  -27.0020  -30.4010   24.7300 C   0  0  0  0  0  1  0  0  0  0  0  0
  -27.5580  -32.5730   25.7910 C   0  0  0  0  0  1  0  0  0  0  0  0
  1  3  1  0
  2  1  2  0
  2  4  1  0
  3  5  2  0
  4  7  2  0
  5  6  1  0
  7  5  1  0
  8 21  1  0
  9 14  1  0
 10 11  1  0
 10  9  1  0
 12 11  1  0
 12 25  1  0
 12 13  1  0
 14  8  1  0
 14 13  1  0
 15  8  2  0
 17 20  1  0
 18 16  1  0
 19 17  1  0
 19 21  1  0
 20  3  1  0
 20 16  1  0
 21 18  1  0
 22 23  2  0
 23 42  1  0
 24 23  1  0
 24 27  1  0
 25 26  1  0
 25 22  1  0
 26 24  2  0
 27 28  1  0
 28 29  2  0
 30 33  1  0
 30 29  1  0
 31 30  2  0
 32 31  1  0
 32 27  2  0
 33 34  1  0
 34 35  1  0
 35 36  2  0
 37 36  1  0
 37 41  1  0
 38 37  2  0
 39 34  2  0
 39 38  1  0
 40 39  1  0
 42 43  1  0
 43 46  1  0
 43 45  1  0
 44 42  2  0
 47 22  1  0
 47 48  1  0
 49 47  1  0
 50  4  1  0
 50 51  1  0
 52 63  2  0
 53 51  1  0
 53 58  1  0
 54 62  1  0
 54 64  1  0
 55 61  1  0
 55 57  1  0
 56 62  1  0
 57 58  2  0
 57 56  1  0
 59 53  2  0
 60 59  1  0
 60 55  2  0
 61 54  1  0
 62 52  1  0
 64 66  2  0
 65 64  1  0
 67 65  1  0
 68 77  2  0
 68 73  1  0
 69 65  1  0
 69 73  1  0
 70 69  1  0
 71 72  1  0
 71 70  1  0
 72 68  1  0
 73 74  2  0
 74 75  1  0
 76 75  2  0
 77 76  1  0
 78 52  1  0
 78 79  1  0
 78 88  1  0
 79 82  1  0
 80 84  1  0
 80 79  1  0
 81 80  2  0
 84 83  1  0
 86 84  1  0
 86 87  1  0
 86 85  1  0
 88 91  1  1
 88 89  1  0
 90 88  1  0
M  ISO  4   8 100  21 100  50 101  51 101
M  END
>  <TORSDO>  (54) 
F 17

>  <SCORE>  (54) 
-15.084

>  <name>  (54) 
55

>  <ligand_id>  (54) 
55

>  <original_smiles>  (54) 
[H]c1c(C([H])([H])Oc2c([H])c([H])c3c(c2[H])C([H])([H])N(C(=O)C([H])(N([H])C(=O)C([H])(N([H])C([H])([H])[H])C([H])([H])[H])C(C([H])([H])[H])(C([H])([H])[H])C([H])([H])[H])C([H])(C(=O)N([H])C2([H])c4c([H])c([H])c([H])c([H])c4C([H])([H])C([H])([H])C2([H])[H])C3([H])[H])nc(C([H])([H])[H])c(C2([H])C([H])([H])C([H])([H])N(C(=O)N3C([H])([H])C([H])([H])C([H])([H])C([H])(n4nc(-c5c([H])c([H])c(Oc6c([H])c([H])c(F)c([H])c6F)c([H])c5[H])c(C(=O)N([H])[H])c4N([H])[H])C3([H])[H])C([H])([H])C2([H])[H])c1[H]

>  <smiles>  (54) 
[H]c1c(C([H])([H])Oc2c([H])c([H])c3c(c2[H])C([H])([H])N(C(=O)C([H])(N([H])C(=O)C([H])(N([H])C([H])([H])[H])C([H])([H])[H])C(C([H])([H])[H])(C([H])([H])[H])C([H])([H])[H])C([H])(C(=O)N([H])C2([H])c4c([H])c([H])c([H])c([H])c4C([H])([H])C([H])([H])C2([H])[H])C3([H])[H])nc(C([H])([H])[H])c(C2([H])C([H])([H])C([H])([H])N(C(=O)N3C([H])([H])C([H])([H])C([H])([H])C([H])(n4nc(-c5c([H])c([H])c(Oc6c([H])c([H])c(F)c([H])c6F)c([H])c5[H])c(C(=O)N([H])[H])c4N([H])[H])C3([H])[H])C([H])([H])C2([H])[H])c1[H]

$$$$
56:0:0
     RDKit          3D

 96105  0  0  1  0  0  0  0  0999 V2000
  -30.0690  -22.5970   20.9260 C   0  0  0  0  0  3  0  0  0  0  0  0
  -29.6990  -23.9120   20.5330 C   0  0  0  0  0  0  0  0  0  0  0  0
  -28.5760  -24.0870   19.6760 C   0  0  0  0  0  0  0  0  0  0  0  0
  -27.9210  -22.8800   19.2730 C   0  0  0  0  0  0  0  0  0  0  0  0
  -29.3800  -21.4670   20.4490 C   0  0  0  0  0  0  0  0  0  0  0  0
  -26.7220  -22.8990   18.3420 C   0  0  0  0  0  1  0  0  0  0  0  0
  -28.3110  -21.6210   19.6420 N   0  0  0  0  0  0  0  0  0  0  0  0
  -29.8350  -20.1800   20.8370 N   0  0  0  0  0  0  0  0  0  0  0  0
  -30.6240  -20.1730   21.4730 H   0  0  0  0  0  0  0  0  0  0  0  0
  -30.6680  -14.7060   19.9430 C   0  0  0  0  0  0  0  0  0  0  0  0
  -30.3830  -12.4770   18.9030 C   0  0  0  0  0  2  0  0  0  0  0  0
  -29.3550  -12.5960   17.7580 C   0  0  0  0  0  2  0  0  0  0  0  0
  -27.9190  -12.4190   18.2940 C   0  0  0  0  0  2  0  0  0  0  0  0
  -27.6400  -13.2740   19.5590 C   0  0  0  0  0  3  0  0  0  0  0  0
  -28.7800  -13.1300   20.5900 C   0  0  0  0  0  2  0  0  0  0  0  0
  -30.0320  -13.4940   19.9130 N   0  0  0  0  0  0  0  0  0  0  0  0
  -31.8090  -14.8260   19.4840 O   0  0  0  0  0  0  0  0  0  0  0  0
  -29.5150  -17.8080   21.5710 C   0  0  0  0  0  2  0  0  0  0  0  0
  -30.1730  -18.2550   19.2370 C   0  0  0  0  0  2  0  0  0  0  0  0
  -29.1740  -16.3280   21.2090 C   0  0  0  0  0  2  0  0  0  0  0  0
  -29.7870  -16.7880   18.8800 C   0  0  0  0  0  2  0  0  0  0  0  0
  -29.3610  -18.8370   20.4150 C   0  0  0  0  0  3  0  0  0  0  0  0
  -29.8650  -15.8230   20.0050 N   0  0  0  0  0  0  0  0  0  0  0  0
  -25.3200  -13.8350   20.5110 C   0  0  0  0  0  0  0  0  0  0  0  0
  -24.2850  -13.0420   20.9280 C   0  0  0  0  0  0  0  0  0  0  0  0
  -24.7370  -11.6950   20.7840 C   0  0  0  0  0  0  0  0  0  0  0  0
  -26.3370  -12.9680   20.1410 N   0  0  0  0  0  0  0  0  0  0  0  0
  -25.9960  -11.6730   20.3630 N   0  0  0  0  0  0  0  0  0  0  0  0
  -24.0250  -10.4230   20.9670 C   0  0  0  0  0  0  0  0  0  0  0  0
  -24.4760   -9.4490   21.8840 C   0  0  0  0  0  3  0  0  0  0  0  0
  -23.7630   -8.2420   22.0560 C   0  0  0  0  0  3  0  0  0  0  0  0
  -22.5860   -8.0010   21.3080 C   0  0  0  0  0  0  0  0  0  0  0  0
  -22.1530   -8.9660   20.3800 C   0  0  0  0  0  3  0  0  0  0  0  0
  -22.8660  -10.1630   20.2080 C   0  0  0  0  0  3  0  0  0  0  0  0
  -21.8440   -6.8480   21.3900 O   0  0  0  0  0  0  0  0  0  0  0  0
  -21.7140   -6.1570   22.5670 C   0  0  0  0  0  0  0  0  0  0  0  0
  -21.1490   -6.7470   23.7190 C   0  0  0  0  0  3  0  0  0  0  0  0
  -20.9700   -5.9810   24.8870 C   0  0  0  0  0  3  0  0  0  0  0  0
  -21.3460   -4.6240   24.9050 C   0  0  0  0  0  0  0  0  0  0  0  0
  -21.9040   -4.0340   23.7580 C   0  0  0  0  0  3  0  0  0  0  0  0
  -22.0840   -4.7970   22.5910 C   0  0  0  0  0  0  0  0  0  0  0  0
  -22.6030   -4.2180   21.4820 F   0  0  0  0  0  0  0  0  0  0  0  0
  -21.1680   -3.8850   26.0250 F   0  0  0  0  0  0  0  0  0  0  0  0
  -22.9190  -13.5030   21.3440 C   0  0  0  0  0  0  0  0  0  0  0  0
  -22.2710  -12.7690   22.2420 N   0  0  0  0  0  0  0  0  0  0  0  0
  -22.4380  -14.5490   20.9100 O   0  0  0  0  0  0  0  0  0  0  0  0
  -22.6730  -11.9220   22.6140 H   0  0  0  0  0  0  0  0  0  0  0  0
  -21.3570  -13.0580   22.5620 H   0  0  0  0  0  0  0  0  0  0  0  0
  -25.4740  -15.2120   20.3930 N   0  0  0  0  0  0  0  0  0  0  0  0
  -24.7220  -15.8590   20.6050 H   0  0  0  0  0  0  0  0  0  0  0  0
  -26.2910  -15.6660   20.0060 H   0  0  0  0  0  0  0  0  0  0  0  0
  -32.0370  -24.9200   20.7080 C   0  0  0  0  0  1  0  0  0  0  0  0
  -30.3130  -25.3200   22.5340 C   0  0  0  0  0  1  0  0  0  0  0  0
  -30.5420  -25.0880   21.0350 C   0  0  0  0  0  3  0  0  0  0  0  0
  -28.1910  -25.4780   19.0540 C   0  0  0  0  0  2  0  0  0  0  0  0
  -28.0470  -26.6430   19.9240 O   0  0  0  0  0  0  0  0  0  0  0  0
  -24.4860  -31.9260   23.2060 C   0  0  0  0  0  0  0  0  0  0  0  0
  -26.8950  -27.4310   19.9320 C   0  0  0  0  0  0  0  0  0  0  0  0
  -23.1840  -30.5770   21.5970 C   0  0  0  0  0  3  0  0  0  0  0  0
  -24.5410  -29.0370   20.0780 C   0  0  0  0  0  0  0  0  0  0  0  0
  -25.7120  -30.8740   21.2980 C   0  0  0  0  0  2  0  0  0  0  0  0
  -25.7400  -29.5110   20.6240 C   0  0  0  0  0  0  0  0  0  0  0  0
  -26.9150  -28.7150   20.5490 C   0  0  0  0  0  3  0  0  0  0  0  0
  -25.6650  -26.9860   19.3940 C   0  0  0  0  0  3  0  0  0  0  0  0
  -24.5020  -27.7770   19.4610 C   0  0  0  0  0  3  0  0  0  0  0  0
  -23.3200  -29.9230   20.1960 C   0  0  0  0  0  2  0  0  0  0  0  0
  -24.4820  -31.1400   22.0910 N   0  0  0  0  0  0  0  0  0  0  0  0
  -23.4330  -32.2080   23.7960 O   0  0  0  0  0  0  0  0  0  0  0  0
  -22.5540  -29.5490   22.5670 C   0  0  0  0  0  0  0  0  0  0  0  0
  -21.2330  -29.3370   22.4440 N   0  0  0  0  0  0  0  0  0  0  0  0
  -23.2520  -28.9480   23.3880 O   0  0  0  0  0  0  0  0  0  0  0  0
  -20.7300  -29.8750   21.7540 H   0  0  0  0  0  0  0  0  0  0  0  0
  -17.8990  -28.0240   22.9160 C   0  0  0  0  0  0  0  0  0  0  0  0
  -20.4390  -28.3870   23.2250 C   0  0  0  0  0  3  0  0  0  0  0  0
  -20.6070  -26.9470   22.6860 C   0  0  0  0  0  2  0  0  0  0  0  0
  -19.5360  -26.5580   21.6620 C   0  0  0  0  0  2  0  0  0  0  0  0
  -18.1390  -26.6670   22.2790 C   0  0  0  0  0  2  0  0  0  0  0  0
  -18.9800  -28.8380   23.3470 C   0  0  0  0  0  0  0  0  0  0  0  0
  -18.7030  -30.1070   23.9020 C   0  0  0  0  0  3  0  0  0  0  0  0
  -17.3760  -30.5610   24.0330 C   0  0  0  0  0  3  0  0  0  0  0  0
  -16.3100  -29.7440   23.6210 C   0  0  0  0  0  3  0  0  0  0  0  0
  -16.5720  -28.4780   23.0690 C   0  0  0  0  0  3  0  0  0  0  0  0
  -25.8070  -32.5250   23.7790 C   0  0  0  0  0  3  0  0  0  0  0  0
  -25.5390  -33.9240   24.1380 N   0  0  0  0  0  0  0  0  0  0  0  0
  -25.8740  -34.9810   23.3850 C   0  0  0  0  0  0  0  0  0  0  0  0
  -26.5120  -34.8780   22.3330 O   0  0  0  0  0  0  0  0  0  0  0  0
  -24.9720  -34.0800   24.9580 H   0  0  0  0  0  0  0  0  0  0  0  0
  -24.1870  -36.8240   23.0970 C   0  0  0  0  0  1  0  0  0  0  0  0
  -25.4320  -36.3730   23.8770 C   0  0  0  0  0  3  0  0  0  0  0  0
  -27.5980  -37.1940   24.6910 C   0  0  0  0  0  1  0  0  0  0  0  0
  -26.4890  -37.4010   23.7630 N   0  0  0  0  0  0  0  0  0  0  0  0
  -26.1080  -38.3290   23.9270 H   0  0  0  0  0  0  0  0  0  0  0  0
  -26.3620  -31.7280   25.0230 C   0  0  1  0  0  0  0  0  0  0  0  0
  -25.3100  -31.4920   26.1310 C   0  0  0  0  0  1  0  0  0  0  0  0
  -26.9080  -30.3470   24.5890 C   0  0  0  0  0  1  0  0  0  0  0  0
  -27.5510  -32.4960   25.6480 C   0  0  0  0  0  1  0  0  0  0  0  0
  2  1  1  0
  2 54  1  0
  3  2  2  0
  4  7  2  0
  4  3  1  0
  5  8  1  0
  5  1  2  0
  6  4  1  0
  7  5  1  0
  8  9  1  0
 10 23  1  0
 11 16  1  0
 12 13  1  0
 12 11  1  0
 14 13  1  0
 14 27  1  0
 14 15  1  0
 16 10  1  0
 16 15  1  0
 17 10  2  0
 19 22  1  0
 20 18  1  0
 21 19  1  0
 21 23  1  0
 22  8  1  0
 22 18  1  0
 23 20  1  0
 24 25  2  0
 25 44  1  0
 26 25  1  0
 26 29  1  0
 27 28  1  0
 27 24  1  0
 28 26  2  0
 29 30  1  0
 30 31  2  0
 32 35  1  0
 32 31  1  0
 33 32  2  0
 34 33  1  0
 34 29  2  0
 35 36  1  0
 36 41  2  0
 36 37  1  0
 37 38  2  0
 38 39  1  0
 39 43  1  0
 40 39  2  0
 41 40  1  0
 42 41  1  0
 44 45  1  0
 45 48  1  0
 45 47  1  0
 46 44  2  0
 49 24  1  0
 49 50  1  0
 51 49  1  0
 52 54  1  0
 54 53  1  0
 55  3  1  0
 55 56  1  0
 56 58  1  0
 57 68  2  0
 58 63  1  0
 59 67  1  0
 59 69  1  0
 60 66  1  0
 60 62  1  0
 61 67  1  0
 62 61  1  0
 63 62  2  0
 64 65  1  0
 64 58  2  0
 65 60  2  0
 66 59  1  0
 67 57  1  0
 69 71  2  0
 70 69  1  0
 72 70  1  0
 73 82  2  0
 73 78  1  0
 74 70  1  0
 74 78  1  0
 75 74  1  0
 76 77  1  0
 76 75  1  0
 77 73  1  0
 78 79  2  0
 79 80  1  0
 81 80  2  0
 82 81  1  0
 83 57  1  0
 83 84  1  0
 83 93  1  0
 84 87  1  0
 85 89  1  0
 85 84  1  0
 86 85  2  0
 89 88  1  0
 91 89  1  0
 91 92  1  0
 91 90  1  0
 93 96  1  1
 93 94  1  0
 95 93  1  0
M  ISO  4  10 100  23 100  55 101  56 101
M  END
>  <TORSDO>  (55) 
F 18

>  <SCORE>  (55) 
-13.771

>  <name>  (55) 
56

>  <ligand_id>  (55) 
56

>  <original_smiles>  (55) 
[H]c1c([H])c([H])c2c(c1[H])C([H])([H])C([H])([H])C([H])([H])C2([H])N([H])C(=O)C1([H])N(C(=O)C([H])(N([H])C(=O)C([H])(N([H])C([H])([H])[H])C([H])([H])[H])C(C([H])([H])[H])(C([H])([H])[H])C([H])([H])[H])C([H])([H])c2c([H])c(OC([H])([H])c3c(C([H])([H])[H])nc(N([H])C4([H])C([H])([H])C([H])([H])N(C(=O)N5C([H])([H])C([H])([H])C([H])([H])C([H])(n6nc(-c7c([H])c([H])c(Oc8c([H])c([H])c(F)c([H])c8F)c([H])c7[H])c(C(=O)N([H])[H])c6N([H])[H])C5([H])[H])C([H])([H])C4([H])[H])c([H])c3C([H])(C([H])([H])[H])C([H])([H])[H])c([H])c([H])c2C1([H])[H]

>  <smiles>  (55) 
[H]c1c([H])c([H])c2c(c1[H])C([H])([H])C([H])([H])C([H])([H])C2([H])N([H])C(=O)C1([H])N(C(=O)C([H])(N([H])C(=O)C([H])(N([H])C([H])([H])[H])C([H])([H])[H])C(C([H])([H])[H])(C([H])([H])[H])C([H])([H])[H])C([H])([H])c2c([H])c(OC([H])([H])c3c(C([H])([H])[H])nc(N([H])C4([H])C([H])([H])C([H])([H])N(C(=O)N5C([H])([H])C([H])([H])C([H])([H])C([H])(n6nc(-c7c([H])c([H])c(Oc8c([H])c([H])c(F)c([H])c8F)c([H])c7[H])c(C(=O)N([H])[H])c6N([H])[H])C5([H])[H])C([H])([H])C4([H])[H])c([H])c3C([H])(C([H])([H])[H])C([H])([H])[H])c([H])c([H])c2C1([H])[H]

$$$$
57:0:0
     RDKit          3D

 97106  0  0  1  0  0  0  0  0999 V2000
  -27.2560  -23.5220   19.9850 C   0  0  0  0  0  3  0  0  0  0  0  0
  -28.6120  -23.7890   19.7770 C   0  0  0  0  0  0  0  0  0  0  0  0
  -29.4580  -22.5930   19.6550 C   0  0  0  0  0  0  0  0  0  0  0  0
  -28.9160  -21.2180   19.6320 C   0  0  0  0  0  0  0  0  0  0  0  0
  -27.4920  -21.1930   19.7740 C   0  0  0  0  0  0  0  0  0  0  0  0
  -26.6320  -19.9460   19.7210 C   0  0  0  0  0  1  0  0  0  0  0  0
  -26.7280  -22.2870   19.9780 N   0  0  0  0  0  0  0  0  0  0  0  0
  -29.7500  -20.0090   19.4760 N   0  0  0  0  0  0  0  0  0  0  0  0
  -30.7500  -20.1810   19.4870 H   0  0  0  0  0  0  0  0  0  0  0  0
  -31.0780  -14.9230   19.7300 C   0  0  0  0  0  0  0  0  0  0  0  0
  -30.8850  -12.5660   18.8910 C   0  0  0  0  0  2  0  0  0  0  0  0
  -29.8620  -12.5260   17.7370 C   0  0  0  0  0  2  0  0  0  0  0  0
  -28.4260  -12.3640   18.2730 C   0  0  0  0  0  2  0  0  0  0  0  0
  -28.1180  -13.3090   19.4670 C   0  0  0  0  0  3  0  0  0  0  0  0
  -29.2580  -13.2870   20.5050 C   0  0  0  0  0  2  0  0  0  0  0  0
  -30.4860  -13.6710   19.7980 N   0  0  0  0  0  0  0  0  0  0  0  0
  -32.2190  -15.0060   19.2560 O   0  0  0  0  0  0  0  0  0  0  0  0
  -29.4740  -18.0080   21.1070 C   0  0  0  0  0  2  0  0  0  0  0  0
  -29.5050  -16.4600   21.0230 C   0  0  0  0  0  2  0  0  0  0  0  0
  -30.4720  -17.4050   19.1070 C   0  0  0  0  0  2  0  0  0  0  0  0
  -29.4550  -18.5140   19.6570 C   0  0  0  0  0  3  0  0  0  0  0  0
  -30.2910  -16.0820   19.8410 N   0  0  0  0  0  0  0  0  0  0  0  0
  -25.8300  -13.9250   20.4490 C   0  0  0  0  0  0  0  0  0  0  0  0
  -24.7790  -13.1650   20.8780 C   0  0  0  0  0  0  0  0  0  0  0  0
  -25.1870  -11.8040   20.7200 C   0  0  0  0  0  0  0  0  0  0  0  0
  -26.8160  -13.0310   20.0650 N   0  0  0  0  0  0  0  0  0  0  0  0
  -26.4410  -11.7460   20.2870 N   0  0  0  0  0  0  0  0  0  0  0  0
  -24.4360  -10.5570   20.9110 C   0  0  0  0  0  0  0  0  0  0  0  0
  -24.8060   -9.6140   21.8970 C   0  0  0  0  0  3  0  0  0  0  0  0
  -24.0580   -8.4290   22.0730 C   0  0  0  0  0  3  0  0  0  0  0  0
  -22.9260   -8.1770   21.2640 C   0  0  0  0  0  0  0  0  0  0  0  0
  -22.5750   -9.1060   20.2690 C   0  0  0  0  0  3  0  0  0  0  0  0
  -23.3220  -10.2830   20.0910 C   0  0  0  0  0  3  0  0  0  0  0  0
  -22.1590   -7.0410   21.3460 O   0  0  0  0  0  0  0  0  0  0  0  0
  -21.8800   -6.4460   22.5510 C   0  0  0  0  0  0  0  0  0  0  0  0
  -21.2230   -7.1400   23.5900 C   0  0  0  0  0  3  0  0  0  0  0  0
  -20.8920   -6.4700   24.7840 C   0  0  0  0  0  3  0  0  0  0  0  0
  -21.2070   -5.1070   24.9390 C   0  0  0  0  0  0  0  0  0  0  0  0
  -21.8590   -4.4140   23.9050 C   0  0  0  0  0  3  0  0  0  0  0  0
  -22.1930   -5.0810   22.7130 C   0  0  0  0  0  0  0  0  0  0  0  0
  -22.8010   -4.4010   21.7110 F   0  0  0  0  0  0  0  0  0  0  0  0
  -20.8820   -4.4620   26.0830 F   0  0  0  0  0  0  0  0  0  0  0  0
  -23.4300  -13.6650   21.3100 C   0  0  0  0  0  0  0  0  0  0  0  0
  -22.7770  -12.9580   22.2250 N   0  0  0  0  0  0  0  0  0  0  0  0
  -22.9700  -14.7190   20.8740 O   0  0  0  0  0  0  0  0  0  0  0  0
  -23.1660  -12.1060   22.6040 H   0  0  0  0  0  0  0  0  0  0  0  0
  -21.8760  -13.2740   22.5500 H   0  0  0  0  0  0  0  0  0  0  0  0
  -26.0210  -15.2990   20.3250 N   0  0  0  0  0  0  0  0  0  0  0  0
  -25.2910  -15.9700   20.5360 H   0  0  0  0  0  0  0  0  0  0  0  0
  -26.8400  -15.7220   19.9070 H   0  0  0  0  0  0  0  0  0  0  0  0
  -30.9660  -22.7790   19.5330 C   0  0  0  0  0  2  0  0  0  0  0  0
  -31.3980  -22.6830   18.1340 N   0  0  0  0  0  4  0  0  0  0  0  0
  -31.0560  -21.8220   17.7450 H   0  0  0  0  0  0  0  0  0  0  0  0
  -32.4010  -22.6960   18.0910 H   0  0  0  0  0  0  0  0  0  0  0  0
  -31.0330  -23.4490   17.5990 H   0  0  0  0  0  0  0  0  0  0  0  0
  -28.9990  -25.3170   19.4710 C   0  0  0  0  0  2  0  0  0  0  0  0
  -28.6540  -26.4890   20.3400 O   0  0  0  0  0  0  0  0  0  0  0  0
  -24.6400  -31.7190   23.3240 C   0  0  0  0  0  0  0  0  0  0  0  0
  -27.5230  -27.3260   20.2020 C   0  0  0  0  0  0  0  0  0  0  0  0
  -23.5620  -30.3570   21.5690 C   0  0  0  0  0  3  0  0  0  0  0  0
  -25.1210  -28.9030   20.1480 C   0  0  0  0  0  0  0  0  0  0  0  0
  -26.0990  -30.7390   21.5290 C   0  0  0  0  0  2  0  0  0  0  0  0
  -26.2470  -29.3900   20.8240 C   0  0  0  0  0  0  0  0  0  0  0  0
  -27.4480  -28.6110   20.8400 C   0  0  0  0  0  3  0  0  0  0  0  0
  -26.3780  -26.9110   19.4850 C   0  0  0  0  0  3  0  0  0  0  0  0
  -25.1940  -27.6790   19.4640 C   0  0  0  0  0  3  0  0  0  0  0  0
  -23.8600  -29.7440   20.1740 C   0  0  0  0  0  2  0  0  0  0  0  0
  -24.7830  -30.9570   22.1980 N   0  0  0  0  0  0  0  0  0  0  0  0
  -23.5240  -31.9470   23.8150 O   0  0  0  0  0  0  0  0  0  0  0  0
  -22.8760  -29.2900   22.4560 C   0  0  0  0  0  0  0  0  0  0  0  0
  -21.5540  -29.1100   22.2830 N   0  0  0  0  0  0  0  0  0  0  0  0
  -23.5350  -28.6320   23.2630 O   0  0  0  0  0  0  0  0  0  0  0  0
  -21.0750  -29.7010   21.6190 H   0  0  0  0  0  0  0  0  0  0  0  0
  -18.1670  -27.8960   22.6670 C   0  0  0  0  0  0  0  0  0  0  0  0
  -20.7230  -28.1230   22.9810 C   0  0  0  0  0  3  0  0  0  0  0  0
  -20.8240  -26.7350   22.3050 C   0  0  0  0  0  2  0  0  0  0  0  0
  -19.7310  -26.4910   21.2600 C   0  0  0  0  0  2  0  0  0  0  0  0
  -18.3440  -26.5980   21.8970 C   0  0  0  0  0  2  0  0  0  0  0  0
  -19.2830  -28.6210   23.1610 C   0  0  0  0  0  0  0  0  0  0  0  0
  -19.0630  -29.8400   23.8370 C   0  0  0  0  0  3  0  0  0  0  0  0
  -17.7580  -30.3360   24.0230 C   0  0  0  0  0  3  0  0  0  0  0  0
  -16.6560  -29.6080   23.5460 C   0  0  0  0  0  3  0  0  0  0  0  0
  -16.8610  -28.3880   22.8760 C   0  0  0  0  0  3  0  0  0  0  0  0
  -25.8690  -32.3620   24.0320 C   0  0  0  0  0  3  0  0  0  0  0  0
  -26.2940  -31.6010   25.3470 C   0  0  1  0  0  0  0  0  0  0  0  0
  -25.1250  -31.3560   26.3300 C   0  0  0  0  0  1  0  0  0  0  0  0
  -26.9180  -30.2260   25.0140 C   0  0  0  0  0  1  0  0  0  0  0  0
  -27.3860  -32.4100   26.0890 C   0  0  0  0  0  1  0  0  0  0  0  0
  -25.5300  -33.7620   24.3330 N   0  0  0  0  0  0  0  0  0  0  0  0
  -25.9140  -34.8140   23.5950 C   0  0  0  0  0  0  0  0  0  0  0  0
  -26.6540  -34.7070   22.6150 O   0  0  0  0  0  0  0  0  0  0  0  0
  -24.8780  -33.9190   25.0860 H   0  0  0  0  0  0  0  0  0  0  0  0
  -24.2080  -36.6020   23.1240 C   0  0  0  0  0  1  0  0  0  0  0  0
  -25.3960  -36.2040   24.0130 C   0  0  0  0  0  3  0  0  0  0  0  0
  -27.4700  -37.1060   24.9800 C   0  0  0  0  0  1  0  0  0  0  0  0
  -26.4340  -37.2570   23.9610 N   0  0  0  0  0  0  0  0  0  0  0  0
  -26.0170  -38.1780   24.0700 H   0  0  0  0  0  0  0  0  0  0  0  0
  2  1  2  0
  3  2  1  0
  4  3  2  0
  4  5  1  0
  5  7  2  0
  6  5  1  0
  7  1  1  0
  8  9  1  0
  8  4  1  0
 10 16  1  0
 10 22  1  0
 11 16  1  0
 12 13  1  0
 12 11  1  0
 14 13  1  0
 14 26  1  0
 14 15  1  0
 16 15  1  0
 17 10  2  0
 19 18  1  0
 20 21  1  0
 20 22  1  0
 21  8  1  0
 21 18  1  0
 22 19  1  0
 23 24  2  0
 24 43  1  0
 25 24  1  0
 25 28  1  0
 26 27  1  0
 26 23  1  0
 27 25  2  0
 28 29  1  0
 29 30  2  0
 31 34  1  0
 31 30  1  0
 32 31  2  0
 33 32  1  0
 33 28  2  0
 34 35  1  0
 35 40  2  0
 35 36  1  0
 36 37  2  0
 37 38  1  0
 38 42  1  0
 39 38  2  0
 40 39  1  0
 41 40  1  0
 43 44  1  0
 44 47  1  0
 44 46  1  0
 45 43  2  0
 48 23  1  0
 48 49  1  0
 50 48  1  0
 51  3  1  0
 52 51  1  0
 53 52  1  0
 54 52  1  0
 55 52  1  0
 56  2  1  0
 56 57  1  0
 58 69  2  0
 59 57  1  0
 59 64  1  0
 60 68  1  0
 60 70  1  0
 61 67  1  0
 61 63  1  0
 62 68  1  0
 63 64  2  0
 63 62  1  0
 65 59  2  0
 66 65  1  0
 66 61  2  0
 67 60  1  0
 68 58  1  0
 70 72  2  0
 71 70  1  0
 73 71  1  0
 74 83  2  0
 74 79  1  0
 75 71  1  0
 75 79  1  0
 76 75  1  0
 77 78  1  0
 77 76  1  0
 78 74  1  0
 79 80  2  0
 80 81  1  0
 82 81  2  0
 83 82  1  0
 84 58  1  0
 84 89  1  0
 84 85  1  0
 85 88  1  1
 85 86  1  0
 87 85  1  0
 89 92  1  0
 90 94  1  0
 90 89  1  0
 91 90  2  0
 94 93  1  0
 96 94  1  0
 96 97  1  0
 96 95  1  0
M  ISO  4  10 100  22 100  56 101  57 101
M  END
>  <TORSDO>  (56) 
F 20

>  <SCORE>  (56) 
-12.217

>  <name>  (56) 
57

>  <ligand_id>  (56) 
57

>  <original_smiles>  (56) 
[H]c1nc(C([H])([H])[H])c(N([H])C2([H])C([H])([H])N(C(=O)N3C([H])([H])C([H])([H])C([H])([H])C([H])(n4nc(-c5c([H])c([H])c(Oc6c([H])c([H])c(F)c([H])c6F)c([H])c5[H])c(C(=O)N([H])[H])c4N([H])[H])C3([H])[H])C([H])([H])C2([H])[H])c(C([H])([H])[N+]([H])([H])[H])c1C([H])([H])Oc1c([H])c([H])c2c(c1[H])C([H])([H])N(C(=O)C([H])(N([H])C(=O)C([H])(N([H])C([H])([H])[H])C([H])([H])[H])C(C([H])([H])[H])(C([H])([H])[H])C([H])([H])[H])C([H])(C(=O)N([H])C1([H])c3c([H])c([H])c([H])c([H])c3C([H])([H])C([H])([H])C1([H])[H])C2([H])[H]

>  <smiles>  (56) 
[H]c1nc(C([H])([H])[H])c(N([H])C2([H])C([H])([H])N(C(=O)N3C([H])([H])C([H])([H])C([H])([H])C([H])(n4nc(-c5c([H])c([H])c(Oc6c([H])c([H])c(F)c([H])c6F)c([H])c5[H])c(C(=O)N([H])[H])c4N([H])[H])C3([H])[H])C([H])([H])C2([H])[H])c(C([H])([H])[N+]([H])([H])[H])c1C([H])([H])Oc1c([H])c([H])c2c(c1[H])C([H])([H])N(C(=O)C([H])(N([H])C(=O)C([H])(N([H])C([H])([H])[H])C([H])([H])[H])C(C([H])([H])[H])(C([H])([H])[H])C([H])([H])[H])C([H])(C(=O)N([H])C1([H])c3c([H])c([H])c([H])c([H])c3C([H])([H])C([H])([H])C1([H])[H])C2([H])[H]

$$$$
58:0:0
     RDKit          3D

 96105  0  0  1  0  0  0  0  0999 V2000
  -30.0460  -22.5340   21.4040 C   0  0  0  0  0  3  0  0  0  0  0  0
  -29.7360  -23.8620   21.0100 C   0  0  0  0  0  0  0  0  0  0  0  0
  -28.8460  -24.0790   19.9250 C   0  0  0  0  0  0  0  0  0  0  0  0
  -29.4960  -21.4280   20.7250 C   0  0  0  0  0  0  0  0  0  0  0  0
  -28.3260  -22.8940   19.3220 C   0  0  0  0  0  0  0  0  0  0  0  0
  -30.4040  -25.0170   21.7350 C   0  0  0  0  0  1  0  0  0  0  0  0
  -28.6310  -21.6230   19.7040 N   0  0  0  0  0  0  0  0  0  0  0  0
  -29.8890  -20.1210   21.1230 N   0  0  0  0  0  0  0  0  0  0  0  0
  -30.5430  -20.0830   21.8980 H   0  0  0  0  0  0  0  0  0  0  0  0
  -30.6790  -14.6580   20.0460 C   0  0  0  0  0  0  0  0  0  0  0  0
  -30.3580  -12.4710   18.9270 C   0  0  0  0  0  2  0  0  0  0  0  0
  -29.3480  -12.6480   17.7730 C   0  0  0  0  0  2  0  0  0  0  0  0
  -27.9020  -12.4840   18.2830 C   0  0  0  0  0  2  0  0  0  0  0  0
  -27.6230  -13.3010   19.5740 C   0  0  0  0  0  3  0  0  0  0  0  0
  -28.7460  -13.1010   20.6140 C   0  0  0  0  0  2  0  0  0  0  0  0
  -30.0130  -13.4620   19.9650 N   0  0  0  0  0  0  0  0  0  0  0  0
  -31.8310  -14.7610   19.6100 O   0  0  0  0  0  0  0  0  0  0  0  0
  -29.5100  -17.7310   21.7490 C   0  0  0  0  0  2  0  0  0  0  0  0
  -30.2970  -18.2520   19.4720 C   0  0  0  0  0  2  0  0  0  0  0  0
  -29.1750  -16.2660   21.3210 C   0  0  0  0  0  2  0  0  0  0  0  0
  -29.9010  -16.8070   19.0390 C   0  0  0  0  0  2  0  0  0  0  0  0
  -29.4290  -18.8010   20.6260 C   0  0  0  0  0  3  0  0  0  0  0  0
  -29.9060  -15.7950   20.1250 N   0  0  0  0  0  0  0  0  0  0  0  0
  -25.2760  -13.8710   20.4530 C   0  0  0  0  0  0  0  0  0  0  0  0
  -24.2350  -13.0830   20.8610 C   0  0  0  0  0  0  0  0  0  0  0  0
  -24.6970  -11.7350   20.7600 C   0  0  0  0  0  0  0  0  0  0  0  0
  -26.3070  -13.0020   20.1290 N   0  0  0  0  0  0  0  0  0  0  0  0
  -25.9660  -11.7100   20.3730 N   0  0  0  0  0  0  0  0  0  0  0  0
  -23.9850  -10.4650   20.9540 C   0  0  0  0  0  0  0  0  0  0  0  0
  -24.4360   -9.4990   21.8800 C   0  0  0  0  0  3  0  0  0  0  0  0
  -23.7240   -8.2930   22.0610 C   0  0  0  0  0  3  0  0  0  0  0  0
  -22.5460   -8.0460   21.3150 C   0  0  0  0  0  0  0  0  0  0  0  0
  -22.1130   -9.0010   20.3790 C   0  0  0  0  0  3  0  0  0  0  0  0
  -22.8270  -10.1980   20.1960 C   0  0  0  0  0  3  0  0  0  0  0  0
  -21.8040   -6.8930   21.4070 O   0  0  0  0  0  0  0  0  0  0  0  0
  -21.7120   -6.1870   22.5790 C   0  0  0  0  0  0  0  0  0  0  0  0
  -21.2150   -6.7700   23.7640 C   0  0  0  0  0  3  0  0  0  0  0  0
  -21.0720   -5.9900   24.9280 C   0  0  0  0  0  3  0  0  0  0  0  0
  -21.4170   -4.6250   24.9070 C   0  0  0  0  0  0  0  0  0  0  0  0
  -21.9090   -4.0400   23.7280 C   0  0  0  0  0  3  0  0  0  0  0  0
  -22.0530   -4.8190   22.5660 C   0  0  0  0  0  0  0  0  0  0  0  0
  -22.5060   -4.2460   21.4250 F   0  0  0  0  0  0  0  0  0  0  0  0
  -21.2740   -3.8720   26.0240 F   0  0  0  0  0  0  0  0  0  0  0  0
  -22.8560  -13.5470   21.2300 C   0  0  0  0  0  0  0  0  0  0  0  0
  -22.1840  -12.8250   22.1190 N   0  0  0  0  0  0  0  0  0  0  0  0
  -22.3850  -14.5860   20.7660 O   0  0  0  0  0  0  0  0  0  0  0  0
  -22.5780  -11.9840   22.5160 H   0  0  0  0  0  0  0  0  0  0  0  0
  -21.2610  -13.1170   22.4090 H   0  0  0  0  0  0  0  0  0  0  0  0
  -25.4260  -15.2460   20.3060 N   0  0  0  0  0  0  0  0  0  0  0  0
  -24.6650  -15.8930   20.4820 H   0  0  0  0  0  0  0  0  0  0  0  0
  -26.2510  -15.6960   19.9310 H   0  0  0  0  0  0  0  0  0  0  0  0
  -27.4670  -22.9390   18.2340 N   0  0  0  0  0  0  0  0  0  0  0  0
  -27.0850  -23.8040   17.8750 H   0  0  0  0  0  0  0  0  0  0  0  0
  -27.0640  -22.0900   17.8570 H   0  0  0  0  0  0  0  0  0  0  0  0
  -28.6110  -25.5020   19.3090 C   0  0  0  0  0  2  0  0  0  0  0  0
  -28.3980  -26.6490   20.1900 O   0  0  0  0  0  0  0  0  0  0  0  0
  -24.5910  -31.9060   23.2320 C   0  0  0  0  0  0  0  0  0  0  0  0
  -27.2290  -27.4080   20.1450 C   0  0  0  0  0  0  0  0  0  0  0  0
  -23.3870  -30.5040   21.5910 C   0  0  0  0  0  3  0  0  0  0  0  0
  -24.8380  -28.9670   20.1610 C   0  0  0  0  0  0  0  0  0  0  0  0
  -25.9180  -30.8470   21.3980 C   0  0  0  0  0  2  0  0  0  0  0  0
  -26.0020  -29.4740   20.7520 C   0  0  0  0  0  0  0  0  0  0  0  0
  -27.1950  -28.7020   20.7410 C   0  0  0  0  0  3  0  0  0  0  0  0
  -26.0300  -26.9260   19.5670 C   0  0  0  0  0  3  0  0  0  0  0  0
  -24.8510  -27.6950   19.5670 C   0  0  0  0  0  3  0  0  0  0  0  0
  -23.5970  -29.8300   20.2110 C   0  0  0  0  0  2  0  0  0  0  0  0
  -24.6500  -31.1030   22.1310 N   0  0  0  0  0  0  0  0  0  0  0  0
  -23.5070  -32.1770   23.7720 O   0  0  0  0  0  0  0  0  0  0  0  0
  -22.7340  -29.4820   22.5520 C   0  0  0  0  0  0  0  0  0  0  0  0
  -21.4110  -29.2890   22.4180 N   0  0  0  0  0  0  0  0  0  0  0  0
  -23.4170  -28.8640   23.3730 O   0  0  0  0  0  0  0  0  0  0  0  0
  -20.9210  -29.8400   21.7270 H   0  0  0  0  0  0  0  0  0  0  0  0
  -18.0460  -28.0590   22.8920 C   0  0  0  0  0  0  0  0  0  0  0  0
  -20.5970  -28.3470   23.1870 C   0  0  0  0  0  3  0  0  0  0  0  0
  -20.7220  -26.9140   22.6210 C   0  0  0  0  0  2  0  0  0  0  0  0
  -19.6340  -26.5720   21.5980 C   0  0  0  0  0  2  0  0  0  0  0  0
  -18.2440  -26.7060   22.2270 C   0  0  0  0  0  2  0  0  0  0  0  0
  -19.1510  -28.8360   23.3280 C   0  0  0  0  0  0  0  0  0  0  0  0
  -18.9130  -30.1010   23.9080 C   0  0  0  0  0  3  0  0  0  0  0  0
  -17.6010  -30.5880   24.0580 C   0  0  0  0  0  3  0  0  0  0  0  0
  -16.5090  -29.8090   23.6390 C   0  0  0  0  0  3  0  0  0  0  0  0
  -16.7320  -28.5450   23.0620 C   0  0  0  0  0  3  0  0  0  0  0  0
  -25.8730  -32.5400   23.8520 C   0  0  0  0  0  3  0  0  0  0  0  0
  -25.5630  -33.9400   24.1750 N   0  0  0  0  0  0  0  0  0  0  0  0
  -25.8950  -34.9890   23.4110 C   0  0  0  0  0  0  0  0  0  0  0  0
  -26.5640  -34.8800   22.3800 O   0  0  0  0  0  0  0  0  0  0  0  0
  -24.9690  -34.0980   24.9760 H   0  0  0  0  0  0  0  0  0  0  0  0
  -24.1660  -36.7790   23.0480 C   0  0  0  0  0  1  0  0  0  0  0  0
  -25.4070  -36.3790   23.8610 C   0  0  0  0  0  3  0  0  0  0  0  0
  -27.5390  -37.2710   24.6910 C   0  0  0  0  0  1  0  0  0  0  0  0
  -26.4390  -37.4320   23.7430 N   0  0  0  0  0  0  0  0  0  0  0  0
  -26.0320  -38.3530   23.8830 H   0  0  0  0  0  0  0  0  0  0  0  0
  -26.3890  -31.7750   25.1330 C   0  0  1  0  0  0  0  0  0  0  0  0
  -25.2930  -31.5360   26.1980 C   0  0  0  0  0  1  0  0  0  0  0  0
  -26.9790  -30.3980   24.7460 C   0  0  0  0  0  1  0  0  0  0  0  0
  -27.5340  -32.5760   25.7960 C   0  0  0  0  0  1  0  0  0  0  0  0
  2  1  1  0
  2  6  1  0
  3  2  2  0
  4  8  1  0
  4  1  2  0
  5  7  2  0
  5  3  1  0
  7  4  1  0
  8  9  1  0
 10 23  1  0
 11 16  1  0
 12 13  1  0
 12 11  1  0
 14 13  1  0
 14 27  1  0
 14 15  1  0
 16 10  1  0
 16 15  1  0
 17 10  2  0
 19 22  1  0
 20 18  1  0
 21 19  1  0
 21 23  1  0
 22  8  1  0
 22 18  1  0
 23 20  1  0
 24 25  2  0
 25 44  1  0
 26 25  1  0
 26 29  1  0
 27 28  1  0
 27 24  1  0
 28 26  2  0
 29 30  1  0
 30 31  2  0
 32 35  1  0
 32 31  1  0
 33 32  2  0
 34 33  1  0
 34 29  2  0
 35 36  1  0
 36 37  1  0
 37 38  2  0
 39 38  1  0
 39 43  1  0
 40 39  2  0
 41 36  2  0
 41 40  1  0
 42 41  1  0
 44 45  1  0
 45 48  1  0
 45 47  1  0
 46 44  2  0
 49 24  1  0
 49 50  1  0
 51 49  1  0
 52  5  1  0
 53 52  1  0
 54 52  1  0
 55  3  1  0
 55 56  1  0
 57 68  2  0
 58 56  1  0
 58 63  1  0
 59 67  1  0
 59 69  1  0
 60 66  1  0
 60 62  1  0
 61 67  1  0
 62 61  1  0
 63 62  2  0
 64 65  1  0
 64 58  2  0
 65 60  2  0
 66 59  1  0
 67 57  1  0
 69 71  2  0
 70 69  1  0
 72 70  1  0
 73 82  2  0
 73 78  1  0
 74 70  1  0
 74 78  1  0
 75 74  1  0
 76 77  1  0
 76 75  1  0
 77 73  1  0
 78 79  2  0
 79 80  1  0
 81 80  2  0
 82 81  1  0
 83 57  1  0
 83 84  1  0
 83 93  1  0
 84 87  1  0
 85 89  1  0
 85 84  1  0
 86 85  2  0
 89 88  1  0
 91 89  1  0
 91 92  1  0
 91 90  1  0
 93 96  1  1
 93 94  1  0
 95 93  1  0
M  ISO  4  10 100  23 100  55 101  56 101
M  END
>  <TORSDO>  (57) 
F 18

>  <SCORE>  (57) 
-14.453

>  <name>  (57) 
58

>  <ligand_id>  (57) 
58

>  <original_smiles>  (57) 
[H]c1c([H])c([H])c2c(c1[H])C([H])([H])C([H])([H])C([H])([H])C2([H])N([H])C(=O)C1([H])N(C(=O)C([H])(N([H])C(=O)C([H])(N([H])C([H])([H])[H])C([H])([H])[H])C(C([H])([H])[H])(C([H])([H])[H])C([H])([H])[H])C([H])([H])c2c([H])c(OC([H])([H])c3c(N([H])[H])nc(N([H])C4([H])C([H])([H])C([H])([H])N(C(=O)N5C([H])([H])C([H])([H])C([H])([H])C([H])(n6nc(-c7c([H])c([H])c(Oc8c([H])c([H])c(F)c([H])c8F)c([H])c7[H])c(C(=O)N([H])[H])c6N([H])[H])C5([H])[H])C([H])([H])C4([H])[H])c([H])c3C([H])([H])[H])c([H])c([H])c2C1([H])[H]

>  <smiles>  (57) 
[H]c1c([H])c([H])c2c(c1[H])C([H])([H])C([H])([H])C([H])([H])C2([H])N([H])C(=O)C1([H])N(C(=O)C([H])(N([H])C(=O)C([H])(N([H])C([H])([H])[H])C([H])([H])[H])C(C([H])([H])[H])(C([H])([H])[H])C([H])([H])[H])C([H])([H])c2c([H])c(OC([H])([H])c3c(N([H])[H])nc(N([H])C4([H])C([H])([H])C([H])([H])N(C(=O)N5C([H])([H])C([H])([H])C([H])([H])C([H])(n6nc(-c7c([H])c([H])c(Oc8c([H])c([H])c(F)c([H])c8F)c([H])c7[H])c(C(=O)N([H])[H])c6N([H])[H])C5([H])[H])C([H])([H])C4([H])[H])c([H])c3C([H])([H])[H])c([H])c([H])c2C1([H])[H]

$$$$
59:0:0
     RDKit          3D

 94103  0  0  1  0  0  0  0  0999 V2000
  -30.0610  -22.5390   21.4110 C   0  0  0  0  0  3  0  0  0  0  0  0
  -29.7420  -23.8660   21.0210 C   0  0  0  0  0  0  0  0  0  0  0  0
  -28.8410  -24.0790   19.9460 C   0  0  0  0  0  0  0  0  0  0  0  0
  -28.3080  -22.8930   19.3490 C   0  0  0  0  0  0  0  0  0  0  0  0
  -29.5090  -21.4290   20.7400 C   0  0  0  0  0  0  0  0  0  0  0  0
  -30.4110  -25.0240   21.7390 C   0  0  0  0  0  1  0  0  0  0  0  0
  -27.3460  -22.9580   18.1780 C   0  0  0  0  0  1  0  0  0  0  0  0
  -28.6290  -21.6190   19.7350 N   0  0  0  0  0  0  0  0  0  0  0  0
  -29.9090  -20.1250   21.1340 N   0  0  0  0  0  0  0  0  0  0  0  0
  -30.5700  -20.0890   21.9010 H   0  0  0  0  0  0  0  0  0  0  0  0
  -30.7320  -14.6650   20.0470 C   0  0  0  0  0  0  0  0  0  0  0  0
  -30.4220  -12.4750   18.9310 C   0  0  0  0  0  2  0  0  0  0  0  0
  -29.4100  -12.6470   17.7770 C   0  0  0  0  0  2  0  0  0  0  0  0
  -27.9650  -12.4750   18.2890 C   0  0  0  0  0  2  0  0  0  0  0  0
  -27.6830  -13.2920   19.5780 C   0  0  0  0  0  3  0  0  0  0  0  0
  -28.8080  -13.0980   20.6180 C   0  0  0  0  0  2  0  0  0  0  0  0
  -30.0730  -13.4660   19.9680 N   0  0  0  0  0  0  0  0  0  0  0  0
  -31.8820  -14.7740   19.6100 O   0  0  0  0  0  0  0  0  0  0  0  0
  -29.5440  -17.7300   21.7560 C   0  0  0  0  0  2  0  0  0  0  0  0
  -30.3260  -18.2590   19.4800 C   0  0  0  0  0  2  0  0  0  0  0  0
  -29.2200  -16.2640   21.3260 C   0  0  0  0  0  2  0  0  0  0  0  0
  -29.9400  -16.8120   19.0440 C   0  0  0  0  0  2  0  0  0  0  0  0
  -29.4560  -18.8030   20.6340 C   0  0  0  0  0  3  0  0  0  0  0  0
  -29.9530  -15.7980   20.1300 N   0  0  0  0  0  0  0  0  0  0  0  0
  -25.3350  -13.8520   20.4600 C   0  0  0  0  0  0  0  0  0  0  0  0
  -24.2980  -13.0600   20.8700 C   0  0  0  0  0  0  0  0  0  0  0  0
  -24.7640  -11.7140   20.7680 C   0  0  0  0  0  0  0  0  0  0  0  0
  -26.3680  -12.9880   20.1350 N   0  0  0  0  0  0  0  0  0  0  0  0
  -26.0340  -11.6940   20.3790 N   0  0  0  0  0  0  0  0  0  0  0  0
  -24.0580  -10.4410   20.9620 C   0  0  0  0  0  0  0  0  0  0  0  0
  -24.5090   -9.4810   21.8940 C   0  0  0  0  0  3  0  0  0  0  0  0
  -23.8020   -8.2720   22.0750 C   0  0  0  0  0  3  0  0  0  0  0  0
  -22.6310   -8.0160   21.3230 C   0  0  0  0  0  0  0  0  0  0  0  0
  -22.2000   -8.9650   20.3800 C   0  0  0  0  0  3  0  0  0  0  0  0
  -22.9080  -10.1640   20.1970 C   0  0  0  0  0  3  0  0  0  0  0  0
  -21.8950   -6.8590   21.4140 O   0  0  0  0  0  0  0  0  0  0  0  0
  -21.7870   -6.1640   22.5920 C   0  0  0  0  0  0  0  0  0  0  0  0
  -21.2620   -6.7560   23.7610 C   0  0  0  0  0  3  0  0  0  0  0  0
  -21.1040   -5.9860   24.9300 C   0  0  0  0  0  3  0  0  0  0  0  0
  -21.4630   -4.6240   24.9320 C   0  0  0  0  0  0  0  0  0  0  0  0
  -21.9810   -4.0320   23.7660 C   0  0  0  0  0  3  0  0  0  0  0  0
  -22.1400   -4.8000   22.5990 C   0  0  0  0  0  0  0  0  0  0  0  0
  -22.6200   -4.2180   21.4730 F   0  0  0  0  0  0  0  0  0  0  0  0
  -21.3050   -3.8820   26.0520 F   0  0  0  0  0  0  0  0  0  0  0  0
  -22.9180  -13.5180   21.2420 C   0  0  0  0  0  0  0  0  0  0  0  0
  -22.2490  -12.7930   22.1310 N   0  0  0  0  0  0  0  0  0  0  0  0
  -22.4410  -14.5550   20.7800 O   0  0  0  0  0  0  0  0  0  0  0  0
  -22.6480  -11.9540   22.5280 H   0  0  0  0  0  0  0  0  0  0  0  0
  -21.3260  -13.0800   22.4230 H   0  0  0  0  0  0  0  0  0  0  0  0
  -25.4800  -15.2290   20.3150 N   0  0  0  0  0  0  0  0  0  0  0  0
  -24.7140  -15.8720   20.4900 H   0  0  0  0  0  0  0  0  0  0  0  0
  -26.3010  -15.6820   19.9390 H   0  0  0  0  0  0  0  0  0  0  0  0
  -28.5920  -25.4990   19.3280 C   0  0  0  0  0  2  0  0  0  0  0  0
  -28.3830  -26.6440   20.2080 O   0  0  0  0  0  0  0  0  0  0  0  0
  -24.5960  -31.9060   23.2660 C   0  0  0  0  0  0  0  0  0  0  0  0
  -27.2140  -27.4070   20.1660 C   0  0  0  0  0  0  0  0  0  0  0  0
  -23.3830  -30.5070   21.6310 C   0  0  0  0  0  3  0  0  0  0  0  0
  -24.8270  -28.9680   20.1930 C   0  0  0  0  0  0  0  0  0  0  0  0
  -25.9150  -30.8470   21.4260 C   0  0  0  0  0  2  0  0  0  0  0  0
  -25.9930  -29.4730   20.7790 C   0  0  0  0  0  0  0  0  0  0  0  0
  -27.1850  -28.6990   20.7630 C   0  0  0  0  0  3  0  0  0  0  0  0
  -26.0140  -26.9270   19.5900 C   0  0  0  0  0  3  0  0  0  0  0  0
  -24.8360  -27.6980   19.5960 C   0  0  0  0  0  3  0  0  0  0  0  0
  -23.5860  -29.8340   20.2480 C   0  0  0  0  0  2  0  0  0  0  0  0
  -24.6510  -31.1030   22.1650 N   0  0  0  0  0  0  0  0  0  0  0  0
  -23.5160  -32.1790   23.8100 O   0  0  0  0  0  0  0  0  0  0  0  0
  -22.7330  -29.4860   22.5920 C   0  0  0  0  0  0  0  0  0  0  0  0
  -21.4100  -29.2930   22.4610 N   0  0  0  0  0  0  0  0  0  0  0  0
  -23.4180  -28.8690   23.4130 O   0  0  0  0  0  0  0  0  0  0  0  0
  -20.9180  -29.8420   21.7710 H   0  0  0  0  0  0  0  0  0  0  0  0
  -18.0460  -28.0590   22.9410 C   0  0  0  0  0  0  0  0  0  0  0  0
  -20.5980  -28.3510   23.2330 C   0  0  0  0  0  3  0  0  0  0  0  0
  -20.7240  -26.9170   22.6690 C   0  0  0  0  0  2  0  0  0  0  0  0
  -19.6350  -26.5730   21.6480 C   0  0  0  0  0  2  0  0  0  0  0  0
  -18.2450  -26.7060   22.2790 C   0  0  0  0  0  2  0  0  0  0  0  0
  -19.1510  -28.8380   23.3740 C   0  0  0  0  0  0  0  0  0  0  0  0
  -18.9120  -30.1040   23.9530 C   0  0  0  0  0  3  0  0  0  0  0  0
  -17.6000  -30.5900   24.1020 C   0  0  0  0  0  3  0  0  0  0  0  0
  -16.5090  -29.8080   23.6860 C   0  0  0  0  0  3  0  0  0  0  0  0
  -16.7330  -28.5450   23.1100 C   0  0  0  0  0  3  0  0  0  0  0  0
  -25.8830  -32.5380   23.8820 C   0  0  0  0  0  3  0  0  0  0  0  0
  -25.5740  -33.9350   24.2140 N   0  0  0  0  0  0  0  0  0  0  0  0
  -25.9050  -34.9890   23.4560 C   0  0  0  0  0  0  0  0  0  0  0  0
  -26.5740  -34.8870   22.4240 O   0  0  0  0  0  0  0  0  0  0  0  0
  -24.9800  -34.0890   25.0160 H   0  0  0  0  0  0  0  0  0  0  0  0
  -24.1830  -36.7870   23.1000 C   0  0  0  0  0  1  0  0  0  0  0  0
  -25.4190  -36.3770   23.9160 C   0  0  0  0  0  3  0  0  0  0  0  0
  -27.5490  -37.2570   24.7650 C   0  0  0  0  0  1  0  0  0  0  0  0
  -26.4540  -37.4280   23.8130 N   0  0  0  0  0  0  0  0  0  0  0  0
  -26.0490  -38.3490   23.9580 H   0  0  0  0  0  0  0  0  0  0  0  0
  -26.4070  -31.7660   25.1550 C   0  0  1  0  0  0  0  0  0  0  0  0
  -25.3180  -31.5200   26.2250 C   0  0  0  0  0  1  0  0  0  0  0  0
  -26.9970  -30.3930   24.7560 C   0  0  0  0  0  1  0  0  0  0  0  0
  -27.5550  -32.5650   25.8150 C   0  0  0  0  0  1  0  0  0  0  0  0
  2  1  1  0
  2  6  1  0
  3  2  2  0
  4  8  2  0
  4  3  1  0
  5  9  1  0
  5  1  2  0
  7  4  1  0
  8  5  1  0
  9 10  1  0
 11 24  1  0
 12 17  1  0
 13 14  1  0
 13 12  1  0
 15 14  1  0
 15 28  1  0
 15 16  1  0
 17 11  1  0
 17 16  1  0
 18 11  2  0
 20 23  1  0
 21 19  1  0
 22 20  1  0
 22 24  1  0
 23  9  1  0
 23 19  1  0
 24 21  1  0
 25 26  2  0
 26 45  1  0
 27 26  1  0
 27 30  1  0
 28 29  1  0
 28 25  1  0
 29 27  2  0
 30 31  1  0
 31 32  2  0
 33 36  1  0
 33 32  1  0
 34 33  2  0
 35 34  1  0
 35 30  2  0
 36 37  1  0
 37 42  2  0
 37 38  1  0
 38 39  2  0
 39 40  1  0
 40 44  1  0
 41 40  2  0
 42 41  1  0
 43 42  1  0
 45 46  1  0
 46 49  1  0
 46 48  1  0
 47 45  2  0
 50 25  1  0
 50 51  1  0
 52 50  1  0
 53  3  1  0
 53 54  1  0
 55 66  2  0
 56 54  1  0
 56 61  1  0
 57 65  1  0
 57 67  1  0
 58 64  1  0
 58 60  1  0
 59 65  1  0
 60 59  1  0
 61 60  2  0
 62 63  1  0
 62 56  2  0
 63 58  2  0
 64 57  1  0
 65 55  1  0
 67 69  2  0
 68 67  1  0
 70 68  1  0
 71 80  2  0
 71 76  1  0
 72 68  1  0
 72 76  1  0
 73 72  1  0
 74 75  1  0
 74 73  1  0
 75 71  1  0
 76 77  2  0
 77 78  1  0
 79 78  2  0
 80 79  1  0
 81 55  1  0
 81 82  1  0
 81 91  1  0
 82 85  1  0
 83 87  1  0
 83 82  1  0
 84 83  2  0
 87 86  1  0
 89 87  1  0
 89 90  1  0
 89 88  1  0
 91 94  1  1
 91 92  1  0
 93 91  1  0
M  ISO  4  11 100  24 100  53 101  54 101
M  END
>  <TORSDO>  (58) 
F 17

>  <SCORE>  (58) 
-14.627

>  <name>  (58) 
59

>  <ligand_id>  (58) 
59

>  <original_smiles>  (58) 
[H]c1c([H])c([H])c2c(c1[H])C([H])([H])C([H])([H])C([H])([H])C2([H])N([H])C(=O)C1([H])N(C(=O)C([H])(N([H])C(=O)C([H])(N([H])C([H])([H])[H])C([H])([H])[H])C(C([H])([H])[H])(C([H])([H])[H])C([H])([H])[H])C([H])([H])c2c([H])c(OC([H])([H])c3c(C([H])([H])[H])nc(N([H])C4([H])C([H])([H])C([H])([H])N(C(=O)N5C([H])([H])C([H])([H])C([H])([H])C([H])(n6nc(-c7c([H])c([H])c(Oc8c([H])c([H])c(F)c([H])c8F)c([H])c7[H])c(C(=O)N([H])[H])c6N([H])[H])C5([H])[H])C([H])([H])C4([H])[H])c([H])c3C([H])([H])[H])c([H])c([H])c2C1([H])[H]

>  <smiles>  (58) 
[H]c1c([H])c([H])c2c(c1[H])C([H])([H])C([H])([H])C([H])([H])C2([H])N([H])C(=O)C1([H])N(C(=O)C([H])(N([H])C(=O)C([H])(N([H])C([H])([H])[H])C([H])([H])[H])C(C([H])([H])[H])(C([H])([H])[H])C([H])([H])[H])C([H])([H])c2c([H])c(OC([H])([H])c3c(C([H])([H])[H])nc(N([H])C4([H])C([H])([H])C([H])([H])N(C(=O)N5C([H])([H])C([H])([H])C([H])([H])C([H])(n6nc(-c7c([H])c([H])c(Oc8c([H])c([H])c(F)c([H])c8F)c([H])c7[H])c(C(=O)N([H])[H])c6N([H])[H])C5([H])[H])C([H])([H])C4([H])[H])c([H])c3C([H])([H])[H])c([H])c([H])c2C1([H])[H]

$$$$
60:0:0
     RDKit          3D

 88 96  0  0  1  0  0  0  0  0999 V2000
  -30.0300  -22.2600   19.5830 C   0  0  0  0  0  2  0  0  0  0  0  0
  -28.0970  -22.7600   20.6900 C   0  0  0  0  0  2  0  0  0  0  0  0
  -29.6570  -23.8150   19.3130 C   0  0  0  0  0  3  0  0  0  0  0  0
  -28.2670  -24.2810   19.9100 C   0  0  0  0  0  3  0  0  0  0  0  0
  -28.8060  -21.3660   19.9610 C   0  0  1  0  0  0  0  0  0  0  0  0
  -30.8070  -24.7180   19.7830 C   0  0  0  0  0  1  0  0  0  0  0  0
  -27.9930  -21.0960   18.6830 C   0  0  0  0  0  1  0  0  0  0  0  0
  -28.2140  -25.8830   20.3250 O   0  0  0  0  0  0  0  0  0  0  0  0
  -24.6260  -31.8440   23.1850 C   0  0  0  0  0  0  0  0  0  0  0  0
  -27.1830  -26.9530   20.2020 C   0  0  0  0  0  0  0  0  0  0  0  0
  -23.4330  -30.4410   21.5510 C   0  0  0  0  0  3  0  0  0  0  0  0
  -24.8820  -28.8270   20.1350 C   0  0  0  0  0  0  0  0  0  0  0  0
  -25.9980  -30.6510   21.4090 C   0  0  0  0  0  2  0  0  0  0  0  0
  -26.0660  -29.2380   20.7600 C   0  0  0  0  0  0  0  0  0  0  0  0
  -27.2070  -28.3190   20.7690 C   0  0  0  0  0  3  0  0  0  0  0  0
  -25.9730  -26.6890   19.5240 C   0  0  0  0  0  3  0  0  0  0  0  0
  -24.8600  -27.5740   19.4970 C   0  0  0  0  0  3  0  0  0  0  0  0
  -23.6630  -29.7490   20.1780 C   0  0  0  0  0  2  0  0  0  0  0  0
  -24.7060  -31.0060   22.1020 N   0  0  0  0  0  0  0  0  0  0  0  0
  -23.5360  -32.1390   23.7030 O   0  0  0  0  0  0  0  0  0  0  0  0
  -22.7350  -29.4530   22.5210 C   0  0  0  0  0  0  0  0  0  0  0  0
  -21.4040  -29.2970   22.4000 N   0  0  0  0  0  0  0  0  0  0  0  0
  -23.3980  -28.8260   23.3510 O   0  0  0  0  0  0  0  0  0  0  0  0
  -20.9220  -29.8520   21.7060 H   0  0  0  0  0  0  0  0  0  0  0  0
  -18.0160  -28.1060   22.9140 C   0  0  0  0  0  0  0  0  0  0  0  0
  -20.5770  -28.3660   23.1750 C   0  0  0  0  0  3  0  0  0  0  0  0
  -20.6740  -26.9310   22.6070 C   0  0  0  0  0  2  0  0  0  0  0  0
  -19.5710  -26.6080   21.5950 C   0  0  0  0  0  2  0  0  0  0  0  0
  -18.1890  -26.7550   22.2390 C   0  0  0  0  0  2  0  0  0  0  0  0
  -19.1370  -28.8690   23.3400 C   0  0  0  0  0  0  0  0  0  0  0  0
  -18.9180  -30.1300   23.9340 C   0  0  0  0  0  3  0  0  0  0  0  0
  -17.6130  -30.6300   24.1050 C   0  0  0  0  0  3  0  0  0  0  0  0
  -16.5080  -29.8650   23.6940 C   0  0  0  0  0  3  0  0  0  0  0  0
  -16.7100  -28.6050   23.1060 C   0  0  0  0  0  3  0  0  0  0  0  0
  -25.8970  -32.4880   23.8190 C   0  0  0  0  0  3  0  0  0  0  0  0
  -25.5790  -33.8890   24.1500 N   0  0  0  0  0  0  0  0  0  0  0  0
  -25.9110  -34.9500   23.4020 C   0  0  0  0  0  0  0  0  0  0  0  0
  -26.5790  -34.8520   22.3700 O   0  0  0  0  0  0  0  0  0  0  0  0
  -24.9850  -34.0370   24.9530 H   0  0  0  0  0  0  0  0  0  0  0  0
  -24.1800  -36.7500   23.0760 C   0  0  0  0  0  1  0  0  0  0  0  0
  -25.4290  -36.3390   23.8720 C   0  0  0  0  0  3  0  0  0  0  0  0
  -27.5700  -37.2230   24.6900 C   0  0  0  0  0  1  0  0  0  0  0  0
  -26.4600  -37.3920   23.7560 N   0  0  0  0  0  0  0  0  0  0  0  0
  -26.0550  -38.3120   23.9090 H   0  0  0  0  0  0  0  0  0  0  0  0
  -26.4010  -31.7270   25.1080 C   0  0  1  0  0  0  0  0  0  0  0  0
  -25.2990  -31.5040   26.1710 C   0  0  0  0  0  1  0  0  0  0  0  0
  -26.9820  -30.3430   24.7410 C   0  0  0  0  0  1  0  0  0  0  0  0
  -27.5490  -32.5230   25.7710 C   0  0  0  0  0  1  0  0  0  0  0  0
  -29.0800  -19.6950   20.6180 C   0  0  0  0  0  2  0  0  0  0  0  0
  -29.8060  -18.1650   19.9900 C   0  0  0  0  0  2  0  0  0  0  0  0
  -30.4040  -15.2760   20.2300 C   0  0  0  0  0  0  0  0  0  0  0  0
  -30.3640  -12.8330   19.3570 C   0  0  0  0  0  2  0  0  0  0  0  0
  -29.4390  -12.6530   18.1260 C   0  0  0  0  0  2  0  0  0  0  0  0
  -27.9910  -12.3890   18.5680 C   0  0  0  0  0  2  0  0  0  0  0  0
  -27.5520  -13.3420   19.7080 C   0  0  0  0  0  3  0  0  0  0  0  0
  -28.6040  -13.4720   20.8310 C   0  0  0  0  0  2  0  0  0  0  0  0
  -29.8380  -13.9690   20.2020 N   0  0  0  0  0  0  0  0  0  0  0  0
  -31.6080  -15.2820   19.9340 O   0  0  0  0  0  0  0  0  0  0  0  0
  -29.6470  -16.5440   20.3880 N   0  0  0  0  0  0  0  0  0  0  0  0
  -28.7020  -16.3360   20.6830 H   0  0  0  0  0  0  0  0  0  0  0  0
  -25.1820  -13.9000   20.4610 C   0  0  0  0  0  0  0  0  0  0  0  0
  -24.1220  -13.1230   20.8370 C   0  0  0  0  0  0  0  0  0  0  0  0
  -24.5910  -11.7730   20.8110 C   0  0  0  0  0  0  0  0  0  0  0  0
  -26.2250  -13.0250   20.2190 N   0  0  0  0  0  0  0  0  0  0  0  0
  -25.8830  -11.7400   20.4980 N   0  0  0  0  0  0  0  0  0  0  0  0
  -23.8650  -10.5110   21.0080 C   0  0  0  0  0  0  0  0  0  0  0  0
  -24.3000   -9.5460   21.9430 C   0  0  0  0  0  3  0  0  0  0  0  0
  -23.5700   -8.3510   22.1310 C   0  0  0  0  0  3  0  0  0  0  0  0
  -22.3930   -8.1120   21.3810 C   0  0  0  0  0  0  0  0  0  0  0  0
  -21.9780   -9.0670   20.4350 C   0  0  0  0  0  3  0  0  0  0  0  0
  -22.7080  -10.2520   20.2470 C   0  0  0  0  0  3  0  0  0  0  0  0
  -21.6370   -6.9690   21.4760 O   0  0  0  0  0  0  0  0  0  0  0  0
  -21.5950   -6.2290   22.6300 C   0  0  0  0  0  0  0  0  0  0  0  0
  -21.1830   -6.7860   23.8590 C   0  0  0  0  0  3  0  0  0  0  0  0
  -21.0870   -5.9720   25.0050 C   0  0  0  0  0  3  0  0  0  0  0  0
  -21.3930   -4.6010   24.9230 C   0  0  0  0  0  0  0  0  0  0  0  0
  -21.7990   -4.0420   23.6980 C   0  0  0  0  0  3  0  0  0  0  0  0
  -21.8970   -4.8530   22.5540 C   0  0  0  0  0  0  0  0  0  0  0  0
  -22.2660   -4.3060   21.3720 F   0  0  0  0  0  0  0  0  0  0  0  0
  -21.2950   -3.8160   26.0220 F   0  0  0  0  0  0  0  0  0  0  0  0
  -22.7250  -13.6000   21.1040 C   0  0  0  0  0  0  0  0  0  0  0  0
  -21.9970  -12.9090   21.9730 N   0  0  0  0  0  0  0  0  0  0  0  0
  -22.2880  -14.6220   20.5770 O   0  0  0  0  0  0  0  0  0  0  0  0
  -22.3640  -12.0830   22.4220 H   0  0  0  0  0  0  0  0  0  0  0  0
  -21.0590  -13.2120   22.1960 H   0  0  0  0  0  0  0  0  0  0  0  0
  -25.3400  -15.2700   20.2760 N   0  0  0  0  0  0  0  0  0  0  0  0
  -24.5670  -15.9190   20.3820 H   0  0  0  0  0  0  0  0  0  0  0  0
  -26.1720  -15.7060   19.9030 H   0  0  0  0  0  0  0  0  0  0  0  0
  1  5  1  0
  3  1  1  0
  3  6  1  0
  3  4  1  0
  4  8  1  0
  4  2  1  0
  5  7  1  6
  5 49  1  0
  5  2  1  0
  9 20  2  0
 10  8  1  0
 10 15  1  0
 11 19  1  0
 11 21  1  0
 12 18  1  0
 12 14  1  0
 13 19  1  0
 14 15  2  0
 14 13  1  0
 16 10  2  0
 17 16  1  0
 17 12  2  0
 18 11  1  0
 19  9  1  0
 21 23  2  0
 22 21  1  0
 24 22  1  0
 25 34  2  0
 25 30  1  0
 26 22  1  0
 26 30  1  0
 27 26  1  0
 28 29  1  0
 28 27  1  0
 29 25  1  0
 30 31  2  0
 31 32  1  0
 33 32  2  0
 34 33  1  0
 35  9  1  0
 35 36  1  0
 35 45  1  0
 36 39  1  0
 37 41  1  0
 37 36  1  0
 38 37  2  0
 41 40  1  0
 43 41  1  0
 43 44  1  0
 43 42  1  0
 45 48  1  1
 45 46  1  0
 47 45  1  0
 50 59  1  0
 50 49  1  0
 51 59  1  0
 52 57  1  0
 53 54  1  0
 53 52  1  0
 55 54  1  0
 55 64  1  0
 55 56  1  0
 57 51  1  0
 57 56  1  0
 58 51  2  0
 59 60  1  0
 61 62  2  0
 62 81  1  0
 63 62  1  0
 63 66  1  0
 64 61  1  0
 64 65  1  0
 65 63  2  0
 66 67  1  0
 67 68  2  0
 69 72  1  0
 69 68  1  0
 70 69  2  0
 71 70  1  0
 71 66  2  0
 72 73  1  0
 73 74  1  0
 74 75  2  0
 76 75  1  0
 76 80  1  0
 77 76  2  0
 78 73  2  0
 78 77  1  0
 79 78  1  0
 81 82  1  0
 82 85  1  0
 82 84  1  0
 83 81  2  0
 86 87  1  0
 86 61  1  0
 88 86  1  0
M  ISO  4   4 101   8 101  51 100  59 100
M  END
>  <TORSDO>  (59) 
F 18

>  <SCORE>  (59) 
-16.572

>  <name>  (59) 
60

>  <ligand_id>  (59) 
60

>  <original_smiles>  (59) 
[H]c1c([H])c([H])c2c(c1[H])C([H])([H])C([H])([H])C([H])([H])C2([H])N([H])C(=O)C1([H])N(C(=O)C([H])(N([H])C(=O)C([H])(N([H])C([H])([H])[H])C([H])([H])[H])C(C([H])([H])[H])(C([H])([H])[H])C([H])([H])[H])C([H])([H])c2c([H])c(OC3([H])C([H])([H])C(C([H])([H])[H])(C([H])([H])C([H])([H])N([H])C(=O)N4C([H])([H])C([H])([H])C([H])([H])C([H])(n5nc(-c6c([H])c([H])c(Oc7c([H])c([H])c(F)c([H])c7F)c([H])c6[H])c(C(=O)N([H])[H])c5N([H])[H])C4([H])[H])C([H])([H])C3([H])C([H])([H])[H])c([H])c([H])c2C1([H])[H]

>  <smiles>  (59) 
[H]c1c([H])c([H])c2c(c1[H])C([H])([H])C([H])([H])C([H])([H])C2([H])N([H])C(=O)C1([H])N(C(=O)C([H])(N([H])C(=O)C([H])(N([H])C([H])([H])[H])C([H])([H])[H])C(C([H])([H])[H])(C([H])([H])[H])C([H])([H])[H])C([H])([H])c2c([H])c(OC3([H])C([H])([H])C(C([H])([H])[H])(C([H])([H])C([H])([H])N([H])C(=O)N4C([H])([H])C([H])([H])C([H])([H])C([H])(n5nc(-c6c([H])c([H])c(Oc7c([H])c([H])c(F)c([H])c7F)c([H])c6[H])c(C(=O)N([H])[H])c5N([H])[H])C4([H])[H])C([H])([H])C3([H])C([H])([H])[H])c([H])c([H])c2C1([H])[H]

$$$$
61:0:0
     RDKit          3D

 94103  0  0  1  0  0  0  0  0999 V2000
  -29.9450  -21.5530   19.0810 C   0  0  0  0  0  3  0  0  0  0  0  0
  -28.6780  -22.6080   20.8460 C   0  0  0  0  0  0  0  0  0  0  0  0
  -28.8680  -23.8840   20.2000 C   0  0  0  0  0  0  0  0  0  0  0  0
  -29.2200  -21.3970   20.2820 C   0  0  0  0  0  0  0  0  0  0  0  0
  -29.6090  -23.8670   18.9920 C   0  0  0  0  0  0  0  0  0  0  0  0
  -27.8870  -22.5500   22.1490 C   0  0  0  0  0  1  0  0  0  0  0  0
  -29.8810  -25.1150   18.1740 C   0  0  0  0  0  1  0  0  0  0  0  0
  -30.1300  -22.7370   18.4610 N   0  0  0  0  0  0  0  0  0  0  0  0
  -29.0300  -20.1070   20.8780 N   0  0  0  0  0  0  0  0  0  0  0  0
  -28.5040  -20.0820   21.7460 H   0  0  0  0  0  0  0  0  0  0  0  0
  -30.7750  -14.5910   20.0220 C   0  0  0  0  0  0  0  0  0  0  0  0
  -30.3920  -12.4050   18.9240 C   0  0  0  0  0  2  0  0  0  0  0  0
  -29.3870  -12.5940   17.7700 C   0  0  0  0  0  2  0  0  0  0  0  0
  -27.9440  -12.4470   18.2870 C   0  0  0  0  0  2  0  0  0  0  0  0
  -27.6760  -13.2830   19.5690 C   0  0  0  0  0  3  0  0  0  0  0  0
  -28.8000  -13.1150   20.6120 C   0  0  0  0  0  2  0  0  0  0  0  0
  -30.0710  -13.4200   19.9450 N   0  0  0  0  0  0  0  0  0  0  0  0
  -31.9330  -14.6610   19.6000 O   0  0  0  0  0  0  0  0  0  0  0  0
  -29.0240  -17.9690   19.4800 C   0  0  0  0  0  2  0  0  0  0  0  0
  -29.9150  -17.9120   21.7440 C   0  0  0  0  0  2  0  0  0  0  0  0
  -29.7770  -16.6310   19.1670 C   0  0  0  0  0  2  0  0  0  0  0  0
  -30.6650  -16.5770   21.4260 C   0  0  0  0  0  2  0  0  0  0  0  0
  -29.7460  -18.8470   20.5240 C   0  0  0  0  0  3  0  0  0  0  0  0
  -30.0970  -15.7530   20.3290 N   0  0  0  0  0  0  0  0  0  0  0  0
  -25.3400  -13.8770   20.4510 C   0  0  0  0  0  0  0  0  0  0  0  0
  -24.2920  -13.1010   20.8630 C   0  0  0  0  0  0  0  0  0  0  0  0
  -24.7400  -11.7470   20.7730 C   0  0  0  0  0  0  0  0  0  0  0  0
  -26.3610  -12.9960   20.1330 N   0  0  0  0  0  0  0  0  0  0  0  0
  -26.0090  -11.7080   20.3860 N   0  0  0  0  0  0  0  0  0  0  0  0
  -24.0160  -10.4860   20.9750 C   0  0  0  0  0  0  0  0  0  0  0  0
  -24.4670   -9.5130   21.8940 C   0  0  0  0  0  3  0  0  0  0  0  0
  -23.7430   -8.3170   22.0850 C   0  0  0  0  0  3  0  0  0  0  0  0
  -22.5520   -8.0840   21.3560 C   0  0  0  0  0  0  0  0  0  0  0  0
  -22.1190   -9.0460   20.4250 C   0  0  0  0  0  3  0  0  0  0  0  0
  -22.8440  -10.2340   20.2330 C   0  0  0  0  0  3  0  0  0  0  0  0
  -21.7960   -6.9410   21.4560 O   0  0  0  0  0  0  0  0  0  0  0  0
  -21.7380   -6.2180   22.6200 C   0  0  0  0  0  0  0  0  0  0  0  0
  -21.2730   -6.7840   23.8270 C   0  0  0  0  0  3  0  0  0  0  0  0
  -21.1630   -5.9870   24.9840 C   0  0  0  0  0  3  0  0  0  0  0  0
  -21.5090   -4.6220   24.9340 C   0  0  0  0  0  0  0  0  0  0  0  0
  -21.9660   -4.0550   23.7310 C   0  0  0  0  0  3  0  0  0  0  0  0
  -22.0770   -4.8510   22.5770 C   0  0  0  0  0  0  0  0  0  0  0  0
  -22.4980   -4.2940   21.4160 F   0  0  0  0  0  0  0  0  0  0  0  0
  -21.3960   -3.8530   26.0420 F   0  0  0  0  0  0  0  0  0  0  0  0
  -22.9170  -13.5810   21.2310 C   0  0  0  0  0  0  0  0  0  0  0  0
  -22.2360  -12.8660   22.1190 N   0  0  0  0  0  0  0  0  0  0  0  0
  -22.4590  -14.6230   20.7660 O   0  0  0  0  0  0  0  0  0  0  0  0
  -22.6210  -12.0210   22.5150 H   0  0  0  0  0  0  0  0  0  0  0  0
  -21.3160  -13.1680   22.4080 H   0  0  0  0  0  0  0  0  0  0  0  0
  -25.5070  -15.2500   20.3000 N   0  0  0  0  0  0  0  0  0  0  0  0
  -24.7600  -15.9120   20.4830 H   0  0  0  0  0  0  0  0  0  0  0  0
  -26.3570  -15.6910   19.9690 H   0  0  0  0  0  0  0  0  0  0  0  0
  -28.2700  -25.1990   20.8280 C   0  0  0  0  0  2  0  0  0  0  0  0
  -28.4800  -26.5140   20.2070 O   0  0  0  0  0  0  0  0  0  0  0  0
  -24.6770  -31.8410   23.1970 C   0  0  0  0  0  0  0  0  0  0  0  0
  -27.3620  -27.3440   20.1700 C   0  0  0  0  0  0  0  0  0  0  0  0
  -23.4980  -30.4260   21.5510 C   0  0  0  0  0  3  0  0  0  0  0  0
  -24.9770  -28.8930   20.1370 C   0  0  0  0  0  0  0  0  0  0  0  0
  -26.0300  -30.7870   21.3780 C   0  0  0  0  0  2  0  0  0  0  0  0
  -26.1330  -29.4100   20.7370 C   0  0  0  0  0  0  0  0  0  0  0  0
  -27.3330  -28.6470   20.7430 C   0  0  0  0  0  3  0  0  0  0  0  0
  -26.1920  -26.8710   19.5420 C   0  0  0  0  0  3  0  0  0  0  0  0
  -25.0050  -27.6280   19.5300 C   0  0  0  0  0  3  0  0  0  0  0  0
  -23.7270  -29.7480   20.1740 C   0  0  0  0  0  2  0  0  0  0  0  0
  -24.7530  -31.0340   22.1000 N   0  0  0  0  0  0  0  0  0  0  0  0
  -23.5880  -32.1070   23.7260 O   0  0  0  0  0  0  0  0  0  0  0  0
  -22.8430  -29.4030   22.5090 C   0  0  0  0  0  0  0  0  0  0  0  0
  -21.5160  -29.2270   22.3860 N   0  0  0  0  0  0  0  0  0  0  0  0
  -23.5250  -28.7720   23.3190 O   0  0  0  0  0  0  0  0  0  0  0  0
  -21.0260  -29.7890   21.7050 H   0  0  0  0  0  0  0  0  0  0  0  0
  -18.1380  -28.0460   22.9020 C   0  0  0  0  0  0  0  0  0  0  0  0
  -20.7000  -28.2870   23.1550 C   0  0  0  0  0  3  0  0  0  0  0  0
  -20.7880  -26.8600   22.5650 C   0  0  0  0  0  2  0  0  0  0  0  0
  -19.6760  -26.5540   21.5570 C   0  0  0  0  0  2  0  0  0  0  0  0
  -18.3010  -26.7010   22.2140 C   0  0  0  0  0  2  0  0  0  0  0  0
  -19.2640  -28.7970   23.3300 C   0  0  0  0  0  0  0  0  0  0  0  0
  -19.0580  -30.0560   23.9350 C   0  0  0  0  0  3  0  0  0  0  0  0
  -17.7580  -30.5630   24.1160 C   0  0  0  0  0  3  0  0  0  0  0  0
  -16.6460  -29.8090   23.7050 C   0  0  0  0  0  3  0  0  0  0  0  0
  -16.8370  -28.5520   23.1040 C   0  0  0  0  0  3  0  0  0  0  0  0
  -25.9510  -32.4870   23.8280 C   0  0  0  0  0  3  0  0  0  0  0  0
  -25.6240  -33.8810   24.1580 N   0  0  0  0  0  0  0  0  0  0  0  0
  -25.9440  -34.9380   23.3990 C   0  0  0  0  0  0  0  0  0  0  0  0
  -26.6170  -34.8430   22.3690 O   0  0  0  0  0  0  0  0  0  0  0  0
  -25.0270  -34.0280   24.9580 H   0  0  0  0  0  0  0  0  0  0  0  0
  -24.1980  -36.7110   23.0420 C   0  0  0  0  0  1  0  0  0  0  0  0
  -25.4400  -36.3200   23.8570 C   0  0  0  0  0  3  0  0  0  0  0  0
  -27.5590  -37.2300   24.7000 C   0  0  0  0  0  1  0  0  0  0  0  0
  -26.4610  -37.3840   23.7490 N   0  0  0  0  0  0  0  0  0  0  0  0
  -26.0440  -38.3000   23.8930 H   0  0  0  0  0  0  0  0  0  0  0  0
  -26.4690  -31.7190   25.1050 C   0  0  1  0  0  0  0  0  0  0  0  0
  -25.3740  -31.4650   26.1660 C   0  0  0  0  0  1  0  0  0  0  0  0
  -27.0710  -30.3490   24.7120 C   0  0  0  0  0  1  0  0  0  0  0  0
  -27.6070  -32.5250   25.7740 C   0  0  0  0  0  1  0  0  0  0  0  0
  1  4  1  0
  2  6  1  0
  3 53  1  0
  3  2  1  0
  4  2  2  0
  4  9  1  0
  5  3  2  0
  7  5  1  0
  8  5  1  0
  8  1  2  0
  9 10  1  0
 11 24  1  0
 12 17  1  0
 13 14  1  0
 13 12  1  0
 15 14  1  0
 15 28  1  0
 15 16  1  0
 17 11  1  0
 17 16  1  0
 18 11  2  0
 19 23  1  0
 21 19  1  0
 21 24  1  0
 22 20  1  0
 23  9  1  0
 23 20  1  0
 24 22  1  0
 25 26  2  0
 26 45  1  0
 27 26  1  0
 27 30  1  0
 28 29  1  0
 28 25  1  0
 29 27  2  0
 30 31  1  0
 31 32  2  0
 33 36  1  0
 33 32  1  0
 34 33  2  0
 35 34  1  0
 35 30  2  0
 36 37  1  0
 37 38  1  0
 38 39  2  0
 40 39  1  0
 40 44  1  0
 41 40  2  0
 42 37  2  0
 42 41  1  0
 43 42  1  0
 45 46  1  0
 46 49  1  0
 46 48  1  0
 47 45  2  0
 50 25  1  0
 50 51  1  0
 52 50  1  0
 54 53  1  0
 55 66  2  0
 56 54  1  0
 56 61  1  0
 57 65  1  0
 57 67  1  0
 58 64  1  0
 58 60  1  0
 59 65  1  0
 60 61  2  0
 60 59  1  0
 62 56  2  0
 63 62  1  0
 63 58  2  0
 64 57  1  0
 65 55  1  0
 67 69  2  0
 68 67  1  0
 70 68  1  0
 71 80  2  0
 71 76  1  0
 72 68  1  0
 72 76  1  0
 73 72  1  0
 74 75  1  0
 74 73  1  0
 75 71  1  0
 76 77  2  0
 77 78  1  0
 79 78  2  0
 80 79  1  0
 81 55  1  0
 81 82  1  0
 81 91  1  0
 82 85  1  0
 83 87  1  0
 83 82  1  0
 84 83  2  0
 87 86  1  0
 89 87  1  0
 89 90  1  0
 89 88  1  0
 91 94  1  1
 91 92  1  0
 93 91  1  0
M  ISO  4  11 100  24 100  53 101  54 101
M  END
>  <TORSDO>  (60) 
F 18

>  <SCORE>  (60) 
-14.381

>  <name>  (60) 
61

>  <ligand_id>  (60) 
61

>  <original_smiles>  (60) 
[H]c1nc(C([H])([H])[H])c(C([H])([H])Oc2c([H])c([H])c3c(c2[H])C([H])([H])N(C(=O)C([H])(N([H])C(=O)C([H])(N([H])C([H])([H])[H])C([H])([H])[H])C(C([H])([H])[H])(C([H])([H])[H])C([H])([H])[H])C([H])(C(=O)N([H])C2([H])c4c([H])c([H])c([H])c([H])c4C([H])([H])C([H])([H])C2([H])[H])C3([H])[H])c(C([H])([H])[H])c1N([H])C1([H])C([H])([H])C([H])([H])N(C(=O)N2C([H])([H])C([H])([H])C([H])([H])C([H])(n3nc(-c4c([H])c([H])c(Oc5c([H])c([H])c(F)c([H])c5F)c([H])c4[H])c(C(=O)N([H])[H])c3N([H])[H])C2([H])[H])C([H])([H])C1([H])[H]

>  <smiles>  (60) 
[H]c1nc(C([H])([H])[H])c(C([H])([H])Oc2c([H])c([H])c3c(c2[H])C([H])([H])N(C(=O)C([H])(N([H])C(=O)C([H])(N([H])C([H])([H])[H])C([H])([H])[H])C(C([H])([H])[H])(C([H])([H])[H])C([H])([H])[H])C([H])(C(=O)N([H])C2([H])c4c([H])c([H])c([H])c([H])c4C([H])([H])C([H])([H])C2([H])[H])C3([H])[H])c(C([H])([H])[H])c1N([H])C1([H])C([H])([H])C([H])([H])N(C(=O)N2C([H])([H])C([H])([H])C([H])([H])C([H])(n3nc(-c4c([H])c([H])c(Oc5c([H])c([H])c(F)c([H])c5F)c([H])c4[H])c(C(=O)N([H])[H])c3N([H])[H])C2([H])[H])C([H])([H])C1([H])[H]

$$$$
62:0:0
     RDKit          3D

 96105  0  0  1  0  0  0  0  0999 V2000
  -30.5120  -21.1160   18.6490 C   0  0  0  0  0  0  0  0  0  0  0  0
  -29.8020  -19.9820   20.6970 C   0  0  0  0  0  0  0  0  0  0  0  0
  -29.9000  -21.2380   19.9460 C   0  0  0  0  0  0  0  0  0  0  0  0
  -30.7810  -19.8100   18.1270 C   0  0  0  0  0  3  0  0  0  0  0  0
  -30.2510  -18.7030   20.1600 C   0  0  0  0  0  0  0  0  0  0  0  0
  -29.2320  -19.9890   22.1090 C   0  0  0  0  0  1  0  0  0  0  0  0
  -31.2610  -19.5310   16.7100 C   0  0  0  0  0  1  0  0  0  0  0  0
  -30.6670  -18.7040   18.8900 N   0  0  0  0  0  0  0  0  0  0  0  0
  -30.9740  -17.8140   18.4960 H   0  0  0  0  0  0  0  0  0  0  0  0
  -32.3020  -22.3560   17.1510 C   0  0  0  0  0  2  0  0  0  0  0  0
  -31.9670  -23.3130   18.2500 C   0  0  0  0  0  2  0  0  0  0  0  0
  -30.9240  -22.3000   17.7980 C   0  0  0  0  0  3  0  0  0  0  0  0
  -29.4120  -22.5030   20.5050 N   0  0  0  0  0  0  0  0  0  0  0  0
  -29.1570  -22.4260   21.4830 H   0  0  0  0  0  0  0  0  0  0  0  0
  -29.5060  -23.9440   20.0090 C   0  0  0  0  0  3  0  0  0  0  0  0
  -28.4220  -25.0530   20.4850 C   0  0  0  0  0  3  0  0  0  0  0  0
  -28.6090  -26.5220   20.1890 O   0  0  0  0  0  0  0  0  0  0  0  0
  -24.7020  -31.8520   23.2430 C   0  0  0  0  0  0  0  0  0  0  0  0
  -27.4850  -27.3830   20.1530 C   0  0  0  0  0  0  0  0  0  0  0  0
  -23.5730  -30.4740   21.5360 C   0  0  0  0  0  3  0  0  0  0  0  0
  -25.0940  -28.9850   20.1130 C   0  0  0  0  0  0  0  0  0  0  0  0
  -26.1130  -30.8360   21.4300 C   0  0  0  0  0  2  0  0  0  0  0  0
  -26.2390  -29.4710   20.7540 C   0  0  0  0  0  0  0  0  0  0  0  0
  -27.4380  -28.6840   20.7620 C   0  0  0  0  0  3  0  0  0  0  0  0
  -26.3170  -26.9720   19.4720 C   0  0  0  0  0  3  0  0  0  0  0  0
  -25.1380  -27.7440   19.4590 C   0  0  0  0  0  3  0  0  0  0  0  0
  -23.8390  -29.8390   20.1470 C   0  0  0  0  0  2  0  0  0  0  0  0
  -24.8140  -31.0700   22.1280 N   0  0  0  0  0  0  0  0  0  0  0  0
  -23.5990  -32.0930   23.7550 O   0  0  0  0  0  0  0  0  0  0  0  0
  -22.9020  -29.4210   22.4510 C   0  0  0  0  0  0  0  0  0  0  0  0
  -21.5840  -29.2230   22.2820 N   0  0  0  0  0  0  0  0  0  0  0  0
  -23.5680  -28.7890   23.2740 O   0  0  0  0  0  0  0  0  0  0  0  0
  -21.1060  -29.7860   21.5930 H   0  0  0  0  0  0  0  0  0  0  0  0
  -18.2140  -27.9560   22.6620 C   0  0  0  0  0  0  0  0  0  0  0  0
  -20.7600  -28.2490   23.0030 C   0  0  0  0  0  3  0  0  0  0  0  0
  -20.9010  -26.8370   22.3870 C   0  0  0  0  0  2  0  0  0  0  0  0
  -19.8290  -26.5280   21.3370 C   0  0  0  0  0  2  0  0  0  0  0  0
  -18.4300  -26.6310   21.9490 C   0  0  0  0  0  2  0  0  0  0  0  0
  -19.3100  -28.7240   23.1410 C   0  0  0  0  0  0  0  0  0  0  0  0
  -19.0550  -29.9620   23.7680 C   0  0  0  0  0  3  0  0  0  0  0  0
  -17.7390  -30.4370   23.9190 C   0  0  0  0  0  3  0  0  0  0  0  0
  -16.6570  -29.6660   23.4570 C   0  0  0  0  0  3  0  0  0  0  0  0
  -16.8960  -28.4280   22.8330 C   0  0  0  0  0  3  0  0  0  0  0  0
  -25.9520  -32.4930   23.9200 C   0  0  0  0  0  3  0  0  0  0  0  0
  -25.6250  -33.8950   24.2180 N   0  0  0  0  0  0  0  0  0  0  0  0
  -25.9850  -34.9400   23.4620 C   0  0  0  0  0  0  0  0  0  0  0  0
  -26.6940  -34.8260   22.4590 O   0  0  0  0  0  0  0  0  0  0  0  0
  -24.9950  -34.0560   24.9910 H   0  0  0  0  0  0  0  0  0  0  0  0
  -24.2720  -36.7340   23.0230 C   0  0  0  0  0  1  0  0  0  0  0  0
  -25.4800  -36.3340   23.8860 C   0  0  0  0  0  3  0  0  0  0  0  0
  -27.5730  -37.2370   24.8010 C   0  0  0  0  0  1  0  0  0  0  0  0
  -26.5160  -37.3860   23.8040 N   0  0  0  0  0  0  0  0  0  0  0  0
  -26.1030  -38.3090   23.9180 H   0  0  0  0  0  0  0  0  0  0  0  0
  -26.4050  -31.7370   25.2300 C   0  0  1  0  0  0  0  0  0  0  0  0
  -25.2610  -31.5100   26.2470 C   0  0  0  0  0  1  0  0  0  0  0  0
  -27.0060  -30.3540   24.8840 C   0  0  0  0  0  1  0  0  0  0  0  0
  -27.5230  -32.5400   25.9380 C   0  0  0  0  0  1  0  0  0  0  0  0
  -30.5170  -17.3400   20.9330 C   0  0  0  0  0  2  0  0  0  0  0  0
  -30.8580  -14.8570   20.0910 C   0  0  0  0  0  0  0  0  0  0  0  0
  -30.6040  -12.6210   18.9950 C   0  0  0  0  0  2  0  0  0  0  0  0
  -29.6200  -12.7240   17.8080 C   0  0  0  0  0  2  0  0  0  0  0  0
  -28.1630  -12.5610   18.2830 C   0  0  0  0  0  2  0  0  0  0  0  0
  -27.8410  -13.4220   19.5330 C   0  0  0  0  0  3  0  0  0  0  0  0
  -28.9360  -13.2860   20.6140 C   0  0  0  0  0  2  0  0  0  0  0  0
  -30.2130  -13.6480   19.9840 N   0  0  0  0  0  0  0  0  0  0  0  0
  -32.0330  -14.9750   19.7340 O   0  0  0  0  0  0  0  0  0  0  0  0
  -30.1050  -15.9640   20.4290 N   0  0  0  0  0  0  0  0  0  0  0  0
  -29.1290  -15.7550   20.5780 H   0  0  0  0  0  0  0  0  0  0  0  0
  -25.4760  -14.0260   20.3230 C   0  0  0  0  0  0  0  0  0  0  0  0
  -24.4170  -13.2560   20.7220 C   0  0  0  0  0  0  0  0  0  0  0  0
  -24.8750  -11.9020   20.6810 C   0  0  0  0  0  0  0  0  0  0  0  0
  -26.5100  -13.1420   20.0610 N   0  0  0  0  0  0  0  0  0  0  0  0
  -26.1560  -11.8590   20.3370 N   0  0  0  0  0  0  0  0  0  0  0  0
  -24.1490  -10.6440   20.8890 C   0  0  0  0  0  0  0  0  0  0  0  0
  -24.5770   -9.6940   21.8430 C   0  0  0  0  0  3  0  0  0  0  0  0
  -23.8510   -8.4990   22.0400 C   0  0  0  0  0  3  0  0  0  0  0  0
  -22.6830   -8.2460   21.2810 C   0  0  0  0  0  0  0  0  0  0  0  0
  -22.2750   -9.1830   20.3160 C   0  0  0  0  0  3  0  0  0  0  0  0
  -23.0020  -10.3690   20.1190 C   0  0  0  0  0  3  0  0  0  0  0  0
  -21.9280   -7.1020   21.3860 O   0  0  0  0  0  0  0  0  0  0  0  0
  -21.8450   -6.4000   22.5630 C   0  0  0  0  0  0  0  0  0  0  0  0
  -21.3290   -6.9810   23.7410 C   0  0  0  0  0  3  0  0  0  0  0  0
  -21.1950   -6.2040   24.9100 C   0  0  0  0  0  3  0  0  0  0  0  0
  -21.5670   -4.8470   24.8990 C   0  0  0  0  0  0  0  0  0  0  0  0
  -22.0760   -4.2640   23.7240 C   0  0  0  0  0  3  0  0  0  0  0  0
  -22.2110   -5.0390   22.5590 C   0  0  0  0  0  0  0  0  0  0  0  0
  -22.6810   -4.4680   21.4240 F   0  0  0  0  0  0  0  0  0  0  0  0
  -21.4310   -4.0970   26.0170 F   0  0  0  0  0  0  0  0  0  0  0  0
  -23.0300  -13.7370   21.0300 C   0  0  0  0  0  0  0  0  0  0  0  0
  -22.3210  -13.0430   21.9140 N   0  0  0  0  0  0  0  0  0  0  0  0
  -22.5830  -14.7650   20.5230 O   0  0  0  0  0  0  0  0  0  0  0  0
  -22.6980  -12.2100   22.3440 H   0  0  0  0  0  0  0  0  0  0  0  0
  -21.3900  -13.3440   22.1620 H   0  0  0  0  0  0  0  0  0  0  0  0
  -25.6380  -15.3950   20.1370 N   0  0  0  0  0  0  0  0  0  0  0  0
  -24.8690  -16.0460   20.2550 H   0  0  0  0  0  0  0  0  0  0  0  0
  -26.4610  -15.8260   19.7360 H   0  0  0  0  0  0  0  0  0  0  0  0
  1  3  2  0
  2  6  1  0
  3 13  1  0
  3  2  1  0
  4  7  1  0
  4  1  1  0
  4  8  1  0
  5  2  2  0
  5 58  1  0
  8  5  1  0
  9  8  1  0
 10 12  1  0
 10 11  1  0
 12 11  1  0
 12  1  1  0
 13 14  1  0
 15 16  2  0
 15 13  1  0
 17 16  1  0
 18 29  2  0
 19 17  1  0
 19 24  1  0
 20 28  1  0
 20 30  1  0
 21 27  1  0
 21 23  1  0
 22 28  1  0
 23 24  2  0
 23 22  1  0
 25 19  2  0
 26 25  1  0
 26 21  2  0
 27 20  1  0
 28 18  1  0
 30 32  2  0
 31 30  1  0
 33 31  1  0
 34 43  2  0
 34 39  1  0
 35 31  1  0
 35 39  1  0
 36 35  1  0
 37 38  1  0
 37 36  1  0
 38 34  1  0
 39 40  2  0
 40 41  1  0
 42 41  2  0
 43 42  1  0
 44 18  1  0
 44 45  1  0
 44 54  1  0
 45 48  1  0
 46 50  1  0
 46 45  1  0
 47 46  2  0
 50 49  1  0
 52 50  1  0
 52 53  1  0
 52 51  1  0
 54 57  1  1
 54 55  1  0
 56 54  1  0
 59 67  1  0
 60 65  1  0
 61 62  1  0
 61 60  1  0
 63 62  1  0
 63 72  1  0
 63 64  1  0
 65 59  1  0
 65 64  1  0
 66 59  2  0
 67 68  1  0
 67 58  1  0
 69 70  2  0
 70 89  1  0
 71 70  1  0
 71 74  1  0
 72 69  1  0
 72 73  1  0
 73 71  2  0
 74 75  1  0
 75 76  2  0
 77 80  1  0
 77 76  1  0
 78 77  2  0
 79 78  1  0
 79 74  2  0
 80 81  1  0
 81 82  1  0
 82 83  2  0
 84 83  1  0
 84 88  1  0
 85 84  2  0
 86 81  2  0
 86 85  1  0
 87 86  1  0
 89 90  1  0
 90 93  1  0
 90 92  1  0
 91 89  2  0
 94 95  1  0
 94 69  1  0
 96 94  1  0
M  ISO  4  16 101  17 101  59 100  67 100
M  END
>  <TORSDO>  (61) 
F 21

>  <SCORE>  (61) 
-12.262

>  <name>  (61) 
62

>  <ligand_id>  (61) 
62

>  <original_smiles>  (61) 
[H]c1c([H])c([H])c2c(c1[H])C([H])([H])C([H])([H])C([H])([H])C2([H])N([H])C(=O)C1([H])N(C(=O)C([H])(N([H])C(=O)C([H])(N([H])C([H])([H])[H])C([H])([H])[H])C(C([H])([H])[H])(C([H])([H])[H])C([H])([H])[H])C([H])([H])c2c([H])c(OC([H])([H])C([H])([H])N([H])c3c(C([H])([H])[H])c(C([H])([H])N([H])C(=O)N4C([H])([H])C([H])([H])C([H])([H])C([H])(n5nc(-c6c([H])c([H])c(Oc7c([H])c([H])c(F)c([H])c7F)c([H])c6[H])c(C(=O)N([H])[H])c5N([H])[H])C4([H])[H])[n+]([H])c(C([H])([H])[H])c3C3([H])C([H])([H])C3([H])[H])c([H])c([H])c2C1([H])[H]

>  <smiles>  (61) 
[H]c1c([H])c([H])c2c(c1[H])C([H])([H])C([H])([H])C([H])([H])C2([H])N([H])C(=O)C1([H])N(C(=O)C([H])(N([H])C(=O)C([H])(N([H])C([H])([H])[H])C([H])([H])[H])C(C([H])([H])[H])(C([H])([H])[H])C([H])([H])[H])C([H])([H])c2c([H])c(OC([H])([H])C([H])([H])N([H])c3c(C([H])([H])[H])c(C([H])([H])N([H])C(=O)N4C([H])([H])C([H])([H])C([H])([H])C([H])(n5nc(-c6c([H])c([H])c(Oc7c([H])c([H])c(F)c([H])c7F)c([H])c6[H])c(C(=O)N([H])[H])c5N([H])[H])C4([H])[H])[n+]([H])c(C([H])([H])[H])c3C3([H])C([H])([H])C3([H])[H])c([H])c([H])c2C1([H])[H]

$$$$
63:0:0
     RDKit          3D

 91100  0  0  1  0  0  0  0  0999 V2000
  -29.1980  -21.7210   20.5180 N   0  0  0  0  0  4  0  0  0  0  0  0
  -30.0900  -22.0980   20.2420 H   0  0  0  0  0  0  0  0  0  0  0  0
  -29.2850  -21.6000   21.5140 H   0  0  0  0  0  0  0  0  0  0  0  0
  -31.3130  -18.7190   18.9770 C   0  0  0  0  0  2  0  0  0  0  0  0
  -30.1350  -17.9030   18.4130 C   0  0  0  0  0  2  0  0  0  0  0  0
  -28.4200  -18.9000   20.3830 C   0  0  0  0  0  2  0  0  0  0  0  0
  -30.4150  -19.1530   20.1380 C   0  0  0  0  0  3  0  0  0  0  0  0
  -29.1990  -20.2230   19.8770 C   0  0  0  0  0  3  0  0  0  0  0  0
  -29.5330  -17.8370   19.8340 C   0  0  2  0  0  0  0  0  0  0  0  0
  -30.4510  -15.1110   20.1790 C   0  0  0  0  0  0  0  0  0  0  0  0
  -30.3590  -12.7190   19.2720 C   0  0  0  0  0  2  0  0  0  0  0  0
  -29.4180  -12.6460   18.0450 C   0  0  0  0  0  2  0  0  0  0  0  0
  -27.9610  -12.4210   18.4890 C   0  0  0  0  0  2  0  0  0  0  0  0
  -27.5620  -13.3380   19.6740 C   0  0  0  0  0  3  0  0  0  0  0  0
  -28.6300  -13.3710   20.7900 C   0  0  0  0  0  2  0  0  0  0  0  0
  -29.8840  -13.8220   20.1710 N   0  0  0  0  0  0  0  0  0  0  0  0
  -31.6320  -15.1640   19.8130 O   0  0  0  0  0  0  0  0  0  0  0  0
  -29.6650  -16.3110   20.4030 N   0  0  0  0  0  0  0  0  0  0  0  0
  -28.7990  -16.0410   20.8470 H   0  0  0  0  0  0  0  0  0  0  0  0
  -25.1920  -13.9070   20.4370 C   0  0  0  0  0  0  0  0  0  0  0  0
  -24.1340  -13.1310   20.8230 C   0  0  0  0  0  0  0  0  0  0  0  0
  -24.6000  -11.7810   20.7920 C   0  0  0  0  0  0  0  0  0  0  0  0
  -26.2330  -13.0310   20.1880 N   0  0  0  0  0  0  0  0  0  0  0  0
  -25.8880  -11.7460   20.4680 N   0  0  0  0  0  0  0  0  0  0  0  0
  -23.8770  -10.5190   20.9940 C   0  0  0  0  0  0  0  0  0  0  0  0
  -24.3210   -9.5520   21.9230 C   0  0  0  0  0  3  0  0  0  0  0  0
  -23.5940   -8.3560   22.1150 C   0  0  0  0  0  3  0  0  0  0  0  0
  -22.4110   -8.1190   21.3770 C   0  0  0  0  0  0  0  0  0  0  0  0
  -21.9850   -9.0740   20.4360 C   0  0  0  0  0  3  0  0  0  0  0  0
  -22.7120  -10.2610   20.2440 C   0  0  0  0  0  3  0  0  0  0  0  0
  -21.6550   -6.9750   21.4780 O   0  0  0  0  0  0  0  0  0  0  0  0
  -21.6270   -6.2290   22.6290 C   0  0  0  0  0  0  0  0  0  0  0  0
  -21.2290   -6.7830   23.8660 C   0  0  0  0  0  3  0  0  0  0  0  0
  -21.1480   -5.9650   25.0100 C   0  0  0  0  0  3  0  0  0  0  0  0
  -21.4550   -4.5930   24.9190 C   0  0  0  0  0  0  0  0  0  0  0  0
  -21.8460   -4.0390   23.6870 C   0  0  0  0  0  3  0  0  0  0  0  0
  -21.9290   -4.8550   22.5460 C   0  0  0  0  0  0  0  0  0  0  0  0
  -22.2860   -4.3110   21.3560 F   0  0  0  0  0  0  0  0  0  0  0  0
  -21.3710   -3.8060   26.0170 F   0  0  0  0  0  0  0  0  0  0  0  0
  -22.7390  -13.6090   21.1050 C   0  0  0  0  0  0  0  0  0  0  0  0
  -22.0190  -12.9160   21.9800 N   0  0  0  0  0  0  0  0  0  0  0  0
  -22.2970  -14.6310   20.5820 O   0  0  0  0  0  0  0  0  0  0  0  0
  -22.3900  -12.0900   22.4260 H   0  0  0  0  0  0  0  0  0  0  0  0
  -21.0820  -13.2170   22.2090 H   0  0  0  0  0  0  0  0  0  0  0  0
  -25.3500  -15.2780   20.2520 N   0  0  0  0  0  0  0  0  0  0  0  0
  -24.5800  -15.9280   20.3600 H   0  0  0  0  0  0  0  0  0  0  0  0
  -26.1810  -15.7110   19.8700 H   0  0  0  0  0  0  0  0  0  0  0  0
  -28.1810  -22.9790   20.3300 C   0  0  0  0  0  2  0  0  0  0  0  0
  -28.5430  -24.6960   18.3380 C   0  0  0  0  0  1  0  0  0  0  0  0
  -28.5830  -24.6070   19.8690 C   0  0  0  0  0  3  0  0  0  0  0  0
  -28.2850  -26.0980   20.3910 O   0  0  0  0  0  0  0  0  0  0  0  0
  -24.6330  -31.8760   23.2230 C   0  0  0  0  0  0  0  0  0  0  0  0
  -27.2120  -27.0780   20.2280 C   0  0  0  0  0  0  0  0  0  0  0  0
  -23.4360  -30.4670   21.5920 C   0  0  0  0  0  3  0  0  0  0  0  0
  -24.8860  -28.8690   20.1710 C   0  0  0  0  0  0  0  0  0  0  0  0
  -25.9920  -30.7130   21.4330 C   0  0  0  0  0  2  0  0  0  0  0  0
  -26.0630  -29.3090   20.7860 C   0  0  0  0  0  0  0  0  0  0  0  0
  -27.2170  -28.4290   20.7960 C   0  0  0  0  0  3  0  0  0  0  0  0
  -26.0070  -26.7530   19.5680 C   0  0  0  0  0  3  0  0  0  0  0  0
  -24.8760  -27.6090   19.5450 C   0  0  0  0  0  3  0  0  0  0  0  0
  -23.6590  -29.7750   20.2180 C   0  0  0  0  0  2  0  0  0  0  0  0
  -24.7080  -31.0440   22.1360 N   0  0  0  0  0  0  0  0  0  0  0  0
  -23.5470  -32.1650   23.7490 O   0  0  0  0  0  0  0  0  0  0  0  0
  -22.7520  -29.4740   22.5650 C   0  0  0  0  0  0  0  0  0  0  0  0
  -21.4220  -29.3080   22.4440 N   0  0  0  0  0  0  0  0  0  0  0  0
  -23.4220  -28.8520   23.3940 O   0  0  0  0  0  0  0  0  0  0  0  0
  -20.9370  -29.8610   21.7510 H   0  0  0  0  0  0  0  0  0  0  0  0
  -18.0400  -28.1120   22.9620 C   0  0  0  0  0  0  0  0  0  0  0  0
  -20.6010  -28.3770   23.2220 C   0  0  0  0  0  3  0  0  0  0  0  0
  -20.7010  -26.9420   22.6560 C   0  0  0  0  0  2  0  0  0  0  0  0
  -19.5980  -26.6140   21.6460 C   0  0  0  0  0  2  0  0  0  0  0  0
  -18.2170  -26.7610   22.2900 C   0  0  0  0  0  2  0  0  0  0  0  0
  -19.1600  -28.8790   23.3850 C   0  0  0  0  0  0  0  0  0  0  0  0
  -18.9390  -30.1420   23.9750 C   0  0  0  0  0  3  0  0  0  0  0  0
  -17.6340  -30.6410   24.1450 C   0  0  0  0  0  3  0  0  0  0  0  0
  -16.5300  -29.8730   23.7360 C   0  0  0  0  0  3  0  0  0  0  0  0
  -16.7340  -28.6110   23.1500 C   0  0  0  0  0  3  0  0  0  0  0  0
  -25.9090  -32.5180   23.8490 C   0  0  0  0  0  3  0  0  0  0  0  0
  -26.4210  -31.7570   25.1350 C   0  0  1  0  0  0  0  0  0  0  0  0
  -25.3250  -31.5300   26.2030 C   0  0  0  0  0  1  0  0  0  0  0  0
  -27.0040  -30.3760   24.7620 C   0  0  0  0  0  1  0  0  0  0  0  0
  -27.5710  -32.5550   25.7950 C   0  0  0  0  0  1  0  0  0  0  0  0
  -25.5940  -33.9190   24.1810 N   0  0  0  0  0  0  0  0  0  0  0  0
  -25.9240  -34.9770   23.4280 C   0  0  0  0  0  0  0  0  0  0  0  0
  -26.5900  -34.8790   22.3950 O   0  0  0  0  0  0  0  0  0  0  0  0
  -24.9990  -34.0690   24.9830 H   0  0  0  0  0  0  0  0  0  0  0  0
  -24.1910  -36.7740   23.0970 C   0  0  0  0  0  1  0  0  0  0  0  0
  -25.4390  -36.3660   23.8950 C   0  0  0  0  0  3  0  0  0  0  0  0
  -27.5790  -37.2520   24.7100 C   0  0  0  0  0  1  0  0  0  0  0  0
  -26.4690  -37.4210   23.7760 N   0  0  0  0  0  0  0  0  0  0  0  0
  -26.0630  -38.3400   23.9290 H   0  0  0  0  0  0  0  0  0  0  0  0
  1  3  1  0
  2  1  1  0
  5  4  1  0
  5  9  1  0
  7  4  1  0
  8  7  1  0
  8  6  1  0
  8  1  1  0
  9  7  1  0
  9  6  1  0
  9 18  1  1
 10 18  1  0
 11 16  1  0
 12 13  1  0
 12 11  1  0
 14 13  1  0
 14 23  1  0
 14 15  1  0
 16 10  1  0
 16 15  1  0
 17 10  2  0
 18 19  1  0
 20 21  2  0
 21 40  1  0
 22 21  1  0
 22 25  1  0
 23 20  1  0
 23 24  1  0
 24 22  2  0
 25 26  1  0
 26 27  2  0
 28 31  1  0
 28 27  1  0
 29 28  2  0
 30 29  1  0
 30 25  2  0
 31 32  1  0
 32 33  1  0
 33 34  2  0
 35 34  1  0
 35 39  1  0
 36 35  2  0
 37 32  2  0
 37 36  1  0
 38 37  1  0
 40 41  1  0
 41 44  1  0
 41 43  1  0
 42 40  2  0
 45 46  1  0
 45 20  1  0
 47 45  1  0
 48  1  1  0
 50 49  1  0
 50 48  1  0
 50 51  1  0
 52 63  2  0
 53 51  1  0
 53 58  1  0
 54 62  1  0
 54 64  1  0
 55 61  1  0
 55 57  1  0
 56 62  1  0
 57 58  2  0
 57 56  1  0
 59 53  2  0
 60 59  1  0
 60 55  2  0
 61 54  1  0
 62 52  1  0
 64 66  2  0
 65 64  1  0
 67 65  1  0
 68 77  2  0
 68 73  1  0
 69 65  1  0
 69 73  1  0
 70 69  1  0
 71 72  1  0
 71 70  1  0
 72 68  1  0
 73 74  2  0
 74 75  1  0
 76 75  2  0
 77 76  1  0
 78 52  1  0
 78 83  1  0
 78 79  1  0
 79 82  1  1
 79 80  1  0
 81 79  1  0
 83 86  1  0
 84 88  1  0
 84 83  1  0
 85 84  2  0
 88 87  1  0
 90 88  1  0
 90 91  1  0
 90 89  1  0
M  ISO  4  10 100  18 100  50 101  51 101
M  END
>  <TORSDO>  (62) 
F 19

>  <SCORE>  (62) 
-14.819

>  <name>  (62) 
63

>  <ligand_id>  (62) 
63

>  <original_smiles>  (62) 
[H]c1c([H])c([H])c2c(c1[H])C([H])([H])C([H])([H])C([H])([H])C2([H])N([H])C(=O)C1([H])N(C(=O)C([H])(N([H])C(=O)C([H])(N([H])C([H])([H])[H])C([H])([H])[H])C(C([H])([H])[H])(C([H])([H])[H])C([H])([H])[H])C([H])([H])c2c([H])c(OC([H])(C([H])([H])[H])C([H])([H])[N+]([H])([H])C3([H])C([H])([H])C4(N([H])C(=O)N5C([H])([H])C([H])([H])C([H])([H])C([H])(n6nc(-c7c([H])c([H])c(Oc8c([H])c([H])c(F)c([H])c8F)c([H])c7[H])c(C(=O)N([H])[H])c6N([H])[H])C5([H])[H])C([H])([H])C([H])([H])C43[H])c([H])c([H])c2C1([H])[H]

>  <smiles>  (62) 
[H]c1c([H])c([H])c2c(c1[H])C([H])([H])C([H])([H])C([H])([H])C2([H])N([H])C(=O)C1([H])N(C(=O)C([H])(N([H])C(=O)C([H])(N([H])C([H])([H])[H])C([H])([H])[H])C(C([H])([H])[H])(C([H])([H])[H])C([H])([H])[H])C([H])([H])c2c([H])c(OC([H])(C([H])([H])[H])C([H])([H])[N+]([H])([H])C3([H])C([H])([H])C4(N([H])C(=O)N5C([H])([H])C([H])([H])C([H])([H])C([H])(n6nc(-c7c([H])c([H])c(Oc8c([H])c([H])c(F)c([H])c8F)c([H])c7[H])c(C(=O)N([H])[H])c6N([H])[H])C5([H])[H])C([H])([H])C([H])([H])C43[H])c([H])c([H])c2C1([H])[H]

$$$$
64:0:0
     RDKit          3D

 94102  0  0  1  0  0  0  0  0999 V2000
  -28.2810  -20.5290   17.8420 C   0  0  0  0  0  3  0  0  0  0  0  0
  -29.2600  -21.3980   18.3700 C   0  0  0  0  0  0  0  0  0  0  0  0
  -29.4650  -21.3390   19.7740 C   0  0  0  0  0  3  0  0  0  0  0  0
  -27.5950  -19.6790   18.7320 C   0  0  0  0  0  0  0  0  0  0  0  0
  -29.2260  -19.9930   20.3140 C   0  0  0  0  0  3  0  0  0  0  0  0
  -29.8810  -22.4380   17.4630 C   0  0  0  0  0  1  0  0  0  0  0  0
  -26.3930  -18.8810   18.2740 C   0  0  0  0  0  1  0  0  0  0  0  0
  -28.0080  -19.4880   20.0080 N   0  0  0  0  0  0  0  0  0  0  0  0
  -29.1620  -22.5510   20.5230 N   0  0  0  0  0  0  0  0  0  0  0  0
  -28.7980  -22.3810   21.4560 H   0  0  0  0  0  0  0  0  0  0  0  0
  -30.4800  -24.5180   21.2520 C   0  0  0  0  0  1  0  0  0  0  0  0
  -29.4490  -24.0230   20.2320 C   0  0  0  0  0  3  0  0  0  0  0  0
  -28.2110  -25.0670   20.1930 C   0  0  0  0  0  2  0  0  0  0  0  0
  -28.4260  -26.5590   20.1940 O   0  0  0  0  0  0  0  0  0  0  0  0
  -24.6230  -31.9500   23.2650 C   0  0  0  0  0  0  0  0  0  0  0  0
  -27.3050  -27.4230   20.1660 C   0  0  0  0  0  0  0  0  0  0  0  0
  -23.4480  -30.5630   21.5980 C   0  0  0  0  0  3  0  0  0  0  0  0
  -24.9250  -29.0420   20.1640 C   0  0  0  0  0  0  0  0  0  0  0  0
  -25.9900  -30.9000   21.4400 C   0  0  0  0  0  2  0  0  0  0  0  0
  -26.0900  -29.5270   20.7740 C   0  0  0  0  0  0  0  0  0  0  0  0
  -27.2820  -28.7330   20.7590 C   0  0  0  0  0  3  0  0  0  0  0  0
  -26.1090  -27.0040   19.5380 C   0  0  0  0  0  3  0  0  0  0  0  0
  -24.9400  -27.7890   19.5380 C   0  0  0  0  0  3  0  0  0  0  0  0
  -23.6820  -29.9080   20.2110 C   0  0  0  0  0  2  0  0  0  0  0  0
  -24.7060  -31.1550   22.1570 N   0  0  0  0  0  0  0  0  0  0  0  0
  -23.5320  -32.2100   23.7940 O   0  0  0  0  0  0  0  0  0  0  0  0
  -22.7850  -29.5280   22.5380 C   0  0  0  0  0  0  0  0  0  0  0  0
  -21.4610  -29.3420   22.4010 N   0  0  0  0  0  0  0  0  0  0  0  0
  -23.4630  -28.8950   23.3520 O   0  0  0  0  0  0  0  0  0  0  0  0
  -20.9720  -29.9050   21.7190 H   0  0  0  0  0  0  0  0  0  0  0  0
  -18.0910  -28.1100   22.8670 C   0  0  0  0  0  0  0  0  0  0  0  0
  -20.6450  -28.3860   23.1530 C   0  0  0  0  0  3  0  0  0  0  0  0
  -20.7620  -26.9640   22.5570 C   0  0  0  0  0  2  0  0  0  0  0  0
  -19.6680  -26.6480   21.5320 C   0  0  0  0  0  2  0  0  0  0  0  0
  -18.2820  -26.7730   22.1720 C   0  0  0  0  0  2  0  0  0  0  0  0
  -19.2010  -28.8750   23.3140 C   0  0  0  0  0  0  0  0  0  0  0  0
  -18.9690  -30.1260   23.9250 C   0  0  0  0  0  3  0  0  0  0  0  0
  -17.6600  -30.6140   24.0920 C   0  0  0  0  0  3  0  0  0  0  0  0
  -16.5640  -29.8470   23.6610 C   0  0  0  0  0  3  0  0  0  0  0  0
  -16.7800  -28.5970   23.0550 C   0  0  0  0  0  3  0  0  0  0  0  0
  -25.8940  -32.5890   23.9060 C   0  0  0  0  0  3  0  0  0  0  0  0
  -25.5720  -33.9850   24.2370 N   0  0  0  0  0  0  0  0  0  0  0  0
  -25.9030  -35.0420   23.4830 C   0  0  0  0  0  0  0  0  0  0  0  0
  -26.5810  -34.9450   22.4560 O   0  0  0  0  0  0  0  0  0  0  0  0
  -24.9690  -34.1330   25.0320 H   0  0  0  0  0  0  0  0  0  0  0  0
  -24.1750  -36.8330   23.1130 C   0  0  0  0  0  1  0  0  0  0  0  0
  -25.4040  -36.4270   23.9410 C   0  0  0  0  0  3  0  0  0  0  0  0
  -27.5180  -37.3200   24.8160 C   0  0  0  0  0  1  0  0  0  0  0  0
  -26.4360  -37.4840   23.8490 N   0  0  0  0  0  0  0  0  0  0  0  0
  -26.0220  -38.4030   23.9900 H   0  0  0  0  0  0  0  0  0  0  0  0
  -26.3950  -31.8190   25.1900 C   0  0  1  0  0  0  0  0  0  0  0  0
  -25.2870  -31.5730   26.2410 C   0  0  0  0  0  1  0  0  0  0  0  0
  -26.9910  -30.4440   24.8060 C   0  0  0  0  0  1  0  0  0  0  0  0
  -27.5310  -32.6170   25.8700 C   0  0  0  0  0  1  0  0  0  0  0  0
  -30.2140  -18.7520   20.0820 C   0  0  0  0  0  2  0  0  0  0  0  0
  -30.2110  -17.4670   21.0710 C   0  0  0  0  0  2  0  0  0  0  0  0
  -30.8190  -14.9250   20.4320 C   0  0  0  0  0  0  0  0  0  0  0  0
  -30.6530  -12.6670   19.3680 C   0  0  0  0  0  2  0  0  0  0  0  0
  -29.7260  -12.7550   18.1350 C   0  0  0  0  0  2  0  0  0  0  0  0
  -28.2470  -12.5840   18.5390 C   0  0  0  0  0  2  0  0  0  0  0  0
  -27.8560  -13.4520   19.7630 C   0  0  0  0  0  3  0  0  0  0  0  0
  -28.8990  -13.3370   20.8950 C   0  0  0  0  0  2  0  0  0  0  0  0
  -30.2040  -13.6990   20.3230 N   0  0  0  0  0  0  0  0  0  0  0  0
  -32.0230  -15.0500   20.1960 O   0  0  0  0  0  0  0  0  0  0  0  0
  -29.9960  -16.0200   20.6120 N   0  0  0  0  0  0  0  0  0  0  0  0
  -29.0230  -15.7560   20.6130 H   0  0  0  0  0  0  0  0  0  0  0  0
  -25.4480  -14.0420   20.4260 C   0  0  0  0  0  0  0  0  0  0  0  0
  -24.3770  -13.2660   20.7820 C   0  0  0  0  0  0  0  0  0  0  0  0
  -24.8490  -11.9170   20.7830 C   0  0  0  0  0  0  0  0  0  0  0  0
  -26.5030  -13.1640   20.2280 N   0  0  0  0  0  0  0  0  0  0  0  0
  -26.1470  -11.8830   20.5060 N   0  0  0  0  0  0  0  0  0  0  0  0
  -24.1250  -10.6530   20.9730 C   0  0  0  0  0  0  0  0  0  0  0  0
  -24.5240   -9.7120   21.9480 C   0  0  0  0  0  3  0  0  0  0  0  0
  -23.8010   -8.5130   22.1240 C   0  0  0  0  0  3  0  0  0  0  0  0
  -22.6650   -8.2460   21.3240 C   0  0  0  0  0  0  0  0  0  0  0  0
  -22.2860   -9.1740   20.3400 C   0  0  0  0  0  3  0  0  0  0  0  0
  -23.0090  -10.3660   20.1610 C   0  0  0  0  0  3  0  0  0  0  0  0
  -21.9180   -7.0960   21.4070 O   0  0  0  0  0  0  0  0  0  0  0  0
  -21.8020   -6.3970   22.5820 C   0  0  0  0  0  0  0  0  0  0  0  0
  -21.2580   -6.9810   23.7460 C   0  0  0  0  0  3  0  0  0  0  0  0
  -21.0910   -6.2060   24.9110 C   0  0  0  0  0  3  0  0  0  0  0  0
  -21.4580   -4.8470   24.9120 C   0  0  0  0  0  0  0  0  0  0  0  0
  -21.9960   -4.2620   23.7520 C   0  0  0  0  0  3  0  0  0  0  0  0
  -22.1640   -5.0350   22.5900 C   0  0  0  0  0  0  0  0  0  0  0  0
  -22.6610   -4.4610   21.4680 F   0  0  0  0  0  0  0  0  0  0  0  0
  -21.2920   -4.1000   26.0280 F   0  0  0  0  0  0  0  0  0  0  0  0
  -22.9700  -13.7380   21.0090 C   0  0  0  0  0  0  0  0  0  0  0  0
  -22.2220  -13.0500   21.8640 N   0  0  0  0  0  0  0  0  0  0  0  0
  -22.5410  -14.7550   20.4640 O   0  0  0  0  0  0  0  0  0  0  0  0
  -22.5800  -12.2290   22.3280 H   0  0  0  0  0  0  0  0  0  0  0  0
  -21.2780  -13.3490   22.0580 H   0  0  0  0  0  0  0  0  0  0  0  0
  -25.6080  -15.4100   20.2300 N   0  0  0  0  0  0  0  0  0  0  0  0
  -24.8330  -16.0600   20.3200 H   0  0  0  0  0  0  0  0  0  0  0  0
  -26.4540  -15.8520   19.8980 H   0  0  0  0  0  0  0  0  0  0  0  0
  1  2  2  0
  1  4  1  0
  2  3  1  0
  3  5  1  0
  3  9  1  0
  4  8  2  0
  5 55  1  0
  6  2  1  0
  7  4  1  0
  8  5  1  0
  9 10  1  0
 12  9  1  0
 12 11  1  0
 13 14  1  0
 13 12  1  0
 15 26  2  0
 16 14  1  0
 16 21  1  0
 17 25  1  0
 17 27  1  0
 18 24  1  0
 18 20  1  0
 19 25  1  0
 20 19  1  0
 21 20  2  0
 22 16  2  0
 23 22  1  0
 23 18  2  0
 24 17  1  0
 25 15  1  0
 27 29  2  0
 28 27  1  0
 30 28  1  0
 31 40  2  0
 31 36  1  0
 32 28  1  0
 32 36  1  0
 33 32  1  0
 34 35  1  0
 34 33  1  0
 35 31  1  0
 36 37  2  0
 37 38  1  0
 39 38  2  0
 40 39  1  0
 41 15  1  0
 41 42  1  0
 41 51  1  0
 42 45  1  0
 43 47  1  0
 43 42  1  0
 44 43  2  0
 47 46  1  0
 49 47  1  0
 49 50  1  0
 49 48  1  0
 51 54  1  1
 51 52  1  0
 53 51  1  0
 55 56  1  0
 57 65  1  0
 58 63  1  0
 59 60  1  0
 59 58  1  0
 61 60  1  0
 61 70  1  0
 61 62  1  0
 63 57  1  0
 63 62  1  0
 64 57  2  0
 65 66  1  0
 65 56  1  0
 67 68  2  0
 68 69  1  0
 68 87  1  0
 69 72  1  0
 70 67  1  0
 70 71  1  0
 71 69  2  0
 72 73  1  0
 73 74  2  0
 75 78  1  0
 75 74  1  0
 76 75  2  0
 77 76  1  0
 77 72  2  0
 78 79  1  0
 79 84  2  0
 79 80  1  0
 80 81  2  0
 81 82  1  0
 82 86  1  0
 83 82  2  0
 84 83  1  0
 85 84  1  0
 87 88  1  0
 88 91  1  0
 88 90  1  0
 89 87  2  0
 92 93  1  0
 92 67  1  0
 94 92  1  0
M  ISO  4  13 101  14 101  57 100  65 100
M  END
>  <TORSDO>  (63) 
F 21

>  <SCORE>  (63) 
-13.246

>  <name>  (63) 
64

>  <ligand_id>  (63) 
64

>  <original_smiles>  (63) 
[H]c1c([H])c([H])c2c(c1[H])C([H])([H])C([H])([H])C([H])([H])C2([H])N([H])C(=O)C1([H])N(C(=O)C([H])(N([H])C(=O)C([H])(N([H])C([H])([H])[H])C([H])([H])[H])C(C([H])([H])[H])(C([H])([H])[H])C([H])([H])[H])C([H])([H])c2c([H])c(OC([H])([H])C([H])(N([H])c3c(C([H])([H])C([H])([H])N([H])C(=O)N4C([H])([H])C([H])([H])C([H])([H])C([H])(n5nc(-c6c([H])c([H])c(Oc7c([H])c([H])c(F)c([H])c7F)c([H])c6[H])c(C(=O)N([H])[H])c5N([H])[H])C4([H])[H])nc(C([H])([H])[H])c([H])c3C([H])([H])[H])C([H])([H])[H])c([H])c([H])c2C1([H])[H]

>  <smiles>  (63) 
[H]c1c([H])c([H])c2c(c1[H])C([H])([H])C([H])([H])C([H])([H])C2([H])N([H])C(=O)C1([H])N(C(=O)C([H])(N([H])C(=O)C([H])(N([H])C([H])([H])[H])C([H])([H])[H])C(C([H])([H])[H])(C([H])([H])[H])C([H])([H])[H])C([H])([H])c2c([H])c(OC([H])([H])C([H])(N([H])c3c(C([H])([H])C([H])([H])N([H])C(=O)N4C([H])([H])C([H])([H])C([H])([H])C([H])(n5nc(-c6c([H])c([H])c(Oc7c([H])c([H])c(F)c([H])c7F)c([H])c6[H])c(C(=O)N([H])[H])c5N([H])[H])C4([H])[H])nc(C([H])([H])[H])c([H])c3C([H])([H])[H])C([H])([H])[H])c([H])c([H])c2C1([H])[H]

$$$$
65:0:0
     RDKit          3D

 91100  0  0  1  0  0  0  0  0999 V2000
  -31.0400  -21.6890   20.3630 C   0  0  0  0  0  3  0  0  0  0  0  0
  -29.7560  -21.1440   20.1800 C   0  0  0  0  0  0  0  0  0  0  0  0
  -31.2330  -23.0740   20.4380 C   0  0  0  0  0  0  0  0  0  0  0  0
  -28.9860  -23.4920   20.1740 C   0  0  0  0  0  0  0  0  0  0  0  0
  -32.6130  -23.6650   20.6320 C   0  0  0  0  0  1  0  0  0  0  0  0
  -28.7200  -22.1090   20.1050 N   0  0  0  0  0  0  0  0  0  0  0  0
  -30.2210  -23.9480   20.3400 N   0  0  0  0  0  0  0  0  0  0  0  0
  -30.5420  -14.9330   20.0300 C   0  0  0  0  0  0  0  0  0  0  0  0
  -30.3220  -12.6120   19.0690 C   0  0  0  0  0  2  0  0  0  0  0  0
  -29.3340  -12.6000   17.8840 C   0  0  0  0  0  2  0  0  0  0  0  0
  -27.8950  -12.3950   18.3910 C   0  0  0  0  0  2  0  0  0  0  0  0
  -27.5510  -13.3020   19.6040 C   0  0  0  0  0  3  0  0  0  0  0  0
  -28.6640  -13.3060   20.6720 C   0  0  0  0  0  2  0  0  0  0  0  0
  -29.9000  -13.7020   19.9920 N   0  0  0  0  0  0  0  0  0  0  0  0
  -31.7340  -14.9550   19.6990 O   0  0  0  0  0  0  0  0  0  0  0  0
  -29.5490  -18.5860   21.4020 C   0  0  0  0  0  3  0  0  0  0  0  0
  -29.1070  -18.5790   19.0330 C   0  0  0  0  0  3  0  0  0  0  0  0
  -30.1430  -17.0860   21.3220 C   0  0  0  0  0  2  0  0  0  0  0  0
  -29.6630  -17.0560   18.9410 C   0  0  0  0  0  3  0  0  0  0  0  0
  -29.7410  -19.4840   20.1380 C   0  0  0  0  0  0  0  0  0  0  0  0
  -29.8360  -16.1690   20.1610 N   0  0  0  0  0  0  0  0  0  0  0  0
  -25.2200  -13.8570   20.5030 C   0  0  0  0  0  0  0  0  0  0  0  0
  -24.1750  -13.0700   20.9020 C   0  0  0  0  0  0  0  0  0  0  0  0
  -24.6320  -11.7210   20.7970 C   0  0  0  0  0  0  0  0  0  0  0  0
  -26.2450  -12.9870   20.1700 N   0  0  0  0  0  0  0  0  0  0  0  0
  -25.9040  -11.6940   20.4140 N   0  0  0  0  0  0  0  0  0  0  0  0
  -23.9120  -10.4530   20.9820 C   0  0  0  0  0  0  0  0  0  0  0  0
  -24.3530   -9.4800   21.9070 C   0  0  0  0  0  3  0  0  0  0  0  0
  -23.6310   -8.2800   22.0810 C   0  0  0  0  0  3  0  0  0  0  0  0
  -22.4540   -8.0430   21.3290 C   0  0  0  0  0  0  0  0  0  0  0  0
  -22.0340   -9.0050   20.3930 C   0  0  0  0  0  3  0  0  0  0  0  0
  -22.7560  -10.1960   20.2180 C   0  0  0  0  0  3  0  0  0  0  0  0
  -21.7040   -6.8950   21.4120 O   0  0  0  0  0  0  0  0  0  0  0  0
  -21.6060   -6.1810   22.5810 C   0  0  0  0  0  0  0  0  0  0  0  0
  -21.0720   -6.7490   23.7570 C   0  0  0  0  0  3  0  0  0  0  0  0
  -20.9240   -5.9610   24.9160 C   0  0  0  0  0  3  0  0  0  0  0  0
  -21.3020   -4.6040   24.8980 C   0  0  0  0  0  0  0  0  0  0  0  0
  -21.8290   -4.0360   23.7240 C   0  0  0  0  0  3  0  0  0  0  0  0
  -21.9780   -4.8220   22.5690 C   0  0  0  0  0  0  0  0  0  0  0  0
  -22.4680   -4.2640   21.4340 F   0  0  0  0  0  0  0  0  0  0  0  0
  -21.1560   -3.8450   26.0080 F   0  0  0  0  0  0  0  0  0  0  0  0
  -22.7970  -13.5400   21.2660 C   0  0  0  0  0  0  0  0  0  0  0  0
  -22.1170  -12.8210   22.1510 N   0  0  0  0  0  0  0  0  0  0  0  0
  -22.3340  -14.5820   20.8020 O   0  0  0  0  0  0  0  0  0  0  0  0
  -22.5060  -11.9800   22.5500 H   0  0  0  0  0  0  0  0  0  0  0  0
  -21.1950  -13.1180   22.4370 H   0  0  0  0  0  0  0  0  0  0  0  0
  -25.3820  -15.2330   20.3690 N   0  0  0  0  0  0  0  0  0  0  0  0
  -24.6320  -15.8900   20.5590 H   0  0  0  0  0  0  0  0  0  0  0  0
  -26.2260  -15.6830   20.0380 H   0  0  0  0  0  0  0  0  0  0  0  0
  -27.8950  -24.7020   20.0190 C   0  0  0  0  0  2  0  0  0  0  0  0
  -28.2090  -26.2130   20.2230 O   0  0  0  0  0  0  0  0  0  0  0  0
  -24.6480  -31.8750   23.2980 C   0  0  0  0  0  0  0  0  0  0  0  0
  -27.1590  -27.1950   20.1790 C   0  0  0  0  0  0  0  0  0  0  0  0
  -23.4230  -30.5100   21.6520 C   0  0  0  0  0  3  0  0  0  0  0  0
  -24.8450  -28.9480   20.1940 C   0  0  0  0  0  0  0  0  0  0  0  0
  -25.9770  -30.7590   21.4710 C   0  0  0  0  0  2  0  0  0  0  0  0
  -26.0340  -29.3790   20.7970 C   0  0  0  0  0  0  0  0  0  0  0  0
  -27.1930  -28.5190   20.7710 C   0  0  0  0  0  3  0  0  0  0  0  0
  -25.9420  -26.8610   19.5440 C   0  0  0  0  0  3  0  0  0  0  0  0
  -24.8110  -27.7020   19.5540 C   0  0  0  0  0  3  0  0  0  0  0  0
  -23.6260  -29.8520   20.2630 C   0  0  0  0  0  2  0  0  0  0  0  0
  -24.7030  -31.0690   22.1950 N   0  0  0  0  0  0  0  0  0  0  0  0
  -23.5690  -32.1610   23.8380 O   0  0  0  0  0  0  0  0  0  0  0  0
  -22.7460  -29.4940   22.6050 C   0  0  0  0  0  0  0  0  0  0  0  0
  -21.4200  -29.3130   22.4670 N   0  0  0  0  0  0  0  0  0  0  0  0
  -23.4150  -28.8700   23.4330 O   0  0  0  0  0  0  0  0  0  0  0  0
  -20.9360  -29.8680   21.7740 H   0  0  0  0  0  0  0  0  0  0  0  0
  -18.0410  -28.1020   22.9490 C   0  0  0  0  0  0  0  0  0  0  0  0
  -20.5980  -28.3710   23.2310 C   0  0  0  0  0  3  0  0  0  0  0  0
  -20.7060  -26.9420   22.6530 C   0  0  0  0  0  2  0  0  0  0  0  0
  -19.6110  -26.6180   21.6320 C   0  0  0  0  0  2  0  0  0  0  0  0
  -18.2260  -26.7560   22.2680 C   0  0  0  0  0  2  0  0  0  0  0  0
  -19.1540  -28.8670   23.3870 C   0  0  0  0  0  0  0  0  0  0  0  0
  -18.9270  -30.1260   23.9840 C   0  0  0  0  0  3  0  0  0  0  0  0
  -17.6190  -30.6210   24.1470 C   0  0  0  0  0  3  0  0  0  0  0  0
  -16.5200  -29.8530   23.7250 C   0  0  0  0  0  3  0  0  0  0  0  0
  -16.7310  -28.5960   23.1320 C   0  0  0  0  0  3  0  0  0  0  0  0
  -25.9360  -32.4910   23.9230 C   0  0  0  0  0  3  0  0  0  0  0  0
  -25.6480  -33.8990   24.2400 N   0  0  0  0  0  0  0  0  0  0  0  0
  -25.9610  -34.9390   23.4570 C   0  0  0  0  0  0  0  0  0  0  0  0
  -26.5890  -34.8160   22.4020 O   0  0  0  0  0  0  0  0  0  0  0  0
  -25.0840  -34.0680   25.0600 H   0  0  0  0  0  0  0  0  0  0  0  0
  -24.2210  -36.7360   23.1710 C   0  0  0  0  0  1  0  0  0  0  0  0
  -25.5060  -36.3390   23.9160 C   0  0  0  0  0  3  0  0  0  0  0  0
  -27.6820  -37.2420   24.6140 C   0  0  0  0  0  1  0  0  0  0  0  0
  -26.5350  -37.3860   23.7210 N   0  0  0  0  0  0  0  0  0  0  0  0
  -26.1380  -38.3120   23.8620 H   0  0  0  0  0  0  0  0  0  0  0  0
  -26.4270  -31.7260   25.2130 C   0  0  1  0  0  0  0  0  0  0  0  0
  -25.3210  -31.5210   26.2750 C   0  0  0  0  0  1  0  0  0  0  0  0
  -26.9900  -30.3330   24.8470 C   0  0  0  0  0  1  0  0  0  0  0  0
  -27.5850  -32.5100   25.8750 C   0  0  0  0  0  1  0  0  0  0  0  0
  1  3  1  0
  2  1  2  0
  3  5  1  0
  4  7  1  0
  6  4  2  0
  6  2  1  0
  7  3  2  0
  8 21  1  0
  9 14  1  0
 10 11  1  0
 10  9  1  0
 12 11  1  0
 12 25  1  0
 12 13  1  0
 14  8  1  0
 14 13  1  0
 15  8  2  0
 17 20  1  0
 18 16  1  0
 19 17  2  0
 19 21  1  0
 20  2  1  0
 20 16  2  0
 21 18  1  0
 22 23  2  0
 23 42  1  0
 24 23  1  0
 24 27  1  0
 25 26  1  0
 25 22  1  0
 26 24  2  0
 27 28  1  0
 28 29  2  0
 30 33  1  0
 30 29  1  0
 31 30  2  0
 32 31  1  0
 32 27  2  0
 33 34  1  0
 34 35  1  0
 35 36  2  0
 37 36  1  0
 37 41  1  0
 38 37  2  0
 39 34  2  0
 39 38  1  0
 40 39  1  0
 42 43  1  0
 43 46  1  0
 43 45  1  0
 44 42  2  0
 47 22  1  0
 47 48  1  0
 49 47  1  0
 50  4  1  0
 50 51  1  0
 52 63  2  0
 53 51  1  0
 53 58  1  0
 54 62  1  0
 54 64  1  0
 55 61  1  0
 55 57  1  0
 56 62  1  0
 57 56  1  0
 58 57  2  0
 59 60  1  0
 59 53  2  0
 60 55  2  0
 61 54  1  0
 62 52  1  0
 64 66  2  0
 65 64  1  0
 67 65  1  0
 68 77  2  0
 68 73  1  0
 69 65  1  0
 69 73  1  0
 70 69  1  0
 71 72  1  0
 71 70  1  0
 72 68  1  0
 73 74  2  0
 74 75  1  0
 76 75  2  0
 77 76  1  0
 78 52  1  0
 78 79  1  0
 78 88  1  0
 79 82  1  0
 80 84  1  0
 80 79  1  0
 81 80  2  0
 84 83  1  0
 86 87  1  0
 86 84  1  0
 86 85  1  0
 88 91  1  1
 88 89  1  0
 90 88  1  0
M  ISO  4   8 100  21 100  50 101  51 101
M  END
>  <TORSDO>  (64) 
F 17

>  <SCORE>  (64) 
-14.270

>  <name>  (64) 
65

>  <ligand_id>  (64) 
65

>  <original_smiles>  (64) 
[H]c1c(C([H])([H])[H])nc(C([H])([H])Oc2c([H])c([H])c3c(c2[H])C([H])([H])N(C(=O)C([H])(N([H])C(=O)C([H])(N([H])C([H])([H])[H])C([H])([H])[H])C(C([H])([H])[H])(C([H])([H])[H])C([H])([H])[H])C([H])(C(=O)N([H])C2([H])c4c([H])c([H])c([H])c([H])c4C([H])([H])C([H])([H])C2([H])[H])C3([H])[H])nc1C1([H])C([H])([H])C([H])([H])N(C(=O)N2C([H])([H])C([H])([H])C([H])([H])C([H])(n3nc(-c4c([H])c([H])c(Oc5c([H])c([H])c(F)c([H])c5F)c([H])c4[H])c(C(=O)N([H])[H])c3N([H])[H])C2([H])[H])C([H])([H])C1([H])[H]

>  <smiles>  (64) 
[H]c1c(C([H])([H])[H])nc(C([H])([H])Oc2c([H])c([H])c3c(c2[H])C([H])([H])N(C(=O)C([H])(N([H])C(=O)C([H])(N([H])C([H])([H])[H])C([H])([H])[H])C(C([H])([H])[H])(C([H])([H])[H])C([H])([H])[H])C([H])(C(=O)N([H])C2([H])c4c([H])c([H])c([H])c([H])c4C([H])([H])C([H])([H])C2([H])[H])C3([H])[H])nc1C1([H])C([H])([H])C([H])([H])N(C(=O)N2C([H])([H])C([H])([H])C([H])([H])C([H])(n3nc(-c4c([H])c([H])c(Oc5c([H])c([H])c(F)c([H])c5F)c([H])c4[H])c(C(=O)N([H])[H])c3N([H])[H])C2([H])[H])C([H])([H])C1([H])[H]

$$$$
66:0:0
     RDKit          3D

 95105  0  0  1  0  0  0  0  0999 V2000
  -28.2710  -20.9680   20.3670 C   0  0  0  0  0  3  0  0  0  0  0  0
  -28.5620  -18.5560   20.0170 C   0  0  0  0  0  0  0  0  0  0  0  0
  -27.7250  -19.7130   20.0580 C   0  0  0  0  0  0  0  0  0  0  0  0
  -29.9690  -18.7120   20.1650 C   0  0  0  0  0  0  0  0  0  0  0  0
  -29.6430  -21.1130   20.5730 C   0  0  0  0  0  0  0  0  0  0  0  0
  -26.2410  -19.7010   19.6900 C   0  0  0  0  0  1  0  0  0  0  0  0
  -30.4600  -19.9930   20.4590 N   0  0  0  0  0  0  0  0  0  0  0  0
  -30.1710  -22.4430   20.7650 N   0  0  0  0  0  0  0  0  0  0  0  0
  -31.1770  -22.5370   20.7890 H   0  0  0  0  0  0  0  0  0  0  0  0
  -31.3220  -14.7790   20.2180 C   0  0  0  0  0  0  0  0  0  0  0  0
  -31.2370  -12.4020   19.4490 C   0  0  0  0  0  2  0  0  0  0  0  0
  -30.3700  -12.2020   18.1890 C   0  0  0  0  0  2  0  0  0  0  0  0
  -28.8610  -12.0940   18.5020 C   0  0  0  0  0  2  0  0  0  0  0  0
  -28.3860  -13.1080   19.5760 C   0  0  0  0  0  3  0  0  0  0  0  0
  -29.3760  -13.1640   20.7540 C   0  0  0  0  0  2  0  0  0  0  0  0
  -30.6780  -13.5460   20.2030 N   0  0  0  0  0  0  0  0  0  0  0  0
  -32.5530  -14.7830   20.1780 O   0  0  0  0  0  0  0  0  0  0  0  0
  -31.6870  -17.3750   18.6840 C   0  0  0  0  0  2  0  0  0  0  0  0
  -30.7220  -16.2260   18.3940 C   0  0  0  0  0  2  0  0  0  0  0  0
  -31.0080  -17.4650   20.0490 C   0  0  0  0  0  3  0  0  0  0  0  0
  -30.6320  -15.9500   19.8490 N   0  0  0  0  0  0  0  0  0  0  0  0
  -25.9290  -13.6950   20.0370 C   0  0  0  0  0  0  0  0  0  0  0  0
  -24.8530  -12.9520   20.4410 C   0  0  0  0  0  0  0  0  0  0  0  0
  -25.3400  -11.6210   20.5970 C   0  0  0  0  0  0  0  0  0  0  0  0
  -27.0120  -12.8380   20.0030 N   0  0  0  0  0  0  0  0  0  0  0  0
  -26.6540  -11.5850   20.4030 N   0  0  0  0  0  0  0  0  0  0  0  0
  -24.6070  -10.3740   20.8660 C   0  0  0  0  0  0  0  0  0  0  0  0
  -24.8990   -9.5810   22.0000 C   0  0  0  0  0  3  0  0  0  0  0  0
  -24.1670   -8.4000   22.2540 C   0  0  0  0  0  3  0  0  0  0  0  0
  -23.1310   -7.9990   21.3720 C   0  0  0  0  0  0  0  0  0  0  0  0
  -22.8570   -8.7830   20.2330 C   0  0  0  0  0  3  0  0  0  0  0  0
  -23.5940   -9.9560   19.9790 C   0  0  0  0  0  3  0  0  0  0  0  0
  -22.3830   -6.8570   21.5240 O   0  0  0  0  0  0  0  0  0  0  0  0
  -22.0490   -6.3730   22.7660 C   0  0  0  0  0  0  0  0  0  0  0  0
  -21.3470   -7.1610   23.7030 C   0  0  0  0  0  3  0  0  0  0  0  0
  -20.9560   -6.6050   24.9380 C   0  0  0  0  0  3  0  0  0  0  0  0
  -21.2650   -5.2620   25.2370 C   0  0  0  0  0  0  0  0  0  0  0  0
  -21.9590   -4.4760   24.3010 C   0  0  0  0  0  3  0  0  0  0  0  0
  -22.3470   -5.0280   23.0700 C   0  0  0  0  0  0  0  0  0  0  0  0
  -22.9960   -4.2570   22.1620 F   0  0  0  0  0  0  0  0  0  0  0  0
  -20.8830   -4.7310   26.4180 F   0  0  0  0  0  0  0  0  0  0  0  0
  -23.4320  -13.4280   20.5540 C   0  0  0  0  0  0  0  0  0  0  0  0
  -22.6560  -12.8400   21.4510 N   0  0  0  0  0  0  0  0  0  0  0  0
  -23.0240  -14.3610   19.8630 O   0  0  0  0  0  0  0  0  0  0  0  0
  -23.0010  -12.0930   22.0360 H   0  0  0  0  0  0  0  0  0  0  0  0
  -21.7020  -13.1440   21.5670 H   0  0  0  0  0  0  0  0  0  0  0  0
  -26.0520  -15.0280   19.6590 N   0  0  0  0  0  0  0  0  0  0  0  0
  -25.2300  -15.5990   19.5100 H   0  0  0  0  0  0  0  0  0  0  0  0
  -26.8620  -15.3860   19.1780 H   0  0  0  0  0  0  0  0  0  0  0  0
  -28.2050  -16.0580   20.7520 C   0  0  0  0  0  2  0  0  0  0  0  0
  -26.8540  -16.7160   20.7600 C   0  0  0  0  0  2  0  0  0  0  0  0
  -27.9260  -17.2110   19.8140 C   0  0  0  0  0  3  0  0  0  0  0  0
  -29.4560  -23.6790   21.2910 C   0  0  0  0  0  3  0  0  0  0  0  0
  -29.5040  -25.0350   20.4140 C   0  0  0  0  0  3  0  0  0  0  0  0
  -29.1590  -26.3780   20.9650 O   0  0  0  0  0  0  0  0  0  0  0  0
  -24.8890  -31.6190   23.3490 C   0  0  0  0  0  0  0  0  0  0  0  0
  -27.9730  -27.1080   20.7200 C   0  0  0  0  0  0  0  0  0  0  0  0
  -23.8790  -30.1080   21.6720 C   0  0  0  0  0  3  0  0  0  0  0  0
  -25.5130  -28.5730   20.4240 C   0  0  0  0  0  0  0  0  0  0  0  0
  -26.3990  -30.5660   21.6570 C   0  0  0  0  0  2  0  0  0  0  0  0
  -26.6040  -29.1680   21.0760 C   0  0  0  0  0  0  0  0  0  0  0  0
  -27.8270  -28.4460   21.2050 C   0  0  0  0  0  3  0  0  0  0  0  0
  -26.8590  -26.5650   20.0350 C   0  0  0  0  0  3  0  0  0  0  0  0
  -25.6460  -27.2760   19.8990 C   0  0  0  0  0  3  0  0  0  0  0  0
  -24.2290  -29.3790   20.3460 C   0  0  0  0  0  2  0  0  0  0  0  0
  -25.0660  -30.7910   22.2820 N   0  0  0  0  0  0  0  0  0  0  0  0
  -23.7540  -31.8540   23.8000 O   0  0  0  0  0  0  0  0  0  0  0  0
  -23.2030  -29.0970   22.6290 C   0  0  0  0  0  0  0  0  0  0  0  0
  -21.9380  -28.7430   22.3350 N   0  0  0  0  0  0  0  0  0  0  0  0
  -23.8220  -28.6320   23.5930 O   0  0  0  0  0  0  0  0  0  0  0  0
  -21.4850  -29.1600   21.5320 H   0  0  0  0  0  0  0  0  0  0  0  0
  -18.7050  -27.1390   22.4600 C   0  0  0  0  0  0  0  0  0  0  0  0
  -21.1330  -27.7680   23.0800 C   0  0  0  0  0  3  0  0  0  0  0  0
  -21.4960  -26.3180   22.6950 C   0  0  0  0  0  2  0  0  0  0  0  0
  -20.6370  -25.7780   21.5470 C   0  0  0  0  0  2  0  0  0  0  0  0
  -19.1570  -25.7780   21.9520 C   0  0  0  0  0  2  0  0  0  0  0  0
  -19.6370  -28.0760   22.9770 C   0  0  0  0  0  0  0  0  0  0  0  0
  -19.1700  -29.3380   23.3970 C   0  0  0  0  0  3  0  0  0  0  0  0
  -17.8040  -29.6680   23.3230 C   0  0  0  0  0  3  0  0  0  0  0  0
  -16.8830  -28.7290   22.8200 C   0  0  0  0  0  3  0  0  0  0  0  0
  -17.3340  -27.4670   22.3880 C   0  0  0  0  0  3  0  0  0  0  0  0
  -26.0870  -32.3410   24.0360 C   0  0  0  0  0  3  0  0  0  0  0  0
  -26.5400  -31.6520   25.3820 C   0  0  1  0  0  0  0  0  0  0  0  0
  -25.3720  -31.3710   26.3590 C   0  0  0  0  0  1  0  0  0  0  0  0
  -27.2550  -30.3070   25.1080 C   0  0  0  0  0  1  0  0  0  0  0  0
  -27.5600  -32.5570   26.1110 C   0  0  0  0  0  1  0  0  0  0  0  0
  -25.6870  -33.7340   24.2700 N   0  0  0  0  0  0  0  0  0  0  0  0
  -26.0610  -34.7760   23.5180 C   0  0  0  0  0  0  0  0  0  0  0  0
  -26.8380  -34.6690   22.5650 O   0  0  0  0  0  0  0  0  0  0  0  0
  -24.9970  -33.8850   24.9950 H   0  0  0  0  0  0  0  0  0  0  0  0
  -24.3210  -36.4910   22.9110 C   0  0  0  0  0  1  0  0  0  0  0  0
  -25.4780  -36.1590   23.8700 C   0  0  0  0  0  3  0  0  0  0  0  0
  -27.4720  -37.1510   24.9050 C   0  0  0  0  0  1  0  0  0  0  0  0
  -26.4800  -37.2450   23.8340 N   0  0  0  0  0  0  0  0  0  0  0  0
  -26.0320  -38.1520   23.8960 H   0  0  0  0  0  0  0  0  0  0  0  0
  1  5  1  0
  2  3  1  0
  2  4  2  0
  3  1  2  0
  4  7  1  0
  5  8  1  0
  6  3  1  0
  7  5  2  0
  8  9  1  0
  8 53  1  0
 11 16  1  0
 12 13  1  0
 12 11  1  0
 14 13  1  0
 14 25  1  0
 14 15  1  0
 16 10  1  0
 16 15  1  0
 17 10  2  0
 18 20  1  0
 19 18  1  0
 19 21  1  0
 20  4  1  0
 21 20  1  0
 21 10  1  0
 22 23  2  0
 23 42  1  0
 23 24  1  0
 24 27  1  0
 25 22  1  0
 25 26  1  0
 26 24  2  0
 27 28  1  0
 28 29  2  0
 30 33  1  0
 30 29  1  0
 31 30  2  0
 32 31  1  0
 32 27  2  0
 33 34  1  0
 34 39  2  0
 34 35  1  0
 35 36  2  0
 36 37  1  0
 37 41  1  0
 38 37  2  0
 39 38  1  0
 40 39  1  0
 42 43  1  0
 43 46  1  0
 43 45  1  0
 44 42  2  0
 47 22  1  0
 48 47  1  0
 49 47  1  0
 50 51  1  0
 52  2  1  0
 52 50  1  0
 52 51  1  0
 54 55  1  0
 54 53  2  0
 56 67  2  0
 57 55  1  0
 57 62  1  0
 58 66  1  0
 58 68  1  0
 59 61  1  0
 60 66  1  0
 61 62  2  0
 61 60  1  0
 63 57  2  0
 64 63  1  0
 64 59  2  0
 65 59  1  0
 65 58  1  0
 66 56  1  0
 68 70  2  0
 69 68  1  0
 71 69  1  0
 72 77  1  0
 73 69  1  0
 74 73  1  0
 75 76  1  0
 75 74  1  0
 76 72  1  0
 77 73  1  0
 77 78  2  0
 79 78  1  0
 80 79  2  0
 81 72  2  0
 81 80  1  0
 82 56  1  0
 82 87  1  0
 82 83  1  0
 83 86  1  1
 83 84  1  0
 85 83  1  0
 87 90  1  0
 88 92  1  0
 88 87  1  0
 89 88  2  0
 92 91  1  0
 94 92  1  0
 94 95  1  0
 94 93  1  0
M  ISO  4  10 100  21 100  54 101  55 101
M  END
>  <TORSDO>  (65) 
F 19

>  <SCORE>  (65) 
-9.929

>  <name>  (65) 
66

>  <ligand_id>  (65) 
66

>  <original_smiles>  (65) 
[H]c1c([H])c([H])c2c(c1[H])C([H])([H])C([H])([H])C([H])([H])C2([H])N([H])C(=O)C1([H])N(C(=O)C([H])(N([H])C(=O)C([H])(N([H])C([H])([H])[H])C([H])([H])[H])C(C([H])([H])[H])(C([H])([H])[H])C([H])([H])[H])C([H])([H])c2c([H])c(OC([H])([H])C([H])([H])N([H])c3nc(C4([H])N(C(=O)N5C([H])([H])C([H])([H])C([H])([H])C([H])(n6nc(-c7c([H])c([H])c(Oc8c([H])c([H])c(F)c([H])c8F)c([H])c7[H])c(C(=O)N([H])[H])c6N([H])[H])C5([H])[H])C([H])([H])C4([H])[H])c(C4([H])C([H])([H])C4([H])[H])c(C([H])([H])[H])c3[H])c([H])c([H])c2C1([H])[H]

>  <smiles>  (65) 
[H]c1c([H])c([H])c2c(c1[H])C([H])([H])C([H])([H])C([H])([H])C2([H])N([H])C(=O)C1([H])N(C(=O)C([H])(N([H])C(=O)C([H])(N([H])C([H])([H])[H])C([H])([H])[H])C(C([H])([H])[H])(C([H])([H])[H])C([H])([H])[H])C([H])([H])c2c([H])c(OC([H])([H])C([H])([H])N([H])c3nc(C4([H])N(C(=O)N5C([H])([H])C([H])([H])C([H])([H])C([H])(n6nc(-c7c([H])c([H])c(Oc8c([H])c([H])c(F)c([H])c8F)c([H])c7[H])c(C(=O)N([H])[H])c6N([H])[H])C5([H])[H])C([H])([H])C4([H])[H])c(C4([H])C([H])([H])C4([H])[H])c(C([H])([H])[H])c3[H])c([H])c([H])c2C1([H])[H]

$$$$
67:0:0
     RDKit          3D

 95105  0  0  1  0  0  0  0  0999 V2000
  -30.7820  -21.1020   18.9660 C   0  0  0  0  0  0  0  0  0  0  0  0
  -30.8830  -22.4370   18.4440 C   0  0  0  0  0  0  0  0  0  0  0  0
  -29.7800  -20.7140   19.9170 C   0  0  0  0  0  0  0  0  0  0  0  0
  -30.1030  -23.5270   18.9560 C   0  0  0  0  0  0  0  0  0  0  0  0
  -28.9840  -21.8960   20.4010 C   0  0  0  0  0  0  0  0  0  0  0  0
  -29.1360  -23.3370   19.9820 C   0  0  0  0  0  0  0  0  0  0  0  0
  -31.8600  -20.1250   18.5010 C   0  0  0  0  0  2  0  0  0  0  0  0
  -31.8580  -22.7360   17.2750 C   0  0  0  0  0  2  0  0  0  0  0  0
  -32.0890  -20.2000   16.9910 C   0  0  0  0  0  2  0  0  0  0  0  0
  -32.6560  -21.5720   16.6480 C   0  0  0  0  0  2  0  0  0  0  0  0
  -30.3130  -24.9470   18.4200 C   0  0  0  0  0  1  0  0  0  0  0  0
  -27.9170  -21.5910   21.4480 C   0  0  0  0  0  1  0  0  0  0  0  0
  -30.7160  -15.1380   19.9800 C   0  0  0  0  0  0  0  0  0  0  0  0
  -30.5430  -12.8010   18.9700 C   0  0  0  0  0  2  0  0  0  0  0  0
  -29.5400  -12.7510   17.7950 C   0  0  0  0  0  2  0  0  0  0  0  0
  -28.1190  -12.4880   18.3220 C   0  0  0  0  0  2  0  0  0  0  0  0
  -27.7660  -13.3950   19.5280 C   0  0  0  0  0  3  0  0  0  0  0  0
  -28.8830  -13.4060   20.5920 C   0  0  0  0  0  2  0  0  0  0  0  0
  -30.1050  -13.8730   19.9200 N   0  0  0  0  0  0  0  0  0  0  0  0
  -31.8810  -15.1750   19.5580 O   0  0  0  0  0  0  0  0  0  0  0  0
  -30.6350  -18.5910   21.4930 C   0  0  0  0  0  2  0  0  0  0  0  0
  -30.4330  -17.0270   21.6460 C   0  0  0  0  0  2  0  0  0  0  0  0
  -29.6470  -17.6600   19.5750 C   0  0  0  0  0  2  0  0  0  0  0  0
  -29.6500  -19.1000   20.4320 C   0  0  0  0  0  3  0  0  0  0  0  0
  -30.0490  -16.3630   20.3720 N   0  0  0  0  0  0  0  0  0  0  0  0
  -25.4420  -13.9440   20.4390 C   0  0  0  0  0  0  0  0  0  0  0  0
  -24.4000  -13.1580   20.8460 C   0  0  0  0  0  0  0  0  0  0  0  0
  -24.8570  -11.8070   20.7360 C   0  0  0  0  0  0  0  0  0  0  0  0
  -26.4640  -13.0740   20.0980 N   0  0  0  0  0  0  0  0  0  0  0  0
  -26.1260  -11.7820   20.3430 N   0  0  0  0  0  0  0  0  0  0  0  0
  -24.1400  -10.5400   20.9300 C   0  0  0  0  0  0  0  0  0  0  0  0
  -24.5740   -9.5800   21.8710 C   0  0  0  0  0  3  0  0  0  0  0  0
  -23.8550   -8.3790   22.0490 C   0  0  0  0  0  3  0  0  0  0  0  0
  -22.6890   -8.1300   21.2880 C   0  0  0  0  0  0  0  0  0  0  0  0
  -22.2740   -9.0790   20.3370 C   0  0  0  0  0  3  0  0  0  0  0  0
  -22.9920  -10.2730   20.1570 C   0  0  0  0  0  3  0  0  0  0  0  0
  -21.9420   -6.9800   21.3750 O   0  0  0  0  0  0  0  0  0  0  0  0
  -21.8340   -6.2780   22.5490 C   0  0  0  0  0  0  0  0  0  0  0  0
  -21.2680   -6.8510   23.7090 C   0  0  0  0  0  3  0  0  0  0  0  0
  -21.1130   -6.0740   24.8740 C   0  0  0  0  0  3  0  0  0  0  0  0
  -21.5130   -4.7250   24.8790 C   0  0  0  0  0  0  0  0  0  0  0  0
  -22.0720   -4.1500   23.7240 C   0  0  0  0  0  3  0  0  0  0  0  0
  -22.2300   -4.9260   22.5620 C   0  0  0  0  0  0  0  0  0  0  0  0
  -22.7520   -4.3630   21.4440 F   0  0  0  0  0  0  0  0  0  0  0  0
  -21.3570   -3.9750   25.9960 F   0  0  0  0  0  0  0  0  0  0  0  0
  -23.0270  -13.6300   21.2200 C   0  0  0  0  0  0  0  0  0  0  0  0
  -22.3450  -12.9010   22.0950 N   0  0  0  0  0  0  0  0  0  0  0  0
  -22.5690  -14.6800   20.7710 O   0  0  0  0  0  0  0  0  0  0  0  0
  -22.7300  -12.0500   22.4780 H   0  0  0  0  0  0  0  0  0  0  0  0
  -21.4280  -13.2040   22.3890 H   0  0  0  0  0  0  0  0  0  0  0  0
  -25.5980  -15.3200   20.3100 N   0  0  0  0  0  0  0  0  0  0  0  0
  -24.8440  -15.9680   20.5150 H   0  0  0  0  0  0  0  0  0  0  0  0
  -26.4390  -15.7810   19.9850 H   0  0  0  0  0  0  0  0  0  0  0  0
  -28.2450  -24.6590   20.5180 C   0  0  0  0  0  2  0  0  0  0  0  0
  -28.4990  -26.2080   20.3140 O   0  0  0  0  0  0  0  0  0  0  0  0
  -24.6720  -31.8880   23.2160 C   0  0  0  0  0  0  0  0  0  0  0  0
  -27.4210  -27.1780   20.2750 C   0  0  0  0  0  0  0  0  0  0  0  0
  -23.5440  -30.4610   21.5540 C   0  0  0  0  0  3  0  0  0  0  0  0
  -25.0590  -28.9000   20.1790 C   0  0  0  0  0  0  0  0  0  0  0  0
  -26.0980  -30.7600   21.4640 C   0  0  0  0  0  2  0  0  0  0  0  0
  -26.2170  -29.3660   20.8170 C   0  0  0  0  0  0  0  0  0  0  0  0
  -27.4000  -28.5260   20.8390 C   0  0  0  0  0  3  0  0  0  0  0  0
  -26.2340  -26.8300   19.5940 C   0  0  0  0  0  3  0  0  0  0  0  0
  -25.0830  -27.6460   19.5500 C   0  0  0  0  0  3  0  0  0  0  0  0
  -23.8170  -29.7810   20.1890 C   0  0  0  0  0  2  0  0  0  0  0  0
  -24.7910  -31.0580   22.1340 N   0  0  0  0  0  0  0  0  0  0  0  0
  -23.5650  -32.1580   23.7060 O   0  0  0  0  0  0  0  0  0  0  0  0
  -22.8580  -29.4480   22.5010 C   0  0  0  0  0  0  0  0  0  0  0  0
  -21.5310  -29.2730   22.3600 N   0  0  0  0  0  0  0  0  0  0  0  0
  -23.5230  -28.8200   23.3310 O   0  0  0  0  0  0  0  0  0  0  0  0
  -21.0490  -29.8420   21.6800 H   0  0  0  0  0  0  0  0  0  0  0  0
  -18.1400  -28.0960   22.8610 C   0  0  0  0  0  0  0  0  0  0  0  0
  -20.7030  -28.3290   23.1140 C   0  0  0  0  0  3  0  0  0  0  0  0
  -20.7850  -26.9050   22.5140 C   0  0  0  0  0  2  0  0  0  0  0  0
  -19.6730  -26.6140   21.5000 C   0  0  0  0  0  2  0  0  0  0  0  0
  -18.2970  -26.7590   22.1540 C   0  0  0  0  0  2  0  0  0  0  0  0
  -19.2700  -28.8400   23.2960 C   0  0  0  0  0  0  0  0  0  0  0  0
  -19.0660  -30.0920   23.9140 C   0  0  0  0  0  3  0  0  0  0  0  0
  -17.7690  -30.6030   24.1020 C   0  0  0  0  0  3  0  0  0  0  0  0
  -16.6540  -29.8570   23.6800 C   0  0  0  0  0  3  0  0  0  0  0  0
  -16.8410  -28.6060   23.0660 C   0  0  0  0  0  3  0  0  0  0  0  0
  -25.9190  -32.5510   23.8730 C   0  0  0  0  0  3  0  0  0  0  0  0
  -25.5670  -33.9450   24.1910 N   0  0  0  0  0  0  0  0  0  0  0  0
  -25.8830  -35.0040   23.4350 C   0  0  0  0  0  0  0  0  0  0  0  0
  -26.5650  -34.9140   22.4110 O   0  0  0  0  0  0  0  0  0  0  0  0
  -24.9470  -34.0820   24.9760 H   0  0  0  0  0  0  0  0  0  0  0  0
  -24.1160  -36.7640   23.0800 C   0  0  0  0  0  1  0  0  0  0  0  0
  -25.3670  -36.3830   23.8870 C   0  0  0  0  0  3  0  0  0  0  0  0
  -27.4770  -37.3310   24.7210 C   0  0  0  0  0  1  0  0  0  0  0  0
  -26.3770  -37.4600   23.7670 N   0  0  0  0  0  0  0  0  0  0  0  0
  -25.9500  -38.3720   23.9030 H   0  0  0  0  0  0  0  0  0  0  0  0
  -26.4130  -31.7960   25.1720 C   0  0  1  0  0  0  0  0  0  0  0  0
  -25.2950  -31.5250   26.2090 C   0  0  0  0  0  1  0  0  0  0  0  0
  -27.0420  -30.4290   24.8090 C   0  0  0  0  0  1  0  0  0  0  0  0
  -27.5200  -32.6270   25.8630 C   0  0  0  0  0  1  0  0  0  0  0  0
  1  3  1  0
  2  4  1  0
  2  1  2  0
  3  5  2  0
  4  6  2  0
  5 12  1  0
  6  5  1  0
  6 54  1  0
  7  1  1  0
  8  2  1  0
  9  7  1  0
 10  9  1  0
 10  8  1  0
 11  4  1  0
 13 25  1  0
 14 19  1  0
 15 16  1  0
 15 14  1  0
 17 16  1  0
 17 29  1  0
 17 18  1  0
 19 13  1  0
 19 18  1  0
 20 13  2  0
 21 22  1  0
 23 25  1  0
 23 24  1  0
 24  3  1  0
 24 21  1  0
 25 22  1  0
 26 27  2  0
 27 46  1  0
 28 27  1  0
 28 31  1  0
 29 30  1  0
 29 26  1  0
 30 28  2  0
 31 32  1  0
 32 33  2  0
 34 37  1  0
 34 33  1  0
 35 34  2  0
 36 35  1  0
 36 31  2  0
 37 38  1  0
 38 43  2  0
 38 39  1  0
 39 40  2  0
 40 41  1  0
 41 45  1  0
 42 41  2  0
 43 42  1  0
 44 43  1  0
 46 47  1  0
 47 50  1  0
 47 49  1  0
 48 46  2  0
 51 26  1  0
 51 52  1  0
 53 51  1  0
 55 54  1  0
 56 67  2  0
 57 55  1  0
 57 62  1  0
 58 66  1  0
 58 68  1  0
 59 65  1  0
 59 61  1  0
 60 66  1  0
 61 62  2  0
 61 60  1  0
 63 57  2  0
 64 63  1  0
 64 59  2  0
 65 58  1  0
 66 56  1  0
 68 70  2  0
 69 68  1  0
 71 69  1  0
 72 81  2  0
 72 77  1  0
 73 69  1  0
 73 77  1  0
 74 73  1  0
 75 76  1  0
 75 74  1  0
 76 72  1  0
 77 78  2  0
 78 79  1  0
 80 79  2  0
 81 80  1  0
 82 56  1  0
 82 83  1  0
 82 92  1  0
 83 86  1  0
 84 88  1  0
 84 83  1  0
 85 84  2  0
 88 87  1  0
 90 88  1  0
 90 91  1  0
 90 89  1  0
 92 95  1  1
 92 93  1  0
 94 92  1  0
M  ISO  4  13 100  25 100  54 101  55 101
M  END
>  <TORSDO>  (66) 
F 17

>  <SCORE>  (66) 
-15.474

>  <name>  (66) 
67

>  <ligand_id>  (66) 
67

>  <original_smiles>  (66) 
[H]c1c([H])c([H])c2c(c1[H])C([H])([H])C([H])([H])C([H])([H])C2([H])N([H])C(=O)C1([H])N(C(=O)C([H])(N([H])C(=O)C([H])(N([H])C([H])([H])[H])C([H])([H])[H])C(C([H])([H])[H])(C([H])([H])[H])C([H])([H])[H])C([H])([H])c2c([H])c(OC([H])([H])c3c(C([H])([H])[H])c4c(c(C5([H])C([H])([H])N(C(=O)N6C([H])([H])C([H])([H])C([H])([H])C([H])(n7nc(-c8c([H])c([H])c(Oc9c([H])c([H])c(F)c([H])c9F)c([H])c8[H])c(C(=O)N([H])[H])c7N([H])[H])C6([H])[H])C([H])([H])C5([H])[H])c3C([H])([H])[H])C([H])([H])C([H])([H])C([H])([H])C4([H])[H])c([H])c([H])c2C1([H])[H]

>  <smiles>  (66) 
[H]c1c([H])c([H])c2c(c1[H])C([H])([H])C([H])([H])C([H])([H])C2([H])N([H])C(=O)C1([H])N(C(=O)C([H])(N([H])C(=O)C([H])(N([H])C([H])([H])[H])C([H])([H])[H])C(C([H])([H])[H])(C([H])([H])[H])C([H])([H])[H])C([H])([H])c2c([H])c(OC([H])([H])c3c(C([H])([H])[H])c4c(c(C5([H])C([H])([H])N(C(=O)N6C([H])([H])C([H])([H])C([H])([H])C([H])(n7nc(-c8c([H])c([H])c(Oc9c([H])c([H])c(F)c([H])c9F)c([H])c8[H])c(C(=O)N([H])[H])c7N([H])[H])C6([H])[H])C([H])([H])C5([H])[H])c3C([H])([H])[H])C([H])([H])C([H])([H])C([H])([H])C4([H])[H])c([H])c([H])c2C1([H])[H]

$$$$
68:0:0
     RDKit          3D

 94103  0  0  1  0  0  0  0  0999 V2000
  -29.9710  -21.5070   19.2800 C   0  0  0  0  0  3  0  0  0  0  0  0
  -28.2660  -21.4490   20.8880 C   0  0  0  0  0  3  0  0  0  0  0  0
  -29.2590  -20.6770   20.2060 C   0  0  0  0  0  0  0  0  0  0  0  0
  -29.6520  -22.9160   19.0860 C   0  0  0  0  0  0  0  0  0  0  0  0
  -28.6110  -23.5880   19.8180 C   0  0  0  0  0  0  0  0  0  0  0  0
  -30.4100  -23.6960   18.0260 C   0  0  0  0  0  1  0  0  0  0  0  0
  -27.9640  -22.7840   20.7150 N   0  0  0  0  0  0  0  0  0  0  0  0
  -30.2140  -19.0590   21.9220 C   0  0  0  0  0  2  0  0  0  0  0  0
  -31.7610  -18.1950   20.3490 C   0  0  0  0  0  2  0  0  0  0  0  0
  -29.4480  -19.0850   20.5950 C   0  0  0  0  0  3  0  0  0  0  0  0
  -30.3260  -17.9000   19.8350 C   0  0  0  0  0  3  0  0  0  0  0  0
  -32.5900  -18.8430   22.6060 C   0  0  0  0  0  1  0  0  0  0  0  0
  -31.6280  -19.1010   21.5110 N   0  0  2  0  0  4  0  0  0  0  0  0
  -31.7940  -20.0370   21.1720 H   0  0  0  0  0  0  0  0  0  0  0  0
  -30.7370  -15.1930   19.7800 C   0  0  0  0  0  0  0  0  0  0  0  0
  -30.5420  -12.8480   18.8770 C   0  0  0  0  0  2  0  0  0  0  0  0
  -29.5320  -12.8030   17.7080 C   0  0  0  0  0  2  0  0  0  0  0  0
  -28.1020  -12.5920   18.2400 C   0  0  0  0  0  2  0  0  0  0  0  0
  -27.7670  -13.5230   19.4340 C   0  0  0  0  0  3  0  0  0  0  0  0
  -28.8970  -13.5530   20.4890 C   0  0  0  0  0  2  0  0  0  0  0  0
  -30.1300  -13.9450   19.7940 N   0  0  0  0  0  0  0  0  0  0  0  0
  -31.8950  -15.2640   19.3630 O   0  0  0  0  0  0  0  0  0  0  0  0
  -29.9990  -16.3700   20.0370 N   0  0  0  0  0  0  0  0  0  0  0  0
  -29.0490  -16.1870   20.3220 H   0  0  0  0  0  0  0  0  0  0  0  0
  -25.4570  -14.0810   20.3860 C   0  0  0  0  0  0  0  0  0  0  0  0
  -24.4190  -13.2940   20.8030 C   0  0  0  0  0  0  0  0  0  0  0  0
  -24.8680  -11.9440   20.6730 C   0  0  0  0  0  0  0  0  0  0  0  0
  -26.4700  -13.2100   20.0230 N   0  0  0  0  0  0  0  0  0  0  0  0
  -26.1290  -11.9170   20.2600 N   0  0  0  0  0  0  0  0  0  0  0  0
  -24.1470  -10.6780   20.8610 C   0  0  0  0  0  0  0  0  0  0  0  0
  -24.5460   -9.7390   21.8380 C   0  0  0  0  0  3  0  0  0  0  0  0
  -23.8240   -8.5370   22.0130 C   0  0  0  0  0  3  0  0  0  0  0  0
  -22.6890   -8.2680   21.2120 C   0  0  0  0  0  0  0  0  0  0  0  0
  -22.3110   -9.1960   20.2250 C   0  0  0  0  0  3  0  0  0  0  0  0
  -23.0340  -10.3880   20.0480 C   0  0  0  0  0  3  0  0  0  0  0  0
  -21.9430   -7.1170   21.2940 O   0  0  0  0  0  0  0  0  0  0  0  0
  -21.7520   -6.4670   22.4860 C   0  0  0  0  0  0  0  0  0  0  0  0
  -21.0470   -7.0610   23.5560 C   0  0  0  0  0  3  0  0  0  0  0  0
  -20.8150   -6.3310   24.7390 C   0  0  0  0  0  3  0  0  0  0  0  0
  -21.2770   -5.0060   24.8510 C   0  0  0  0  0  0  0  0  0  0  0  0
  -21.9750   -4.4110   23.7860 C   0  0  0  0  0  3  0  0  0  0  0  0
  -22.2090   -5.1390   22.6050 C   0  0  0  0  0  0  0  0  0  0  0  0
  -22.8630   -4.5530   21.5730 F   0  0  0  0  0  0  0  0  0  0  0  0
  -21.0480   -4.3010   25.9840 F   0  0  0  0  0  0  0  0  0  0  0  0
  -23.0510  -13.7650   21.2050 C   0  0  0  0  0  0  0  0  0  0  0  0
  -22.3820  -13.0260   22.0820 N   0  0  0  0  0  0  0  0  0  0  0  0
  -22.5880  -14.8220   20.7770 O   0  0  0  0  0  0  0  0  0  0  0  0
  -22.7710  -12.1700   22.4480 H   0  0  0  0  0  0  0  0  0  0  0  0
  -21.4670  -13.3200   22.3930 H   0  0  0  0  0  0  0  0  0  0  0  0
  -25.6150  -15.4570   20.2570 N   0  0  0  0  0  0  0  0  0  0  0  0
  -24.8560  -16.1030   20.4480 H   0  0  0  0  0  0  0  0  0  0  0  0
  -26.4170  -15.9050   19.8350 H   0  0  0  0  0  0  0  0  0  0  0  0
  -27.8620  -24.9870   19.3920 C   0  0  0  0  0  2  0  0  0  0  0  0
  -28.1770  -26.4550   19.7440 O   0  0  0  0  0  0  0  0  0  0  0  0
  -24.5080  -31.9010   23.0310 C   0  0  0  0  0  0  0  0  0  0  0  0
  -27.1080  -27.4200   19.7140 C   0  0  0  0  0  0  0  0  0  0  0  0
  -23.2890  -30.5370   21.3820 C   0  0  0  0  0  3  0  0  0  0  0  0
  -24.7280  -29.0800   19.8370 C   0  0  0  0  0  0  0  0  0  0  0  0
  -25.8230  -30.8930   21.1360 C   0  0  0  0  0  2  0  0  0  0  0  0
  -25.9130  -29.5340   20.4290 C   0  0  0  0  0  0  0  0  0  0  0  0
  -27.1020  -28.7160   20.3630 C   0  0  0  0  0  3  0  0  0  0  0  0
  -25.8970  -27.0860   19.0580 C   0  0  0  0  0  3  0  0  0  0  0  0
  -24.7310  -27.8680   19.1390 C   0  0  0  0  0  3  0  0  0  0  0  0
  -23.4760  -29.9300   19.9680 C   0  0  0  0  0  2  0  0  0  0  0  0
  -24.5620  -31.1290   21.9060 N   0  0  0  0  0  0  0  0  0  0  0  0
  -23.4360  -32.1310   23.6090 O   0  0  0  0  0  0  0  0  0  0  0  0
  -22.6790  -29.4670   22.3230 C   0  0  0  0  0  0  0  0  0  0  0  0
  -21.3510  -29.2670   22.2440 N   0  0  0  0  0  0  0  0  0  0  0  0
  -23.4010  -28.8230   23.0880 O   0  0  0  0  0  0  0  0  0  0  0  0
  -20.8220  -29.8430   21.6040 H   0  0  0  0  0  0  0  0  0  0  0  0
  -18.0220  -27.9760   22.8470 C   0  0  0  0  0  0  0  0  0  0  0  0
  -20.5850  -28.2780   23.0070 C   0  0  0  0  0  3  0  0  0  0  0  0
  -20.6870  -26.8760   22.3640 C   0  0  0  0  0  2  0  0  0  0  0  0
  -19.5440  -26.5770   21.3880 C   0  0  0  0  0  2  0  0  0  0  0  0
  -18.1910  -26.6630   22.1010 C   0  0  0  0  0  2  0  0  0  0  0  0
  -19.1450  -28.7400   23.2600 C   0  0  0  0  0  0  0  0  0  0  0  0
  -18.9300  -29.9690   23.9210 C   0  0  0  0  0  3  0  0  0  0  0  0
  -17.6250  -30.4340   24.1730 C   0  0  0  0  0  3  0  0  0  0  0  0
  -16.5170  -29.6650   23.7760 C   0  0  0  0  0  3  0  0  0  0  0  0
  -16.7160  -28.4370   23.1180 C   0  0  0  0  0  3  0  0  0  0  0  0
  -25.7920  -32.5490   23.6340 C   0  0  0  0  0  3  0  0  0  0  0  0
  -25.4510  -33.9200   24.0420 N   0  0  0  0  0  0  0  0  0  0  0  0
  -25.7540  -35.0230   23.3440 C   0  0  0  0  0  0  0  0  0  0  0  0
  -26.4200  -34.9930   22.3050 O   0  0  0  0  0  0  0  0  0  0  0  0
  -24.8570  -34.0150   24.8540 H   0  0  0  0  0  0  0  0  0  0  0  0
  -24.0240  -36.8270   23.0630 C   0  0  0  0  0  1  0  0  0  0  0  0
  -25.2420  -36.3720   23.8830 C   0  0  0  0  0  3  0  0  0  0  0  0
  -27.3270  -37.2220   24.8610 C   0  0  0  0  0  1  0  0  0  0  0  0
  -26.2680  -37.4370   23.8790 N   0  0  0  0  0  0  0  0  0  0  0  0
  -25.8460  -38.3450   24.0620 H   0  0  0  0  0  0  0  0  0  0  0  0
  -26.3780  -31.7390   24.8550 C   0  0  1  0  0  0  0  0  0  0  0  0
  -25.3300  -31.4080   25.9440 C   0  0  0  0  0  1  0  0  0  0  0  0
  -27.0020  -30.4060   24.3830 C   0  0  0  0  0  1  0  0  0  0  0  0
  -27.5180  -32.5470   25.5190 C   0  0  0  0  0  1  0  0  0  0  0  0
  1  3  1  0
  3  2  2  0
  4  1  2  0
  4  5  1  0
  5  7  2  0
  6  4  1  0
  7  2  1  0
  9 13  1  0
 10  3  1  0
 10  8  1  0
 11 23  1  0
 11  9  1  0
 11 10  1  0
 13  8  1  0
 13 12  1  0
 13 14  1  6
 15 21  1  0
 15 23  1  0
 16 21  1  0
 17 18  1  0
 17 16  1  0
 19 18  1  0
 19 28  1  0
 19 20  1  0
 21 20  1  0
 22 15  2  0
 23 24  1  0
 25 26  2  0
 26 45  1  0
 27 26  1  0
 27 30  1  0
 28 29  1  0
 28 25  1  0
 29 27  2  0
 30 31  1  0
 31 32  2  0
 33 36  1  0
 33 32  1  0
 34 33  2  0
 35 34  1  0
 35 30  2  0
 36 37  1  0
 37 42  2  0
 37 38  1  0
 38 39  2  0
 39 40  1  0
 40 44  1  0
 41 40  2  0
 42 41  1  0
 43 42  1  0
 45 46  1  0
 46 49  1  0
 46 48  1  0
 47 45  2  0
 50 25  1  0
 50 51  1  0
 52 50  1  0
 53 54  1  0
 53  5  1  0
 55 66  2  0
 56 54  1  0
 56 61  1  0
 57 65  1  0
 57 67  1  0
 58 64  1  0
 58 60  1  0
 59 65  1  0
 60 59  1  0
 61 60  2  0
 62 63  1  0
 62 56  2  0
 63 58  2  0
 64 57  1  0
 65 55  1  0
 67 69  2  0
 68 67  1  0
 70 68  1  0
 71 80  2  0
 71 76  1  0
 72 68  1  0
 72 76  1  0
 73 72  1  0
 74 75  1  0
 74 73  1  0
 75 71  1  0
 76 77  2  0
 77 78  1  0
 79 78  2  0
 80 79  1  0
 81 55  1  0
 81 82  1  0
 81 91  1  0
 82 85  1  0
 83 87  1  0
 83 82  1  0
 84 83  2  0
 87 86  1  0
 89 87  1  0
 89 90  1  0
 89 88  1  0
 91 94  1  1
 91 92  1  0
 93 91  1  0
M  ISO  4  15 100  23 100  53 101  54 101
M  END
>  <TORSDO>  (67) 
F 18

>  <SCORE>  (67) 
-13.088

>  <name>  (67) 
68

>  <ligand_id>  (67) 
68

>  <original_smiles>  (67) 
[H]c1nc(C([H])([H])Oc2c([H])c([H])c3c(c2[H])C([H])([H])N(C(=O)C([H])(N([H])C(=O)C([H])(N([H])C([H])([H])[H])C([H])([H])[H])C(C([H])([H])[H])(C([H])([H])[H])C([H])([H])[H])C([H])(C(=O)N([H])C2([H])c4c([H])c([H])c([H])c([H])c4C([H])([H])C([H])([H])C2([H])[H])C3([H])[H])c(C([H])([H])[H])c([H])c1C1([H])C([H])(N([H])C(=O)N2C([H])([H])C([H])([H])C([H])([H])C([H])(n3nc(-c4c([H])c([H])c(Oc5c([H])c([H])c(F)c([H])c5F)c([H])c4[H])c(C(=O)N([H])[H])c3N([H])[H])C2([H])[H])C([H])([H])[N+]([H])(C([H])([H])[H])C1([H])[H]

>  <smiles>  (67) 
[H]c1nc(C([H])([H])Oc2c([H])c([H])c3c(c2[H])C([H])([H])N(C(=O)C([H])(N([H])C(=O)C([H])(N([H])C([H])([H])[H])C([H])([H])[H])C(C([H])([H])[H])(C([H])([H])[H])C([H])([H])[H])C([H])(C(=O)N([H])C2([H])c4c([H])c([H])c([H])c([H])c4C([H])([H])C([H])([H])C2([H])[H])C3([H])[H])c(C([H])([H])[H])c([H])c1C1([H])C([H])(N([H])C(=O)N2C([H])([H])C([H])([H])C([H])([H])C([H])(n3nc(-c4c([H])c([H])c(Oc5c([H])c([H])c(F)c([H])c5F)c([H])c4[H])c(C(=O)N([H])[H])c3N([H])[H])C2([H])[H])C([H])([H])[N+]([H])(C([H])([H])[H])C1([H])[H]

$$$$
69:0:0
     RDKit          3D

 95105  0  0  1  0  0  0  0  0999 V2000
  -29.7320  -21.8970   21.4970 C   0  0  0  0  0  0  0  0  0  0  0  0
  -28.4860  -23.5950   20.1410 C   0  0  0  0  0  0  0  0  0  0  0  0
  -29.3300  -23.2620   21.2330 C   0  0  0  0  0  0  0  0  0  0  0  0
  -29.3170  -20.8410   20.6190 C   0  0  0  0  0  0  0  0  0  0  0  0
  -28.1260  -22.4610   19.3440 C   0  0  0  0  0  0  0  0  0  0  0  0
  -27.1860  -22.5900   18.1580 C   0  0  0  0  0  1  0  0  0  0  0  0
  -28.5250  -21.1700   19.5690 N   0  0  0  0  0  0  0  0  0  0  0  0
  -29.8400  -24.5470   22.2740 Cl  0  0  0  0  0  0  0  0  0  0  0  0
  -30.9090  -14.8970   20.3000 C   0  0  0  0  0  0  0  0  0  0  0  0
  -30.6060  -12.6430   19.2680 C   0  0  0  0  0  2  0  0  0  0  0  0
  -29.6480  -12.6730   18.0640 C   0  0  0  0  0  2  0  0  0  0  0  0
  -28.2000  -12.4630   18.5360 C   0  0  0  0  0  2  0  0  0  0  0  0
  -27.8320  -13.3540   19.7550 C   0  0  0  0  0  3  0  0  0  0  0  0
  -28.9260  -13.3340   20.8460 C   0  0  0  0  0  2  0  0  0  0  0  0
  -30.1790  -13.7290   20.1910 N   0  0  0  0  0  0  0  0  0  0  0  0
  -32.1090  -14.8250   20.0230 O   0  0  0  0  0  0  0  0  0  0  0  0
  -28.6540  -18.1870   20.8230 C   0  0  0  0  0  2  0  0  0  0  0  0
  -30.6970  -18.7600   19.6850 C   0  0  0  0  0  2  0  0  0  0  0  0
  -29.1560  -16.6910   21.0820 C   0  0  0  0  0  2  0  0  0  0  0  0
  -31.2690  -17.3250   19.9690 C   0  0  0  0  0  2  0  0  0  0  0  0
  -29.7490  -19.3010   20.7690 C   0  0  0  0  0  3  0  0  0  0  0  0
  -30.3420  -16.1900   20.3200 N   0  0  0  0  0  0  0  0  0  0  0  0
  -25.4620  -13.8730   20.5780 C   0  0  0  0  0  0  0  0  0  0  0  0
  -24.4210  -13.0680   20.9490 C   0  0  0  0  0  0  0  0  0  0  0  0
  -24.9060  -11.7270   20.8590 C   0  0  0  0  0  0  0  0  0  0  0  0
  -26.5140  -13.0220   20.2840 N   0  0  0  0  0  0  0  0  0  0  0  0
  -26.1890  -11.7230   20.5160 N   0  0  0  0  0  0  0  0  0  0  0  0
  -24.2040  -10.4470   21.0220 C   0  0  0  0  0  0  0  0  0  0  0  0
  -24.6170   -9.4950   21.9800 C   0  0  0  0  0  3  0  0  0  0  0  0
  -23.9130   -8.2800   22.1320 C   0  0  0  0  0  3  0  0  0  0  0  0
  -22.7820   -8.0090   21.3250 C   0  0  0  0  0  0  0  0  0  0  0  0
  -22.3900   -8.9510   20.3570 C   0  0  0  0  0  3  0  0  0  0  0  0
  -23.0950  -10.1560   20.2030 C   0  0  0  0  0  3  0  0  0  0  0  0
  -22.0520   -6.8470   21.3860 O   0  0  0  0  0  0  0  0  0  0  0  0
  -21.8720   -6.1710   22.5660 C   0  0  0  0  0  0  0  0  0  0  0  0
  -21.2620   -6.7770   23.6860 C   0  0  0  0  0  3  0  0  0  0  0  0
  -21.0340   -6.0250   24.8560 C   0  0  0  0  0  3  0  0  0  0  0  0
  -21.4040   -4.6670   24.9050 C   0  0  0  0  0  0  0  0  0  0  0  0
  -22.0060   -4.0610   23.7890 C   0  0  0  0  0  3  0  0  0  0  0  0
  -22.2360   -4.8100   22.6210 C   0  0  0  0  0  0  0  0  0  0  0  0
  -22.7980   -4.2150   21.5410 F   0  0  0  0  0  0  0  0  0  0  0  0
  -21.1780   -3.9430   26.0260 F   0  0  0  0  0  0  0  0  0  0  0  0
  -23.0250  -13.5130   21.2720 C   0  0  0  0  0  0  0  0  0  0  0  0
  -22.3350  -12.7810   22.1400 N   0  0  0  0  0  0  0  0  0  0  0  0
  -22.5540  -14.5430   20.7910 O   0  0  0  0  0  0  0  0  0  0  0  0
  -22.7280  -11.9480   22.5510 H   0  0  0  0  0  0  0  0  0  0  0  0
  -21.3980  -13.0600   22.3990 H   0  0  0  0  0  0  0  0  0  0  0  0
  -25.5960  -15.2510   20.4390 N   0  0  0  0  0  0  0  0  0  0  0  0
  -24.8190  -15.8850   20.5920 H   0  0  0  0  0  0  0  0  0  0  0  0
  -26.4230  -15.7160   20.0890 H   0  0  0  0  0  0  0  0  0  0  0  0
  -30.1540  -20.6430   23.7910 C   0  0  0  0  0  2  0  0  0  0  0  0
  -30.2860  -22.1100   24.0860 C   0  0  0  0  0  2  0  0  0  0  0  0
  -30.6020  -21.5920   22.6950 C   0  0  0  0  0  3  0  0  0  0  0  0
  -27.7050  -24.9830   19.9750 C   0  0  0  0  0  2  0  0  0  0  0  0
  -28.1490  -26.3890   20.2960 O   0  0  0  0  0  0  0  0  0  0  0  0
  -24.7510  -32.0200   23.4360 C   0  0  0  0  0  0  0  0  0  0  0  0
  -27.1240  -27.3780   20.2430 C   0  0  0  0  0  0  0  0  0  0  0  0
  -23.4700  -30.6880   21.8070 C   0  0  0  0  0  3  0  0  0  0  0  0
  -24.8380  -29.1320   20.3150 C   0  0  0  0  0  0  0  0  0  0  0  0
  -26.0230  -30.9090   21.5810 C   0  0  0  0  0  2  0  0  0  0  0  0
  -26.0400  -29.5400   20.9050 C   0  0  0  0  0  0  0  0  0  0  0  0
  -27.1860  -28.6730   20.8680 C   0  0  0  0  0  3  0  0  0  0  0  0
  -25.9000  -27.0770   19.5910 C   0  0  0  0  0  3  0  0  0  0  0  0
  -24.7740  -27.9070   19.6480 C   0  0  0  0  0  3  0  0  0  0  0  0
  -23.6340  -30.0460   20.4080 C   0  0  0  0  0  2  0  0  0  0  0  0
  -24.7690  -31.2220   22.3300 N   0  0  0  0  0  0  0  0  0  0  0  0
  -23.6880  -32.3240   23.9960 O   0  0  0  0  0  0  0  0  0  0  0  0
  -22.7970  -29.6710   22.7610 C   0  0  0  0  0  0  0  0  0  0  0  0
  -21.4810  -29.4580   22.5920 N   0  0  0  0  0  0  0  0  0  0  0  0
  -23.4600  -29.0790   23.6170 O   0  0  0  0  0  0  0  0  0  0  0  0
  -21.0040  -29.9890   21.8760 H   0  0  0  0  0  0  0  0  0  0  0  0
  -18.1370  -28.1150   22.9360 C   0  0  0  0  0  0  0  0  0  0  0  0
  -20.6560  -28.5190   23.3570 C   0  0  0  0  0  3  0  0  0  0  0  0
  -20.8660  -27.0670   22.8660 C   0  0  0  0  0  2  0  0  0  0  0  0
  -19.8510  -26.6380   21.8010 C   0  0  0  0  0  2  0  0  0  0  0  0
  -18.4230  -26.7450   22.3460 C   0  0  0  0  0  2  0  0  0  0  0  0
  -19.1870  -28.9540   23.3970 C   0  0  0  0  0  0  0  0  0  0  0  0
  -18.8680  -30.2310   23.9070 C   0  0  0  0  0  3  0  0  0  0  0  0
  -17.5320  -30.6720   23.9620 C   0  0  0  0  0  3  0  0  0  0  0  0
  -16.4960  -29.8310   23.5180 C   0  0  0  0  0  3  0  0  0  0  0  0
  -16.7990  -28.5550   23.0110 C   0  0  0  0  0  3  0  0  0  0  0  0
  -26.0640  -32.6050   24.0370 C   0  0  0  0  0  3  0  0  0  0  0  0
  -25.8060  -34.0110   24.3810 N   0  0  0  0  0  0  0  0  0  0  0  0
  -26.1260  -35.0570   23.6080 C   0  0  0  0  0  0  0  0  0  0  0  0
  -26.7410  -34.9380   22.5440 O   0  0  0  0  0  0  0  0  0  0  0  0
  -25.2560  -34.1800   25.2110 H   0  0  0  0  0  0  0  0  0  0  0  0
  -24.4150  -36.8840   23.3600 C   0  0  0  0  0  1  0  0  0  0  0  0
  -25.6980  -36.4570   24.0900 C   0  0  0  0  0  3  0  0  0  0  0  0
  -27.8970  -37.3040   24.7800 C   0  0  0  0  0  1  0  0  0  0  0  0
  -26.7420  -37.4880   23.9050 N   0  0  0  0  0  0  0  0  0  0  0  0
  -26.3640  -38.4180   24.0700 H   0  0  0  0  0  0  0  0  0  0  0  0
  -26.5770  -31.8100   25.3000 C   0  0  1  0  0  0  0  0  0  0  0  0
  -25.4900  -31.5890   26.3780 C   0  0  0  0  0  1  0  0  0  0  0  0
  -27.1230  -30.4220   24.8930 C   0  0  0  0  0  1  0  0  0  0  0  0
  -27.7540  -32.5710   25.9550 C   0  0  0  0  0  1  0  0  0  0  0  0
  1 53  1  0
  2  3  2  0
  3  1  1  0
  3  8  1  0
  4  1  2  0
  5  7  2  0
  5  2  1  0
  6  5  1  0
  7  4  1  0
  9 22  1  0
 10 15  1  0
 11 12  1  0
 11 10  1  0
 13 12  1  0
 13 26  1  0
 13 14  1  0
 15  9  1  0
 15 14  1  0
 16  9  2  0
 17 19  1  0
 18 20  1  0
 18 21  1  0
 20 22  1  0
 21  4  1  0
 21 17  1  0
 22 19  1  0
 23 24  2  0
 24 43  1  0
 25 24  1  0
 25 28  1  0
 26 27  1  0
 26 23  1  0
 27 25  2  0
 28 29  1  0
 29 30  2  0
 31 34  1  0
 31 30  1  0
 32 31  2  0
 33 32  1  0
 33 28  2  0
 34 35  1  0
 35 40  2  0
 35 36  1  0
 36 37  2  0
 37 38  1  0
 38 42  1  0
 39 38  2  0
 40 39  1  0
 41 40  1  0
 43 44  1  0
 44 47  1  0
 44 46  1  0
 45 43  2  0
 48 23  1  0
 48 49  1  0
 50 48  1  0
 51 52  1  0
 53 51  1  0
 53 52  1  0
 54  2  1  0
 54 55  1  0
 56 67  2  0
 57 55  1  0
 57 62  1  0
 58 66  1  0
 58 68  1  0
 59 65  1  0
 59 61  1  0
 60 66  1  0
 61 60  1  0
 62 61  2  0
 63 64  1  0
 63 57  2  0
 64 59  2  0
 65 58  1  0
 66 56  1  0
 68 70  2  0
 69 68  1  0
 71 69  1  0
 72 81  2  0
 72 77  1  0
 73 69  1  0
 73 77  1  0
 74 73  1  0
 75 76  1  0
 75 74  1  0
 76 72  1  0
 77 78  2  0
 78 79  1  0
 80 79  2  0
 81 80  1  0
 82 56  1  0
 82 83  1  0
 82 92  1  0
 83 86  1  0
 84 88  1  0
 84 83  1  0
 85 84  2  0
 88 87  1  0
 90 91  1  0
 90 88  1  0
 90 89  1  0
 92 95  1  1
 92 93  1  0
 94 92  1  0
M  ISO  4   9 100  22 100  54 101  55 101
M  END
>  <TORSDO>  (68) 
F 18

>  <SCORE>  (68) 
-14.574

>  <name>  (68) 
69

>  <ligand_id>  (68) 
69

>  <original_smiles>  (68) 
[H]c1c([H])c([H])c2c(c1[H])C([H])([H])C([H])([H])C([H])([H])C2([H])N([H])C(=O)C1([H])N(C(=O)C([H])(N([H])C(=O)C([H])(N([H])C([H])([H])[H])C([H])([H])[H])C(C([H])([H])[H])(C([H])([H])[H])C([H])([H])[H])C([H])([H])c2c([H])c(OC([H])([H])c3c(C([H])([H])[H])nc(C4([H])C([H])([H])C([H])([H])N(C(=O)N5C([H])([H])C([H])([H])C([H])([H])C([H])(n6nc(-c7c([H])c([H])c(Oc8c([H])c([H])c(F)c([H])c8F)c([H])c7[H])c(C(=O)N([H])[H])c6N([H])[H])C5([H])[H])C([H])([H])C4([H])[H])c(C4([H])C([H])([H])C4([H])[H])c3Cl)c([H])c([H])c2C1([H])[H]

>  <smiles>  (68) 
[H]c1c([H])c([H])c2c(c1[H])C([H])([H])C([H])([H])C([H])([H])C2([H])N([H])C(=O)C1([H])N(C(=O)C([H])(N([H])C(=O)C([H])(N([H])C([H])([H])[H])C([H])([H])[H])C(C([H])([H])[H])(C([H])([H])[H])C([H])([H])[H])C([H])([H])c2c([H])c(OC([H])([H])c3c(C([H])([H])[H])nc(C4([H])C([H])([H])C([H])([H])N(C(=O)N5C([H])([H])C([H])([H])C([H])([H])C([H])(n6nc(-c7c([H])c([H])c(Oc8c([H])c([H])c(F)c([H])c8F)c([H])c7[H])c(C(=O)N([H])[H])c6N([H])[H])C5([H])[H])C([H])([H])C4([H])[H])c(C4([H])C([H])([H])C4([H])[H])c3Cl)c([H])c([H])c2C1([H])[H]

$$$$
70:0:0
     RDKit          3D

101110  0  0  1  0  0  0  0  0999 V2000
  -30.7430  -23.9500   19.9580 C   0  0  0  0  0  2  0  0  0  0  0  0
  -29.0440  -22.5280   19.2820 C   0  0  0  0  0  2  0  0  0  0  0  0
  -30.8880  -22.6390   20.7800 C   0  0  0  0  0  3  0  0  0  0  0  0
  -29.5760  -21.8070   20.5600 C   0  0  2  0  0  0  0  0  0  0  0  0
  -31.2890  -22.9520   22.2400 C   0  0  0  0  0  1  0  0  0  0  0  0
  -29.3570  -23.9740   19.4570 N   0  0  2  0  0  4  0  0  0  0  0  0
  -28.7950  -24.3230   20.2200 H   0  0  0  0  0  0  0  0  0  0  0  0
  -29.1820  -19.4520   19.4710 C   0  0  0  0  0  3  0  0  0  0  0  0
  -30.7090  -19.6270   21.3400 C   0  0  0  0  0  3  0  0  0  0  0  0
  -29.3390  -18.0420   19.4860 C   0  0  0  0  0  3  0  0  0  0  0  0
  -30.8710  -18.2220   21.3580 C   0  0  0  0  0  3  0  0  0  0  0  0
  -29.8440  -20.2750   20.4190 C   0  0  0  0  0  0  0  0  0  0  0  0
  -30.1680  -17.4100   20.4430 C   0  0  0  0  0  0  0  0  0  0  0  0
  -30.8890  -15.0210   20.1150 C   0  0  0  0  0  0  0  0  0  0  0  0
  -30.6690  -12.7890   19.0750 C   0  0  0  0  0  2  0  0  0  0  0  0
  -29.6850  -12.9020   17.8910 C   0  0  0  0  0  2  0  0  0  0  0  0
  -28.2230  -12.7570   18.3610 C   0  0  0  0  0  2  0  0  0  0  0  0
  -27.8970  -13.6440   19.5900 C   0  0  0  0  0  3  0  0  0  0  0  0
  -28.9810  -13.4740   20.6780 C   0  0  0  0  0  2  0  0  0  0  0  0
  -30.2840  -13.8020   20.0700 N   0  0  0  0  0  0  0  0  0  0  0  0
  -32.0010  -15.2430   19.6240 O   0  0  0  0  0  0  0  0  0  0  0  0
  -30.1090  -15.9960   20.6320 N   0  0  0  0  0  0  0  0  0  0  0  0
  -29.2270  -15.6500   20.9770 H   0  0  0  0  0  0  0  0  0  0  0  0
  -25.5570  -14.2680   20.4650 C   0  0  0  0  0  0  0  0  0  0  0  0
  -24.4790  -13.5010   20.8220 C   0  0  0  0  0  0  0  0  0  0  0  0
  -24.8900  -12.1430   20.6580 C   0  0  0  0  0  0  0  0  0  0  0  0
  -26.5580  -13.3760   20.1100 N   0  0  0  0  0  0  0  0  0  0  0  0
  -26.1620  -12.0880   20.2810 N   0  0  0  0  0  0  0  0  0  0  0  0
  -24.1300  -10.8920   20.7800 C   0  0  0  0  0  0  0  0  0  0  0  0
  -24.5870   -9.8260   21.5850 C   0  0  0  0  0  3  0  0  0  0  0  0
  -23.8320   -8.6410   21.7000 C   0  0  0  0  0  3  0  0  0  0  0  0
  -22.6030   -8.5130   21.0100 C   0  0  0  0  0  0  0  0  0  0  0  0
  -22.1620   -9.5700   20.1930 C   0  0  0  0  0  3  0  0  0  0  0  0
  -22.9190  -10.7470   20.0750 C   0  0  0  0  0  3  0  0  0  0  0  0
  -21.8130   -7.3900   21.0440 O   0  0  0  0  0  0  0  0  0  0  0  0
  -21.8370   -6.5250   22.1080 C   0  0  0  0  0  0  0  0  0  0  0  0
  -21.5470   -6.9510   23.4220 C   0  0  0  0  0  3  0  0  0  0  0  0
  -21.5180   -6.0140   24.4750 C   0  0  0  0  0  3  0  0  0  0  0  0
  -21.7650   -4.6530   24.2150 C   0  0  0  0  0  0  0  0  0  0  0  0
  -22.0450   -4.2260   22.9060 C   0  0  0  0  0  3  0  0  0  0  0  0
  -22.0790   -5.1590   21.8540 C   0  0  0  0  0  0  0  0  0  0  0  0
  -22.3320   -4.7390   20.5920 F   0  0  0  0  0  0  0  0  0  0  0  0
  -21.7280   -3.7530   25.2240 F   0  0  0  0  0  0  0  0  0  0  0  0
  -23.1140  -13.9990   21.2020 C   0  0  0  0  0  0  0  0  0  0  0  0
  -22.4070  -13.2620   22.0530 N   0  0  0  0  0  0  0  0  0  0  0  0
  -22.6860  -15.0740   20.7850 O   0  0  0  0  0  0  0  0  0  0  0  0
  -22.7660  -12.3920   22.4150 H   0  0  0  0  0  0  0  0  0  0  0  0
  -21.4920  -13.5760   22.3460 H   0  0  0  0  0  0  0  0  0  0  0  0
  -25.7630  -15.6420   20.3980 N   0  0  0  0  0  0  0  0  0  0  0  0
  -25.0280  -16.3080   20.6000 H   0  0  0  0  0  0  0  0  0  0  0  0
  -26.6180  -16.0810   20.0790 H   0  0  0  0  0  0  0  0  0  0  0  0
  -28.5270  -22.0010   21.7070 C   0  0  0  0  0  2  0  0  0  0  0  0
  -27.0790  -22.3400   21.2590 C   0  0  0  0  0  2  0  0  0  0  0  0
  -25.1010  -23.7540   21.7620 C   0  0  0  0  0  1  0  0  0  0  0  0
  -26.3650  -23.1690   22.2530 N   0  0  0  0  0  4  0  0  0  0  0  0
  -26.1530  -22.6120   23.0660 H   0  0  0  0  0  0  0  0  0  0  0  0
  -26.9620  -23.9250   22.5490 H   0  0  0  0  0  0  0  0  0  0  0  0
  -29.0300  -24.8200   18.2590 C   0  0  0  0  0  2  0  0  0  0  0  0
  -30.6930  -26.8030   17.9590 C   0  0  0  0  0  1  0  0  0  0  0  0
  -29.2580  -26.3750   18.2980 C   0  0  0  0  0  3  0  0  0  0  0  0
  -28.8450  -27.1060   19.4750 O   0  0  0  0  0  0  0  0  0  0  0  0
  -24.5370  -31.5610   23.0400 C   0  0  0  0  0  0  0  0  0  0  0  0
  -27.6110  -27.7430   19.5000 C   0  0  0  0  0  0  0  0  0  0  0  0
  -23.4830  -30.2720   21.2130 C   0  0  0  0  0  3  0  0  0  0  0  0
  -25.0880  -29.0420   19.6500 C   0  0  0  0  0  0  0  0  0  0  0  0
  -25.9760  -30.8490   21.1270 C   0  0  0  0  0  2  0  0  0  0  0  0
  -26.1860  -29.5750   20.3320 C   0  0  0  0  0  0  0  0  0  0  0  0
  -27.4440  -28.9250   20.2700 C   0  0  0  0  0  3  0  0  0  0  0  0
  -26.4850  -27.2280   18.8200 C   0  0  0  0  0  3  0  0  0  0  0  0
  -25.2320  -27.8630   18.8980 C   0  0  0  0  0  3  0  0  0  0  0  0
  -23.7710  -29.7770   19.7700 C   0  0  0  0  0  2  0  0  0  0  0  0
  -24.6820  -30.9040   21.8530 N   0  0  0  0  0  0  0  0  0  0  0  0
  -23.4280  -31.6770   23.5790 O   0  0  0  0  0  0  0  0  0  0  0  0
  -22.9030  -29.0940   22.0290 C   0  0  0  0  0  0  0  0  0  0  0  0
  -21.6060  -28.8060   21.8320 N   0  0  0  0  0  0  0  0  0  0  0  0
  -23.6200  -28.4440   22.7940 O   0  0  0  0  0  0  0  0  0  0  0  0
  -21.0840  -29.3900   21.1940 H   0  0  0  0  0  0  0  0  0  0  0  0
  -18.3540  -27.2470   22.0510 C   0  0  0  0  0  0  0  0  0  0  0  0
  -20.8630  -27.7150   22.4600 C   0  0  0  0  0  3  0  0  0  0  0  0
  -21.1270  -26.3730   21.7380 C   0  0  0  0  0  2  0  0  0  0  0  0
  -20.0970  -26.0630   20.6480 C   0  0  0  0  0  2  0  0  0  0  0  0
  -18.6870  -26.0040   21.2410 C   0  0  0  0  0  2  0  0  0  0  0  0
  -19.3760  -28.0590   22.6090 C   0  0  0  0  0  0  0  0  0  0  0  0
  -19.0150  -29.2230   23.3200 C   0  0  0  0  0  3  0  0  0  0  0  0
  -17.6620  -29.5780   23.4810 C   0  0  0  0  0  3  0  0  0  0  0  0
  -16.6520  -28.7610   22.9390 C   0  0  0  0  0  3  0  0  0  0  0  0
  -17.0000  -27.5960   22.2310 C   0  0  0  0  0  3  0  0  0  0  0  0
  -25.7530  -32.2220   23.7610 C   0  0  0  0  0  3  0  0  0  0  0  0
  -25.3560  -33.5840   24.1400 N   0  0  0  0  0  0  0  0  0  0  0  0
  -25.7010  -34.6930   23.4710 C   0  0  0  0  0  0  0  0  0  0  0  0
  -26.4540  -34.6770   22.4940 O   0  0  0  0  0  0  0  0  0  0  0  0
  -24.6950  -33.6700   24.8990 H   0  0  0  0  0  0  0  0  0  0  0  0
  -23.9200  -36.4270   23.0860 C   0  0  0  0  0  1  0  0  0  0  0  0
  -25.1170  -36.0300   23.9640 C   0  0  0  0  0  3  0  0  0  0  0  0
  -27.1440  -36.9540   24.9990 C   0  0  0  0  0  1  0  0  0  0  0  0
  -26.1040  -37.1320   23.9890 N   0  0  0  0  0  0  0  0  0  0  0  0
  -25.6440  -38.0210   24.1590 H   0  0  0  0  0  0  0  0  0  0  0  0
  -26.2410  -31.4140   25.0260 C   0  0  1  0  0  0  0  0  0  0  0  0
  -25.1070  -31.0730   26.0200 C   0  0  0  0  0  1  0  0  0  0  0  0
  -26.9080  -30.0860   24.5980 C   0  0  0  0  0  1  0  0  0  0  0  0
  -27.3140  -32.2260   25.7870 C   0  0  0  0  0  1  0  0  0  0  0  0
  1  3  1  0
  2  6  1  0
  2  4  1  0
  3  5  1  0
  4  3  1  0
  4 52  1  1
  6  1  1  0
  6  7  1  1
  8 10  2  0
  8 12  1  0
  9 11  1  0
 10 13  1  0
 12  4  1  0
 12  9  2  0
 13 22  1  0
 13 11  2  0
 14 22  1  0
 15 20  1  0
 16 17  1  0
 16 15  1  0
 18 17  1  0
 18 27  1  0
 18 19  1  0
 20 14  1  0
 20 19  1  0
 21 14  2  0
 22 23  1  0
 24 25  2  0
 25 44  1  0
 26 29  1  0
 26 25  1  0
 27 28  1  0
 27 24  1  0
 28 26  2  0
 29 30  1  0
 30 31  2  0
 32 35  1  0
 32 31  1  0
 33 32  2  0
 34 33  1  0
 34 29  2  0
 35 36  1  0
 36 37  1  0
 37 38  2  0
 39 38  1  0
 39 43  1  0
 40 39  2  0
 41 36  2  0
 41 40  1  0
 42 41  1  0
 44 45  1  0
 45 48  1  0
 45 47  1  0
 46 44  2  0
 49 24  1  0
 49 50  1  0
 51 49  1  0
 53 52  1  0
 53 55  1  0
 54 55  1  0
 55 57  1  0
 55 56  1  0
 58 60  1  0
 58  6  1  0
 60 59  1  0
 60 61  1  0
 61 63  1  0
 62 73  2  0
 63 68  1  0
 64 72  1  0
 64 74  1  0
 65 71  1  0
 65 67  1  0
 66 72  1  0
 67 66  1  0
 68 67  2  0
 69 70  1  0
 69 63  2  0
 70 65  2  0
 71 64  1  0
 72 62  1  0
 74 76  2  0
 75 74  1  0
 77 75  1  0
 78 87  2  0
 78 83  1  0
 79 75  1  0
 79 83  1  0
 80 79  1  0
 81 82  1  0
 81 80  1  0
 82 78  1  0
 83 84  2  0
 84 85  1  0
 86 85  2  0
 87 86  1  0
 88 62  1  0
 88 89  1  0
 88 98  1  0
 89 92  1  0
 90 94  1  0
 90 89  1  0
 91 90  2  0
 94 93  1  0
 94 96  1  0
 96 97  1  0
 96 95  1  0
 98101  1  1
 98 99  1  0
100 98  1  0
M  ISO  4  14 100  22 100  60 101  61 101
M  END
>  <TORSDO>  (69) 
F 22

>  <SCORE>  (69) 
-11.283

>  <name>  (69) 
70

>  <ligand_id>  (69) 
70

>  <original_smiles>  (69) 
[H]c1c([H])c([H])c2c(c1[H])C([H])([H])C([H])([H])C([H])([H])C2([H])N([H])C(=O)C1([H])N(C(=O)C([H])(N([H])C(=O)C([H])(N([H])C([H])([H])[H])C([H])([H])[H])C(C([H])([H])[H])(C([H])([H])[H])C([H])([H])[H])C([H])([H])c2c([H])c(OC([H])(C([H])([H])[H])C([H])([H])[N+]3([H])C([H])([H])C([H])(C([H])([H])[H])C(c4c([H])c([H])c(N([H])C(=O)N5C([H])([H])C([H])([H])C([H])([H])C([H])(n6nc(-c7c([H])c([H])c(Oc8c([H])c([H])c(F)c([H])c8F)c([H])c7[H])c(C(=O)N([H])[H])c6N([H])[H])C5([H])[H])c([H])c4[H])(C([H])([H])C([H])([H])[N+]([H])([H])C([H])([H])[H])C3([H])[H])c([H])c([H])c2C1([H])[H]

>  <smiles>  (69) 
[H]c1c([H])c([H])c2c(c1[H])C([H])([H])C([H])([H])C([H])([H])C2([H])N([H])C(=O)C1([H])N(C(=O)C([H])(N([H])C(=O)C([H])(N([H])C([H])([H])[H])C([H])([H])[H])C(C([H])([H])[H])(C([H])([H])[H])C([H])([H])[H])C([H])([H])c2c([H])c(OC([H])(C([H])([H])[H])C([H])([H])[N+]3([H])C([H])([H])C([H])(C([H])([H])[H])C(c4c([H])c([H])c(N([H])C(=O)N5C([H])([H])C([H])([H])C([H])([H])C([H])(n6nc(-c7c([H])c([H])c(Oc8c([H])c([H])c(F)c([H])c8F)c([H])c7[H])c(C(=O)N([H])[H])c6N([H])[H])C5([H])[H])c([H])c4[H])(C([H])([H])C([H])([H])[N+]([H])([H])C([H])([H])[H])C3([H])[H])c([H])c([H])c2C1([H])[H]

$$$$
71:0:0
     RDKit          3D

 90 99  0  0  1  0  0  0  0  0999 V2000
  -30.5390  -15.0200   20.4770 C   0  0  0  0  0  0  0  0  0  0  0  0
  -30.4530  -12.6570   19.4970 C   0  0  0  0  0  2  0  0  0  0  0  0
  -29.5230  -12.5730   18.2580 C   0  0  0  0  0  2  0  0  0  0  0  0
  -28.0550  -12.3450   18.6700 C   0  0  0  0  0  2  0  0  0  0  0  0
  -27.6330  -13.2490   19.8540 C   0  0  0  0  0  3  0  0  0  0  0  0
  -28.6860  -13.2090   20.9800 C   0  0  0  0  0  2  0  0  0  0  0  0
  -29.9420  -13.7390   20.4050 N   0  0  0  0  0  0  0  0  0  0  0  0
  -31.7150  -15.0630   20.0910 O   0  0  0  0  0  0  0  0  0  0  0  0
  -27.5740  -19.9430   22.1400 C   0  0  0  0  0  3  0  0  0  0  0  0
  -28.4030  -18.8870   21.7190 C   0  0  0  0  0  0  0  0  0  0  0  0
  -27.6820  -21.2530   21.6140 C   0  0  0  0  0  0  0  0  0  0  0  0
  -29.3240  -19.0960   20.6960 C   0  0  0  0  0  0  0  0  0  0  0  0
  -28.6800  -21.5760   20.6520 C   0  0  0  0  0  0  0  0  0  0  0  0
  -28.3790  -17.5690   22.4800 C   0  0  0  0  0  3  0  0  0  0  0  0
  -30.1720  -17.7460   20.2580 C   0  0  0  0  0  3  0  0  0  0  0  0
  -28.7550  -16.2560   21.7380 C   0  0  0  0  0  3  0  0  0  0  0  0
  -26.7150  -22.2730   22.1910 C   0  0  0  0  0  1  0  0  0  0  0  0
  -29.4560  -20.4450   20.2060 N   0  0  0  0  0  2  0  0  0  0  0  0
  -29.8230  -16.2600   20.7210 N   0  0  0  0  0  0  0  0  0  0  0  0
  -25.2420  -13.8170   20.5690 C   0  0  0  0  0  0  0  0  0  0  0  0
  -24.1770  -13.0400   20.9220 C   0  0  0  0  0  0  0  0  0  0  0  0
  -24.6390  -11.6880   20.8770 C   0  0  0  0  0  0  0  0  0  0  0  0
  -26.2890  -12.9420   20.3310 N   0  0  0  0  0  0  0  0  0  0  0  0
  -25.9330  -11.6540   20.5790 N   0  0  0  0  0  0  0  0  0  0  0  0
  -23.9080  -10.4260   21.0430 C   0  0  0  0  0  0  0  0  0  0  0  0
  -24.3630   -9.4180   21.9200 C   0  0  0  0  0  3  0  0  0  0  0  0
  -23.6300   -8.2200   22.0760 C   0  0  0  0  0  3  0  0  0  0  0  0
  -22.4280   -8.0260   21.3550 C   0  0  0  0  0  0  0  0  0  0  0  0
  -21.9930   -9.0240   20.4650 C   0  0  0  0  0  3  0  0  0  0  0  0
  -22.7260  -10.2110   20.3060 C   0  0  0  0  0  3  0  0  0  0  0  0
  -21.6630   -6.8870   21.4250 O   0  0  0  0  0  0  0  0  0  0  0  0
  -21.6850   -6.0730   22.5280 C   0  0  0  0  0  0  0  0  0  0  0  0
  -21.4010   -6.5620   23.8230 C   0  0  0  0  0  3  0  0  0  0  0  0
  -21.3670   -5.6780   24.9190 C   0  0  0  0  0  3  0  0  0  0  0  0
  -21.6050   -4.3040   24.7240 C   0  0  0  0  0  0  0  0  0  0  0  0
  -21.8810   -3.8130   23.4350 C   0  0  0  0  0  3  0  0  0  0  0  0
  -21.9190   -4.6950   22.3420 C   0  0  0  0  0  0  0  0  0  0  0  0
  -22.1660   -4.2140   21.0990 F   0  0  0  0  0  0  0  0  0  0  0  0
  -21.5650   -3.4520   25.7750 F   0  0  0  0  0  0  0  0  0  0  0  0
  -22.7780  -13.5180   21.1900 C   0  0  0  0  0  0  0  0  0  0  0  0
  -22.0440  -12.8170   22.0460 N   0  0  0  0  0  0  0  0  0  0  0  0
  -22.3460  -14.5510   20.6770 O   0  0  0  0  0  0  0  0  0  0  0  0
  -22.4080  -11.9870   22.4890 H   0  0  0  0  0  0  0  0  0  0  0  0
  -21.1050  -13.1180   22.2650 H   0  0  0  0  0  0  0  0  0  0  0  0
  -25.4020  -15.1900   20.4040 N   0  0  0  0  0  0  0  0  0  0  0  0
  -24.6270  -15.8360   20.4980 H   0  0  0  0  0  0  0  0  0  0  0  0
  -26.2440  -15.6310   20.0560 H   0  0  0  0  0  0  0  0  0  0  0  0
  -28.9740  -23.1770   20.2110 C   0  0  0  0  0  3  0  0  0  0  0  0
  -27.9920  -24.5760   20.4100 C   0  0  0  0  0  3  0  0  0  0  0  0
  -28.2800  -26.1130   20.2000 O   0  0  0  0  0  0  0  0  0  0  0  0
  -24.6450  -31.8450   23.1840 C   0  0  0  0  0  0  0  0  0  0  0  0
  -27.2250  -27.1090   20.1700 C   0  0  0  0  0  0  0  0  0  0  0  0
  -23.4480  -30.4650   21.5280 C   0  0  0  0  0  3  0  0  0  0  0  0
  -24.8980  -28.8760   20.1220 C   0  0  0  0  0  0  0  0  0  0  0  0
  -26.0060  -30.7080   21.3870 C   0  0  0  0  0  2  0  0  0  0  0  0
  -26.0770  -29.3130   20.7400 C   0  0  0  0  0  0  0  0  0  0  0  0
  -27.2380  -28.4450   20.7510 C   0  0  0  0  0  3  0  0  0  0  0  0
  -26.0180  -26.7840   19.5110 C   0  0  0  0  0  3  0  0  0  0  0  0
  -24.8810  -27.6200   19.5000 C   0  0  0  0  0  3  0  0  0  0  0  0
  -23.6780  -29.7860   20.1510 C   0  0  0  0  0  2  0  0  0  0  0  0
  -24.7190  -31.0280   22.0890 N   0  0  0  0  0  0  0  0  0  0  0  0
  -23.5550  -32.1340   23.7040 O   0  0  0  0  0  0  0  0  0  0  0  0
  -22.7530  -29.4580   22.4800 C   0  0  0  0  0  0  0  0  0  0  0  0
  -21.4220  -29.3080   22.3540 N   0  0  0  0  0  0  0  0  0  0  0  0
  -23.4150  -28.8160   23.2990 O   0  0  0  0  0  0  0  0  0  0  0  0
  -20.9370  -29.8890   21.6840 H   0  0  0  0  0  0  0  0  0  0  0  0
  -18.0310  -28.1370   22.8490 C   0  0  0  0  0  0  0  0  0  0  0  0
  -20.5930  -28.3720   23.1190 C   0  0  0  0  0  3  0  0  0  0  0  0
  -20.6780  -26.9420   22.5380 C   0  0  0  0  0  2  0  0  0  0  0  0
  -19.5750  -26.6350   21.5200 C   0  0  0  0  0  2  0  0  0  0  0  0
  -18.1940  -26.7900   22.1630 C   0  0  0  0  0  2  0  0  0  0  0  0
  -19.1570  -28.8850   23.2850 C   0  0  0  0  0  0  0  0  0  0  0  0
  -18.9500  -30.1440   23.8880 C   0  0  0  0  0  3  0  0  0  0  0  0
  -17.6510  -30.6580   24.0560 C   0  0  0  0  0  3  0  0  0  0  0  0
  -16.5390  -29.9090   23.6330 C   0  0  0  0  0  3  0  0  0  0  0  0
  -16.7300  -28.6490   23.0370 C   0  0  0  0  0  3  0  0  0  0  0  0
  -25.9210  -32.4700   23.8250 C   0  0  0  0  0  3  0  0  0  0  0  0
  -25.5940  -33.8510   24.2180 N   0  0  0  0  0  0  0  0  0  0  0  0
  -25.9060  -34.9430   23.5070 C   0  0  0  0  0  0  0  0  0  0  0  0
  -26.5660  -34.8950   22.4660 O   0  0  0  0  0  0  0  0  0  0  0  0
  -24.9990  -33.9620   25.0260 H   0  0  0  0  0  0  0  0  0  0  0  0
  -24.1480  -36.7270   23.2660 C   0  0  0  0  0  1  0  0  0  0  0  0
  -25.4100  -36.3040   24.0340 C   0  0  0  0  0  3  0  0  0  0  0  0
  -27.5570  -37.1790   24.8470 C   0  0  0  0  0  1  0  0  0  0  0  0
  -26.4270  -37.3750   23.9420 N   0  0  0  0  0  0  0  0  0  0  0  0
  -26.0140  -38.2830   24.1390 H   0  0  0  0  0  0  0  0  0  0  0  0
  -26.4520  -31.6570   25.0700 C   0  0  1  0  0  0  0  0  0  0  0  0
  -25.3690  -31.3800   26.1390 C   0  0  0  0  0  1  0  0  0  0  0  0
  -27.0390  -30.2940   24.6340 C   0  0  0  0  0  1  0  0  0  0  0  0
  -27.6020  -32.4330   25.7530 C   0  0  0  0  0  1  0  0  0  0  0  0
  1 19  1  0
  2  7  1  0
  3  4  1  0
  3  2  1  0
  5  4  1  0
  5 23  1  0
  5  6  1  0
  7  1  1  0
  7  6  1  0
  8  1  2  0
 10  9  2  0
 10 14  1  0
 11  9  1  0
 11 17  1  0
 12 10  1  0
 13 11  2  0
 15 12  2  0
 15 19  1  0
 16 14  2  0
 18 13  1  0
 18 12  1  0
 19 16  1  0
 20 21  2  0
 21 40  1  0
 22 21  1  0
 22 25  1  0
 23 20  1  0
 23 24  1  0
 24 22  2  0
 25 26  1  0
 26 27  2  0
 28 31  1  0
 28 27  1  0
 29 28  2  0
 30 29  1  0
 30 25  2  0
 31 32  1  0
 32 33  1  0
 33 34  2  0
 35 34  1  0
 35 39  1  0
 36 35  2  0
 37 32  2  0
 37 36  1  0
 38 37  1  0
 40 41  1  0
 41 44  1  0
 41 43  1  0
 42 40  2  0
 45 46  1  0
 45 20  1  0
 47 45  1  0
 48 49  2  0
 48 13  1  0
 50 49  1  0
 51 62  2  0
 52 50  1  0
 52 57  1  0
 53 61  1  0
 53 63  1  0
 54 60  1  0
 54 56  1  0
 55 61  1  0
 56 57  2  0
 56 55  1  0
 58 52  2  0
 59 58  1  0
 59 54  2  0
 60 53  1  0
 61 51  1  0
 63 65  2  0
 64 63  1  0
 66 64  1  0
 67 76  2  0
 67 72  1  0
 68 64  1  0
 68 72  1  0
 69 68  1  0
 70 71  1  0
 70 69  1  0
 71 67  1  0
 72 73  2  0
 73 74  1  0
 75 74  2  0
 76 75  1  0
 77 51  1  0
 77 78  1  0
 77 87  1  0
 78 81  1  0
 79 83  1  0
 79 78  1  0
 80 79  2  0
 83 82  1  0
 85 83  1  0
 85 86  1  0
 85 84  1  0
 87 90  1  1
 87 88  1  0
 89 87  1  0
M  ISO  4   1 100  19 100  49 101  50 101
M  END
>  <TORSDO>  (70) 
F 17

>  <SCORE>  (70) 
-0.317

>  <name>  (70) 
71

>  <ligand_id>  (70) 
71

>  <original_smiles>  (70) 
[H]c1c([H])c([H])c2c(c1[H])C([H])([H])C([H])([H])C([H])([H])C2([H])N([H])C(=O)C1([H])N(C(=O)C([H])(N([H])C(=O)C([H])(N([H])C([H])([H])[H])C([H])([H])[H])C(C([H])([H])[H])(C([H])([H])[H])C([H])([H])[H])C([H])([H])c2c([H])c(OC([H])([H])C([H])([H])c3nc4c(c([H])c3C([H])([H])[H])C([H])([H])C([H])([H])N(C(=O)N3C([H])([H])C([H])([H])C([H])([H])C([H])(n5nc(-c6c([H])c([H])c(Oc7c([H])c([H])c(F)c([H])c7F)c([H])c6[H])c(C(=O)N([H])[H])c5N([H])[H])C3([H])[H])C4([H])[H])c([H])c([H])c2C1([H])[H]

>  <smiles>  (70) 
[H]c1c([H])c([H])c2c(c1[H])C([H])([H])C([H])([H])C([H])([H])C2([H])N([H])C(=O)C1([H])N(C(=O)C([H])(N([H])C(=O)C([H])(N([H])C([H])([H])[H])C([H])([H])[H])C(C([H])([H])[H])(C([H])([H])[H])C([H])([H])[H])C([H])([H])c2c([H])c(OC([H])([H])C([H])([H])c3nc4c(c([H])c3C([H])([H])[H])C([H])([H])C([H])([H])N(C(=O)N3C([H])([H])C([H])([H])C([H])([H])C([H])(n5nc(-c6c([H])c([H])c(Oc7c([H])c([H])c(F)c([H])c7F)c([H])c6[H])c(C(=O)N([H])[H])c5N([H])[H])C3([H])[H])C4([H])[H])c([H])c([H])c2C1([H])[H]

$$$$
72:0:0
     RDKit          3D

 95104  0  0  1  0  0  0  0  0999 V2000
  -29.8170  -23.8270   20.9610 C   0  0  0  0  0  0  0  0  0  0  0  0
  -28.8850  -24.0280   19.9080 C   0  0  0  0  0  0  0  0  0  0  0  0
  -30.1380  -22.4950   21.3750 C   0  0  0  0  0  0  0  0  0  0  0  0
  -28.3520  -22.8410   19.3210 C   0  0  0  0  0  0  0  0  0  0  0  0
  -29.5880  -21.3830   20.6830 C   0  0  0  0  0  0  0  0  0  0  0  0
  -30.4930  -25.0280   21.6170 C   0  0  0  0  0  1  0  0  0  0  0  0
  -31.0910  -22.2710   22.5510 C   0  0  0  0  0  1  0  0  0  0  0  0
  -27.3530  -22.8940   18.1800 C   0  0  0  0  0  1  0  0  0  0  0  0
  -28.6990  -21.5730   19.6900 N   0  0  0  0  0  0  0  0  0  0  0  0
  -29.9910  -20.0640   21.0290 N   0  0  0  0  0  0  0  0  0  0  0  0
  -30.7430  -20.0140   21.7060 H   0  0  0  0  0  0  0  0  0  0  0  0
  -30.6620  -14.5890   20.0300 C   0  0  0  0  0  0  0  0  0  0  0  0
  -30.3310  -12.3900   18.9380 C   0  0  0  0  0  2  0  0  0  0  0  0
  -29.3340  -12.5670   17.7730 C   0  0  0  0  0  2  0  0  0  0  0  0
  -27.8820  -12.4250   18.2720 C   0  0  0  0  0  2  0  0  0  0  0  0
  -27.6010  -13.2600   19.5510 C   0  0  0  0  0  3  0  0  0  0  0  0
  -28.7120  -13.0600   20.6040 C   0  0  0  0  0  2  0  0  0  0  0  0
  -29.9890  -13.3980   19.9610 N   0  0  0  0  0  0  0  0  0  0  0  0
  -31.8150  -14.6830   19.5960 O   0  0  0  0  0  0  0  0  0  0  0  0
  -29.5770  -17.6940   21.7040 C   0  0  0  0  0  2  0  0  0  0  0  0
  -30.2920  -18.1660   19.3920 C   0  0  0  0  0  2  0  0  0  0  0  0
  -29.2000  -16.2300   21.3090 C   0  0  0  0  0  2  0  0  0  0  0  0
  -29.8610  -16.7190   18.9990 C   0  0  0  0  0  2  0  0  0  0  0  0
  -29.4790  -18.7510   20.5690 C   0  0  0  0  0  3  0  0  0  0  0  0
  -29.8930  -15.7290   20.1040 N   0  0  0  0  0  0  0  0  0  0  0  0
  -25.2510  -13.8660   20.3950 C   0  0  0  0  0  0  0  0  0  0  0  0
  -24.1980  -13.0940   20.8070 C   0  0  0  0  0  0  0  0  0  0  0  0
  -24.6480  -11.7400   20.7340 C   0  0  0  0  0  0  0  0  0  0  0  0
  -26.2760  -12.9810   20.0970 N   0  0  0  0  0  0  0  0  0  0  0  0
  -25.9200  -11.6970   20.3590 N   0  0  0  0  0  0  0  0  0  0  0  0
  -23.9220  -10.4810   20.9410 C   0  0  0  0  0  0  0  0  0  0  0  0
  -24.3670   -9.5180   21.8740 C   0  0  0  0  0  3  0  0  0  0  0  0
  -23.6420   -8.3220   22.0690 C   0  0  0  0  0  3  0  0  0  0  0  0
  -22.4570   -8.0830   21.3330 C   0  0  0  0  0  0  0  0  0  0  0  0
  -22.0310   -9.0340   20.3900 C   0  0  0  0  0  3  0  0  0  0  0  0
  -22.7570  -10.2210   20.1920 C   0  0  0  0  0  3  0  0  0  0  0  0
  -21.7030   -6.9390   21.4380 O   0  0  0  0  0  0  0  0  0  0  0  0
  -21.6320   -6.2280   22.6090 C   0  0  0  0  0  0  0  0  0  0  0  0
  -21.1900   -6.8170   23.8130 C   0  0  0  0  0  3  0  0  0  0  0  0
  -21.0670   -6.0340   24.9770 C   0  0  0  0  0  3  0  0  0  0  0  0
  -21.3750   -4.6600   24.9380 C   0  0  0  0  0  0  0  0  0  0  0  0
  -21.8100   -4.0700   23.7390 C   0  0  0  0  0  3  0  0  0  0  0  0
  -21.9350   -4.8520   22.5770 C   0  0  0  0  0  0  0  0  0  0  0  0
  -22.3340   -4.2730   21.4180 F   0  0  0  0  0  0  0  0  0  0  0  0
  -21.2490   -3.9040   26.0540 F   0  0  0  0  0  0  0  0  0  0  0  0
  -22.8210  -13.5780   21.1560 C   0  0  0  0  0  0  0  0  0  0  0  0
  -22.1330  -12.8770   22.0510 N   0  0  0  0  0  0  0  0  0  0  0  0
  -22.3640  -14.6120   20.6700 O   0  0  0  0  0  0  0  0  0  0  0  0
  -22.5170  -12.0420   22.4660 H   0  0  0  0  0  0  0  0  0  0  0  0
  -21.2100  -13.1840   22.3260 H   0  0  0  0  0  0  0  0  0  0  0  0
  -25.4160  -15.2360   20.2280 N   0  0  0  0  0  0  0  0  0  0  0  0
  -24.6610  -15.8940   20.3870 H   0  0  0  0  0  0  0  0  0  0  0  0
  -26.2510  -15.6730   19.8600 H   0  0  0  0  0  0  0  0  0  0  0  0
  -28.5960  -25.4470   19.2980 C   0  0  0  0  0  2  0  0  0  0  0  0
  -28.3730  -26.5850   20.1890 O   0  0  0  0  0  0  0  0  0  0  0  0
  -24.5910  -31.8750   23.2100 C   0  0  0  0  0  0  0  0  0  0  0  0
  -27.2110  -27.3560   20.1350 C   0  0  0  0  0  0  0  0  0  0  0  0
  -23.3830  -30.4740   21.5730 C   0  0  0  0  0  3  0  0  0  0  0  0
  -24.8290  -28.9280   20.1460 C   0  0  0  0  0  0  0  0  0  0  0  0
  -25.9170  -30.8070   21.3790 C   0  0  0  0  0  2  0  0  0  0  0  0
  -25.9950  -29.4300   20.7350 C   0  0  0  0  0  0  0  0  0  0  0  0
  -27.1840  -28.6520   20.7250 C   0  0  0  0  0  3  0  0  0  0  0  0
  -26.0100  -26.8810   19.5560 C   0  0  0  0  0  3  0  0  0  0  0  0
  -24.8360  -27.6560   19.5540 C   0  0  0  0  0  3  0  0  0  0  0  0
  -23.5910  -29.7980   20.1930 C   0  0  0  0  0  2  0  0  0  0  0  0
  -24.6490  -31.0690   22.1110 N   0  0  0  0  0  0  0  0  0  0  0  0
  -23.5100  -32.1510   23.7480 O   0  0  0  0  0  0  0  0  0  0  0  0
  -22.7270  -29.4550   22.5350 C   0  0  0  0  0  0  0  0  0  0  0  0
  -21.3990  -29.2840   22.4170 N   0  0  0  0  0  0  0  0  0  0  0  0
  -23.4100  -28.8230   23.3450 O   0  0  0  0  0  0  0  0  0  0  0  0
  -20.9080  -29.8470   21.7370 H   0  0  0  0  0  0  0  0  0  0  0  0
  -18.0190  -28.1120   22.9370 C   0  0  0  0  0  0  0  0  0  0  0  0
  -20.5800  -28.3500   23.1910 C   0  0  0  0  0  3  0  0  0  0  0  0
  -20.6670  -26.9200   22.6110 C   0  0  0  0  0  2  0  0  0  0  0  0
  -19.5560  -26.6090   21.6030 C   0  0  0  0  0  2  0  0  0  0  0  0
  -18.1800  -26.7630   22.2570 C   0  0  0  0  0  2  0  0  0  0  0  0
  -19.1460  -28.8640   23.3610 C   0  0  0  0  0  0  0  0  0  0  0  0
  -18.9400  -30.1280   23.9560 C   0  0  0  0  0  3  0  0  0  0  0  0
  -17.6410  -30.6400   24.1320 C   0  0  0  0  0  3  0  0  0  0  0  0
  -16.5280  -29.8840   23.7240 C   0  0  0  0  0  3  0  0  0  0  0  0
  -16.7180  -28.6220   23.1320 C   0  0  0  0  0  3  0  0  0  0  0  0
  -25.8760  -32.5060   23.8280 C   0  0  0  0  0  3  0  0  0  0  0  0
  -25.5680  -33.9050   24.1560 N   0  0  0  0  0  0  0  0  0  0  0  0
  -25.8960  -34.9560   23.3920 C   0  0  0  0  0  0  0  0  0  0  0  0
  -26.5590  -34.8500   22.3570 O   0  0  0  0  0  0  0  0  0  0  0  0
  -24.9780  -34.0620   24.9600 H   0  0  0  0  0  0  0  0  0  0  0  0
  -24.1630  -36.7450   23.0460 C   0  0  0  0  0  1  0  0  0  0  0  0
  -25.4110  -36.3450   23.8480 C   0  0  0  0  0  3  0  0  0  0  0  0
  -27.5510  -37.2350   24.6570 C   0  0  0  0  0  1  0  0  0  0  0  0
  -26.4400  -37.4000   23.7240 N   0  0  0  0  0  0  0  0  0  0  0  0
  -26.0350  -38.3200   23.8720 H   0  0  0  0  0  0  0  0  0  0  0  0
  -26.3940  -31.7370   25.1050 C   0  0  1  0  0  0  0  0  0  0  0  0
  -25.3040  -31.5010   26.1750 C   0  0  0  0  0  1  0  0  0  0  0  0
  -26.9770  -30.3580   24.7130 C   0  0  0  0  0  1  0  0  0  0  0  0
  -27.5470  -32.5310   25.7640 C   0  0  0  0  0  1  0  0  0  0  0  0
  1  3  1  0
  1  6  1  0
  2  1  2  0
  3  7  1  0
  4  9  2  0
  4  2  1  0
  5 10  1  0
  5  3  2  0
  8  4  1  0
  9  5  1  0
 10 11  1  0
 12 25  1  0
 13 18  1  0
 14 15  1  0
 14 13  1  0
 16 15  1  0
 16 29  1  0
 16 17  1  0
 18 12  1  0
 18 17  1  0
 19 12  2  0
 21 24  1  0
 22 20  1  0
 23 21  1  0
 23 25  1  0
 24 10  1  0
 24 20  1  0
 25 22  1  0
 26 27  2  0
 27 46  1  0
 28 27  1  0
 28 31  1  0
 29 30  1  0
 29 26  1  0
 30 28  2  0
 31 32  1  0
 32 33  2  0
 34 37  1  0
 34 33  1  0
 35 34  2  0
 36 35  1  0
 36 31  2  0
 37 38  1  0
 38 39  1  0
 39 40  2  0
 41 40  1  0
 41 45  1  0
 42 41  2  0
 43 38  2  0
 43 42  1  0
 44 43  1  0
 46 47  1  0
 47 50  1  0
 47 49  1  0
 48 46  2  0
 51 52  1  0
 51 26  1  0
 53 51  1  0
 54  2  1  0
 54 55  1  0
 56 67  2  0
 57 55  1  0
 57 62  1  0
 58 66  1  0
 58 68  1  0
 59 65  1  0
 59 61  1  0
 60 66  1  0
 61 60  1  0
 62 61  2  0
 63 57  2  0
 64 63  1  0
 64 59  2  0
 65 58  1  0
 66 56  1  0
 68 70  2  0
 69 68  1  0
 71 69  1  0
 72 81  2  0
 72 77  1  0
 73 69  1  0
 73 77  1  0
 74 73  1  0
 75 76  1  0
 75 74  1  0
 76 72  1  0
 77 78  2  0
 78 79  1  0
 80 79  2  0
 81 80  1  0
 82 56  1  0
 82 83  1  0
 82 92  1  0
 83 86  1  0
 84 88  1  0
 84 83  1  0
 85 84  2  0
 88 87  1  0
 90 88  1  0
 90 91  1  0
 90 89  1  0
 92 95  1  1
 92 93  1  0
 94 92  1  0
M  ISO  4  12 100  25 100  54 101  55 101
M  END
>  <TORSDO>  (71) 
F 18

>  <SCORE>  (71) 
-14.278

>  <name>  (71) 
72

>  <ligand_id>  (71) 
72

>  <original_smiles>  (71) 
[H]c1c([H])c([H])c2c(c1[H])C([H])([H])C([H])([H])C([H])([H])C2([H])N([H])C(=O)C1([H])N(C(=O)C([H])(N([H])C(=O)C([H])(N([H])C([H])([H])[H])C([H])([H])[H])C(C([H])([H])[H])(C([H])([H])[H])C([H])([H])[H])C([H])([H])c2c([H])c(OC([H])([H])c3c(C([H])([H])[H])nc(N([H])C4([H])C([H])([H])C([H])([H])N(C(=O)N5C([H])([H])C([H])([H])C([H])([H])C([H])(n6nc(-c7c([H])c([H])c(Oc8c([H])c([H])c(F)c([H])c8F)c([H])c7[H])c(C(=O)N([H])[H])c6N([H])[H])C5([H])[H])C([H])([H])C4([H])[H])c(C([H])([H])[H])c3C([H])([H])[H])c([H])c([H])c2C1([H])[H]

>  <smiles>  (71) 
[H]c1c([H])c([H])c2c(c1[H])C([H])([H])C([H])([H])C([H])([H])C2([H])N([H])C(=O)C1([H])N(C(=O)C([H])(N([H])C(=O)C([H])(N([H])C([H])([H])[H])C([H])([H])[H])C(C([H])([H])[H])(C([H])([H])[H])C([H])([H])[H])C([H])([H])c2c([H])c(OC([H])([H])c3c(C([H])([H])[H])nc(N([H])C4([H])C([H])([H])C([H])([H])N(C(=O)N5C([H])([H])C([H])([H])C([H])([H])C([H])(n6nc(-c7c([H])c([H])c(Oc8c([H])c([H])c(F)c([H])c8F)c([H])c7[H])c(C(=O)N([H])[H])c6N([H])[H])C5([H])[H])C([H])([H])C4([H])[H])c(C([H])([H])[H])c3C([H])([H])[H])c([H])c([H])c2C1([H])[H]

$$$$
73:0:0
     RDKit          3D

 96105  0  0  1  0  0  0  0  0999 V2000
  -31.2330  -19.1020   21.0780 C   0  0  0  0  0  2  0  0  0  0  0  0
  -32.4360  -17.9560   19.0190 C   0  0  0  0  0  2  0  0  0  0  0  0
  -29.9330  -17.5920   19.4710 C   0  0  0  0  0  3  0  0  0  0  0  0
  -29.9850  -19.0890   20.2020 C   0  0  0  0  0  3  0  0  0  0  0  0
  -32.5260  -19.0000   20.2020 C   0  0  2  0  0  0  0  0  0  0  0  0
  -31.0510  -17.6510   18.3420 C   0  0  2  0  0  0  0  0  0  0  0  0
  -33.6780  -18.5750   21.1360 C   0  0  0  0  0  1  0  0  0  0  0  0
  -32.9070  -20.3940   19.6520 C   0  0  0  0  0  1  0  0  0  0  0  0
  -31.1130  -16.3570   17.4740 C   0  0  0  0  0  1  0  0  0  0  0  0
  -30.7480  -18.7210   17.2390 C   0  0  0  0  0  1  0  0  0  0  0  0
  -30.6340  -15.0230   20.3170 C   0  0  0  0  0  0  0  0  0  0  0  0
  -30.4960  -12.6930   19.3910 C   0  0  0  0  0  2  0  0  0  0  0  0
  -29.5650  -12.6720   18.1590 C   0  0  0  0  0  2  0  0  0  0  0  0
  -28.1020  -12.4620   18.5900 C   0  0  0  0  0  2  0  0  0  0  0  0
  -27.6890  -13.3770   19.7740 C   0  0  0  0  0  3  0  0  0  0  0  0
  -28.7460  -13.3890   20.8980 C   0  0  0  0  0  2  0  0  0  0  0  0
  -30.0200  -13.7820   20.2850 N   0  0  0  0  0  0  0  0  0  0  0  0
  -31.8550  -15.0390   20.1860 O   0  0  0  0  0  0  0  0  0  0  0  0
  -29.8530  -16.1980   20.2240 N   0  0  0  0  0  0  0  0  0  0  0  0
  -28.8990  -15.9970   20.4830 H   0  0  0  0  0  0  0  0  0  0  0  0
  -25.3020  -13.9200   20.5190 C   0  0  0  0  0  0  0  0  0  0  0  0
  -24.2480  -13.1270   20.8840 C   0  0  0  0  0  0  0  0  0  0  0  0
  -24.7330  -11.7840   20.8490 C   0  0  0  0  0  0  0  0  0  0  0  0
  -26.3570  -13.0580   20.2750 N   0  0  0  0  0  0  0  0  0  0  0  0
  -26.0250  -11.7680   20.5410 N   0  0  0  0  0  0  0  0  0  0  0  0
  -24.0250  -10.5090   21.0320 C   0  0  0  0  0  0  0  0  0  0  0  0
  -24.4570   -9.5520   21.9750 C   0  0  0  0  0  3  0  0  0  0  0  0
  -23.7460   -8.3430   22.1460 C   0  0  0  0  0  3  0  0  0  0  0  0
  -22.5900   -8.0840   21.3720 C   0  0  0  0  0  0  0  0  0  0  0  0
  -22.1770   -9.0310   20.4180 C   0  0  0  0  0  3  0  0  0  0  0  0
  -22.8880  -10.2300   20.2450 C   0  0  0  0  0  3  0  0  0  0  0  0
  -21.8520   -6.9280   21.4510 O   0  0  0  0  0  0  0  0  0  0  0  0
  -21.7750   -6.2020   22.6110 C   0  0  0  0  0  0  0  0  0  0  0  0
  -21.2770   -6.7600   23.8090 C   0  0  0  0  0  3  0  0  0  0  0  0
  -21.1510   -5.9570   24.9610 C   0  0  0  0  0  3  0  0  0  0  0  0
  -21.5130   -4.5980   24.9160 C   0  0  0  0  0  0  0  0  0  0  0  0
  -22.0040   -4.0390   23.7230 C   0  0  0  0  0  3  0  0  0  0  0  0
  -22.1310   -4.8380   22.5740 C   0  0  0  0  0  0  0  0  0  0  0  0
  -22.5850   -4.2890   21.4200 F   0  0  0  0  0  0  0  0  0  0  0  0
  -21.3840   -3.8250   26.0190 F   0  0  0  0  0  0  0  0  0  0  0  0
  -22.8430  -13.5820   21.1520 C   0  0  0  0  0  0  0  0  0  0  0  0
  -22.1220  -12.8730   22.0120 N   0  0  0  0  0  0  0  0  0  0  0  0
  -22.3930  -14.6020   20.6310 O   0  0  0  0  0  0  0  0  0  0  0  0
  -22.4990  -12.0490   22.4560 H   0  0  0  0  0  0  0  0  0  0  0  0
  -21.1790  -13.1610   22.2330 H   0  0  0  0  0  0  0  0  0  0  0  0
  -25.4430  -15.2930   20.3450 N   0  0  0  0  0  0  0  0  0  0  0  0
  -24.6630  -15.9310   20.4590 H   0  0  0  0  0  0  0  0  0  0  0  0
  -26.2760  -15.7460   19.9930 H   0  0  0  0  0  0  0  0  0  0  0  0
  -28.8710  -20.0750   20.4960 O   0  0  0  0  0  0  0  0  0  0  0  0
  -29.4580  -24.0840   19.5480 C   0  0  0  0  0  2  0  0  0  0  0  0
  -27.4880  -23.9060   21.0500 C   0  0  0  0  0  2  0  0  0  0  0  0
  -29.3390  -22.4880   19.3360 C   0  0  0  0  0  2  0  0  0  0  0  0
  -27.7420  -22.3050   21.2450 C   0  0  0  0  0  2  0  0  0  0  0  0
  -28.1390  -24.8760   19.9560 C   0  0  0  0  0  3  0  0  0  0  0  0
  -29.0170  -21.6010   20.6070 C   0  0  0  0  0  3  0  0  0  0  0  0
  -28.2540  -26.3820   20.2590 O   0  0  0  0  0  0  0  0  0  0  0  0
  -24.5830  -31.9660   23.2650 C   0  0  0  0  0  0  0  0  0  0  0  0
  -27.1560  -27.3010   20.2070 C   0  0  0  0  0  0  0  0  0  0  0  0
  -23.3720  -30.5670   21.6360 C   0  0  0  0  0  3  0  0  0  0  0  0
  -24.8110  -29.0030   20.2020 C   0  0  0  0  0  0  0  0  0  0  0  0
  -25.9200  -30.8550   21.4440 C   0  0  0  0  0  2  0  0  0  0  0  0
  -25.9920  -29.4670   20.7930 C   0  0  0  0  0  0  0  0  0  0  0  0
  -27.1650  -28.6320   20.7780 C   0  0  0  0  0  3  0  0  0  0  0  0
  -25.9420  -26.9210   19.5940 C   0  0  0  0  0  3  0  0  0  0  0  0
  -24.7950  -27.7420   19.5890 C   0  0  0  0  0  3  0  0  0  0  0  0
  -23.5790  -29.8890   20.2570 C   0  0  0  0  0  2  0  0  0  0  0  0
  -24.6450  -31.1500   22.1710 N   0  0  0  0  0  0  0  0  0  0  0  0
  -23.5010  -32.2470   23.8030 O   0  0  0  0  0  0  0  0  0  0  0  0
  -22.7100  -29.5540   22.6050 C   0  0  0  0  0  0  0  0  0  0  0  0
  -21.3850  -29.3630   22.4750 N   0  0  0  0  0  0  0  0  0  0  0  0
  -23.3890  -28.9440   23.4340 O   0  0  0  0  0  0  0  0  0  0  0  0
  -20.8920  -29.9070   21.7810 H   0  0  0  0  0  0  0  0  0  0  0  0
  -18.0200  -28.1210   22.9720 C   0  0  0  0  0  0  0  0  0  0  0  0
  -20.5740  -28.4220   23.2510 C   0  0  0  0  0  3  0  0  0  0  0  0
  -20.6980  -26.9860   22.6920 C   0  0  0  0  0  2  0  0  0  0  0  0
  -19.6070  -26.6360   21.6750 C   0  0  0  0  0  2  0  0  0  0  0  0
  -18.2200  -26.7680   22.3100 C   0  0  0  0  0  2  0  0  0  0  0  0
  -19.1250  -28.9040   23.4000 C   0  0  0  0  0  0  0  0  0  0  0  0
  -18.8830  -30.1690   23.9800 C   0  0  0  0  0  3  0  0  0  0  0  0
  -17.5710  -30.6510   24.1360 C   0  0  0  0  0  3  0  0  0  0  0  0
  -16.4800  -29.8650   23.7230 C   0  0  0  0  0  3  0  0  0  0  0  0
  -16.7050  -28.6010   23.1490 C   0  0  0  0  0  3  0  0  0  0  0  0
  -25.8650  -32.6050   23.8800 C   0  0  0  0  0  3  0  0  0  0  0  0
  -25.5550  -34.0070   24.2030 N   0  0  0  0  0  0  0  0  0  0  0  0
  -25.8880  -35.0580   23.4430 C   0  0  0  0  0  0  0  0  0  0  0  0
  -26.5570  -34.9510   22.4110 O   0  0  0  0  0  0  0  0  0  0  0  0
  -24.9600  -34.1650   25.0030 H   0  0  0  0  0  0  0  0  0  0  0  0
  -24.1670  -36.8590   23.0840 C   0  0  0  0  0  1  0  0  0  0  0  0
  -25.4060  -36.4500   23.8980 C   0  0  0  0  0  3  0  0  0  0  0  0
  -27.5390  -37.3330   24.7340 C   0  0  0  0  0  1  0  0  0  0  0  0
  -26.4420  -37.5000   23.7840 N   0  0  0  0  0  0  0  0  0  0  0  0
  -26.0380  -38.4220   23.9250 H   0  0  0  0  0  0  0  0  0  0  0  0
  -26.3820  -31.8460   25.1630 C   0  0  1  0  0  0  0  0  0  0  0  0
  -25.2890  -31.6150   26.2320 C   0  0  0  0  0  1  0  0  0  0  0  0
  -26.9690  -30.4660   24.7870 C   0  0  0  0  0  1  0  0  0  0  0  0
  -27.5300  -32.6480   25.8210 C   0  0  0  0  0  1  0  0  0  0  0  0
  2  5  1  0
  3  4  1  0
  3 19  1  0
  4 49  1  0
  4  1  1  0
  5  1  1  0
  5  7  1  1
  6  2  1  0
  6  3  1  0
  8  5  1  0
  6  9  1  6
 10  6  1  0
 12 17  1  0
 13 14  1  0
 13 12  1  0
 15 14  1  0
 15 24  1  0
 15 16  1  0
 17 11  1  0
 17 16  1  0
 18 11  2  0
 19 11  1  0
 19 20  1  0
 21 22  2  0
 22 41  1  0
 23 22  1  0
 23 26  1  0
 24 21  1  0
 24 25  1  0
 25 23  2  0
 26 27  1  0
 27 28  2  0
 29 32  1  0
 29 28  1  0
 30 29  2  0
 31 30  1  0
 31 26  2  0
 32 33  1  0
 33 34  1  0
 34 35  2  0
 36 35  1  0
 36 40  1  0
 37 36  2  0
 38 33  2  0
 38 37  1  0
 39 38  1  0
 41 42  1  0
 42 45  1  0
 42 44  1  0
 43 41  2  0
 46 47  1  0
 46 21  1  0
 48 46  1  0
 50 54  1  0
 51 53  1  0
 52 50  1  0
 52 55  1  0
 54 56  1  0
 54 51  1  0
 55 49  1  0
 55 53  1  0
 57 68  2  0
 58 56  1  0
 58 63  1  0
 59 67  1  0
 59 69  1  0
 60 66  1  0
 60 62  1  0
 61 67  1  0
 62 61  1  0
 63 62  2  0
 64 58  2  0
 65 64  1  0
 65 60  2  0
 66 59  1  0
 67 57  1  0
 69 71  2  0
 70 69  1  0
 72 70  1  0
 73 82  2  0
 73 78  1  0
 74 70  1  0
 74 78  1  0
 75 74  1  0
 76 77  1  0
 76 75  1  0
 77 73  1  0
 78 79  2  0
 79 80  1  0
 81 80  2  0
 82 81  1  0
 83 57  1  0
 83 84  1  0
 83 93  1  0
 84 87  1  0
 85 89  1  0
 85 84  1  0
 86 85  2  0
 89 88  1  0
 91 89  1  0
 91 92  1  0
 91 90  1  0
 93 96  1  1
 93 94  1  0
 95 93  1  0
M  ISO  4  11 100  19 100  54 101  56 101
M  END
>  <TORSDO>  (72) 
F 18

>  <SCORE>  (72) 
-14.309

>  <name>  (72) 
73

>  <ligand_id>  (72) 
73

>  <original_smiles>  (72) 
[H]c1c([H])c([H])c2c(c1[H])C([H])([H])C([H])([H])C([H])([H])C2([H])N([H])C(=O)C1([H])N(C(=O)C([H])(N([H])C(=O)C([H])(N([H])C([H])([H])[H])C([H])([H])[H])C(C([H])([H])[H])(C([H])([H])[H])C([H])([H])[H])C([H])([H])c2c([H])c(OC3([H])C([H])([H])C([H])([H])C([H])(OC4([H])C([H])([H])C(C([H])([H])[H])(C([H])([H])[H])C([H])([H])C(C([H])([H])[H])(C([H])([H])[H])C4([H])N([H])C(=O)N4C([H])([H])C([H])([H])C([H])([H])C([H])(n5nc(-c6c([H])c([H])c(Oc7c([H])c([H])c(F)c([H])c7F)c([H])c6[H])c(C(=O)N([H])[H])c5N([H])[H])C4([H])[H])C([H])([H])C3([H])[H])c([H])c([H])c2C1([H])[H]

>  <smiles>  (72) 
[H]c1c([H])c([H])c2c(c1[H])C([H])([H])C([H])([H])C([H])([H])C2([H])N([H])C(=O)C1([H])N(C(=O)C([H])(N([H])C(=O)C([H])(N([H])C([H])([H])[H])C([H])([H])[H])C(C([H])([H])[H])(C([H])([H])[H])C([H])([H])[H])C([H])([H])c2c([H])c(OC3([H])C([H])([H])C([H])([H])C([H])(OC4([H])C([H])([H])C(C([H])([H])[H])(C([H])([H])[H])C([H])([H])C(C([H])([H])[H])(C([H])([H])[H])C4([H])N([H])C(=O)N4C([H])([H])C([H])([H])C([H])([H])C([H])(n5nc(-c6c([H])c([H])c(Oc7c([H])c([H])c(F)c([H])c7F)c([H])c6[H])c(C(=O)N([H])[H])c5N([H])[H])C4([H])[H])C([H])([H])C3([H])[H])c([H])c([H])c2C1([H])[H]

$$$$
74:0:0
     RDKit          3D

 92101  0  0  1  0  0  0  0  0999 V2000
  -29.0570  -23.1780   21.6000 C   0  0  0  0  0  0  0  0  0  0  0  0
  -28.6220  -23.4510   20.2640 C   0  0  0  0  0  0  0  0  0  0  0  0
  -29.4200  -21.8460   21.7280 C   0  0  0  0  0  0  0  0  0  0  0  0
  -28.7690  -22.1750   19.6460 C   0  0  0  0  0  0  0  0  0  0  0  0
  -29.0840  -24.1770   22.7310 C   0  0  0  0  0  1  0  0  0  0  0  0
  -29.9390  -21.1640   22.9620 C   0  0  0  0  0  1  0  0  0  0  0  0
  -28.4600  -21.8130   18.2290 C   0  0  0  0  0  1  0  0  0  0  0  0
  -29.2630  -21.1400   20.5270 N   0  0  0  0  0  0  0  0  0  0  0  0
  -30.6920  -15.0600   19.9220 C   0  0  0  0  0  0  0  0  0  0  0  0
  -30.4200  -12.7490   18.9430 C   0  0  0  0  0  2  0  0  0  0  0  0
  -29.4160  -12.7280   17.7720 C   0  0  0  0  0  2  0  0  0  0  0  0
  -27.9860  -12.5170   18.3000 C   0  0  0  0  0  2  0  0  0  0  0  0
  -27.6580  -13.4250   19.5160 C   0  0  0  0  0  3  0  0  0  0  0  0
  -28.7880  -13.4330   20.5670 C   0  0  0  0  0  2  0  0  0  0  0  0
  -30.0080  -13.8480   19.8650 N   0  0  0  0  0  0  0  0  0  0  0  0
  -31.8810  -15.0170   19.5830 O   0  0  0  0  0  0  0  0  0  0  0  0
  -30.0810  -18.9450   19.0440 C   0  0  0  0  0  2  0  0  0  0  0  0
  -28.6740  -18.4700   20.9110 C   0  0  0  0  0  2  0  0  0  0  0  0
  -30.7320  -17.4790   19.1710 C   0  0  0  0  0  2  0  0  0  0  0  0
  -29.2330  -16.9520   21.0260 C   0  0  0  0  0  2  0  0  0  0  0  0
  -29.6450  -19.5990   20.3880 C   0  0  0  0  0  3  0  0  0  0  0  0
  -30.0530  -16.3430   19.9170 N   0  0  0  0  0  0  0  0  0  0  0  0
  -25.3380  -13.9720   20.4400 C   0  0  0  0  0  0  0  0  0  0  0  0
  -24.3010  -13.1830   20.8510 C   0  0  0  0  0  0  0  0  0  0  0  0
  -24.7600  -11.8340   20.7410 C   0  0  0  0  0  0  0  0  0  0  0  0
  -26.3610  -13.1050   20.0990 N   0  0  0  0  0  0  0  0  0  0  0  0
  -26.0280  -11.8120   20.3440 N   0  0  0  0  0  0  0  0  0  0  0  0
  -24.0450  -10.5650   20.9300 C   0  0  0  0  0  0  0  0  0  0  0  0
  -24.4830   -9.6030   21.8660 C   0  0  0  0  0  3  0  0  0  0  0  0
  -23.7660   -8.4000   22.0460 C   0  0  0  0  0  3  0  0  0  0  0  0
  -22.5960   -8.1510   21.2890 C   0  0  0  0  0  0  0  0  0  0  0  0
  -22.1780   -9.1020   20.3420 C   0  0  0  0  0  3  0  0  0  0  0  0
  -22.8960  -10.2960   20.1610 C   0  0  0  0  0  3  0  0  0  0  0  0
  -21.8500   -7.0010   21.3780 O   0  0  0  0  0  0  0  0  0  0  0  0
  -21.7250   -6.3130   22.5590 C   0  0  0  0  0  0  0  0  0  0  0  0
  -21.1870   -6.9140   23.7180 C   0  0  0  0  0  3  0  0  0  0  0  0
  -21.0110   -6.1510   24.8890 C   0  0  0  0  0  3  0  0  0  0  0  0
  -21.3620   -4.7880   24.9020 C   0  0  0  0  0  0  0  0  0  0  0  0
  -21.8940   -4.1870   23.7490 C   0  0  0  0  0  3  0  0  0  0  0  0
  -22.0710   -4.9470   22.5790 C   0  0  0  0  0  0  0  0  0  0  0  0
  -22.5640   -4.3570   21.4630 F   0  0  0  0  0  0  0  0  0  0  0  0
  -21.1870   -4.0540   26.0250 F   0  0  0  0  0  0  0  0  0  0  0  0
  -22.9260  -13.6490   21.2300 C   0  0  0  0  0  0  0  0  0  0  0  0
  -22.2560  -12.9230   22.1190 N   0  0  0  0  0  0  0  0  0  0  0  0
  -22.4560  -14.6900   20.7740 O   0  0  0  0  0  0  0  0  0  0  0  0
  -22.6510  -12.0800   22.5070 H   0  0  0  0  0  0  0  0  0  0  0  0
  -21.3350  -13.2160   22.4150 H   0  0  0  0  0  0  0  0  0  0  0  0
  -25.4920  -15.3490   20.3020 N   0  0  0  0  0  0  0  0  0  0  0  0
  -24.7360  -15.9980   20.4850 H   0  0  0  0  0  0  0  0  0  0  0  0
  -26.3190  -15.7980   19.9300 H   0  0  0  0  0  0  0  0  0  0  0  0
  -27.9470  -24.8490   19.7080 C   0  0  0  0  0  2  0  0  0  0  0  0
  -28.1660  -26.3010   20.2010 O   0  0  0  0  0  0  0  0  0  0  0  0
  -24.5520  -31.9350   23.2250 C   0  0  0  0  0  0  0  0  0  0  0  0
  -27.1230  -27.2910   20.1060 C   0  0  0  0  0  0  0  0  0  0  0  0
  -23.3420  -30.5490   21.5880 C   0  0  0  0  0  3  0  0  0  0  0  0
  -24.7830  -29.0140   20.1210 C   0  0  0  0  0  0  0  0  0  0  0  0
  -25.8920  -30.8390   21.3960 C   0  0  0  0  0  2  0  0  0  0  0  0
  -25.9650  -29.4580   20.7260 C   0  0  0  0  0  0  0  0  0  0  0  0
  -27.1330  -28.6090   20.7130 C   0  0  0  0  0  3  0  0  0  0  0  0
  -25.9230  -26.9680   19.4290 C   0  0  0  0  0  3  0  0  0  0  0  0
  -24.7730  -27.7820   19.4580 C   0  0  0  0  0  3  0  0  0  0  0  0
  -23.5490  -29.8960   20.1960 C   0  0  0  0  0  2  0  0  0  0  0  0
  -24.6160  -31.1290   22.1230 N   0  0  0  0  0  0  0  0  0  0  0  0
  -23.4700  -32.2050   23.7690 O   0  0  0  0  0  0  0  0  0  0  0  0
  -22.6870  -29.5210   22.5460 C   0  0  0  0  0  0  0  0  0  0  0  0
  -21.3670  -29.3070   22.4050 N   0  0  0  0  0  0  0  0  0  0  0  0
  -23.3680  -28.9190   23.3790 O   0  0  0  0  0  0  0  0  0  0  0  0
  -20.8730  -29.8440   21.7050 H   0  0  0  0  0  0  0  0  0  0  0  0
  -18.0240  -27.9810   22.8430 C   0  0  0  0  0  0  0  0  0  0  0  0
  -20.5640  -28.3500   23.1700 C   0  0  0  0  0  3  0  0  0  0  0  0
  -20.7370  -26.9150   22.6230 C   0  0  0  0  0  2  0  0  0  0  0  0
  -19.6750  -26.5310   21.5890 C   0  0  0  0  0  2  0  0  0  0  0  0
  -18.2720  -26.6310   22.1940 C   0  0  0  0  0  2  0  0  0  0  0  0
  -19.1010  -28.7960   23.2860 C   0  0  0  0  0  0  0  0  0  0  0  0
  -18.8150  -30.0590   23.8510 C   0  0  0  0  0  3  0  0  0  0  0  0
  -17.4870  -30.5070   23.9780 C   0  0  0  0  0  3  0  0  0  0  0  0
  -16.4260  -29.6900   23.5520 C   0  0  0  0  0  3  0  0  0  0  0  0
  -16.6940  -28.4290   22.9910 C   0  0  0  0  0  3  0  0  0  0  0  0
  -25.8320  -32.5750   23.8420 C   0  0  0  0  0  3  0  0  0  0  0  0
  -25.5240  -33.9780   24.1600 N   0  0  0  0  0  0  0  0  0  0  0  0
  -25.8250  -35.0230   23.3780 C   0  0  0  0  0  0  0  0  0  0  0  0
  -26.4620  -34.9080   22.3280 O   0  0  0  0  0  0  0  0  0  0  0  0
  -24.9570  -34.1400   24.9810 H   0  0  0  0  0  0  0  0  0  0  0  0
  -24.0680  -36.7980   23.0740 C   0  0  0  0  0  1  0  0  0  0  0  0
  -25.3480  -36.4170   23.8340 C   0  0  0  0  0  3  0  0  0  0  0  0
  -27.5060  -37.3360   24.5610 C   0  0  0  0  0  1  0  0  0  0  0  0
  -26.3650  -37.4770   23.6580 N   0  0  0  0  0  0  0  0  0  0  0  0
  -25.9580  -38.3970   23.8010 H   0  0  0  0  0  0  0  0  0  0  0  0
  -26.3420  -31.8200   25.1300 C   0  0  1  0  0  0  0  0  0  0  0  0
  -25.2410  -31.5880   26.1920 C   0  0  0  0  0  1  0  0  0  0  0  0
  -26.9330  -30.4400   24.7600 C   0  0  0  0  0  1  0  0  0  0  0  0
  -27.4870  -32.6250   25.7910 C   0  0  0  0  0  1  0  0  0  0  0  0
  1  3  2  0
  1  5  1  0
  2  1  1  0
  3  6  1  0
  4  2  2  0
  4  8  1  0
  7  4  1  0
  8  3  1  0
 10 15  1  0
 11 12  1  0
 11 10  1  0
 13 12  1  0
 13 26  1  0
 13 14  1  0
 15  9  1  0
 15 14  1  0
 16  9  2  0
 17 19  1  0
 18 20  1  0
 19 22  1  0
 21 17  1  0
 21  8  1  0
 21 18  1  0
 22  9  1  0
 22 20  1  0
 23 24  2  0
 24 43  1  0
 25 24  1  0
 25 28  1  0
 26 27  1  0
 26 23  1  0
 27 25  2  0
 28 29  1  0
 29 30  2  0
 31 34  1  0
 31 30  1  0
 32 31  2  0
 33 32  1  0
 33 28  2  0
 34 35  1  0
 35 40  2  0
 35 36  1  0
 36 37  2  0
 37 38  1  0
 38 42  1  0
 39 38  2  0
 40 39  1  0
 41 40  1  0
 43 44  1  0
 44 47  1  0
 44 46  1  0
 45 43  2  0
 48 23  1  0
 48 49  1  0
 50 48  1  0
 51 52  1  0
 51  2  1  0
 53 64  2  0
 54 52  1  0
 54 59  1  0
 55 63  1  0
 55 65  1  0
 56 62  1  0
 56 58  1  0
 57 63  1  0
 58 57  1  0
 59 58  2  0
 60 61  1  0
 60 54  2  0
 61 56  2  0
 62 55  1  0
 63 53  1  0
 65 67  2  0
 66 65  1  0
 68 66  1  0
 69 78  2  0
 69 74  1  0
 70 66  1  0
 70 74  1  0
 71 70  1  0
 72 73  1  0
 72 71  1  0
 73 69  1  0
 74 75  2  0
 75 76  1  0
 77 76  2  0
 78 77  1  0
 79 53  1  0
 79 80  1  0
 79 89  1  0
 80 83  1  0
 81 85  1  0
 81 80  1  0
 82 81  2  0
 85 84  1  0
 87 88  1  0
 87 85  1  0
 87 86  1  0
 89 92  1  1
 89 90  1  0
 91 89  1  0
M  ISO  4   9 100  22 100  51 101  52 101
M  END
>  <TORSDO>  (73) 
F 17

>  <SCORE>  (73) 
-14.866

>  <name>  (73) 
74

>  <ligand_id>  (73) 
74

>  <original_smiles>  (73) 
[H]c1c([H])c([H])c2c(c1[H])C([H])([H])C([H])([H])C([H])([H])C2([H])N([H])C(=O)C1([H])N(C(=O)C([H])(N([H])C(=O)C([H])(N([H])C([H])([H])[H])C([H])([H])[H])C(C([H])([H])[H])(C([H])([H])[H])C([H])([H])[H])C([H])([H])c2c([H])c(OC([H])([H])c3c(C([H])([H])[H])c(C([H])([H])[H])n(C4([H])C([H])([H])C([H])([H])N(C(=O)N5C([H])([H])C([H])([H])C([H])([H])C([H])(n6nc(-c7c([H])c([H])c(Oc8c([H])c([H])c(F)c([H])c8F)c([H])c7[H])c(C(=O)N([H])[H])c6N([H])[H])C5([H])[H])C([H])([H])C4([H])[H])c3C([H])([H])[H])c([H])c([H])c2C1([H])[H]

>  <smiles>  (73) 
[H]c1c([H])c([H])c2c(c1[H])C([H])([H])C([H])([H])C([H])([H])C2([H])N([H])C(=O)C1([H])N(C(=O)C([H])(N([H])C(=O)C([H])(N([H])C([H])([H])[H])C([H])([H])[H])C(C([H])([H])[H])(C([H])([H])[H])C([H])([H])[H])C([H])([H])c2c([H])c(OC([H])([H])c3c(C([H])([H])[H])c(C([H])([H])[H])n(C4([H])C([H])([H])C([H])([H])N(C(=O)N5C([H])([H])C([H])([H])C([H])([H])C([H])(n6nc(-c7c([H])c([H])c(Oc8c([H])c([H])c(F)c([H])c8F)c([H])c7[H])c(C(=O)N([H])[H])c6N([H])[H])C5([H])[H])C([H])([H])C4([H])[H])c3C([H])([H])[H])c([H])c([H])c2C1([H])[H]

$$$$
75:0:0
     RDKit          3D

 94103  0  0  1  0  0  0  0  0999 V2000
  -28.2300  -23.1050   19.4590 C   0  0  0  0  0  0  0  0  0  0  0  0
  -28.3680  -21.6760   19.3280 C   0  0  0  0  0  0  0  0  0  0  0  0
  -28.6200  -23.7610   20.6640 C   0  0  0  0  0  0  0  0  0  0  0  0
  -28.9050  -20.9020   20.4030 C   0  0  0  0  0  0  0  0  0  0  0  0
  -29.2460  -22.9070   21.6250 C   0  0  0  0  0  0  0  0  0  0  0  0
  -27.5700  -23.9180   18.3520 C   0  0  0  0  0  1  0  0  0  0  0  0
  -29.7890  -23.4540   22.9380 C   0  0  0  0  0  1  0  0  0  0  0  0
  -29.3720  -21.5510   21.4990 N   0  0  0  0  0  0  0  0  0  0  0  0
  -26.3650  -20.6260   18.1070 C   0  0  0  0  0  1  0  0  0  0  0  0
  -27.8680  -20.9560   18.0700 C   0  0  0  0  0  2  0  0  0  0  0  0
  -28.1420  -25.2260   21.0680 C   0  0  0  0  0  2  0  0  0  0  0  0
  -28.3990  -26.4420   20.2670 O   0  0  0  0  0  0  0  0  0  0  0  0
  -24.6450  -31.8510   23.2290 C   0  0  0  0  0  0  0  0  0  0  0  0
  -27.3130  -27.3260   20.2110 C   0  0  0  0  0  0  0  0  0  0  0  0
  -23.4690  -30.4480   21.5730 C   0  0  0  0  0  3  0  0  0  0  0  0
  -24.9450  -28.9160   20.1580 C   0  0  0  0  0  0  0  0  0  0  0  0
  -26.0060  -30.7900   21.4140 C   0  0  0  0  0  2  0  0  0  0  0  0
  -26.1030  -29.4160   20.7670 C   0  0  0  0  0  0  0  0  0  0  0  0
  -27.2970  -28.6330   20.7790 C   0  0  0  0  0  3  0  0  0  0  0  0
  -26.1320  -26.8760   19.5840 C   0  0  0  0  0  3  0  0  0  0  0  0
  -24.9610  -27.6490   19.5550 C   0  0  0  0  0  3  0  0  0  0  0  0
  -23.7030  -29.7800   20.1930 C   0  0  0  0  0  2  0  0  0  0  0  0
  -24.7260  -31.0450   22.1310 N   0  0  0  0  0  0  0  0  0  0  0  0
  -23.5550  -32.1180   23.7530 O   0  0  0  0  0  0  0  0  0  0  0  0
  -22.8040  -29.4250   22.5220 C   0  0  0  0  0  0  0  0  0  0  0  0
  -21.4750  -29.2610   22.3990 N   0  0  0  0  0  0  0  0  0  0  0  0
  -23.4820  -28.7830   23.3310 O   0  0  0  0  0  0  0  0  0  0  0  0
  -20.9910  -29.8280   21.7180 H   0  0  0  0  0  0  0  0  0  0  0  0
  -18.0860  -28.1090   22.9230 C   0  0  0  0  0  0  0  0  0  0  0  0
  -20.6510  -28.3230   23.1640 C   0  0  0  0  0  3  0  0  0  0  0  0
  -20.7240  -26.9010   22.5630 C   0  0  0  0  0  2  0  0  0  0  0  0
  -19.6030  -26.6120   21.5590 C   0  0  0  0  0  2  0  0  0  0  0  0
  -18.2320  -26.7680   22.2220 C   0  0  0  0  0  2  0  0  0  0  0  0
  -19.2220  -28.8450   23.3520 C   0  0  0  0  0  0  0  0  0  0  0  0
  -19.0290  -30.1020   23.9660 C   0  0  0  0  0  3  0  0  0  0  0  0
  -17.7330  -30.6210   24.1590 C   0  0  0  0  0  3  0  0  0  0  0  0
  -16.6130  -29.8780   23.7470 C   0  0  0  0  0  3  0  0  0  0  0  0
  -16.7900  -28.6250   23.1350 C   0  0  0  0  0  3  0  0  0  0  0  0
  -25.9180  -32.4920   23.8650 C   0  0  0  0  0  3  0  0  0  0  0  0
  -26.4310  -31.7180   25.1420 C   0  0  1  0  0  0  0  0  0  0  0  0
  -25.3320  -31.4560   26.1980 C   0  0  0  0  0  1  0  0  0  0  0  0
  -27.0370  -30.3500   24.7490 C   0  0  0  0  0  1  0  0  0  0  0  0
  -27.5700  -32.5180   25.8160 C   0  0  0  0  0  1  0  0  0  0  0  0
  -25.5950  -33.8860   24.2030 N   0  0  0  0  0  0  0  0  0  0  0  0
  -25.9080  -34.9440   23.4440 C   0  0  0  0  0  0  0  0  0  0  0  0
  -26.5730  -34.8500   22.4080 O   0  0  0  0  0  0  0  0  0  0  0  0
  -25.0080  -34.0340   25.0110 H   0  0  0  0  0  0  0  0  0  0  0  0
  -24.1540  -36.7120   23.0990 C   0  0  0  0  0  1  0  0  0  0  0  0
  -25.4050  -36.3250   23.9050 C   0  0  0  0  0  3  0  0  0  0  0  0
  -27.5310  -37.2330   24.7260 C   0  0  0  0  0  1  0  0  0  0  0  0
  -26.4230  -37.3910   23.7890 N   0  0  0  0  0  0  0  0  0  0  0  0
  -26.0050  -38.3060   23.9450 H   0  0  0  0  0  0  0  0  0  0  0  0
  -28.6970  -19.3360   20.5310 C   0  0  0  0  0  2  0  0  0  0  0  0
  -30.7430  -14.6110   20.0300 C   0  0  0  0  0  0  0  0  0  0  0  0
  -30.3960  -12.4020   18.9320 C   0  0  0  0  0  2  0  0  0  0  0  0
  -29.3840  -12.5430   17.7740 C   0  0  0  0  0  2  0  0  0  0  0  0
  -27.9370  -12.4010   18.2850 C   0  0  0  0  0  2  0  0  0  0  0  0
  -27.6610  -13.2440   19.5610 C   0  0  0  0  0  3  0  0  0  0  0  0
  -28.7880  -13.0900   20.6090 C   0  0  0  0  0  2  0  0  0  0  0  0
  -30.0590  -13.4230   19.9500 N   0  0  0  0  0  0  0  0  0  0  0  0
  -31.8510  -14.7350   19.5010 O   0  0  0  0  0  0  0  0  0  0  0  0
  -30.1940  -17.7330   21.9800 C   0  0  0  0  0  2  0  0  0  0  0  0
  -30.7340  -16.2980   21.8070 C   0  0  0  0  0  2  0  0  0  0  0  0
  -29.6130  -16.8790   19.8260 C   0  0  0  0  0  2  0  0  0  0  0  0
  -29.8740  -18.2520   20.5740 C   0  0  0  0  0  3  0  0  0  0  0  0
  -30.1300  -15.7070   20.6040 N   0  0  0  0  0  0  0  0  0  0  0  0
  -25.3150  -13.8230   20.4280 C   0  0  0  0  0  0  0  0  0  0  0  0
  -24.2700  -13.0420   20.8440 C   0  0  0  0  0  0  0  0  0  0  0  0
  -24.7280  -11.6920   20.7590 C   0  0  0  0  0  0  0  0  0  0  0  0
  -26.3450  -12.9500   20.1200 N   0  0  0  0  0  0  0  0  0  0  0  0
  -26.0000  -11.6600   20.3770 N   0  0  0  0  0  0  0  0  0  0  0  0
  -24.0100  -10.4260   20.9620 C   0  0  0  0  0  0  0  0  0  0  0  0
  -24.4620   -9.4600   21.8900 C   0  0  0  0  0  3  0  0  0  0  0  0
  -23.7430   -8.2610   22.0820 C   0  0  0  0  0  3  0  0  0  0  0  0
  -22.5580   -8.0190   21.3460 C   0  0  0  0  0  0  0  0  0  0  0  0
  -22.1260   -8.9700   20.4070 C   0  0  0  0  0  3  0  0  0  0  0  0
  -22.8450  -10.1620   20.2130 C   0  0  0  0  0  3  0  0  0  0  0  0
  -21.8080   -6.8710   21.4520 O   0  0  0  0  0  0  0  0  0  0  0  0
  -21.7390   -6.1590   22.6230 C   0  0  0  0  0  0  0  0  0  0  0  0
  -21.2750   -6.7400   23.8230 C   0  0  0  0  0  3  0  0  0  0  0  0
  -21.1560   -5.9530   24.9860 C   0  0  0  0  0  3  0  0  0  0  0  0
  -21.4910   -4.5870   24.9500 C   0  0  0  0  0  0  0  0  0  0  0  0
  -21.9470   -4.0050   23.7540 C   0  0  0  0  0  3  0  0  0  0  0  0
  -22.0670   -4.7900   22.5930 C   0  0  0  0  0  0  0  0  0  0  0  0
  -22.4870   -4.2180   21.4380 F   0  0  0  0  0  0  0  0  0  0  0  0
  -21.3720   -3.8290   26.0650 F   0  0  0  0  0  0  0  0  0  0  0  0
  -22.8920  -13.5150   21.2090 C   0  0  0  0  0  0  0  0  0  0  0  0
  -22.2180  -12.8060   22.1090 N   0  0  0  0  0  0  0  0  0  0  0  0
  -22.4220  -14.5460   20.7300 O   0  0  0  0  0  0  0  0  0  0  0  0
  -22.6100  -11.9700   22.5150 H   0  0  0  0  0  0  0  0  0  0  0  0
  -21.2950  -13.1020   22.3920 H   0  0  0  0  0  0  0  0  0  0  0  0
  -25.4690  -15.1960   20.2640 N   0  0  0  0  0  0  0  0  0  0  0  0
  -24.7160  -15.8530   20.4340 H   0  0  0  0  0  0  0  0  0  0  0  0
  -26.3000  -15.6360   19.8910 H   0  0  0  0  0  0  0  0  0  0  0  0
  1  3  1  0
  2  1  2  0
  2  4  1  0
  3 11  1  0
  3  5  2  0
  4 53  1  0
  4  8  2  0
  5  7  1  0
  6  1  1  0
  8  5  1  0
 10  9  1  0
 10  2  1  0
 12 11  1  0
 13 24  2  0
 14 12  1  0
 14 19  1  0
 15 23  1  0
 15 25  1  0
 16 22  1  0
 16 18  1  0
 17 23  1  0
 18 19  2  0
 18 17  1  0
 20 14  2  0
 21 20  1  0
 21 16  2  0
 22 15  1  0
 23 13  1  0
 25 27  2  0
 26 25  1  0
 28 26  1  0
 29 38  2  0
 29 34  1  0
 30 26  1  0
 30 34  1  0
 31 30  1  0
 32 33  1  0
 32 31  1  0
 33 29  1  0
 34 35  2  0
 35 36  1  0
 37 36  2  0
 38 37  1  0
 39 13  1  0
 39 44  1  0
 39 40  1  0
 40 43  1  1
 40 41  1  0
 42 40  1  0
 44 47  1  0
 45 49  1  0
 45 44  1  0
 46 45  2  0
 49 48  1  0
 51 49  1  0
 51 52  1  0
 51 50  1  0
 54 66  1  0
 55 60  1  0
 56 57  1  0
 56 55  1  0
 58 57  1  0
 58 70  1  0
 58 59  1  0
 60 54  1  0
 60 59  1  0
 61 54  2  0
 63 62  1  0
 64 65  1  0
 64 66  1  0
 65 53  1  0
 65 62  1  0
 66 63  1  0
 67 68  2  0
 68 87  1  0
 69 68  1  0
 69 72  1  0
 70 71  1  0
 70 67  1  0
 71 69  2  0
 72 73  1  0
 73 74  2  0
 75 78  1  0
 75 74  1  0
 76 75  2  0
 77 76  1  0
 77 72  2  0
 78 79  1  0
 79 80  1  0
 80 81  2  0
 82 81  1  0
 82 86  1  0
 83 82  2  0
 84 79  2  0
 84 83  1  0
 85 84  1  0
 87 88  1  0
 88 91  1  0
 88 90  1  0
 89 87  2  0
 92 67  1  0
 92 93  1  0
 94 92  1  0
M  ISO  4  11 101  12 101  54 100  66 100
M  END
>  <TORSDO>  (74) 
F 19

>  <SCORE>  (74) 
-14.628

>  <name>  (74) 
75

>  <ligand_id>  (74) 
75

>  <original_smiles>  (74) 
[H]c1c([H])c([H])c2c(c1[H])C([H])([H])C([H])([H])C([H])([H])C2([H])N([H])C(=O)C1([H])N(C(=O)C([H])(N([H])C(=O)C([H])(N([H])C([H])([H])[H])C([H])([H])[H])C(C([H])([H])[H])(C([H])([H])[H])C([H])([H])[H])C([H])([H])c2c([H])c(OC([H])([H])c3c(C([H])([H])[H])nc(C([H])([H])C4([H])C([H])([H])N(C(=O)N5C([H])([H])C([H])([H])C([H])([H])C([H])(n6nc(-c7c([H])c([H])c(Oc8c([H])c([H])c(F)c([H])c8F)c([H])c7[H])c(C(=O)N([H])[H])c6N([H])[H])C5([H])[H])C([H])([H])C4([H])[H])c(C([H])([H])C([H])([H])[H])c3C([H])([H])[H])c([H])c([H])c2C1([H])[H]

>  <smiles>  (74) 
[H]c1c([H])c([H])c2c(c1[H])C([H])([H])C([H])([H])C([H])([H])C2([H])N([H])C(=O)C1([H])N(C(=O)C([H])(N([H])C(=O)C([H])(N([H])C([H])([H])[H])C([H])([H])[H])C(C([H])([H])[H])(C([H])([H])[H])C([H])([H])[H])C([H])([H])c2c([H])c(OC([H])([H])c3c(C([H])([H])[H])nc(C([H])([H])C4([H])C([H])([H])N(C(=O)N5C([H])([H])C([H])([H])C([H])([H])C([H])(n6nc(-c7c([H])c([H])c(Oc8c([H])c([H])c(F)c([H])c8F)c([H])c7[H])c(C(=O)N([H])[H])c6N([H])[H])C5([H])[H])C([H])([H])C4([H])[H])c(C([H])([H])C([H])([H])[H])c3C([H])([H])[H])c([H])c([H])c2C1([H])[H]

$$$$
76:0:0
     RDKit          3D

 91 99  0  0  1  0  0  0  0  0999 V2000
  -30.6710  -19.4010   21.2260 C   0  0  0  0  0  0  0  0  0  0  0  0
  -30.2230  -18.6150   19.9470 C   0  0  0  0  0  3  0  0  0  0  0  0
  -29.1810  -21.3070   20.5260 C   0  0  0  0  0  3  0  0  0  0  0  0
  -29.1400  -19.8870   19.5630 C   0  0  0  0  0  3  0  0  0  0  0  0
  -27.7090  -19.3360   19.4850 C   0  0  0  0  0  1  0  0  0  0  0  0
  -30.2350  -20.7170   21.4130 N   0  0  0  0  0  0  0  0  0  0  0  0
  -31.4220  -18.8260   22.0200 O   0  0  0  0  0  0  0  0  0  0  0  0
  -30.7360  -15.6790   20.1610 C   0  0  0  0  0  0  0  0  0  0  0  0
  -30.7830  -13.1500   19.5250 C   0  0  0  0  0  2  0  0  0  0  0  0
  -29.9120  -12.7850   18.2970 C   0  0  0  0  0  2  0  0  0  0  0  0
  -28.4550  -12.5270   18.7160 C   0  0  0  0  0  2  0  0  0  0  0  0
  -27.9460  -13.5920   19.7180 C   0  0  0  0  0  3  0  0  0  0  0  0
  -28.9510  -13.8870   20.8520 C   0  0  0  0  0  2  0  0  0  0  0  0
  -30.1860  -14.3610   20.2050 N   0  0  0  0  0  0  0  0  0  0  0  0
  -31.9670  -15.6630   20.0160 O   0  0  0  0  0  0  0  0  0  0  0  0
  -29.9600  -16.9510   20.0690 N   0  0  0  0  0  0  0  0  0  0  0  0
  -28.9740  -16.7560   20.1530 H   0  0  0  0  0  0  0  0  0  0  0  0
  -25.5830  -14.2020   20.4500 C   0  0  0  0  0  0  0  0  0  0  0  0
  -24.4990  -13.4500   20.8020 C   0  0  0  0  0  0  0  0  0  0  0  0
  -24.9330  -12.0880   20.7680 C   0  0  0  0  0  0  0  0  0  0  0  0
  -26.6070  -13.3040   20.2130 N   0  0  0  0  0  0  0  0  0  0  0  0
  -26.2280  -12.0250   20.4730 N   0  0  0  0  0  0  0  0  0  0  0  0
  -24.1720  -10.8430   20.9390 C   0  0  0  0  0  0  0  0  0  0  0  0
  -24.5180   -9.8940   21.9260 C   0  0  0  0  0  3  0  0  0  0  0  0
  -23.7550   -8.7160   22.0840 C   0  0  0  0  0  3  0  0  0  0  0  0
  -22.6330   -8.4790   21.2540 C   0  0  0  0  0  0  0  0  0  0  0  0
  -22.3070   -9.4170   20.2590 C   0  0  0  0  0  3  0  0  0  0  0  0
  -23.0700  -10.5850   20.0980 C   0  0  0  0  0  3  0  0  0  0  0  0
  -21.8500   -7.3520   21.3190 O   0  0  0  0  0  0  0  0  0  0  0  0
  -21.6730   -6.6650   22.4940 C   0  0  0  0  0  0  0  0  0  0  0  0
  -21.0790   -7.2650   23.6250 C   0  0  0  0  0  3  0  0  0  0  0  0
  -20.8520   -6.5030   24.7880 C   0  0  0  0  0  3  0  0  0  0  0  0
  -21.2100   -5.1420   24.8200 C   0  0  0  0  0  0  0  0  0  0  0  0
  -21.7970   -4.5410   23.6920 C   0  0  0  0  0  3  0  0  0  0  0  0
  -22.0240   -5.3010   22.5310 C   0  0  0  0  0  0  0  0  0  0  0  0
  -22.5710   -4.7120   21.4400 F   0  0  0  0  0  0  0  0  0  0  0  0
  -20.9860   -4.4070   25.9350 F   0  0  0  0  0  0  0  0  0  0  0  0
  -23.1100  -13.9590   21.0510 C   0  0  0  0  0  0  0  0  0  0  0  0
  -22.3470  -13.2710   21.8910 N   0  0  0  0  0  0  0  0  0  0  0  0
  -22.7130  -15.0040   20.5360 O   0  0  0  0  0  0  0  0  0  0  0  0
  -22.6820  -12.4270   22.3300 H   0  0  0  0  0  0  0  0  0  0  0  0
  -21.4130  -13.5960   22.1010 H   0  0  0  0  0  0  0  0  0  0  0  0
  -25.7790  -15.5700   20.2810 N   0  0  0  0  0  0  0  0  0  0  0  0
  -25.0180  -16.2330   20.3750 H   0  0  0  0  0  0  0  0  0  0  0  0
  -26.6220  -15.9870   19.9110 H   0  0  0  0  0  0  0  0  0  0  0  0
  -29.2700  -23.0890   20.0670 C   0  0  0  0  0  0  0  0  0  0  0  0
  -30.2770  -23.4060   19.4280 O   0  0  0  0  0  0  0  0  0  0  0  0
  -28.1930  -24.4630   20.3730 C   0  0  0  0  0  2  0  0  0  0  0  0
  -28.4230  -26.1050   20.1880 O   0  0  0  0  0  0  0  0  0  0  0  0
  -24.5580  -31.8860   23.2540 C   0  0  0  0  0  0  0  0  0  0  0  0
  -27.3640  -27.1710   20.1690 C   0  0  0  0  0  0  0  0  0  0  0  0
  -23.4430  -30.4630   21.5860 C   0  0  0  0  0  3  0  0  0  0  0  0
  -24.9750  -28.9540   20.1450 C   0  0  0  0  0  0  0  0  0  0  0  0
  -25.9980  -30.7970   21.4570 C   0  0  0  0  0  2  0  0  0  0  0  0
  -26.1420  -29.4010   20.7780 C   0  0  0  0  0  0  0  0  0  0  0  0
  -27.3300  -28.5330   20.7600 C   0  0  0  0  0  3  0  0  0  0  0  0
  -26.1570  -26.8830   19.4930 C   0  0  0  0  0  3  0  0  0  0  0  0
  -25.0080  -27.7170   19.4820 C   0  0  0  0  0  3  0  0  0  0  0  0
  -23.7130  -29.8150   20.2010 C   0  0  0  0  0  2  0  0  0  0  0  0
  -24.6870  -31.0760   22.1530 N   0  0  0  0  0  0  0  0  0  0  0  0
  -23.4520  -32.1130   23.7740 O   0  0  0  0  0  0  0  0  0  0  0  0
  -22.7930  -29.4170   22.5320 C   0  0  0  0  0  0  0  0  0  0  0  0
  -21.4870  -29.1420   22.3540 N   0  0  0  0  0  0  0  0  0  0  0  0
  -23.4730  -28.8550   23.3930 O   0  0  0  0  0  0  0  0  0  0  0  0
  -20.9870  -29.6510   21.6400 H   0  0  0  0  0  0  0  0  0  0  0  0
  -18.2030  -27.6420   22.7290 C   0  0  0  0  0  0  0  0  0  0  0  0
  -20.7150  -28.1410   23.1000 C   0  0  0  0  0  3  0  0  0  0  0  0
  -20.9690  -26.7190   22.5480 C   0  0  0  0  0  2  0  0  0  0  0  0
  -19.9470  -26.2900   21.4910 C   0  0  0  0  0  2  0  0  0  0  0  0
  -18.5310  -26.3120   22.0730 C   0  0  0  0  0  2  0  0  0  0  0  0
  -19.2280  -28.5090   23.1960 C   0  0  0  0  0  0  0  0  0  0  0  0
  -18.8680  -29.7450   23.7720 C   0  0  0  0  0  3  0  0  0  0  0  0
  -17.5150  -30.1230   23.8820 C   0  0  0  0  0  3  0  0  0  0  0  0
  -16.5050  -29.2570   23.4280 C   0  0  0  0  0  3  0  0  0  0  0  0
  -16.8490  -28.0190   22.8580 C   0  0  0  0  0  3  0  0  0  0  0  0
  -25.7910  -32.5820   23.9050 C   0  0  0  0  0  3  0  0  0  0  0  0
  -26.2840  -31.8620   25.2210 C   0  0  1  0  0  0  0  0  0  0  0  0
  -25.1590  -31.6140   26.2550 C   0  0  0  0  0  1  0  0  0  0  0  0
  -26.9280  -30.4960   24.8960 C   0  0  0  0  0  1  0  0  0  0  0  0
  -27.3810  -32.7130   25.9040 C   0  0  0  0  0  1  0  0  0  0  0  0
  -25.4210  -33.9790   24.2030 N   0  0  0  0  0  0  0  0  0  0  0  0
  -25.7000  -35.0300   23.4210 C   0  0  0  0  0  0  0  0  0  0  0  0
  -26.3590  -34.9310   22.3830 O   0  0  0  0  0  0  0  0  0  0  0  0
  -24.8310  -34.1250   25.0080 H   0  0  0  0  0  0  0  0  0  0  0  0
  -23.8760  -36.7370   23.0950 C   0  0  0  0  0  1  0  0  0  0  0  0
  -25.1700  -36.4120   23.8600 C   0  0  0  0  0  3  0  0  0  0  0  0
  -27.2860  -37.4340   24.5760 C   0  0  0  0  0  1  0  0  0  0  0  0
  -26.1460  -37.5080   23.6670 N   0  0  0  0  0  0  0  0  0  0  0  0
  -25.7000  -38.4120   23.7910 H   0  0  0  0  0  0  0  0  0  0  0  0
  -29.7970  -21.2670   23.8010 C   0  0  0  0  0  1  0  0  0  0  0  0
  -30.6800  -21.5090   22.5670 C   0  0  0  0  0  2  0  0  0  0  0  0
  1  6  1  0
  1  7  2  0
  2 16  1  0
  2  1  1  0
  3 46  1  0
  3  6  1  0
  4  5  1  0
  4  2  1  0
  4  3  1  0
  6 91  1  0
  8 14  1  0
  9 14  1  0
 10 11  1  0
 10  9  1  0
 12 11  1  0
 12 21  1  0
 12 13  1  0
 14 13  1  0
 15  8  2  0
 16 17  1  0
 16  8  1  0
 18 19  2  0
 19 38  1  0
 20 19  1  0
 20 23  1  0
 21 18  1  0
 21 22  1  0
 22 20  2  0
 23 24  1  0
 24 25  2  0
 26 29  1  0
 26 25  1  0
 27 26  2  0
 28 27  1  0
 28 23  2  0
 29 30  1  0
 30 35  2  0
 30 31  1  0
 31 32  2  0
 32 33  1  0
 33 37  1  0
 34 33  2  0
 35 34  1  0
 36 35  1  0
 38 39  1  0
 39 42  1  0
 39 41  1  0
 40 38  2  0
 43 44  1  0
 43 18  1  0
 45 43  1  0
 46 48  1  0
 47 46  2  0
 49 48  1  0
 50 61  2  0
 51 49  1  0
 51 56  1  0
 52 60  1  0
 52 62  1  0
 53 59  1  0
 53 55  1  0
 54 60  1  0
 55 54  1  0
 56 55  2  0
 57 51  2  0
 58 57  1  0
 58 53  2  0
 59 52  1  0
 60 50  1  0
 62 64  2  0
 63 62  1  0
 65 63  1  0
 66 75  2  0
 66 71  1  0
 67 63  1  0
 67 71  1  0
 68 67  1  0
 69 70  1  0
 69 68  1  0
 70 66  1  0
 71 72  2  0
 72 73  1  0
 74 73  2  0
 75 74  1  0
 76 50  1  0
 76 81  1  0
 76 77  1  0
 77 80  1  1
 77 78  1  0
 79 77  1  0
 81 84  1  0
 82 86  1  0
 82 81  1  0
 83 82  2  0
 86 85  1  0
 88 89  1  0
 88 86  1  0
 88 87  1  0
 91 90  1  0
M  ISO  4   8 100  16 100  48 101  49 101
M  END
>  <TORSDO>  (75) 
F 19

>  <SCORE>  (75) 
-15.791

>  <name>  (75) 
76

>  <ligand_id>  (75) 
76

>  <original_smiles>  (75) 
[H]c1c([H])c([H])c2c(c1[H])C([H])([H])C([H])([H])C([H])([H])C2([H])N([H])C(=O)C1([H])N(C(=O)C([H])(N([H])C(=O)C([H])(N([H])C([H])([H])[H])C([H])([H])[H])C(C([H])([H])[H])(C([H])([H])[H])C([H])([H])[H])C([H])([H])c2c([H])c(OC([H])([H])C(=O)C3([H])N(C([H])([H])C([H])([H])[H])C(=O)C([H])(N([H])C(=O)N4C([H])([H])C([H])([H])C([H])([H])C([H])(n5nc(-c6c([H])c([H])c(Oc7c([H])c([H])c(F)c([H])c7F)c([H])c6[H])c(C(=O)N([H])[H])c5N([H])[H])C4([H])[H])C3([H])C([H])([H])[H])c([H])c([H])c2C1([H])[H]

>  <smiles>  (75) 
[H]c1c([H])c([H])c2c(c1[H])C([H])([H])C([H])([H])C([H])([H])C2([H])N([H])C(=O)C1([H])N(C(=O)C([H])(N([H])C(=O)C([H])(N([H])C([H])([H])[H])C([H])([H])[H])C(C([H])([H])[H])(C([H])([H])[H])C([H])([H])[H])C([H])([H])c2c([H])c(OC([H])([H])C(=O)C3([H])N(C([H])([H])C([H])([H])[H])C(=O)C([H])(N([H])C(=O)N4C([H])([H])C([H])([H])C([H])([H])C([H])(n5nc(-c6c([H])c([H])c(Oc7c([H])c([H])c(F)c([H])c7F)c([H])c6[H])c(C(=O)N([H])[H])c5N([H])[H])C4([H])[H])C3([H])C([H])([H])[H])c([H])c([H])c2C1([H])[H]

$$$$
77:0:0
     RDKit          3D

 93102  0  0  1  0  0  0  0  0999 V2000
  -28.5880  -23.2710   19.2540 C   0  0  0  0  0  3  0  0  0  0  0  0
  -28.8970  -21.9130   18.9360 C   0  0  0  0  0  3  0  0  0  0  0  0
  -29.2550  -22.7720   21.4770 C   0  0  0  0  0  3  0  0  0  0  0  0
  -28.7470  -23.7590   20.5730 C   0  0  0  0  0  0  0  0  0  0  0  0
  -29.3700  -21.0010   19.9150 C   0  0  0  0  0  0  0  0  0  0  0  0
  -29.5570  -21.4630   21.1730 N   0  0  0  0  0  0  0  0  0  0  0  0
  -29.6040  -19.6260   19.5500 N   0  0  0  0  0  0  0  0  0  0  0  0
  -29.3970  -19.4320   18.5770 H   0  0  0  0  0  0  0  0  0  0  0  0
  -30.8540  -14.7180   19.9900 C   0  0  0  0  0  0  0  0  0  0  0  0
  -30.5270  -12.4810   18.9310 C   0  0  0  0  0  2  0  0  0  0  0  0
  -29.5120  -12.5930   17.7730 C   0  0  0  0  0  2  0  0  0  0  0  0
  -28.0730  -12.4220   18.2980 C   0  0  0  0  0  2  0  0  0  0  0  0
  -27.7910  -13.2890   19.5530 C   0  0  0  0  0  3  0  0  0  0  0  0
  -28.9210  -13.1620   20.5980 C   0  0  0  0  0  2  0  0  0  0  0  0
  -30.1790  -13.5180   19.9290 N   0  0  0  0  0  0  0  0  0  0  0  0
  -31.9910  -14.7950   19.5160 O   0  0  0  0  0  0  0  0  0  0  0  0
  -29.4770  -17.9150   21.4530 C   0  0  0  0  0  2  0  0  0  0  0  0
  -29.8170  -16.3990   21.5640 C   0  0  0  0  0  2  0  0  0  0  0  0
  -30.2580  -17.1270   19.3780 C   0  0  0  0  0  2  0  0  0  0  0  0
  -30.2540  -18.4540   20.2460 C   0  0  1  0  0  0  0  0  0  0  0  0
  -31.7080  -18.8030   20.6260 C   0  0  0  0  0  1  0  0  0  0  0  0
  -30.1360  -15.8870   20.2210 N   0  0  0  0  0  0  0  0  0  0  0  0
  -25.4710  -13.8850   20.4710 C   0  0  0  0  0  0  0  0  0  0  0  0
  -24.4200  -13.1120   20.8860 C   0  0  0  0  0  0  0  0  0  0  0  0
  -24.8570  -11.7570   20.7660 C   0  0  0  0  0  0  0  0  0  0  0  0
  -26.4800  -13.0020   20.1280 N   0  0  0  0  0  0  0  0  0  0  0  0
  -26.1230  -11.7150   20.3640 N   0  0  0  0  0  0  0  0  0  0  0  0
  -24.1250  -10.4970   20.9570 C   0  0  0  0  0  0  0  0  0  0  0  0
  -24.5640   -9.5190   21.8750 C   0  0  0  0  0  3  0  0  0  0  0  0
  -23.8320   -8.3250   22.0540 C   0  0  0  0  0  3  0  0  0  0  0  0
  -22.6450   -8.1020   21.3160 C   0  0  0  0  0  0  0  0  0  0  0  0
  -22.2250   -9.0690   20.3860 C   0  0  0  0  0  3  0  0  0  0  0  0
  -22.9580  -10.2550   20.2050 C   0  0  0  0  0  3  0  0  0  0  0  0
  -21.8830   -6.9620   21.4050 O   0  0  0  0  0  0  0  0  0  0  0  0
  -21.7850   -6.2520   22.5750 C   0  0  0  0  0  0  0  0  0  0  0  0
  -21.3000   -6.8390   23.7650 C   0  0  0  0  0  3  0  0  0  0  0  0
  -21.1500   -6.0540   24.9250 C   0  0  0  0  0  3  0  0  0  0  0  0
  -21.4730   -4.6850   24.8970 C   0  0  0  0  0  0  0  0  0  0  0  0
  -21.9500   -4.0970   23.7120 C   0  0  0  0  0  3  0  0  0  0  0  0
  -22.1020   -4.8790   22.5540 C   0  0  0  0  0  0  0  0  0  0  0  0
  -22.5420   -4.3040   21.4090 F   0  0  0  0  0  0  0  0  0  0  0  0
  -21.3230   -3.9300   26.0100 F   0  0  0  0  0  0  0  0  0  0  0  0
  -23.0550  -13.5960   21.2790 C   0  0  0  0  0  0  0  0  0  0  0  0
  -22.3810  -12.8760   22.1680 N   0  0  0  0  0  0  0  0  0  0  0  0
  -22.5970  -14.6490   20.8350 O   0  0  0  0  0  0  0  0  0  0  0  0
  -22.7650  -12.0220   22.5460 H   0  0  0  0  0  0  0  0  0  0  0  0
  -21.4680  -13.1810   22.4750 H   0  0  0  0  0  0  0  0  0  0  0  0
  -25.6480  -15.2590   20.3350 N   0  0  0  0  0  0  0  0  0  0  0  0
  -24.9090  -15.9280   20.5210 H   0  0  0  0  0  0  0  0  0  0  0  0
  -26.4900  -15.6900   19.9770 H   0  0  0  0  0  0  0  0  0  0  0  0
  -28.6550  -25.5390   22.4830 C   0  0  0  0  0  1  0  0  0  0  0  0
  -28.2030  -25.1760   21.0580 C   0  0  0  0  0  3  0  0  0  0  0  0
  -28.4210  -26.4160   20.2700 O   0  0  0  0  0  0  0  0  0  0  0  0
  -24.5400  -31.8020   23.1700 C   0  0  0  0  0  0  0  0  0  0  0  0
  -27.3220  -27.2910   20.2080 C   0  0  0  0  0  0  0  0  0  0  0  0
  -23.4120  -30.3800   21.4970 C   0  0  0  0  0  3  0  0  0  0  0  0
  -24.9340  -28.8550   20.1130 C   0  0  0  0  0  0  0  0  0  0  0  0
  -25.9470  -30.7490   21.3830 C   0  0  0  0  0  2  0  0  0  0  0  0
  -26.0750  -29.3700   20.7450 C   0  0  0  0  0  0  0  0  0  0  0  0
  -27.2770  -28.5990   20.7820 C   0  0  0  0  0  3  0  0  0  0  0  0
  -26.1650  -26.8300   19.5500 C   0  0  0  0  0  3  0  0  0  0  0  0
  -24.9810  -27.5910   19.5030 C   0  0  0  0  0  3  0  0  0  0  0  0
  -23.6810  -29.7070   20.1240 C   0  0  0  0  0  2  0  0  0  0  0  0
  -24.6510  -30.9930   22.0760 N   0  0  0  0  0  0  0  0  0  0  0  0
  -23.4360  -32.0580   23.6710 O   0  0  0  0  0  0  0  0  0  0  0  0
  -22.7350  -29.3540   22.4390 C   0  0  0  0  0  0  0  0  0  0  0  0
  -21.4120  -29.1750   22.2900 N   0  0  0  0  0  0  0  0  0  0  0  0
  -23.4020  -28.7250   23.2630 O   0  0  0  0  0  0  0  0  0  0  0  0
  -20.9310  -29.7400   21.6030 H   0  0  0  0  0  0  0  0  0  0  0  0
  -18.0300  -27.9660   22.7230 C   0  0  0  0  0  0  0  0  0  0  0  0
  -20.5830  -28.2260   23.0380 C   0  0  0  0  0  3  0  0  0  0  0  0
  -20.6980  -26.8010   22.4500 C   0  0  0  0  0  2  0  0  0  0  0  0
  -19.6130  -26.4850   21.4170 C   0  0  0  0  0  2  0  0  0  0  0  0
  -18.2200  -26.6230   22.0400 C   0  0  0  0  0  2  0  0  0  0  0  0
  -19.1410  -28.7250   23.1800 C   0  0  0  0  0  0  0  0  0  0  0  0
  -18.9110  -29.9820   23.7800 C   0  0  0  0  0  3  0  0  0  0  0  0
  -17.6030  -30.4800   23.9320 C   0  0  0  0  0  3  0  0  0  0  0  0
  -16.5060  -29.7170   23.4940 C   0  0  0  0  0  3  0  0  0  0  0  0
  -16.7210  -28.4620   22.8960 C   0  0  0  0  0  3  0  0  0  0  0  0
  -25.7930  -32.4570   23.8300 C   0  0  0  0  0  3  0  0  0  0  0  0
  -25.4480  -33.8480   24.1550 N   0  0  0  0  0  0  0  0  0  0  0  0
  -25.7780  -34.9070   23.4040 C   0  0  0  0  0  0  0  0  0  0  0  0
  -26.4730  -34.8170   22.3900 O   0  0  0  0  0  0  0  0  0  0  0  0
  -24.8340  -33.9900   24.9430 H   0  0  0  0  0  0  0  0  0  0  0  0
  -24.0230  -36.6670   23.0170 C   0  0  0  0  0  1  0  0  0  0  0  0
  -25.2560  -36.2870   23.8520 C   0  0  0  0  0  3  0  0  0  0  0  0
  -27.3550  -37.2160   24.7230 C   0  0  0  0  0  1  0  0  0  0  0  0
  -26.2690  -37.3600   23.7570 N   0  0  0  0  0  0  0  0  0  0  0  0
  -25.8420  -38.2720   23.8960 H   0  0  0  0  0  0  0  0  0  0  0  0
  -26.2840  -31.6910   25.1200 C   0  0  1  0  0  0  0  0  0  0  0  0
  -25.1650  -31.4340   26.1550 C   0  0  0  0  0  1  0  0  0  0  0  0
  -26.8990  -30.3230   24.7400 C   0  0  0  0  0  1  0  0  0  0  0  0
  -27.4000  -32.5010   25.8180 C   0  0  0  0  0  1  0  0  0  0  0  0
  1  4  1  0
  2  1  2  0
  2  5  1  0
  4 52  1  0
  4  3  2  0
  5  6  2  0
  6  3  1  0
  7  5  1  0
  7 20  1  0
  8  7  1  0
  9 22  1  0
 10 15  1  0
 11 12  1  0
 11 10  1  0
 13 12  1  0
 13 26  1  0
 13 14  1  0
 15  9  1  0
 15 14  1  0
 16  9  2  0
 17 18  1  0
 19 22  1  0
 19 20  1  0
 20 21  1  1
 20 17  1  0
 22 18  1  0
 23 24  2  0
 24 43  1  0
 25 24  1  0
 25 28  1  0
 26 27  1  0
 26 23  1  0
 27 25  2  0
 28 29  1  0
 29 30  2  0
 31 34  1  0
 31 30  1  0
 32 31  2  0
 33 32  1  0
 33 28  2  0
 34 35  1  0
 35 36  1  0
 36 37  2  0
 38 37  1  0
 38 42  1  0
 39 38  2  0
 40 35  2  0
 40 39  1  0
 41 40  1  0
 43 44  1  0
 44 47  1  0
 44 46  1  0
 45 43  2  0
 48 23  1  0
 48 49  1  0
 50 48  1  0
 52 51  1  0
 53 52  1  0
 54 65  2  0
 55 53  1  0
 55 60  1  0
 56 64  1  0
 56 66  1  0
 57 63  1  0
 57 59  1  0
 58 64  1  0
 59 60  2  0
 59 58  1  0
 61 55  2  0
 62 61  1  0
 62 57  2  0
 63 56  1  0
 64 54  1  0
 66 68  2  0
 67 66  1  0
 69 67  1  0
 70 79  2  0
 70 75  1  0
 71 67  1  0
 71 75  1  0
 72 71  1  0
 73 74  1  0
 73 72  1  0
 74 70  1  0
 75 76  2  0
 76 77  1  0
 78 77  2  0
 79 78  1  0
 80 54  1  0
 80 81  1  0
 80 90  1  0
 81 84  1  0
 82 86  1  0
 82 81  1  0
 83 82  2  0
 86 85  1  0
 88 86  1  0
 88 89  1  0
 88 87  1  0
 90 93  1  1
 90 91  1  0
 92 90  1  0
M  ISO  4   9 100  22 100  52 101  53 101
M  END
>  <TORSDO>  (76) 
F 17

>  <SCORE>  (76) 
-14.803

>  <name>  (76) 
77

>  <ligand_id>  (76) 
77

>  <original_smiles>  (76) 
[H]c1nc(N([H])C2(C([H])([H])[H])C([H])([H])N(C(=O)N3C([H])([H])C([H])([H])C([H])([H])C([H])(n4nc(-c5c([H])c([H])c(Oc6c([H])c([H])c(F)c([H])c6F)c([H])c5[H])c(C(=O)N([H])[H])c4N([H])[H])C3([H])[H])C([H])([H])C2([H])[H])c([H])c([H])c1C([H])(Oc1c([H])c([H])c2c(c1[H])C([H])([H])N(C(=O)C([H])(N([H])C(=O)C([H])(N([H])C([H])([H])[H])C([H])([H])[H])C(C([H])([H])[H])(C([H])([H])[H])C([H])([H])[H])C([H])(C(=O)N([H])C1([H])c3c([H])c([H])c([H])c([H])c3C([H])([H])C([H])([H])C1([H])[H])C2([H])[H])C([H])([H])[H]

>  <smiles>  (76) 
[H]c1nc(N([H])C2(C([H])([H])[H])C([H])([H])N(C(=O)N3C([H])([H])C([H])([H])C([H])([H])C([H])(n4nc(-c5c([H])c([H])c(Oc6c([H])c([H])c(F)c([H])c6F)c([H])c5[H])c(C(=O)N([H])[H])c4N([H])[H])C3([H])[H])C([H])([H])C2([H])[H])c([H])c([H])c1C([H])(Oc1c([H])c([H])c2c(c1[H])C([H])([H])N(C(=O)C([H])(N([H])C(=O)C([H])(N([H])C([H])([H])[H])C([H])([H])[H])C(C([H])([H])[H])(C([H])([H])[H])C([H])([H])[H])C([H])(C(=O)N([H])C1([H])c3c([H])c([H])c([H])c([H])c3C([H])([H])C([H])([H])C1([H])[H])C2([H])[H])C([H])([H])[H]

$$$$
78:0:0
     RDKit          3D

 90 99  0  0  1  0  0  0  0  0999 V2000
  -28.1410  -21.8930   20.3110 C   0  0  0  0  0  3  0  0  0  0  0  0
  -28.4960  -20.4560   20.2730 C   0  0  0  0  0  0  0  0  0  0  0  0
  -28.9160  -23.0130   19.8090 C   0  0  0  0  0  0  0  0  0  0  0  0
  -29.7470  -19.9330   19.7440 C   0  0  0  0  0  0  0  0  0  0  0  0
  -30.1230  -22.4000   19.2790 C   0  0  0  0  0  0  0  0  0  0  0  0
  -27.4490  -19.4860   20.7960 C   0  0  0  0  0  1  0  0  0  0  0  0
  -31.1020  -23.3080   18.5630 C   0  0  0  0  0  1  0  0  0  0  0  0
  -30.4980  -21.0230   19.2890 N   0  0  0  0  0  0  0  0  0  0  0  0
  -31.0110  -15.4450   19.7400 C   0  0  0  0  0  0  0  0  0  0  0  0
  -30.9470  -13.0030   18.9110 C   0  0  0  0  0  2  0  0  0  0  0  0
  -29.9430  -12.7790   17.7550 C   0  0  0  0  0  2  0  0  0  0  0  0
  -28.5380  -12.4940   18.3130 C   0  0  0  0  0  2  0  0  0  0  0  0
  -28.1540  -13.4790   19.4460 C   0  0  0  0  0  3  0  0  0  0  0  0
  -29.2760  -13.6540   20.4900 C   0  0  0  0  0  2  0  0  0  0  0  0
  -30.4590  -14.1430   19.7630 N   0  0  0  0  0  0  0  0  0  0  0  0
  -32.1720  -15.4810   19.3030 O   0  0  0  0  0  0  0  0  0  0  0  0
  -31.0500  -18.2370   21.1110 C   0  0  0  0  0  2  0  0  0  0  0  0
  -30.1840  -17.0250   21.4380 C   0  0  0  0  0  2  0  0  0  0  0  0
  -30.4230  -18.3170   19.7090 C   0  0  0  0  0  3  0  0  0  0  0  0
  -30.2670  -16.6840   20.0200 N   0  0  0  0  0  0  0  0  0  0  0  0
  -25.8950  -14.0150   20.5010 C   0  0  0  0  0  0  0  0  0  0  0  0
  -24.8580  -13.2280   20.9140 C   0  0  0  0  0  0  0  0  0  0  0  0
  -25.2810  -11.8760   20.7120 C   0  0  0  0  0  0  0  0  0  0  0  0
  -26.8780  -13.1470   20.0660 N   0  0  0  0  0  0  0  0  0  0  0  0
  -26.5290  -11.8470   20.2600 N   0  0  0  0  0  0  0  0  0  0  0  0
  -24.5460  -10.6150   20.8690 C   0  0  0  0  0  0  0  0  0  0  0  0
  -24.9010   -9.6660   21.8540 C   0  0  0  0  0  3  0  0  0  0  0  0
  -24.1620   -8.4710   21.9970 C   0  0  0  0  0  3  0  0  0  0  0  0
  -23.0550   -8.2160   21.1540 C   0  0  0  0  0  0  0  0  0  0  0  0
  -22.7190   -9.1530   20.1600 C   0  0  0  0  0  3  0  0  0  0  0  0
  -23.4590  -10.3390   20.0150 C   0  0  0  0  0  3  0  0  0  0  0  0
  -22.2970   -7.0700   21.2020 O   0  0  0  0  0  0  0  0  0  0  0  0
  -21.9390   -6.4940   22.3950 C   0  0  0  0  0  0  0  0  0  0  0  0
  -21.1550   -7.1820   23.3480 C   0  0  0  0  0  3  0  0  0  0  0  0
  -20.7500   -6.5290   24.5280 C   0  0  0  0  0  3  0  0  0  0  0  0
  -21.1180   -5.1890   24.7550 C   0  0  0  0  0  0  0  0  0  0  0  0
  -21.8940   -4.5020   23.8050 C   0  0  0  0  0  3  0  0  0  0  0  0
  -22.3000   -5.1520   22.6280 C   0  0  0  0  0  0  0  0  0  0  0  0
  -23.0290   -4.4780   21.7050 F   0  0  0  0  0  0  0  0  0  0  0  0
  -20.7230   -4.5600   25.8870 F   0  0  0  0  0  0  0  0  0  0  0  0
  -23.5110  -13.7020   21.3730 C   0  0  0  0  0  0  0  0  0  0  0  0
  -22.8750  -12.9600   22.2710 N   0  0  0  0  0  0  0  0  0  0  0  0
  -23.0370  -14.7640   20.9710 O   0  0  0  0  0  0  0  0  0  0  0  0
  -23.2770  -12.1020   22.6170 H   0  0  0  0  0  0  0  0  0  0  0  0
  -21.9730  -13.2560   22.6170 H   0  0  0  0  0  0  0  0  0  0  0  0
  -26.0790  -15.3940   20.4330 N   0  0  0  0  0  0  0  0  0  0  0  0
  -25.3520  -16.0510   20.6920 H   0  0  0  0  0  0  0  0  0  0  0  0
  -26.9070  -15.8410   20.0630 H   0  0  0  0  0  0  0  0  0  0  0  0
  -28.2590  -24.5930   19.5360 C   0  0  0  0  0  2  0  0  0  0  0  0
  -28.4950  -26.0940   20.0900 O   0  0  0  0  0  0  0  0  0  0  0  0
  -24.6160  -31.6930   23.2320 C   0  0  0  0  0  0  0  0  0  0  0  0
  -27.4610  -27.1540   20.0240 C   0  0  0  0  0  0  0  0  0  0  0  0
  -23.5250  -30.3470   21.4820 C   0  0  0  0  0  3  0  0  0  0  0  0
  -25.0800  -28.9050   20.0090 C   0  0  0  0  0  0  0  0  0  0  0  0
  -26.0780  -30.6880   21.4190 C   0  0  0  0  0  2  0  0  0  0  0  0
  -26.2290  -29.3280   20.6910 C   0  0  0  0  0  0  0  0  0  0  0  0
  -27.4140  -28.4710   20.6840 C   0  0  0  0  0  3  0  0  0  0  0  0
  -26.2850  -26.8840   19.2860 C   0  0  0  0  0  3  0  0  0  0  0  0
  -25.1300  -27.7030   19.2890 C   0  0  0  0  0  3  0  0  0  0  0  0
  -23.8170  -29.7600   20.0740 C   0  0  0  0  0  2  0  0  0  0  0  0
  -24.7570  -30.9330   22.0990 N   0  0  0  0  0  0  0  0  0  0  0  0
  -23.5030  -31.9060   23.7390 O   0  0  0  0  0  0  0  0  0  0  0  0
  -22.8540  -29.2650   22.3670 C   0  0  0  0  0  0  0  0  0  0  0  0
  -21.5390  -29.0450   22.1890 N   0  0  0  0  0  0  0  0  0  0  0  0
  -23.5260  -28.6270   23.1810 O   0  0  0  0  0  0  0  0  0  0  0  0
  -21.0490  -29.6160   21.5150 H   0  0  0  0  0  0  0  0  0  0  0  0
  -18.1950  -27.6970   22.5670 C   0  0  0  0  0  0  0  0  0  0  0  0
  -20.7420  -28.0310   22.8850 C   0  0  0  0  0  3  0  0  0  0  0  0
  -20.9010  -26.6440   22.2180 C   0  0  0  0  0  2  0  0  0  0  0  0
  -19.8230  -26.3550   21.1670 C   0  0  0  0  0  2  0  0  0  0  0  0
  -18.4290  -26.4060   21.7990 C   0  0  0  0  0  2  0  0  0  0  0  0
  -19.2810  -28.4660   23.0630 C   0  0  0  0  0  0  0  0  0  0  0  0
  -19.0090  -29.6730   23.7430 C   0  0  0  0  0  3  0  0  0  0  0  0
  -17.6850  -30.1120   23.9340 C   0  0  0  0  0  3  0  0  0  0  0  0
  -16.6130  -29.3400   23.4500 C   0  0  0  0  0  3  0  0  0  0  0  0
  -16.8700  -28.1340   22.7720 C   0  0  0  0  0  3  0  0  0  0  0  0
  -25.8450  -32.3480   23.9310 C   0  0  0  0  0  3  0  0  0  0  0  0
  -25.4860  -33.7380   24.2630 N   0  0  0  0  0  0  0  0  0  0  0  0
  -25.7680  -34.8040   23.5010 C   0  0  0  0  0  0  0  0  0  0  0  0
  -26.4210  -34.7220   22.4580 O   0  0  0  0  0  0  0  0  0  0  0  0
  -24.9020  -33.8690   25.0750 H   0  0  0  0  0  0  0  0  0  0  0  0
  -23.9540  -36.5290   23.2130 C   0  0  0  0  0  1  0  0  0  0  0  0
  -25.2440  -36.1780   23.9690 C   0  0  0  0  0  3  0  0  0  0  0  0
  -27.3620  -37.1750   24.7160 C   0  0  0  0  0  1  0  0  0  0  0  0
  -26.2270  -37.2710   23.8020 N   0  0  0  0  0  0  0  0  0  0  0  0
  -25.7850  -38.1760   23.9440 H   0  0  0  0  0  0  0  0  0  0  0  0
  -26.2980  -31.5770   25.2330 C   0  0  1  0  0  0  0  0  0  0  0  0
  -25.1420  -31.2870   26.2210 C   0  0  0  0  0  1  0  0  0  0  0  0
  -26.9530  -30.2220   24.8750 C   0  0  0  0  0  1  0  0  0  0  0  0
  -27.3740  -32.4020   25.9760 C   0  0  0  0  0  1  0  0  0  0  0  0
  2  1  1  0
  2  6  1  0
  3  1  2  0
  4  2  2  0
  5  8  2  0
  5  3  1  0
  7  5  1  0
  8  4  1  0
  9 15  1  0
  9 20  1  0
 10 15  1  0
 11 12  1  0
 11 10  1  0
 13 12  1  0
 13 24  1  0
 13 14  1  0
 15 14  1  0
 16  9  2  0
 17 18  1  0
 19  4  1  0
 19 20  1  0
 19 17  1  0
 20 18  1  0
 21 22  2  0
 22 41  1  0
 23 26  1  0
 23 22  1  0
 24 25  1  0
 24 21  1  0
 25 23  2  0
 26 27  1  0
 27 28  2  0
 29 32  1  0
 29 28  1  0
 30 29  2  0
 31 30  1  0
 31 26  2  0
 32 33  1  0
 33 38  2  0
 33 34  1  0
 34 35  2  0
 35 36  1  0
 36 40  1  0
 37 36  2  0
 38 37  1  0
 39 38  1  0
 41 42  1  0
 42 45  1  0
 42 44  1  0
 43 41  2  0
 46 21  1  0
 46 47  1  0
 48 46  1  0
 49  3  1  0
 49 50  1  0
 51 62  2  0
 52 50  1  0
 52 57  1  0
 53 61  1  0
 53 63  1  0
 54 60  1  0
 54 56  1  0
 55 61  1  0
 56 55  1  0
 57 56  2  0
 58 59  1  0
 58 52  2  0
 59 54  2  0
 60 53  1  0
 61 51  1  0
 63 65  2  0
 64 63  1  0
 66 64  1  0
 67 76  2  0
 67 72  1  0
 68 64  1  0
 68 72  1  0
 69 68  1  0
 70 71  1  0
 70 69  1  0
 71 67  1  0
 72 73  2  0
 73 74  1  0
 75 74  2  0
 76 75  1  0
 77 51  1  0
 77 78  1  0
 77 87  1  0
 78 81  1  0
 79 83  1  0
 79 78  1  0
 80 79  2  0
 83 82  1  0
 85 86  1  0
 85 83  1  0
 85 84  1  0
 87 90  1  1
 87 88  1  0
 89 87  1  0
M  ISO  4   9 100  20 100  49 101  50 101
M  END
>  <TORSDO>  (77) 
F 17

>  <SCORE>  (77) 
-13.848

>  <name>  (77) 
78

>  <ligand_id>  (77) 
78

>  <original_smiles>  (77) 
[H]c1c([H])c([H])c2c(c1[H])C([H])([H])C([H])([H])C([H])([H])C2([H])N([H])C(=O)C1([H])N(C(=O)C([H])(N([H])C(=O)C([H])(N([H])C([H])([H])[H])C([H])([H])[H])C(C([H])([H])[H])(C([H])([H])[H])C([H])([H])[H])C([H])([H])c2c([H])c(OC([H])([H])c3c(C([H])([H])[H])nc(C4([H])N(C(=O)N5C([H])([H])C([H])([H])C([H])([H])C([H])(n6nc(-c7c([H])c([H])c(Oc8c([H])c([H])c(F)c([H])c8F)c([H])c7[H])c(C(=O)N([H])[H])c6N([H])[H])C5([H])[H])C([H])([H])C4([H])[H])c(C([H])([H])[H])c3[H])c([H])c([H])c2C1([H])[H]

>  <smiles>  (77) 
[H]c1c([H])c([H])c2c(c1[H])C([H])([H])C([H])([H])C([H])([H])C2([H])N([H])C(=O)C1([H])N(C(=O)C([H])(N([H])C(=O)C([H])(N([H])C([H])([H])[H])C([H])([H])[H])C(C([H])([H])[H])(C([H])([H])[H])C([H])([H])[H])C([H])([H])c2c([H])c(OC([H])([H])c3c(C([H])([H])[H])nc(C4([H])N(C(=O)N5C([H])([H])C([H])([H])C([H])([H])C([H])(n6nc(-c7c([H])c([H])c(Oc8c([H])c([H])c(F)c([H])c8F)c([H])c7[H])c(C(=O)N([H])[H])c6N([H])[H])C5([H])[H])C([H])([H])C4([H])[H])c(C([H])([H])[H])c3[H])c([H])c([H])c2C1([H])[H]

$$$$
79:0:0
     RDKit          3D

 97106  0  0  1  0  0  0  0  0999 V2000
  -28.3570  -23.9250   18.7190 C   0  0  0  0  0  3  0  0  0  0  0  0
  -30.0510  -23.2880   20.2740 C   0  0  0  0  0  3  0  0  0  0  0  0
  -29.2410  -24.3170   19.7430 C   0  0  0  0  0  0  0  0  0  0  0  0
  -28.1810  -22.5430   18.4270 C   0  0  0  0  0  0  0  0  0  0  0  0
  -28.9330  -21.5650   19.1460 C   0  0  0  0  0  0  0  0  0  0  0  0
  -27.0720  -22.1740   17.4440 C   0  0  0  0  0  1  0  0  0  0  0  0
  -29.9100  -21.9660   19.9930 N   0  0  0  0  0  0  0  0  0  0  0  0
  -29.2490  -25.7280   20.4140 C   0  0  0  0  0  2  0  0  0  0  0  0
  -29.0960  -26.9330   19.6180 O   0  0  0  0  0  0  0  0  0  0  0  0
  -24.7450  -31.4100   23.2400 C   0  0  0  0  0  0  0  0  0  0  0  0
  -27.8900  -27.6140   19.7350 C   0  0  0  0  0  0  0  0  0  0  0  0
  -23.7350  -30.1330   21.3830 C   0  0  0  0  0  3  0  0  0  0  0  0
  -25.3750  -28.9340   19.8340 C   0  0  0  0  0  0  0  0  0  0  0  0
  -26.2290  -30.7260   21.3490 C   0  0  0  0  0  2  0  0  0  0  0  0
  -26.4640  -29.4580   20.5450 C   0  0  0  0  0  0  0  0  0  0  0  0
  -27.7270  -28.8080   20.4920 C   0  0  0  0  0  3  0  0  0  0  0  0
  -26.7810  -27.1280   19.0140 C   0  0  0  0  0  3  0  0  0  0  0  0
  -25.5330  -27.7740   19.0580 C   0  0  0  0  0  3  0  0  0  0  0  0
  -24.0540  -29.6660   19.9380 C   0  0  0  0  0  2  0  0  0  0  0  0
  -24.9180  -30.7670   22.0500 N   0  0  0  0  0  0  0  0  0  0  0  0
  -23.6250  -31.5080   23.7590 O   0  0  0  0  0  0  0  0  0  0  0  0
  -23.1570  -28.9370   22.1750 C   0  0  0  0  0  0  0  0  0  0  0  0
  -21.8610  -28.6520   21.9710 N   0  0  0  0  0  0  0  0  0  0  0  0
  -23.8710  -28.2750   22.9310 O   0  0  0  0  0  0  0  0  0  0  0  0
  -21.3350  -29.2530   21.3530 H   0  0  0  0  0  0  0  0  0  0  0  0
  -18.6290  -27.0410   22.1160 C   0  0  0  0  0  0  0  0  0  0  0  0
  -21.1200  -27.5460   22.5780 C   0  0  0  0  0  3  0  0  0  0  0  0
  -21.4170  -26.2150   21.8500 C   0  0  0  0  0  2  0  0  0  0  0  0
  -20.4140  -25.9020   20.7390 C   0  0  0  0  0  2  0  0  0  0  0  0
  -18.9970  -25.8080   21.3080 C   0  0  0  0  0  2  0  0  0  0  0  0
  -19.6270  -27.8680   22.6980 C   0  0  0  0  0  0  0  0  0  0  0  0
  -19.2310  -29.0230   23.4050 C   0  0  0  0  0  3  0  0  0  0  0  0
  -17.8710  -29.3560   23.5380 C   0  0  0  0  0  3  0  0  0  0  0  0
  -16.8870  -28.5260   22.9710 C   0  0  0  0  0  3  0  0  0  0  0  0
  -17.2670  -27.3710   22.2660 C   0  0  0  0  0  3  0  0  0  0  0  0
  -25.9410  -32.0720   23.9910 C   0  0  0  0  0  3  0  0  0  0  0  0
  -26.3200  -31.3300   25.3310 C   0  0  1  0  0  0  0  0  0  0  0  0
  -25.1200  -31.1040   26.2800 C   0  0  0  0  0  1  0  0  0  0  0  0
  -26.9500  -29.9490   25.0360 C   0  0  0  0  0  1  0  0  0  0  0  0
  -27.3840  -32.1490   26.1010 C   0  0  0  0  0  1  0  0  0  0  0  0
  -25.5770  -33.4700   24.2540 N   0  0  0  0  0  0  0  0  0  0  0  0
  -25.9850  -34.5130   23.5190 C   0  0  0  0  0  0  0  0  0  0  0  0
  -26.7760  -34.4010   22.5780 O   0  0  0  0  0  0  0  0  0  0  0  0
  -24.8830  -33.6290   24.9700 H   0  0  0  0  0  0  0  0  0  0  0  0
  -24.2820  -36.2700   22.9310 C   0  0  0  0  0  1  0  0  0  0  0  0
  -25.4270  -35.9010   23.8880 C   0  0  0  0  0  3  0  0  0  0  0  0
  -27.4440  -36.8320   24.9340 C   0  0  0  0  0  1  0  0  0  0  0  0
  -26.4500  -36.9680   23.8720 N   0  0  0  0  0  0  0  0  0  0  0  0
  -26.0170  -37.8850   23.9570 H   0  0  0  0  0  0  0  0  0  0  0  0
  -28.4000  -20.1020   19.3230 C   0  0  0  0  0  3  0  0  0  0  0  0
  -29.9270  -19.1350   21.3520 C   0  0  0  0  0  2  0  0  0  0  0  0
  -30.5000  -17.7440   21.7160 C   0  0  0  0  0  2  0  0  0  0  0  0
  -29.1860  -18.9100   20.0310 C   0  0  0  0  0  3  0  0  0  0  0  0
  -30.4170  -16.8340   20.4620 C   0  0  0  0  0  3  0  0  0  0  0  0
  -30.0570  -17.8440   19.2960 C   0  0  1  0  0  0  0  0  0  0  0  0
  -29.2500  -17.1660   18.1800 C   0  0  0  0  0  1  0  0  0  0  0  0
  -31.3230  -18.4800   18.6870 C   0  0  0  0  0  1  0  0  0  0  0  0
  -32.1650  -14.8620   20.0330 C   0  0  0  0  0  0  0  0  0  0  0  0
  -31.8000  -12.5260   19.3320 C   0  0  0  0  0  2  0  0  0  0  0  0
  -30.8720  -12.4440   18.1040 C   0  0  0  0  0  2  0  0  0  0  0  0
  -29.4050  -12.3690   18.5650 C   0  0  0  0  0  2  0  0  0  0  0  0
  -29.0550  -13.4700   19.6030 C   0  0  0  0  0  3  0  0  0  0  0  0
  -30.1040  -13.5230   20.7380 C   0  0  0  0  0  2  0  0  0  0  0  0
  -31.4140  -13.7230   20.1100 N   0  0  0  0  0  0  0  0  0  0  0  0
  -33.3260  -14.8220   19.6270 O   0  0  0  0  0  0  0  0  0  0  0  0
  -31.6970  -16.1130   20.2930 N   0  0  0  0  0  0  0  0  0  0  0  0
  -32.4590  -16.7660   20.2160 H   0  0  0  0  0  0  0  0  0  0  0  0
  -26.7530  -14.2570   20.4230 C   0  0  0  0  0  0  0  0  0  0  0  0
  -25.6330  -13.5690   20.7980 C   0  0  0  0  0  0  0  0  0  0  0  0
  -25.9660  -12.1840   20.6950 C   0  0  0  0  0  0  0  0  0  0  0  0
  -27.7040  -13.2980   20.1240 N   0  0  0  0  0  0  0  0  0  0  0  0
  -27.2380  -12.0410   20.3510 N   0  0  0  0  0  0  0  0  0  0  0  0
  -25.1310  -10.9850   20.8490 C   0  0  0  0  0  0  0  0  0  0  0  0
  -25.3890  -10.0330   21.8610 C   0  0  0  0  0  3  0  0  0  0  0  0
  -24.5630   -8.8990   22.0010 C   0  0  0  0  0  3  0  0  0  0  0  0
  -23.4640   -8.7110   21.1300 C   0  0  0  0  0  0  0  0  0  0  0  0
  -23.2270   -9.6480   20.1090 C   0  0  0  0  0  3  0  0  0  0  0  0
  -24.0530  -10.7740   19.9670 C   0  0  0  0  0  3  0  0  0  0  0  0
  -22.6220   -7.6260   21.1750 O   0  0  0  0  0  0  0  0  0  0  0  0
  -22.1950   -7.0970   22.3660 C   0  0  0  0  0  0  0  0  0  0  0  0
  -21.5550   -7.8860   23.3450 C   0  0  0  0  0  3  0  0  0  0  0  0
  -21.0720   -7.2880   24.5250 C   0  0  0  0  0  3  0  0  0  0  0  0
  -21.2160   -5.9010   24.7240 C   0  0  0  0  0  0  0  0  0  0  0  0
  -21.8500   -5.1120   23.7460 C   0  0  0  0  0  3  0  0  0  0  0  0
  -22.3330   -5.7090   22.5690 C   0  0  0  0  0  0  0  0  0  0  0  0
  -22.9210   -4.9410   21.6200 F   0  0  0  0  0  0  0  0  0  0  0  0
  -20.7450   -5.3240   25.8530 F   0  0  0  0  0  0  0  0  0  0  0  0
  -24.2950  -14.1580   21.1360 C   0  0  0  0  0  0  0  0  0  0  0  0
  -23.5340  -13.4950   21.9990 N   0  0  0  0  0  0  0  0  0  0  0  0
  -23.9340  -15.2370   20.6660 O   0  0  0  0  0  0  0  0  0  0  0  0
  -23.8440  -12.6210   22.3970 H   0  0  0  0  0  0  0  0  0  0  0  0
  -22.6340  -13.8670   22.2690 H   0  0  0  0  0  0  0  0  0  0  0  0
  -27.0310  -15.6120   20.2780 N   0  0  0  0  0  0  0  0  0  0  0  0
  -26.3000  -16.3120   20.3360 H   0  0  0  0  0  0  0  0  0  0  0  0
  -27.8910  -15.9630   19.8840 H   0  0  0  0  0  0  0  0  0  0  0  0
  -26.3510  -21.3900   20.4150 C   0  0  0  0  0  1  0  0  0  0  0  0
  -26.8990  -20.1090   19.7570 C   0  0  0  0  0  2  0  0  0  0  0  0
  1  3  1  0
  3  2  2  0
  3  8  1  0
  4  1  2  0
  4  5  1  0
  5 50  1  0
  5  7  2  0
  6  4  1  0
  7  2  1  0
  9 11  1  0
  9  8  1  0
 10 21  2  0
 11 16  1  0
 12 20  1  0
 12 22  1  0
 13 19  1  0
 13 15  1  0
 14 20  1  0
 15 14  1  0
 16 15  2  0
 17 18  1  0
 17 11  2  0
 18 13  2  0
 19 12  1  0
 20 10  1  0
 22 24  2  0
 23 22  1  0
 25 23  1  0
 26 35  2  0
 26 31  1  0
 27 23  1  0
 27 31  1  0
 28 27  1  0
 29 30  1  0
 29 28  1  0
 30 26  1  0
 31 32  2  0
 32 33  1  0
 34 33  2  0
 35 34  1  0
 36 10  1  0
 36 41  1  0
 36 37  1  0
 37 40  1  1
 37 38  1  0
 39 37  1  0
 41 44  1  0
 42 46  1  0
 42 41  1  0
 43 42  2  0
 46 45  1  0
 48 46  1  0
 48 49  1  0
 48 47  1  0
 50 97  1  0
 51 52  1  0
 53 50  1  0
 53 51  1  0
 54 66  1  0
 54 52  1  0
 55 53  1  0
 55 54  1  0
 55 56  1  6
 57 55  1  0
 58 64  1  0
 58 66  1  0
 59 64  1  0
 60 61  1  0
 60 59  1  0
 62 61  1  0
 62 71  1  0
 62 63  1  0
 64 63  1  0
 65 58  2  0
 67 66  1  0
 68 69  2  0
 69 88  1  0
 70 69  1  0
 70 73  1  0
 71 72  1  0
 71 68  1  0
 72 70  2  0
 73 74  1  0
 74 75  2  0
 76 79  1  0
 76 75  1  0
 77 76  2  0
 78 77  1  0
 78 73  2  0
 79 80  1  0
 80 85  2  0
 80 81  1  0
 81 82  2  0
 82 83  1  0
 83 87  1  0
 84 83  2  0
 85 84  1  0
 86 85  1  0
 88 89  1  0
 89 92  1  0
 89 91  1  0
 90 88  2  0
 93 94  1  0
 93 68  1  0
 95 93  1  0
 97 96  1  0
M  ISO  4   8 101   9 101  58 100  66 100
M  END
>  <TORSDO>  (78) 
F 20

>  <SCORE>  (78) 
-8.526

>  <name>  (78) 
79

>  <ligand_id>  (78) 
79

>  <original_smiles>  (78) 
[H]c1nc(C([H])(C([H])([H])C([H])([H])[H])C2([H])C([H])([H])C([H])([H])C([H])(N([H])C(=O)N3C([H])([H])C([H])([H])C([H])([H])C([H])(n4nc(-c5c([H])c([H])c(Oc6c([H])c([H])c(F)c([H])c6F)c([H])c5[H])c(C(=O)N([H])[H])c4N([H])[H])C3([H])[H])C2(C([H])([H])[H])C([H])([H])[H])c(C([H])([H])[H])c([H])c1C([H])([H])Oc1c([H])c([H])c2c(c1[H])C([H])([H])N(C(=O)C([H])(N([H])C(=O)C([H])(N([H])C([H])([H])[H])C([H])([H])[H])C(C([H])([H])[H])(C([H])([H])[H])C([H])([H])[H])C([H])(C(=O)N([H])C1([H])c3c([H])c([H])c([H])c([H])c3C([H])([H])C([H])([H])C1([H])[H])C2([H])[H]

>  <smiles>  (78) 
[H]c1nc(C([H])(C([H])([H])C([H])([H])[H])C2([H])C([H])([H])C([H])([H])C([H])(N([H])C(=O)N3C([H])([H])C([H])([H])C([H])([H])C([H])(n4nc(-c5c([H])c([H])c(Oc6c([H])c([H])c(F)c([H])c6F)c([H])c5[H])c(C(=O)N([H])[H])c4N([H])[H])C3([H])[H])C2(C([H])([H])[H])C([H])([H])[H])c(C([H])([H])[H])c([H])c1C([H])([H])Oc1c([H])c([H])c2c(c1[H])C([H])([H])N(C(=O)C([H])(N([H])C(=O)C([H])(N([H])C([H])([H])[H])C([H])([H])[H])C(C([H])([H])[H])(C([H])([H])[H])C([H])([H])[H])C([H])(C(=O)N([H])C1([H])c3c([H])c([H])c([H])c([H])c3C([H])([H])C([H])([H])C1([H])[H])C2([H])[H]

$$$$
80:0:0
     RDKit          3D

 94103  0  0  1  0  0  0  0  0999 V2000
  -29.3700  -23.1170   21.5710 C   0  0  0  0  0  3  0  0  0  0  0  0
  -29.7880  -21.7460   21.6960 C   0  0  0  0  0  0  0  0  0  0  0  0
  -28.5880  -23.5720   20.4770 C   0  0  0  0  0  0  0  0  0  0  0  0
  -29.3670  -20.7700   20.7360 C   0  0  0  0  0  0  0  0  0  0  0  0
  -28.3390  -22.5460   19.5080 C   0  0  0  0  0  0  0  0  0  0  0  0
  -27.5140  -22.8280   18.2630 C   0  0  0  0  0  1  0  0  0  0  0  0
  -28.7180  -21.2280   19.6310 N   0  0  0  0  0  0  0  0  0  0  0  0
  -30.7840  -14.8510   20.2550 C   0  0  0  0  0  0  0  0  0  0  0  0
  -30.4890  -12.5770   19.2500 C   0  0  0  0  0  2  0  0  0  0  0  0
  -29.5330  -12.5920   18.0420 C   0  0  0  0  0  2  0  0  0  0  0  0
  -28.0870  -12.3600   18.5190 C   0  0  0  0  0  2  0  0  0  0  0  0
  -27.7090  -13.2730   19.7130 C   0  0  0  0  0  3  0  0  0  0  0  0
  -28.7990  -13.3050   20.8140 C   0  0  0  0  0  2  0  0  0  0  0  0
  -30.0690  -13.6670   20.1710 N   0  0  0  0  0  0  0  0  0  0  0  0
  -31.9600  -14.8310   19.8880 O   0  0  0  0  0  0  0  0  0  0  0  0
  -28.7140  -18.1850   20.1190 C   0  0  0  0  0  2  0  0  0  0  0  0
  -31.0210  -18.6010   20.7410 C   0  0  0  0  0  2  0  0  0  0  0  0
  -28.8730  -16.6410   20.4960 C   0  0  0  0  0  2  0  0  0  0  0  0
  -31.1420  -17.1240   21.2850 C   0  0  0  0  0  2  0  0  0  0  0  0
  -29.6000  -19.1870   20.9190 C   0  0  0  0  0  3  0  0  0  0  0  0
  -30.2490  -16.0820   20.6790 N   0  0  0  0  0  0  0  0  0  0  0  0
  -25.3540  -13.8320   20.5530 C   0  0  0  0  0  0  0  0  0  0  0  0
  -24.3090  -13.0380   20.9340 C   0  0  0  0  0  0  0  0  0  0  0  0
  -24.7800  -11.6920   20.8420 C   0  0  0  0  0  0  0  0  0  0  0  0
  -26.3930  -12.9650   20.2500 N   0  0  0  0  0  0  0  0  0  0  0  0
  -26.0580  -11.6730   20.4910 N   0  0  0  0  0  0  0  0  0  0  0  0
  -24.0710  -10.4200   21.0100 C   0  0  0  0  0  0  0  0  0  0  0  0
  -24.4800   -9.4680   21.9690 C   0  0  0  0  0  3  0  0  0  0  0  0
  -23.7670   -8.2610   22.1260 C   0  0  0  0  0  3  0  0  0  0  0  0
  -22.6330   -7.9970   21.3230 C   0  0  0  0  0  0  0  0  0  0  0  0
  -22.2450   -8.9380   20.3520 C   0  0  0  0  0  3  0  0  0  0  0  0
  -22.9590  -10.1360   20.1950 C   0  0  0  0  0  3  0  0  0  0  0  0
  -21.8930   -6.8410   21.3870 O   0  0  0  0  0  0  0  0  0  0  0  0
  -21.7150   -6.1670   22.5680 C   0  0  0  0  0  0  0  0  0  0  0  0
  -21.0720   -6.7590   23.6770 C   0  0  0  0  0  3  0  0  0  0  0  0
  -20.8490   -6.0060   24.8470 C   0  0  0  0  0  3  0  0  0  0  0  0
  -21.2600   -4.6610   24.9080 C   0  0  0  0  0  0  0  0  0  0  0  0
  -21.8960   -4.0680   23.8030 C   0  0  0  0  0  3  0  0  0  0  0  0
  -22.1180   -4.8180   22.6350 C   0  0  0  0  0  0  0  0  0  0  0  0
  -22.7100   -4.2340   21.5650 F   0  0  0  0  0  0  0  0  0  0  0  0
  -21.0400   -3.9340   26.0280 F   0  0  0  0  0  0  0  0  0  0  0  0
  -22.9180  -13.4980   21.2640 C   0  0  0  0  0  0  0  0  0  0  0  0
  -22.2290  -12.7780   22.1420 N   0  0  0  0  0  0  0  0  0  0  0  0
  -22.4550  -14.5290   20.7800 O   0  0  0  0  0  0  0  0  0  0  0  0
  -22.6210  -11.9470   22.5570 H   0  0  0  0  0  0  0  0  0  0  0  0
  -21.2950  -13.0650   22.4060 H   0  0  0  0  0  0  0  0  0  0  0  0
  -25.4980  -15.2100   20.4130 N   0  0  0  0  0  0  0  0  0  0  0  0
  -24.7310  -15.8500   20.5830 H   0  0  0  0  0  0  0  0  0  0  0  0
  -26.3260  -15.6670   20.0550 H   0  0  0  0  0  0  0  0  0  0  0  0
  -29.8140  -21.2440   24.1820 C   0  0  0  0  0  1  0  0  0  0  0  0
  -31.9020  -22.1970   23.0890 C   0  0  0  0  0  1  0  0  0  0  0  0
  -30.6480  -21.3260   22.8950 C   0  0  0  0  0  3  0  0  0  0  0  0
  -27.7420  -24.9360   20.5240 C   0  0  0  0  0  2  0  0  0  0  0  0
  -28.2170  -26.3640   20.3960 O   0  0  0  0  0  0  0  0  0  0  0  0
  -24.6940  -32.0040   23.3760 C   0  0  0  0  0  0  0  0  0  0  0  0
  -27.1750  -27.3350   20.3140 C   0  0  0  0  0  0  0  0  0  0  0  0
  -23.4510  -30.6160   21.7670 C   0  0  0  0  0  3  0  0  0  0  0  0
  -24.8590  -29.0520   20.3190 C   0  0  0  0  0  0  0  0  0  0  0  0
  -25.9990  -30.8800   21.5500 C   0  0  0  0  0  2  0  0  0  0  0  0
  -26.0500  -29.4960   20.9060 C   0  0  0  0  0  0  0  0  0  0  0  0
  -27.2130  -28.6520   20.8940 C   0  0  0  0  0  3  0  0  0  0  0  0
  -25.9590  -26.9910   19.6690 C   0  0  0  0  0  3  0  0  0  0  0  0
  -24.8210  -27.8080   19.6880 C   0  0  0  0  0  3  0  0  0  0  0  0
  -23.6380  -29.9470   20.3840 C   0  0  0  0  0  2  0  0  0  0  0  0
  -24.7360  -31.1830   22.2870 N   0  0  0  0  0  0  0  0  0  0  0  0
  -23.6210  -32.3000   23.9220 O   0  0  0  0  0  0  0  0  0  0  0  0
  -22.7860  -29.6090   22.7360 C   0  0  0  0  0  0  0  0  0  0  0  0
  -21.4760  -29.3630   22.5530 N   0  0  0  0  0  0  0  0  0  0  0  0
  -23.4480  -29.0510   23.6150 O   0  0  0  0  0  0  0  0  0  0  0  0
  -21.0000  -29.8630   21.8150 H   0  0  0  0  0  0  0  0  0  0  0  0
  -18.1590  -27.9530   22.8850 C   0  0  0  0  0  0  0  0  0  0  0  0
  -20.6630  -28.4250   23.3280 C   0  0  0  0  0  3  0  0  0  0  0  0
  -20.9120  -26.9660   22.8770 C   0  0  0  0  0  2  0  0  0  0  0  0
  -19.9220  -26.4890   21.8100 C   0  0  0  0  0  2  0  0  0  0  0  0
  -18.4850  -26.5770   22.3320 C   0  0  0  0  0  2  0  0  0  0  0  0
  -19.1830  -28.8280   23.3390 C   0  0  0  0  0  0  0  0  0  0  0  0
  -18.8290  -30.1080   23.8130 C   0  0  0  0  0  3  0  0  0  0  0  0
  -17.4840  -30.5210   23.8370 C   0  0  0  0  0  3  0  0  0  0  0  0
  -16.4720  -29.6460   23.4020 C   0  0  0  0  0  3  0  0  0  0  0  0
  -16.8100  -28.3640   22.9330 C   0  0  0  0  0  3  0  0  0  0  0  0
  -25.9930  -32.6270   23.9740 C   0  0  0  0  0  3  0  0  0  0  0  0
  -25.7000  -34.0260   24.3180 N   0  0  0  0  0  0  0  0  0  0  0  0
  -25.9760  -35.0760   23.5340 C   0  0  0  0  0  0  0  0  0  0  0  0
  -26.5770  -34.9690   22.4620 O   0  0  0  0  0  0  0  0  0  0  0  0
  -25.1610  -34.1820   25.1570 H   0  0  0  0  0  0  0  0  0  0  0  0
  -24.2020  -36.8460   23.3080 C   0  0  0  0  0  1  0  0  0  0  0  0
  -25.5140  -36.4660   24.0150 C   0  0  0  0  0  3  0  0  0  0  0  0
  -27.6950  -37.3900   24.6630 C   0  0  0  0  0  1  0  0  0  0  0  0
  -26.5200  -37.5290   23.8040 N   0  0  0  0  0  0  0  0  0  0  0  0
  -26.1150  -38.4460   23.9700 H   0  0  0  0  0  0  0  0  0  0  0  0
  -26.5260  -31.8460   25.2380 C   0  0  1  0  0  0  0  0  0  0  0  0
  -25.4400  -31.5680   26.3030 C   0  0  0  0  0  1  0  0  0  0  0  0
  -27.1360  -30.4860   24.8260 C   0  0  0  0  0  1  0  0  0  0  0  0
  -27.6620  -32.6520   25.9100 C   0  0  0  0  0  1  0  0  0  0  0  0
  1  2  1  0
  2 52  1  0
  3 53  1  0
  3  1  2  0
  4  2  2  0
  5  7  2  0
  5  3  1  0
  6  5  1  0
  7  4  1  0
  8 21  1  0
  9 14  1  0
 10 11  1  0
 10  9  1  0
 12 11  1  0
 12 25  1  0
 12 13  1  0
 14  8  1  0
 14 13  1  0
 15  8  2  0
 16 18  1  0
 16 20  1  0
 17 20  1  0
 17 19  1  0
 18 21  1  0
 20  4  1  0
 21 19  1  0
 22 23  2  0
 23 42  1  0
 24 23  1  0
 24 27  1  0
 25 26  1  0
 25 22  1  0
 26 24  2  0
 27 28  1  0
 28 29  2  0
 30 33  1  0
 30 29  1  0
 31 30  2  0
 32 31  1  0
 32 27  2  0
 33 34  1  0
 34 39  2  0
 34 35  1  0
 35 36  2  0
 36 37  1  0
 37 41  1  0
 38 37  2  0
 39 38  1  0
 40 39  1  0
 42 43  1  0
 43 46  1  0
 43 45  1  0
 44 42  2  0
 47 22  1  0
 47 48  1  0
 49 47  1  0
 52 51  1  0
 52 50  1  0
 54 53  1  0
 55 66  2  0
 56 54  1  0
 56 61  1  0
 57 65  1  0
 57 67  1  0
 58 64  1  0
 58 60  1  0
 59 65  1  0
 60 59  1  0
 61 60  2  0
 62 63  1  0
 62 56  2  0
 63 58  2  0
 64 57  1  0
 65 55  1  0
 67 69  2  0
 68 67  1  0
 70 68  1  0
 71 80  2  0
 71 76  1  0
 72 68  1  0
 72 76  1  0
 73 72  1  0
 74 75  1  0
 74 73  1  0
 75 71  1  0
 76 77  2  0
 77 78  1  0
 79 78  2  0
 80 79  1  0
 81 55  1  0
 81 82  1  0
 81 91  1  0
 82 85  1  0
 83 87  1  0
 83 82  1  0
 84 83  2  0
 87 86  1  0
 89 90  1  0
 89 87  1  0
 89 88  1  0
 91 94  1  1
 91 92  1  0
 93 91  1  0
M  ISO  4   8 100  21 100  53 101  54 101
M  END
>  <TORSDO>  (79) 
F 18

>  <SCORE>  (79) 
-13.926

>  <name>  (79) 
80

>  <ligand_id>  (79) 
80

>  <original_smiles>  (79) 
[H]c1c([H])c([H])c2c(c1[H])C([H])([H])C([H])([H])C([H])([H])C2([H])N([H])C(=O)C1([H])N(C(=O)C([H])(N([H])C(=O)C([H])(N([H])C([H])([H])[H])C([H])([H])[H])C(C([H])([H])[H])(C([H])([H])[H])C([H])([H])[H])C([H])([H])c2c([H])c(OC([H])([H])c3c(C([H])([H])[H])nc(C4([H])C([H])([H])C([H])([H])N(C(=O)N5C([H])([H])C([H])([H])C([H])([H])C([H])(n6nc(-c7c([H])c([H])c(Oc8c([H])c([H])c(F)c([H])c8F)c([H])c7[H])c(C(=O)N([H])[H])c6N([H])[H])C5([H])[H])C([H])([H])C4([H])[H])c(C([H])(C([H])([H])[H])C([H])([H])[H])c3[H])c([H])c([H])c2C1([H])[H]

>  <smiles>  (79) 
[H]c1c([H])c([H])c2c(c1[H])C([H])([H])C([H])([H])C([H])([H])C2([H])N([H])C(=O)C1([H])N(C(=O)C([H])(N([H])C(=O)C([H])(N([H])C([H])([H])[H])C([H])([H])[H])C(C([H])([H])[H])(C([H])([H])[H])C([H])([H])[H])C([H])([H])c2c([H])c(OC([H])([H])c3c(C([H])([H])[H])nc(C4([H])C([H])([H])C([H])([H])N(C(=O)N5C([H])([H])C([H])([H])C([H])([H])C([H])(n6nc(-c7c([H])c([H])c(Oc8c([H])c([H])c(F)c([H])c8F)c([H])c7[H])c(C(=O)N([H])[H])c6N([H])[H])C5([H])[H])C([H])([H])C4([H])[H])c(C([H])(C([H])([H])[H])C([H])([H])[H])c3[H])c([H])c([H])c2C1([H])[H]

$$$$
81:0:0
     RDKit          3D

 98107  0  0  1  0  0  0  0  0999 V2000
  -28.6970  -19.5180   19.2620 C   0  0  0  0  0  0  0  0  0  0  0  0
  -29.3170  -20.5700   20.0360 C   0  0  0  0  0  0  0  0  0  0  0  0
  -28.9290  -18.0970   19.5070 C   0  0  0  0  0  0  0  0  0  0  0  0
  -30.1730  -20.0160   21.0470 C   0  0  0  0  0  0  0  0  0  0  0  0
  -29.8070  -17.6350   20.5520 C   0  0  0  0  0  0  0  0  0  0  0  0
  -27.7490  -19.9470   18.1330 C   0  0  0  0  0  1  0  0  0  0  0  0
  -30.3660  -18.6540   21.2890 N   0  0  0  0  0  0  0  0  0  0  0  0
  -30.7380  -15.0750   20.7750 C   0  0  0  0  0  0  0  0  0  0  0  0
  -30.7260  -12.7060   19.9090 C   0  0  0  0  0  2  0  0  0  0  0  0
  -29.8490  -12.6500   18.6360 C   0  0  0  0  0  2  0  0  0  0  0  0
  -28.3660  -12.4360   18.9980 C   0  0  0  0  0  2  0  0  0  0  0  0
  -27.8970  -13.3610   20.1500 C   0  0  0  0  0  3  0  0  0  0  0  0
  -28.9000  -13.3840   21.3240 C   0  0  0  0  0  2  0  0  0  0  0  0
  -30.2010  -13.7940   20.7750 N   0  0  0  0  0  0  0  0  0  0  0  0
  -31.9350  -15.2050   20.4930 O   0  0  0  0  0  0  0  0  0  0  0  0
  -29.8550  -16.1640   20.9320 N   0  0  0  0  0  0  0  0  0  0  0  0
  -28.9580  -15.8290   21.2450 H   0  0  0  0  0  0  0  0  0  0  0  0
  -25.4880  -13.9410   20.7880 C   0  0  0  0  0  0  0  0  0  0  0  0
  -24.4050  -13.1580   21.0810 C   0  0  0  0  0  0  0  0  0  0  0  0
  -24.8710  -11.8080   21.0520 C   0  0  0  0  0  0  0  0  0  0  0  0
  -26.5390  -13.0630   20.5820 N   0  0  0  0  0  0  0  0  0  0  0  0
  -26.1740  -11.7750   20.8040 N   0  0  0  0  0  0  0  0  0  0  0  0
  -24.1390  -10.5410   21.1920 C   0  0  0  0  0  0  0  0  0  0  0  0
  -24.5190   -9.5710   22.1460 C   0  0  0  0  0  3  0  0  0  0  0  0
  -23.7890   -8.3700   22.2740 C   0  0  0  0  0  3  0  0  0  0  0  0
  -22.6660   -8.1310   21.4480 C   0  0  0  0  0  0  0  0  0  0  0  0
  -22.3070   -9.0900   20.4840 C   0  0  0  0  0  3  0  0  0  0  0  0
  -23.0360  -10.2830   20.3550 C   0  0  0  0  0  3  0  0  0  0  0  0
  -21.9120   -6.9830   21.4840 O   0  0  0  0  0  0  0  0  0  0  0  0
  -21.7690   -6.2520   22.6370 C   0  0  0  0  0  0  0  0  0  0  0  0
  -21.1900   -6.8040   23.8010 C   0  0  0  0  0  3  0  0  0  0  0  0
  -20.9970   -5.9970   24.9410 C   0  0  0  0  0  3  0  0  0  0  0  0
  -21.3710   -4.6400   24.9140 C   0  0  0  0  0  0  0  0  0  0  0  0
  -21.9410   -4.0880   23.7550 C   0  0  0  0  0  3  0  0  0  0  0  0
  -22.1360   -4.8920   22.6170 C   0  0  0  0  0  0  0  0  0  0  0  0
  -22.6660   -4.3500   21.4950 F   0  0  0  0  0  0  0  0  0  0  0  0
  -21.1790   -3.8620   26.0060 F   0  0  0  0  0  0  0  0  0  0  0  0
  -23.0000  -13.6310   21.3050 C   0  0  0  0  0  0  0  0  0  0  0  0
  -22.2330  -12.9160   22.1200 N   0  0  0  0  0  0  0  0  0  0  0  0
  -22.5930  -14.6750   20.7950 O   0  0  0  0  0  0  0  0  0  0  0  0
  -22.5750  -12.0710   22.5530 H   0  0  0  0  0  0  0  0  0  0  0  0
  -21.2880  -13.2160   22.3140 H   0  0  0  0  0  0  0  0  0  0  0  0
  -25.6760  -15.3190   20.6710 N   0  0  0  0  0  0  0  0  0  0  0  0
  -24.7580  -15.7440   20.7790 H   0  0  0  0  0  0  0  0  0  0  0  0
  -26.2090  -15.6010   21.4880 H   0  0  0  0  0  0  0  0  0  0  0  0
  -32.1660  -21.6550   21.5050 C   0  0  0  0  0  2  0  0  0  0  0  0
  -32.2940  -20.5570   22.5240 C   0  0  0  0  0  2  0  0  0  0  0  0
  -30.9260  -20.9220   21.9790 C   0  0  0  0  0  3  0  0  0  0  0  0
  -30.1890  -22.4600   18.5160 C   0  0  0  0  0  1  0  0  0  0  0  0
  -29.1400  -22.1630   19.6050 C   0  0  0  0  0  3  0  0  0  0  0  0
  -29.0250  -23.5470   20.5150 C   0  0  0  0  0  2  0  0  0  0  0  0
  -28.2300  -24.8910   19.9170 C   0  0  0  0  0  2  0  0  0  0  0  0
  -28.4030  -26.3790   20.2810 O   0  0  0  0  0  0  0  0  0  0  0  0
  -24.6650  -31.9470   23.2530 C   0  0  0  0  0  0  0  0  0  0  0  0
  -27.3220  -27.3210   20.1910 C   0  0  0  0  0  0  0  0  0  0  0  0
  -23.4860  -30.5390   21.6080 C   0  0  0  0  0  3  0  0  0  0  0  0
  -24.9590  -29.0020   20.1720 C   0  0  0  0  0  0  0  0  0  0  0  0
  -26.0330  -30.8510   21.4470 C   0  0  0  0  0  2  0  0  0  0  0  0
  -26.1280  -29.4680   20.7880 C   0  0  0  0  0  0  0  0  0  0  0  0
  -27.3070  -28.6400   20.7880 C   0  0  0  0  0  3  0  0  0  0  0  0
  -26.1310  -26.9590   19.5200 C   0  0  0  0  0  3  0  0  0  0  0  0
  -24.9720  -27.7600   19.5250 C   0  0  0  0  0  3  0  0  0  0  0  0
  -23.7170  -29.8750   20.2250 C   0  0  0  0  0  2  0  0  0  0  0  0
  -24.7470  -31.1330   22.1580 N   0  0  0  0  0  0  0  0  0  0  0  0
  -23.5750  -32.2130   23.7820 O   0  0  0  0  0  0  0  0  0  0  0  0
  -22.8270  -29.5140   22.5630 C   0  0  0  0  0  0  0  0  0  0  0  0
  -21.5010  -29.3220   22.4340 N   0  0  0  0  0  0  0  0  0  0  0  0
  -23.5080  -28.8980   23.3870 O   0  0  0  0  0  0  0  0  0  0  0  0
  -21.0070  -29.8740   21.7470 H   0  0  0  0  0  0  0  0  0  0  0  0
  -18.1390  -28.0710   22.9300 C   0  0  0  0  0  0  0  0  0  0  0  0
  -20.6930  -28.3710   23.2010 C   0  0  0  0  0  3  0  0  0  0  0  0
  -20.8170  -26.9420   22.6250 C   0  0  0  0  0  2  0  0  0  0  0  0
  -19.7220  -26.6040   21.6070 C   0  0  0  0  0  2  0  0  0  0  0  0
  -18.3380  -26.7270   22.2490 C   0  0  0  0  0  2  0  0  0  0  0  0
  -19.2460  -28.8490   23.3630 C   0  0  0  0  0  0  0  0  0  0  0  0
  -19.0060  -30.1060   23.9600 C   0  0  0  0  0  3  0  0  0  0  0  0
  -17.6930  -30.5860   24.1270 C   0  0  0  0  0  3  0  0  0  0  0  0
  -16.6010  -29.8050   23.7100 C   0  0  0  0  0  3  0  0  0  0  0  0
  -16.8250  -28.5490   23.1170 C   0  0  0  0  0  3  0  0  0  0  0  0
  -25.9350  -32.5980   23.8810 C   0  0  0  0  0  3  0  0  0  0  0  0
  -25.6110  -33.9990   24.1940 N   0  0  0  0  0  0  0  0  0  0  0  0
  -25.9460  -35.0480   23.4310 C   0  0  0  0  0  0  0  0  0  0  0  0
  -26.6270  -34.9390   22.4080 O   0  0  0  0  0  0  0  0  0  0  0  0
  -25.0080  -34.1570   24.9870 H   0  0  0  0  0  0  0  0  0  0  0  0
  -24.2290  -36.8430   23.0260 C   0  0  0  0  0  1  0  0  0  0  0  0
  -25.4480  -36.4390   23.8710 C   0  0  0  0  0  3  0  0  0  0  0  0
  -27.5570  -37.3320   24.7600 C   0  0  0  0  0  1  0  0  0  0  0  0
  -26.4840  -37.4920   23.7810 N   0  0  0  0  0  0  0  0  0  0  0  0
  -26.0730  -38.4130   23.9090 H   0  0  0  0  0  0  0  0  0  0  0  0
  -26.4410  -31.8480   25.1750 C   0  0  1  0  0  0  0  0  0  0  0  0
  -25.3360  -31.6160   26.2330 C   0  0  0  0  0  1  0  0  0  0  0  0
  -27.0410  -30.4690   24.8150 C   0  0  0  0  0  1  0  0  0  0  0  0
  -27.5770  -32.6610   25.8390 C   0  0  0  0  0  1  0  0  0  0  0  0
  -28.2760  -17.0480   18.5800 C   0  0  0  0  0  2  0  0  0  0  0  0
  -26.8650  -16.7400   18.8930 N   0  0  0  0  0  4  0  0  0  0  0  0
  -26.3030  -17.5700   18.9430 H   0  0  0  0  0  0  0  0  0  0  0  0
  -26.7370  -16.2250   19.7580 H   0  0  0  0  0  0  0  0  0  0  0  0
  -26.4800  -16.1640   18.1650 H   0  0  0  0  0  0  0  0  0  0  0  0
  1  3  2  0
  1  2  1  0
  2  4  2  0
  3  5  1  0
  4  7  1  0
  4 48  1  0
  5 16  1  0
  5  7  2  0
  6  1  1  0
  8 14  1  0
  8 16  1  0
  9 14  1  0
 10 11  1  0
 10  9  1  0
 12 11  1  0
 12 21  1  0
 12 13  1  0
 14 13  1  0
 15  8  2  0
 16 17  1  0
 18 19  2  0
 19 38  1  0
 20 19  1  0
 20 23  1  0
 21 18  1  0
 21 22  1  0
 22 20  2  0
 23 24  1  0
 24 25  2  0
 26 29  1  0
 26 25  1  0
 27 26  2  0
 28 27  1  0
 28 23  2  0
 29 30  1  0
 30 31  1  0
 31 32  2  0
 33 32  1  0
 33 37  1  0
 34 33  2  0
 35 30  2  0
 35 34  1  0
 36 35  1  0
 38 39  1  0
 39 42  1  0
 39 41  1  0
 40 38  2  0
 43 44  1  0
 43 18  1  0
 43 45  1  0
 46 48  1  0
 46 47  1  0
 48 47  1  0
 50 49  1  0
 50  2  1  0
 50 51  1  0
 52 53  1  0
 52 51  1  0
 54 65  2  0
 55 53  1  0
 55 60  1  0
 56 64  1  0
 56 66  1  0
 57 63  1  0
 57 59  1  0
 58 64  1  0
 59 58  1  0
 60 59  2  0
 61 62  1  0
 61 55  2  0
 62 57  2  0
 63 56  1  0
 64 54  1  0
 66 68  2  0
 67 66  1  0
 69 67  1  0
 70 79  2  0
 70 75  1  0
 71 67  1  0
 71 75  1  0
 72 71  1  0
 73 74  1  0
 73 72  1  0
 74 70  1  0
 75 76  2  0
 76 77  1  0
 78 77  2  0
 79 78  1  0
 80 54  1  0
 80 81  1  0
 80 90  1  0
 81 84  1  0
 82 86  1  0
 82 81  1  0
 83 82  2  0
 86 85  1  0
 88 86  1  0
 88 89  1  0
 88 87  1  0
 90 93  1  1
 90 91  1  0
 92 90  1  0
 94 95  1  0
 94  3  1  0
 95 96  1  0
 95 97  1  0
 98 95  1  0
M  ISO  4   8 100  16 100  52 101  53 101
M  END
>  <TORSDO>  (80) 
F 22

>  <SCORE>  (80) 
-13.078

>  <name>  (80) 
81

>  <ligand_id>  (80) 
81

>  <original_smiles>  (80) 
[H]c1c([H])c([H])c2c(c1[H])C([H])([H])C([H])([H])C([H])([H])C2([H])N([H])C(=O)C1([H])N(C(=O)C([H])(N([H])C(=O)C([H])(N([H])C([H])([H])[H])C([H])([H])[H])C(C([H])([H])[H])(C([H])([H])[H])C([H])([H])[H])C([H])([H])c2c([H])c(OC([H])([H])C([H])([H])C([H])(c3c(C4([H])C([H])([H])C4([H])[H])nc(N([H])C(=O)N4C([H])([H])C([H])([H])C([H])([H])C([H])(n5nc(-c6c([H])c([H])c(Oc7c([H])c([H])c(F)c([H])c7F)c([H])c6[H])c(C(=O)N([H])[H])c5N([H])[H])C4([H])[H])c(C([H])([H])[N+]([H])([H])[H])c3C([H])([H])[H])C([H])([H])[H])c([H])c([H])c2C1([H])[H]

>  <smiles>  (80) 
[H]c1c([H])c([H])c2c(c1[H])C([H])([H])C([H])([H])C([H])([H])C2([H])N([H])C(=O)C1([H])N(C(=O)C([H])(N([H])C(=O)C([H])(N([H])C([H])([H])[H])C([H])([H])[H])C(C([H])([H])[H])(C([H])([H])[H])C([H])([H])[H])C([H])([H])c2c([H])c(OC([H])([H])C([H])([H])C([H])(c3c(C4([H])C([H])([H])C4([H])[H])nc(N([H])C(=O)N4C([H])([H])C([H])([H])C([H])([H])C([H])(n5nc(-c6c([H])c([H])c(Oc7c([H])c([H])c(F)c([H])c7F)c([H])c6[H])c(C(=O)N([H])[H])c5N([H])[H])C4([H])[H])c(C([H])([H])[N+]([H])([H])[H])c3C([H])([H])[H])C([H])([H])[H])c([H])c([H])c2C1([H])[H]

$$$$
82:0:0
     RDKit          3D

 97106  0  0  1  0  0  0  0  0999 V2000
  -28.1020  -22.4810   18.8610 C   0  0  0  0  0  2  0  0  0  0  0  0
  -29.6880  -21.5950   20.2490 C   0  0  0  0  0  2  0  0  0  0  0  0
  -28.7720  -21.3930   18.0220 C   0  0  0  0  0  3  0  0  0  0  0  0
  -29.8730  -20.7070   18.9430 C   0  0  2  0  0  0  0  0  0  0  0  0
  -29.2650  -22.0950   16.7230 C   0  0  0  0  0  1  0  0  0  0  0  0
  -29.2110  -22.9140   19.7120 N   0  0  2  0  0  4  0  0  0  0  0  0
  -29.9330  -23.1840   19.0590 H   0  0  0  0  0  0  0  0  0  0  0  0
  -29.8220  -18.3210   20.1970 C   0  0  0  0  0  3  0  0  0  0  0  0
  -29.3990  -16.3420   18.8810 C   0  0  0  0  0  3  0  0  0  0  0  0
  -29.6980  -19.1230   19.0000 C   0  0  0  0  0  0  0  0  0  0  0  0
  -29.7150  -16.8860   20.1310 C   0  0  0  0  0  0  0  0  0  0  0  0
  -29.4870  -18.3710   17.7930 C   0  0  0  0  0  0  0  0  0  0  0  0
  -29.5250  -18.8930   16.3640 C   0  0  0  0  0  1  0  0  0  0  0  0
  -29.2920  -17.0460   17.7630 N   0  0  0  0  0  0  0  0  0  0  0  0
  -30.6490  -14.8280   21.1130 C   0  0  0  0  0  0  0  0  0  0  0  0
  -30.5670  -12.5290   20.2040 C   0  0  0  0  0  2  0  0  0  0  0  0
  -29.7720  -12.5390   18.8800 C   0  0  0  0  0  2  0  0  0  0  0  0
  -28.2560  -12.4240   19.1440 C   0  0  0  0  0  2  0  0  0  0  0  0
  -27.7450  -13.3330   20.2970 C   0  0  0  0  0  3  0  0  0  0  0  0
  -28.6790  -13.2870   21.5270 C   0  0  0  0  0  2  0  0  0  0  0  0
  -30.0390  -13.6040   21.0670 N   0  0  0  0  0  0  0  0  0  0  0  0
  -31.8420  -14.9710   20.8410 O   0  0  0  0  0  0  0  0  0  0  0  0
  -29.8450  -15.9300   21.2160 N   0  0  0  0  0  0  0  0  0  0  0  0
  -28.9690  -15.7210   21.6720 H   0  0  0  0  0  0  0  0  0  0  0  0
  -25.2860  -13.9060   20.7690 C   0  0  0  0  0  0  0  0  0  0  0  0
  -24.1990  -13.1210   21.0380 C   0  0  0  0  0  0  0  0  0  0  0  0
  -24.6800  -11.7760   21.0670 C   0  0  0  0  0  0  0  0  0  0  0  0
  -26.3610  -13.0380   20.6490 N   0  0  0  0  0  0  0  0  0  0  0  0
  -25.9950  -11.7530   20.8890 N   0  0  0  0  0  0  0  0  0  0  0  0
  -23.9580  -10.5060   21.2000 C   0  0  0  0  0  0  0  0  0  0  0  0
  -24.3370   -9.5390   22.1560 C   0  0  0  0  0  3  0  0  0  0  0  0
  -23.6160   -8.3300   22.2750 C   0  0  0  0  0  3  0  0  0  0  0  0
  -22.5040   -8.0810   21.4350 C   0  0  0  0  0  0  0  0  0  0  0  0
  -22.1470   -9.0380   20.4670 C   0  0  0  0  0  3  0  0  0  0  0  0
  -22.8680  -10.2370   20.3470 C   0  0  0  0  0  3  0  0  0  0  0  0
  -21.7620   -6.9260   21.4620 O   0  0  0  0  0  0  0  0  0  0  0  0
  -21.6580   -6.1640   22.5980 C   0  0  0  0  0  0  0  0  0  0  0  0
  -21.1610   -6.6950   23.8080 C   0  0  0  0  0  3  0  0  0  0  0  0
  -21.0050   -5.8590   24.9320 C   0  0  0  0  0  3  0  0  0  0  0  0
  -21.3350   -4.4930   24.8450 C   0  0  0  0  0  0  0  0  0  0  0  0
  -21.8270   -3.9610   23.6390 C   0  0  0  0  0  3  0  0  0  0  0  0
  -21.9840   -4.7950   22.5180 C   0  0  0  0  0  0  0  0  0  0  0  0
  -22.4370   -4.2740   21.3520 F   0  0  0  0  0  0  0  0  0  0  0  0
  -21.1790   -3.6880   25.9210 F   0  0  0  0  0  0  0  0  0  0  0  0
  -22.7750  -13.5790   21.1670 C   0  0  0  0  0  0  0  0  0  0  0  0
  -21.9790  -12.8810   21.9690 N   0  0  0  0  0  0  0  0  0  0  0  0
  -22.3740  -14.5880   20.5910 O   0  0  0  0  0  0  0  0  0  0  0  0
  -22.3150  -12.0640   22.4550 H   0  0  0  0  0  0  0  0  0  0  0  0
  -21.0190  -13.1690   22.0960 H   0  0  0  0  0  0  0  0  0  0  0  0
  -25.4480  -15.2780   20.5960 N   0  0  0  0  0  0  0  0  0  0  0  0
  -24.6590  -15.9170   20.6210 H   0  0  0  0  0  0  0  0  0  0  0  0
  -26.3160  -15.7340   20.3470 H   0  0  0  0  0  0  0  0  0  0  0  0
  -32.4590  -20.2890   19.2270 C   0  0  0  0  0  1  0  0  0  0  0  0
  -31.3330  -21.0010   18.4560 C   0  0  0  0  0  2  0  0  0  0  0  0
  -29.0120  -24.1560   20.5550 C   0  0  0  0  0  2  0  0  0  0  0  0
  -28.1880  -25.2860   19.8120 C   0  0  0  0  0  2  0  0  0  0  0  0
  -28.3180  -26.7020   20.1650 O   0  0  0  0  0  0  0  0  0  0  0  0
  -24.5500  -31.9850   23.2020 C   0  0  0  0  0  0  0  0  0  0  0  0
  -27.1760  -27.5070   20.0860 C   0  0  0  0  0  0  0  0  0  0  0  0
  -23.3380  -30.5800   21.5730 C   0  0  0  0  0  3  0  0  0  0  0  0
  -24.7860  -29.0690   20.1140 C   0  0  0  0  0  0  0  0  0  0  0  0
  -25.8680  -30.9400   21.3550 C   0  0  0  0  0  2  0  0  0  0  0  0
  -25.9530  -29.5690   20.7030 C   0  0  0  0  0  0  0  0  0  0  0  0
  -27.1470  -28.7970   20.6900 C   0  0  0  0  0  3  0  0  0  0  0  0
  -25.9880  -27.0700   19.4440 C   0  0  0  0  0  3  0  0  0  0  0  0
  -24.8040  -27.8220   19.4770 C   0  0  0  0  0  3  0  0  0  0  0  0
  -23.5380  -29.9200   20.1850 C   0  0  0  0  0  2  0  0  0  0  0  0
  -24.6040  -31.1840   22.0990 N   0  0  0  0  0  0  0  0  0  0  0  0
  -23.4710  -32.2470   23.7530 O   0  0  0  0  0  0  0  0  0  0  0  0
  -22.7060  -29.5460   22.5350 C   0  0  0  0  0  0  0  0  0  0  0  0
  -21.3810  -29.3540   22.4250 N   0  0  0  0  0  0  0  0  0  0  0  0
  -23.4050  -28.9220   23.3380 O   0  0  0  0  0  0  0  0  0  0  0  0
  -20.8770  -29.9050   21.7440 H   0  0  0  0  0  0  0  0  0  0  0  0
  -18.0250  -28.1230   22.9620 C   0  0  0  0  0  0  0  0  0  0  0  0
  -20.5830  -28.4070   23.2050 C   0  0  0  0  0  3  0  0  0  0  0  0
  -20.6950  -26.9790   22.6230 C   0  0  0  0  0  2  0  0  0  0  0  0
  -19.5830  -26.6460   21.6220 C   0  0  0  0  0  2  0  0  0  0  0  0
  -18.2080  -26.7760   22.2820 C   0  0  0  0  0  2  0  0  0  0  0  0
  -19.1400  -28.8950   23.3800 C   0  0  0  0  0  0  0  0  0  0  0  0
  -18.9140  -30.1570   23.9750 C   0  0  0  0  0  3  0  0  0  0  0  0
  -17.6080  -30.6430   24.1580 C   0  0  0  0  0  3  0  0  0  0  0  0
  -16.5060  -29.8660   23.7570 C   0  0  0  0  0  3  0  0  0  0  0  0
  -16.7170  -28.6100   23.1640 C   0  0  0  0  0  3  0  0  0  0  0  0
  -25.8350  -32.6290   23.8060 C   0  0  0  0  0  3  0  0  0  0  0  0
  -26.3830  -31.8540   25.0660 C   0  0  1  0  0  0  0  0  0  0  0  0
  -25.3110  -31.5930   26.1500 C   0  0  0  0  0  1  0  0  0  0  0  0
  -26.9770  -30.4870   24.6530 C   0  0  0  0  0  1  0  0  0  0  0  0
  -27.5350  -32.6570   25.7160 C   0  0  0  0  0  1  0  0  0  0  0  0
  -25.5140  -34.0200   24.1510 N   0  0  0  0  0  0  0  0  0  0  0  0
  -25.8460  -35.0850   23.4090 C   0  0  0  0  0  0  0  0  0  0  0  0
  -26.5270  -34.9990   22.3830 O   0  0  0  0  0  0  0  0  0  0  0  0
  -24.9140  -34.1610   24.9500 H   0  0  0  0  0  0  0  0  0  0  0  0
  -24.1200  -36.8760   23.0480 C   0  0  0  0  0  1  0  0  0  0  0  0
  -25.3440  -36.4640   23.8790 C   0  0  0  0  0  3  0  0  0  0  0  0
  -27.4600  -37.3370   24.7670 C   0  0  0  0  0  1  0  0  0  0  0  0
  -26.3760  -37.5210   23.8070 N   0  0  0  0  0  0  0  0  0  0  0  0
  -25.9630  -38.4370   23.9650 H   0  0  0  0  0  0  0  0  0  0  0  0
  1  6  1  0
  3  5  1  0
  3  1  1  0
  3  4  1  0
  4 54  1  6
  4 10  1  0
  4  2  1  0
  6  2  1  0
  6 55  1  0
  6  7  1  6
  9 11  2  0
 10  8  2  0
 11  8  1  0
 11 23  1  0
 12 10  1  0
 13 12  1  0
 14 12  2  0
 14  9  1  0
 15 23  1  0
 16 21  1  0
 17 18  1  0
 17 16  1  0
 19 18  1  0
 19 28  1  0
 19 20  1  0
 21 15  1  0
 21 20  1  0
 22 15  2  0
 23 24  1  0
 25 26  2  0
 26 27  1  0
 26 45  1  0
 27 30  1  0
 28 25  1  0
 28 29  1  0
 29 27  2  0
 30 31  1  0
 31 32  2  0
 33 36  1  0
 33 32  1  0
 34 33  2  0
 35 34  1  0
 35 30  2  0
 36 37  1  0
 37 38  1  0
 38 39  2  0
 40 39  1  0
 40 44  1  0
 41 40  2  0
 42 37  2  0
 42 41  1  0
 43 42  1  0
 45 46  1  0
 46 49  1  0
 46 48  1  0
 47 45  2  0
 50 51  1  0
 50 25  1  0
 52 50  1  0
 54 53  1  0
 56 57  1  0
 56 55  1  0
 58 69  2  0
 59 57  1  0
 59 64  1  0
 60 68  1  0
 60 70  1  0
 61 67  1  0
 61 63  1  0
 62 68  1  0
 63 62  1  0
 64 63  2  0
 65 66  1  0
 65 59  2  0
 66 61  2  0
 67 60  1  0
 68 58  1  0
 70 72  2  0
 71 70  1  0
 73 71  1  0
 74 83  2  0
 74 79  1  0
 75 71  1  0
 75 79  1  0
 76 75  1  0
 77 78  1  0
 77 76  1  0
 78 74  1  0
 79 80  2  0
 80 81  1  0
 82 81  2  0
 83 82  1  0
 84 58  1  0
 84 89  1  0
 84 85  1  0
 85 88  1  1
 85 86  1  0
 87 85  1  0
 89 92  1  0
 90 94  1  0
 90 89  1  0
 91 90  2  0
 94 93  1  0
 96 94  1  0
 96 97  1  0
 96 95  1  0
M  ISO  4  15 100  23 100  56 101  57 101
M  END
>  <TORSDO>  (81) 
F 20

>  <SCORE>  (81) 
-12.965

>  <name>  (81) 
82

>  <ligand_id>  (81) 
82

>  <original_smiles>  (81) 
[H]c1nc(C([H])([H])[H])c(C2(C([H])([H])C([H])([H])[H])C([H])(C([H])([H])[H])C([H])([H])[N+]([H])(C([H])([H])C([H])([H])Oc3c([H])c([H])c4c(c3[H])C([H])([H])N(C(=O)C([H])(N([H])C(=O)C([H])(N([H])C([H])([H])[H])C([H])([H])[H])C(C([H])([H])[H])(C([H])([H])[H])C([H])([H])[H])C([H])(C(=O)N([H])C3([H])c5c([H])c([H])c([H])c([H])c5C([H])([H])C([H])([H])C3([H])[H])C4([H])[H])C2([H])[H])c([H])c1N([H])C(=O)N1C([H])([H])C([H])([H])C([H])([H])C([H])(n2nc(-c3c([H])c([H])c(Oc4c([H])c([H])c(F)c([H])c4F)c([H])c3[H])c(C(=O)N([H])[H])c2N([H])[H])C1([H])[H]

>  <smiles>  (81) 
[H]c1nc(C([H])([H])[H])c(C2(C([H])([H])C([H])([H])[H])C([H])(C([H])([H])[H])C([H])([H])[N+]([H])(C([H])([H])C([H])([H])Oc3c([H])c([H])c4c(c3[H])C([H])([H])N(C(=O)C([H])(N([H])C(=O)C([H])(N([H])C([H])([H])[H])C([H])([H])[H])C(C([H])([H])[H])(C([H])([H])[H])C([H])([H])[H])C([H])(C(=O)N([H])C3([H])c5c([H])c([H])c([H])c([H])c5C([H])([H])C([H])([H])C3([H])[H])C4([H])[H])C2([H])[H])c([H])c1N([H])C(=O)N1C([H])([H])C([H])([H])C([H])([H])C([H])(n2nc(-c3c([H])c([H])c(Oc4c([H])c([H])c(F)c([H])c4F)c([H])c3[H])c(C(=O)N([H])[H])c2N([H])[H])C1([H])[H]

$$$$
83:0:0
     RDKit          3D

 91100  0  0  1  0  0  0  0  0999 V2000
  -28.7700  -21.2210   20.4450 N   0  0  0  0  0  4  0  0  0  0  0  0
  -28.4990  -21.1240   21.4110 H   0  0  0  0  0  0  0  0  0  0  0  0
  -27.9200  -21.0680   19.9270 H   0  0  0  0  0  0  0  0  0  0  0  0
  -30.3050  -23.1770   21.1620 C   0  0  0  0  0  1  0  0  0  0  0  0
  -29.1150  -22.8450   20.2430 C   0  0  0  0  0  3  0  0  0  0  0  0
  -28.0110  -24.2690   20.3100 C   0  0  0  0  0  2  0  0  0  0  0  0
  -28.2270  -25.9060   20.2620 O   0  0  0  0  0  0  0  0  0  0  0  0
  -24.6300  -31.8720   23.1920 C   0  0  0  0  0  0  0  0  0  0  0  0
  -27.1920  -26.9790   20.2150 C   0  0  0  0  0  0  0  0  0  0  0  0
  -23.4340  -30.4650   21.5650 C   0  0  0  0  0  3  0  0  0  0  0  0
  -24.8820  -28.8500   20.1550 C   0  0  0  0  0  0  0  0  0  0  0  0
  -25.9990  -30.6780   21.4140 C   0  0  0  0  0  2  0  0  0  0  0  0
  -26.0700  -29.2640   20.7710 C   0  0  0  0  0  0  0  0  0  0  0  0
  -27.2190  -28.3490   20.7740 C   0  0  0  0  0  3  0  0  0  0  0  0
  -25.9700  -26.7120   19.5550 C   0  0  0  0  0  3  0  0  0  0  0  0
  -24.8570  -27.5910   19.5310 C   0  0  0  0  0  3  0  0  0  0  0  0
  -23.6640  -29.7730   20.1930 C   0  0  0  0  0  2  0  0  0  0  0  0
  -24.7090  -31.0300   22.1120 N   0  0  0  0  0  0  0  0  0  0  0  0
  -23.5410  -32.1670   23.7110 O   0  0  0  0  0  0  0  0  0  0  0  0
  -22.7380  -29.4750   22.5360 C   0  0  0  0  0  0  0  0  0  0  0  0
  -21.4060  -29.3170   22.4190 N   0  0  0  0  0  0  0  0  0  0  0  0
  -23.4040  -28.8490   23.3660 O   0  0  0  0  0  0  0  0  0  0  0  0
  -20.9210  -29.8770   21.7310 H   0  0  0  0  0  0  0  0  0  0  0  0
  -18.0210  -28.1290   22.9510 C   0  0  0  0  0  0  0  0  0  0  0  0
  -20.5830  -28.3870   23.1980 C   0  0  0  0  0  3  0  0  0  0  0  0
  -20.6750  -26.9510   22.6300 C   0  0  0  0  0  2  0  0  0  0  0  0
  -19.5660  -26.6290   21.6230 C   0  0  0  0  0  2  0  0  0  0  0  0
  -18.1880  -26.7800   22.2740 C   0  0  0  0  0  2  0  0  0  0  0  0
  -19.1440  -28.8910   23.3710 C   0  0  0  0  0  0  0  0  0  0  0  0
  -18.9310  -30.1520   23.9680 C   0  0  0  0  0  3  0  0  0  0  0  0
  -17.6290  -30.6540   24.1460 C   0  0  0  0  0  3  0  0  0  0  0  0
  -16.5190  -29.8910   23.7410 C   0  0  0  0  0  3  0  0  0  0  0  0
  -16.7170  -28.6310   23.1490 C   0  0  0  0  0  3  0  0  0  0  0  0
  -25.9010  -32.5180   23.8210 C   0  0  0  0  0  3  0  0  0  0  0  0
  -26.4090  -31.7580   25.1090 C   0  0  1  0  0  0  0  0  0  0  0  0
  -25.3080  -31.5330   26.1740 C   0  0  0  0  0  1  0  0  0  0  0  0
  -26.9940  -30.3760   24.7410 C   0  0  0  0  0  1  0  0  0  0  0  0
  -27.5580  -32.5590   25.7690 C   0  0  0  0  0  1  0  0  0  0  0  0
  -25.5830  -33.9180   24.1530 N   0  0  0  0  0  0  0  0  0  0  0  0
  -25.9110  -34.9780   23.4010 C   0  0  0  0  0  0  0  0  0  0  0  0
  -26.5770  -34.8800   22.3680 O   0  0  0  0  0  0  0  0  0  0  0  0
  -24.9920  -34.0650   24.9580 H   0  0  0  0  0  0  0  0  0  0  0  0
  -24.1840  -36.7810   23.0690 C   0  0  0  0  0  1  0  0  0  0  0  0
  -25.4280  -36.3650   23.8710 C   0  0  0  0  0  3  0  0  0  0  0  0
  -27.5650  -37.2480   24.7030 C   0  0  0  0  0  1  0  0  0  0  0  0
  -26.4600  -37.4180   23.7630 N   0  0  0  0  0  0  0  0  0  0  0  0
  -26.0530  -38.3360   23.9180 H   0  0  0  0  0  0  0  0  0  0  0  0
  -29.6840  -19.8620   20.1200 C   0  0  0  0  0  3  0  0  0  0  0  0
  -30.4070  -15.3420   20.1910 C   0  0  0  0  0  0  0  0  0  0  0  0
  -30.3510  -12.9090   19.2800 C   0  0  0  0  0  2  0  0  0  0  0  0
  -29.4030  -12.6610   18.0840 C   0  0  0  0  0  2  0  0  0  0  0  0
  -27.9750  -12.3560   18.5710 C   0  0  0  0  0  2  0  0  0  0  0  0
  -27.5240  -13.3210   19.6900 C   0  0  0  0  0  3  0  0  0  0  0  0
  -28.6020  -13.5340   20.7740 C   0  0  0  0  0  2  0  0  0  0  0  0
  -29.8000  -14.0570   20.0850 N   0  0  0  0  0  0  0  0  0  0  0  0
  -31.6450  -15.2860   20.1590 O   0  0  0  0  0  0  0  0  0  0  0  0
  -27.9320  -17.7190   20.1560 C   0  0  0  0  0  2  0  0  0  0  0  0
  -28.6320  -16.8980   19.0600 C   0  0  0  0  0  2  0  0  0  0  0  0
  -29.3090  -18.1760   20.6130 C   0  0  0  0  0  3  0  0  0  0  0  0
  -29.7070  -16.6540   20.0240 N   0  0  0  0  0  0  0  0  0  0  0  0
  -25.1710  -13.8950   20.4810 C   0  0  0  0  0  0  0  0  0  0  0  0
  -24.1120  -13.1200   20.8580 C   0  0  0  0  0  0  0  0  0  0  0  0
  -24.5800  -11.7700   20.8210 C   0  0  0  0  0  0  0  0  0  0  0  0
  -26.2100  -13.0160   20.2300 N   0  0  0  0  0  0  0  0  0  0  0  0
  -25.8690  -11.7320   20.5020 N   0  0  0  0  0  0  0  0  0  0  0  0
  -23.8580  -10.5080   21.0110 C   0  0  0  0  0  0  0  0  0  0  0  0
  -24.2890   -9.5460   21.9500 C   0  0  0  0  0  3  0  0  0  0  0  0
  -23.5640   -8.3480   22.1270 C   0  0  0  0  0  3  0  0  0  0  0  0
  -22.3950   -8.1050   21.3650 C   0  0  0  0  0  0  0  0  0  0  0  0
  -21.9860   -9.0570   20.4150 C   0  0  0  0  0  3  0  0  0  0  0  0
  -22.7110  -10.2450   20.2350 C   0  0  0  0  0  3  0  0  0  0  0  0
  -21.6430   -6.9590   21.4540 O   0  0  0  0  0  0  0  0  0  0  0  0
  -21.5790   -6.2300   22.6150 C   0  0  0  0  0  0  0  0  0  0  0  0
  -21.1160   -6.7920   23.8230 C   0  0  0  0  0  3  0  0  0  0  0  0
  -20.9990   -5.9890   24.9750 C   0  0  0  0  0  3  0  0  0  0  0  0
  -21.3370   -4.6230   24.9180 C   0  0  0  0  0  0  0  0  0  0  0  0
  -21.7940   -4.0600   23.7140 C   0  0  0  0  0  3  0  0  0  0  0  0
  -21.9120   -4.8610   22.5650 C   0  0  0  0  0  0  0  0  0  0  0  0
  -22.3330   -4.3090   21.4020 F   0  0  0  0  0  0  0  0  0  0  0  0
  -21.2170   -3.8490   26.0230 F   0  0  0  0  0  0  0  0  0  0  0  0
  -22.7170  -13.5970   21.1340 C   0  0  0  0  0  0  0  0  0  0  0  0
  -21.9890  -12.8980   21.9970 N   0  0  0  0  0  0  0  0  0  0  0  0
  -22.2810  -14.6280   20.6210 O   0  0  0  0  0  0  0  0  0  0  0  0
  -22.3540  -12.0670   22.4390 H   0  0  0  0  0  0  0  0  0  0  0  0
  -21.0550  -13.2030   22.2260 H   0  0  0  0  0  0  0  0  0  0  0  0
  -25.3270  -15.2650   20.2990 N   0  0  0  0  0  0  0  0  0  0  0  0
  -24.5550  -15.9140   20.4010 H   0  0  0  0  0  0  0  0  0  0  0  0
  -26.1730  -15.7060   19.9640 H   0  0  0  0  0  0  0  0  0  0  0  0
  -31.2850  -20.6790   18.1710 C   0  0  0  0  0  2  0  0  0  0  0  0
  -31.2940  -19.1710   18.1340 C   0  0  0  0  0  2  0  0  0  0  0  0
  -30.0710  -19.9040   18.6460 C   0  0  0  0  0  3  0  0  0  0  0  0
  1  2  1  0
  3  1  1  0
  5  6  1  0
  5  1  1  0
  5  4  1  0
  7  6  1  0
  8 19  2  0
  9  7  1  0
  9 14  1  0
 10 18  1  0
 10 20  1  0
 11 17  1  0
 11 13  1  0
 12 18  1  0
 13 14  2  0
 13 12  1  0
 15  9  2  0
 16 15  1  0
 16 11  2  0
 17 10  1  0
 18  8  1  0
 20 22  2  0
 21 20  1  0
 23 21  1  0
 24 33  2  0
 24 29  1  0
 25 21  1  0
 25 29  1  0
 26 25  1  0
 27 28  1  0
 27 26  1  0
 28 24  1  0
 29 30  2  0
 30 31  1  0
 32 31  2  0
 33 32  1  0
 34  8  1  0
 34 39  1  0
 34 35  1  0
 35 38  1  1
 35 36  1  0
 37 35  1  0
 39 42  1  0
 40 44  1  0
 40 39  1  0
 41 40  2  0
 44 43  1  0
 46 44  1  0
 46 47  1  0
 46 45  1  0
 48  1  1  0
 50 55  1  0
 51 52  1  0
 51 50  1  0
 53 52  1  0
 53 64  1  0
 53 54  1  0
 55 49  1  0
 55 54  1  0
 56 49  2  0
 57 59  1  0
 58 60  1  0
 58 57  1  0
 59 48  1  0
 60 49  1  0
 60 59  1  0
 61 62  2  0
 62 81  1  0
 63 62  1  0
 63 66  1  0
 64 61  1  0
 64 65  1  0
 65 63  2  0
 66 67  1  0
 67 68  2  0
 69 72  1  0
 69 68  1  0
 70 69  2  0
 71 70  1  0
 71 66  2  0
 72 73  1  0
 73 74  1  0
 74 75  2  0
 76 75  1  0
 76 80  1  0
 77 76  2  0
 78 73  2  0
 78 77  1  0
 79 78  1  0
 81 82  1  0
 82 85  1  0
 82 84  1  0
 83 81  2  0
 86 87  1  0
 86 61  1  0
 88 86  1  0
 89 91  1  0
 90 89  1  0
 90 91  1  0
 91 48  1  0
M  ISO  4   6 101   7 101  49 100  60 100
M  END
>  <TORSDO>  (82) 
F 20

>  <SCORE>  (82) 
-15.441

>  <name>  (82) 
83

>  <ligand_id>  (82) 
83

>  <original_smiles>  (82) 
[H]c1c([H])c([H])c2c(c1[H])C([H])([H])C([H])([H])C([H])([H])C2([H])N([H])C(=O)C1([H])N(C(=O)C([H])(N([H])C(=O)C([H])(N([H])C([H])([H])[H])C([H])([H])[H])C(C([H])([H])[H])(C([H])([H])[H])C([H])([H])[H])C([H])([H])c2c([H])c(OC([H])([H])C([H])(C([H])([H])[H])[N+]([H])([H])C([H])(C3([H])N(C(=O)N4C([H])([H])C([H])([H])C([H])([H])C([H])(n5nc(-c6c([H])c([H])c(Oc7c([H])c([H])c(F)c([H])c7F)c([H])c6[H])c(C(=O)N([H])[H])c5N([H])[H])C4([H])[H])C([H])([H])C3([H])[H])C3([H])C([H])([H])C3([H])[H])c([H])c([H])c2C1([H])[H]

>  <smiles>  (82) 
[H]c1c([H])c([H])c2c(c1[H])C([H])([H])C([H])([H])C([H])([H])C2([H])N([H])C(=O)C1([H])N(C(=O)C([H])(N([H])C(=O)C([H])(N([H])C([H])([H])[H])C([H])([H])[H])C(C([H])([H])[H])(C([H])([H])[H])C([H])([H])[H])C([H])([H])c2c([H])c(OC([H])([H])C([H])(C([H])([H])[H])[N+]([H])([H])C([H])(C3([H])N(C(=O)N4C([H])([H])C([H])([H])C([H])([H])C([H])(n5nc(-c6c([H])c([H])c(Oc7c([H])c([H])c(F)c([H])c7F)c([H])c6[H])c(C(=O)N([H])[H])c5N([H])[H])C4([H])[H])C([H])([H])C3([H])[H])C3([H])C([H])([H])C3([H])[H])c([H])c([H])c2C1([H])[H]

$$$$
84:0:0
     RDKit          3D

 90 99  0  0  1  0  0  0  0  0999 V2000
  -30.4430  -15.4040   20.2080 C   0  0  0  0  0  0  0  0  0  0  0  0
  -30.5090  -12.8620   19.5610 C   0  0  0  0  0  2  0  0  0  0  0  0
  -29.6590  -12.5660   18.2960 C   0  0  0  0  0  2  0  0  0  0  0  0
  -28.1850  -12.3160   18.6750 C   0  0  0  0  0  2  0  0  0  0  0  0
  -27.6800  -13.3360   19.7280 C   0  0  0  0  0  3  0  0  0  0  0  0
  -28.6780  -13.5850   20.8810 C   0  0  0  0  0  2  0  0  0  0  0  0
  -29.9310  -14.0660   20.2720 N   0  0  0  0  0  0  0  0  0  0  0  0
  -31.6630  -15.4170   19.9530 O   0  0  0  0  0  0  0  0  0  0  0  0
  -28.1510  -20.2900   21.2440 C   0  0  0  0  0  3  0  0  0  0  0  0
  -28.5550  -18.8830   21.1740 C   0  0  0  0  0  3  0  0  0  0  0  0
  -28.5370  -21.3510   20.3370 C   0  0  0  0  0  0  0  0  0  0  0  0
  -29.3980  -20.7450   19.3710 C   0  0  0  0  0  0  0  0  0  0  0  0
  -29.4420  -18.2700   20.2190 C   0  0  0  0  0  0  0  0  0  0  0  0
  -28.0860  -22.9430   20.3970 C   0  0  0  0  0  0  0  0  0  0  0  0
  -27.4480  -23.3390   21.5140 C   0  0  0  0  0  2  0  0  0  0  0  0
  -29.7660  -21.8030   18.2710 C   0  0  0  0  0  2  0  0  0  0  0  0
  -29.5550  -23.4280   18.4830 C   0  0  0  0  0  2  0  0  0  0  0  0
  -28.2960  -24.1060   19.2230 C   0  0  0  0  0  3  0  0  0  0  0  0
  -29.8180  -19.3370   19.3180 N   0  0  0  0  0  0  0  0  0  0  0  0
  -29.5880  -16.6300   20.2980 N   0  0  0  0  0  0  0  0  0  0  0  0
  -28.7050  -16.2700   20.6190 H   0  0  0  0  0  0  0  0  0  0  0  0
  -25.3010  -13.9280   20.4100 C   0  0  0  0  0  0  0  0  0  0  0  0
  -24.2230  -13.1740   20.7770 C   0  0  0  0  0  0  0  0  0  0  0  0
  -24.6760  -11.8180   20.7890 C   0  0  0  0  0  0  0  0  0  0  0  0
  -26.3380  -13.0380   20.2080 N   0  0  0  0  0  0  0  0  0  0  0  0
  -25.9740  -11.7620   20.5040 N   0  0  0  0  0  0  0  0  0  0  0  0
  -23.9290  -10.5690   20.9980 C   0  0  0  0  0  0  0  0  0  0  0  0
  -24.3310   -9.6170   21.9610 C   0  0  0  0  0  3  0  0  0  0  0  0
  -23.5780   -8.4390   22.1610 C   0  0  0  0  0  3  0  0  0  0  0  0
  -22.4110   -8.2020   21.3940 C   0  0  0  0  0  0  0  0  0  0  0  0
  -22.0290   -9.1460   20.4230 C   0  0  0  0  0  3  0  0  0  0  0  0
  -22.7820  -10.3140   20.2230 C   0  0  0  0  0  3  0  0  0  0  0  0
  -21.6390   -7.0690   21.4900 O   0  0  0  0  0  0  0  0  0  0  0  0
  -21.5640   -6.3510   22.6560 C   0  0  0  0  0  0  0  0  0  0  0  0
  -21.1430   -6.9400   23.8680 C   0  0  0  0  0  3  0  0  0  0  0  0
  -21.0110   -6.1500   25.0270 C   0  0  0  0  0  3  0  0  0  0  0  0
  -21.2910   -4.7710   24.9750 C   0  0  0  0  0  0  0  0  0  0  0  0
  -21.7090   -4.1820   23.7680 C   0  0  0  0  0  3  0  0  0  0  0  0
  -21.8420   -4.9700   22.6110 C   0  0  0  0  0  0  0  0  0  0  0  0
  -22.2210   -4.3940   21.4460 F   0  0  0  0  0  0  0  0  0  0  0  0
  -21.1590   -4.0100   26.0870 F   0  0  0  0  0  0  0  0  0  0  0  0
  -22.8270  -13.6770   21.0010 C   0  0  0  0  0  0  0  0  0  0  0  0
  -22.0740  -13.0220   21.8770 N   0  0  0  0  0  0  0  0  0  0  0  0
  -22.4160  -14.6890   20.4360 O   0  0  0  0  0  0  0  0  0  0  0  0
  -22.4280  -12.2070   22.3550 H   0  0  0  0  0  0  0  0  0  0  0  0
  -21.1350  -13.3420   22.0710 H   0  0  0  0  0  0  0  0  0  0  0  0
  -25.4770  -15.2930   20.1940 N   0  0  0  0  0  0  0  0  0  0  0  0
  -24.6870  -15.9300   20.2230 H   0  0  0  0  0  0  0  0  0  0  0  0
  -26.2960  -15.7050   19.7680 H   0  0  0  0  0  0  0  0  0  0  0  0
  -28.3230  -25.7830   19.4260 O   0  0  0  0  0  0  0  0  0  0  0  0
  -24.7020  -31.5310   22.8020 C   0  0  0  0  0  0  0  0  0  0  0  0
  -27.2770  -26.8720   19.4160 C   0  0  0  0  0  0  0  0  0  0  0  0
  -23.4910  -30.1990   21.1200 C   0  0  0  0  0  3  0  0  0  0  0  0
  -24.9330  -28.7240   19.5440 C   0  0  0  0  0  0  0  0  0  0  0  0
  -26.0460  -30.4840   20.9040 C   0  0  0  0  0  2  0  0  0  0  0  0
  -26.1280  -29.1130   20.1580 C   0  0  0  0  0  0  0  0  0  0  0  0
  -27.2880  -28.2110   20.0700 C   0  0  0  0  0  3  0  0  0  0  0  0
  -26.0530  -26.6570   18.7470 C   0  0  0  0  0  3  0  0  0  0  0  0
  -24.9250  -27.5240   18.8100 C   0  0  0  0  0  3  0  0  0  0  0  0
  -23.6940  -29.6120   19.6920 C   0  0  0  0  0  2  0  0  0  0  0  0
  -24.7700  -30.7660   21.6610 N   0  0  0  0  0  0  0  0  0  0  0  0
  -23.6250  -31.7560   23.3760 O   0  0  0  0  0  0  0  0  0  0  0  0
  -22.8590  -29.1290   22.0470 C   0  0  0  0  0  0  0  0  0  0  0  0
  -21.5240  -28.9600   21.9930 N   0  0  0  0  0  0  0  0  0  0  0  0
  -23.5740  -28.4530   22.7900 O   0  0  0  0  0  0  0  0  0  0  0  0
  -20.9920  -29.5620   21.3800 H   0  0  0  0  0  0  0  0  0  0  0  0
  -18.1860  -27.6810   22.6330 C   0  0  0  0  0  0  0  0  0  0  0  0
  -20.7580  -27.9560   22.7380 C   0  0  0  0  0  3  0  0  0  0  0  0
  -20.8250  -26.5750   22.0440 C   0  0  0  0  0  2  0  0  0  0  0  0
  -19.6580  -26.3240   21.0830 C   0  0  0  0  0  2  0  0  0  0  0  0
  -18.3230  -26.3970   21.8320 C   0  0  0  0  0  2  0  0  0  0  0  0
  -19.3290  -28.4210   23.0460 C   0  0  0  0  0  0  0  0  0  0  0  0
  -19.1420  -29.6200   23.7650 C   0  0  0  0  0  3  0  0  0  0  0  0
  -17.8490  -30.0840   24.0700 C   0  0  0  0  0  3  0  0  0  0  0  0
  -16.7240  -29.3430   23.6680 C   0  0  0  0  0  3  0  0  0  0  0  0
  -16.8940  -28.1430   22.9560 C   0  0  0  0  0  3  0  0  0  0  0  0
  -25.9760  -32.1760   23.4310 C   0  0  0  0  0  3  0  0  0  0  0  0
  -25.6030  -33.5040   23.9550 N   0  0  0  0  0  0  0  0  0  0  0  0
  -25.8360  -34.6680   23.3360 C   0  0  0  0  0  0  0  0  0  0  0  0
  -26.4490  -34.7450   22.2690 O   0  0  0  0  0  0  0  0  0  0  0  0
  -25.0470  -33.5140   24.7980 H   0  0  0  0  0  0  0  0  0  0  0  0
  -24.0010  -36.4000   23.3290 C   0  0  0  0  0  1  0  0  0  0  0  0
  -25.3070  -35.9550   24.0060 C   0  0  0  0  0  3  0  0  0  0  0  0
  -27.4430  -36.8530   24.8320 C   0  0  0  0  0  1  0  0  0  0  0  0
  -26.2750  -37.0740   23.9840 N   0  0  0  0  0  0  0  0  0  0  0  0
  -25.8290  -37.9400   24.2760 H   0  0  0  0  0  0  0  0  0  0  0  0
  -26.6130  -31.2990   24.5800 C   0  0  1  0  0  0  0  0  0  0  0  0
  -25.6090  -30.8910   25.6820 C   0  0  0  0  0  1  0  0  0  0  0  0
  -27.2370  -30.0010   24.0140 C   0  0  0  0  0  1  0  0  0  0  0  0
  -27.7630  -32.0810   25.2600 C   0  0  0  0  0  1  0  0  0  0  0  0
  1  7  1  0
  1 20  1  0
  2  7  1  0
  3  4  1  0
  3  2  1  0
  5  4  1  0
  5 25  1  0
  5  6  1  0
  7  6  1  0
  8  1  2  0
 10  9  1  0
 11 14  1  0
 11  9  2  0
 12 11  1  0
 13 20  1  0
 13 10  2  0
 14 15  2  0
 16 17  1  0
 16 12  1  0
 17 18  1  0
 18 50  1  0
 18 14  1  0
 19 12  2  0
 19 13  1  0
 20 21  1  0
 22 23  2  0
 23 24  1  0
 23 42  1  0
 24 27  1  0
 25 22  1  0
 25 26  1  0
 26 24  2  0
 27 28  1  0
 28 29  2  0
 30 33  1  0
 30 29  1  0
 31 30  2  0
 32 31  1  0
 32 27  2  0
 33 34  1  0
 34 35  1  0
 35 36  2  0
 37 36  1  0
 37 41  1  0
 38 37  2  0
 39 34  2  0
 39 38  1  0
 40 39  1  0
 42 43  1  0
 43 46  1  0
 43 45  1  0
 44 42  2  0
 47 48  1  0
 47 22  1  0
 49 47  1  0
 51 62  2  0
 52 50  1  0
 52 57  1  0
 53 61  1  0
 53 63  1  0
 54 60  1  0
 54 56  1  0
 55 61  1  0
 56 55  1  0
 57 56  2  0
 58 59  1  0
 58 52  2  0
 59 54  2  0
 60 53  1  0
 61 51  1  0
 63 65  2  0
 64 63  1  0
 66 64  1  0
 67 76  2  0
 67 72  1  0
 68 64  1  0
 68 72  1  0
 69 68  1  0
 70 71  1  0
 70 69  1  0
 71 67  1  0
 72 73  2  0
 73 74  1  0
 75 74  2  0
 76 75  1  0
 77 51  1  0
 77 78  1  0
 77 87  1  0
 78 81  1  0
 79 78  1  0
 79 83  1  0
 80 79  2  0
 83 82  1  0
 85 83  1  0
 85 86  1  0
 85 84  1  0
 87 90  1  1
 87 88  1  0
 89 87  1  0
M  ISO  4   1 100  18 101  20 100  50 101
M  END
>  <TORSDO>  (83) 
F 15

>  <SCORE>  (83) 
-14.132

>  <name>  (83) 
84

>  <ligand_id>  (83) 
84

>  <original_smiles>  (83) 
[H]C([H])=C1c2c(nc(N([H])C(=O)N3C([H])([H])C([H])([H])C([H])([H])C([H])(n4nc(-c5c([H])c([H])c(Oc6c([H])c([H])c(F)c([H])c6F)c([H])c5[H])c(C(=O)N([H])[H])c4N([H])[H])C3([H])[H])c([H])c2[H])C([H])([H])C([H])([H])C1([H])Oc1c([H])c([H])c2c(c1[H])C([H])([H])N(C(=O)C([H])(N([H])C(=O)C([H])(N([H])C([H])([H])[H])C([H])([H])[H])C(C([H])([H])[H])(C([H])([H])[H])C([H])([H])[H])C([H])(C(=O)N([H])C1([H])c3c([H])c([H])c([H])c([H])c3C([H])([H])C([H])([H])C1([H])[H])C2([H])[H]

>  <smiles>  (83) 
[H]C([H])=C1c2c(nc(N([H])C(=O)N3C([H])([H])C([H])([H])C([H])([H])C([H])(n4nc(-c5c([H])c([H])c(Oc6c([H])c([H])c(F)c([H])c6F)c([H])c5[H])c(C(=O)N([H])[H])c4N([H])[H])C3([H])[H])c([H])c2[H])C([H])([H])C([H])([H])C1([H])Oc1c([H])c([H])c2c(c1[H])C([H])([H])N(C(=O)C([H])(N([H])C(=O)C([H])(N([H])C([H])([H])[H])C([H])([H])[H])C(C([H])([H])[H])(C([H])([H])[H])C([H])([H])[H])C([H])(C(=O)N([H])C1([H])c3c([H])c([H])c([H])c([H])c3C([H])([H])C([H])([H])C1([H])[H])C2([H])[H]

$$$$
85:0:0
     RDKit          3D

 94103  0  0  1  0  0  0  0  0999 V2000
  -30.0610  -22.5390   21.4110 C   0  0  0  0  0  3  0  0  0  0  0  0
  -29.7420  -23.8660   21.0210 C   0  0  0  0  0  0  0  0  0  0  0  0
  -28.8410  -24.0790   19.9460 C   0  0  0  0  0  0  0  0  0  0  0  0
  -28.3080  -22.8930   19.3490 C   0  0  0  0  0  0  0  0  0  0  0  0
  -29.5090  -21.4290   20.7400 C   0  0  0  0  0  0  0  0  0  0  0  0
  -30.4110  -25.0240   21.7390 C   0  0  0  0  0  1  0  0  0  0  0  0
  -27.3460  -22.9580   18.1780 C   0  0  0  0  0  1  0  0  0  0  0  0
  -28.6290  -21.6190   19.7350 N   0  0  0  0  0  0  0  0  0  0  0  0
  -29.9090  -20.1250   21.1340 N   0  0  0  0  0  0  0  0  0  0  0  0
  -30.5700  -20.0890   21.9010 H   0  0  0  0  0  0  0  0  0  0  0  0
  -30.7320  -14.6650   20.0470 C   0  0  0  0  0  0  0  0  0  0  0  0
  -30.4220  -12.4750   18.9310 C   0  0  0  0  0  2  0  0  0  0  0  0
  -29.4100  -12.6470   17.7770 C   0  0  0  0  0  2  0  0  0  0  0  0
  -27.9650  -12.4750   18.2890 C   0  0  0  0  0  2  0  0  0  0  0  0
  -27.6830  -13.2920   19.5780 C   0  0  0  0  0  3  0  0  0  0  0  0
  -28.8080  -13.0980   20.6180 C   0  0  0  0  0  2  0  0  0  0  0  0
  -30.0730  -13.4660   19.9680 N   0  0  0  0  0  0  0  0  0  0  0  0
  -31.8820  -14.7740   19.6100 O   0  0  0  0  0  0  0  0  0  0  0  0
  -29.5440  -17.7300   21.7560 C   0  0  0  0  0  2  0  0  0  0  0  0
  -30.3260  -18.2590   19.4800 C   0  0  0  0  0  2  0  0  0  0  0  0
  -29.2200  -16.2640   21.3260 C   0  0  0  0  0  2  0  0  0  0  0  0
  -29.9400  -16.8120   19.0440 C   0  0  0  0  0  2  0  0  0  0  0  0
  -29.4560  -18.8030   20.6340 C   0  0  0  0  0  3  0  0  0  0  0  0
  -29.9530  -15.7980   20.1300 N   0  0  0  0  0  0  0  0  0  0  0  0
  -25.3350  -13.8520   20.4600 C   0  0  0  0  0  0  0  0  0  0  0  0
  -24.2980  -13.0600   20.8700 C   0  0  0  0  0  0  0  0  0  0  0  0
  -24.7640  -11.7140   20.7680 C   0  0  0  0  0  0  0  0  0  0  0  0
  -26.3680  -12.9880   20.1350 N   0  0  0  0  0  0  0  0  0  0  0  0
  -26.0340  -11.6940   20.3790 N   0  0  0  0  0  0  0  0  0  0  0  0
  -24.0580  -10.4410   20.9620 C   0  0  0  0  0  0  0  0  0  0  0  0
  -24.5090   -9.4810   21.8940 C   0  0  0  0  0  3  0  0  0  0  0  0
  -23.8020   -8.2720   22.0750 C   0  0  0  0  0  3  0  0  0  0  0  0
  -22.6310   -8.0160   21.3230 C   0  0  0  0  0  0  0  0  0  0  0  0
  -22.2000   -8.9650   20.3800 C   0  0  0  0  0  3  0  0  0  0  0  0
  -22.9080  -10.1640   20.1970 C   0  0  0  0  0  3  0  0  0  0  0  0
  -21.8950   -6.8590   21.4140 O   0  0  0  0  0  0  0  0  0  0  0  0
  -21.7870   -6.1640   22.5920 C   0  0  0  0  0  0  0  0  0  0  0  0
  -21.2620   -6.7560   23.7610 C   0  0  0  0  0  3  0  0  0  0  0  0
  -21.1040   -5.9860   24.9300 C   0  0  0  0  0  3  0  0  0  0  0  0
  -21.4630   -4.6240   24.9320 C   0  0  0  0  0  0  0  0  0  0  0  0
  -21.9810   -4.0320   23.7660 C   0  0  0  0  0  3  0  0  0  0  0  0
  -22.1400   -4.8000   22.5990 C   0  0  0  0  0  0  0  0  0  0  0  0
  -22.6200   -4.2180   21.4730 F   0  0  0  0  0  0  0  0  0  0  0  0
  -21.3050   -3.8820   26.0520 F   0  0  0  0  0  0  0  0  0  0  0  0
  -22.9180  -13.5180   21.2420 C   0  0  0  0  0  0  0  0  0  0  0  0
  -22.2490  -12.7930   22.1310 N   0  0  0  0  0  0  0  0  0  0  0  0
  -22.4410  -14.5550   20.7800 O   0  0  0  0  0  0  0  0  0  0  0  0
  -22.6480  -11.9540   22.5280 H   0  0  0  0  0  0  0  0  0  0  0  0
  -21.3260  -13.0800   22.4230 H   0  0  0  0  0  0  0  0  0  0  0  0
  -25.4800  -15.2290   20.3150 N   0  0  0  0  0  0  0  0  0  0  0  0
  -24.7140  -15.8720   20.4900 H   0  0  0  0  0  0  0  0  0  0  0  0
  -26.3010  -15.6820   19.9390 H   0  0  0  0  0  0  0  0  0  0  0  0
  -28.5920  -25.4990   19.3280 C   0  0  0  0  0  2  0  0  0  0  0  0
  -28.3830  -26.6440   20.2080 O   0  0  0  0  0  0  0  0  0  0  0  0
  -24.5960  -31.9060   23.2660 C   0  0  0  0  0  0  0  0  0  0  0  0
  -27.2140  -27.4070   20.1660 C   0  0  0  0  0  0  0  0  0  0  0  0
  -23.3830  -30.5070   21.6310 C   0  0  0  0  0  3  0  0  0  0  0  0
  -24.8270  -28.9680   20.1930 C   0  0  0  0  0  0  0  0  0  0  0  0
  -25.9150  -30.8470   21.4260 C   0  0  0  0  0  2  0  0  0  0  0  0
  -25.9930  -29.4730   20.7790 C   0  0  0  0  0  0  0  0  0  0  0  0
  -27.1850  -28.6990   20.7630 C   0  0  0  0  0  3  0  0  0  0  0  0
  -26.0140  -26.9270   19.5900 C   0  0  0  0  0  3  0  0  0  0  0  0
  -24.8360  -27.6980   19.5960 C   0  0  0  0  0  3  0  0  0  0  0  0
  -23.5860  -29.8340   20.2480 C   0  0  0  0  0  2  0  0  0  0  0  0
  -24.6510  -31.1030   22.1650 N   0  0  0  0  0  0  0  0  0  0  0  0
  -23.5160  -32.1790   23.8100 O   0  0  0  0  0  0  0  0  0  0  0  0
  -22.7330  -29.4860   22.5920 C   0  0  0  0  0  0  0  0  0  0  0  0
  -21.4100  -29.2930   22.4610 N   0  0  0  0  0  0  0  0  0  0  0  0
  -23.4180  -28.8690   23.4130 O   0  0  0  0  0  0  0  0  0  0  0  0
  -20.9180  -29.8420   21.7710 H   0  0  0  0  0  0  0  0  0  0  0  0
  -18.0460  -28.0590   22.9410 C   0  0  0  0  0  0  0  0  0  0  0  0
  -20.5980  -28.3510   23.2330 C   0  0  0  0  0  3  0  0  0  0  0  0
  -20.7240  -26.9170   22.6690 C   0  0  0  0  0  2  0  0  0  0  0  0
  -19.6350  -26.5730   21.6480 C   0  0  0  0  0  2  0  0  0  0  0  0
  -18.2450  -26.7060   22.2790 C   0  0  0  0  0  2  0  0  0  0  0  0
  -19.1510  -28.8380   23.3740 C   0  0  0  0  0  0  0  0  0  0  0  0
  -18.9120  -30.1040   23.9530 C   0  0  0  0  0  3  0  0  0  0  0  0
  -17.6000  -30.5900   24.1020 C   0  0  0  0  0  3  0  0  0  0  0  0
  -16.5090  -29.8080   23.6860 C   0  0  0  0  0  3  0  0  0  0  0  0
  -16.7330  -28.5450   23.1100 C   0  0  0  0  0  3  0  0  0  0  0  0
  -25.8830  -32.5380   23.8820 C   0  0  0  0  0  3  0  0  0  0  0  0
  -25.5740  -33.9350   24.2140 N   0  0  0  0  0  0  0  0  0  0  0  0
  -25.9050  -34.9890   23.4560 C   0  0  0  0  0  0  0  0  0  0  0  0
  -26.5740  -34.8870   22.4240 O   0  0  0  0  0  0  0  0  0  0  0  0
  -24.9800  -34.0890   25.0160 H   0  0  0  0  0  0  0  0  0  0  0  0
  -24.1830  -36.7870   23.1000 C   0  0  0  0  0  1  0  0  0  0  0  0
  -25.4190  -36.3770   23.9160 C   0  0  0  0  0  3  0  0  0  0  0  0
  -27.5490  -37.2570   24.7650 C   0  0  0  0  0  1  0  0  0  0  0  0
  -26.4540  -37.4280   23.8130 N   0  0  0  0  0  0  0  0  0  0  0  0
  -26.0490  -38.3490   23.9580 H   0  0  0  0  0  0  0  0  0  0  0  0
  -26.4070  -31.7660   25.1550 C   0  0  1  0  0  0  0  0  0  0  0  0
  -25.3180  -31.5200   26.2250 C   0  0  0  0  0  1  0  0  0  0  0  0
  -26.9970  -30.3930   24.7560 C   0  0  0  0  0  1  0  0  0  0  0  0
  -27.5550  -32.5650   25.8150 C   0  0  0  0  0  1  0  0  0  0  0  0
  2  1  1  0
  2  6  1  0
  3  2  2  0
  4  8  2  0
  4  3  1  0
  5  9  1  0
  5  1  2  0
  7  4  1  0
  8  5  1  0
  9 10  1  0
 11 24  1  0
 12 17  1  0
 13 14  1  0
 13 12  1  0
 15 14  1  0
 15 28  1  0
 15 16  1  0
 17 11  1  0
 17 16  1  0
 18 11  2  0
 20 23  1  0
 21 19  1  0
 22 20  1  0
 22 24  1  0
 23  9  1  0
 23 19  1  0
 24 21  1  0
 25 26  2  0
 26 45  1  0
 27 26  1  0
 27 30  1  0
 28 29  1  0
 28 25  1  0
 29 27  2  0
 30 31  1  0
 31 32  2  0
 33 36  1  0
 33 32  1  0
 34 33  2  0
 35 34  1  0
 35 30  2  0
 36 37  1  0
 37 42  2  0
 37 38  1  0
 38 39  2  0
 39 40  1  0
 40 44  1  0
 41 40  2  0
 42 41  1  0
 43 42  1  0
 45 46  1  0
 46 49  1  0
 46 48  1  0
 47 45  2  0
 50 25  1  0
 50 51  1  0
 52 50  1  0
 53  3  1  0
 53 54  1  0
 55 66  2  0
 56 54  1  0
 56 61  1  0
 57 65  1  0
 57 67  1  0
 58 64  1  0
 58 60  1  0
 59 65  1  0
 60 59  1  0
 61 60  2  0
 62 63  1  0
 62 56  2  0
 63 58  2  0
 64 57  1  0
 65 55  1  0
 67 69  2  0
 68 67  1  0
 70 68  1  0
 71 80  2  0
 71 76  1  0
 72 68  1  0
 72 76  1  0
 73 72  1  0
 74 75  1  0
 74 73  1  0
 75 71  1  0
 76 77  2  0
 77 78  1  0
 79 78  2  0
 80 79  1  0
 81 55  1  0
 81 82  1  0
 81 91  1  0
 82 85  1  0
 83 87  1  0
 83 82  1  0
 84 83  2  0
 87 86  1  0
 89 87  1  0
 89 90  1  0
 89 88  1  0
 91 94  1  1
 91 92  1  0
 93 91  1  0
M  ISO  4  11 100  24 100  53 101  54 101
M  END
>  <TORSDO>  (84) 
F 17

>  <SCORE>  (84) 
-14.627

>  <name>  (84) 
85

>  <ligand_id>  (84) 
85

>  <original_smiles>  (84) 
[H]c1c([H])c([H])c2c(c1[H])C([H])([H])C([H])([H])C([H])([H])C2([H])N([H])C(=O)C1([H])N(C(=O)C([H])(N([H])C(=O)C([H])(N([H])C([H])([H])[H])C([H])([H])[H])C(C([H])([H])[H])(C([H])([H])[H])C([H])([H])[H])C([H])([H])c2c([H])c(OC([H])([H])c3c(C([H])([H])[H])nc(N([H])C4([H])C([H])([H])C([H])([H])N(C(=O)N5C([H])([H])C([H])([H])C([H])([H])C([H])(n6nc(-c7c([H])c([H])c(Oc8c([H])c([H])c(F)c([H])c8F)c([H])c7[H])c(C(=O)N([H])[H])c6N([H])[H])C5([H])[H])C([H])([H])C4([H])[H])c([H])c3C([H])([H])[H])c([H])c([H])c2C1([H])[H]

>  <smiles>  (84) 
[H]c1c([H])c([H])c2c(c1[H])C([H])([H])C([H])([H])C([H])([H])C2([H])N([H])C(=O)C1([H])N(C(=O)C([H])(N([H])C(=O)C([H])(N([H])C([H])([H])[H])C([H])([H])[H])C(C([H])([H])[H])(C([H])([H])[H])C([H])([H])[H])C([H])([H])c2c([H])c(OC([H])([H])c3c(C([H])([H])[H])nc(N([H])C4([H])C([H])([H])C([H])([H])N(C(=O)N5C([H])([H])C([H])([H])C([H])([H])C([H])(n6nc(-c7c([H])c([H])c(Oc8c([H])c([H])c(F)c([H])c8F)c([H])c7[H])c(C(=O)N([H])[H])c6N([H])[H])C5([H])[H])C([H])([H])C4([H])[H])c([H])c3C([H])([H])[H])c([H])c([H])c2C1([H])[H]

$$$$
86:0:0
     RDKit          3D

 93102  0  0  1  0  0  0  0  0999 V2000
  -25.8570  -23.6770   21.0210 C   0  0  0  0  0  3  0  0  0  0  0  0
  -26.1910  -24.2670   19.7940 C   0  0  0  0  0  3  0  0  0  0  0  0
  -27.5380  -24.2850   19.3100 C   0  0  0  0  0  3  0  0  0  0  0  0
  -26.8240  -22.9560   21.7000 C   0  0  0  0  0  0  0  0  0  0  0  0
  -28.3120  -23.1020   19.8740 C   0  0  0  0  0  0  0  0  0  0  0  0
  -24.9850  -24.6160   18.9530 C   0  0  0  0  0  1  0  0  0  0  0  0
  -26.5220  -22.2770   23.0170 C   0  0  0  0  0  1  0  0  0  0  0  0
  -27.9930  -22.6640   21.1150 N   0  0  0  0  0  0  0  0  0  0  0  0
  -27.8670  -25.4490   18.1730 C   0  0  0  0  0  2  0  0  0  0  0  0
  -27.8880  -27.0160   18.3490 O   0  0  0  0  0  0  0  0  0  0  0  0
  -24.5000  -31.7060   22.8770 C   0  0  0  0  0  0  0  0  0  0  0  0
  -26.8140  -27.9520   18.5650 C   0  0  0  0  0  0  0  0  0  0  0  0
  -23.1390  -30.5420   21.1790 C   0  0  0  0  0  3  0  0  0  0  0  0
  -24.4220  -29.4500   19.2390 C   0  0  0  0  0  0  0  0  0  0  0  0
  -25.6040  -31.0820   20.7010 C   0  0  0  0  0  2  0  0  0  0  0  0
  -25.6490  -29.8570   19.7720 C   0  0  0  0  0  0  0  0  0  0  0  0
  -26.8400  -29.1030   19.4500 C   0  0  0  0  0  3  0  0  0  0  0  0
  -25.5860  -27.7600   17.9150 C   0  0  0  0  0  3  0  0  0  0  0  0
  -24.3970  -28.4170   18.2910 C   0  0  0  0  0  3  0  0  0  0  0  0
  -23.1660  -30.1860   19.6670 C   0  0  0  0  0  2  0  0  0  0  0  0
  -24.4420  -31.1190   21.6400 N   0  0  0  0  0  0  0  0  0  0  0  0
  -23.5010  -31.7750   23.6080 O   0  0  0  0  0  0  0  0  0  0  0  0
  -22.7060  -29.2990   21.9950 C   0  0  0  0  0  0  0  0  0  0  0  0
  -21.4160  -28.9290   21.9090 N   0  0  0  0  0  0  0  0  0  0  0  0
  -23.5280  -28.6790   22.6740 O   0  0  0  0  0  0  0  0  0  0  0  0
  -20.8100  -29.4650   21.3020 H   0  0  0  0  0  0  0  0  0  0  0  0
  -18.3220  -27.1020   22.3610 C   0  0  0  0  0  0  0  0  0  0  0  0
  -20.8100  -27.7790   22.5820 C   0  0  0  0  0  3  0  0  0  0  0  0
  -21.1230  -26.4780   21.8140 C   0  0  0  0  0  2  0  0  0  0  0  0
  -20.0420  -26.1190   20.7940 C   0  0  0  0  0  2  0  0  0  0  0  0
  -18.6950  -25.9150   21.4920 C   0  0  0  0  0  2  0  0  0  0  0  0
  -19.3140  -27.9890   22.8560 C   0  0  0  0  0  0  0  0  0  0  0  0
  -18.9120  -29.1010   23.6200 C   0  0  0  0  0  3  0  0  0  0  0  0
  -17.5510  -29.3330   23.9010 C   0  0  0  0  0  3  0  0  0  0  0  0
  -16.5710  -28.4470   23.4170 C   0  0  0  0  0  3  0  0  0  0  0  0
  -16.9620  -27.3280   22.6530 C   0  0  0  0  0  3  0  0  0  0  0  0
  -25.8200  -32.3340   23.4200 C   0  0  0  0  0  3  0  0  0  0  0  0
  -25.4920  -33.6530   23.9850 N   0  0  0  0  0  0  0  0  0  0  0  0
  -25.7090  -34.8240   23.3710 C   0  0  0  0  0  0  0  0  0  0  0  0
  -26.2810  -34.9110   22.2790 O   0  0  0  0  0  0  0  0  0  0  0  0
  -24.9700  -33.6580   24.8490 H   0  0  0  0  0  0  0  0  0  0  0  0
  -23.9120  -36.5840   23.4250 C   0  0  0  0  0  1  0  0  0  0  0  0
  -25.2190  -36.1030   24.0760 C   0  0  0  0  0  3  0  0  0  0  0  0
  -27.3810  -36.9270   24.9050 C   0  0  0  0  0  1  0  0  0  0  0  0
  -26.2150  -37.2000   24.0660 N   0  0  0  0  0  0  0  0  0  0  0  0
  -25.7940  -38.0700   24.3810 H   0  0  0  0  0  0  0  0  0  0  0  0
  -26.5370  -31.4340   24.4990 C   0  0  1  0  0  0  0  0  0  0  0  0
  -25.6110  -30.9860   25.6530 C   0  0  0  0  0  1  0  0  0  0  0  0
  -27.1270  -30.1590   23.8530 C   0  0  0  0  0  1  0  0  0  0  0  0
  -27.7310  -32.2050   25.1110 C   0  0  0  0  0  1  0  0  0  0  0  0
  -29.2850  -22.1570   19.3310 O   0  0  0  0  0  0  0  0  0  0  0  0
  -31.3510  -16.2630   20.0240 C   0  0  0  0  0  0  0  0  0  0  0  0
  -31.3020  -13.8300   19.3340 C   0  0  0  0  0  2  0  0  0  0  0  0
  -30.4040  -13.5770   18.1070 C   0  0  0  0  0  2  0  0  0  0  0  0
  -28.9610  -13.3080   18.5640 C   0  0  0  0  0  2  0  0  0  0  0  0
  -28.4690  -14.3450   19.6080 C   0  0  0  0  0  3  0  0  0  0  0  0
  -29.5010  -14.6030   20.7250 C   0  0  0  0  0  2  0  0  0  0  0  0
  -30.7510  -15.0090   20.0670 N   0  0  0  0  0  0  0  0  0  0  0  0
  -32.5670  -16.2780   19.8060 O   0  0  0  0  0  0  0  0  0  0  0  0
  -29.3460  -19.4610   18.7710 C   0  0  0  0  0  2  0  0  0  0  0  0
  -30.6750  -20.2120   20.6680 C   0  0  0  0  0  2  0  0  0  0  0  0
  -29.4410  -17.9450   19.3500 C   0  0  0  0  0  2  0  0  0  0  0  0
  -31.4200  -18.7930   20.4200 C   0  0  0  0  0  2  0  0  0  0  0  0
  -29.4340  -20.6550   19.7960 C   0  0  0  0  0  3  0  0  0  0  0  0
  -30.6630  -17.5200   20.1100 N   0  0  0  0  0  0  0  0  0  0  0  0
  -26.1040  -14.8480   20.4340 C   0  0  0  0  0  0  0  0  0  0  0  0
  -25.0640  -14.0390   20.7960 C   0  0  0  0  0  0  0  0  0  0  0  0
  -25.5500  -12.6990   20.6940 C   0  0  0  0  0  0  0  0  0  0  0  0
  -27.1550  -13.9990   20.1310 N   0  0  0  0  0  0  0  0  0  0  0  0
  -26.8340  -12.7000   20.3570 N   0  0  0  0  0  0  0  0  0  0  0  0
  -24.8490  -11.4170   20.8400 C   0  0  0  0  0  0  0  0  0  0  0  0
  -25.1650  -10.5150   21.8820 C   0  0  0  0  0  3  0  0  0  0  0  0
  -24.4610   -9.2990   22.0120 C   0  0  0  0  0  3  0  0  0  0  0  0
  -23.4280   -8.9740   21.1010 C   0  0  0  0  0  0  0  0  0  0  0  0
  -23.1370   -9.8610   20.0500 C   0  0  0  0  0  3  0  0  0  0  0  0
  -23.8420  -11.0690   19.9170 C   0  0  0  0  0  3  0  0  0  0  0  0
  -22.7080   -7.8030   21.1350 O   0  0  0  0  0  0  0  0  0  0  0  0
  -22.2550   -7.2740   22.3170 C   0  0  0  0  0  0  0  0  0  0  0  0
  -21.3810   -7.9890   23.1660 C   0  0  0  0  0  3  0  0  0  0  0  0
  -20.8820   -7.3810   24.3370 C   0  0  0  0  0  3  0  0  0  0  0  0
  -21.2470   -6.0590   24.6540 C   0  0  0  0  0  0  0  0  0  0  0  0
  -22.1110   -5.3440   23.8070 C   0  0  0  0  0  3  0  0  0  0  0  0
  -22.6110   -5.9500   22.6400 C   0  0  0  0  0  0  0  0  0  0  0  0
  -23.4270   -5.2490   21.8150 F   0  0  0  0  0  0  0  0  0  0  0  0
  -20.7630   -5.4720   25.7740 F   0  0  0  0  0  0  0  0  0  0  0  0
  -23.6660  -14.4790   21.1180 C   0  0  0  0  0  0  0  0  0  0  0  0
  -22.9810  -13.7450   21.9890 N   0  0  0  0  0  0  0  0  0  0  0  0
  -23.1910  -15.5060   20.6350 O   0  0  0  0  0  0  0  0  0  0  0  0
  -23.3810  -12.9140   22.3970 H   0  0  0  0  0  0  0  0  0  0  0  0
  -22.0430  -14.0160   22.2500 H   0  0  0  0  0  0  0  0  0  0  0  0
  -26.2430  -16.2260   20.3070 N   0  0  0  0  0  0  0  0  0  0  0  0
  -25.4790  -16.8710   20.4750 H   0  0  0  0  0  0  0  0  0  0  0  0
  -27.0830  -16.6780   19.9770 H   0  0  0  0  0  0  0  0  0  0  0  0
  1  4  2  0
  2  6  1  0
  2  1  1  0
  3  9  1  0
  3  2  1  0
  3  5  1  0
  4  7  1  0
  5  8  2  0
  8  4  1  0
  9 10  1  0
 10 12  1  0
 11 22  2  0
 12 17  1  0
 13 21  1  0
 13 23  1  0
 14 20  1  0
 14 16  1  0
 15 21  1  0
 16 15  1  0
 17 16  2  0
 18 19  1  0
 18 12  2  0
 19 14  2  0
 20 13  1  0
 21 11  1  0
 23 25  2  0
 24 23  1  0
 26 24  1  0
 27 36  2  0
 27 32  1  0
 28 24  1  0
 28 32  1  0
 29 28  1  0
 30 31  1  0
 30 29  1  0
 31 27  1  0
 32 33  2  0
 33 34  1  0
 35 34  2  0
 36 35  1  0
 37 11  1  0
 37 38  1  0
 37 47  1  0
 38 41  1  0
 39 38  1  0
 39 43  1  0
 40 39  2  0
 43 42  1  0
 45 43  1  0
 45 46  1  0
 45 44  1  0
 47 50  1  1
 47 48  1  0
 49 47  1  0
 51  5  1  0
 52 58  1  0
 52 65  1  0
 53 58  1  0
 54 55  1  0
 54 53  1  0
 56 55  1  0
 56 69  1  0
 56 57  1  0
 58 57  1  0
 59 52  2  0
 60 62  1  0
 60 64  1  0
 62 65  1  0
 63 61  1  0
 64 51  1  0
 64 61  1  0
 65 63  1  0
 66 67  2  0
 67 86  1  0
 68 67  1  0
 68 71  1  0
 69 70  1  0
 69 66  1  0
 70 68  2  0
 71 72  1  0
 72 73  2  0
 74 77  1  0
 74 73  1  0
 75 74  2  0
 76 75  1  0
 76 71  2  0
 77 78  1  0
 78 83  2  0
 78 79  1  0
 79 80  2  0
 80 81  1  0
 81 85  1  0
 82 81  2  0
 83 82  1  0
 84 83  1  0
 86 87  1  0
 87 90  1  0
 87 89  1  0
 88 86  2  0
 91 66  1  0
 91 92  1  0
 93 91  1  0
M  ISO  4   9 101  10 101  52 100  65 100
M  END
>  <TORSDO>  (85) 
F 18

>  <SCORE>  (85) 
-5.953

>  <name>  (85) 
86

>  <ligand_id>  (85) 
86

>  <original_smiles>  (85) 
[H]c1c([H])c([H])c2c(c1[H])C([H])([H])C([H])([H])C([H])([H])C2([H])N([H])C(=O)C1([H])N(C(=O)C([H])(N([H])C(=O)C([H])(N([H])C([H])([H])[H])C([H])([H])[H])C(C([H])([H])[H])(C([H])([H])[H])C([H])([H])[H])C([H])([H])c2c([H])c(OC([H])([H])c3c(OC4([H])C([H])([H])C([H])([H])N(C(=O)N5C([H])([H])C([H])([H])C([H])([H])C([H])(n6nc(-c7c([H])c([H])c(Oc8c([H])c([H])c(F)c([H])c8F)c([H])c7[H])c(C(=O)N([H])[H])c6N([H])[H])C5([H])[H])C([H])([H])C4([H])[H])nc(C([H])([H])[H])c([H])c3C([H])([H])[H])c([H])c([H])c2C1([H])[H]

>  <smiles>  (85) 
[H]c1c([H])c([H])c2c(c1[H])C([H])([H])C([H])([H])C([H])([H])C2([H])N([H])C(=O)C1([H])N(C(=O)C([H])(N([H])C(=O)C([H])(N([H])C([H])([H])[H])C([H])([H])[H])C(C([H])([H])[H])(C([H])([H])[H])C([H])([H])[H])C([H])([H])c2c([H])c(OC([H])([H])c3c(OC4([H])C([H])([H])C([H])([H])N(C(=O)N5C([H])([H])C([H])([H])C([H])([H])C([H])(n6nc(-c7c([H])c([H])c(Oc8c([H])c([H])c(F)c([H])c8F)c([H])c7[H])c(C(=O)N([H])[H])c6N([H])[H])C5([H])[H])C([H])([H])C4([H])[H])nc(C([H])([H])[H])c([H])c3C([H])([H])[H])c([H])c([H])c2C1([H])[H]

$$$$
87:0:0
     RDKit          3D

 96106  0  0  1  0  0  0  0  0999 V2000
  -29.1240  -22.5030   20.1920 C   0  0  0  0  0  3  0  0  0  0  0  0
  -26.8020  -21.1100   20.6340 C   0  0  0  0  0  3  0  0  0  0  0  0
  -27.9130  -23.2270   20.1410 C   0  0  0  0  0  0  0  0  0  0  0  0
  -26.7230  -22.4840   20.3490 C   0  0  0  0  0  0  0  0  0  0  0  0
  -29.1100  -21.1210   20.4770 C   0  0  0  0  0  0  0  0  0  0  0  0
  -25.3640  -23.1570   20.2630 C   0  0  0  0  0  2  0  0  0  0  0  0
  -25.4500  -24.5050   19.5410 C   0  0  0  0  0  2  0  0  0  0  0  0
  -27.8230  -24.7250   19.7580 C   0  0  0  0  0  3  0  0  0  0  0  0
  -27.9710  -20.4400   20.7020 N   0  0  0  0  0  0  0  0  0  0  0  0
  -30.3310  -20.4410   20.5490 N   0  0  0  0  0  0  0  0  0  0  0  0
  -26.5310  -25.2310   20.1040 O   0  0  0  0  0  0  0  0  0  0  0  0
  -31.1510  -21.0230   20.4080 H   0  0  0  0  0  0  0  0  0  0  0  0
  -31.2420  -14.8710   20.1780 C   0  0  0  0  0  0  0  0  0  0  0  0
  -30.8570  -12.6660   19.1710 C   0  0  0  0  0  2  0  0  0  0  0  0
  -29.9180  -12.8330   17.9610 C   0  0  0  0  0  2  0  0  0  0  0  0
  -28.4520  -12.7190   18.4190 C   0  0  0  0  0  2  0  0  0  0  0  0
  -28.1260  -13.6210   19.6410 C   0  0  0  0  0  3  0  0  0  0  0  0
  -29.1980  -13.4960   20.7460 C   0  0  0  0  0  2  0  0  0  0  0  0
  -30.5130  -13.7230   20.1300 N   0  0  0  0  0  0  0  0  0  0  0  0
  -32.4090  -14.9340   19.7820 O   0  0  0  0  0  0  0  0  0  0  0  0
  -29.7980  -18.2700   19.3560 C   0  0  0  0  0  2  0  0  0  0  0  0
  -30.3780  -18.1920   21.7520 C   0  0  0  0  0  2  0  0  0  0  0  0
  -30.3200  -16.8260   19.1610 C   0  0  0  0  0  2  0  0  0  0  0  0
  -30.9810  -16.7760   21.6000 C   0  0  0  0  0  2  0  0  0  0  0  0
  -30.5690  -18.9920   20.4600 C   0  0  0  0  0  3  0  0  0  0  0  0
  -30.5620  -16.0240   20.3940 N   0  0  0  0  0  0  0  0  0  0  0  0
  -25.7740  -14.2450   20.4700 C   0  0  0  0  0  0  0  0  0  0  0  0
  -24.6960  -13.4800   20.8220 C   0  0  0  0  0  0  0  0  0  0  0  0
  -25.1180  -12.1200   20.7000 C   0  0  0  0  0  0  0  0  0  0  0  0
  -26.7850  -13.3530   20.1550 N   0  0  0  0  0  0  0  0  0  0  0  0
  -26.3990  -12.0660   20.3580 N   0  0  0  0  0  0  0  0  0  0  0  0
  -24.3650  -10.8670   20.8380 C   0  0  0  0  0  0  0  0  0  0  0  0
  -24.7460   -9.8700   21.7630 C   0  0  0  0  0  3  0  0  0  0  0  0
  -23.9950   -8.6830   21.8870 C   0  0  0  0  0  3  0  0  0  0  0  0
  -22.8460   -8.4820   21.0890 C   0  0  0  0  0  0  0  0  0  0  0  0
  -22.4820   -9.4660   20.1540 C   0  0  0  0  0  3  0  0  0  0  0  0
  -23.2340  -10.6450   20.0260 C   0  0  0  0  0  3  0  0  0  0  0  0
  -22.0680   -7.3490   21.1280 O   0  0  0  0  0  0  0  0  0  0  0  0
  -21.8830   -6.6430   22.2880 C   0  0  0  0  0  0  0  0  0  0  0  0
  -21.3090   -7.2320   23.4350 C   0  0  0  0  0  3  0  0  0  0  0  0
  -21.0690   -6.4490   24.5830 C   0  0  0  0  0  3  0  0  0  0  0  0
  -21.3980   -5.0810   24.5850 C   0  0  0  0  0  0  0  0  0  0  0  0
  -21.9660   -4.4930   23.4420 C   0  0  0  0  0  3  0  0  0  0  0  0
  -22.2060   -5.2710   22.2950 C   0  0  0  0  0  0  0  0  0  0  0  0
  -22.7350   -4.6940   21.1900 F   0  0  0  0  0  0  0  0  0  0  0  0
  -21.1600   -4.3250   25.6840 F   0  0  0  0  0  0  0  0  0  0  0  0
  -23.3190  -13.9760   21.1580 C   0  0  0  0  0  0  0  0  0  0  0  0
  -22.6030  -13.2640   22.0220 N   0  0  0  0  0  0  0  0  0  0  0  0
  -22.8920  -15.0320   20.6920 O   0  0  0  0  0  0  0  0  0  0  0  0
  -22.9620  -12.4060   22.4150 H   0  0  0  0  0  0  0  0  0  0  0  0
  -21.6830  -13.5810   22.2930 H   0  0  0  0  0  0  0  0  0  0  0  0
  -25.9790  -15.6170   20.3670 N   0  0  0  0  0  0  0  0  0  0  0  0
  -25.2460  -16.2900   20.5590 H   0  0  0  0  0  0  0  0  0  0  0  0
  -26.8550  -16.0480   20.0910 H   0  0  0  0  0  0  0  0  0  0  0  0
  -28.8590  -25.7300   20.3870 C   0  0  0  0  0  2  0  0  0  0  0  0
  -28.9130  -27.1140   19.9100 O   0  0  0  0  0  0  0  0  0  0  0  0
  -24.7900  -31.8050   23.4040 C   0  0  0  0  0  0  0  0  0  0  0  0
  -27.7510  -27.8630   19.9410 C   0  0  0  0  0  0  0  0  0  0  0  0
  -23.7200  -30.5690   21.5520 C   0  0  0  0  0  3  0  0  0  0  0  0
  -25.3050  -29.2950   20.0110 C   0  0  0  0  0  0  0  0  0  0  0  0
  -26.2370  -31.0380   21.5310 C   0  0  0  0  0  2  0  0  0  0  0  0
  -26.4100  -29.7600   20.7380 C   0  0  0  0  0  0  0  0  0  0  0  0
  -27.6360  -29.0450   20.7120 C   0  0  0  0  0  3  0  0  0  0  0  0
  -26.6590  -27.4840   19.1360 C   0  0  0  0  0  3  0  0  0  0  0  0
  -25.4280  -28.1560   19.2000 C   0  0  0  0  0  3  0  0  0  0  0  0
  -24.0190  -30.0850   20.1090 C   0  0  0  0  0  2  0  0  0  0  0  0
  -24.9310  -31.1490   22.2210 N   0  0  0  0  0  0  0  0  0  0  0  0
  -23.6750  -31.9570   23.9200 O   0  0  0  0  0  0  0  0  0  0  0  0
  -23.0860  -29.4030   22.3470 C   0  0  0  0  0  0  0  0  0  0  0  0
  -21.7720  -29.1950   22.1630 N   0  0  0  0  0  0  0  0  0  0  0  0
  -23.7740  -28.6990   23.0920 O   0  0  0  0  0  0  0  0  0  0  0  0
  -21.2700  -29.8330   21.5590 H   0  0  0  0  0  0  0  0  0  0  0  0
  -18.4320  -27.8440   22.4450 C   0  0  0  0  0  0  0  0  0  0  0  0
  -20.9820  -28.1280   22.7780 C   0  0  0  0  0  3  0  0  0  0  0  0
  -21.1310  -26.8030   21.9940 C   0  0  0  0  0  2  0  0  0  0  0  0
  -20.0430  -26.6010   20.9350 C   0  0  0  0  0  2  0  0  0  0  0  0
  -18.6500  -26.6190   21.5710 C   0  0  0  0  0  2  0  0  0  0  0  0
  -19.5280  -28.5600   22.9990 C   0  0  0  0  0  0  0  0  0  0  0  0
  -19.2730  -29.7110   23.7720 C   0  0  0  0  0  3  0  0  0  0  0  0
  -17.9550  -30.1520   24.0010 C   0  0  0  0  0  3  0  0  0  0  0  0
  -16.8740  -29.4320   23.4660 C   0  0  0  0  0  3  0  0  0  0  0  0
  -17.1120  -28.2770   22.6960 C   0  0  0  0  0  3  0  0  0  0  0  0
  -26.0180  -32.4160   24.1470 C   0  0  0  0  0  3  0  0  0  0  0  0
  -25.6850  -33.8080   24.4750 N   0  0  0  0  0  0  0  0  0  0  0  0
  -26.0340  -34.8680   23.7320 C   0  0  0  0  0  0  0  0  0  0  0  0
  -26.7430  -34.7760   22.7270 O   0  0  0  0  0  0  0  0  0  0  0  0
  -25.0750  -33.9540   25.2660 H   0  0  0  0  0  0  0  0  0  0  0  0
  -24.3060  -36.6450   23.3140 C   0  0  0  0  0  1  0  0  0  0  0  0
  -25.5170  -36.2520   24.1740 C   0  0  0  0  0  3  0  0  0  0  0  0
  -27.5980  -37.1610   25.1030 C   0  0  0  0  0  1  0  0  0  0  0  0
  -26.5430  -37.3160   24.1050 N   0  0  0  0  0  0  0  0  0  0  0  0
  -26.1200  -38.2320   24.2320 H   0  0  0  0  0  0  0  0  0  0  0  0
  -26.4130  -31.6170   25.4490 C   0  0  1  0  0  0  0  0  0  0  0  0
  -25.2230  -31.3540   26.3990 C   0  0  0  0  0  1  0  0  0  0  0  0
  -27.0380  -30.2500   25.0870 C   0  0  0  0  0  1  0  0  0  0  0  0
  -27.4890  -32.4020   26.2360 C   0  0  0  0  0  1  0  0  0  0  0  0
  1  5  1  0
  2  9  1  0
  3  1  2  0
  3  4  1  0
  4  2  2  0
  5 10  1  0
  5  9  2  0
  6  4  1  0
  7 11  1  0
  7  6  1  0
  8 11  1  0
  8  3  1  0
  8 55  1  0
 12 10  1  0
 13 26  1  0
 14 19  1  0
 15 16  1  0
 15 14  1  0
 17 16  1  0
 17 30  1  0
 17 18  1  0
 19 13  1  0
 19 18  1  0
 20 13  2  0
 21 25  1  0
 23 21  1  0
 23 26  1  0
 24 22  1  0
 25 10  1  0
 25 22  1  0
 26 24  1  0
 27 28  2  0
 28 47  1  0
 29 28  1  0
 29 32  1  0
 30 31  1  0
 30 27  1  0
 31 29  2  0
 32 33  1  0
 33 34  2  0
 35 38  1  0
 35 34  1  0
 36 35  2  0
 37 36  1  0
 37 32  2  0
 38 39  1  0
 39 44  2  0
 39 40  1  0
 40 41  2  0
 41 42  1  0
 42 46  1  0
 43 42  2  0
 44 43  1  0
 45 44  1  0
 47 48  1  0
 48 51  1  0
 48 50  1  0
 49 47  2  0
 52 27  1  0
 52 53  1  0
 54 52  1  0
 56 58  1  0
 56 55  1  0
 57 68  2  0
 58 63  1  0
 59 67  1  0
 59 69  1  0
 60 66  1  0
 60 62  1  0
 61 67  1  0
 62 61  1  0
 63 62  2  0
 64 65  1  0
 64 58  2  0
 65 60  2  0
 66 59  1  0
 67 57  1  0
 69 71  2  0
 70 69  1  0
 72 70  1  0
 73 82  2  0
 73 78  1  0
 74 70  1  0
 74 78  1  0
 75 74  1  0
 76 77  1  0
 76 75  1  0
 77 73  1  0
 78 79  2  0
 79 80  1  0
 81 80  2  0
 82 81  1  0
 83 57  1  0
 83 84  1  0
 83 93  1  0
 84 87  1  0
 85 89  1  0
 85 84  1  0
 86 85  2  0
 89 88  1  0
 91 89  1  0
 91 92  1  0
 91 90  1  0
 93 96  1  1
 93 94  1  0
 95 93  1  0
M  ISO  4  13 100  26 100  55 101  56 101
M  END
>  <TORSDO>  (86) 
F 17

>  <SCORE>  (86) 
-12.581

>  <name>  (86) 
87

>  <ligand_id>  (86) 
87

>  <original_smiles>  (86) 
[H]c1nc(N([H])C2([H])C([H])([H])C([H])([H])N(C(=O)N3C([H])([H])C([H])([H])C([H])([H])C([H])(n4nc(-c5c([H])c([H])c(Oc6c([H])c([H])c(F)c([H])c6F)c([H])c5[H])c(C(=O)N([H])[H])c4N([H])[H])C3([H])[H])C([H])([H])C2([H])[H])c([H])c2c1C([H])([H])C([H])([H])OC2([H])C([H])([H])Oc1c([H])c([H])c2c(c1[H])C([H])([H])N(C(=O)C([H])(N([H])C(=O)C([H])(N([H])C([H])([H])[H])C([H])([H])[H])C(C([H])([H])[H])(C([H])([H])[H])C([H])([H])[H])C([H])(C(=O)N([H])C1([H])c3c([H])c([H])c([H])c([H])c3C([H])([H])C([H])([H])C1([H])[H])C2([H])[H]

>  <smiles>  (86) 
[H]c1nc(N([H])C2([H])C([H])([H])C([H])([H])N(C(=O)N3C([H])([H])C([H])([H])C([H])([H])C([H])(n4nc(-c5c([H])c([H])c(Oc6c([H])c([H])c(F)c([H])c6F)c([H])c5[H])c(C(=O)N([H])[H])c4N([H])[H])C3([H])[H])C([H])([H])C2([H])[H])c([H])c2c1C([H])([H])C([H])([H])OC2([H])C([H])([H])Oc1c([H])c([H])c2c(c1[H])C([H])([H])N(C(=O)C([H])(N([H])C(=O)C([H])(N([H])C([H])([H])[H])C([H])([H])[H])C(C([H])([H])[H])(C([H])([H])[H])C([H])([H])[H])C([H])(C(=O)N([H])C1([H])c3c([H])c([H])c([H])c([H])c3C([H])([H])C([H])([H])C1([H])[H])C2([H])[H]

$$$$
88:0:0
     RDKit          3D

 98108  0  0  1  0  0  0  0  0999 V2000
  -29.6870  -20.7190   19.4520 C   0  0  0  0  0  3  0  0  0  0  0  0
  -29.2140  -22.0530   19.3570 C   0  0  0  0  0  0  0  0  0  0  0  0
  -27.8200  -22.2910   19.2560 C   0  0  0  0  0  0  0  0  0  0  0  0
  -26.9170  -21.1910   19.2200 C   0  0  0  0  0  0  0  0  0  0  0  0
  -28.8070  -19.6030   19.4460 C   0  0  0  0  0  0  0  0  0  0  0  0
  -27.4090  -19.8610   19.3980 C   0  0  0  0  0  0  0  0  0  0  0  0
  -30.2150  -23.2230   19.2850 C   0  0  0  0  0  2  0  0  0  0  0  0
  -27.2940  -23.7300   19.1340 C   0  0  0  0  0  2  0  0  0  0  0  0
  -28.3510  -24.8500   19.2470 C   0  0  0  0  0  2  0  0  0  0  0  0
  -29.6880  -24.5120   18.5570 C   0  0  2  0  0  0  0  0  0  0  0  0
  -26.4220  -18.7000   19.5240 C   0  0  0  0  0  1  0  0  0  0  0  0
  -29.4570  -24.1180   17.0670 C   0  0  0  0  0  1  0  0  0  0  0  0
  -24.7820  -21.1290   17.6220 C   0  0  0  0  0  2  0  0  0  0  0  0
  -24.9860  -22.5580   18.0290 C   0  0  0  0  0  2  0  0  0  0  0  0
  -25.4440  -21.4440   18.9560 C   0  0  0  0  0  3  0  0  0  0  0  0
  -29.9020  -17.8710   17.8920 C   0  0  0  0  0  1  0  0  0  0  0  0
  -29.3440  -18.1430   19.2990 C   0  0  0  0  0  3  0  0  0  0  0  0
  -30.3220  -17.6050   20.3980 C   0  0  0  0  0  2  0  0  0  0  0  0
  -31.1580  -15.2120   19.8610 C   0  0  0  0  0  0  0  0  0  0  0  0
  -31.1130  -12.9170   18.9320 C   0  0  0  0  0  2  0  0  0  0  0  0
  -30.0680  -12.8630   17.7960 C   0  0  0  0  0  2  0  0  0  0  0  0
  -28.6520  -12.6040   18.3490 C   0  0  0  0  0  2  0  0  0  0  0  0
  -28.3010  -13.5380   19.5390 C   0  0  0  0  0  3  0  0  0  0  0  0
  -29.4400  -13.5170   20.5800 C   0  0  0  0  0  2  0  0  0  0  0  0
  -30.6780  -13.9380   19.8980 N   0  0  0  0  0  0  0  0  0  0  0  0
  -32.1860  -15.5220   19.2470 O   0  0  0  0  0  0  0  0  0  0  0  0
  -30.3430  -16.1220   20.4460 N   0  0  0  0  0  0  0  0  0  0  0  0
  -29.5700  -15.7030   20.9420 H   0  0  0  0  0  0  0  0  0  0  0  0
  -26.0760  -14.0160   20.7400 C   0  0  0  0  0  0  0  0  0  0  0  0
  -25.0310  -13.2010   21.0850 C   0  0  0  0  0  0  0  0  0  0  0  0
  -25.3930  -11.8920   20.6500 C   0  0  0  0  0  0  0  0  0  0  0  0
  -27.0170  -13.1920   20.1410 N   0  0  0  0  0  0  0  0  0  0  0  0
  -26.6140  -11.8970   20.1310 N   0  0  0  0  0  0  0  0  0  0  0  0
  -24.6210  -10.6430   20.6370 C   0  0  0  0  0  0  0  0  0  0  0  0
  -25.1360   -9.4560   21.2030 C   0  0  0  0  0  3  0  0  0  0  0  0
  -24.3690   -8.2730   21.1970 C   0  0  0  0  0  3  0  0  0  0  0  0
  -23.0740   -8.2690   20.6250 C   0  0  0  0  0  0  0  0  0  0  0  0
  -22.5770   -9.4480   20.0460 C   0  0  0  0  0  3  0  0  0  0  0  0
  -23.3420  -10.6260   20.0480 C   0  0  0  0  0  3  0  0  0  0  0  0
  -22.2690   -7.1580   20.5520 O   0  0  0  0  0  0  0  0  0  0  0  0
  -22.3000   -6.1790   21.5130 C   0  0  0  0  0  0  0  0  0  0  0  0
  -22.0320   -6.4600   22.8700 C   0  0  0  0  0  3  0  0  0  0  0  0
  -22.0040   -5.4140   23.8130 C   0  0  0  0  0  3  0  0  0  0  0  0
  -22.2350   -4.0880   23.4010 C   0  0  0  0  0  0  0  0  0  0  0  0
  -22.4970   -3.8060   22.0500 C   0  0  0  0  0  3  0  0  0  0  0  0
  -22.5260   -4.8480   21.1070 C   0  0  0  0  0  0  0  0  0  0  0  0
  -22.7600   -4.5700   19.8020 F   0  0  0  0  0  0  0  0  0  0  0  0
  -22.1980   -3.0800   24.3050 F   0  0  0  0  0  0  0  0  0  0  0  0
  -23.7270  -13.6320   21.6910 C   0  0  0  0  0  0  0  0  0  0  0  0
  -23.1230  -12.7810   22.5160 N   0  0  0  0  0  0  0  0  0  0  0  0
  -23.2610  -14.7490   21.4790 O   0  0  0  0  0  0  0  0  0  0  0  0
  -23.5100  -11.8690   22.7110 H   0  0  0  0  0  0  0  0  0  0  0  0
  -22.2600  -13.0540   22.9640 H   0  0  0  0  0  0  0  0  0  0  0  0
  -26.2850  -15.3840   20.8620 N   0  0  0  0  0  0  0  0  0  0  0  0
  -25.5090  -15.9900   21.1040 H   0  0  0  0  0  0  0  0  0  0  0  0
  -27.0490  -15.8780   20.4190 H   0  0  0  0  0  0  0  0  0  0  0  0
  -30.7120  -25.7310   18.6390 C   0  0  0  0  0  2  0  0  0  0  0  0
  -30.4730  -26.8710   19.5260 O   0  0  0  0  0  0  0  0  0  0  0  0
  -25.4410  -29.8560   23.6690 C   0  0  0  0  0  0  0  0  0  0  0  0
  -29.2410  -27.5180   19.5710 C   0  0  0  0  0  0  0  0  0  0  0  0
  -24.7780  -29.3230   21.3490 C   0  0  0  0  0  3  0  0  0  0  0  0
  -26.6770  -28.7400   19.7540 C   0  0  0  0  0  0  0  0  0  0  0  0
  -27.2220  -29.8630   21.9150 C   0  0  0  0  0  2  0  0  0  0  0  0
  -27.6270  -28.9660   20.7570 C   0  0  0  0  0  0  0  0  0  0  0  0
  -28.9060  -28.3550   20.6690 C   0  0  0  0  0  3  0  0  0  0  0  0
  -28.2710  -27.3470   18.5610 C   0  0  0  0  0  3  0  0  0  0  0  0
  -26.9960  -27.9310   18.6540 C   0  0  0  0  0  3  0  0  0  0  0  0
  -25.3260  -29.4010   19.9020 C   0  0  0  0  0  2  0  0  0  0  0  0
  -25.8190  -29.6660   22.3730 N   0  0  0  0  0  0  0  0  0  0  0  0
  -24.2500  -29.7840   24.0090 O   0  0  0  0  0  0  0  0  0  0  0  0
  -24.1380  -27.9320   21.5650 C   0  0  0  0  0  0  0  0  0  0  0  0
  -22.9620  -27.7070   20.9570 N   0  0  0  0  0  0  0  0  0  0  0  0
  -24.7060  -27.0770   22.2490 O   0  0  0  0  0  0  0  0  0  0  0  0
  -22.5520  -28.4530   20.4130 H   0  0  0  0  0  0  0  0  0  0  0  0
  -20.0150  -26.0550   19.6960 C   0  0  0  0  0  0  0  0  0  0  0  0
  -22.2020  -26.4580   21.0070 C   0  0  0  0  0  3  0  0  0  0  0  0
  -22.8330  -25.3890   20.0860 C   0  0  0  0  0  2  0  0  0  0  0  0
  -22.2320  -25.3800   18.6770 C   0  0  0  0  0  2  0  0  0  0  0  0
  -20.7260  -25.1080   18.7420 C   0  0  0  0  0  2  0  0  0  0  0  0
  -20.7120  -26.7010   20.7490 C   0  0  0  0  0  0  0  0  0  0  0  0
  -20.0130  -27.6000   21.5830 C   0  0  0  0  0  3  0  0  0  0  0  0
  -18.6430  -27.8520   21.3800 C   0  0  0  0  0  3  0  0  0  0  0  0
  -17.9530  -27.1960   20.3460 C   0  0  0  0  0  3  0  0  0  0  0  0
  -18.6380  -26.2970   19.5100 C   0  0  0  0  0  3  0  0  0  0  0  0
  -26.4830  -30.2020   24.7790 C   0  0  0  0  0  3  0  0  0  0  0  0
  -26.3590  -29.2830   26.0560 C   0  0  1  0  0  0  0  0  0  0  0  0
  -24.9280  -29.2220   26.6340 C   0  0  0  0  0  1  0  0  0  0  0  0
  -26.7990  -27.8350   25.7390 C   0  0  0  0  0  1  0  0  0  0  0  0
  -27.2990  -29.7970   27.1710 C   0  0  0  0  0  1  0  0  0  0  0  0
  -26.3000  -31.6160   25.1360 N   0  0  0  0  0  0  0  0  0  0  0  0
  -27.1650  -32.5930   24.8350 C   0  0  0  0  0  0  0  0  0  0  0  0
  -28.2500  -32.3820   24.2850 O   0  0  0  0  0  0  0  0  0  0  0  0
  -25.4110  -31.8770   25.5370 H   0  0  0  0  0  0  0  0  0  0  0  0
  -26.3210  -34.7860   23.9410 C   0  0  0  0  0  1  0  0  0  0  0  0
  -26.7630  -34.0310   25.2050 C   0  0  0  0  0  3  0  0  0  0  0  0
  -28.1490  -34.2690   27.2170 C   0  0  0  0  0  1  0  0  0  0  0  0
  -27.8370  -34.7850   25.8860 N   0  0  0  0  0  0  0  0  0  0  0  0
  -27.5810  -35.7650   25.9740 H   0  0  0  0  0  0  0  0  0  0  0  0
  2  1  2  0
  3  2  1  0
  4  3  2  0
  4  6  1  0
  5  1  1  0
  6  5  2  0
  6 11  1  0
  7  2  1  0
  8  9  1  0
  8  3  1  0
 10 12  1  6
 10 57  1  0
 10  9  1  0
 10  7  1  0
 13 14  1  0
 13 15  1  0
 14 15  1  0
 15  4  1  0
 17 16  1  0
 17  5  1  0
 17 18  1  0
 18 27  1  0
 19 25  1  0
 19 27  1  0
 20 25  1  0
 21 22  1  0
 21 20  1  0
 23 22  1  0
 23 32  1  0
 23 24  1  0
 25 24  1  0
 26 19  2  0
 27 28  1  0
 29 54  1  0
 29 30  2  0
 30 49  1  0
 31 30  1  0
 32 29  1  0
 33 32  1  0
 33 31  2  0
 34 31  1  0
 34 35  1  0
 36 35  2  0
 37 36  1  0
 38 39  1  0
 38 37  2  0
 39 34  2  0
 40 37  1  0
 40 41  1  0
 41 42  1  0
 42 43  2  0
 44 43  1  0
 44 48  1  0
 45 44  2  0
 46 41  2  0
 46 45  1  0
 47 46  1  0
 49 50  1  0
 50 52  1  0
 50 53  1  0
 51 49  2  0
 54 55  1  0
 56 54  1  0
 57 58  1  0
 58 60  1  0
 59 70  2  0
 60 65  1  0
 61 71  1  0
 61 69  1  0
 62 68  1  0
 62 64  1  0
 63 69  1  0
 64 63  1  0
 65 64  2  0
 66 67  1  0
 66 60  2  0
 67 62  2  0
 68 61  1  0
 69 59  1  0
 71 73  2  0
 72 71  1  0
 74 72  1  0
 75 80  1  0
 76 72  1  0
 77 76  1  0
 78 79  1  0
 78 77  1  0
 79 75  1  0
 80 76  1  0
 80 81  2  0
 82 81  1  0
 83 82  2  0
 84 75  2  0
 84 83  1  0
 85 59  1  0
 85 90  1  0
 85 86  1  0
 86 87  1  1
 86 89  1  0
 88 86  1  0
 90 93  1  0
 91 90  1  0
 91 95  1  0
 92 91  2  0
 95 94  1  0
 95 97  1  0
 97 98  1  0
 97 96  1  0
M  ISO  4  19 100  27 100  57 101  58 101
M  END
>  <TORSDO>  (87) 
F 20

>  <SCORE>  (87) 
-6.964

>  <name>  (87) 
88

>  <ligand_id>  (87) 
88

>  <original_smiles>  (87) 
[H]c1c([H])c([H])c2c(c1[H])C([H])([H])C([H])([H])C([H])([H])C2([H])N([H])C(=O)C1([H])N(C(=O)C([H])(N([H])C(=O)C([H])(N([H])C([H])([H])[H])C([H])([H])[H])C(C([H])([H])[H])(C([H])([H])[H])C([H])([H])[H])C([H])([H])c2c([H])c(OC([H])([H])C3(C([H])([H])[H])C([H])([H])c4c([H])c(C([H])(C([H])([H])[H])C([H])([H])N([H])C(=O)N5C([H])([H])C([H])([H])C([H])([H])C([H])(n6nc(-c7c([H])c([H])c(Oc8c([H])c([H])c(F)c([H])c8F)c([H])c7[H])c(C(=O)N([H])[H])c6N([H])[H])C5([H])[H])c(C([H])([H])[H])c(C5([H])C([H])([H])C5([H])[H])c4C([H])([H])C3([H])[H])c([H])c([H])c2C1([H])[H]

>  <smiles>  (87) 
[H]c1c([H])c([H])c2c(c1[H])C([H])([H])C([H])([H])C([H])([H])C2([H])N([H])C(=O)C1([H])N(C(=O)C([H])(N([H])C(=O)C([H])(N([H])C([H])([H])[H])C([H])([H])[H])C(C([H])([H])[H])(C([H])([H])[H])C([H])([H])[H])C([H])([H])c2c([H])c(OC([H])([H])C3(C([H])([H])[H])C([H])([H])c4c([H])c(C([H])(C([H])([H])[H])C([H])([H])N([H])C(=O)N5C([H])([H])C([H])([H])C([H])([H])C([H])(n6nc(-c7c([H])c([H])c(Oc8c([H])c([H])c(F)c([H])c8F)c([H])c7[H])c(C(=O)N([H])[H])c6N([H])[H])C5([H])[H])c(C([H])([H])[H])c(C5([H])C([H])([H])C5([H])[H])c4C([H])([H])C3([H])[H])c([H])c([H])c2C1([H])[H]

$$$$
89:0:0
     RDKit          3D

 97106  0  0  1  0  0  0  0  0999 V2000
  -29.2120  -23.1130   20.2090 C   0  0  0  0  0  3  0  0  0  0  0  0
  -27.2270  -22.0740   19.3580 C   0  0  0  0  0  0  0  0  0  0  0  0
  -26.7810  -23.3120   18.9750 C   0  0  0  0  0  0  0  0  0  0  0  0
  -28.5760  -21.9010   19.9160 C   0  0  0  0  0  0  0  0  0  0  0  0
  -27.7000  -24.4690   18.9270 C   0  0  0  0  0  0  0  0  0  0  0  0
  -26.3020  -20.8580   19.4120 C   0  0  0  0  0  1  0  0  0  0  0  0
  -28.7420  -24.4470   19.7970 N   0  0  0  0  0  0  0  0  0  0  0  0
  -27.4820  -25.4490   18.2120 O   0  0  0  0  0  0  0  0  0  0  0  0
  -24.7970  -23.2970   17.3100 C   0  0  0  0  0  1  0  0  0  0  0  0
  -24.3400  -23.2260   19.8540 C   0  0  0  0  0  1  0  0  0  0  0  0
  -25.2930  -23.6610   18.7190 C   0  0  0  0  0  3  0  0  0  0  0  0
  -28.9440  -20.5680   20.3930 N   0  0  0  0  0  0  0  0  0  0  0  0
  -29.2120  -20.5930   21.3730 H   0  0  0  0  0  0  0  0  0  0  0  0
  -28.4560  -18.8450   18.5830 C   0  0  0  0  0  2  0  0  0  0  0  0
  -28.6300  -17.3520   18.8970 C   0  0  0  0  0  2  0  0  0  0  0  0
  -29.3050  -19.1860   19.8170 C   0  0  0  0  0  3  0  0  0  0  0  0
  -28.8760  -17.6920   20.3830 C   0  0  0  0  0  3  0  0  0  0  0  0
  -30.5190  -15.4930   20.7370 C   0  0  0  0  0  0  0  0  0  0  0  0
  -30.5500  -13.0690   20.0690 C   0  0  0  0  0  2  0  0  0  0  0  0
  -29.7660  -12.8350   18.7610 C   0  0  0  0  0  2  0  0  0  0  0  0
  -28.2880  -12.5620   19.0820 C   0  0  0  0  0  2  0  0  0  0  0  0
  -27.7050  -13.6010   20.0740 C   0  0  0  0  0  3  0  0  0  0  0  0
  -28.6240  -13.8450   21.2920 C   0  0  0  0  0  2  0  0  0  0  0  0
  -29.9370  -14.2340   20.7690 N   0  0  0  0  0  0  0  0  0  0  0  0
  -31.7190  -15.5620   20.4660 O   0  0  0  0  0  0  0  0  0  0  0  0
  -29.8590  -16.6920   21.0470 N   0  0  0  0  0  0  0  0  0  0  0  0
  -30.5370  -17.2510   21.5430 H   0  0  0  0  0  0  0  0  0  0  0  0
  -25.2540  -14.1000   20.6070 C   0  0  0  0  0  0  0  0  0  0  0  0
  -24.1930  -13.2910   20.9080 C   0  0  0  0  0  0  0  0  0  0  0  0
  -24.7110  -11.9590   20.9460 C   0  0  0  0  0  0  0  0  0  0  0  0
  -26.3450  -13.2630   20.4740 N   0  0  0  0  0  0  0  0  0  0  0  0
  -26.0220  -11.9710   20.7440 N   0  0  0  0  0  0  0  0  0  0  0  0
  -24.0230  -10.6700   21.1000 C   0  0  0  0  0  0  0  0  0  0  0  0
  -24.4070   -9.7420   22.0940 C   0  0  0  0  0  3  0  0  0  0  0  0
  -23.7170   -8.5200   22.2400 C   0  0  0  0  0  3  0  0  0  0  0  0
  -22.6260   -8.2180   21.3890 C   0  0  0  0  0  0  0  0  0  0  0  0
  -22.2600   -9.1330   20.3860 C   0  0  0  0  0  3  0  0  0  0  0  0
  -22.9520  -10.3470   20.2400 C   0  0  0  0  0  3  0  0  0  0  0  0
  -21.9130   -7.0450   21.4410 O   0  0  0  0  0  0  0  0  0  0  0  0
  -21.7730   -6.3360   22.6080 C   0  0  0  0  0  0  0  0  0  0  0  0
  -21.2020   -6.9100   23.7640 C   0  0  0  0  0  3  0  0  0  0  0  0
  -21.0120   -6.1260   24.9190 C   0  0  0  0  0  3  0  0  0  0  0  0
  -21.3840   -4.7680   24.9190 C   0  0  0  0  0  0  0  0  0  0  0  0
  -21.9490   -4.1920   23.7660 C   0  0  0  0  0  3  0  0  0  0  0  0
  -22.1370   -4.9750   22.6130 C   0  0  0  0  0  0  0  0  0  0  0  0
  -22.6620   -4.4100   21.5000 F   0  0  0  0  0  0  0  0  0  0  0  0
  -21.1930   -4.0130   26.0260 F   0  0  0  0  0  0  0  0  0  0  0  0
  -22.7600  -13.7130   21.0560 C   0  0  0  0  0  0  0  0  0  0  0  0
  -22.0030  -13.0250   21.9060 N   0  0  0  0  0  0  0  0  0  0  0  0
  -22.3210  -14.6920   20.4580 O   0  0  0  0  0  0  0  0  0  0  0  0
  -22.3750  -12.2410   22.4220 H   0  0  0  0  0  0  0  0  0  0  0  0
  -21.0400  -13.2940   22.0460 H   0  0  0  0  0  0  0  0  0  0  0  0
  -25.3780  -15.4730   20.4150 N   0  0  0  0  0  0  0  0  0  0  0  0
  -24.5860  -16.1050   20.4650 H   0  0  0  0  0  0  0  0  0  0  0  0
  -26.2470  -15.9470   20.2100 H   0  0  0  0  0  0  0  0  0  0  0  0
  -29.0700  -25.8020   20.4870 C   0  0  0  0  0  2  0  0  0  0  0  0
  -28.9090  -27.1430   19.8440 O   0  0  0  0  0  0  0  0  0  0  0  0
  -24.7600  -32.0040   23.4980 C   0  0  0  0  0  0  0  0  0  0  0  0
  -27.7600  -27.9650   20.0160 C   0  0  0  0  0  0  0  0  0  0  0  0
  -23.7030  -30.7320   21.6650 C   0  0  0  0  0  3  0  0  0  0  0  0
  -25.3050  -29.4750   20.1040 C   0  0  0  0  0  0  0  0  0  0  0  0
  -26.2250  -31.2300   21.6100 C   0  0  0  0  0  2  0  0  0  0  0  0
  -26.4230  -29.9370   20.8140 C   0  0  0  0  0  0  0  0  0  0  0  0
  -27.6540  -29.1920   20.7680 C   0  0  0  0  0  3  0  0  0  0  0  0
  -26.6310  -27.6190   19.2500 C   0  0  0  0  0  3  0  0  0  0  0  0
  -25.4160  -28.3270   19.3110 C   0  0  0  0  0  3  0  0  0  0  0  0
  -24.0060  -30.2530   20.2190 C   0  0  0  0  0  2  0  0  0  0  0  0
  -24.9110  -31.3370   22.3140 N   0  0  0  0  0  0  0  0  0  0  0  0
  -23.6460  -32.1300   24.0290 O   0  0  0  0  0  0  0  0  0  0  0  0
  -23.1020  -29.5580   22.4760 C   0  0  0  0  0  0  0  0  0  0  0  0
  -21.7990  -29.2880   22.2850 N   0  0  0  0  0  0  0  0  0  0  0  0
  -23.8120  -28.8930   23.2370 O   0  0  0  0  0  0  0  0  0  0  0  0
  -21.2760  -29.8750   21.6480 H   0  0  0  0  0  0  0  0  0  0  0  0
  -18.5200  -27.7840   22.5610 C   0  0  0  0  0  0  0  0  0  0  0  0
  -21.0490  -28.2000   22.9130 C   0  0  0  0  0  3  0  0  0  0  0  0
  -21.2670  -26.8680   22.1620 C   0  0  0  0  0  2  0  0  0  0  0  0
  -20.2070  -26.5970   21.0910 C   0  0  0  0  0  2  0  0  0  0  0  0
  -18.8090  -26.5580   21.7100 C   0  0  0  0  0  2  0  0  0  0  0  0
  -19.5710  -28.5650   23.1110 C   0  0  0  0  0  0  0  0  0  0  0  0
  -19.2500  -29.7200   23.8570 C   0  0  0  0  0  3  0  0  0  0  0  0
  -17.9070  -30.0950   24.0610 C   0  0  0  0  0  3  0  0  0  0  0  0
  -16.8700  -29.3080   23.5290 C   0  0  0  0  0  3  0  0  0  0  0  0
  -17.1780  -28.1520   22.7890 C   0  0  0  0  0  3  0  0  0  0  0  0
  -25.9720  -32.6540   24.2280 C   0  0  0  0  0  3  0  0  0  0  0  0
  -26.3410  -31.9330   25.5830 C   0  0  1  0  0  0  0  0  0  0  0  0
  -25.1320  -31.7240   26.5250 C   0  0  0  0  0  1  0  0  0  0  0  0
  -26.9680  -30.5460   25.3160 C   0  0  0  0  0  1  0  0  0  0  0  0
  -27.4070  -32.7580   26.3420 C   0  0  0  0  0  1  0  0  0  0  0  0
  -25.6420  -34.0680   24.4670 N   0  0  0  0  0  0  0  0  0  0  0  0
  -26.0370  -35.0840   23.6890 C   0  0  0  0  0  0  0  0  0  0  0  0
  -26.7810  -34.9330   22.7150 O   0  0  0  0  0  0  0  0  0  0  0  0
  -24.9900  -34.2630   25.2120 H   0  0  0  0  0  0  0  0  0  0  0  0
  -24.3240  -36.8490   23.1560 C   0  0  0  0  0  1  0  0  0  0  0  0
  -25.5250  -36.4960   24.0450 C   0  0  0  0  0  3  0  0  0  0  0  0
  -27.6210  -37.4330   24.9190 C   0  0  0  0  0  1  0  0  0  0  0  0
  -26.5610  -37.5450   23.9200 N   0  0  0  0  0  0  0  0  0  0  0  0
  -26.1470  -38.4700   24.0050 H   0  0  0  0  0  0  0  0  0  0  0  0
  2  6  1  0
  2  4  1  0
  3  2  2  0
  4  1  2  0
  4 12  1  0
  5  3  1  0
  5  7  1  0
  7  1  1  0
  7 56  1  0
  8  5  2  0
  9 11  1  0
 11  3  1  0
 11 10  1  0
 12 13  1  0
 14 15  1  0
 14 16  1  0
 15 17  1  0
 16 17  1  0
 16 12  1  0
 17 26  1  0
 18 24  1  0
 18 26  1  0
 19 24  1  0
 20 21  1  0
 20 19  1  0
 22 21  1  0
 22 31  1  0
 22 23  1  0
 24 23  1  0
 25 18  2  0
 26 27  1  0
 28 29  2  0
 29 30  1  0
 29 48  1  0
 30 33  1  0
 31 28  1  0
 31 32  1  0
 32 30  2  0
 33 34  1  0
 34 35  2  0
 36 39  1  0
 36 35  1  0
 37 36  2  0
 38 37  1  0
 38 33  2  0
 39 40  1  0
 40 45  2  0
 40 41  1  0
 41 42  2  0
 42 43  1  0
 43 47  1  0
 44 43  2  0
 45 44  1  0
 46 45  1  0
 48 49  1  0
 49 52  1  0
 49 51  1  0
 50 48  2  0
 53 54  1  0
 53 28  1  0
 55 53  1  0
 57 59  1  0
 57 56  1  0
 58 69  2  0
 59 64  1  0
 60 68  1  0
 60 70  1  0
 61 67  1  0
 61 63  1  0
 62 68  1  0
 63 62  1  0
 64 63  2  0
 65 66  1  0
 65 59  2  0
 66 61  2  0
 67 60  1  0
 68 58  1  0
 70 72  2  0
 71 70  1  0
 73 71  1  0
 74 83  2  0
 74 79  1  0
 75 71  1  0
 75 79  1  0
 76 75  1  0
 77 78  1  0
 77 76  1  0
 78 74  1  0
 79 80  2  0
 80 81  1  0
 82 81  2  0
 83 82  1  0
 84 58  1  0
 84 89  1  0
 84 85  1  0
 85 88  1  1
 85 86  1  0
 87 85  1  0
 89 92  1  0
 90 94  1  0
 90 89  1  0
 91 90  2  0
 94 93  1  0
 96 97  1  0
 96 94  1  0
 96 95  1  0
M  ISO  4  18 100  26 100  56 101  57 101
M  END
>  <TORSDO>  (88) 
F 20

>  <SCORE>  (88) 
-12.769

>  <name>  (88) 
89

>  <ligand_id>  (88) 
89

>  <original_smiles>  (88) 
[H]c1c([H])c([H])c2c(c1[H])C([H])([H])C([H])([H])C([H])([H])C2([H])N([H])C(=O)C1([H])N(C(=O)C([H])(N([H])C(=O)C([H])(N([H])C([H])([H])[H])C([H])([H])[H])C(C([H])([H])[H])(C([H])([H])[H])C([H])([H])[H])C([H])([H])c2c([H])c(OC([H])([H])n3c([H])c(N([H])C4([H])C([H])([H])C([H])([H])C4([H])N([H])C(=O)N4C([H])([H])C([H])([H])C([H])([H])C([H])(n5nc(-c6c([H])c([H])c(Oc7c([H])c([H])c(F)c([H])c7F)c([H])c6[H])c(C(=O)N([H])[H])c5N([H])[H])C4([H])[H])c(C([H])([H])[H])c(C([H])(C([H])([H])[H])C([H])([H])[H])c3=O)c([H])c([H])c2C1([H])[H]

>  <smiles>  (88) 
[H]c1c([H])c([H])c2c(c1[H])C([H])([H])C([H])([H])C([H])([H])C2([H])N([H])C(=O)C1([H])N(C(=O)C([H])(N([H])C(=O)C([H])(N([H])C([H])([H])[H])C([H])([H])[H])C(C([H])([H])[H])(C([H])([H])[H])C([H])([H])[H])C([H])([H])c2c([H])c(OC([H])([H])n3c([H])c(N([H])C4([H])C([H])([H])C([H])([H])C4([H])N([H])C(=O)N4C([H])([H])C([H])([H])C([H])([H])C([H])(n5nc(-c6c([H])c([H])c(Oc7c([H])c([H])c(F)c([H])c7F)c([H])c6[H])c(C(=O)N([H])[H])c5N([H])[H])C4([H])[H])c(C([H])([H])[H])c(C([H])(C([H])([H])[H])C([H])([H])[H])c3=O)c([H])c([H])c2C1([H])[H]

$$$$
90:0:0
     RDKit          3D

 89 98  0  0  1  0  0  0  0  0999 V2000
  -29.7120  -22.6790   19.7040 C   0  0  0  0  0  3  0  0  0  0  0  0
  -27.6720  -22.3690   20.6670 C   0  0  0  0  0  2  0  0  0  0  0  0
  -28.8450  -21.6460   20.2050 C   0  0  0  0  0  0  0  0  0  0  0  0
  -28.3450  -24.6420   20.1470 C   0  0  0  0  0  0  0  0  0  0  0  0
  -29.4820  -24.0610   19.6880 N   0  0  0  0  0  0  0  0  0  0  0  0
  -27.4340  -23.7650   20.6440 N   0  0  0  0  0  0  0  0  0  0  0  0
  -30.5370  -15.1710   19.9890 C   0  0  0  0  0  0  0  0  0  0  0  0
  -30.3230  -12.7940   19.0510 C   0  0  0  0  0  2  0  0  0  0  0  0
  -29.3400  -12.6570   17.8680 C   0  0  0  0  0  2  0  0  0  0  0  0
  -27.9160  -12.4080   18.3900 C   0  0  0  0  0  2  0  0  0  0  0  0
  -27.5460  -13.3530   19.5620 C   0  0  0  0  0  3  0  0  0  0  0  0
  -28.6590  -13.4740   20.6240 C   0  0  0  0  0  2  0  0  0  0  0  0
  -29.8570  -13.9370   19.9130 N   0  0  0  0  0  0  0  0  0  0  0  0
  -31.7430  -15.0650   19.7220 O   0  0  0  0  0  0  0  0  0  0  0  0
  -28.2380  -18.7330   20.3710 C   0  0  0  0  0  2  0  0  0  0  0  0
  -30.3310  -19.2680   19.4700 C   0  0  0  0  0  2  0  0  0  0  0  0
  -28.7260  -17.1600   20.6540 C   0  0  0  0  0  2  0  0  0  0  0  0
  -30.8710  -17.7560   19.8110 C   0  0  0  0  0  2  0  0  0  0  0  0
  -29.2540  -19.9860   20.3940 C   0  0  0  0  0  3  0  0  0  0  0  0
  -29.9730  -16.5350   20.0300 N   0  0  0  0  0  0  0  0  0  0  0  0
  -25.2260  -13.8960   20.4700 C   0  0  0  0  0  0  0  0  0  0  0  0
  -24.1860  -13.1100   20.8790 C   0  0  0  0  0  0  0  0  0  0  0  0
  -24.6480  -11.7610   20.7840 C   0  0  0  0  0  0  0  0  0  0  0  0
  -26.2510  -13.0280   20.1430 N   0  0  0  0  0  0  0  0  0  0  0  0
  -25.9200  -11.7350   20.4010 N   0  0  0  0  0  0  0  0  0  0  0  0
  -23.9300  -10.4940   20.9770 C   0  0  0  0  0  0  0  0  0  0  0  0
  -24.3800   -9.5220   21.8970 C   0  0  0  0  0  3  0  0  0  0  0  0
  -23.6580   -8.3220   22.0810 C   0  0  0  0  0  3  0  0  0  0  0  0
  -22.4720   -8.0870   21.3450 C   0  0  0  0  0  0  0  0  0  0  0  0
  -22.0410   -9.0490   20.4150 C   0  0  0  0  0  3  0  0  0  0  0  0
  -22.7640  -10.2390   20.2280 C   0  0  0  0  0  3  0  0  0  0  0  0
  -21.7200   -6.9410   21.4400 O   0  0  0  0  0  0  0  0  0  0  0  0
  -21.6550   -6.2180   22.6040 C   0  0  0  0  0  0  0  0  0  0  0  0
  -21.1740   -6.7820   23.8060 C   0  0  0  0  0  3  0  0  0  0  0  0
  -21.0570   -5.9830   24.9610 C   0  0  0  0  0  3  0  0  0  0  0  0
  -21.4120   -4.6210   24.9150 C   0  0  0  0  0  0  0  0  0  0  0  0
  -21.8860   -4.0570   23.7170 C   0  0  0  0  0  3  0  0  0  0  0  0
  -22.0030   -4.8520   22.5650 C   0  0  0  0  0  0  0  0  0  0  0  0
  -22.4400   -4.2990   21.4080 F   0  0  0  0  0  0  0  0  0  0  0  0
  -21.2930   -3.8520   26.0230 F   0  0  0  0  0  0  0  0  0  0  0  0
  -22.8080  -13.5810   21.2360 C   0  0  0  0  0  0  0  0  0  0  0  0
  -22.1260  -12.8640   22.1200 N   0  0  0  0  0  0  0  0  0  0  0  0
  -22.3470  -14.6200   20.7660 O   0  0  0  0  0  0  0  0  0  0  0  0
  -22.5130  -12.0220   22.5220 H   0  0  0  0  0  0  0  0  0  0  0  0
  -21.2020  -13.1610   22.4030 H   0  0  0  0  0  0  0  0  0  0  0  0
  -25.3760  -15.2700   20.3180 N   0  0  0  0  0  0  0  0  0  0  0  0
  -24.6150  -15.9170   20.4910 H   0  0  0  0  0  0  0  0  0  0  0  0
  -26.1960  -15.7180   19.9290 H   0  0  0  0  0  0  0  0  0  0  0  0
  -28.3000  -26.1160   20.2200 O   0  0  0  0  0  0  0  0  0  0  0  0
  -24.6230  -31.8800   23.2300 C   0  0  0  0  0  0  0  0  0  0  0  0
  -27.1940  -27.0760   20.2290 C   0  0  0  0  0  0  0  0  0  0  0  0
  -23.4300  -30.4840   21.5860 C   0  0  0  0  0  3  0  0  0  0  0  0
  -24.8800  -28.8850   20.1730 C   0  0  0  0  0  0  0  0  0  0  0  0
  -25.9890  -30.7200   21.4390 C   0  0  0  0  0  2  0  0  0  0  0  0
  -26.0580  -29.3150   20.7940 C   0  0  0  0  0  0  0  0  0  0  0  0
  -27.2100  -28.4290   20.7990 C   0  0  0  0  0  3  0  0  0  0  0  0
  -25.9890  -26.7680   19.5630 C   0  0  0  0  0  3  0  0  0  0  0  0
  -24.8630  -27.6290   19.5410 C   0  0  0  0  0  3  0  0  0  0  0  0
  -23.6600  -29.7980   20.2100 C   0  0  0  0  0  2  0  0  0  0  0  0
  -24.7010  -31.0540   22.1390 N   0  0  0  0  0  0  0  0  0  0  0  0
  -23.5340  -32.1680   23.7520 O   0  0  0  0  0  0  0  0  0  0  0  0
  -22.7410  -29.4830   22.5490 C   0  0  0  0  0  0  0  0  0  0  0  0
  -21.4120  -29.3200   22.4210 N   0  0  0  0  0  0  0  0  0  0  0  0
  -23.4070  -28.8570   23.3760 O   0  0  0  0  0  0  0  0  0  0  0  0
  -20.9300  -29.8770   21.7300 H   0  0  0  0  0  0  0  0  0  0  0  0
  -18.0250  -28.1350   22.9310 C   0  0  0  0  0  0  0  0  0  0  0  0
  -20.5860  -28.3830   23.1890 C   0  0  0  0  0  3  0  0  0  0  0  0
  -20.6780  -26.9530   22.6060 C   0  0  0  0  0  2  0  0  0  0  0  0
  -19.5700  -26.6430   21.5930 C   0  0  0  0  0  2  0  0  0  0  0  0
  -18.1920  -26.7900   22.2430 C   0  0  0  0  0  2  0  0  0  0  0  0
  -19.1500  -28.8890   23.3610 C   0  0  0  0  0  0  0  0  0  0  0  0
  -18.9370  -30.1470   23.9660 C   0  0  0  0  0  3  0  0  0  0  0  0
  -17.6350  -30.6510   24.1450 C   0  0  0  0  0  3  0  0  0  0  0  0
  -16.5260  -29.8940   23.7300 C   0  0  0  0  0  3  0  0  0  0  0  0
  -16.7210  -28.6370   23.1290 C   0  0  0  0  0  3  0  0  0  0  0  0
  -25.8960  -32.5180   23.8640 C   0  0  0  0  0  3  0  0  0  0  0  0
  -25.5780  -33.9150   24.2050 N   0  0  0  0  0  0  0  0  0  0  0  0
  -25.8800  -34.9780   23.4460 C   0  0  0  0  0  0  0  0  0  0  0  0
  -26.5200  -34.8850   22.3950 O   0  0  0  0  0  0  0  0  0  0  0  0
  -25.0040  -34.0600   25.0220 H   0  0  0  0  0  0  0  0  0  0  0  0
  -24.1140  -36.7520   23.1770 C   0  0  0  0  0  1  0  0  0  0  0  0
  -25.3980  -36.3620   23.9270 C   0  0  0  0  0  3  0  0  0  0  0  0
  -27.5530  -37.2830   24.6590 C   0  0  0  0  0  1  0  0  0  0  0  0
  -26.4100  -37.4280   23.7630 N   0  0  0  0  0  0  0  0  0  0  0  0
  -25.9980  -38.3440   23.9200 H   0  0  0  0  0  0  0  0  0  0  0  0
  -26.4040  -31.7480   25.1470 C   0  0  1  0  0  0  0  0  0  0  0  0
  -25.3010  -31.5070   26.2050 C   0  0  0  0  0  1  0  0  0  0  0  0
  -26.9920  -30.3710   24.7650 C   0  0  0  0  0  1  0  0  0  0  0  0
  -27.5460  -32.5430   25.8180 C   0  0  0  0  0  1  0  0  0  0  0  0
  1  3  2  0
  3  2  1  0
  4 49  1  0
  4  6  2  0
  5  1  1  0
  5  4  2  0
  6  2  1  0
  7 20  1  0
  8 13  1  0
  9 10  1  0
  9  8  1  0
 11 10  1  0
 11 24  1  0
 11 12  1  0
 13  7  1  0
 13 12  1  0
 14  7  2  0
 15 19  1  0
 15 17  1  0
 16 18  1  0
 16 19  1  0
 18 20  1  0
 19  3  1  0
 20 17  1  0
 21 22  2  0
 22 41  1  0
 23 22  1  0
 23 26  1  0
 24 25  1  0
 24 21  1  0
 25 23  2  0
 26 27  1  0
 27 28  2  0
 29 32  1  0
 29 28  1  0
 30 29  2  0
 31 30  1  0
 31 26  2  0
 32 33  1  0
 33 34  1  0
 34 35  2  0
 36 35  1  0
 36 40  1  0
 37 36  2  0
 38 33  2  0
 38 37  1  0
 39 38  1  0
 41 42  1  0
 42 45  1  0
 42 44  1  0
 43 41  2  0
 46 21  1  0
 46 47  1  0
 48 46  1  0
 49 51  1  0
 50 61  2  0
 51 56  1  0
 52 60  1  0
 52 62  1  0
 53 59  1  0
 53 55  1  0
 54 60  1  0
 55 56  2  0
 55 54  1  0
 57 51  2  0
 58 57  1  0
 58 53  2  0
 59 52  1  0
 60 50  1  0
 62 64  2  0
 63 62  1  0
 65 63  1  0
 66 75  2  0
 66 71  1  0
 67 63  1  0
 67 71  1  0
 68 67  1  0
 69 70  1  0
 69 68  1  0
 70 66  1  0
 71 72  2  0
 72 73  1  0
 74 73  2  0
 75 74  1  0
 76 50  1  0
 76 77  1  0
 76 86  1  0
 77 80  1  0
 78 82  1  0
 78 77  1  0
 79 78  2  0
 82 81  1  0
 84 85  1  0
 84 82  1  0
 84 83  1  0
 86 89  1  1
 86 87  1  0
 88 86  1  0
M  ISO  4   4 101   7 100  20 100  49 101
M  END
>  <TORSDO>  (89) 
F 16

>  <SCORE>  (89) 
-16.138

>  <name>  (89) 
90

>  <ligand_id>  (89) 
90

>  <original_smiles>  (89) 
[H]c1nc(Oc2c([H])c([H])c3c(c2[H])C([H])([H])N(C(=O)C([H])(N([H])C(=O)C([H])(N([H])C([H])([H])[H])C([H])([H])[H])C(C([H])([H])[H])(C([H])([H])[H])C([H])([H])[H])C([H])(C(=O)N([H])C2([H])c4c([H])c([H])c([H])c([H])c4C([H])([H])C([H])([H])C2([H])[H])C3([H])[H])nc([H])c1C1([H])C([H])([H])C([H])([H])N(C(=O)N2C([H])([H])C([H])([H])C([H])([H])C([H])(n3nc(-c4c([H])c([H])c(Oc5c([H])c([H])c(F)c([H])c5F)c([H])c4[H])c(C(=O)N([H])[H])c3N([H])[H])C2([H])[H])C([H])([H])C1([H])[H]

>  <smiles>  (89) 
[H]c1nc(Oc2c([H])c([H])c3c(c2[H])C([H])([H])N(C(=O)C([H])(N([H])C(=O)C([H])(N([H])C([H])([H])[H])C([H])([H])[H])C(C([H])([H])[H])(C([H])([H])[H])C([H])([H])[H])C([H])(C(=O)N([H])C2([H])c4c([H])c([H])c([H])c([H])c4C([H])([H])C([H])([H])C2([H])[H])C3([H])[H])nc([H])c1C1([H])C([H])([H])C([H])([H])N(C(=O)N2C([H])([H])C([H])([H])C([H])([H])C([H])(n3nc(-c4c([H])c([H])c(Oc5c([H])c([H])c(F)c([H])c5F)c([H])c4[H])c(C(=O)N([H])[H])c3N([H])[H])C2([H])[H])C([H])([H])C1([H])[H]

$$$$
91:0:0
     RDKit          3D

 94104  0  0  1  0  0  0  0  0999 V2000
  -28.2030  -19.5910   18.1960 C   0  0  0  0  0  3  0  0  0  0  0  0
  -27.5620  -20.7310   17.6600 C   0  0  0  0  0  0  0  0  0  0  0  0
  -28.6420  -19.8480   19.4670 C   0  0  0  0  0  0  0  0  0  0  0  0
  -27.6270  -21.7050   18.6150 C   0  0  0  0  0  0  0  0  0  0  0  0
  -26.9020  -20.8270   16.3090 C   0  0  0  0  0  1  0  0  0  0  0  0
  -26.9870  -23.0620   18.5580 C   0  0  0  0  0  1  0  0  0  0  0  0
  -28.3870  -21.2420   19.6990 N   0  0  0  0  0  0  0  0  0  0  0  0
  -30.7960  -14.4690   20.1800 C   0  0  0  0  0  0  0  0  0  0  0  0
  -30.3940  -12.3030   19.0170 C   0  0  0  0  0  2  0  0  0  0  0  0
  -29.3910  -12.4650   17.8590 C   0  0  0  0  0  2  0  0  0  0  0  0
  -27.9490  -12.2890   18.3690 C   0  0  0  0  0  2  0  0  0  0  0  0
  -27.6700  -13.1050   19.6600 C   0  0  0  0  0  3  0  0  0  0  0  0
  -28.7990  -12.9140   20.7020 C   0  0  0  0  0  2  0  0  0  0  0  0
  -30.0450  -13.3190   20.0430 N   0  0  0  0  0  0  0  0  0  0  0  0
  -31.9640  -14.4290   19.7870 O   0  0  0  0  0  0  0  0  0  0  0  0
  -28.3580  -17.4630   20.4600 C   0  0  0  0  0  2  0  0  0  0  0  0
  -30.6080  -18.2030   19.8120 C   0  0  0  0  0  2  0  0  0  0  0  0
  -28.9810  -16.1630   21.0970 C   0  0  0  0  0  2  0  0  0  0  0  0
  -31.1570  -16.9310   20.5360 C   0  0  0  0  0  2  0  0  0  0  0  0
  -29.2630  -18.7420   20.3620 C   0  0  0  0  0  3  0  0  0  0  0  0
  -30.2630  -15.7300   20.4860 N   0  0  0  0  0  0  0  0  0  0  0  0
  -25.3270  -13.6890   20.5270 C   0  0  0  0  0  0  0  0  0  0  0  0
  -24.2770  -12.9070   20.9240 C   0  0  0  0  0  0  0  0  0  0  0  0
  -24.7290  -11.5560   20.8200 C   0  0  0  0  0  0  0  0  0  0  0  0
  -26.3530  -12.8130   20.2110 N   0  0  0  0  0  0  0  0  0  0  0  0
  -26.0020  -11.5230   20.4470 N   0  0  0  0  0  0  0  0  0  0  0  0
  -24.0060  -10.2910   20.9970 C   0  0  0  0  0  0  0  0  0  0  0  0
  -24.4410   -9.3130   21.9180 C   0  0  0  0  0  3  0  0  0  0  0  0
  -23.7170   -8.1140   22.0850 C   0  0  0  0  0  3  0  0  0  0  0  0
  -22.5430   -7.8830   21.3300 C   0  0  0  0  0  0  0  0  0  0  0  0
  -22.1260   -8.8490   20.3980 C   0  0  0  0  0  3  0  0  0  0  0  0
  -22.8510  -10.0410   20.2300 C   0  0  0  0  0  3  0  0  0  0  0  0
  -21.7890   -6.7370   21.4070 O   0  0  0  0  0  0  0  0  0  0  0  0
  -21.6920   -6.0170   22.5710 C   0  0  0  0  0  0  0  0  0  0  0  0
  -21.1610   -6.5790   23.7520 C   0  0  0  0  0  3  0  0  0  0  0  0
  -21.0150   -5.7820   24.9050 C   0  0  0  0  0  3  0  0  0  0  0  0
  -21.3910   -4.4250   24.8770 C   0  0  0  0  0  0  0  0  0  0  0  0
  -21.9140   -3.8630   23.6990 C   0  0  0  0  0  3  0  0  0  0  0  0
  -22.0620   -4.6570   22.5490 C   0  0  0  0  0  0  0  0  0  0  0  0
  -22.5470   -4.1060   21.4110 F   0  0  0  0  0  0  0  0  0  0  0  0
  -21.2430   -3.6580   25.9830 F   0  0  0  0  0  0  0  0  0  0  0  0
  -22.8990  -13.3810   21.2810 C   0  0  0  0  0  0  0  0  0  0  0  0
  -22.2170  -12.6670   22.1700 N   0  0  0  0  0  0  0  0  0  0  0  0
  -22.4380  -14.4190   20.8100 O   0  0  0  0  0  0  0  0  0  0  0  0
  -22.6050  -11.8270   22.5750 H   0  0  0  0  0  0  0  0  0  0  0  0
  -21.2940  -12.9660   22.4530 H   0  0  0  0  0  0  0  0  0  0  0  0
  -25.4860  -15.0630   20.3860 N   0  0  0  0  0  0  0  0  0  0  0  0
  -24.7240  -15.7110   20.5560 H   0  0  0  0  0  0  0  0  0  0  0  0
  -26.3140  -15.5130   20.0220 H   0  0  0  0  0  0  0  0  0  0  0  0
  -28.7090  -22.1080   20.8780 C   0  0  0  0  0  2  0  0  0  0  0  0
  -29.4850  -24.4220   21.8470 C   0  0  0  0  0  2  0  0  0  0  0  0
  -29.1060  -23.6200   20.6210 C   0  0  0  0  0  3  0  0  0  0  0  0
  -28.2980  -24.9030   21.0580 C   0  0  0  0  0  3  0  0  0  0  0  0
  -28.6010  -26.2930   20.6550 O   0  0  0  0  0  0  0  0  0  0  0  0
  -24.6500  -31.7520   23.2080 C   0  0  0  0  0  0  0  0  0  0  0  0
  -27.4990  -27.1370   20.5050 C   0  0  0  0  0  0  0  0  0  0  0  0
  -23.5790  -30.2990   21.5210 C   0  0  0  0  0  3  0  0  0  0  0  0
  -25.1390  -28.7160   20.2570 C   0  0  0  0  0  0  0  0  0  0  0  0
  -26.1210  -30.6330   21.5200 C   0  0  0  0  0  2  0  0  0  0  0  0
  -26.2560  -29.2380   20.9240 C   0  0  0  0  0  0  0  0  0  0  0  0
  -27.4440  -28.4600   21.0350 C   0  0  0  0  0  3  0  0  0  0  0  0
  -26.3670  -26.6590   19.8120 C   0  0  0  0  0  3  0  0  0  0  0  0
  -25.1970  -27.4320   19.6900 C   0  0  0  0  0  3  0  0  0  0  0  0
  -23.8990  -29.5830   20.1830 C   0  0  0  0  0  2  0  0  0  0  0  0
  -24.7990  -30.9130   22.1410 N   0  0  0  0  0  0  0  0  0  0  0  0
  -23.5290  -32.0380   23.6500 O   0  0  0  0  0  0  0  0  0  0  0  0
  -22.8490  -29.3080   22.4580 C   0  0  0  0  0  0  0  0  0  0  0  0
  -21.5230  -29.1750   22.2820 N   0  0  0  0  0  0  0  0  0  0  0  0
  -23.4750  -28.6620   23.3020 O   0  0  0  0  0  0  0  0  0  0  0  0
  -21.0800  -29.7470   21.5760 H   0  0  0  0  0  0  0  0  0  0  0  0
  -18.0780  -28.1680   22.7230 C   0  0  0  0  0  0  0  0  0  0  0  0
  -20.6440  -28.2690   23.0220 C   0  0  0  0  0  3  0  0  0  0  0  0
  -20.6680  -26.8480   22.4120 C   0  0  0  0  0  2  0  0  0  0  0  0
  -19.5590  -26.6150   21.3810 C   0  0  0  0  0  2  0  0  0  0  0  0
  -18.1820  -26.8260   22.0160 C   0  0  0  0  0  2  0  0  0  0  0  0
  -19.2350  -28.8510   23.1810 C   0  0  0  0  0  0  0  0  0  0  0  0
  -19.0840  -30.1110   23.8010 C   0  0  0  0  0  3  0  0  0  0  0  0
  -17.8100  -30.6840   23.9680 C   0  0  0  0  0  3  0  0  0  0  0  0
  -16.6680  -29.9960   23.5260 C   0  0  0  0  0  3  0  0  0  0  0  0
  -16.8010  -28.7390   22.9090 C   0  0  0  0  0  3  0  0  0  0  0  0
  -25.8800  -32.4070   23.9080 C   0  0  0  0  0  3  0  0  0  0  0  0
  -25.5270  -33.8010   24.2140 N   0  0  0  0  0  0  0  0  0  0  0  0
  -25.8680  -34.8560   23.4610 C   0  0  0  0  0  0  0  0  0  0  0  0
  -26.5820  -34.7590   22.4590 O   0  0  0  0  0  0  0  0  0  0  0  0
  -24.8960  -33.9490   24.9890 H   0  0  0  0  0  0  0  0  0  0  0  0
  -24.1100  -36.6020   23.0280 C   0  0  0  0  0  1  0  0  0  0  0  0
  -25.3320  -36.2360   23.8860 C   0  0  0  0  0  3  0  0  0  0  0  0
  -27.4080  -37.1880   24.7880 C   0  0  0  0  0  1  0  0  0  0  0  0
  -26.3420  -37.3130   23.7970 N   0  0  0  0  0  0  0  0  0  0  0  0
  -25.9080  -38.2240   23.9110 H   0  0  0  0  0  0  0  0  0  0  0  0
  -26.3270  -31.6480   25.2180 C   0  0  1  0  0  0  0  0  0  0  0  0
  -25.1710  -31.3870   26.2110 C   0  0  0  0  0  1  0  0  0  0  0  0
  -26.9660  -30.2840   24.8680 C   0  0  0  0  0  1  0  0  0  0  0  0
  -27.4130  -32.4680   25.9540 C   0  0  0  0  0  1  0  0  0  0  0  0
  1  3  2  0
  2  1  1  0
  2  4  2  0
  3  7  1  0
  4  7  1  0
  5  2  1  0
  6  4  1  0
  7 50  1  0
  8 21  1  0
  9 14  1  0
 10 11  1  0
 10  9  1  0
 12 11  1  0
 12 25  1  0
 12 13  1  0
 14  8  1  0
 14 13  1  0
 15  8  2  0
 16 18  1  0
 17 20  1  0
 17 19  1  0
 20  3  1  0
 20 16  1  0
 21 19  1  0
 21 18  1  0
 22 23  2  0
 23 42  1  0
 24 23  1  0
 24 27  1  0
 25 26  1  0
 25 22  1  0
 26 24  2  0
 27 28  1  0
 28 29  2  0
 30 33  1  0
 30 29  1  0
 31 30  2  0
 32 31  1  0
 32 27  2  0
 33 34  1  0
 34 35  1  0
 35 36  2  0
 37 36  1  0
 37 41  1  0
 38 37  2  0
 39 34  2  0
 39 38  1  0
 40 39  1  0
 42 43  1  0
 43 46  1  0
 43 45  1  0
 44 42  2  0
 47 22  1  0
 47 48  1  0
 49 47  1  0
 52 50  1  0
 52 53  1  0
 52 51  1  0
 53 54  1  0
 53 51  1  0
 55 66  2  0
 56 54  1  0
 56 61  1  0
 57 65  1  0
 57 67  1  0
 58 60  1  0
 59 65  1  0
 60 61  2  0
 60 59  1  0
 62 56  2  0
 63 62  1  0
 63 58  2  0
 64 58  1  0
 64 57  1  0
 65 55  1  0
 67 69  2  0
 68 67  1  0
 70 68  1  0
 71 80  2  0
 71 76  1  0
 72 68  1  0
 72 76  1  0
 73 72  1  0
 74 75  1  0
 74 73  1  0
 75 71  1  0
 76 77  2  0
 77 78  1  0
 79 78  2  0
 80 79  1  0
 81 55  1  0
 81 82  1  0
 81 91  1  0
 82 85  1  0
 83 87  1  0
 83 82  1  0
 84 83  2  0
 87 86  1  0
 89 87  1  0
 89 90  1  0
 89 88  1  0
 91 94  1  1
 91 92  1  0
 93 91  1  0
M  ISO  4   8 100  21 100  53 101  54 101
M  END
>  <TORSDO>  (90) 
F 18

>  <SCORE>  (90) 
-13.225

>  <name>  (90) 
91

>  <ligand_id>  (90) 
91

>  <original_smiles>  (90) 
[H]c1c([H])c([H])c2c(c1[H])C([H])([H])C([H])([H])C([H])([H])C2([H])N([H])C(=O)C1([H])N(C(=O)C([H])(N([H])C(=O)C([H])(N([H])C([H])([H])[H])C([H])([H])[H])C(C([H])([H])[H])(C([H])([H])[H])C([H])([H])[H])C([H])([H])c2c([H])c(OC3([H])C([H])([H])C3([H])C([H])([H])n3c(C([H])([H])[H])c(C([H])([H])[H])c([H])c3C3([H])C([H])([H])C([H])([H])N(C(=O)N4C([H])([H])C([H])([H])C([H])([H])C([H])(n5nc(-c6c([H])c([H])c(Oc7c([H])c([H])c(F)c([H])c7F)c([H])c6[H])c(C(=O)N([H])[H])c5N([H])[H])C4([H])[H])C([H])([H])C3([H])[H])c([H])c([H])c2C1([H])[H]

>  <smiles>  (90) 
[H]c1c([H])c([H])c2c(c1[H])C([H])([H])C([H])([H])C([H])([H])C2([H])N([H])C(=O)C1([H])N(C(=O)C([H])(N([H])C(=O)C([H])(N([H])C([H])([H])[H])C([H])([H])[H])C(C([H])([H])[H])(C([H])([H])[H])C([H])([H])[H])C([H])([H])c2c([H])c(OC3([H])C([H])([H])C3([H])C([H])([H])n3c(C([H])([H])[H])c(C([H])([H])[H])c([H])c3C3([H])C([H])([H])C([H])([H])N(C(=O)N4C([H])([H])C([H])([H])C([H])([H])C([H])(n5nc(-c6c([H])c([H])c(Oc7c([H])c([H])c(F)c([H])c7F)c([H])c6[H])c(C(=O)N([H])[H])c5N([H])[H])C4([H])[H])C([H])([H])C3([H])[H])c([H])c([H])c2C1([H])[H]

$$$$
92:0:0
     RDKit          3D

 91 99  0  0  1  0  0  0  0  0999 V2000
  -29.4260  -20.5470   19.9510 C   0  0  0  0  0  0  0  0  0  0  0  0
  -29.4350  -21.9240   20.5480 C   0  0  0  0  0  0  0  0  0  0  0  0
  -30.1030  -19.3400   20.5290 C   0  0  0  0  0  0  0  0  0  0  0  0
  -30.1200  -21.9520   21.7870 C   0  0  0  0  0  0  0  0  0  0  0  0
  -30.7580  -19.6560   21.7470 C   0  0  0  0  0  0  0  0  0  0  0  0
  -28.7080  -20.3630   18.6330 C   0  0  0  0  0  1  0  0  0  0  0  0
  -30.2890  -23.2260   22.5990 C   0  0  0  0  0  1  0  0  0  0  0  0
  -31.6680  -18.6730   22.4710 C   0  0  0  0  0  1  0  0  0  0  0  0
  -30.7200  -20.8730   22.3400 N   0  0  0  0  0  0  0  0  0  0  0  0
  -28.9690  -23.3860   19.8690 C   0  0  0  0  0  2  0  0  0  0  0  0
  -28.1520  -24.7150   20.5530 C   0  0  0  0  0  2  0  0  0  0  0  0
  -28.3410  -26.2380   20.2430 O   0  0  0  0  0  0  0  0  0  0  0  0
  -24.6340  -31.8990   23.2200 C   0  0  0  0  0  0  0  0  0  0  0  0
  -27.2570  -27.1910   20.2280 C   0  0  0  0  0  0  0  0  0  0  0  0
  -23.4420  -30.4770   21.5920 C   0  0  0  0  0  3  0  0  0  0  0  0
  -24.9050  -28.9090   20.1770 C   0  0  0  0  0  0  0  0  0  0  0  0
  -25.9920  -30.7700   21.4180 C   0  0  0  0  0  2  0  0  0  0  0  0
  -26.0780  -29.3740   20.7780 C   0  0  0  0  0  0  0  0  0  0  0  0
  -27.2570  -28.5350   20.7790 C   0  0  0  0  0  3  0  0  0  0  0  0
  -26.0540  -26.8250   19.5890 C   0  0  0  0  0  3  0  0  0  0  0  0
  -24.9050  -27.6470   19.5620 C   0  0  0  0  0  3  0  0  0  0  0  0
  -23.6690  -29.7940   20.2190 C   0  0  0  0  0  2  0  0  0  0  0  0
  -24.7090  -31.0730   22.1310 N   0  0  0  0  0  0  0  0  0  0  0  0
  -23.5470  -32.1720   23.7510 O   0  0  0  0  0  0  0  0  0  0  0  0
  -22.7790  -29.4690   22.5640 C   0  0  0  0  0  0  0  0  0  0  0  0
  -21.4590  -29.2640   22.4300 N   0  0  0  0  0  0  0  0  0  0  0  0
  -23.4560  -28.8690   23.4030 O   0  0  0  0  0  0  0  0  0  0  0  0
  -20.9630  -29.8030   21.7360 H   0  0  0  0  0  0  0  0  0  0  0  0
  -18.1090  -27.9570   22.8770 C   0  0  0  0  0  0  0  0  0  0  0  0
  -20.6490  -28.3160   23.2060 C   0  0  0  0  0  3  0  0  0  0  0  0
  -20.8180  -26.8720   22.6790 C   0  0  0  0  0  2  0  0  0  0  0  0
  -19.7590  -26.4790   21.6450 C   0  0  0  0  0  2  0  0  0  0  0  0
  -18.3520  -26.5940   22.2420 C   0  0  0  0  0  2  0  0  0  0  0  0
  -19.1890  -28.7690   23.3130 C   0  0  0  0  0  0  0  0  0  0  0  0
  -18.9070  -30.0410   23.8610 C   0  0  0  0  0  3  0  0  0  0  0  0
  -17.5820  -30.4990   23.9760 C   0  0  0  0  0  3  0  0  0  0  0  0
  -16.5170  -29.6820   23.5600 C   0  0  0  0  0  3  0  0  0  0  0  0
  -16.7820  -28.4120   23.0130 C   0  0  0  0  0  3  0  0  0  0  0  0
  -25.9110  -32.5510   23.8360 C   0  0  0  0  0  3  0  0  0  0  0  0
  -26.4310  -31.7990   25.1210 C   0  0  1  0  0  0  0  0  0  0  0  0
  -25.3350  -31.5700   26.1880 C   0  0  0  0  0  1  0  0  0  0  0  0
  -27.0230  -30.4190   24.7480 C   0  0  0  0  0  1  0  0  0  0  0  0
  -27.5760  -32.6090   25.7770 C   0  0  0  0  0  1  0  0  0  0  0  0
  -25.5920  -33.9500   24.1570 N   0  0  0  0  0  0  0  0  0  0  0  0
  -25.9190  -35.0040   23.3960 C   0  0  0  0  0  0  0  0  0  0  0  0
  -26.5910  -34.9050   22.3680 O   0  0  0  0  0  0  0  0  0  0  0  0
  -25.0110  -34.1100   24.9670 H   0  0  0  0  0  0  0  0  0  0  0  0
  -24.1900  -36.7890   23.0240 C   0  0  0  0  0  1  0  0  0  0  0  0
  -25.4190  -36.3900   23.8530 C   0  0  0  0  0  3  0  0  0  0  0  0
  -27.5430  -37.2780   24.7060 C   0  0  0  0  0  1  0  0  0  0  0  0
  -26.4470  -37.4500   23.7590 N   0  0  0  0  0  0  0  0  0  0  0  0
  -26.0310  -38.3630   23.9240 H   0  0  0  0  0  0  0  0  0  0  0  0
  -30.3800  -17.8340   19.8230 C   0  0  0  0  0  2  0  0  0  0  0  0
  -30.7170  -15.0850   20.0080 C   0  0  0  0  0  0  0  0  0  0  0  0
  -30.4600  -12.7580   18.9690 C   0  0  0  0  0  2  0  0  0  0  0  0
  -29.4470  -12.7540   17.7930 C   0  0  0  0  0  2  0  0  0  0  0  0
  -28.0100  -12.5260   18.3100 C   0  0  0  0  0  2  0  0  0  0  0  0
  -27.6960  -13.4030   19.5500 C   0  0  0  0  0  3  0  0  0  0  0  0
  -28.8360  -13.3250   20.5960 C   0  0  0  0  0  2  0  0  0  0  0  0
  -30.0620  -13.8330   19.9420 N   0  0  0  0  0  0  0  0  0  0  0  0
  -31.8590  -15.1010   19.5300 O   0  0  0  0  0  0  0  0  0  0  0  0
  -29.0360  -16.3950   21.3540 C   0  0  0  0  0  1  0  0  0  0  0  0
  -30.0800  -16.3490   20.3380 N   0  0  0  0  0  0  0  0  0  0  0  0
  -25.3690  -13.9730   20.4610 C   0  0  0  0  0  0  0  0  0  0  0  0
  -24.3250  -13.1900   20.8790 C   0  0  0  0  0  0  0  0  0  0  0  0
  -24.7750  -11.8400   20.7690 C   0  0  0  0  0  0  0  0  0  0  0  0
  -26.3880  -13.0960   20.1250 N   0  0  0  0  0  0  0  0  0  0  0  0
  -26.0430  -11.8060   20.3720 N   0  0  0  0  0  0  0  0  0  0  0  0
  -24.0500  -10.5750   20.9640 C   0  0  0  0  0  0  0  0  0  0  0  0
  -24.5010   -9.5970   21.8770 C   0  0  0  0  0  3  0  0  0  0  0  0
  -23.7770   -8.4020   22.0630 C   0  0  0  0  0  3  0  0  0  0  0  0
  -22.5820   -8.1750   21.3370 C   0  0  0  0  0  0  0  0  0  0  0  0
  -22.1480   -9.1410   20.4120 C   0  0  0  0  0  3  0  0  0  0  0  0
  -22.8750  -10.3280   20.2230 C   0  0  0  0  0  3  0  0  0  0  0  0
  -21.8260   -7.0310   21.4340 O   0  0  0  0  0  0  0  0  0  0  0  0
  -21.7670   -6.3030   22.5960 C   0  0  0  0  0  0  0  0  0  0  0  0
  -21.3090   -6.8670   23.8070 C   0  0  0  0  0  3  0  0  0  0  0  0
  -21.2000   -6.0630   24.9600 C   0  0  0  0  0  3  0  0  0  0  0  0
  -21.5370   -4.6980   24.9020 C   0  0  0  0  0  0  0  0  0  0  0  0
  -21.9880   -4.1330   23.6950 C   0  0  0  0  0  3  0  0  0  0  0  0
  -22.1000   -4.9340   22.5450 C   0  0  0  0  0  0  0  0  0  0  0  0
  -22.5130   -4.3800   21.3800 F   0  0  0  0  0  0  0  0  0  0  0  0
  -21.4250   -3.9240   26.0070 F   0  0  0  0  0  0  0  0  0  0  0  0
  -22.9510  -13.6630   21.2550 C   0  0  0  0  0  0  0  0  0  0  0  0
  -22.2690  -12.9420   22.1420 N   0  0  0  0  0  0  0  0  0  0  0  0
  -22.4890  -14.7060   20.7980 O   0  0  0  0  0  0  0  0  0  0  0  0
  -22.6490  -12.0930   22.5330 H   0  0  0  0  0  0  0  0  0  0  0  0
  -21.3470  -13.2380   22.4250 H   0  0  0  0  0  0  0  0  0  0  0  0
  -25.5220  -15.3490   20.3120 N   0  0  0  0  0  0  0  0  0  0  0  0
  -24.7570  -15.9950   20.4790 H   0  0  0  0  0  0  0  0  0  0  0  0
  -26.3440  -15.8030   19.9360 H   0  0  0  0  0  0  0  0  0  0  0  0
  1  3  2  0
  1  2  1  0
  2  4  2  0
  3  5  1  0
  4  9  1  0
  4  7  1  0
  5  9  2  0
  5  8  1  0
  6  1  1  0
 10  2  1  0
 10 11  1  0
 12 11  1  0
 13 24  2  0
 14 12  1  0
 14 19  1  0
 15 23  1  0
 15 25  1  0
 16 22  1  0
 16 18  1  0
 17 23  1  0
 18 19  2  0
 18 17  1  0
 20 14  2  0
 21 20  1  0
 21 16  2  0
 22 15  1  0
 23 13  1  0
 25 27  2  0
 26 25  1  0
 28 26  1  0
 29 38  2  0
 29 34  1  0
 30 26  1  0
 30 34  1  0
 31 30  1  0
 32 33  1  0
 32 31  1  0
 33 29  1  0
 34 35  2  0
 35 36  1  0
 37 36  2  0
 38 37  1  0
 39 13  1  0
 39 44  1  0
 39 40  1  0
 40 43  1  1
 40 41  1  0
 42 40  1  0
 44 47  1  0
 45 49  1  0
 45 44  1  0
 46 45  2  0
 49 48  1  0
 51 49  1  0
 51 52  1  0
 51 50  1  0
 53 63  1  0
 53  3  1  0
 54 63  1  0
 55 60  1  0
 56 57  1  0
 56 55  1  0
 58 57  1  0
 58 67  1  0
 58 59  1  0
 60 54  1  0
 60 59  1  0
 61 54  2  0
 63 62  1  0
 64 65  2  0
 65 84  1  0
 66 65  1  0
 66 69  1  0
 67 68  1  0
 67 64  1  0
 68 66  2  0
 69 70  1  0
 70 71  2  0
 72 75  1  0
 72 71  1  0
 73 72  2  0
 74 73  1  0
 74 69  2  0
 75 76  1  0
 76 77  1  0
 77 78  2  0
 79 78  1  0
 79 83  1  0
 80 79  2  0
 81 76  2  0
 81 80  1  0
 82 81  1  0
 84 85  1  0
 85 88  1  0
 85 87  1  0
 86 84  2  0
 89 64  1  0
 89 90  1  0
 91 89  1  0
M  ISO  4  11 101  12 101  54 100  63 100
M  END
>  <TORSDO>  (91) 
F 19

>  <SCORE>  (91) 
-14.687

>  <name>  (91) 
92

>  <ligand_id>  (91) 
92

>  <original_smiles>  (91) 
[H]c1c([H])c([H])c2c(c1[H])C([H])([H])C([H])([H])C([H])([H])C2([H])N([H])C(=O)C1([H])N(C(=O)C([H])(N([H])C(=O)C([H])(N([H])C([H])([H])[H])C([H])([H])[H])C(C([H])([H])[H])(C([H])([H])[H])C([H])([H])[H])C([H])([H])c2c([H])c(OC([H])([H])C([H])([H])c3c(C([H])([H])[H])nc(C([H])([H])[H])c(C([H])([H])N(C(=O)N4C([H])([H])C([H])([H])C([H])([H])C([H])(n5nc(-c6c([H])c([H])c(Oc7c([H])c([H])c(F)c([H])c7F)c([H])c6[H])c(C(=O)N([H])[H])c5N([H])[H])C4([H])[H])C([H])([H])[H])c3C([H])([H])[H])c([H])c([H])c2C1([H])[H]

>  <smiles>  (91) 
[H]c1c([H])c([H])c2c(c1[H])C([H])([H])C([H])([H])C([H])([H])C2([H])N([H])C(=O)C1([H])N(C(=O)C([H])(N([H])C(=O)C([H])(N([H])C([H])([H])[H])C([H])([H])[H])C(C([H])([H])[H])(C([H])([H])[H])C([H])([H])[H])C([H])([H])c2c([H])c(OC([H])([H])C([H])([H])c3c(C([H])([H])[H])nc(C([H])([H])[H])c(C([H])([H])N(C(=O)N4C([H])([H])C([H])([H])C([H])([H])C([H])(n5nc(-c6c([H])c([H])c(Oc7c([H])c([H])c(F)c([H])c7F)c([H])c6[H])c(C(=O)N([H])[H])c5N([H])[H])C4([H])[H])C([H])([H])[H])c3C([H])([H])[H])c([H])c([H])c2C1([H])[H]

$$$$
93:0:0
     RDKit          3D

101111  0  0  1  0  0  0  0  0999 V2000
  -29.4120  -22.3350   19.4190 C   0  0  0  0  0  3  0  0  0  0  0  0
  -30.6870  -24.2130   20.2320 C   0  0  0  0  0  3  0  0  0  0  0  0
  -30.3270  -21.4730   20.0550 C   0  0  0  0  0  0  0  0  0  0  0  0
  -29.5900  -23.7270   19.4970 C   0  0  0  0  0  0  0  0  0  0  0  0
  -31.3610  -22.0590   20.8110 C   0  0  0  0  0  0  0  0  0  0  0  0
  -30.1560  -19.9510   19.9290 C   0  0  0  0  0  3  0  0  0  0  0  0
  -31.7190  -19.8060   21.9110 C   0  0  0  0  0  3  0  0  0  0  0  0
  -32.3760  -21.1760   21.5340 C   0  0  2  0  0  0  0  0  0  0  0  0
  -30.6890  -19.8800   23.0660 C   0  0  0  0  0  1  0  0  0  0  0  0
  -32.9160  -21.8760   22.8090 C   0  0  0  0  0  1  0  0  0  0  0  0
  -33.5800  -20.9460   20.5940 C   0  0  0  0  0  1  0  0  0  0  0  0
  -31.5590  -23.3980   20.8580 N   0  0  0  0  0  0  0  0  0  0  0  0
  -31.1630  -19.1320   20.6920 N   0  0  1  0  0  4  0  0  0  0  0  0
  -31.9640  -19.1490   20.0790 H   0  0  0  0  0  0  0  0  0  0  0  0
  -30.5910  -14.1070   19.7730 C   0  0  0  0  0  0  0  0  0  0  0  0
  -29.9950  -12.1170   18.4320 C   0  0  0  0  0  2  0  0  0  0  0  0
  -28.9100  -12.4450   17.3870 C   0  0  0  0  0  2  0  0  0  0  0  0
  -27.5030  -12.3050   17.9980 C   0  0  0  0  0  2  0  0  0  0  0  0
  -27.3670  -13.0580   19.3460 C   0  0  0  0  0  3  0  0  0  0  0  0
  -28.5440  -12.6990   20.2840 C   0  0  0  0  0  2  0  0  0  0  0  0
  -29.8040  -13.0100   19.5860 N   0  0  0  0  0  0  0  0  0  0  0  0
  -31.5780  -14.3480   19.0710 O   0  0  0  0  0  0  0  0  0  0  0  0
  -29.4450  -17.2380   21.2510 C   0  0  0  0  0  2  0  0  0  0  0  0
  -31.9020  -16.7550   21.4870 C   0  0  0  0  0  2  0  0  0  0  0  0
  -29.1340  -15.7960   20.7970 C   0  0  0  0  0  2  0  0  0  0  0  0
  -31.3680  -15.3220   21.7640 C   0  0  0  0  0  2  0  0  0  0  0  0
  -30.8590  -17.6510   20.7690 C   0  0  0  0  0  3  0  0  0  0  0  0
  -30.3020  -14.8900   20.8410 N   0  0  0  0  0  0  0  0  0  0  0  0
  -25.0740  -13.6970   20.3300 C   0  0  0  0  0  0  0  0  0  0  0  0
  -24.0440  -12.9350   20.8140 C   0  0  0  0  0  0  0  0  0  0  0  0
  -24.4810  -11.5780   20.7220 C   0  0  0  0  0  0  0  0  0  0  0  0
  -26.0740  -12.8030   19.9780 N   0  0  0  0  0  0  0  0  0  0  0  0
  -25.7250  -11.5240   20.2670 N   0  0  0  0  0  0  0  0  0  0  0  0
  -23.7660  -10.3230   20.9860 C   0  0  0  0  0  0  0  0  0  0  0  0
  -24.2350   -9.3960   21.9420 C   0  0  0  0  0  3  0  0  0  0  0  0
  -23.5210   -8.2040   22.1940 C   0  0  0  0  0  3  0  0  0  0  0  0
  -22.3270   -7.9310   21.4870 C   0  0  0  0  0  0  0  0  0  0  0  0
  -21.8770   -8.8470   20.5200 C   0  0  0  0  0  3  0  0  0  0  0  0
  -22.5900  -10.0300   20.2660 C   0  0  0  0  0  3  0  0  0  0  0  0
  -21.5800   -6.7900   21.6460 O   0  0  0  0  0  0  0  0  0  0  0  0
  -21.5200   -6.1310   22.8470 C   0  0  0  0  0  0  0  0  0  0  0  0
  -21.0530   -6.7630   24.0210 C   0  0  0  0  0  3  0  0  0  0  0  0
  -20.9390   -6.0270   25.2180 C   0  0  0  0  0  3  0  0  0  0  0  0
  -21.2830   -4.6630   25.2420 C   0  0  0  0  0  0  0  0  0  0  0  0
  -21.7430   -4.0310   24.0740 C   0  0  0  0  0  3  0  0  0  0  0  0
  -21.8570   -4.7630   22.8800 C   0  0  0  0  0  0  0  0  0  0  0  0
  -22.2810   -4.1440   21.7510 F   0  0  0  0  0  0  0  0  0  0  0  0
  -21.1670   -3.9540   26.3900 F   0  0  0  0  0  0  0  0  0  0  0  0
  -22.6940  -13.4270   21.2500 C   0  0  0  0  0  0  0  0  0  0  0  0
  -22.0740  -12.7460   22.2070 N   0  0  0  0  0  0  0  0  0  0  0  0
  -22.2010  -14.4490   20.7740 O   0  0  0  0  0  0  0  0  0  0  0  0
  -22.4850  -11.9200   22.6150 H   0  0  0  0  0  0  0  0  0  0  0  0
  -21.1710  -13.0570   22.5370 H   0  0  0  0  0  0  0  0  0  0  0  0
  -25.2330  -15.0680   20.1410 N   0  0  0  0  0  0  0  0  0  0  0  0
  -24.4950  -15.7300   20.3500 H   0  0  0  0  0  0  0  0  0  0  0  0
  -26.0390  -15.5000   19.7100 H   0  0  0  0  0  0  0  0  0  0  0  0
  -31.3550  -19.7190   17.6270 C   0  0  0  0  0  1  0  0  0  0  0  0
  -30.0650  -19.5120   18.4380 C   0  0  0  0  0  2  0  0  0  0  0  0
  -28.6150  -24.6290   18.7450 C   0  0  0  0  0  2  0  0  0  0  0  0
  -28.8120  -26.1480   18.8980 C   0  0  0  0  0  2  0  0  0  0  0  0
  -28.3800  -26.6290   20.1710 O   0  0  0  0  0  0  0  0  0  0  0  0
  -24.5880  -31.8340   23.1890 C   0  0  0  0  0  0  0  0  0  0  0  0
  -27.1940  -27.3240   20.1860 C   0  0  0  0  0  0  0  0  0  0  0  0
  -23.3700  -30.4200   21.5650 C   0  0  0  0  0  3  0  0  0  0  0  0
  -24.8080  -28.8340   20.1820 C   0  0  0  0  0  0  0  0  0  0  0  0
  -25.8990  -30.7390   21.3780 C   0  0  0  0  0  2  0  0  0  0  0  0
  -25.9660  -29.3550   20.7710 C   0  0  0  0  0  0  0  0  0  0  0  0
  -27.1570  -28.5990   20.7880 C   0  0  0  0  0  3  0  0  0  0  0  0
  -26.0140  -26.8010   19.6120 C   0  0  0  0  0  3  0  0  0  0  0  0
  -24.8210  -27.5500   19.6110 C   0  0  0  0  0  3  0  0  0  0  0  0
  -23.5780  -29.7130   20.1990 C   0  0  0  0  0  2  0  0  0  0  0  0
  -24.6370  -31.0140   22.1010 N   0  0  0  0  0  0  0  0  0  0  0  0
  -23.5070  -32.1330   23.7180 O   0  0  0  0  0  0  0  0  0  0  0  0
  -22.7000  -29.4250   22.5390 C   0  0  0  0  0  0  0  0  0  0  0  0
  -21.3800  -29.2350   22.3850 N   0  0  0  0  0  0  0  0  0  0  0  0
  -23.3660  -28.8240   23.3870 O   0  0  0  0  0  0  0  0  0  0  0  0
  -20.9050  -29.7750   21.6740 H   0  0  0  0  0  0  0  0  0  0  0  0
  -18.0020  -28.0230   22.8070 C   0  0  0  0  0  0  0  0  0  0  0  0
  -20.5450  -28.3200   23.1630 C   0  0  0  0  0  3  0  0  0  0  0  0
  -20.6840  -26.8670   22.6490 C   0  0  0  0  0  2  0  0  0  0  0  0
  -19.6230  -26.4930   21.6100 C   0  0  0  0  0  2  0  0  0  0  0  0
  -18.2170  -26.6480   22.1970 C   0  0  0  0  0  2  0  0  0  0  0  0
  -19.0970  -28.8150   23.2460 C   0  0  0  0  0  0  0  0  0  0  0  0
  -18.8450  -30.0990   23.7760 C   0  0  0  0  0  3  0  0  0  0  0  0
  -17.5300  -30.5920   23.8710 C   0  0  0  0  0  3  0  0  0  0  0  0
  -16.4490  -29.7990   23.4480 C   0  0  0  0  0  3  0  0  0  0  0  0
  -16.6870  -28.5170   22.9220 C   0  0  0  0  0  3  0  0  0  0  0  0
  -25.8800  -32.4570   23.8040 C   0  0  0  0  0  3  0  0  0  0  0  0
  -26.4170  -31.6640   25.0580 C   0  0  1  0  0  0  0  0  0  0  0  0
  -25.3390  -31.3950   26.1340 C   0  0  0  0  0  1  0  0  0  0  0  0
  -27.0080  -30.3010   24.6300 C   0  0  0  0  0  1  0  0  0  0  0  0
  -27.5680  -32.4560   25.7240 C   0  0  0  0  0  1  0  0  0  0  0  0
  -25.5730  -33.8480   24.1590 N   0  0  0  0  0  0  0  0  0  0  0  0
  -25.8850  -34.9120   23.4050 C   0  0  0  0  0  0  0  0  0  0  0  0
  -26.5330  -34.8250   22.3590 O   0  0  0  0  0  0  0  0  0  0  0  0
  -24.9950  -33.9900   24.9740 H   0  0  0  0  0  0  0  0  0  0  0  0
  -24.1380  -36.6960   23.1130 C   0  0  0  0  0  1  0  0  0  0  0  0
  -25.4000  -36.2910   23.8900 C   0  0  0  0  0  3  0  0  0  0  0  0
  -27.5470  -37.1810   24.6860 C   0  0  0  0  0  1  0  0  0  0  0  0
  -26.4240  -37.3510   23.7670 N   0  0  0  0  0  0  0  0  0  0  0  0
  -26.0160  -38.2680   23.9310 H   0  0  0  0  0  0  0  0  0  0  0  0
  1  4  2  0
  1  3  1  0
  2 12  2  0
  3  5  2  0
  4  2  1  0
  5 12  1  0
  5  8  1  0
  6 58  1  0
  6  3  1  0
  6 13  1  0
  7  9  1  0
  8  7  1  0
  8 10  1  1
 11  8  1  0
 13 14  1  6
 13 27  1  0
 13  7  1  0
 15 28  1  0
 16 21  1  0
 17 18  1  0
 17 16  1  0
 19 18  1  0
 19 32  1  0
 19 20  1  0
 21 15  1  0
 21 20  1  0
 22 15  2  0
 24 26  1  0
 25 28  1  0
 25 23  1  0
 27 23  1  0
 27 24  1  0
 28 26  1  0
 29 30  2  0
 30 49  1  0
 31 30  1  0
 31 34  1  0
 32 33  1  0
 32 29  1  0
 33 31  2  0
 34 35  1  0
 35 36  2  0
 37 40  1  0
 37 36  1  0
 38 37  2  0
 39 38  1  0
 39 34  2  0
 40 41  1  0
 41 46  2  0
 41 42  1  0
 42 43  2  0
 43 44  1  0
 44 48  1  0
 45 44  2  0
 46 45  1  0
 47 46  1  0
 49 50  1  0
 50 53  1  0
 50 52  1  0
 51 49  2  0
 54 29  1  0
 54 55  1  0
 56 54  1  0
 57 58  1  0
 59 60  1  0
 59  4  1  0
 60 61  1  0
 61 63  1  0
 62 73  2  0
 63 68  1  0
 64 72  1  0
 64 74  1  0
 65 71  1  0
 65 67  1  0
 66 72  1  0
 67 68  2  0
 67 66  1  0
 69 63  2  0
 70 69  1  0
 70 65  2  0
 71 64  1  0
 72 62  1  0
 74 76  2  0
 75 74  1  0
 77 75  1  0
 78 87  2  0
 78 83  1  0
 79 75  1  0
 79 83  1  0
 80 79  1  0
 81 82  1  0
 81 80  1  0
 82 78  1  0
 83 84  2  0
 84 85  1  0
 86 85  2  0
 87 86  1  0
 88 62  1  0
 88 93  1  0
 88 89  1  0
 89 92  1  1
 89 90  1  0
 91 89  1  0
 93 96  1  0
 94 98  1  0
 94 93  1  0
 95 94  2  0
 98 97  1  0
100 98  1  0
100101  1  0
100 99  1  0
M  ISO  4  15 100  28 100  60 101  61 101
M  END
>  <TORSDO>  (92) 
F 19

>  <SCORE>  (92) 
-11.728

>  <name>  (92) 
93

>  <ligand_id>  (92) 
93

>  <original_smiles>  (92) 
[H]c1nc2c(c([H])c1C([H])([H])C([H])([H])Oc1c([H])c([H])c3c(c1[H])C([H])([H])N(C(=O)C([H])(N([H])C(=O)C([H])(N([H])C([H])([H])[H])C([H])([H])[H])C(C([H])([H])[H])(C([H])([H])[H])C([H])([H])[H])C([H])(C(=O)N([H])C1([H])c4c([H])c([H])c([H])c([H])c4C([H])([H])C([H])([H])C1([H])[H])C3([H])[H])C([H])(C([H])([H])C([H])([H])[H])[N+]([H])(C1([H])C([H])([H])C([H])([H])N(C(=O)N3C([H])([H])C([H])([H])C([H])([H])C([H])(n4nc(-c5c([H])c([H])c(Oc6c([H])c([H])c(F)c([H])c6F)c([H])c5[H])c(C(=O)N([H])[H])c4N([H])[H])C3([H])[H])C([H])([H])C1([H])[H])C([H])(C([H])([H])[H])C2(C([H])([H])[H])C([H])([H])[H]

>  <smiles>  (92) 
[H]c1nc2c(c([H])c1C([H])([H])C([H])([H])Oc1c([H])c([H])c3c(c1[H])C([H])([H])N(C(=O)C([H])(N([H])C(=O)C([H])(N([H])C([H])([H])[H])C([H])([H])[H])C(C([H])([H])[H])(C([H])([H])[H])C([H])([H])[H])C([H])(C(=O)N([H])C1([H])c4c([H])c([H])c([H])c([H])c4C([H])([H])C([H])([H])C1([H])[H])C3([H])[H])C([H])(C([H])([H])C([H])([H])[H])[N+]([H])(C1([H])C([H])([H])C([H])([H])N(C(=O)N3C([H])([H])C([H])([H])C([H])([H])C([H])(n4nc(-c5c([H])c([H])c(Oc6c([H])c([H])c(F)c([H])c6F)c([H])c5[H])c(C(=O)N([H])[H])c4N([H])[H])C3([H])[H])C([H])([H])C1([H])[H])C([H])(C([H])([H])[H])C2(C([H])([H])[H])C([H])([H])[H]

$$$$
94:0:0
     RDKit          3D

 94103  0  0  1  0  0  0  0  0999 V2000
  -29.2170  -23.1150   19.1990 C   0  0  0  0  0  3  0  0  0  0  0  0
  -28.5910  -23.5980   20.3830 C   0  0  0  0  0  0  0  0  0  0  0  0
  -29.5250  -21.7130   19.0030 C   0  0  0  0  0  0  0  0  0  0  0  0
  -28.3230  -22.5370   21.3120 C   0  0  0  0  0  0  0  0  0  0  0  0
  -29.2150  -20.7330   20.0090 C   0  0  0  0  0  0  0  0  0  0  0  0
  -27.6200  -22.8300   22.6270 C   0  0  0  0  0  1  0  0  0  0  0  0
  -28.6170  -21.2030   21.1330 N   0  0  0  0  0  0  0  0  0  0  0  0
  -30.8310  -14.9150   19.9130 C   0  0  0  0  0  0  0  0  0  0  0  0
  -30.4810  -12.6330   18.9370 C   0  0  0  0  0  2  0  0  0  0  0  0
  -29.4760  -12.6420   17.7700 C   0  0  0  0  0  2  0  0  0  0  0  0
  -28.0450  -12.4500   18.3010 C   0  0  0  0  0  2  0  0  0  0  0  0
  -27.7350  -13.3610   19.5190 C   0  0  0  0  0  3  0  0  0  0  0  0
  -28.8710  -13.3510   20.5670 C   0  0  0  0  0  2  0  0  0  0  0  0
  -30.0950  -13.7390   19.8580 N   0  0  0  0  0  0  0  0  0  0  0  0
  -32.0250  -14.8170   19.6120 O   0  0  0  0  0  0  0  0  0  0  0  0
  -30.8690  -18.8450   19.9180 C   0  0  0  0  0  3  0  0  0  0  0  0
  -28.7060  -18.2820   20.6560 C   0  0  0  0  0  3  0  0  0  0  0  0
  -31.1170  -17.3680   19.4130 C   0  0  0  0  0  3  0  0  0  0  0  0
  -28.9110  -16.7370   20.2560 C   0  0  0  0  0  3  0  0  0  0  0  0
  -29.4730  -19.2930   19.8910 N   0  0  0  0  0  0  0  0  0  0  0  0
  -30.2860  -16.2270   19.9480 N   0  0  0  0  0  0  0  0  0  0  0  0
  -25.4200  -13.9370   20.4430 C   0  0  0  0  0  0  0  0  0  0  0  0
  -24.3750  -13.1570   20.8560 C   0  0  0  0  0  0  0  0  0  0  0  0
  -24.8220  -11.8050   20.7440 C   0  0  0  0  0  0  0  0  0  0  0  0
  -26.4350  -13.0590   20.1030 N   0  0  0  0  0  0  0  0  0  0  0  0
  -26.0890  -11.7700   20.3500 N   0  0  0  0  0  0  0  0  0  0  0  0
  -24.0960  -10.5430   20.9340 C   0  0  0  0  0  0  0  0  0  0  0  0
  -24.5460   -9.5620   21.8450 C   0  0  0  0  0  3  0  0  0  0  0  0
  -23.8190   -8.3650   22.0250 C   0  0  0  0  0  3  0  0  0  0  0  0
  -22.6290   -8.1400   21.2940 C   0  0  0  0  0  0  0  0  0  0  0  0
  -22.1980   -9.1090   20.3690 C   0  0  0  0  0  3  0  0  0  0  0  0
  -22.9260  -10.2970   20.1880 C   0  0  0  0  0  3  0  0  0  0  0  0
  -21.8710   -6.9970   21.3860 O   0  0  0  0  0  0  0  0  0  0  0  0
  -21.8010   -6.2710   22.5480 C   0  0  0  0  0  0  0  0  0  0  0  0
  -21.3160   -6.8340   23.7500 C   0  0  0  0  0  3  0  0  0  0  0  0
  -21.1970   -6.0330   24.9030 C   0  0  0  0  0  3  0  0  0  0  0  0
  -21.5510   -4.6700   24.8550 C   0  0  0  0  0  0  0  0  0  0  0  0
  -22.0280   -4.1090   23.6580 C   0  0  0  0  0  3  0  0  0  0  0  0
  -22.1500   -4.9060   22.5070 C   0  0  0  0  0  0  0  0  0  0  0  0
  -22.5900   -4.3550   21.3510 F   0  0  0  0  0  0  0  0  0  0  0  0
  -21.4280   -3.8990   25.9600 F   0  0  0  0  0  0  0  0  0  0  0  0
  -23.0030  -13.6360   21.2330 C   0  0  0  0  0  0  0  0  0  0  0  0
  -22.3260  -12.9180   22.1210 N   0  0  0  0  0  0  0  0  0  0  0  0
  -22.5450  -14.6830   20.7770 O   0  0  0  0  0  0  0  0  0  0  0  0
  -22.7100  -12.0700   22.5110 H   0  0  0  0  0  0  0  0  0  0  0  0
  -21.4090  -13.2210   22.4170 H   0  0  0  0  0  0  0  0  0  0  0  0
  -25.5830  -15.3110   20.3010 N   0  0  0  0  0  0  0  0  0  0  0  0
  -24.8290  -15.9630   20.4870 H   0  0  0  0  0  0  0  0  0  0  0  0
  -26.4040  -15.7530   19.9090 H   0  0  0  0  0  0  0  0  0  0  0  0
  -31.4700  -21.9880   17.3840 C   0  0  0  0  0  1  0  0  0  0  0  0
  -29.1320  -21.5140   16.5090 C   0  0  0  0  0  1  0  0  0  0  0  0
  -30.1270  -21.2920   17.6590 C   0  0  0  0  0  3  0  0  0  0  0  0
  -28.0820  -25.1020   20.6940 C   0  0  0  0  0  2  0  0  0  0  0  0
  -28.3780  -26.3790   19.9430 O   0  0  0  0  0  0  0  0  0  0  0  0
  -24.6180  -31.7880   23.0960 C   0  0  0  0  0  0  0  0  0  0  0  0
  -27.3160  -27.3180   19.9250 C   0  0  0  0  0  0  0  0  0  0  0  0
  -23.4510  -30.4150   21.4120 C   0  0  0  0  0  3  0  0  0  0  0  0
  -24.9390  -28.9350   19.9400 C   0  0  0  0  0  0  0  0  0  0  0  0
  -25.9900  -30.7730   21.2530 C   0  0  0  0  0  2  0  0  0  0  0  0
  -26.1000  -29.4120   20.5630 C   0  0  0  0  0  0  0  0  0  0  0  0
  -27.2970  -28.6160   20.5440 C   0  0  0  0  0  3  0  0  0  0  0  0
  -26.1370  -26.9250   19.2590 C   0  0  0  0  0  3  0  0  0  0  0  0
  -24.9620  -27.7010   19.2750 C   0  0  0  0  0  3  0  0  0  0  0  0
  -23.6850  -29.7870   20.0130 C   0  0  0  0  0  2  0  0  0  0  0  0
  -24.7050  -31.0090   21.9770 N   0  0  0  0  0  0  0  0  0  0  0  0
  -23.5260  -32.0270   23.6330 O   0  0  0  0  0  0  0  0  0  0  0  0
  -22.8030  -29.3570   22.3390 C   0  0  0  0  0  0  0  0  0  0  0  0
  -21.4800  -29.1570   22.2030 N   0  0  0  0  0  0  0  0  0  0  0  0
  -23.4900  -28.7210   23.1420 O   0  0  0  0  0  0  0  0  0  0  0  0
  -20.9820  -29.7220   21.5300 H   0  0  0  0  0  0  0  0  0  0  0  0
  -18.1220  -27.8930   22.6800 C   0  0  0  0  0  0  0  0  0  0  0  0
  -20.6780  -28.1810   22.9440 C   0  0  0  0  0  3  0  0  0  0  0  0
  -20.7980  -26.7730   22.3170 C   0  0  0  0  0  2  0  0  0  0  0  0
  -19.6930  -26.4710   21.2980 C   0  0  0  0  0  2  0  0  0  0  0  0
  -18.3140  -26.5720   21.9550 C   0  0  0  0  0  2  0  0  0  0  0  0
  -19.2320  -28.6550   23.1320 C   0  0  0  0  0  0  0  0  0  0  0  0
  -18.9980  -29.8910   23.7730 C   0  0  0  0  0  3  0  0  0  0  0  0
  -17.6870  -30.3650   23.9650 C   0  0  0  0  0  3  0  0  0  0  0  0
  -16.5920  -29.6000   23.5290 C   0  0  0  0  0  3  0  0  0  0  0  0
  -16.8100  -28.3650   22.8930 C   0  0  0  0  0  3  0  0  0  0  0  0
  -25.8830  -32.4300   23.7420 C   0  0  0  0  0  3  0  0  0  0  0  0
  -25.5440  -33.8150   24.1010 N   0  0  0  0  0  0  0  0  0  0  0  0
  -25.8610  -34.8920   23.3690 C   0  0  0  0  0  0  0  0  0  0  0  0
  -26.5380  -34.8250   22.3390 O   0  0  0  0  0  0  0  0  0  0  0  0
  -24.9410  -33.9400   24.9010 H   0  0  0  0  0  0  0  0  0  0  0  0
  -24.1070  -36.6670   23.0450 C   0  0  0  0  0  1  0  0  0  0  0  0
  -25.3480  -36.2610   23.8560 C   0  0  0  0  0  3  0  0  0  0  0  0
  -27.4560  -37.1640   24.7350 C   0  0  0  0  0  1  0  0  0  0  0  0
  -26.3640  -37.3330   23.7800 N   0  0  0  0  0  0  0  0  0  0  0  0
  -25.9410  -38.2440   23.9390 H   0  0  0  0  0  0  0  0  0  0  0  0
  -26.4010  -31.6420   25.0080 C   0  0  1  0  0  0  0  0  0  0  0  0
  -25.3030  -31.3640   26.0610 C   0  0  0  0  0  1  0  0  0  0  0  0
  -27.0110  -30.2820   24.5970 C   0  0  0  0  0  1  0  0  0  0  0  0
  -27.5330  -32.4420   25.6950 C   0  0  0  0  0  1  0  0  0  0  0  0
  1  2  1  0
  2 53  1  0
  2  4  2  0
  3  1  2  0
  3  5  1  0
  4  6  1  0
  5  7  2  0
  7  4  1  0
  8 21  1  0
  9 14  1  0
 10 11  1  0
 10  9  1  0
 12 11  1  0
 12 25  1  0
 12 13  1  0
 14  8  1  0
 14 13  1  0
 15  8  2  0
 18 16  2  0
 18 21  1  0
 19 17  2  0
 20 16  1  0
 20  5  1  0
 20 17  1  0
 21 19  1  0
 22 23  2  0
 23 42  1  0
 24 23  1  0
 24 27  1  0
 25 26  1  0
 25 22  1  0
 26 24  2  0
 27 28  1  0
 28 29  2  0
 30 33  1  0
 30 29  1  0
 31 30  2  0
 32 31  1  0
 32 27  2  0
 33 34  1  0
 34 35  1  0
 35 36  2  0
 37 36  1  0
 37 41  1  0
 38 37  2  0
 39 34  2  0
 39 38  1  0
 40 39  1  0
 42 43  1  0
 43 46  1  0
 43 45  1  0
 44 42  2  0
 47 22  1  0
 47 48  1  0
 49 47  1  0
 50 52  1  0
 51 52  1  0
 52  3  1  0
 54 53  1  0
 55 66  2  0
 56 54  1  0
 56 61  1  0
 57 65  1  0
 57 67  1  0
 58 64  1  0
 58 60  1  0
 59 65  1  0
 60 59  1  0
 61 60  2  0
 62 63  1  0
 62 56  2  0
 63 58  2  0
 64 57  1  0
 65 55  1  0
 67 69  2  0
 68 67  1  0
 70 68  1  0
 71 80  2  0
 71 76  1  0
 72 68  1  0
 72 76  1  0
 73 72  1  0
 74 75  1  0
 74 73  1  0
 75 71  1  0
 76 77  2  0
 77 78  1  0
 79 78  2  0
 80 79  1  0
 81 55  1  0
 81 82  1  0
 81 91  1  0
 82 85  1  0
 83 87  1  0
 83 82  1  0
 84 83  2  0
 87 86  1  0
 89 87  1  0
 89 90  1  0
 89 88  1  0
 91 94  1  1
 91 92  1  0
 93 91  1  0
M  ISO  4   8 100  21 100  53 101  54 101
M  END
>  <TORSDO>  (93) 
F 18

>  <SCORE>  (93) 
-13.524

>  <name>  (93) 
94

>  <ligand_id>  (93) 
94

>  <original_smiles>  (93) 
[H]c1c([H])c([H])c2c(c1[H])C([H])([H])C([H])([H])C([H])([H])C2([H])N([H])C(=O)C1([H])N(C(=O)C([H])(N([H])C(=O)C([H])(N([H])C([H])([H])[H])C([H])([H])[H])C(C([H])([H])[H])(C([H])([H])[H])C([H])([H])[H])C([H])([H])c2c([H])c(OC([H])([H])c3c(C([H])([H])[H])nc(N4C([H])([H])C([H])([H])N(C(=O)N5C([H])([H])C([H])([H])C([H])([H])C([H])(n6nc(-c7c([H])c([H])c(Oc8c([H])c([H])c(F)c([H])c8F)c([H])c7[H])c(C(=O)N([H])[H])c6N([H])[H])C5([H])[H])C([H])([H])C4([H])[H])c(C([H])(C([H])([H])[H])C([H])([H])[H])c3[H])c([H])c([H])c2C1([H])[H]

>  <smiles>  (93) 
[H]c1c([H])c([H])c2c(c1[H])C([H])([H])C([H])([H])C([H])([H])C2([H])N([H])C(=O)C1([H])N(C(=O)C([H])(N([H])C(=O)C([H])(N([H])C([H])([H])[H])C([H])([H])[H])C(C([H])([H])[H])(C([H])([H])[H])C([H])([H])[H])C([H])([H])c2c([H])c(OC([H])([H])c3c(C([H])([H])[H])nc(N4C([H])([H])C([H])([H])N(C(=O)N5C([H])([H])C([H])([H])C([H])([H])C([H])(n6nc(-c7c([H])c([H])c(Oc8c([H])c([H])c(F)c([H])c8F)c([H])c7[H])c(C(=O)N([H])[H])c6N([H])[H])C5([H])[H])C([H])([H])C4([H])[H])c(C([H])(C([H])([H])[H])C([H])([H])[H])c3[H])c([H])c([H])c2C1([H])[H]

$$$$
95:0:0
     RDKit          3D

 97106  0  0  1  0  0  0  0  0999 V2000
  -29.9550  -23.8430   21.0990 C   0  0  0  0  0  0  0  0  0  0  0  0
  -29.9520  -22.9010   20.0410 C   0  0  0  0  0  0  0  0  0  0  0  0
  -29.8580  -23.2910   22.3870 C   0  0  0  0  0  0  0  0  0  0  0  0
  -29.8450  -21.1690   21.5370 C   0  0  0  0  0  0  0  0  0  0  0  0
  -29.8810  -21.5690   20.2750 N   0  0  0  0  0  0  0  0  0  0  0  0
  -29.8090  -21.9580   22.5940 N   0  0  0  0  0  0  0  0  0  0  0  0
  -29.9010  -19.8180   21.8340 N   0  0  0  0  0  0  0  0  0  0  0  0
  -29.8630  -19.6160   22.8240 H   0  0  0  0  0  0  0  0  0  0  0  0
  -31.0570  -14.5410   20.1150 C   0  0  0  0  0  0  0  0  0  0  0  0
  -30.6800  -12.3870   18.9570 C   0  0  0  0  0  2  0  0  0  0  0  0
  -29.6970  -12.5740   17.7810 C   0  0  0  0  0  2  0  0  0  0  0  0
  -28.2340  -12.4480   18.2570 C   0  0  0  0  0  2  0  0  0  0  0  0
  -27.9500  -13.2780   19.5390 C   0  0  0  0  0  3  0  0  0  0  0  0
  -29.0450  -13.0080   20.5980 C   0  0  0  0  0  2  0  0  0  0  0  0
  -30.3210  -13.3900   19.9820 N   0  0  0  0  0  0  0  0  0  0  0  0
  -32.2470  -14.5280   19.7840 O   0  0  0  0  0  0  0  0  0  0  0  0
  -29.2250  -17.4450   21.6710 C   0  0  0  0  0  2  0  0  0  0  0  0
  -31.1760  -18.2060   20.3800 C   0  0  0  0  0  2  0  0  0  0  0  0
  -29.1400  -16.1760   20.7910 C   0  0  0  0  0  2  0  0  0  0  0  0
  -31.0250  -16.9500   19.4840 C   0  0  0  0  0  2  0  0  0  0  0  0
  -29.8170  -18.6610   20.9350 C   0  0  0  0  0  3  0  0  0  0  0  0
  -30.4280  -15.7740   20.1790 N   0  0  0  0  0  0  0  0  0  0  0  0
  -25.5930  -13.9450   20.3200 C   0  0  0  0  0  0  0  0  0  0  0  0
  -24.5140  -13.1980   20.7050 C   0  0  0  0  0  0  0  0  0  0  0  0
  -24.9370  -11.8350   20.6430 C   0  0  0  0  0  0  0  0  0  0  0  0
  -26.6070  -13.0380   20.0530 N   0  0  0  0  0  0  0  0  0  0  0  0
  -26.2180  -11.7630   20.3050 N   0  0  0  0  0  0  0  0  0  0  0  0
  -24.1840  -10.5900   20.8330 C   0  0  0  0  0  0  0  0  0  0  0  0
  -24.5870   -9.6210   21.7780 C   0  0  0  0  0  3  0  0  0  0  0  0
  -23.8370   -8.4390   21.9540 C   0  0  0  0  0  3  0  0  0  0  0  0
  -22.6690   -8.2200   21.1850 C   0  0  0  0  0  0  0  0  0  0  0  0
  -22.2860   -9.1770   20.2290 C   0  0  0  0  0  3  0  0  0  0  0  0
  -23.0370  -10.3500   20.0510 C   0  0  0  0  0  3  0  0  0  0  0  0
  -21.8910   -7.0920   21.2740 O   0  0  0  0  0  0  0  0  0  0  0  0
  -21.7640   -6.3940   22.4480 C   0  0  0  0  0  0  0  0  0  0  0  0
  -21.2920   -7.0050   23.6310 C   0  0  0  0  0  3  0  0  0  0  0  0
  -21.1090   -6.2330   24.7950 C   0  0  0  0  0  3  0  0  0  0  0  0
  -21.3910   -4.8540   24.7790 C   0  0  0  0  0  0  0  0  0  0  0  0
  -21.8580   -4.2450   23.6020 C   0  0  0  0  0  3  0  0  0  0  0  0
  -22.0400   -5.0130   22.4380 C   0  0  0  0  0  0  0  0  0  0  0  0
  -22.4690   -4.4160   21.2990 F   0  0  0  0  0  0  0  0  0  0  0  0
  -21.2100   -4.1100   25.8970 F   0  0  0  0  0  0  0  0  0  0  0  0
  -23.1360  -13.7090   21.0180 C   0  0  0  0  0  0  0  0  0  0  0  0
  -22.4170  -13.0290   21.9050 N   0  0  0  0  0  0  0  0  0  0  0  0
  -22.7070  -14.7430   20.5090 O   0  0  0  0  0  0  0  0  0  0  0  0
  -22.7790  -12.1900   22.3370 H   0  0  0  0  0  0  0  0  0  0  0  0
  -21.4950  -13.3520   22.1590 H   0  0  0  0  0  0  0  0  0  0  0  0
  -25.7850  -15.3130   20.1550 N   0  0  0  0  0  0  0  0  0  0  0  0
  -25.0400  -15.9810   20.3120 H   0  0  0  0  0  0  0  0  0  0  0  0
  -26.6380  -15.7390   19.8190 H   0  0  0  0  0  0  0  0  0  0  0  0
  -28.6580  -23.6960   18.0110 C   0  0  0  0  0  1  0  0  0  0  0  0
  -30.0270  -23.2980   18.5750 C   0  0  0  0  0  2  0  0  0  0  0  0
  -29.8350  -23.5430   24.7810 C   0  0  0  0  0  1  0  0  0  0  0  0
  -29.8620  -24.1290   23.4820 O   0  0  0  0  0  0  0  0  0  0  0  0
  -30.2040  -25.3570   20.9280 C   0  0  0  0  0  2  0  0  0  0  0  0
  -29.0060  -26.3240   21.1250 C   0  0  0  0  0  2  0  0  0  0  0  0
  -28.3240  -26.5710   19.8980 O   0  0  0  0  0  0  0  0  0  0  0  0
  -24.5350  -31.7330   23.1290 C   0  0  0  0  0  0  0  0  0  0  0  0
  -27.1920  -27.3540   19.9720 C   0  0  0  0  0  0  0  0  0  0  0  0
  -23.3270  -30.3460   21.4740 C   0  0  0  0  0  3  0  0  0  0  0  0
  -24.7860  -28.8410   20.0150 C   0  0  0  0  0  0  0  0  0  0  0  0
  -25.8480  -30.7260   21.2660 C   0  0  0  0  0  2  0  0  0  0  0  0
  -25.9410  -29.3620   20.6130 C   0  0  0  0  0  0  0  0  0  0  0  0
  -27.1470  -28.6230   20.6010 C   0  0  0  0  0  3  0  0  0  0  0  0
  -26.0270  -26.8560   19.3570 C   0  0  0  0  0  3  0  0  0  0  0  0
  -24.8220  -27.5860   19.3850 C   0  0  0  0  0  3  0  0  0  0  0  0
  -23.5330  -29.6880   20.0820 C   0  0  0  0  0  2  0  0  0  0  0  0
  -24.5880  -30.9500   22.0150 N   0  0  0  0  0  0  0  0  0  0  0  0
  -23.4560  -31.9880   23.6830 O   0  0  0  0  0  0  0  0  0  0  0  0
  -22.6910  -29.3060   22.4230 C   0  0  0  0  0  0  0  0  0  0  0  0
  -21.3680  -29.1100   22.2960 N   0  0  0  0  0  0  0  0  0  0  0  0
  -23.3840  -28.6780   23.2270 O   0  0  0  0  0  0  0  0  0  0  0  0
  -20.8700  -29.6690   21.6170 H   0  0  0  0  0  0  0  0  0  0  0  0
  -18.0120  -27.8590   22.7710 C   0  0  0  0  0  0  0  0  0  0  0  0
  -20.5640  -28.1530   23.0560 C   0  0  0  0  0  3  0  0  0  0  0  0
  -20.6920  -26.7290   22.4670 C   0  0  0  0  0  2  0  0  0  0  0  0
  -19.5990  -26.3970   21.4460 C   0  0  0  0  0  2  0  0  0  0  0  0
  -18.2130  -26.5170   22.0850 C   0  0  0  0  0  2  0  0  0  0  0  0
  -19.1170  -28.6340   23.2120 C   0  0  0  0  0  0  0  0  0  0  0  0
  -18.8770  -29.8890   23.8110 C   0  0  0  0  0  3  0  0  0  0  0  0
  -17.5640  -30.3690   23.9740 C   0  0  0  0  0  3  0  0  0  0  0  0
  -16.4730  -29.5920   23.5510 C   0  0  0  0  0  3  0  0  0  0  0  0
  -16.6980  -28.3370   22.9550 C   0  0  0  0  0  3  0  0  0  0  0  0
  -25.8210  -32.3630   23.7500 C   0  0  0  0  0  3  0  0  0  0  0  0
  -26.3670  -31.5620   24.9950 C   0  0  1  0  0  0  0  0  0  0  0  0
  -25.2930  -31.2830   26.0730 C   0  0  0  0  0  1  0  0  0  0  0  0
  -26.9590  -30.2040   24.5540 C   0  0  0  0  0  1  0  0  0  0  0  0
  -27.5190  -32.3520   25.6610 C   0  0  0  0  0  1  0  0  0  0  0  0
  -25.5010  -33.7480   24.1190 N   0  0  0  0  0  0  0  0  0  0  0  0
  -25.8110  -34.8220   23.3810 C   0  0  0  0  0  0  0  0  0  0  0  0
  -26.4680  -34.7520   22.3380 O   0  0  0  0  0  0  0  0  0  0  0  0
  -24.9150  -33.8750   24.9310 H   0  0  0  0  0  0  0  0  0  0  0  0
  -24.0530  -36.5980   23.0950 C   0  0  0  0  0  1  0  0  0  0  0  0
  -25.3120  -36.1930   23.8780 C   0  0  0  0  0  3  0  0  0  0  0  0
  -27.4480  -37.0850   24.6960 C   0  0  0  0  0  1  0  0  0  0  0  0
  -26.3290  -37.2610   23.7740 N   0  0  0  0  0  0  0  0  0  0  0  0
  -25.9150  -38.1720   23.9510 H   0  0  0  0  0  0  0  0  0  0  0  0
  1  3  1  0
  2  5  1  0
  2  1  2  0
  3  6  2  0
  3 54  1  0
  4  7  1  0
  4  6  1  0
  5  4  2  0
  7  8  1  0
  9 22  1  0
 10 15  1  0
 11 12  1  0
 11 10  1  0
 13 12  1  0
 13 26  1  0
 13 14  1  0
 15  9  1  0
 15 14  1  0
 16  9  2  0
 18 21  1  0
 19 17  1  0
 20 22  1  0
 20 18  1  0
 21 17  1  0
 21  7  1  0
 22 19  1  0
 23 24  2  0
 24 43  1  0
 25 24  1  0
 25 28  1  0
 26 27  1  0
 26 23  1  0
 27 25  2  0
 28 29  1  0
 29 30  2  0
 31 34  1  0
 31 30  1  0
 32 31  2  0
 33 32  1  0
 33 28  2  0
 34 35  1  0
 35 36  1  0
 36 37  2  0
 38 37  1  0
 38 42  1  0
 39 38  2  0
 40 35  2  0
 40 39  1  0
 41 40  1  0
 43 44  1  0
 44 47  1  0
 44 46  1  0
 45 43  2  0
 48 49  1  0
 48 23  1  0
 50 48  1  0
 51 52  1  0
 52  2  1  0
 54 53  1  0
 55  1  1  0
 55 56  1  0
 57 59  1  0
 57 56  1  0
 58 69  2  0
 59 64  1  0
 60 68  1  0
 60 70  1  0
 61 67  1  0
 61 63  1  0
 62 68  1  0
 63 62  1  0
 64 63  2  0
 65 66  1  0
 65 59  2  0
 66 61  2  0
 67 60  1  0
 68 58  1  0
 70 72  2  0
 71 70  1  0
 73 71  1  0
 74 83  2  0
 74 79  1  0
 75 71  1  0
 75 79  1  0
 76 75  1  0
 77 78  1  0
 77 76  1  0
 78 74  1  0
 79 80  2  0
 80 81  1  0
 82 81  2  0
 83 82  1  0
 84 58  1  0
 84 89  1  0
 84 85  1  0
 85 88  1  1
 85 86  1  0
 87 85  1  0
 89 92  1  0
 90 94  1  0
 90 89  1  0
 91 90  2  0
 94 93  1  0
 96 94  1  0
 96 97  1  0
 96 95  1  0
M  ISO  4   9 100  22 100  56 101  57 101
M  END
>  <TORSDO>  (94) 
F 20

>  <SCORE>  (94) 
-12.561

>  <name>  (94) 
95

>  <ligand_id>  (94) 
95

>  <original_smiles>  (94) 
[H]c1c([H])c([H])c2c(c1[H])C([H])([H])C([H])([H])C([H])([H])C2([H])N([H])C(=O)C1([H])N(C(=O)C([H])(N([H])C(=O)C([H])(N([H])C([H])([H])[H])C([H])([H])[H])C(C([H])([H])[H])(C([H])([H])[H])C([H])([H])[H])C([H])([H])c2c([H])c(OC([H])([H])C([H])([H])c3c(OC([H])([H])[H])nc(N([H])C4([H])C([H])([H])C([H])([H])N(C(=O)N5C([H])([H])C([H])([H])C([H])([H])C([H])(n6nc(-c7c([H])c([H])c(Oc8c([H])c([H])c(F)c([H])c8F)c([H])c7[H])c(C(=O)N([H])[H])c6N([H])[H])C5([H])[H])C([H])([H])C4([H])[H])nc3C([H])([H])C([H])([H])[H])c([H])c([H])c2C1([H])[H]

>  <smiles>  (94) 
[H]c1c([H])c([H])c2c(c1[H])C([H])([H])C([H])([H])C([H])([H])C2([H])N([H])C(=O)C1([H])N(C(=O)C([H])(N([H])C(=O)C([H])(N([H])C([H])([H])[H])C([H])([H])[H])C(C([H])([H])[H])(C([H])([H])[H])C([H])([H])[H])C([H])([H])c2c([H])c(OC([H])([H])C([H])([H])c3c(OC([H])([H])[H])nc(N([H])C4([H])C([H])([H])C([H])([H])N(C(=O)N5C([H])([H])C([H])([H])C([H])([H])C([H])(n6nc(-c7c([H])c([H])c(Oc8c([H])c([H])c(F)c([H])c8F)c([H])c7[H])c(C(=O)N([H])[H])c6N([H])[H])C5([H])[H])C([H])([H])C4([H])[H])nc3C([H])([H])C([H])([H])[H])c([H])c([H])c2C1([H])[H]

$$$$
96:0:0
     RDKit          3D

 96105  0  0  1  0  0  0  0  0999 V2000
  -29.3880  -21.2110   20.7690 C   0  0  0  0  0  0  0  0  0  0  0  0
  -28.3180  -21.0790   19.9090 C   0  0  0  0  0  0  0  0  0  0  0  0
  -30.1040  -19.9990   21.1330 C   0  0  0  0  0  0  0  0  0  0  0  0
  -27.9530  -19.7940   19.4320 C   0  0  0  0  0  0  0  0  0  0  0  0
  -29.6830  -18.7090   20.6080 C   0  0  0  0  0  0  0  0  0  0  0  0
  -27.7110  -22.4450   19.5710 C   0  0  0  0  0  2  0  0  0  0  0  0
  -29.5920  -22.7420   21.1040 C   0  0  1  0  0  0  0  0  0  0  0  0
  -28.2590  -23.5460   20.5770 C   0  0  2  0  0  0  0  0  0  0  0  0
  -31.3070  -20.0610   22.0660 C   0  0  0  0  0  1  0  0  0  0  0  0
  -26.8190  -19.5990   18.4430 C   0  0  0  0  0  1  0  0  0  0  0  0
  -29.8800  -22.9710   22.6060 C   0  0  0  0  0  1  0  0  0  0  0  0
  -30.8420  -23.2160   20.3280 C   0  0  0  0  0  1  0  0  0  0  0  0
  -28.6120  -18.6500   19.7780 N   0  0  0  0  0  0  0  0  0  0  0  0
  -25.7370  -23.9220   21.4240 C   0  0  0  0  0  1  0  0  0  0  0  0
  -27.2280  -23.7020   21.7530 C   0  0  0  0  0  2  0  0  0  0  0  0
  -30.4660  -17.3400   20.8830 C   0  0  0  0  0  2  0  0  0  0  0  0
  -30.6320  -14.7970   20.3290 C   0  0  0  0  0  0  0  0  0  0  0  0
  -30.4080  -12.5420   19.2620 C   0  0  0  0  0  2  0  0  0  0  0  0
  -29.4620  -12.6120   18.0440 C   0  0  0  0  0  2  0  0  0  0  0  0
  -27.9970  -12.4310   18.4850 C   0  0  0  0  0  2  0  0  0  0  0  0
  -27.6290  -13.3190   19.7040 C   0  0  0  0  0  3  0  0  0  0  0  0
  -28.6930  -13.2240   20.8180 C   0  0  0  0  0  2  0  0  0  0  0  0
  -29.9820  -13.5880   20.2200 N   0  0  0  0  0  0  0  0  0  0  0  0
  -31.8200  -14.8780   20.0030 O   0  0  0  0  0  0  0  0  0  0  0  0
  -29.9100  -15.9430   20.6340 N   0  0  0  0  0  0  0  0  0  0  0  0
  -28.9160  -15.8450   20.7770 H   0  0  0  0  0  0  0  0  0  0  0  0
  -25.2430  -13.9040   20.4360 C   0  0  0  0  0  0  0  0  0  0  0  0
  -24.1830  -13.1290   20.8160 C   0  0  0  0  0  0  0  0  0  0  0  0
  -24.6520  -11.7790   20.7930 C   0  0  0  0  0  0  0  0  0  0  0  0
  -26.2900  -13.0270   20.2020 N   0  0  0  0  0  0  0  0  0  0  0  0
  -25.9420  -11.7450   20.4830 N   0  0  0  0  0  0  0  0  0  0  0  0
  -23.9320  -10.5150   20.9940 C   0  0  0  0  0  0  0  0  0  0  0  0
  -24.3700   -9.5550   21.9330 C   0  0  0  0  0  3  0  0  0  0  0  0
  -23.6490   -8.3550   22.1190 C   0  0  0  0  0  3  0  0  0  0  0  0
  -22.4760   -8.1080   21.3680 C   0  0  0  0  0  0  0  0  0  0  0  0
  -22.0590   -9.0570   20.4170 C   0  0  0  0  0  3  0  0  0  0  0  0
  -22.7810  -10.2470   20.2290 C   0  0  0  0  0  3  0  0  0  0  0  0
  -21.7260   -6.9620   21.4630 O   0  0  0  0  0  0  0  0  0  0  0  0
  -21.6780   -6.2280   22.6220 C   0  0  0  0  0  0  0  0  0  0  0  0
  -21.2360   -6.7860   23.8410 C   0  0  0  0  0  3  0  0  0  0  0  0
  -21.1360   -5.9770   24.9900 C   0  0  0  0  0  3  0  0  0  0  0  0
  -21.4700   -4.6120   24.9230 C   0  0  0  0  0  0  0  0  0  0  0  0
  -21.9080   -4.0530   23.7090 C   0  0  0  0  0  3  0  0  0  0  0  0
  -22.0090   -4.8590   22.5610 C   0  0  0  0  0  0  0  0  0  0  0  0
  -22.4090   -4.3100   21.3890 F   0  0  0  0  0  0  0  0  0  0  0  0
  -21.3690   -3.8330   26.0250 F   0  0  0  0  0  0  0  0  0  0  0  0
  -22.7830  -13.6000   21.0860 C   0  0  0  0  0  0  0  0  0  0  0  0
  -22.0600  -12.9080   21.9590 N   0  0  0  0  0  0  0  0  0  0  0  0
  -22.3410  -14.6170   20.5560 O   0  0  0  0  0  0  0  0  0  0  0  0
  -22.4290  -12.0840   22.4060 H   0  0  0  0  0  0  0  0  0  0  0  0
  -21.1210  -13.2090   22.1830 H   0  0  0  0  0  0  0  0  0  0  0  0
  -25.4020  -15.2750   20.2470 N   0  0  0  0  0  0  0  0  0  0  0  0
  -24.6320  -15.9260   20.3580 H   0  0  0  0  0  0  0  0  0  0  0  0
  -26.2430  -15.7150   19.8930 H   0  0  0  0  0  0  0  0  0  0  0  0
  -28.4100  -25.0010   19.7980 C   0  0  0  0  0  2  0  0  0  0  0  0
  -28.3660  -26.4010   20.3710 O   0  0  0  0  0  0  0  0  0  0  0  0
  -24.6200  -31.8870   23.2560 C   0  0  0  0  0  0  0  0  0  0  0  0
  -27.2670  -27.2920   20.2360 C   0  0  0  0  0  0  0  0  0  0  0  0
  -23.4450  -30.4880   21.5970 C   0  0  0  0  0  3  0  0  0  0  0  0
  -24.9180  -28.9550   20.1760 C   0  0  0  0  0  0  0  0  0  0  0  0
  -25.9880  -30.8050   21.4500 C   0  0  0  0  0  2  0  0  0  0  0  0
  -26.0790  -29.4250   20.8020 C   0  0  0  0  0  0  0  0  0  0  0  0
  -27.2530  -28.6040   20.8240 C   0  0  0  0  0  3  0  0  0  0  0  0
  -26.0870  -26.9080   19.5560 C   0  0  0  0  0  3  0  0  0  0  0  0
  -24.9300  -27.7080   19.5420 C   0  0  0  0  0  3  0  0  0  0  0  0
  -23.6820  -29.8310   20.2120 C   0  0  0  0  0  2  0  0  0  0  0  0
  -24.7040  -31.0780   22.1600 N   0  0  0  0  0  0  0  0  0  0  0  0
  -23.5260  -32.1600   23.7750 O   0  0  0  0  0  0  0  0  0  0  0  0
  -22.7740  -29.4630   22.5440 C   0  0  0  0  0  0  0  0  0  0  0  0
  -21.4500  -29.2880   22.4100 N   0  0  0  0  0  0  0  0  0  0  0  0
  -23.4480  -28.8290   23.3600 O   0  0  0  0  0  0  0  0  0  0  0  0
  -20.9620  -29.8590   21.7350 H   0  0  0  0  0  0  0  0  0  0  0  0
  -18.0650  -28.1040   22.9080 C   0  0  0  0  0  0  0  0  0  0  0  0
  -20.6260  -28.3430   23.1710 C   0  0  0  0  0  3  0  0  0  0  0  0
  -20.7180  -26.9200   22.5760 C   0  0  0  0  0  2  0  0  0  0  0  0
  -19.6110  -26.6200   21.5600 C   0  0  0  0  0  2  0  0  0  0  0  0
  -18.2310  -26.7640   22.2090 C   0  0  0  0  0  2  0  0  0  0  0  0
  -19.1910  -28.8530   23.3440 C   0  0  0  0  0  0  0  0  0  0  0  0
  -18.9820  -30.1070   23.9570 C   0  0  0  0  0  3  0  0  0  0  0  0
  -17.6820  -30.6140   24.1380 C   0  0  0  0  0  3  0  0  0  0  0  0
  -16.5710  -29.8620   23.7200 C   0  0  0  0  0  3  0  0  0  0  0  0
  -16.7620  -28.6100   23.1090 C   0  0  0  0  0  3  0  0  0  0  0  0
  -25.8900  -32.5290   23.8940 C   0  0  0  0  0  3  0  0  0  0  0  0
  -26.3830  -31.7720   25.1880 C   0  0  1  0  0  0  0  0  0  0  0  0
  -25.2700  -31.5430   26.2370 C   0  0  0  0  0  1  0  0  0  0  0  0
  -26.9760  -30.3910   24.8250 C   0  0  0  0  0  1  0  0  0  0  0  0
  -27.5180  -32.5770   25.8630 C   0  0  0  0  0  1  0  0  0  0  0  0
  -25.5730  -33.9300   24.2020 N   0  0  0  0  0  0  0  0  0  0  0  0
  -25.9110  -34.9750   23.4360 C   0  0  0  0  0  0  0  0  0  0  0  0
  -26.5940  -34.8620   22.4130 O   0  0  0  0  0  0  0  0  0  0  0  0
  -24.9730  -34.0920   24.9970 H   0  0  0  0  0  0  0  0  0  0  0  0
  -24.1860  -36.7640   23.0400 C   0  0  0  0  0  1  0  0  0  0  0  0
  -25.4160  -36.3670   23.8720 C   0  0  0  0  0  3  0  0  0  0  0  0
  -27.5360  -37.2660   24.7290 C   0  0  0  0  0  1  0  0  0  0  0  0
  -26.4480  -37.4220   23.7670 N   0  0  0  0  0  0  0  0  0  0  0  0
  -26.0360  -38.3410   23.9000 H   0  0  0  0  0  0  0  0  0  0  0  0
  1  7  1  0
  1  3  1  0
  2  1  2  0
  3  9  1  0
  4 13  2  0
  4  2  1  0
  5 16  1  0
  5  3  2  0
  6  2  1  0
  6  8  1  0
  7 11  1  1
  8 55  1  6
  8  7  1  0
  8 15  1  0
 10  4  1  0
 12  7  1  0
 13  5  1  0
 14 15  1  0
 17 25  1  0
 18 23  1  0
 19 20  1  0
 19 18  1  0
 21 20  1  0
 21 30  1  0
 21 22  1  0
 23 17  1  0
 23 22  1  0
 24 17  2  0
 25 26  1  0
 25 16  1  0
 27 28  2  0
 28 47  1  0
 29 28  1  0
 29 32  1  0
 30 27  1  0
 30 31  1  0
 31 29  2  0
 32 33  1  0
 33 34  2  0
 35 38  1  0
 35 34  1  0
 36 35  2  0
 37 36  1  0
 37 32  2  0
 38 39  1  0
 39 40  1  0
 40 41  2  0
 42 41  1  0
 42 46  1  0
 43 42  2  0
 44 39  2  0
 44 43  1  0
 45 44  1  0
 47 48  1  0
 48 51  1  0
 48 50  1  0
 49 47  2  0
 52 53  1  0
 52 27  1  0
 54 52  1  0
 55 56  1  0
 57 68  2  0
 58 56  1  0
 58 63  1  0
 59 67  1  0
 59 69  1  0
 60 66  1  0
 60 62  1  0
 61 67  1  0
 62 63  2  0
 62 61  1  0
 64 58  2  0
 65 64  1  0
 65 60  2  0
 66 59  1  0
 67 57  1  0
 69 71  2  0
 70 69  1  0
 72 70  1  0
 73 82  2  0
 73 78  1  0
 74 70  1  0
 74 78  1  0
 75 74  1  0
 76 77  1  0
 76 75  1  0
 77 73  1  0
 78 79  2  0
 79 80  1  0
 81 80  2  0
 82 81  1  0
 83 57  1  0
 83 88  1  0
 83 84  1  0
 84 87  1  1
 84 85  1  0
 86 84  1  0
 88 91  1  0
 89 93  1  0
 89 88  1  0
 90 89  2  0
 93 92  1  0
 95 93  1  0
 95 96  1  0
 95 94  1  0
M  ISO  4  17 100  25 100  55 101  56 101
M  END
>  <TORSDO>  (95) 
F 19

>  <SCORE>  (95) 
-14.923

>  <name>  (95) 
96

>  <ligand_id>  (95) 
96

>  <original_smiles>  (95) 
[H]c1c([H])c([H])c2c(c1[H])C([H])([H])C([H])([H])C([H])([H])C2([H])N([H])C(=O)C1([H])N(C(=O)C([H])(N([H])C(=O)C([H])(N([H])C([H])([H])[H])C([H])([H])[H])C(C([H])([H])[H])(C([H])([H])[H])C([H])([H])[H])C([H])([H])c2c([H])c(OC([H])([H])C3(C([H])([H])C([H])([H])[H])C([H])([H])c4c(C([H])([H])[H])nc(C([H])([H])N([H])C(=O)N5C([H])([H])C([H])([H])C([H])([H])C([H])(n6nc(-c7c([H])c([H])c(Oc8c([H])c([H])c(F)c([H])c8F)c([H])c7[H])c(C(=O)N([H])[H])c6N([H])[H])C5([H])[H])c(C([H])([H])[H])c4C3(C([H])([H])[H])C([H])([H])[H])c([H])c([H])c2C1([H])[H]

>  <smiles>  (95) 
[H]c1c([H])c([H])c2c(c1[H])C([H])([H])C([H])([H])C([H])([H])C2([H])N([H])C(=O)C1([H])N(C(=O)C([H])(N([H])C(=O)C([H])(N([H])C([H])([H])[H])C([H])([H])[H])C(C([H])([H])[H])(C([H])([H])[H])C([H])([H])[H])C([H])([H])c2c([H])c(OC([H])([H])C3(C([H])([H])C([H])([H])[H])C([H])([H])c4c(C([H])([H])[H])nc(C([H])([H])N([H])C(=O)N5C([H])([H])C([H])([H])C([H])([H])C([H])(n6nc(-c7c([H])c([H])c(Oc8c([H])c([H])c(F)c([H])c8F)c([H])c7[H])c(C(=O)N([H])[H])c6N([H])[H])C5([H])[H])c(C([H])([H])[H])c4C3(C([H])([H])[H])C([H])([H])[H])c([H])c([H])c2C1([H])[H]

$$$$
