0:0:0
     RDKit          3D

 97106  0  0  1  0  0  0  0  0999 V2000
  -29.3000  -22.9440   19.9700 C   0  0  0  0  0  0  0  0  0  0  0  0
  -28.3850  -24.0270   20.3390 C   0  0  0  0  0  0  0  0  0  0  0  0
  -28.8060  -21.5780   19.7440 C   0  0  0  0  0  0  0  0  0  0  0  0
  -27.0130  -23.6690   20.3910 C   0  0  0  0  0  0  0  0  0  0  0  0
  -27.3880  -21.4430   19.7640 C   0  0  0  0  0  0  0  0  0  0  0  0
  -25.8990  -24.5870   20.8760 C   0  0  0  0  0  1  0  0  0  0  0  0
  -26.6230  -20.1870   19.3850 C   0  0  0  0  0  1  0  0  0  0  0  0
  -26.5530  -22.4480   20.0780 N   0  0  0  0  0  0  0  0  0  0  0  0
  -31.0480  -23.7310   18.3030 C   0  0  0  0  0  1  0  0  0  0  0  0
  -31.8720  -22.3080   20.2150 C   0  0  0  0  0  1  0  0  0  0  0  0
  -30.7910  -23.3100   19.7600 C   0  0  0  0  0  3  0  0  0  0  0  0
  -29.6930  -20.4540   19.5180 N   0  0  0  0  0  0  0  0  0  0  0  0
  -30.6520  -20.7260   19.3150 H   0  0  0  0  0  0  0  0  0  0  0  0
  -30.9960  -14.8050   19.9500 C   0  0  0  0  0  0  0  0  0  0  0  0
  -30.6830  -12.5550   18.9650 C   0  0  0  0  0  2  0  0  0  0  0  0
  -29.7000  -12.6780   17.7850 C   0  0  0  0  0  2  0  0  0  0  0  0
  -28.2440  -12.5400   18.2730 C   0  0  0  0  0  2  0  0  0  0  0  0
  -27.9420  -13.4350   19.5040 C   0  0  0  0  0  3  0  0  0  0  0  0
  -29.0430  -13.3130   20.5800 C   0  0  0  0  0  2  0  0  0  0  0  0
  -30.3240  -13.6130   19.9280 N   0  0  0  0  0  0  0  0  0  0  0  0
  -32.1760  -14.8600   19.5870 O   0  0  0  0  0  0  0  0  0  0  0  0
  -29.8710  -18.2810   20.9370 C   0  0  0  0  0  2  0  0  0  0  0  0
  -30.3940  -18.1970   18.5770 C   0  0  0  0  0  2  0  0  0  0  0  0
  -29.6540  -16.7150   20.9820 C   0  0  0  0  0  2  0  0  0  0  0  0
  -30.1160  -16.6580   18.5510 C   0  0  0  0  0  2  0  0  0  0  0  0
  -29.5050  -18.9600   19.5860 C   0  0  0  0  0  3  0  0  0  0  0  0
  -30.2300  -15.9460   19.8470 N   0  0  0  0  0  0  0  0  0  0  0  0
  -25.6020  -14.0690   20.3530 C   0  0  0  0  0  0  0  0  0  0  0  0
  -24.5380  -13.3140   20.7600 C   0  0  0  0  0  0  0  0  0  0  0  0
  -24.9630  -11.9520   20.6710 C   0  0  0  0  0  0  0  0  0  0  0  0
  -26.6130  -13.1710   20.0470 N   0  0  0  0  0  0  0  0  0  0  0  0
  -26.2350  -11.8890   20.2960 N   0  0  0  0  0  0  0  0  0  0  0  0
  -24.2150  -10.7040   20.8610 C   0  0  0  0  0  0  0  0  0  0  0  0
  -24.6030   -9.7570   21.8360 C   0  0  0  0  0  3  0  0  0  0  0  0
  -23.8600   -8.5720   22.0190 C   0  0  0  0  0  3  0  0  0  0  0  0
  -22.7120   -8.3260   21.2300 C   0  0  0  0  0  0  0  0  0  0  0  0
  -22.3430   -9.2590   20.2440 C   0  0  0  0  0  3  0  0  0  0  0  0
  -23.0870  -10.4360   20.0600 C   0  0  0  0  0  3  0  0  0  0  0  0
  -21.9430   -7.1910   21.3210 O   0  0  0  0  0  0  0  0  0  0  0  0
  -21.7370   -6.5530   22.5180 C   0  0  0  0  0  0  0  0  0  0  0  0
  -21.1330   -7.2060   23.6150 C   0  0  0  0  0  3  0  0  0  0  0  0
  -20.8770   -6.4940   24.8050 C   0  0  0  0  0  3  0  0  0  0  0  0
  -21.2150   -5.1310   24.8950 C   0  0  0  0  0  0  0  0  0  0  0  0
  -21.8110   -4.4780   23.8040 C   0  0  0  0  0  3  0  0  0  0  0  0
  -22.0690   -5.1860   22.6160 C   0  0  0  0  0  0  0  0  0  0  0  0
  -22.6260   -4.5470   21.5600 F   0  0  0  0  0  0  0  0  0  0  0  0
  -20.9590   -4.4450   26.0350 F   0  0  0  0  0  0  0  0  0  0  0  0
  -23.1670  -13.8150   21.1180 C   0  0  0  0  0  0  0  0  0  0  0  0
  -22.4710  -13.1210   22.0090 N   0  0  0  0  0  0  0  0  0  0  0  0
  -22.7250  -14.8570   20.6350 O   0  0  0  0  0  0  0  0  0  0  0  0
  -22.8360  -12.2740   22.4220 H   0  0  0  0  0  0  0  0  0  0  0  0
  -21.5560  -13.4430   22.2950 H   0  0  0  0  0  0  0  0  0  0  0  0
  -25.7930  -15.4420   20.2040 N   0  0  0  0  0  0  0  0  0  0  0  0
  -25.0590  -16.1200   20.3640 H   0  0  0  0  0  0  0  0  0  0  0  0
  -26.6400  -15.8580   19.8470 H   0  0  0  0  0  0  0  0  0  0  0  0
  -28.7900  -25.4680   20.8980 C   0  0  0  0  0  2  0  0  0  0  0  0
  -28.7190  -26.7100   20.1050 O   0  0  0  0  0  0  0  0  0  0  0  0
  -24.5950  -31.7690   23.2760 C   0  0  0  0  0  0  0  0  0  0  0  0
  -27.5680  -27.5020   20.1460 C   0  0  0  0  0  0  0  0  0  0  0  0
  -23.5400  -30.4140   21.5030 C   0  0  0  0  0  3  0  0  0  0  0  0
  -25.1360  -29.0000   20.0810 C   0  0  0  0  0  0  0  0  0  0  0  0
  -26.0700  -30.8440   21.4780 C   0  0  0  0  0  2  0  0  0  0  0  0
  -26.2460  -29.5060   20.7700 C   0  0  0  0  0  0  0  0  0  0  0  0
  -27.4680  -28.7710   20.7970 C   0  0  0  0  0  3  0  0  0  0  0  0
  -26.4450  -27.0490   19.4270 C   0  0  0  0  0  3  0  0  0  0  0  0
  -25.2390  -27.7750   19.3950 C   0  0  0  0  0  3  0  0  0  0  0  0
  -23.8560  -29.8120   20.1080 C   0  0  0  0  0  2  0  0  0  0  0  0
  -24.7510  -31.0220   22.1450 N   0  0  0  0  0  0  0  0  0  0  0  0
  -23.4750  -31.9760   23.7630 O   0  0  0  0  0  0  0  0  0  0  0  0
  -22.8760  -29.3230   22.3760 C   0  0  0  0  0  0  0  0  0  0  0  0
  -21.5650  -29.1050   22.1790 N   0  0  0  0  0  0  0  0  0  0  0  0
  -23.5440  -28.6720   23.1850 O   0  0  0  0  0  0  0  0  0  0  0  0
  -21.0830  -29.6800   21.5010 H   0  0  0  0  0  0  0  0  0  0  0  0
  -18.2020  -27.8400   22.5540 C   0  0  0  0  0  0  0  0  0  0  0  0
  -20.7540  -28.0950   22.8590 C   0  0  0  0  0  3  0  0  0  0  0  0
  -20.8750  -26.7220   22.1600 C   0  0  0  0  0  2  0  0  0  0  0  0
  -19.7810  -26.4800   21.1130 C   0  0  0  0  0  2  0  0  0  0  0  0
  -18.3940  -26.5580   21.7590 C   0  0  0  0  0  2  0  0  0  0  0  0
  -19.3120  -28.5680   23.0570 C   0  0  0  0  0  0  0  0  0  0  0  0
  -19.0800  -29.7710   23.7570 C   0  0  0  0  0  3  0  0  0  0  0  0
  -17.7700  -30.2480   23.9580 C   0  0  0  0  0  3  0  0  0  0  0  0
  -16.6730  -29.5120   23.4740 C   0  0  0  0  0  3  0  0  0  0  0  0
  -16.8910  -28.3100   22.7780 C   0  0  0  0  0  3  0  0  0  0  0  0
  -25.8170  -32.4210   23.9950 C   0  0  0  0  0  3  0  0  0  0  0  0
  -26.2320  -31.6680   25.3170 C   0  0  1  0  0  0  0  0  0  0  0  0
  -25.0570  -31.4190   26.2890 C   0  0  0  0  0  1  0  0  0  0  0  0
  -26.8740  -30.2990   24.9900 C   0  0  0  0  0  1  0  0  0  0  0  0
  -27.3020  -32.4890   26.0740 C   0  0  0  0  0  1  0  0  0  0  0  0
  -25.4650  -33.8180   24.2890 N   0  0  0  0  0  0  0  0  0  0  0  0
  -25.8280  -34.8670   23.5410 C   0  0  0  0  0  0  0  0  0  0  0  0
  -26.5620  -34.7640   22.5550 O   0  0  0  0  0  0  0  0  0  0  0  0
  -24.8270  -33.9730   25.0540 H   0  0  0  0  0  0  0  0  0  0  0  0
  -24.0950  -36.6230   23.0570 C   0  0  0  0  0  1  0  0  0  0  0  0
  -25.2860  -36.2510   23.9530 C   0  0  0  0  0  3  0  0  0  0  0  0
  -27.3410  -37.1920   24.9140 C   0  0  0  0  0  1  0  0  0  0  0  0
  -26.3040  -37.3210   23.8920 N   0  0  0  0  0  0  0  0  0  0  0  0
  -25.8710  -38.2340   23.9920 H   0  0  0  0  0  0  0  0  0  0  0  0
  1  2  1  0
  2  4  2  0
  2 56  1  0
  3  5  1  0
  3  1  2  0
  4  6  1  0
  5  8  2  0
  7  5  1  0
  8  4  1  0
  9 11  1  0
 11  1  1  0
 11 10  1  0
 12  3  1  0
 13 12  1  0
 15 20  1  0
 16 17  1  0
 16 15  1  0
 18 17  1  0
 18 31  1  0
 18 19  1  0
 20 14  1  0
 20 19  1  0
 21 14  2  0
 22 24  1  0
 23 26  1  0
 25 23  1  0
 25 27  1  0
 26 12  1  0
 26 22  1  0
 27 14  1  0
 27 24  1  0
 28 29  2  0
 29 48  1  0
 30 29  1  0
 30 33  1  0
 31 32  1  0
 31 28  1  0
 32 30  2  0
 33 34  1  0
 34 35  2  0
 36 39  1  0
 36 35  1  0
 37 36  2  0
 38 37  1  0
 38 33  2  0
 39 40  1  0
 40 45  2  0
 40 41  1  0
 41 42  2  0
 42 43  1  0
 43 47  1  0
 44 43  2  0
 45 44  1  0
 46 45  1  0
 48 49  1  0
 49 52  1  0
 49 51  1  0
 50 48  2  0
 53 28  1  0
 53 54  1  0
 55 53  1  0
 57 59  1  0
 57 56  1  0
 58 69  2  0
 59 64  1  0
 60 68  1  0
 60 70  1  0
 61 67  1  0
 61 63  1  0
 62 68  1  0
 63 64  2  0
 63 62  1  0
 65 59  2  0
 66 65  1  0
 66 61  2  0
 67 60  1  0
 68 58  1  0
 70 72  2  0
 71 70  1  0
 73 71  1  0
 74 83  2  0
 74 79  1  0
 75 71  1  0
 75 79  1  0
 76 75  1  0
 77 78  1  0
 77 76  1  0
 78 74  1  0
 79 80  2  0
 80 81  1  0
 82 81  2  0
 83 82  1  0
 84 58  1  0
 84 89  1  0
 84 85  1  0
 85 88  1  1
 85 86  1  0
 87 85  1  0
 89 92  1  0
 90 94  1  0
 90 89  1  0
 91 90  2  0
 94 93  1  0
 96 94  1  0
 96 97  1  0
 96 95  1  0
M  ISO  4  14 100  27 100  56 101  57 101
M  END
>  <TORSDO>  (1) 
F 19

>  <SCORE>  (1) 
-13.215

>  <name>  (1) 
0

>  <ligand_id>  (1) 
0

>  <original_smiles>  (1) 
[H]c1c([H])c([H])c2c(c1[H])C([H])([H])C([H])([H])C([H])([H])C2([H])N([H])C(=O)C1([H])N(C(=O)C([H])(N([H])C(=O)C([H])(N([H])C([H])([H])[H])C([H])([H])[H])C(C([H])([H])[H])(C([H])([H])[H])C([H])([H])[H])C([H])([H])c2c([H])c(OC([H])([H])c3c(C([H])([H])[H])nc(C([H])([H])[H])c(N([H])C4([H])C([H])([H])C([H])([H])N(C(=O)N5C([H])([H])C([H])([H])C([H])([H])C([H])(n6nc(-c7c([H])c([H])c(Oc8c([H])c([H])c(F)c([H])c8F)c([H])c7[H])c(C(=O)N([H])[H])c6N([H])[H])C5([H])[H])C([H])([H])C4([H])[H])c3C([H])(C([H])([H])[H])C([H])([H])[H])c([H])c([H])c2C1([H])[H]

>  <smiles>  (1) 
[H]c1c([H])c([H])c2c(c1[H])C([H])([H])C([H])([H])C([H])([H])C2([H])N([H])C(=O)C1([H])N(C(=O)C([H])(N([H])C(=O)C([H])(N([H])C([H])([H])[H])C([H])([H])[H])C(C([H])([H])[H])(C([H])([H])[H])C([H])([H])[H])C([H])([H])c2c([H])c(OC([H])([H])c3c(C([H])([H])[H])nc(C([H])([H])[H])c(N([H])C4([H])C([H])([H])C([H])([H])N(C(=O)N5C([H])([H])C([H])([H])C([H])([H])C([H])(n6nc(-c7c([H])c([H])c(Oc8c([H])c([H])c(F)c([H])c8F)c([H])c7[H])c(C(=O)N([H])[H])c6N([H])[H])C5([H])[H])C([H])([H])C4([H])[H])c3C([H])(C([H])([H])[H])C([H])([H])[H])c([H])c([H])c2C1([H])[H]

$$$$
1:0:0
     RDKit          3D

 98108  0  0  1  0  0  0  0  0999 V2000
  -30.4280  -21.1930   19.0710 C   0  0  0  0  0  3  0  0  0  0  0  0
  -30.6250  -22.4780   18.5340 C   0  0  0  0  0  0  0  0  0  0  0  0
  -29.4670  -20.9530   20.0670 C   0  0  0  0  0  0  0  0  0  0  0  0
  -29.9040  -23.6140   18.9410 C   0  0  0  0  0  0  0  0  0  0  0  0
  -28.7190  -22.1550   20.5050 C   0  0  0  0  0  0  0  0  0  0  0  0
  -28.9210  -23.5360   19.9790 C   0  0  0  0  0  0  0  0  0  0  0  0
  -31.3180  -24.2220   17.0570 C   0  0  0  0  0  2  0  0  0  0  0  0
  -31.6400  -22.7680   17.4530 C   0  0  1  0  0  0  0  0  0  0  0  0
  -30.3400  -24.8230   18.1090 C   0  0  2  0  0  0  0  0  0  0  0  0
  -27.6550  -21.9320   21.5680 C   0  0  0  0  0  1  0  0  0  0  0  0
  -33.0660  -22.6530   18.0210 C   0  0  0  0  0  1  0  0  0  0  0  0
  -31.4780  -21.8170   16.2490 C   0  0  0  0  0  1  0  0  0  0  0  0
  -31.1380  -25.8390   18.9540 C   0  0  0  0  0  1  0  0  0  0  0  0
  -29.1730  -25.4720   17.3280 C   0  0  0  0  0  1  0  0  0  0  0  0
  -30.6580  -14.9120   20.3390 C   0  0  0  0  0  0  0  0  0  0  0  0
  -30.4200  -12.6060   19.3590 C   0  0  0  0  0  2  0  0  0  0  0  0
  -29.4760  -12.5990   18.1380 C   0  0  0  0  0  2  0  0  0  0  0  0
  -28.0190  -12.3980   18.5930 C   0  0  0  0  0  2  0  0  0  0  0  0
  -27.6330  -13.3180   19.7790 C   0  0  0  0  0  3  0  0  0  0  0  0
  -28.7060  -13.3360   20.8890 C   0  0  0  0  0  2  0  0  0  0  0  0
  -29.9760  -13.7060   20.2560 N   0  0  0  0  0  0  0  0  0  0  0  0
  -31.8660  -14.8990   20.0840 O   0  0  0  0  0  0  0  0  0  0  0  0
  -28.8970  -18.3250   19.5150 C   0  0  0  0  0  2  0  0  0  0  0  0
  -30.6860  -18.7230   21.0510 C   0  0  0  0  0  2  0  0  0  0  0  0
  -28.8540  -16.7690   19.9280 C   0  0  0  0  0  2  0  0  0  0  0  0
  -30.6420  -17.1940   21.5170 C   0  0  0  0  0  2  0  0  0  0  0  0
  -29.3520  -19.4020   20.5720 C   0  0  0  0  0  3  0  0  0  0  0  0
  -30.0280  -16.1510   20.6270 N   0  0  0  0  0  0  0  0  0  0  0  0
  -25.2670  -13.9010   20.5600 C   0  0  0  0  0  0  0  0  0  0  0  0
  -24.2040  -13.1240   20.9310 C   0  0  0  0  0  0  0  0  0  0  0  0
  -24.6640  -11.7730   20.8750 C   0  0  0  0  0  0  0  0  0  0  0  0
  -26.3030  -13.0220   20.2950 N   0  0  0  0  0  0  0  0  0  0  0  0
  -25.9510  -11.7360   20.5510 N   0  0  0  0  0  0  0  0  0  0  0  0
  -23.9350  -10.5100   21.0500 C   0  0  0  0  0  0  0  0  0  0  0  0
  -24.3550   -9.5390   21.9850 C   0  0  0  0  0  3  0  0  0  0  0  0
  -23.6260   -8.3420   22.1510 C   0  0  0  0  0  3  0  0  0  0  0  0
  -22.4610   -8.1090   21.3800 C   0  0  0  0  0  0  0  0  0  0  0  0
  -22.0610   -9.0690   20.4350 C   0  0  0  0  0  3  0  0  0  0  0  0
  -22.7920  -10.2570   20.2670 C   0  0  0  0  0  3  0  0  0  0  0  0
  -21.7050   -6.9650   21.4560 O   0  0  0  0  0  0  0  0  0  0  0  0
  -21.6180   -6.2340   22.6140 C   0  0  0  0  0  0  0  0  0  0  0  0
  -21.1250   -6.7930   23.8130 C   0  0  0  0  0  3  0  0  0  0  0  0
  -20.9890   -5.9860   24.9600 C   0  0  0  0  0  3  0  0  0  0  0  0
  -21.3350   -4.6220   24.9100 C   0  0  0  0  0  0  0  0  0  0  0  0
  -21.8210   -4.0630   23.7150 C   0  0  0  0  0  3  0  0  0  0  0  0
  -21.9590   -4.8670   22.5690 C   0  0  0  0  0  0  0  0  0  0  0  0
  -22.4080   -4.3190   21.4140 F   0  0  0  0  0  0  0  0  0  0  0  0
  -21.1970   -3.8460   26.0100 F   0  0  0  0  0  0  0  0  0  0  0  0
  -22.8130  -13.6030   21.2210 C   0  0  0  0  0  0  0  0  0  0  0  0
  -22.0870  -12.8930   22.0790 N   0  0  0  0  0  0  0  0  0  0  0  0
  -22.3760  -14.6410   20.7250 O   0  0  0  0  0  0  0  0  0  0  0  0
  -22.4530  -12.0530   22.5020 H   0  0  0  0  0  0  0  0  0  0  0  0
  -21.1530  -13.1950   22.3170 H   0  0  0  0  0  0  0  0  0  0  0  0
  -25.4310  -15.2740   20.4000 N   0  0  0  0  0  0  0  0  0  0  0  0
  -24.6650  -15.9260   20.5300 H   0  0  0  0  0  0  0  0  0  0  0  0
  -26.2740  -15.7150   20.0590 H   0  0  0  0  0  0  0  0  0  0  0  0
  -28.0340  -24.8280   20.4570 C   0  0  0  0  0  2  0  0  0  0  0  0
  -28.3040  -26.3150   20.1860 O   0  0  0  0  0  0  0  0  0  0  0  0
  -24.6520  -31.8910   23.2480 C   0  0  0  0  0  0  0  0  0  0  0  0
  -27.2260  -27.2530   20.1690 C   0  0  0  0  0  0  0  0  0  0  0  0
  -23.4420  -30.4970   21.6130 C   0  0  0  0  0  3  0  0  0  0  0  0
  -24.8830  -28.9470   20.1690 C   0  0  0  0  0  0  0  0  0  0  0  0
  -25.9890  -30.7910   21.4220 C   0  0  0  0  0  2  0  0  0  0  0  0
  -26.0640  -29.4070   20.7660 C   0  0  0  0  0  0  0  0  0  0  0  0
  -27.2380  -28.5760   20.7520 C   0  0  0  0  0  3  0  0  0  0  0  0
  -26.0250  -26.8880   19.5220 C   0  0  0  0  0  3  0  0  0  0  0  0
  -24.8730  -27.6980   19.5310 C   0  0  0  0  0  3  0  0  0  0  0  0
  -23.6500  -29.8300   20.2290 C   0  0  0  0  0  2  0  0  0  0  0  0
  -24.7140  -31.0800   22.1490 N   0  0  0  0  0  0  0  0  0  0  0  0
  -23.5710  -32.1670   23.7880 O   0  0  0  0  0  0  0  0  0  0  0  0
  -22.7820  -29.4790   22.5750 C   0  0  0  0  0  0  0  0  0  0  0  0
  -21.4570  -29.2910   22.4500 N   0  0  0  0  0  0  0  0  0  0  0  0
  -23.4640  -28.8600   23.3960 O   0  0  0  0  0  0  0  0  0  0  0  0
  -20.9630  -29.8420   21.7620 H   0  0  0  0  0  0  0  0  0  0  0  0
  -18.0900  -28.0570   22.9560 C   0  0  0  0  0  0  0  0  0  0  0  0
  -20.6460  -28.3460   23.2220 C   0  0  0  0  0  3  0  0  0  0  0  0
  -20.7630  -26.9140   22.6490 C   0  0  0  0  0  2  0  0  0  0  0  0
  -19.6630  -26.5780   21.6360 C   0  0  0  0  0  2  0  0  0  0  0  0
  -18.2800  -26.7090   22.2810 C   0  0  0  0  0  2  0  0  0  0  0  0
  -19.2010  -28.8330   23.3840 C   0  0  0  0  0  0  0  0  0  0  0  0
  -18.9670  -30.0930   23.9760 C   0  0  0  0  0  3  0  0  0  0  0  0
  -17.6570  -30.5790   24.1450 C   0  0  0  0  0  3  0  0  0  0  0  0
  -16.5610  -29.8020   23.7320 C   0  0  0  0  0  3  0  0  0  0  0  0
  -16.7790  -28.5420   23.1450 C   0  0  0  0  0  3  0  0  0  0  0  0
  -25.9360  -32.5280   23.8640 C   0  0  0  0  0  3  0  0  0  0  0  0
  -25.6230  -33.9240   24.2020 N   0  0  0  0  0  0  0  0  0  0  0  0
  -25.9340  -34.9810   23.4400 C   0  0  0  0  0  0  0  0  0  0  0  0
  -26.5830  -34.8840   22.3950 O   0  0  0  0  0  0  0  0  0  0  0  0
  -25.0440  -34.0740   25.0150 H   0  0  0  0  0  0  0  0  0  0  0  0
  -24.1920  -36.7700   23.1260 C   0  0  0  0  0  1  0  0  0  0  0  0
  -25.4500  -36.3670   23.9110 C   0  0  0  0  0  3  0  0  0  0  0  0
  -27.5940  -37.2640   24.7060 C   0  0  0  0  0  1  0  0  0  0  0  0
  -26.4760  -37.4250   23.7800 N   0  0  0  0  0  0  0  0  0  0  0  0
  -26.0680  -38.3440   23.9330 H   0  0  0  0  0  0  0  0  0  0  0  0
  -26.4590  -31.7560   25.1380 C   0  0  1  0  0  0  0  0  0  0  0  0
  -25.3710  -31.5150   26.2110 C   0  0  0  0  0  1  0  0  0  0  0  0
  -27.0440  -30.3800   24.7470 C   0  0  0  0  0  1  0  0  0  0  0  0
  -27.6090  -32.5530   25.7950 C   0  0  0  0  0  1  0  0  0  0  0  0
  1  3  1  0
  2  4  1  0
  2  1  2  0
  3  5  2  0
  4  6  2  0
  5 10  1  0
  6 57  1  0
  6  5  1  0
  7  8  1  0
  7  9  1  0
  8 11  1  1
  8  2  1  0
  9  4  1  0
  9 13  1  1
 12  8  1  0
 14  9  1  0
 15 28  1  0
 16 21  1  0
 17 18  1  0
 17 16  1  0
 19 18  1  0
 19 32  1  0
 19 20  1  0
 21 15  1  0
 21 20  1  0
 22 15  2  0
 23 25  1  0
 23 27  1  0
 24 26  1  0
 25 28  1  0
 27  3  1  0
 27 24  1  0
 28 26  1  0
 29 30  2  0
 30 49  1  0
 31 30  1  0
 31 34  1  0
 32 33  1  0
 32 29  1  0
 33 31  2  0
 34 35  1  0
 35 36  2  0
 37 40  1  0
 37 36  1  0
 38 37  2  0
 39 38  1  0
 39 34  2  0
 40 41  1  0
 41 42  1  0
 42 43  2  0
 44 43  1  0
 44 48  1  0
 45 44  2  0
 46 41  2  0
 46 45  1  0
 47 46  1  0
 49 50  1  0
 50 53  1  0
 50 52  1  0
 51 49  2  0
 54 55  1  0
 54 29  1  0
 56 54  1  0
 58 57  1  0
 59 70  2  0
 60 58  1  0
 60 65  1  0
 61 69  1  0
 61 71  1  0
 62 68  1  0
 62 64  1  0
 63 69  1  0
 64 63  1  0
 65 64  2  0
 66 67  1  0
 66 60  2  0
 67 62  2  0
 68 61  1  0
 69 59  1  0
 71 73  2  0
 72 71  1  0
 74 72  1  0
 75 84  2  0
 75 80  1  0
 76 72  1  0
 76 80  1  0
 77 76  1  0
 78 79  1  0
 78 77  1  0
 79 75  1  0
 80 81  2  0
 81 82  1  0
 83 82  2  0
 84 83  1  0
 85 59  1  0
 85 86  1  0
 85 95  1  0
 86 89  1  0
 87 91  1  0
 87 86  1  0
 88 87  2  0
 91 90  1  0
 93 91  1  0
 93 94  1  0
 93 92  1  0
 95 98  1  1
 95 96  1  0
 97 95  1  0
M  ISO  4  15 100  28 100  57 101  58 101
M  END
>  <TORSDO>  (2) 
F 17

>  <SCORE>  (2) 
-15.264

>  <name>  (2) 
1

>  <ligand_id>  (2) 
1

>  <original_smiles>  (2) 
[H]c1c([H])c([H])c2c(c1[H])C([H])([H])C([H])([H])C([H])([H])C2([H])N([H])C(=O)C1([H])N(C(=O)C([H])(N([H])C(=O)C([H])(N([H])C([H])([H])[H])C([H])([H])[H])C(C([H])([H])[H])(C([H])([H])[H])C([H])([H])[H])C([H])([H])c2c([H])c(OC([H])([H])c3c(C([H])([H])[H])c(C4([H])C([H])([H])C([H])([H])N(C(=O)N5C([H])([H])C([H])([H])C([H])([H])C([H])(n6nc(-c7c([H])c([H])c(Oc8c([H])c([H])c(F)c([H])c8F)c([H])c7[H])c(C(=O)N([H])[H])c6N([H])[H])C5([H])[H])C([H])([H])C4([H])[H])c([H])c4c3C(C([H])([H])[H])(C([H])([H])[H])C([H])([H])C4(C([H])([H])[H])C([H])([H])[H])c([H])c([H])c2C1([H])[H]

>  <smiles>  (2) 
[H]c1c([H])c([H])c2c(c1[H])C([H])([H])C([H])([H])C([H])([H])C2([H])N([H])C(=O)C1([H])N(C(=O)C([H])(N([H])C(=O)C([H])(N([H])C([H])([H])[H])C([H])([H])[H])C(C([H])([H])[H])(C([H])([H])[H])C([H])([H])[H])C([H])([H])c2c([H])c(OC([H])([H])c3c(C([H])([H])[H])c(C4([H])C([H])([H])C([H])([H])N(C(=O)N5C([H])([H])C([H])([H])C([H])([H])C([H])(n6nc(-c7c([H])c([H])c(Oc8c([H])c([H])c(F)c([H])c8F)c([H])c7[H])c(C(=O)N([H])[H])c6N([H])[H])C5([H])[H])C([H])([H])C4([H])[H])c([H])c4c3C(C([H])([H])[H])(C([H])([H])[H])C([H])([H])C4(C([H])([H])[H])C([H])([H])[H])c([H])c([H])c2C1([H])[H]

$$$$
2:0:0
     RDKit          3D

 91100  0  0  1  0  0  0  0  0999 V2000
  -28.8230  -22.3810   19.8790 N   0  0  0  0  0  4  0  0  0  0  0  0
  -27.9090  -22.1460   20.2320 H   0  0  0  0  0  0  0  0  0  0  0  0
  -28.7510  -22.3820   18.8730 H   0  0  0  0  0  0  0  0  0  0  0  0
  -29.7500  -21.2250   20.2720 C   0  0  0  0  0  2  0  0  0  0  0  0
  -30.7390  -14.7600   19.8960 C   0  0  0  0  0  0  0  0  0  0  0  0
  -30.4430  -12.5190   18.8220 C   0  0  0  0  0  2  0  0  0  0  0  0
  -29.4070  -12.6250   17.6810 C   0  0  0  0  0  2  0  0  0  0  0  0
  -27.9700  -12.4630   18.2170 C   0  0  0  0  0  2  0  0  0  0  0  0
  -27.7090  -13.3080   19.4930 C   0  0  0  0  0  3  0  0  0  0  0  0
  -28.8540  -13.1170   20.5120 C   0  0  0  0  0  2  0  0  0  0  0  0
  -30.0890  -13.5400   19.8390 N   0  0  0  0  0  0  0  0  0  0  0  0
  -31.8790  -14.8400   19.4220 O   0  0  0  0  0  0  0  0  0  0  0  0
  -29.7850  -19.3250   18.3890 C   0  0  0  0  0  2  0  0  0  0  0  0
  -29.7760  -17.7750   18.3440 C   0  0  0  0  0  2  0  0  0  0  0  0
  -28.8480  -17.6850   21.4430 C   0  0  0  0  0  2  0  0  0  0  0  0
  -29.1570  -16.1740   21.3130 C   0  0  0  0  0  2  0  0  0  0  0  0
  -29.8970  -18.4550   20.6370 C   0  0  0  0  0  3  0  0  0  0  0  0
  -29.3560  -19.7230   19.8190 C   0  0  0  0  0  3  0  0  0  0  0  0
  -30.4050  -17.3280   19.6720 C   0  0  0  0  0  3  0  0  0  0  0  0
  -30.0260  -15.9400   20.1480 N   0  0  0  0  0  0  0  0  0  0  0  0
  -25.3950  -13.9150   20.4240 C   0  0  0  0  0  0  0  0  0  0  0  0
  -24.3450  -13.1460   20.8430 C   0  0  0  0  0  0  0  0  0  0  0  0
  -24.7730  -11.7890   20.7140 C   0  0  0  0  0  0  0  0  0  0  0  0
  -26.3990  -13.0280   20.0710 N   0  0  0  0  0  0  0  0  0  0  0  0
  -26.0330  -11.7400   20.3010 N   0  0  0  0  0  0  0  0  0  0  0  0
  -24.0340  -10.5330   20.9030 C   0  0  0  0  0  0  0  0  0  0  0  0
  -24.4780   -9.5450   21.8080 C   0  0  0  0  0  3  0  0  0  0  0  0
  -23.7410   -8.3540   21.9860 C   0  0  0  0  0  3  0  0  0  0  0  0
  -22.5460   -8.1440   21.2580 C   0  0  0  0  0  0  0  0  0  0  0  0
  -22.1210   -9.1200   20.3410 C   0  0  0  0  0  3  0  0  0  0  0  0
  -22.8580  -10.3030   20.1610 C   0  0  0  0  0  3  0  0  0  0  0  0
  -21.7780   -7.0080   21.3480 O   0  0  0  0  0  0  0  0  0  0  0  0
  -21.6930   -6.2870   22.5130 C   0  0  0  0  0  0  0  0  0  0  0  0
  -21.2330   -6.8670   23.7150 C   0  0  0  0  0  3  0  0  0  0  0  0
  -21.0940   -6.0730   24.8720 C   0  0  0  0  0  3  0  0  0  0  0  0
  -21.4060   -4.7000   24.8260 C   0  0  0  0  0  0  0  0  0  0  0  0
  -21.8580   -4.1210   23.6280 C   0  0  0  0  0  3  0  0  0  0  0  0
  -21.9990   -4.9120   22.4750 C   0  0  0  0  0  0  0  0  0  0  0  0
  -22.4150   -4.3440   21.3160 F   0  0  0  0  0  0  0  0  0  0  0  0
  -21.2650   -3.9360   25.9340 F   0  0  0  0  0  0  0  0  0  0  0  0
  -22.9850  -13.6370   21.2480 C   0  0  0  0  0  0  0  0  0  0  0  0
  -22.3230  -12.9280   22.1560 N   0  0  0  0  0  0  0  0  0  0  0  0
  -22.5210  -14.6830   20.7950 O   0  0  0  0  0  0  0  0  0  0  0  0
  -22.7100  -12.0820   22.5450 H   0  0  0  0  0  0  0  0  0  0  0  0
  -21.4130  -13.2390   22.4670 H   0  0  0  0  0  0  0  0  0  0  0  0
  -25.5700  -15.2900   20.2900 N   0  0  0  0  0  0  0  0  0  0  0  0
  -24.8240  -15.9490   20.4790 H   0  0  0  0  0  0  0  0  0  0  0  0
  -26.3950  -15.7260   19.8980 H   0  0  0  0  0  0  0  0  0  0  0  0
  -29.1520  -23.8150   20.3320 C   0  0  0  0  0  3  0  0  0  0  0  0
  -28.0910  -24.9690   19.9620 C   0  0  0  0  0  3  0  0  0  0  0  0
  -28.2970  -26.4130   20.3180 O   0  0  0  0  0  0  0  0  0  0  0  0
  -24.5760  -31.8640   23.3140 C   0  0  0  0  0  0  0  0  0  0  0  0
  -27.1930  -27.2930   20.2480 C   0  0  0  0  0  0  0  0  0  0  0  0
  -23.3770  -30.4690   21.6690 C   0  0  0  0  0  3  0  0  0  0  0  0
  -24.8310  -28.9270   20.2370 C   0  0  0  0  0  0  0  0  0  0  0  0
  -25.9200  -30.7830   21.4940 C   0  0  0  0  0  2  0  0  0  0  0  0
  -26.0010  -29.4060   20.8410 C   0  0  0  0  0  0  0  0  0  0  0  0
  -27.1850  -28.6010   20.8370 C   0  0  0  0  0  3  0  0  0  0  0  0
  -25.9990  -26.8860   19.6040 C   0  0  0  0  0  3  0  0  0  0  0  0
  -24.8350  -27.6760   19.6090 C   0  0  0  0  0  3  0  0  0  0  0  0
  -23.5950  -29.8020   20.2880 C   0  0  0  0  0  2  0  0  0  0  0  0
  -24.6430  -31.0570   22.2150 N   0  0  0  0  0  0  0  0  0  0  0  0
  -23.4900  -32.1400   23.8460 O   0  0  0  0  0  0  0  0  0  0  0  0
  -22.7150  -29.4470   22.6260 C   0  0  0  0  0  0  0  0  0  0  0  0
  -21.3940  -29.2490   22.4800 N   0  0  0  0  0  0  0  0  0  0  0  0
  -23.3900  -28.8370   23.4590 O   0  0  0  0  0  0  0  0  0  0  0  0
  -20.9090  -29.7950   21.7810 H   0  0  0  0  0  0  0  0  0  0  0  0
  -18.0310  -27.9870   22.9210 C   0  0  0  0  0  0  0  0  0  0  0  0
  -20.5770  -28.3060   23.2450 C   0  0  0  0  0  3  0  0  0  0  0  0
  -20.7210  -26.8690   22.6930 C   0  0  0  0  0  2  0  0  0  0  0  0
  -19.6500  -26.5080   21.6580 C   0  0  0  0  0  2  0  0  0  0  0  0
  -18.2520  -26.6320   22.2690 C   0  0  0  0  0  2  0  0  0  0  0  0
  -19.1220  -28.7790   23.3640 C   0  0  0  0  0  0  0  0  0  0  0  0
  -18.8640  -30.0440   23.9340 C   0  0  0  0  0  3  0  0  0  0  0  0
  -17.5450  -30.5190   24.0630 C   0  0  0  0  0  3  0  0  0  0  0  0
  -16.4670  -29.7260   23.6340 C   0  0  0  0  0  3  0  0  0  0  0  0
  -16.7110  -28.4600   23.0690 C   0  0  0  0  0  3  0  0  0  0  0  0
  -25.8560  -32.4990   23.9390 C   0  0  0  0  0  3  0  0  0  0  0  0
  -26.3290  -31.7690   25.2570 C   0  0  1  0  0  0  0  0  0  0  0  0
  -25.2080  -31.5890   26.3070 C   0  0  0  0  0  1  0  0  0  0  0  0
  -26.9000  -30.3680   24.9340 C   0  0  0  0  0  1  0  0  0  0  0  0
  -27.4770  -32.5710   25.9150 C   0  0  0  0  0  1  0  0  0  0  0  0
  -25.5630  -33.9140   24.2090 N   0  0  0  0  0  0  0  0  0  0  0  0
  -25.9070  -34.9290   23.4060 C   0  0  0  0  0  0  0  0  0  0  0  0
  -26.5720  -34.7740   22.3790 O   0  0  0  0  0  0  0  0  0  0  0  0
  -24.9720  -34.1090   25.0040 H   0  0  0  0  0  0  0  0  0  0  0  0
  -24.1870  -36.7200   22.9970 C   0  0  0  0  0  1  0  0  0  0  0  0
  -25.4370  -36.3430   23.8060 C   0  0  0  0  0  3  0  0  0  0  0  0
  -27.5900  -37.2510   24.5650 C   0  0  0  0  0  1  0  0  0  0  0  0
  -26.4770  -37.3800   23.6270 N   0  0  0  0  0  0  0  0  0  0  0  0
  -26.0800  -38.3100   23.7300 H   0  0  0  0  0  0  0  0  0  0  0  0
  1  2  1  0
  1  4  1  0
  1 49  1  0
  3  1  1  0
  5 20  1  0
  6 11  1  0
  7  8  1  0
  7  6  1  0
  9  8  1  0
  9 24  1  0
  9 10  1  0
 11  5  1  0
 11 10  1  0
 12  5  2  0
 13 18  1  0
 14 13  1  0
 16 15  1  0
 17 15  1  0
 18  4  1  0
 18 17  1  0
 19 14  1  0
 19 20  1  0
 19 17  1  0
 20 16  1  0
 21 22  2  0
 22 41  1  0
 23 22  1  0
 23 26  1  0
 24 25  1  0
 24 21  1  0
 25 23  2  0
 26 27  1  0
 27 28  2  0
 29 32  1  0
 29 28  1  0
 30 29  2  0
 31 30  1  0
 31 26  2  0
 32 33  1  0
 33 34  1  0
 34 35  2  0
 36 35  1  0
 36 40  1  0
 37 36  2  0
 38 33  2  0
 38 37  1  0
 39 38  1  0
 41 42  1  0
 42 45  1  0
 42 44  1  0
 43 41  2  0
 46 21  1  0
 46 47  1  0
 48 46  1  0
 50 51  1  0
 50 49  2  0
 52 63  2  0
 53 51  1  0
 53 58  1  0
 54 62  1  0
 54 64  1  0
 55 61  1  0
 55 57  1  0
 56 62  1  0
 57 56  1  0
 58 57  2  0
 59 60  1  0
 59 53  2  0
 60 55  2  0
 61 54  1  0
 62 52  1  0
 64 66  2  0
 65 64  1  0
 67 65  1  0
 68 77  2  0
 68 73  1  0
 69 65  1  0
 69 73  1  0
 70 69  1  0
 71 72  1  0
 71 70  1  0
 72 68  1  0
 73 74  2  0
 74 75  1  0
 76 75  2  0
 77 76  1  0
 78 52  1  0
 78 83  1  0
 78 79  1  0
 79 82  1  1
 79 80  1  0
 81 79  1  0
 83 86  1  0
 84 88  1  0
 84 83  1  0
 85 84  2  0
 88 87  1  0
 90 91  1  0
 90 88  1  0
 90 89  1  0
M  ISO  4   5 100  20 100  50 101  51 101
M  END
>  <TORSDO>  (3) 
F 19

>  <SCORE>  (3) 
-12.996

>  <name>  (3) 
2

>  <ligand_id>  (3) 
2

>  <original_smiles>  (3) 
[H]c1c([H])c([H])c2c(c1[H])C([H])([H])C([H])([H])C([H])([H])C2([H])N([H])C(=O)C1([H])N(C(=O)C([H])(N([H])C(=O)C([H])(N([H])C([H])([H])[H])C([H])([H])[H])C(C([H])([H])[H])(C([H])([H])[H])C([H])([H])[H])C([H])([H])c2c([H])c(OC([H])([H])C([H])([H])[N+]([H])([H])C([H])([H])C3([H])C([H])([H])C([H])([H])C4([H])N(C(=O)N5C([H])([H])C([H])([H])C([H])([H])C([H])(n6nc(-c7c([H])c([H])c(Oc8c([H])c([H])c(F)c([H])c8F)c([H])c7[H])c(C(=O)N([H])[H])c6N([H])[H])C5([H])[H])C([H])([H])C([H])([H])C43[H])c([H])c([H])c2C1([H])[H]

>  <smiles>  (3) 
[H]c1c([H])c([H])c2c(c1[H])C([H])([H])C([H])([H])C([H])([H])C2([H])N([H])C(=O)C1([H])N(C(=O)C([H])(N([H])C(=O)C([H])(N([H])C([H])([H])[H])C([H])([H])[H])C(C([H])([H])[H])(C([H])([H])[H])C([H])([H])[H])C([H])([H])c2c([H])c(OC([H])([H])C([H])([H])[N+]([H])([H])C([H])([H])C3([H])C([H])([H])C([H])([H])C4([H])N(C(=O)N5C([H])([H])C([H])([H])C([H])([H])C([H])(n6nc(-c7c([H])c([H])c(Oc8c([H])c([H])c(F)c([H])c8F)c([H])c7[H])c(C(=O)N([H])[H])c6N([H])[H])C5([H])[H])C([H])([H])C([H])([H])C43[H])c([H])c([H])c2C1([H])[H]

$$$$
3:0:0
     RDKit          3D

101110  0  0  1  0  0  0  0  0999 V2000
  -27.7830  -20.1500   19.5560 C   0  0  0  0  0  3  0  0  0  0  0  0
  -28.9780  -19.9430   20.2840 C   0  0  0  0  0  0  0  0  0  0  0  0
  -29.5910  -18.6070   20.1390 C   0  0  0  0  0  0  0  0  0  0  0  0
  -29.2730  -17.8860   18.9410 C   0  0  0  0  0  0  0  0  0  0  0  0
  -28.0570  -18.1310   18.2540 C   0  0  0  0  0  0  0  0  0  0  0  0
  -27.2620  -19.2220   18.6370 C   0  0  0  0  0  0  0  0  0  0  0  0
  -27.5780  -17.2360   17.1080 C   0  0  0  0  0  1  0  0  0  0  0  0
  -28.7620  -21.7170   22.2730 C   0  0  0  0  0  2  0  0  0  0  0  0
  -29.4580  -21.2400   21.0530 C   0  0  0  0  0  3  0  0  0  0  0  0
  -28.7280  -22.6950   21.0920 C   0  0  0  0  0  3  0  0  0  0  0  0
  -29.2750  -24.2130   21.2620 C   0  0  0  0  0  3  0  0  0  0  0  0
  -29.8740  -24.3310   23.8340 C   0  0  0  0  0  1  0  0  0  0  0  0
  -28.9850  -24.7940   22.6750 C   0  0  0  0  0  2  0  0  0  0  0  0
  -28.6670  -25.3340   20.2600 C   0  0  0  0  0  2  0  0  0  0  0  0
  -28.9320  -26.8100   20.4420 O   0  0  0  0  0  0  0  0  0  0  0  0
  -25.0330  -31.8950   23.8410 C   0  0  0  0  0  0  0  0  0  0  0  0
  -27.8400  -27.7080   20.4170 C   0  0  0  0  0  0  0  0  0  0  0  0
  -23.9300  -30.6780   21.9970 C   0  0  0  0  0  3  0  0  0  0  0  0
  -25.4690  -29.3270   20.4700 C   0  0  0  0  0  0  0  0  0  0  0  0
  -26.4730  -31.0420   21.9700 C   0  0  0  0  0  2  0  0  0  0  0  0
  -26.6060  -29.7450   21.1720 C   0  0  0  0  0  0  0  0  0  0  0  0
  -27.7960  -28.9500   21.1340 C   0  0  0  0  0  3  0  0  0  0  0  0
  -26.6830  -27.3690   19.6780 C   0  0  0  0  0  3  0  0  0  0  0  0
  -25.5150  -28.1500   19.7100 C   0  0  0  0  0  3  0  0  0  0  0  0
  -24.2200  -30.1780   20.5590 C   0  0  0  0  0  2  0  0  0  0  0  0
  -25.1620  -31.2170   22.6620 N   0  0  0  0  0  0  0  0  0  0  0  0
  -23.9200  -32.0910   24.3520 O   0  0  0  0  0  0  0  0  0  0  0  0
  -23.2450  -29.5470   22.8010 C   0  0  0  0  0  0  0  0  0  0  0  0
  -21.9560  -29.2900   22.5130 N   0  0  0  0  0  0  0  0  0  0  0  0
  -23.8750  -28.9090   23.6500 O   0  0  0  0  0  0  0  0  0  0  0  0
  -21.5010  -29.8700   21.8220 H   0  0  0  0  0  0  0  0  0  0  0  0
  -18.6660  -27.7860   22.4790 C   0  0  0  0  0  0  0  0  0  0  0  0
  -21.1310  -28.2400   23.1150 C   0  0  0  0  0  3  0  0  0  0  0  0
  -21.4410  -26.8600   22.4910 C   0  0  0  0  0  2  0  0  0  0  0  0
  -20.5190  -26.5070   21.3200 C   0  0  0  0  0  2  0  0  0  0  0  0
  -19.0550  -26.4980   21.7710 C   0  0  0  0  0  2  0  0  0  0  0  0
  -19.6430  -28.6110   23.0970 C   0  0  0  0  0  0  0  0  0  0  0  0
  -19.2330  -29.8160   23.7090 C   0  0  0  0  0  3  0  0  0  0  0  0
  -17.8780  -30.1930   23.7210 C   0  0  0  0  0  3  0  0  0  0  0  0
  -16.9120  -29.3620   23.1250 C   0  0  0  0  0  3  0  0  0  0  0  0
  -17.3070  -28.1610   22.5080 C   0  0  0  0  0  3  0  0  0  0  0  0
  -26.2710  -32.4750   24.5910 C   0  0  0  0  0  3  0  0  0  0  0  0
  -26.7010  -31.6110   25.8390 C   0  0  1  0  0  0  0  0  0  0  0  0
  -25.5260  -31.2210   26.7670 C   0  0  0  0  0  1  0  0  0  0  0  0
  -27.3980  -30.3080   25.3870 C   0  0  0  0  0  1  0  0  0  0  0  0
  -27.7310  -32.3920   26.6880 C   0  0  0  0  0  1  0  0  0  0  0  0
  -25.9410  -33.8480   25.0060 N   0  0  0  0  0  0  0  0  0  0  0  0
  -26.3450  -34.9550   24.3690 C   0  0  0  0  0  0  0  0  0  0  0  0
  -27.1060  -34.9280   23.3980 O   0  0  0  0  0  0  0  0  0  0  0  0
  -25.2850  -33.9460   25.7680 H   0  0  0  0  0  0  0  0  0  0  0  0
  -24.6720  -36.7980   24.0080 C   0  0  0  0  0  1  0  0  0  0  0  0
  -25.8270  -36.3080   24.8950 C   0  0  0  0  0  3  0  0  0  0  0  0
  -27.8810  -37.0880   25.9920 C   0  0  0  0  0  1  0  0  0  0  0  0
  -26.8740  -37.3520   24.9680 N   0  0  0  0  0  0  0  0  0  0  0  0
  -26.4610  -38.2620   25.1580 H   0  0  0  0  0  0  0  0  0  0  0  0
  -24.9810  -19.7850   18.9050 C   0  0  0  0  0  1  0  0  0  0  0  0
  -26.0420  -19.4150   18.0310 O   0  0  0  0  0  0  0  0  0  0  0  0
  -30.5100  -17.8330   21.1760 C   0  0  0  0  0  2  0  0  0  0  0  0
  -31.1160  -15.2230   21.1910 C   0  0  0  0  0  0  0  0  0  0  0  0
  -31.0620  -12.9890   20.0810 C   0  0  0  0  0  2  0  0  0  0  0  0
  -30.2430  -13.0980   18.7750 C   0  0  0  0  0  2  0  0  0  0  0  0
  -28.7360  -12.9200   19.0520 C   0  0  0  0  0  2  0  0  0  0  0  0
  -28.2360  -13.7490   20.2680 C   0  0  0  0  0  3  0  0  0  0  0  0
  -29.1850  -13.5970   21.4780 C   0  0  0  0  0  2  0  0  0  0  0  0
  -30.5270  -13.9890   21.0300 N   0  0  0  0  0  0  0  0  0  0  0  0
  -32.3250  -15.3660   20.9920 O   0  0  0  0  0  0  0  0  0  0  0  0
  -30.2770  -16.3180   21.3130 N   0  0  0  0  0  0  0  0  0  0  0  0
  -29.3160  -16.0680   21.4900 H   0  0  0  0  0  0  0  0  0  0  0  0
  -25.7680  -14.2900   20.7170 C   0  0  0  0  0  0  0  0  0  0  0  0
  -24.6840  -13.4900   20.9660 C   0  0  0  0  0  0  0  0  0  0  0  0
  -25.1820  -12.1530   21.0070 C   0  0  0  0  0  0  0  0  0  0  0  0
  -26.8520  -13.4350   20.6090 N   0  0  0  0  0  0  0  0  0  0  0  0
  -26.4990  -12.1460   20.8500 N   0  0  0  0  0  0  0  0  0  0  0  0
  -24.4710  -10.8740   21.1290 C   0  0  0  0  0  0  0  0  0  0  0  0
  -24.8350   -9.9170   22.1020 C   0  0  0  0  0  3  0  0  0  0  0  0
  -24.1240   -8.7030   22.2140 C   0  0  0  0  0  3  0  0  0  0  0  0
  -23.0340   -8.4360   21.3520 C   0  0  0  0  0  0  0  0  0  0  0  0
  -22.6900   -9.3810   20.3700 C   0  0  0  0  0  3  0  0  0  0  0  0
  -23.4020  -10.5870   20.2560 C   0  0  0  0  0  3  0  0  0  0  0  0
  -22.3020   -7.2730   21.3690 O   0  0  0  0  0  0  0  0  0  0  0  0
  -22.0940   -6.5730   22.5300 C   0  0  0  0  0  0  0  0  0  0  0  0
  -21.4640   -7.1570   23.6500 C   0  0  0  0  0  3  0  0  0  0  0  0
  -21.2130   -6.3830   24.8010 C   0  0  0  0  0  3  0  0  0  0  0  0
  -21.5730   -5.0230   24.8260 C   0  0  0  0  0  0  0  0  0  0  0  0
  -22.1900   -4.4360   23.7070 C   0  0  0  0  0  3  0  0  0  0  0  0
  -22.4470   -5.2090   22.5620 C   0  0  0  0  0  0  0  0  0  0  0  0
  -23.0260   -4.6350   21.4800 F   0  0  0  0  0  0  0  0  0  0  0  0
  -21.3210   -4.2740   25.9250 F   0  0  0  0  0  0  0  0  0  0  0  0
  -23.2550  -13.9350   21.0610 C   0  0  0  0  0  0  0  0  0  0  0  0
  -22.4520  -13.2510   21.8680 N   0  0  0  0  0  0  0  0  0  0  0  0
  -22.8520  -14.9270   20.4530 O   0  0  0  0  0  0  0  0  0  0  0  0
  -22.7820  -12.4490   22.3840 H   0  0  0  0  0  0  0  0  0  0  0  0
  -21.4870  -13.5340   21.9710 H   0  0  0  0  0  0  0  0  0  0  0  0
  -25.9150  -15.6620   20.5510 N   0  0  0  0  0  0  0  0  0  0  0  0
  -25.1270  -16.2940   20.6250 H   0  0  0  0  0  0  0  0  0  0  0  0
  -26.7730  -16.1420   20.3230 H   0  0  0  0  0  0  0  0  0  0  0  0
  -30.3000  -16.9490   18.2880 C   0  0  0  0  0  2  0  0  0  0  0  0
  -31.0900  -17.6910   17.2920 N   0  0  0  0  0  4  0  0  0  0  0  0
  -30.5120  -17.9890   16.5280 H   0  0  0  0  0  0  0  0  0  0  0  0
  -31.8250  -17.1110   16.9290 H   0  0  0  0  0  0  0  0  0  0  0  0
  -31.4970  -18.5050   17.7200 H   0  0  0  0  0  0  0  0  0  0  0  0
  1  2  1  0
  3  2  2  0
  3 58  1  0
  4  3  1  0
  5  6  1  0
  5  4  2  0
  6  1  2  0
  7  5  1  0
  9  2  1  0
  9 10  1  0
  9  8  1  0
 10 11  1  0
 10  8  1  0
 11 14  1  0
 11 13  1  0
 13 12  1  0
 14 15  1  0
 16 27  2  0
 17 15  1  0
 17 22  1  0
 18 26  1  0
 18 28  1  0
 19 25  1  0
 19 21  1  0
 20 26  1  0
 21 20  1  0
 22 21  2  0
 23 24  1  0
 23 17  2  0
 24 19  2  0
 25 18  1  0
 26 16  1  0
 28 30  2  0
 29 28  1  0
 31 29  1  0
 32 41  2  0
 32 37  1  0
 33 29  1  0
 34 33  1  0
 35 36  1  0
 35 34  1  0
 36 32  1  0
 37 33  1  0
 37 38  2  0
 38 39  1  0
 40 39  2  0
 41 40  1  0
 42 16  1  0
 42 47  1  0
 42 43  1  0
 43 46  1  1
 43 44  1  0
 45 43  1  0
 47 50  1  0
 48 52  1  0
 48 47  1  0
 49 48  2  0
 52 51  1  0
 52 54  1  0
 54 55  1  0
 54 53  1  0
 57  6  1  0
 57 56  1  0
 58 67  1  0
 59 67  1  0
 60 65  1  0
 61 62  1  0
 61 60  1  0
 63 62  1  0
 63 72  1  0
 63 64  1  0
 65 59  1  0
 65 64  1  0
 66 59  2  0
 67 68  1  0
 69 70  2  0
 70 71  1  0
 70 89  1  0
 71 74  1  0
 72 69  1  0
 72 73  1  0
 73 71  2  0
 74 75  1  0
 75 76  2  0
 77 80  1  0
 77 76  1  0
 78 77  2  0
 79 78  1  0
 79 74  2  0
 80 81  1  0
 81 86  2  0
 81 82  1  0
 82 83  2  0
 83 84  1  0
 84 88  1  0
 85 84  2  0
 86 85  1  0
 87 86  1  0
 89 90  1  0
 90 93  1  0
 90 92  1  0
 91 89  2  0
 94 95  1  0
 94 69  1  0
 96 94  1  0
 97  4  1  0
 98101  1  0
 98 97  1  0
 99 98  1  0
100 98  1  0
M  ISO  4  14 101  15 101  59 100  67 100
M  END
>  <TORSDO>  (4) 
F 24

>  <SCORE>  (4) 
-7.844

>  <name>  (4) 
3

>  <ligand_id>  (4) 
3

>  <original_smiles>  (4) 
[H]c1c([H])c([H])c2c(c1[H])C([H])([H])C([H])([H])C([H])([H])C2([H])N([H])C(=O)C1([H])N(C(=O)C([H])(N([H])C(=O)C([H])(N([H])C([H])([H])[H])C([H])([H])[H])C(C([H])([H])[H])(C([H])([H])[H])C([H])([H])[H])C([H])([H])c2c([H])c(OC([H])([H])C([H])(C([H])([H])C([H])([H])[H])C3([H])C([H])([H])C3([H])c3c([H])c(OC([H])([H])[H])c(C([H])([H])[H])c(C([H])([H])[N+]([H])([H])[H])c3C([H])([H])N([H])C(=O)N3C([H])([H])C([H])([H])C([H])([H])C([H])(n4nc(-c5c([H])c([H])c(Oc6c([H])c([H])c(F)c([H])c6F)c([H])c5[H])c(C(=O)N([H])[H])c4N([H])[H])C3([H])[H])c([H])c([H])c2C1([H])[H]

>  <smiles>  (4) 
[H]c1c([H])c([H])c2c(c1[H])C([H])([H])C([H])([H])C([H])([H])C2([H])N([H])C(=O)C1([H])N(C(=O)C([H])(N([H])C(=O)C([H])(N([H])C([H])([H])[H])C([H])([H])[H])C(C([H])([H])[H])(C([H])([H])[H])C([H])([H])[H])C([H])([H])c2c([H])c(OC([H])([H])C([H])(C([H])([H])C([H])([H])[H])C3([H])C([H])([H])C3([H])c3c([H])c(OC([H])([H])[H])c(C([H])([H])[H])c(C([H])([H])[N+]([H])([H])[H])c3C([H])([H])N([H])C(=O)N3C([H])([H])C([H])([H])C([H])([H])C([H])(n4nc(-c5c([H])c([H])c(Oc6c([H])c([H])c(F)c([H])c6F)c([H])c5[H])c(C(=O)N([H])[H])c4N([H])[H])C3([H])[H])c([H])c([H])c2C1([H])[H]

$$$$
4:0:0
     RDKit          3D

103113  0  0  1  0  0  0  0  0999 V2000
  -31.9950  -27.0820   18.7210 C   0  0  0  0  0  2  0  0  0  0  0  0
  -31.4530  -28.3810   16.5950 C   0  0  0  0  0  1  0  0  0  0  0  0
  -31.2660  -27.0570   17.3620 C   0  0  0  0  0  3  0  0  0  0  0  0
  -30.3040  -25.3190   15.7430 C   0  0  0  0  0  2  0  0  0  0  0  0
  -30.5790  -24.6750   14.3770 C   0  0  0  0  0  2  0  0  0  0  0  0
  -32.8300  -25.8760   15.6120 C   0  0  0  0  0  2  0  0  0  0  0  0
  -31.5700  -25.7760   16.5160 C   0  0  0  0  0  3  0  0  0  0  0  0
  -31.8440  -23.8130   14.3700 C   0  0  0  0  0  3  0  0  0  0  0  0
  -33.0940  -24.6980   14.6150 C   0  0  0  0  0  3  0  0  0  0  0  0
  -31.7640  -22.6100   15.3300 C   0  0  0  0  0  1  0  0  0  0  0  0
  -33.6860  -25.2890   13.3030 C   0  0  0  0  0  2  0  0  0  0  0  0
  -32.7150  -25.8490   12.4140 O   0  0  0  0  0  0  0  0  0  0  0  0
  -36.7170  -31.7020   12.1420 C   0  0  0  0  0  0  0  0  0  0  0  0
  -32.7400  -27.2200   12.4300 C   0  0  0  0  0  0  0  0  0  0  0  0
  -34.3870  -32.0240   12.9140 C   0  0  0  0  0  3  0  0  0  0  0  0
  -32.8260  -30.0330   12.5770 C   0  0  0  0  0  0  0  0  0  0  0  0
  -34.9780  -30.1260   11.3070 C   0  0  0  0  0  2  0  0  0  0  0  0
  -33.8480  -29.3330   11.9220 C   0  0  0  0  0  0  0  0  0  0  0  0
  -33.8110  -27.9270   11.8460 C   0  0  0  0  0  3  0  0  0  0  0  0
  -31.7180  -27.9320   13.0890 C   0  0  0  0  0  3  0  0  0  0  0  0
  -31.7570  -29.3370   13.1670 C   0  0  0  0  0  3  0  0  0  0  0  0
  -32.9420  -31.5390   12.6070 C   0  0  0  0  0  2  0  0  0  0  0  0
  -35.4220  -31.2730   12.1320 N   0  0  0  0  0  0  0  0  0  0  0  0
  -37.0470  -32.7300   12.7480 O   0  0  0  0  0  0  0  0  0  0  0  0
  -34.6150  -31.9680   14.4430 C   0  0  0  0  0  0  0  0  0  0  0  0
  -34.0650  -32.9580   15.1660 N   0  0  0  0  0  0  0  0  0  0  0  0
  -35.2490  -31.0400   14.9520 O   0  0  0  0  0  0  0  0  0  0  0  0
  -33.5670  -33.6840   14.6690 H   0  0  0  0  0  0  0  0  0  0  0  0
  -33.7560  -35.3220   17.8780 C   0  0  0  0  0  0  0  0  0  0  0  0
  -34.1160  -33.0920   16.6220 C   0  0  0  0  0  3  0  0  0  0  0  0
  -32.7900  -32.6300   17.2640 C   0  0  0  0  0  2  0  0  0  0  0  0
  -31.7930  -33.7730   17.4800 C   0  0  0  0  0  2  0  0  0  0  0  0
  -32.4010  -34.8540   18.3800 C   0  0  0  0  0  2  0  0  0  0  0  0
  -34.5550  -34.5000   17.0400 C   0  0  0  0  0  0  0  0  0  0  0  0
  -35.7910  -34.9950   16.5720 C   0  0  0  0  0  3  0  0  0  0  0  0
  -36.2320  -36.2830   16.9280 C   0  0  0  0  0  3  0  0  0  0  0  0
  -35.4460  -37.0840   17.7750 C   0  0  0  0  0  3  0  0  0  0  0  0
  -34.2130  -36.6030   18.2490 C   0  0  0  0  0  3  0  0  0  0  0  0
  -37.8370  -30.9360   11.3670 C   0  0  0  0  0  3  0  0  0  0  0  0
  -38.4180  -31.8710   10.3950 N   0  0  0  0  0  0  0  0  0  0  0  0
  -38.1650  -31.8550    9.0790 C   0  0  0  0  0  0  0  0  0  0  0  0
  -37.4590  -30.9960    8.5450 O   0  0  0  0  0  0  0  0  0  0  0  0
  -38.9570  -32.6360   10.7720 H   0  0  0  0  0  0  0  0  0  0  0  0
  -37.7030  -33.9770    7.8120 C   0  0  0  0  0  1  0  0  0  0  0  0
  -38.7920  -32.9750    8.2250 C   0  0  0  0  0  3  0  0  0  0  0  0
  -40.7580  -31.8150    7.3220 C   0  0  0  0  0  1  0  0  0  0  0  0
  -39.4880  -32.4730    7.0230 N   0  0  0  0  0  0  0  0  0  0  0  0
  -39.6700  -33.2290    6.3690 H   0  0  0  0  0  0  0  0  0  0  0  0
  -38.9480  -30.3410   12.3150 C   0  0  1  0  0  0  0  0  0  0  0  0
  -39.8990  -31.4090   12.9020 C   0  0  0  0  0  1  0  0  0  0  0  0
  -38.3030  -29.5860   13.5000 C   0  0  0  0  0  1  0  0  0  0  0  0
  -39.8060  -29.3140   11.5410 C   0  0  0  0  0  1  0  0  0  0  0  0
  -31.0270  -27.1150   19.9300 C   0  0  0  0  0  2  0  0  0  0  0  0
  -30.1410  -25.2670   21.5010 C   0  0  0  0  0  2  0  0  0  0  0  0
  -28.8440  -24.5180   21.8700 C   0  0  0  0  0  2  0  0  0  0  0  0
  -28.8570  -23.5690   18.3650 C   0  0  0  0  0  2  0  0  0  0  0  0
  -28.1420  -24.4920   19.3750 C   0  0  0  0  0  3  0  0  0  0  0  0
  -30.1810  -25.8380   20.0690 C   0  0  0  0  0  3  0  0  0  0  0  0
  -29.6880  -22.5720   19.1800 C   0  0  0  0  0  3  0  0  0  0  0  0
  -28.7860  -25.9060   19.4030 C   0  0  0  0  0  3  0  0  0  0  0  0
  -28.7980  -22.3330   20.4030 C   0  0  0  0  0  3  0  0  0  0  0  0
  -28.1420  -23.7130   20.7330 C   0  0  1  0  0  0  0  0  0  0  0  0
  -27.8450  -27.0080   19.9400 C   0  0  0  0  0  1  0  0  0  0  0  0
  -29.4990  -21.6150   21.5720 C   0  0  0  0  0  1  0  0  0  0  0  0
  -26.6930  -23.4640   21.2020 C   0  0  0  0  0  1  0  0  0  0  0  0
  -30.0680  -21.3190   18.3670 C   0  0  0  0  0  2  0  0  0  0  0  0
  -28.8990  -20.7930   17.5080 C   0  0  0  0  0  2  0  0  0  0  0  0
  -28.1050  -19.7070   18.2440 C   0  0  0  0  0  0  0  0  0  0  0  0
  -27.7790  -17.3560   18.9280 C   0  0  0  0  0  2  0  0  0  0  0  0
  -28.4490  -17.0500   20.2790 C   0  0  0  0  0  2  0  0  0  0  0  0
  -29.9300  -16.6710   20.0820 C   0  0  0  0  0  2  0  0  0  0  0  0
  -30.6890  -17.6850   19.1840 C   0  0  0  0  0  3  0  0  0  0  0  0
  -29.8930  -17.9610   17.8870 C   0  0  0  0  0  2  0  0  0  0  0  0
  -28.5480  -18.4220   18.2690 N   0  0  0  0  0  0  0  0  0  0  0  0
  -27.0460  -20.0500   18.7780 O   0  0  0  0  0  0  0  0  0  0  0  0
  -33.2610  -17.8180   19.2260 C   0  0  0  0  0  0  0  0  0  0  0  0
  -34.2280  -16.9480   18.7960 C   0  0  0  0  0  0  0  0  0  0  0  0
  -33.5350  -15.8380   18.2270 C   0  0  0  0  0  0  0  0  0  0  0  0
  -32.0480  -17.2270   18.9030 N   0  0  0  0  0  0  0  0  0  0  0  0
  -32.2250  -16.0480   18.2530 N   0  0  0  0  0  0  0  0  0  0  0  0
  -34.0390  -14.5590   17.7090 C   0  0  0  0  0  0  0  0  0  0  0  0
  -34.1870  -14.3310   16.3240 C   0  0  0  0  0  3  0  0  0  0  0  0
  -34.6910  -13.1010   15.8500 C   0  0  0  0  0  3  0  0  0  0  0  0
  -35.0580  -12.0850   16.7640 C   0  0  0  0  0  0  0  0  0  0  0  0
  -34.8880  -12.3080   18.1430 C   0  0  0  0  0  3  0  0  0  0  0  0
  -34.3790  -13.5310   18.6110 C   0  0  0  0  0  3  0  0  0  0  0  0
  -35.5310  -10.8490   16.3960 O   0  0  0  0  0  0  0  0  0  0  0  0
  -36.7380  -10.7000   15.7610 C   0  0  0  0  0  0  0  0  0  0  0  0
  -37.9610  -10.9940   16.4040 C   0  0  0  0  0  3  0  0  0  0  0  0
  -39.1790  -10.7620   15.7380 C   0  0  0  0  0  3  0  0  0  0  0  0
  -39.1810  -10.2300   14.4350 C   0  0  0  0  0  0  0  0  0  0  0  0
  -37.9650   -9.9320   13.7930 C   0  0  0  0  0  3  0  0  0  0  0  0
  -36.7470  -10.1660   14.4570 C   0  0  0  0  0  0  0  0  0  0  0  0
  -35.5790   -9.8570   13.8430 F   0  0  0  0  0  0  0  0  0  0  0  0
  -40.3520  -10.0000   13.7960 F   0  0  0  0  0  0  0  0  0  0  0  0
  -35.7100  -17.0940   18.9850 C   0  0  0  0  0  0  0  0  0  0  0  0
  -36.4960  -16.7300   17.9770 N   0  0  0  0  0  0  0  0  0  0  0  0
  -36.1800  -17.5790   20.0130 O   0  0  0  0  0  0  0  0  0  0  0  0
  -36.1120  -16.3510   17.1240 H   0  0  0  0  0  0  0  0  0  0  0  0
  -37.4970  -16.8320   18.0580 H   0  0  0  0  0  0  0  0  0  0  0  0
  -33.3130  -19.0450   19.8790 N   0  0  0  0  0  0  0  0  0  0  0  0
  -34.1890  -19.4680   20.1690 H   0  0  0  0  0  0  0  0  0  0  0  0
  -32.5010  -19.5800   20.1670 H   0  0  0  0  0  0  0  0  0  0  0  0
  1 53  1  0
  3  2  1  0
  3  1  1  0
  4  7  1  0
  5  4  1  0
  6  7  1  0
  7  3  1  0
  8  5  1  0
  8  9  1  0
  8 10  1  0
  9 11  1  0
  9  6  1  0
 12 14  1  0
 12 11  1  0
 13 24  2  0
 14 20  1  0
 15 25  1  0
 16 22  1  0
 16 21  1  0
 17 18  1  0
 17 23  1  0
 18 16  2  0
 19 18  1  0
 19 14  2  0
 20 21  2  0
 22 15  1  0
 23 13  1  0
 23 15  1  0
 25 27  2  0
 25 26  1  0
 28 26  1  0
 29 38  1  0
 29 33  1  0
 30 26  1  0
 30 34  1  0
 30 31  1  0
 31 32  1  0
 32 33  1  0
 34 29  2  0
 35 36  2  0
 35 34  1  0
 36 37  1  0
 37 38  2  0
 39 13  1  0
 39 49  1  0
 40 43  1  0
 40 39  1  0
 41 40  1  0
 42 41  2  0
 45 44  1  0
 45 41  1  0
 47 46  1  0
 47 45  1  0
 48 47  1  0
 49 50  1  1
 49 51  1  0
 52 49  1  0
 54 55  1  0
 56 59  1  0
 57 56  1  0
 57 60  1  0
 57 62  1  0
 58 53  1  0
 58 54  1  0
 59 66  1  0
 59 61  1  0
 60 63  1  0
 60 58  1  0
 61 62  1  0
 61 64  1  0
 62 65  1  1
 62 55  1  0
 67 68  1  0
 67 66  1  0
 68 74  1  0
 68 75  2  0
 69 70  1  0
 71 70  1  0
 72 73  1  0
 72 71  1  0
 73 74  1  0
 74 69  1  0
 76101  1  0
 77 96  1  0
 77 76  2  0
 78 80  2  0
 78 77  1  0
 79 72  1  0
 79 76  1  0
 80 79  1  0
 81 78  1  0
 81 86  1  0
 82 81  2  0
 83 82  1  0
 83 84  2  0
 84 85  1  0
 85 86  2  0
 87 84  1  0
 88 87  1  0
 88 89  1  0
 90 89  2  0
 91 90  1  0
 92 91  2  0
 92 93  1  0
 93 88  2  0
 94 93  1  0
 95 91  1  0
 96 98  2  0
 97100  1  0
 97 96  1  0
 99 97  1  0
101103  1  0
101102  1  0
M  ISO  4  11 101  12 101  67 100  68 100
M  END
>  <TORSDO>  (5) 
F 23

>  <SCORE>  (5) 
-4.375

>  <name>  (5) 
4

>  <ligand_id>  (5) 
4

>  <original_smiles>  (5) 
[H]c1c([H])c([H])c2c(c1[H])C([H])([H])C([H])([H])C([H])([H])C2([H])N([H])C(=O)C1([H])N(C(=O)C([H])(N([H])C(=O)C([H])(N([H])C([H])([H])[H])C([H])([H])[H])C(C([H])([H])[H])(C([H])([H])[H])C([H])([H])[H])C([H])([H])c2c([H])c(OC([H])([H])C3([H])C([H])([H])C([H])(C([H])(C([H])([H])[H])C([H])([H])C([H])([H])C4([H])C([H])([H])C([H])([H])C5(C([H])([H])[H])C([H])(C([H])([H])[H])C([H])(C([H])([H])C([H])([H])C(=O)N6C([H])([H])C([H])([H])C([H])([H])C([H])(n7nc(-c8c([H])c([H])c(Oc9c([H])c([H])c(F)c([H])c9F)c([H])c8[H])c(C(=O)N([H])[H])c7N([H])[H])C6([H])[H])C([H])([H])C5([H])C4([H])C([H])([H])[H])C([H])([H])C([H])([H])C3([H])C([H])([H])[H])c([H])c([H])c2C1([H])[H]

>  <smiles>  (5) 
[H]c1c([H])c([H])c2c(c1[H])C([H])([H])C([H])([H])C([H])([H])C2([H])N([H])C(=O)C1([H])N(C(=O)C([H])(N([H])C(=O)C([H])(N([H])C([H])([H])[H])C([H])([H])[H])C(C([H])([H])[H])(C([H])([H])[H])C([H])([H])[H])C([H])([H])c2c([H])c(OC([H])([H])C3([H])C([H])([H])C([H])(C([H])(C([H])([H])[H])C([H])([H])C([H])([H])C4([H])C([H])([H])C([H])([H])C5(C([H])([H])[H])C([H])(C([H])([H])[H])C([H])(C([H])([H])C([H])([H])C(=O)N6C([H])([H])C([H])([H])C([H])([H])C([H])(n7nc(-c8c([H])c([H])c(Oc9c([H])c([H])c(F)c([H])c9F)c([H])c8[H])c(C(=O)N([H])[H])c7N([H])[H])C6([H])[H])C([H])([H])C5([H])C4([H])C([H])([H])[H])C([H])([H])C([H])([H])C3([H])C([H])([H])[H])c([H])c([H])c2C1([H])[H]

$$$$
5:0:0
     RDKit          3D

 98107  0  0  1  0  0  0  0  0999 V2000
  -28.9970  -21.6260   19.2730 C   0  0  0  0  0  3  0  0  0  0  0  0
  -28.5030  -22.9050   18.9410 C   0  0  0  0  0  0  0  0  0  0  0  0
  -30.1950  -23.9200   20.3900 C   0  0  0  0  0  0  0  0  0  0  0  0
  -29.0840  -24.0770   19.5000 C   0  0  0  0  0  0  0  0  0  0  0  0
  -30.6910  -22.6110   20.7350 C   0  0  0  0  0  0  0  0  0  0  0  0
  -30.0850  -21.4540   20.1450 C   0  0  0  0  0  0  0  0  0  0  0  0
  -27.3690  -22.9780   17.9260 C   0  0  0  0  0  1  0  0  0  0  0  0
  -30.3130  -25.6120   22.3080 C   0  0  0  0  0  1  0  0  0  0  0  0
  -30.8770  -25.1810   20.9430 C   0  0  0  0  0  2  0  0  0  0  0  0
  -31.4480  -21.9130   23.1090 C   0  0  0  0  0  1  0  0  0  0  0  0
  -31.8740  -22.4590   21.7320 C   0  0  0  0  0  3  0  0  0  0  0  0
  -33.5670  -22.2660   19.7730 C   0  0  0  0  0  1  0  0  0  0  0  0
  -33.1360  -21.7650   21.1610 C   0  0  0  0  0  2  0  0  0  0  0  0
  -28.5860  -25.4770   19.0340 C   0  0  0  0  0  2  0  0  0  0  0  0
  -28.2180  -26.4050   20.0720 O   0  0  0  0  0  0  0  0  0  0  0  0
  -24.5160  -31.6600   23.1170 C   0  0  0  0  0  0  0  0  0  0  0  0
  -27.0480  -27.1420   20.0180 C   0  0  0  0  0  0  0  0  0  0  0  0
  -23.2770  -30.2970   21.4650 C   0  0  0  0  0  3  0  0  0  0  0  0
  -24.6890  -28.7190   20.0390 C   0  0  0  0  0  0  0  0  0  0  0  0
  -25.8130  -30.5780   21.2800 C   0  0  0  0  0  2  0  0  0  0  0  0
  -25.8580  -29.2060   20.6350 C   0  0  0  0  0  0  0  0  0  0  0  0
  -27.0340  -28.4210   20.6270 C   0  0  0  0  0  3  0  0  0  0  0  0
  -25.8530  -26.6640   19.4340 C   0  0  0  0  0  3  0  0  0  0  0  0
  -24.6810  -27.4480   19.4390 C   0  0  0  0  0  3  0  0  0  0  0  0
  -23.4700  -29.6130   20.0840 C   0  0  0  0  0  2  0  0  0  0  0  0
  -24.5530  -30.8610   22.0130 N   0  0  0  0  0  0  0  0  0  0  0  0
  -23.4400  -31.9630   23.6510 O   0  0  0  0  0  0  0  0  0  0  0  0
  -22.5910  -29.2950   22.4210 C   0  0  0  0  0  0  0  0  0  0  0  0
  -21.2580  -29.1730   22.3040 N   0  0  0  0  0  0  0  0  0  0  0  0
  -23.2530  -28.6320   23.2230 O   0  0  0  0  0  0  0  0  0  0  0  0
  -20.7890  -29.7560   21.6260 H   0  0  0  0  0  0  0  0  0  0  0  0
  -17.8370  -28.1320   22.8220 C   0  0  0  0  0  0  0  0  0  0  0  0
  -20.4070  -28.2610   23.0690 C   0  0  0  0  0  3  0  0  0  0  0  0
  -20.4350  -26.8370   22.4650 C   0  0  0  0  0  2  0  0  0  0  0  0
  -19.3060  -26.5860   21.4600 C   0  0  0  0  0  2  0  0  0  0  0  0
  -17.9420  -26.7860   22.1240 C   0  0  0  0  0  2  0  0  0  0  0  0
  -18.9960  -28.8310   23.2510 C   0  0  0  0  0  0  0  0  0  0  0  0
  -18.8450  -30.0940   23.8630 C   0  0  0  0  0  3  0  0  0  0  0  0
  -17.5670  -30.6540   24.0530 C   0  0  0  0  0  3  0  0  0  0  0  0
  -16.4230  -29.9480   23.6430 C   0  0  0  0  0  3  0  0  0  0  0  0
  -16.5590  -28.6900   23.0310 C   0  0  0  0  0  3  0  0  0  0  0  0
  -25.8170  -32.2500   23.7440 C   0  0  0  0  0  3  0  0  0  0  0  0
  -25.5410  -33.6480   24.1010 N   0  0  0  0  0  0  0  0  0  0  0  0
  -25.8720  -34.7060   23.3470 C   0  0  0  0  0  0  0  0  0  0  0  0
  -26.5140  -34.6050   22.2980 O   0  0  0  0  0  0  0  0  0  0  0  0
  -24.9690  -33.8020   24.9190 H   0  0  0  0  0  0  0  0  0  0  0  0
  -24.1600  -36.5260   23.0640 C   0  0  0  0  0  1  0  0  0  0  0  0
  -25.4190  -36.0940   23.8340 C   0  0  0  0  0  3  0  0  0  0  0  0
  -27.5840  -36.9460   24.6200 C   0  0  0  0  0  1  0  0  0  0  0  0
  -26.4630  -37.1350   23.7030 N   0  0  0  0  0  0  0  0  0  0  0  0
  -26.0730  -38.0590   23.8630 H   0  0  0  0  0  0  0  0  0  0  0  0
  -26.3210  -31.4440   25.0040 C   0  0  1  0  0  0  0  0  0  0  0  0
  -25.2270  -31.2080   26.0710 C   0  0  0  0  0  1  0  0  0  0  0  0
  -26.8730  -30.0620   24.5810 C   0  0  0  0  0  1  0  0  0  0  0  0
  -27.4890  -32.2010   25.6780 C   0  0  0  0  0  1  0  0  0  0  0  0
  -30.7380  -19.7940   20.4000 S   0  0  0  0  0  0  0  0  0  0  0  0
  -30.6520  -14.2410   19.9650 C   0  0  0  0  0  0  0  0  0  0  0  0
  -30.2720  -12.0340   18.9450 C   0  0  0  0  0  2  0  0  0  0  0  0
  -29.2680  -12.2130   17.7900 C   0  0  0  0  0  2  0  0  0  0  0  0
  -27.8220  -12.0860   18.3090 C   0  0  0  0  0  2  0  0  0  0  0  0
  -27.5540  -12.9610   19.5620 C   0  0  0  0  0  3  0  0  0  0  0  0
  -28.6790  -12.8100   20.6130 C   0  0  0  0  0  2  0  0  0  0  0  0
  -29.9610  -13.0680   19.9420 N   0  0  0  0  0  0  0  0  0  0  0  0
  -31.8010  -14.3430   19.5250 O   0  0  0  0  0  0  0  0  0  0  0  0
  -29.4800  -17.5240   21.4570 C   0  0  0  0  0  2  0  0  0  0  0  0
  -29.8730  -17.5650   18.9560 C   0  0  0  0  0  2  0  0  0  0  0  0
  -30.3190  -16.2210   21.3570 C   0  0  0  0  0  2  0  0  0  0  0  0
  -29.3710  -16.1050   19.0640 C   0  0  0  0  0  2  0  0  0  0  0  0
  -29.5330  -18.4210   20.1950 C   0  0  0  0  0  3  0  0  0  0  0  0
  -29.9250  -15.3600   20.2230 N   0  0  0  0  0  0  0  0  0  0  0  0
  -25.2370  -13.6070   20.4670 C   0  0  0  0  0  0  0  0  0  0  0  0
  -24.1730  -12.8540   20.8850 C   0  0  0  0  0  0  0  0  0  0  0  0
  -24.5900  -11.4910   20.7740 C   0  0  0  0  0  0  0  0  0  0  0  0
  -26.2340  -12.7050   20.1310 N   0  0  0  0  0  0  0  0  0  0  0  0
  -25.8520  -11.4260   20.3740 N   0  0  0  0  0  0  0  0  0  0  0  0
  -23.8400  -10.2440   20.9730 C   0  0  0  0  0  0  0  0  0  0  0  0
  -24.2630   -9.2650   21.9010 C   0  0  0  0  0  3  0  0  0  0  0  0
  -23.5160   -8.0810   22.0830 C   0  0  0  0  0  3  0  0  0  0  0  0
  -22.3310   -7.8680   21.3390 C   0  0  0  0  0  0  0  0  0  0  0  0
  -21.9260   -8.8350   20.4020 C   0  0  0  0  0  3  0  0  0  0  0  0
  -22.6740  -10.0090   20.2170 C   0  0  0  0  0  3  0  0  0  0  0  0
  -21.5570   -6.7370   21.4300 O   0  0  0  0  0  0  0  0  0  0  0  0
  -21.4680   -6.0200   22.5960 C   0  0  0  0  0  0  0  0  0  0  0  0
  -20.9640   -6.5910   23.7850 C   0  0  0  0  0  3  0  0  0  0  0  0
  -20.8250   -5.7980   24.9410 C   0  0  0  0  0  3  0  0  0  0  0  0
  -21.1800   -4.4370   24.9090 C   0  0  0  0  0  0  0  0  0  0  0  0
  -21.6790   -3.8660   23.7260 C   0  0  0  0  0  3  0  0  0  0  0  0
  -21.8200   -4.6550   22.5720 C   0  0  0  0  0  0  0  0  0  0  0  0
  -22.2810   -4.0960   21.4270 F   0  0  0  0  0  0  0  0  0  0  0  0
  -21.0380   -3.6720   26.0180 F   0  0  0  0  0  0  0  0  0  0  0  0
  -22.8160  -13.3630   21.2730 C   0  0  0  0  0  0  0  0  0  0  0  0
  -22.1280  -12.6550   22.1630 N   0  0  0  0  0  0  0  0  0  0  0  0
  -22.3750  -14.4200   20.8260 O   0  0  0  0  0  0  0  0  0  0  0  0
  -22.4960  -11.7960   22.5450 H   0  0  0  0  0  0  0  0  0  0  0  0
  -21.2200  -12.9790   22.4680 H   0  0  0  0  0  0  0  0  0  0  0  0
  -25.4380  -14.9780   20.3270 N   0  0  0  0  0  0  0  0  0  0  0  0
  -24.7100  -15.6600   20.5130 H   0  0  0  0  0  0  0  0  0  0  0  0
  -26.2930  -15.3950   19.9830 H   0  0  0  0  0  0  0  0  0  0  0  0
  1  6  1  0
  2  1  2  0
  2  4  1  0
  3  5  1  0
  3  9  1  0
  4  3  2  0
  5 11  1  0
  6 56  1  0
  6  5  2  0
  7  2  1  0
  9  8  1  0
 11 10  1  0
 12 13  1  0
 13 11  1  0
 14  4  1  0
 14 15  1  0
 16 27  2  0
 17 15  1  0
 17 22  1  0
 18 26  1  0
 18 28  1  0
 19 25  1  0
 19 21  1  0
 20 26  1  0
 21 20  1  0
 22 21  2  0
 23 24  1  0
 23 17  2  0
 24 19  2  0
 25 18  1  0
 26 16  1  0
 28 30  2  0
 29 28  1  0
 31 29  1  0
 32 41  2  0
 32 37  1  0
 33 29  1  0
 33 37  1  0
 34 33  1  0
 35 36  1  0
 35 34  1  0
 36 32  1  0
 37 38  2  0
 38 39  1  0
 40 39  2  0
 41 40  1  0
 42 16  1  0
 42 43  1  0
 42 52  1  0
 43 46  1  0
 44 48  1  0
 44 43  1  0
 45 44  2  0
 48 47  1  0
 50 48  1  0
 50 51  1  0
 50 49  1  0
 52 55  1  1
 52 53  1  0
 54 52  1  0
 57 70  1  0
 58 63  1  0
 59 60  1  0
 59 58  1  0
 61 60  1  0
 61 74  1  0
 61 62  1  0
 63 57  1  0
 63 62  1  0
 64 57  2  0
 66 68  1  0
 66 69  1  0
 67 65  1  0
 68 70  1  0
 69 56  1  0
 69 65  1  0
 70 67  1  0
 71 72  2  0
 72 91  1  0
 73 72  1  0
 73 76  1  0
 74 75  1  0
 74 71  1  0
 75 73  2  0
 76 77  1  0
 77 78  2  0
 79 82  1  0
 79 78  1  0
 80 79  2  0
 81 80  1  0
 81 76  2  0
 82 83  1  0
 83 84  1  0
 84 85  2  0
 86 85  1  0
 86 90  1  0
 87 86  2  0
 88 83  2  0
 88 87  1  0
 89 88  1  0
 91 92  1  0
 92 95  1  0
 92 94  1  0
 93 91  2  0
 96 71  1  0
 96 97  1  0
 98 96  1  0
M  ISO  4  14 101  15 101  57 100  70 100
M  END
>  <TORSDO>  (6) 
F 21

>  <SCORE>  (6) 
-12.083

>  <name>  (6) 
5

>  <ligand_id>  (6) 
5

>  <original_smiles>  (6) 
[H]c1c([H])c([H])c2c(c1[H])C([H])([H])C([H])([H])C([H])([H])C2([H])N([H])C(=O)C1([H])N(C(=O)C([H])(N([H])C(=O)C([H])(N([H])C([H])([H])[H])C([H])([H])[H])C(C([H])([H])[H])(C([H])([H])[H])C([H])([H])[H])C([H])([H])c2c([H])c(OC([H])([H])c3c(C([H])([H])[H])c([H])c(SC4([H])C([H])([H])C([H])([H])N(C(=O)N5C([H])([H])C([H])([H])C([H])([H])C([H])(n6nc(-c7c([H])c([H])c(Oc8c([H])c([H])c(F)c([H])c8F)c([H])c7[H])c(C(=O)N([H])[H])c6N([H])[H])C5([H])[H])C([H])([H])C4([H])[H])c(C([H])(C([H])([H])[H])C([H])([H])C([H])([H])[H])c3C([H])([H])C([H])([H])[H])c([H])c([H])c2C1([H])[H]

>  <smiles>  (6) 
[H]c1c([H])c([H])c2c(c1[H])C([H])([H])C([H])([H])C([H])([H])C2([H])N([H])C(=O)C1([H])N(C(=O)C([H])(N([H])C(=O)C([H])(N([H])C([H])([H])[H])C([H])([H])[H])C(C([H])([H])[H])(C([H])([H])[H])C([H])([H])[H])C([H])([H])c2c([H])c(OC([H])([H])c3c(C([H])([H])[H])c([H])c(SC4([H])C([H])([H])C([H])([H])N(C(=O)N5C([H])([H])C([H])([H])C([H])([H])C([H])(n6nc(-c7c([H])c([H])c(Oc8c([H])c([H])c(F)c([H])c8F)c([H])c7[H])c(C(=O)N([H])[H])c6N([H])[H])C5([H])[H])C([H])([H])C4([H])[H])c(C([H])(C([H])([H])[H])C([H])([H])C([H])([H])[H])c3C([H])([H])C([H])([H])[H])c([H])c([H])c2C1([H])[H]

$$$$
6:0:0
     RDKit          3D

 96 99  0  0  1  0  0  0  0  0999 V2000
  -28.6130  -16.3330   20.3490 C   0  0  0  0  0 15  0  0  0  0  0  0
  -28.2400  -16.9660   18.4460 C   0  0  0  0  0  1  0  0  0  0  0  0
  -29.3320  -18.5060   17.7840 C   0  0  0  0  0  2  0  0  0  0  0  0
  -30.0800  -17.3670   21.2790 C   0  0  0  0  0  2  0  0  0  0  0  0
  -30.3260  -19.7630   18.9000 C   0  0  0  0  0  2  0  0  0  0  0  0
  -30.5410  -17.0620   22.6850 C   0  0  0  0  0  1  0  0  0  0  0  0
  -30.8560  -18.8590   20.4130 N   0  0  0  0  0  0  0  0  0  0  0  0
  -28.9030  -19.0110   16.6020 F   0  0  0  0  0  0  0  0  0  0  0  0
  -31.4490  -19.4230   21.0260 H   0  0  0  0  0  0  0  0  0  0  0  0
  -31.2670  -22.4300   17.9090 C   0  0  0  0  0  1  0  0  0  0  0  0
  -29.9780  -22.0410   18.6510 C   0  0  0  0  0  1  0  0  0  0  0  0
  -29.6350  -24.1290   19.2020 O   0  0  0  0  0  1  0  0  0  0  0  0
  -25.9870  -30.9260   22.8850 C   0  0  0  0  0  0  0  0  0  0  0  0
  -28.7000  -25.6680   19.2760 C   0  0  0  0  0  0  0  0  0  0  0  0
  -24.8800  -29.7040   21.0680 C   0  0  0  0  0  3  0  0  0  0  0  0
  -26.3990  -28.1070   19.5130 C   0  0  0  0  0  0  0  0  0  0  0  0
  -27.4860  -29.6690   21.0810 C   0  0  0  0  0  2  0  0  0  0  0  0
  -27.5880  -28.2530   20.2330 C   0  0  0  0  0  0  0  0  0  0  0  0
  -28.6630  -27.0930   20.0800 C   0  0  0  0  0  3  0  0  0  0  0  0
  -27.4540  -25.9370   18.5450 C   0  0  0  0  0  3  0  0  0  0  0  0
  -26.4160  -26.9770   18.6520 C   0  0  0  0  0  3  0  0  0  0  0  0
  -25.1970  -29.1130   19.6470 C   0  0  0  0  0  2  0  0  0  0  0  0
  -26.1490  -30.1430   21.7370 N   0  0  0  0  0  0  0  0  0  0  0  0
  -24.8650  -31.1870   23.3660 O   0  0  0  0  0  0  0  0  0  0  0  0
  -24.0780  -28.6820   21.9280 C   0  0  0  0  0  0  0  0  0  0  0  0
  -22.7370  -28.5970   21.7860 N   0  0  0  0  0  0  0  0  0  0  0  0
  -24.6920  -27.9520   22.7080 O   0  0  0  0  0  0  0  0  0  0  0  0
  -22.2810  -29.2330   21.1470 H   0  0  0  0  0  0  0  0  0  0  0  0
  -19.3130  -27.3790   22.1780 C   0  0  0  0  0  0  0  0  0  0  0  0
  -21.8860  -27.5790   22.4280 C   0  0  0  0  0  3  0  0  0  0  0  0
  -21.9510  -26.2430   21.6510 C   0  0  0  0  0  2  0  0  0  0  0  0
  -20.8310  -26.0930   20.6150 C   0  0  0  0  0  2  0  0  0  0  0  0
  -19.4600  -26.1530   21.2930 C   0  0  0  0  0  2  0  0  0  0  0  0
  -20.4500  -28.0580   22.6960 C   0  0  0  0  0  0  0  0  0  0  0  0
  -20.2510  -29.2040   23.4960 C   0  0  0  0  0  3  0  0  0  0  0  0
  -18.9530  -29.6730   23.7750 C   0  0  0  0  0  3  0  0  0  0  0  0
  -17.8330  -28.9930   23.2660 C   0  0  0  0  0  3  0  0  0  0  0  0
  -18.0150  -27.8450   22.4730 C   0  0  0  0  0  3  0  0  0  0  0  0
  -27.1920  -31.5420   23.6660 C   0  0  0  0  0  3  0  0  0  0  0  0
  -26.7470  -32.7740   24.3670 N   0  0  0  0  0  0  0  0  0  0  0  0
  -27.0130  -34.0350   23.9920 C   0  0  0  0  0  0  0  0  0  0  0  0
  -27.6920  -34.2940   22.9980 O   0  0  0  0  0  0  0  0  0  0  0  0
  -26.1310  -32.6360   25.1540 H   0  0  0  0  0  0  0  0  0  0  0  0
  -25.1730  -35.7570   24.1900 C   0  0  0  0  0  1  0  0  0  0  0  0
  -26.4450  -35.1950   24.8470 C   0  0  0  0  0  3  0  0  0  0  0  0
  -28.5200  -35.9390   25.9390 C   0  0  0  0  0  1  0  0  0  0  0  0
  -27.4060  -36.3010   25.0670 N   0  0  0  0  0  0  0  0  0  0  0  0
  -26.9400  -37.1100   25.4690 H   0  0  0  0  0  0  0  0  0  0  0  0
  -27.8030  -30.5470   24.7300 C   0  0  1  0  0  0  0  0  0  0  0  0
  -26.7630  -29.9750   25.7240 C   0  0  0  0  0  1  0  0  0  0  0  0
  -28.4890  -29.3460   24.0470 C   0  0  0  0  0  1  0  0  0  0  0  0
  -28.9060  -31.2630   25.5460 C   0  0  0  0  0  1  0  0  0  0  0  0
  -26.8970  -17.0850   18.0680 N   0  0  0  0  0  0  0  0  0  0  0  0
  -26.8130  -17.2690   17.0720 H   0  0  0  0  0  0  0  0  0  0  0  0
  -30.5030  -16.7020   19.0580 C   0  0  0  0  0  2  0  0  0  0  0  0
  -30.9820  -13.6960   18.4710 C   0  0  0  0  0  2  0  0  0  0  0  0
  -30.1100  -12.6420   17.6030 C   0  0  0  0  0  2  0  0  0  0  0  0
  -28.7950  -12.1470   18.2360 C   0  0  0  0  0  2  0  0  0  0  0  0
  -28.2630  -13.2790   19.1080 C   0  0  0  0  0  3  0  0  0  0  0  0
  -29.4120  -13.9370   19.9830 C   0  0  0  0  0  2  0  0  0  0  0  0
  -30.2900  -15.0040   19.1610 N   0  0  0  0  0  0  0  0  0  0  0  0
  -31.6980  -16.5390   18.6420 O   0  0  0  0  0  1  0  0  0  0  0  0
  -26.3090  -18.1940   20.4340 C   0  0  0  0  0  2  0  0  0  0  0  0
  -26.5380  -19.5040   18.4650 C   0  0  0  0  0  2  0  0  0  0  0  0
  -27.6870  -18.8270   20.8820 C   0  0  0  0  0  2  0  0  0  0  0  0
  -27.9110  -19.8650   19.0970 C   0  0  0  0  0  2  0  0  0  0  0  0
  -26.1420  -18.1070   18.8690 C   0  0  0  0  0  3  0  0  0  0  0  0
  -28.7860  -18.6370   19.7390 N   0  0  0  0  0  2  0  0  0  0  0  0
  -26.0170  -13.8920   20.1350 C   0  0  0  0  0  0  0  0  0  0  0  0
  -24.9130  -13.2560   20.5670 C   0  0  0  0  0  0  0  0  0  0  0  0
  -25.2210  -11.8780   20.4240 C   0  0  0  0  0  0  0  0  0  0  0  0
  -26.9700  -12.9760   19.7610 N   0  0  0  0  0  0  0  0  0  0  0  0
  -26.4840  -11.7160   19.9820 N   0  0  0  0  0  0  0  0  0  0  0  0
  -24.3330  -10.7360   20.6380 C   0  0  0  0  0  0  0  0  0  0  0  0
  -24.6760   -9.6980   21.5260 C   0  0  0  0  0  3  0  0  0  0  0  0
  -23.7830   -8.6300   21.7470 C   0  0  0  0  0  3  0  0  0  0  0  0
  -22.5340   -8.5980   21.0840 C   0  0  0  0  0  0  0  0  0  0  0  0
  -22.2000   -9.6330   20.1910 C   0  0  0  0  0  3  0  0  0  0  0  0
  -23.0940  -10.6920   19.9660 C   0  0  0  0  0  3  0  0  0  0  0  0
  -21.6190   -7.5830   21.2150 O   0  0  0  0  0  0  0  0  0  0  0  0
  -21.5400   -6.8370   22.3640 C   0  0  0  0  0  0  0  0  0  0  0  0
  -21.2560   -7.4230   23.6150 C   0  0  0  0  0  3  0  0  0  0  0  0
  -21.1160   -6.6100   24.7580 C   0  0  0  0  0  3  0  0  0  0  0  0
  -21.2490   -5.2130   24.6480 C   0  0  0  0  0  0  0  0  0  0  0  0
  -21.5280   -4.6270   23.4000 C   0  0  0  0  0  3  0  0  0  0  0  0
  -21.6700   -5.4370   22.2610 C   0  0  0  0  0  0  0  0  0  0  0  0
  -21.9190   -4.8660   21.0580 F   0  0  0  0  0  0  0  0  0  0  0  0
  -21.1040   -4.4320   25.7430 F   0  0  0  0  0  0  0  0  0  0  0  0
  -23.6270  -13.9280   20.9710 C   0  0  0  0  0  0  0  0  0  0  0  0
  -22.8950  -13.3380   21.9060 N   0  0  0  0  0  0  0  0  0  0  0  0
  -23.3020  -15.0210   20.5040 O   0  0  0  0  0  0  0  0  0  0  0  0
  -23.1750  -12.4570   22.3120 H   0  0  0  0  0  0  0  0  0  0  0  0
  -22.0420  -13.7770   22.2250 H   0  0  0  0  0  0  0  0  0  0  0  0
  -26.2010  -15.2170   20.0130 N   0  0  0  0  0  0  0  0  0  0  0  0
  -25.3790  -15.7850   20.1820 H   0  0  0  0  0  0  0  0  0  0  0  0
  -26.8140  -15.7140   19.3660 H   0  0  0  0  0  0  0  0  0  0  0  0
  3  5  1  0
  4  6  1  0
  5  7  1  0
  7  9  1  0
  7  4  1  0
  8  3  1  0
 10 11  1  0
 12 14  1  0
 13 24  2  0
 14 19  1  0
 15 23  1  0
 15 25  1  0
 16 22  1  0
 16 18  1  0
 17 23  1  0
 18 17  1  0
 19 18  2  0
 20 21  1  0
 20 14  2  0
 21 16  2  0
 22 15  1  0
 23 13  1  0
 25 27  2  0
 26 25  1  0
 28 26  1  0
 29 38  2  0
 29 34  1  0
 30 26  1  0
 30 34  1  0
 31 30  1  0
 32 33  1  0
 32 31  1  0
 33 29  1  0
 34 35  2  0
 35 36  1  0
 37 36  2  0
 38 37  1  0
 39 13  1  0
 39 40  1  0
 39 49  1  0
 40 43  1  0
 41 40  1  0
 41 45  1  0
 42 41  2  0
 45 44  1  0
 45 47  1  0
 47 48  1  0
 47 46  1  0
 49 52  1  1
 49 50  1  0
 51 49  1  0
 53  2  1  0
 53 67  1  0
 54 53  1  0
 55 61  1  0
 56 61  1  0
 57 58  1  0
 57 56  1  0
 59 58  1  0
 59 72  1  0
 59 60  1  0
 61 60  1  0
 62 55  1  0
 63 65  1  0
 64 67  1  0
 64 66  1  0
 66 68  1  0
 67 63  1  0
 68 65  1  0
 69 70  2  0
 70 89  1  0
 71 70  1  0
 71 74  1  0
 72 73  1  0
 72 69  1  0
 73 71  2  0
 74 75  1  0
 75 76  2  0
 77 80  1  0
 77 76  1  0
 78 77  2  0
 79 78  1  0
 79 74  2  0
 80 81  1  0
 81 82  1  0
 82 83  2  0
 84 83  1  0
 84 88  1  0
 85 84  2  0
 86 81  2  0
 86 85  1  0
 87 86  1  0
 89 90  1  0
 90 93  1  0
 90 92  1  0
 91 89  2  0
 94 69  1  0
 94 95  1  0
 96 94  1  0
M  ISO  4  11 101  12 101  55 100  68 100
M  END
>  <TORSDO>  (7) 
F 18

>  <SCORE>  (7) 
-8.545

>  <name>  (7) 
6

>  <ligand_id>  (7) 
6

>  <original_smiles>  (7) 
[H]c1c([H])c([H])c2c(c1[H])C([H])([H])C([H])([H])C([H])([H])C2([H])N([H])C(=O)C1([H])N(C(=O)C([H])(N([H])C(=O)C([H])(N([H])C([H])([H])[H])C([H])([H])[H])C(C([H])([H])[H])(C([H])([H])[H])C([H])([H])[H])C([H])([H])c2c([H])c(OC([H])(c3c(F)c(N([H])C4([H])C([H])([H])C([H])([H])N(C(=O)N5C([H])([H])C([H])([H])C([H])([H])C([H])(n6nc(-c7c([H])c([H])c(Oc8c([H])c([H])c(F)c([H])c8F)c([H])c7[H])c(C(=O)N([H])[H])c6N([H])[H])C5([H])[H])C([H])([H])C4([H])[H])c([H])c(C([H])([H])[H])[n+]3[H])C([H])([H])[H])c([H])c([H])c2C1([H])[H]

>  <smiles>  (7) 
[H]c1c([H])c([H])c2c(c1[H])C([H])([H])C([H])([H])C([H])([H])C2([H])N([H])C(=O)C1([H])N(C(=O)C([H])(N([H])C(=O)C([H])(N([H])C([H])([H])[H])C([H])([H])[H])C(C([H])([H])[H])(C([H])([H])[H])C([H])([H])[H])C([H])([H])c2c([H])c(OC([H])(c3c(F)c(N([H])C4([H])C([H])([H])C([H])([H])N(C(=O)N5C([H])([H])C([H])([H])C([H])([H])C([H])(n6nc(-c7c([H])c([H])c(Oc8c([H])c([H])c(F)c([H])c8F)c([H])c7[H])c(C(=O)N([H])[H])c6N([H])[H])C5([H])[H])C([H])([H])C4([H])[H])c([H])c(C([H])([H])[H])[n+]3[H])C([H])([H])[H])c([H])c([H])c2C1([H])[H]

$$$$
7:0:0
     RDKit          3D

 94104  0  0  1  0  0  0  0  0999 V2000
  -28.4110  -21.4410   19.3960 C   0  0  0  0  0  0  0  0  0  0  0  0
  -28.8840  -20.4270   20.3030 C   0  0  0  0  0  0  0  0  0  0  0  0
  -28.1490  -21.0000   18.0680 C   0  0  0  0  0  0  0  0  0  0  0  0
  -29.1390  -19.0930   19.8260 C   0  0  0  0  0  0  0  0  0  0  0  0
  -28.5580  -19.7130   17.6640 C   0  0  0  0  0  0  0  0  0  0  0  0
  -29.0580  -20.7540   21.7770 C   0  0  0  0  0  1  0  0  0  0  0  0
  -27.3810  -21.8680   17.0670 C   0  0  0  0  0  1  0  0  0  0  0  0
  -28.4470  -19.2370   16.2260 C   0  0  0  0  0  1  0  0  0  0  0  0
  -29.0470  -18.8030   18.5160 N   0  0  0  0  0  0  0  0  0  0  0  0
  -30.7980  -14.6750   20.1840 C   0  0  0  0  0  0  0  0  0  0  0  0
  -30.4420  -12.4870   19.0780 C   0  0  0  0  0  2  0  0  0  0  0  0
  -29.4620  -12.6580   17.9010 C   0  0  0  0  0  2  0  0  0  0  0  0
  -28.0110  -12.4820   18.3860 C   0  0  0  0  0  2  0  0  0  0  0  0
  -27.7060  -13.3090   19.6610 C   0  0  0  0  0  3  0  0  0  0  0  0
  -28.8150  -13.1690   20.7300 C   0  0  0  0  0  2  0  0  0  0  0  0
  -30.0960  -13.5020   20.0970 N   0  0  0  0  0  0  0  0  0  0  0  0
  -31.9430  -14.7500   19.7330 O   0  0  0  0  0  0  0  0  0  0  0  0
  -28.9300  -16.4380   20.3410 C   0  0  0  0  0  2  0  0  0  0  0  0
  -30.8830  -17.1380   20.5990 C   0  0  0  0  0  2  0  0  0  0  0  0
  -29.5170  -17.8310   20.6700 C   0  0  0  0  0  3  0  0  0  0  0  0
  -30.2190  -15.8090   20.6990 N   0  0  0  0  0  0  0  0  0  0  0  0
  -25.3450  -13.8740   20.4960 C   0  0  0  0  0  0  0  0  0  0  0  0
  -24.3020  -13.0830   20.8910 C   0  0  0  0  0  0  0  0  0  0  0  0
  -24.7720  -11.7370   20.8060 C   0  0  0  0  0  0  0  0  0  0  0  0
  -26.3840  -13.0070   20.1980 N   0  0  0  0  0  0  0  0  0  0  0  0
  -26.0490  -11.7150   20.4450 N   0  0  0  0  0  0  0  0  0  0  0  0
  -24.0620  -10.4650   20.9900 C   0  0  0  0  0  0  0  0  0  0  0  0
  -24.4980   -9.5050   21.9280 C   0  0  0  0  0  3  0  0  0  0  0  0
  -23.7870   -8.2990   22.1020 C   0  0  0  0  0  3  0  0  0  0  0  0
  -22.6260   -8.0430   21.3340 C   0  0  0  0  0  0  0  0  0  0  0  0
  -22.2090   -8.9930   20.3840 C   0  0  0  0  0  3  0  0  0  0  0  0
  -22.9210  -10.1910   20.2100 C   0  0  0  0  0  3  0  0  0  0  0  0
  -21.8860   -6.8880   21.4150 O   0  0  0  0  0  0  0  0  0  0  0  0
  -21.7860   -6.1800   22.5850 C   0  0  0  0  0  0  0  0  0  0  0  0
  -21.2230   -6.7430   23.7510 C   0  0  0  0  0  3  0  0  0  0  0  0
  -21.0760   -5.9570   24.9120 C   0  0  0  0  0  3  0  0  0  0  0  0
  -21.4830   -4.6100   24.9070 C   0  0  0  0  0  0  0  0  0  0  0  0
  -22.0410   -4.0470   23.7460 C   0  0  0  0  0  3  0  0  0  0  0  0
  -22.1900   -4.8290   22.5870 C   0  0  0  0  0  0  0  0  0  0  0  0
  -22.7080   -4.2760   21.4650 F   0  0  0  0  0  0  0  0  0  0  0  0
  -21.3350   -3.8520   26.0190 F   0  0  0  0  0  0  0  0  0  0  0  0
  -22.9140  -13.5430   21.2320 C   0  0  0  0  0  0  0  0  0  0  0  0
  -22.2280  -12.8180   22.1070 N   0  0  0  0  0  0  0  0  0  0  0  0
  -22.4500  -14.5780   20.7570 O   0  0  0  0  0  0  0  0  0  0  0  0
  -22.6180  -11.9780   22.5070 H   0  0  0  0  0  0  0  0  0  0  0  0
  -21.3000  -13.1080   22.3820 H   0  0  0  0  0  0  0  0  0  0  0  0
  -25.4870  -15.2500   20.3420 N   0  0  0  0  0  0  0  0  0  0  0  0
  -24.7130  -15.8860   20.4940 H   0  0  0  0  0  0  0  0  0  0  0  0
  -26.2960  -15.6980   19.9340 H   0  0  0  0  0  0  0  0  0  0  0  0
  -28.6360  -24.0010   18.8570 C   0  0  0  0  0  2  0  0  0  0  0  0
  -28.0620  -22.9140   19.7590 C   0  0  0  0  0  3  0  0  0  0  0  0
  -28.9420  -24.0760   20.3110 C   0  0  0  0  0  3  0  0  0  0  0  0
  -28.4010  -25.3190   21.0660 C   0  0  0  0  0  2  0  0  0  0  0  0
  -28.5870  -26.6250   20.4310 O   0  0  0  0  0  0  0  0  0  0  0  0
  -24.6070  -31.8840   23.2330 C   0  0  0  0  0  0  0  0  0  0  0  0
  -27.4490  -27.4160   20.3400 C   0  0  0  0  0  0  0  0  0  0  0  0
  -23.5050  -30.4510   21.5460 C   0  0  0  0  0  3  0  0  0  0  0  0
  -25.0500  -28.9310   20.1970 C   0  0  0  0  0  0  0  0  0  0  0  0
  -26.0350  -30.8420   21.4670 C   0  0  0  0  0  2  0  0  0  0  0  0
  -26.1760  -29.4660   20.8390 C   0  0  0  0  0  0  0  0  0  0  0  0
  -27.3830  -28.7200   20.9000 C   0  0  0  0  0  3  0  0  0  0  0  0
  -26.3110  -26.9150   19.6770 C   0  0  0  0  0  3  0  0  0  0  0  0
  -25.1170  -27.6570   19.6040 C   0  0  0  0  0  3  0  0  0  0  0  0
  -23.7920  -29.7700   20.1820 C   0  0  0  0  0  2  0  0  0  0  0  0
  -24.7310  -31.0750   22.1410 N   0  0  0  0  0  0  0  0  0  0  0  0
  -23.4950  -32.1400   23.7180 O   0  0  0  0  0  0  0  0  0  0  0  0
  -22.8220  -29.4250   22.4810 C   0  0  0  0  0  0  0  0  0  0  0  0
  -21.4990  -29.2540   22.3240 N   0  0  0  0  0  0  0  0  0  0  0  0
  -23.4830  -28.7870   23.3050 O   0  0  0  0  0  0  0  0  0  0  0  0
  -21.0260  -29.8220   21.6340 H   0  0  0  0  0  0  0  0  0  0  0  0
  -18.0930  -28.1380   22.8010 C   0  0  0  0  0  0  0  0  0  0  0  0
  -20.6590  -28.3140   23.0660 C   0  0  0  0  0  3  0  0  0  0  0  0
  -20.7180  -26.9020   22.4390 C   0  0  0  0  0  2  0  0  0  0  0  0
  -19.6030  -26.6470   21.4200 C   0  0  0  0  0  2  0  0  0  0  0  0
  -18.2290  -26.8080   22.0770 C   0  0  0  0  0  2  0  0  0  0  0  0
  -19.2360  -28.8520   23.2510 C   0  0  0  0  0  0  0  0  0  0  0  0
  -19.0580  -30.0990   23.8880 C   0  0  0  0  0  3  0  0  0  0  0  0
  -17.7700  -30.6330   24.0780 C   0  0  0  0  0  3  0  0  0  0  0  0
  -16.6410  -29.9160   23.6450 C   0  0  0  0  0  3  0  0  0  0  0  0
  -16.8050  -28.6680   23.0130 C   0  0  0  0  0  3  0  0  0  0  0  0
  -25.8500  -32.5410   23.9090 C   0  0  0  0  0  3  0  0  0  0  0  0
  -25.5050  -33.9390   24.2030 N   0  0  0  0  0  0  0  0  0  0  0  0
  -25.8540  -34.9850   23.4410 C   0  0  0  0  0  0  0  0  0  0  0  0
  -26.5710  -34.8770   22.4420 O   0  0  0  0  0  0  0  0  0  0  0  0
  -24.8730  -34.0960   24.9740 H   0  0  0  0  0  0  0  0  0  0  0  0
  -24.1220  -36.7500   22.9760 C   0  0  0  0  0  1  0  0  0  0  0  0
  -25.3270  -36.3730   23.8540 C   0  0  0  0  0  3  0  0  0  0  0  0
  -27.3980  -37.3040   24.7880 C   0  0  0  0  0  1  0  0  0  0  0  0
  -26.3500  -37.4390   23.7800 N   0  0  0  0  0  0  0  0  0  0  0  0
  -25.9230  -38.3540   23.8920 H   0  0  0  0  0  0  0  0  0  0  0  0
  -26.3130  -31.7940   25.2190 C   0  0  1  0  0  0  0  0  0  0  0  0
  -25.1710  -31.5440   26.2310 C   0  0  0  0  0  1  0  0  0  0  0  0
  -26.9410  -30.4230   24.8710 C   0  0  0  0  0  1  0  0  0  0  0  0
  -27.4120  -32.6160   25.9330 C   0  0  0  0  0  1  0  0  0  0  0  0
  1  2  1  0
  2  6  1  0
  3  1  2  0
  4  2  2  0
  5  3  1  0
  5  9  2  0
  7  3  1  0
  8  5  1  0
  9  4  1  0
 10 21  1  0
 11 16  1  0
 12 13  1  0
 12 11  1  0
 14 13  1  0
 14 25  1  0
 14 15  1  0
 16 10  1  0
 16 15  1  0
 17 10  2  0
 18 20  1  0
 18 21  1  0
 19 20  1  0
 19 21  1  0
 20  4  1  0
 22 23  2  0
 23 42  1  0
 24 23  1  0
 24 27  1  0
 25 26  1  0
 25 22  1  0
 26 24  2  0
 27 28  1  0
 28 29  2  0
 30 33  1  0
 30 29  1  0
 31 30  2  0
 32 31  1  0
 32 27  2  0
 33 34  1  0
 34 39  2  0
 34 35  1  0
 35 36  2  0
 37 36  1  0
 37 41  1  0
 38 37  2  0
 39 38  1  0
 40 39  1  0
 42 43  1  0
 43 46  1  0
 43 45  1  0
 44 42  2  0
 47 48  1  0
 47 22  1  0
 49 47  1  0
 50 51  1  0
 50 52  1  0
 51  1  1  0
 51 52  1  0
 52 53  1  0
 54 53  1  0
 55 66  2  0
 56 54  1  0
 56 61  1  0
 57 65  1  0
 57 67  1  0
 58 60  1  0
 59 65  1  0
 60 61  2  0
 60 59  1  0
 62 56  2  0
 63 62  1  0
 63 58  2  0
 64 58  1  0
 64 57  1  0
 65 55  1  0
 67 69  2  0
 68 67  1  0
 70 68  1  0
 71 80  2  0
 71 76  1  0
 72 68  1  0
 72 76  1  0
 73 72  1  0
 74 75  1  0
 74 73  1  0
 75 71  1  0
 76 77  2  0
 77 78  1  0
 79 78  2  0
 80 79  1  0
 81 55  1  0
 81 82  1  0
 81 91  1  0
 82 85  1  0
 83 87  1  0
 83 82  1  0
 84 83  2  0
 87 86  1  0
 89 87  1  0
 89 90  1  0
 89 88  1  0
 91 94  1  1
 91 92  1  0
 93 91  1  0
M  ISO  4  10 100  21 100  53 101  54 101
M  END
>  <TORSDO>  (8) 
F 18

>  <SCORE>  (8) 
-14.286

>  <name>  (8) 
7

>  <ligand_id>  (8) 
7

>  <original_smiles>  (8) 
[H]c1c([H])c([H])c2c(c1[H])C([H])([H])C([H])([H])C([H])([H])C2([H])N([H])C(=O)C1([H])N(C(=O)C([H])(N([H])C(=O)C([H])(N([H])C([H])([H])[H])C([H])([H])[H])C(C([H])([H])[H])(C([H])([H])[H])C([H])([H])[H])C([H])([H])c2c([H])c(OC([H])([H])C3([H])C([H])([H])C3([H])c3c(C([H])([H])[H])c(C([H])([H])[H])nc(C4([H])C([H])([H])N(C(=O)N5C([H])([H])C([H])([H])C([H])([H])C([H])(n6nc(-c7c([H])c([H])c(Oc8c([H])c([H])c(F)c([H])c8F)c([H])c7[H])c(C(=O)N([H])[H])c6N([H])[H])C5([H])[H])C4([H])[H])c3C([H])([H])[H])c([H])c([H])c2C1([H])[H]

>  <smiles>  (8) 
[H]c1c([H])c([H])c2c(c1[H])C([H])([H])C([H])([H])C([H])([H])C2([H])N([H])C(=O)C1([H])N(C(=O)C([H])(N([H])C(=O)C([H])(N([H])C([H])([H])[H])C([H])([H])[H])C(C([H])([H])[H])(C([H])([H])[H])C([H])([H])[H])C([H])([H])c2c([H])c(OC([H])([H])C3([H])C([H])([H])C3([H])c3c(C([H])([H])[H])c(C([H])([H])[H])nc(C4([H])C([H])([H])N(C(=O)N5C([H])([H])C([H])([H])C([H])([H])C([H])(n6nc(-c7c([H])c([H])c(Oc8c([H])c([H])c(F)c([H])c8F)c([H])c7[H])c(C(=O)N([H])[H])c6N([H])[H])C5([H])[H])C4([H])[H])c3C([H])([H])[H])c([H])c([H])c2C1([H])[H]

$$$$
8:0:0
     RDKit          3D

 93102  0  0  1  0  0  0  0  0999 V2000
  -29.0350  -21.2270   21.4550 C   0  0  0  0  0  3  0  0  0  0  0  0
  -29.3870  -20.8920   20.1300 C   0  0  0  0  0  0  0  0  0  0  0  0
  -29.2590  -22.0900   19.2360 C   0  0  0  0  0  0  0  0  0  0  0  0
  -28.6540  -22.5360   21.8360 C   0  0  0  0  0  0  0  0  0  0  0  0
  -28.8460  -23.4650   19.6890 C   0  0  0  0  0  0  0  0  0  0  0  0
  -29.5770  -21.9140   17.7620 C   0  0  0  0  0  1  0  0  0  0  0  0
  -28.3410  -22.8280   23.2900 C   0  0  0  0  0  1  0  0  0  0  0  0
  -28.5610  -23.6000   21.0000 N   0  0  0  0  0  0  0  0  0  0  0  0
  -30.0660  -19.3600   19.9240 C   0  0  0  0  0  2  0  0  0  0  0  0
  -27.7230  -18.4140   18.2440 C   0  0  0  0  0  2  0  0  0  0  0  0
  -29.0510  -17.6780   18.0560 C   0  0  0  0  0  2  0  0  0  0  0  0
  -27.7970  -17.9610   19.6980 C   0  0  0  0  0  2  0  0  0  0  0  0
  -29.3310  -17.8680   19.5680 C   0  0  2  0  0  0  0  0  0  0  0  0
  -30.5260  -15.2670   19.8440 C   0  0  0  0  0  0  0  0  0  0  0  0
  -30.4240  -12.8740   18.9760 C   0  0  0  0  0  2  0  0  0  0  0  0
  -29.4250  -12.8020   17.7940 C   0  0  0  0  0  2  0  0  0  0  0  0
  -27.9930  -12.5550   18.3070 C   0  0  0  0  0  2  0  0  0  0  0  0
  -27.6380  -13.4760   19.5060 C   0  0  0  0  0  3  0  0  0  0  0  0
  -28.7580  -13.5310   20.5720 C   0  0  0  0  0  2  0  0  0  0  0  0
  -29.9870  -13.9720   19.8960 N   0  0  0  0  0  0  0  0  0  0  0  0
  -31.6640  -15.3650   19.3700 O   0  0  0  0  0  0  0  0  0  0  0  0
  -29.7380  -16.4230   20.1730 N   0  0  0  0  0  0  0  0  0  0  0  0
  -28.9960  -16.1120   20.7830 H   0  0  0  0  0  0  0  0  0  0  0  0
  -25.3110  -14.0090   20.4320 C   0  0  0  0  0  0  0  0  0  0  0  0
  -24.2790  -13.2190   20.8500 C   0  0  0  0  0  0  0  0  0  0  0  0
  -24.7430  -11.8730   20.7390 C   0  0  0  0  0  0  0  0  0  0  0  0
  -26.3400  -13.1480   20.0870 N   0  0  0  0  0  0  0  0  0  0  0  0
  -26.0090  -11.8540   20.3330 N   0  0  0  0  0  0  0  0  0  0  0  0
  -24.0290  -10.6060   20.9370 C   0  0  0  0  0  0  0  0  0  0  0  0
  -24.4880   -9.6340   21.8520 C   0  0  0  0  0  3  0  0  0  0  0  0
  -23.7730   -8.4310   22.0410 C   0  0  0  0  0  3  0  0  0  0  0  0
  -22.5830   -8.1940   21.3110 C   0  0  0  0  0  0  0  0  0  0  0  0
  -22.1440   -9.1550   20.3810 C   0  0  0  0  0  3  0  0  0  0  0  0
  -22.8610  -10.3480   20.1930 C   0  0  0  0  0  3  0  0  0  0  0  0
  -21.8360   -7.0460   21.4070 O   0  0  0  0  0  0  0  0  0  0  0  0
  -21.7860   -6.3140   22.5670 C   0  0  0  0  0  0  0  0  0  0  0  0
  -21.3040   -6.8650   23.7730 C   0  0  0  0  0  3  0  0  0  0  0  0
  -21.2060   -6.0580   24.9260 C   0  0  0  0  0  3  0  0  0  0  0  0
  -21.5820   -4.7030   24.8710 C   0  0  0  0  0  0  0  0  0  0  0  0
  -22.0570   -4.1520   23.6680 C   0  0  0  0  0  3  0  0  0  0  0  0
  -22.1580   -4.9550   22.5200 C   0  0  0  0  0  0  0  0  0  0  0  0
  -22.5990   -4.4160   21.3580 F   0  0  0  0  0  0  0  0  0  0  0  0
  -21.4820   -3.9260   25.9740 F   0  0  0  0  0  0  0  0  0  0  0  0
  -22.9050  -13.6870   21.2340 C   0  0  0  0  0  0  0  0  0  0  0  0
  -22.2380  -12.9590   22.1180 N   0  0  0  0  0  0  0  0  0  0  0  0
  -22.4370  -14.7340   20.7860 O   0  0  0  0  0  0  0  0  0  0  0  0
  -22.6360  -12.1150   22.5000 H   0  0  0  0  0  0  0  0  0  0  0  0
  -21.3170  -13.2510   22.4190 H   0  0  0  0  0  0  0  0  0  0  0  0
  -25.4450  -15.3810   20.2900 N   0  0  0  0  0  0  0  0  0  0  0  0
  -24.6660  -16.0130   20.4410 H   0  0  0  0  0  0  0  0  0  0  0  0
  -26.2490  -15.8340   19.8780 H   0  0  0  0  0  0  0  0  0  0  0  0
  -28.5590  -24.8530   18.7960 C   0  0  0  0  0  2  0  0  0  0  0  0
  -28.5070  -26.3510   19.2900 O   0  0  0  0  0  0  0  0  0  0  0  0
  -24.6020  -31.5360   22.8110 C   0  0  0  0  0  0  0  0  0  0  0  0
  -27.3780  -27.2650   19.2870 C   0  0  0  0  0  0  0  0  0  0  0  0
  -23.4400  -30.2090   21.0900 C   0  0  0  0  0  3  0  0  0  0  0  0
  -24.9380  -28.8640   19.4830 C   0  0  0  0  0  0  0  0  0  0  0  0
  -25.9650  -30.6520   20.8780 C   0  0  0  0  0  2  0  0  0  0  0  0
  -26.1060  -29.3290   20.0980 C   0  0  0  0  0  0  0  0  0  0  0  0
  -27.3170  -28.5440   19.9890 C   0  0  0  0  0  3  0  0  0  0  0  0
  -26.1710  -26.9120   18.6400 C   0  0  0  0  0  3  0  0  0  0  0  0
  -24.9830  -27.6730   18.7420 C   0  0  0  0  0  3  0  0  0  0  0  0
  -23.6550  -29.6640   19.6510 C   0  0  0  0  0  2  0  0  0  0  0  0
  -24.6890  -30.8190   21.6490 N   0  0  0  0  0  0  0  0  0  0  0  0
  -23.5190  -31.7010   23.3940 O   0  0  0  0  0  0  0  0  0  0  0  0
  -22.8610  -29.0820   21.9810 C   0  0  0  0  0  0  0  0  0  0  0  0
  -21.5430  -28.8310   21.8780 N   0  0  0  0  0  0  0  0  0  0  0  0
  -23.5970  -28.4360   22.7320 O   0  0  0  0  0  0  0  0  0  0  0  0
  -20.9990  -29.4080   21.2530 H   0  0  0  0  0  0  0  0  0  0  0  0
  -18.2700  -27.3500   22.3560 C   0  0  0  0  0  0  0  0  0  0  0  0
  -20.8100  -27.7760   22.5850 C   0  0  0  0  0  3  0  0  0  0  0  0
  -20.9960  -26.4070   21.8890 C   0  0  0  0  0  2  0  0  0  0  0  0
  -19.8910  -26.0900   20.8750 C   0  0  0  0  0  2  0  0  0  0  0  0
  -18.5220  -26.0790   21.5610 C   0  0  0  0  0  2  0  0  0  0  0  0
  -19.3430  -28.1550   22.8210 C   0  0  0  0  0  0  0  0  0  0  0  0
  -19.0520  -29.3420   23.5260 C   0  0  0  0  0  3  0  0  0  0  0  0
  -17.7190  -29.7300   23.7660 C   0  0  0  0  0  3  0  0  0  0  0  0
  -16.6600  -28.9220   23.3140 C   0  0  0  0  0  3  0  0  0  0  0  0
  -16.9380  -27.7320   22.6160 C   0  0  0  0  0  3  0  0  0  0  0  0
  -25.8570  -32.2010   23.4560 C   0  0  0  0  0  3  0  0  0  0  0  0
  -26.4820  -31.3430   24.6260 C   0  0  1  0  0  0  0  0  0  0  0  0
  -25.4570  -30.9190   25.7030 C   0  0  0  0  0  1  0  0  0  0  0  0
  -27.1410  -30.0580   24.0760 C   0  0  0  0  0  1  0  0  0  0  0  0
  -27.6020  -32.1490   25.3240 C   0  0  0  0  0  1  0  0  0  0  0  0
  -25.4550  -33.5280   23.9530 N   0  0  0  0  0  0  0  0  0  0  0  0
  -25.6930  -34.6850   23.3220 C   0  0  0  0  0  0  0  0  0  0  0  0
  -26.3360  -34.7520   22.2710 O   0  0  0  0  0  0  0  0  0  0  0  0
  -24.8710  -33.5430   24.7760 H   0  0  0  0  0  0  0  0  0  0  0  0
  -23.8260  -36.3730   23.2420 C   0  0  0  0  0  1  0  0  0  0  0  0
  -25.1280  -35.9730   23.9550 C   0  0  0  0  0  3  0  0  0  0  0  0
  -27.2210  -36.9280   24.8140 C   0  0  0  0  0  1  0  0  0  0  0  0
  -26.0750  -37.1100   23.9270 N   0  0  0  0  0  0  0  0  0  0  0  0
  -25.6080  -37.9750   24.1870 H   0  0  0  0  0  0  0  0  0  0  0  0
  1  4  1  0
  2  1  2  0
  3  5  2  0
  3  2  1  0
  4  7  1  0
  5  8  1  0
  6  3  1  0
  8  4  2  0
  9  2  1  0
 10 12  1  0
 11 10  1  0
 11 13  1  0
 13 12  1  0
 13  9  1  6
 13 22  1  0
 14 20  1  0
 14 22  1  0
 15 20  1  0
 16 17  1  0
 16 15  1  0
 18 17  1  0
 18 27  1  0
 18 19  1  0
 20 19  1  0
 21 14  2  0
 22 23  1  0
 24 25  2  0
 25 44  1  0
 26 25  1  0
 26 29  1  0
 27 28  1  0
 27 24  1  0
 28 26  2  0
 29 30  1  0
 30 31  2  0
 32 35  1  0
 32 31  1  0
 33 32  2  0
 34 33  1  0
 34 29  2  0
 35 36  1  0
 36 37  1  0
 37 38  2  0
 39 38  1  0
 39 43  1  0
 40 39  2  0
 41 36  2  0
 41 40  1  0
 42 41  1  0
 44 45  1  0
 45 48  1  0
 45 47  1  0
 46 44  2  0
 49 24  1  0
 49 50  1  0
 51 49  1  0
 52 53  1  0
 52  5  1  0
 54 65  2  0
 55 53  1  0
 55 60  1  0
 56 64  1  0
 56 66  1  0
 57 63  1  0
 57 59  1  0
 58 64  1  0
 59 58  1  0
 60 59  2  0
 61 62  1  0
 61 55  2  0
 62 57  2  0
 63 56  1  0
 64 54  1  0
 66 68  2  0
 67 66  1  0
 69 67  1  0
 70 79  2  0
 70 75  1  0
 71 67  1  0
 71 75  1  0
 72 71  1  0
 73 74  1  0
 73 72  1  0
 74 70  1  0
 75 76  2  0
 76 77  1  0
 78 77  2  0
 79 78  1  0
 80 54  1  0
 80 85  1  0
 80 81  1  0
 81 84  1  1
 81 82  1  0
 83 81  1  0
 85 88  1  0
 86 85  1  0
 86 90  1  0
 87 86  2  0
 90 89  1  0
 92 90  1  0
 92 93  1  0
 92 91  1  0
M  ISO  4  14 100  22 100  52 101  53 101
M  END
>  <TORSDO>  (9) 
F 19

>  <SCORE>  (9) 
-12.291

>  <name>  (9) 
8

>  <ligand_id>  (9) 
8

>  <original_smiles>  (9) 
[H]c1c([H])c([H])c2c(c1[H])C([H])([H])C([H])([H])C([H])([H])C2([H])N([H])C(=O)C1([H])N(C(=O)C([H])(N([H])C(=O)C([H])(N([H])C([H])([H])[H])C([H])([H])[H])C(C([H])([H])[H])(C([H])([H])[H])C([H])([H])[H])C([H])([H])c2c([H])c(OC([H])([H])c3nc(C([H])([H])[H])c([H])c(C([H])([H])C4(N([H])C(=O)N5C([H])([H])C([H])([H])C([H])([H])C([H])(n6nc(-c7c([H])c([H])c(Oc8c([H])c([H])c(F)c([H])c8F)c([H])c7[H])c(C(=O)N([H])[H])c6N([H])[H])C5([H])[H])C([H])([H])C([H])([H])C4([H])[H])c3C([H])([H])[H])c([H])c([H])c2C1([H])[H]

>  <smiles>  (9) 
[H]c1c([H])c([H])c2c(c1[H])C([H])([H])C([H])([H])C([H])([H])C2([H])N([H])C(=O)C1([H])N(C(=O)C([H])(N([H])C(=O)C([H])(N([H])C([H])([H])[H])C([H])([H])[H])C(C([H])([H])[H])(C([H])([H])[H])C([H])([H])[H])C([H])([H])c2c([H])c(OC([H])([H])c3nc(C([H])([H])[H])c([H])c(C([H])([H])C4(N([H])C(=O)N5C([H])([H])C([H])([H])C([H])([H])C([H])(n6nc(-c7c([H])c([H])c(Oc8c([H])c([H])c(F)c([H])c8F)c([H])c7[H])c(C(=O)N([H])[H])c6N([H])[H])C5([H])[H])C([H])([H])C([H])([H])C4([H])[H])c3C([H])([H])[H])c([H])c([H])c2C1([H])[H]

$$$$
9:0:0
     RDKit          3D

 95104  0  0  1  0  0  0  0  0999 V2000
  -29.8330  -21.2280   20.5960 C   0  0  0  0  0  0  0  0  0  0  0  0
  -29.3640  -21.8280   19.3960 C   0  0  0  0  0  0  0  0  0  0  0  0
  -28.8540  -23.1760   19.4510 C   0  0  0  0  0  0  0  0  0  0  0  0
  -29.8180  -22.0380   21.7310 C   0  0  0  0  0  0  0  0  0  0  0  0
  -28.8610  -23.9050   20.6850 C   0  0  0  0  0  0  0  0  0  0  0  0
  -30.4100  -21.3420   22.9220 C   0  0  0  0  0  2  0  0  0  0  0  0
  -30.5620  -19.8810   22.4490 C   0  0  0  0  0  2  0  0  0  0  0  0
  -30.5380  -19.8490   20.8870 C   0  0  2  0  0  0  0  0  0  0  0  0
  -29.3900  -21.0660   18.0790 C   0  0  0  0  0  1  0  0  0  0  0  0
  -28.2730  -23.8110   18.1930 C   0  0  0  0  0  1  0  0  0  0  0  0
  -31.9920  -19.9660   20.3800 C   0  0  0  0  0  1  0  0  0  0  0  0
  -29.3650  -23.3140   21.8030 N   0  0  0  0  0  0  0  0  0  0  0  0
  -28.3830  -18.4050   20.4400 C   0  0  0  0  0  1  0  0  0  0  0  0
  -29.9200  -18.4480   20.3760 C   0  0  0  0  0  3  0  0  0  0  0  0
  -30.5720  -17.1340   21.0190 C   0  0  0  0  0  2  0  0  0  0  0  0
  -30.6930  -14.6730   20.2800 C   0  0  0  0  0  0  0  0  0  0  0  0
  -30.3840  -12.4760   19.1620 C   0  0  0  0  0  2  0  0  0  0  0  0
  -29.4230  -12.6360   17.9660 C   0  0  0  0  0  2  0  0  0  0  0  0
  -27.9620  -12.4710   18.4240 C   0  0  0  0  0  2  0  0  0  0  0  0
  -27.6290  -13.3240   19.6790 C   0  0  0  0  0  3  0  0  0  0  0  0
  -28.7090  -13.1690   20.7740 C   0  0  0  0  0  2  0  0  0  0  0  0
  -30.0090  -13.4920   20.1660 N   0  0  0  0  0  0  0  0  0  0  0  0
  -31.8520  -14.7790   19.8780 O   0  0  0  0  0  0  0  0  0  0  0  0
  -30.0070  -15.7750   20.7050 N   0  0  0  0  0  0  0  0  0  0  0  0
  -29.0400  -15.6240   20.9490 H   0  0  0  0  0  0  0  0  0  0  0  0
  -25.2440  -13.9100   20.4290 C   0  0  0  0  0  0  0  0  0  0  0  0
  -24.1850  -13.1320   20.8140 C   0  0  0  0  0  0  0  0  0  0  0  0
  -24.6550  -11.7840   20.7820 C   0  0  0  0  0  0  0  0  0  0  0  0
  -26.2900  -13.0360   20.1840 N   0  0  0  0  0  0  0  0  0  0  0  0
  -25.9420  -11.7520   20.4590 N   0  0  0  0  0  0  0  0  0  0  0  0
  -23.9380  -10.5170   20.9860 C   0  0  0  0  0  0  0  0  0  0  0  0
  -24.3840   -9.5580   21.9210 C   0  0  0  0  0  3  0  0  0  0  0  0
  -23.6670   -8.3560   22.1120 C   0  0  0  0  0  3  0  0  0  0  0  0
  -22.4890   -8.1070   21.3680 C   0  0  0  0  0  0  0  0  0  0  0  0
  -22.0630   -9.0550   20.4220 C   0  0  0  0  0  3  0  0  0  0  0  0
  -22.7810  -10.2470   20.2290 C   0  0  0  0  0  3  0  0  0  0  0  0
  -21.7430   -6.9570   21.4690 O   0  0  0  0  0  0  0  0  0  0  0  0
  -21.7030   -6.2240   22.6260 C   0  0  0  0  0  0  0  0  0  0  0  0
  -21.2730   -6.7850   23.8480 C   0  0  0  0  0  3  0  0  0  0  0  0
  -21.1810   -5.9780   25.0000 C   0  0  0  0  0  3  0  0  0  0  0  0
  -21.5070   -4.6100   24.9300 C   0  0  0  0  0  0  0  0  0  0  0  0
  -21.9310   -4.0490   23.7120 C   0  0  0  0  0  3  0  0  0  0  0  0
  -22.0250   -4.8540   22.5630 C   0  0  0  0  0  0  0  0  0  0  0  0
  -22.4130   -4.3020   21.3880 F   0  0  0  0  0  0  0  0  0  0  0  0
  -21.4110   -3.8320   26.0350 F   0  0  0  0  0  0  0  0  0  0  0  0
  -22.7880  -13.6010   21.1010 C   0  0  0  0  0  0  0  0  0  0  0  0
  -22.0750  -12.9030   21.9770 N   0  0  0  0  0  0  0  0  0  0  0  0
  -22.3400  -14.6230   20.5840 O   0  0  0  0  0  0  0  0  0  0  0  0
  -22.4510  -12.0770   22.4160 H   0  0  0  0  0  0  0  0  0  0  0  0
  -21.1380  -13.2020   22.2140 H   0  0  0  0  0  0  0  0  0  0  0  0
  -25.3970  -15.2810   20.2450 N   0  0  0  0  0  0  0  0  0  0  0  0
  -24.6260  -15.9280   20.3600 H   0  0  0  0  0  0  0  0  0  0  0  0
  -26.2390  -15.7240   19.8990 H   0  0  0  0  0  0  0  0  0  0  0  0
  -28.0660  -25.2390   20.9570 C   0  0  0  0  0  2  0  0  0  0  0  0
  -28.3850  -26.5290   20.3100 O   0  0  0  0  0  0  0  0  0  0  0  0
  -24.6040  -31.9160   23.2740 C   0  0  0  0  0  0  0  0  0  0  0  0
  -27.2890  -27.3960   20.2490 C   0  0  0  0  0  0  0  0  0  0  0  0
  -23.4270  -30.4970   21.6310 C   0  0  0  0  0  3  0  0  0  0  0  0
  -24.9050  -28.9660   20.2160 C   0  0  0  0  0  0  0  0  0  0  0  0
  -25.9600  -30.8510   21.4610 C   0  0  0  0  0  2  0  0  0  0  0  0
  -26.0640  -29.4720   20.8210 C   0  0  0  0  0  0  0  0  0  0  0  0
  -27.2620  -28.6990   20.8320 C   0  0  0  0  0  3  0  0  0  0  0  0
  -26.1150  -26.9480   19.6030 C   0  0  0  0  0  3  0  0  0  0  0  0
  -24.9320  -27.7060   19.5980 C   0  0  0  0  0  3  0  0  0  0  0  0
  -23.6550  -29.8200   20.2550 C   0  0  0  0  0  2  0  0  0  0  0  0
  -24.6810  -31.1040   22.1800 N   0  0  0  0  0  0  0  0  0  0  0  0
  -23.5150  -32.1850   23.7990 O   0  0  0  0  0  0  0  0  0  0  0  0
  -22.7690  -29.4750   22.5890 C   0  0  0  0  0  0  0  0  0  0  0  0
  -21.4450  -29.2890   22.4560 N   0  0  0  0  0  0  0  0  0  0  0  0
  -23.4480  -28.8530   23.4100 O   0  0  0  0  0  0  0  0  0  0  0  0
  -20.9570  -29.8470   21.7690 H   0  0  0  0  0  0  0  0  0  0  0  0
  -18.0720  -28.0760   22.9420 C   0  0  0  0  0  0  0  0  0  0  0  0
  -20.6280  -28.3460   23.2220 C   0  0  0  0  0  3  0  0  0  0  0  0
  -20.7390  -26.9170   22.6450 C   0  0  0  0  0  2  0  0  0  0  0  0
  -19.6410  -26.5880   21.6270 C   0  0  0  0  0  2  0  0  0  0  0  0
  -18.2570  -26.7270   22.2660 C   0  0  0  0  0  2  0  0  0  0  0  0
  -19.1860  -28.8440   23.3750 C   0  0  0  0  0  0  0  0  0  0  0  0
  -18.9600  -30.1060   23.9650 C   0  0  0  0  0  3  0  0  0  0  0  0
  -17.6540  -30.6030   24.1260 C   0  0  0  0  0  3  0  0  0  0  0  0
  -16.5550  -29.8320   23.7100 C   0  0  0  0  0  3  0  0  0  0  0  0
  -16.7640  -28.5700   23.1260 C   0  0  0  0  0  3  0  0  0  0  0  0
  -25.8770  -32.5620   23.9030 C   0  0  0  0  0  3  0  0  0  0  0  0
  -26.3820  -31.8100   25.1950 C   0  0  1  0  0  0  0  0  0  0  0  0
  -25.2750  -31.5770   26.2520 C   0  0  0  0  0  1  0  0  0  0  0  0
  -26.9820  -30.4340   24.8290 C   0  0  0  0  0  1  0  0  0  0  0  0
  -27.5180  -32.6210   25.8640 C   0  0  0  0  0  1  0  0  0  0  0  0
  -25.5590  -33.9630   24.2100 N   0  0  0  0  0  0  0  0  0  0  0  0
  -25.8990  -35.0060   23.4410 C   0  0  0  0  0  0  0  0  0  0  0  0
  -26.5840  -34.8910   22.4220 O   0  0  0  0  0  0  0  0  0  0  0  0
  -24.9570  -34.1260   25.0040 H   0  0  0  0  0  0  0  0  0  0  0  0
  -24.1770  -36.7910   23.0300 C   0  0  0  0  0  1  0  0  0  0  0  0
  -25.4000  -36.3980   23.8720 C   0  0  0  0  0  3  0  0  0  0  0  0
  -27.5140  -37.2960   24.7440 C   0  0  0  0  0  1  0  0  0  0  0  0
  -26.4340  -37.4510   23.7720 N   0  0  0  0  0  0  0  0  0  0  0  0
  -26.0230  -38.3720   23.8980 H   0  0  0  0  0  0  0  0  0  0  0  0
  1  8  1  0
  1  4  1  0
  2  3  1  0
  2  1  2  0
  3  5  2  0
  4 12  2  0
  4  6  1  0
  5 54  1  0
  5 12  1  0
  7  6  1  0
  8 11  1  6
  8  7  1  0
  9  2  1  0
 10  3  1  0
 14 13  1  0
 14  8  1  0
 14 15  1  0
 16 24  1  0
 17 22  1  0
 18 19  1  0
 18 17  1  0
 20 19  1  0
 20 29  1  0
 20 21  1  0
 22 16  1  0
 22 21  1  0
 23 16  2  0
 24 25  1  0
 24 15  1  0
 26 27  2  0
 27 46  1  0
 28 27  1  0
 28 31  1  0
 29 26  1  0
 29 30  1  0
 30 28  2  0
 31 32  1  0
 32 33  2  0
 34 37  1  0
 34 33  1  0
 35 34  2  0
 36 35  1  0
 36 31  2  0
 37 38  1  0
 38 39  1  0
 39 40  2  0
 41 40  1  0
 41 45  1  0
 42 41  2  0
 43 38  2  0
 43 42  1  0
 44 43  1  0
 46 47  1  0
 47 50  1  0
 47 49  1  0
 48 46  2  0
 51 52  1  0
 51 26  1  0
 53 51  1  0
 55 54  1  0
 56 67  2  0
 57 55  1  0
 57 62  1  0
 58 66  1  0
 58 68  1  0
 59 65  1  0
 59 61  1  0
 60 66  1  0
 61 62  2  0
 61 60  1  0
 63 57  2  0
 64 63  1  0
 64 59  2  0
 65 58  1  0
 66 56  1  0
 68 70  2  0
 69 68  1  0
 71 69  1  0
 72 81  2  0
 72 77  1  0
 73 69  1  0
 73 77  1  0
 74 73  1  0
 75 76  1  0
 75 74  1  0
 76 72  1  0
 77 78  2  0
 78 79  1  0
 80 79  2  0
 81 80  1  0
 82 56  1  0
 82 87  1  0
 82 83  1  0
 83 86  1  1
 83 84  1  0
 85 83  1  0
 87 90  1  0
 88 92  1  0
 88 87  1  0
 89 88  2  0
 92 91  1  0
 94 92  1  0
 94 95  1  0
 94 93  1  0
M  ISO  4  16 100  24 100  54 101  55 101
M  END
>  <TORSDO>  (10) 
F 19

>  <SCORE>  (10) 
-14.564

>  <name>  (10) 
9

>  <ligand_id>  (10) 
9

>  <original_smiles>  (10) 
[H]c1c([H])c([H])c2c(c1[H])C([H])([H])C([H])([H])C([H])([H])C2([H])N([H])C(=O)C1([H])N(C(=O)C([H])(N([H])C(=O)C([H])(N([H])C([H])([H])[H])C([H])([H])[H])C(C([H])([H])[H])(C([H])([H])[H])C([H])([H])[H])C([H])([H])c2c([H])c(OC([H])([H])c3nc4c(c(C([H])([H])[H])c3C([H])([H])[H])C(C([H])([H])[H])(C([H])(C([H])([H])[H])C([H])([H])N([H])C(=O)N3C([H])([H])C([H])([H])C([H])([H])C([H])(n5nc(-c6c([H])c([H])c(Oc7c([H])c([H])c(F)c([H])c7F)c([H])c6[H])c(C(=O)N([H])[H])c5N([H])[H])C3([H])[H])C([H])([H])C4([H])[H])c([H])c([H])c2C1([H])[H]

>  <smiles>  (10) 
[H]c1c([H])c([H])c2c(c1[H])C([H])([H])C([H])([H])C([H])([H])C2([H])N([H])C(=O)C1([H])N(C(=O)C([H])(N([H])C(=O)C([H])(N([H])C([H])([H])[H])C([H])([H])[H])C(C([H])([H])[H])(C([H])([H])[H])C([H])([H])[H])C([H])([H])c2c([H])c(OC([H])([H])c3nc4c(c(C([H])([H])[H])c3C([H])([H])[H])C(C([H])([H])[H])(C([H])(C([H])([H])[H])C([H])([H])N([H])C(=O)N3C([H])([H])C([H])([H])C([H])([H])C([H])(n5nc(-c6c([H])c([H])c(Oc7c([H])c([H])c(F)c([H])c7F)c([H])c6[H])c(C(=O)N([H])[H])c5N([H])[H])C3([H])[H])C([H])([H])C4([H])[H])c([H])c([H])c2C1([H])[H]

$$$$
10:0:0
     RDKit          3D

 93102  0  0  1  0  0  0  0  0999 V2000
  -29.5190  -21.0440   19.9520 C   0  0  0  0  0  0  0  0  0  0  0  0
  -28.8300  -22.2090   20.5520 C   0  0  0  0  0  0  0  0  0  0  0  0
  -28.9120  -23.5920   20.0260 C   0  0  0  0  0  0  0  0  0  0  0  0
  -30.2790  -21.4060   18.8020 C   0  0  0  0  0  0  0  0  0  0  0  0
  -29.7050  -23.7050   18.8660 C   0  0  0  0  0  0  0  0  0  0  0  0
  -27.9910  -21.9520   21.7920 C   0  0  0  0  0  1  0  0  0  0  0  0
  -31.1490  -20.4460   18.0080 C   0  0  0  0  0  1  0  0  0  0  0  0
  -29.8990  -25.0210   18.1330 C   0  0  0  0  0  1  0  0  0  0  0  0
  -30.3500  -22.6610   18.3030 N   0  0  0  0  0  0  0  0  0  0  0  0
  -30.7010  -14.9530   20.3410 C   0  0  0  0  0  0  0  0  0  0  0  0
  -30.4500  -12.6400   19.3740 C   0  0  0  0  0  2  0  0  0  0  0  0
  -29.5130  -12.6190   18.1510 C   0  0  0  0  0  2  0  0  0  0  0  0
  -28.0590  -12.4000   18.6060 C   0  0  0  0  0  2  0  0  0  0  0  0
  -27.6630  -13.3320   19.7800 C   0  0  0  0  0  3  0  0  0  0  0  0
  -28.7340  -13.3830   20.8930 C   0  0  0  0  0  2  0  0  0  0  0  0
  -30.0040  -13.7540   20.2560 N   0  0  0  0  0  0  0  0  0  0  0  0
  -31.9100  -14.9120   20.0900 O   0  0  0  0  0  0  0  0  0  0  0  0
  -28.7740  -18.3580   19.6550 C   0  0  0  0  0  2  0  0  0  0  0  0
  -30.8660  -18.7800   20.8180 C   0  0  0  0  0  2  0  0  0  0  0  0
  -28.8250  -16.8150   20.1360 C   0  0  0  0  0  2  0  0  0  0  0  0
  -30.8300  -17.2920   21.3910 C   0  0  0  0  0  2  0  0  0  0  0  0
  -29.4960  -19.4850   20.5010 C   0  0  0  0  0  3  0  0  0  0  0  0
  -30.1120  -16.2170   20.6240 N   0  0  0  0  0  0  0  0  0  0  0  0
  -25.3000  -13.9120   20.5610 C   0  0  0  0  0  0  0  0  0  0  0  0
  -24.2380  -13.1350   20.9300 C   0  0  0  0  0  0  0  0  0  0  0  0
  -24.7000  -11.7830   20.8780 C   0  0  0  0  0  0  0  0  0  0  0  0
  -26.3370  -13.0340   20.3000 N   0  0  0  0  0  0  0  0  0  0  0  0
  -25.9890  -11.7490   20.5590 N   0  0  0  0  0  0  0  0  0  0  0  0
  -23.9760  -10.5200   21.0560 C   0  0  0  0  0  0  0  0  0  0  0  0
  -24.3990   -9.5510   21.9920 C   0  0  0  0  0  3  0  0  0  0  0  0
  -23.6730   -8.3510   22.1580 C   0  0  0  0  0  3  0  0  0  0  0  0
  -22.5100   -8.1150   21.3880 C   0  0  0  0  0  0  0  0  0  0  0  0
  -22.1070   -9.0720   20.4410 C   0  0  0  0  0  3  0  0  0  0  0  0
  -22.8330  -10.2620   20.2730 C   0  0  0  0  0  3  0  0  0  0  0  0
  -21.7560   -6.9680   21.4640 O   0  0  0  0  0  0  0  0  0  0  0  0
  -21.6750   -6.2370   22.6220 C   0  0  0  0  0  0  0  0  0  0  0  0
  -21.1700   -6.7900   23.8180 C   0  0  0  0  0  3  0  0  0  0  0  0
  -21.0390   -5.9830   24.9670 C   0  0  0  0  0  3  0  0  0  0  0  0
  -21.4030   -4.6230   24.9180 C   0  0  0  0  0  0  0  0  0  0  0  0
  -21.9000   -4.0700   23.7250 C   0  0  0  0  0  3  0  0  0  0  0  0
  -22.0330   -4.8740   22.5790 C   0  0  0  0  0  0  0  0  0  0  0  0
  -22.4940   -4.3310   21.4260 F   0  0  0  0  0  0  0  0  0  0  0  0
  -21.2690   -3.8460   26.0170 F   0  0  0  0  0  0  0  0  0  0  0  0
  -22.8440  -13.6090   21.2170 C   0  0  0  0  0  0  0  0  0  0  0  0
  -22.1230  -12.9060   22.0830 N   0  0  0  0  0  0  0  0  0  0  0  0
  -22.4040  -14.6400   20.7090 O   0  0  0  0  0  0  0  0  0  0  0  0
  -22.4930  -12.0710   22.5140 H   0  0  0  0  0  0  0  0  0  0  0  0
  -21.1890  -13.2070   22.3190 H   0  0  0  0  0  0  0  0  0  0  0  0
  -25.4610  -15.2860   20.3990 N   0  0  0  0  0  0  0  0  0  0  0  0
  -24.6940  -15.9370   20.5270 H   0  0  0  0  0  0  0  0  0  0  0  0
  -26.3070  -15.7290   20.0680 H   0  0  0  0  0  0  0  0  0  0  0  0
  -28.1300  -24.8980   20.6150 C   0  0  0  0  0  2  0  0  0  0  0  0
  -28.3760  -26.3570   20.2100 O   0  0  0  0  0  0  0  0  0  0  0  0
  -24.6360  -31.9070   23.2280 C   0  0  0  0  0  0  0  0  0  0  0  0
  -27.2900  -27.2840   20.1950 C   0  0  0  0  0  0  0  0  0  0  0  0
  -23.4610  -30.5030   21.5740 C   0  0  0  0  0  3  0  0  0  0  0  0
  -24.9350  -28.9550   20.1580 C   0  0  0  0  0  0  0  0  0  0  0  0
  -26.0090  -30.8110   21.4260 C   0  0  0  0  0  2  0  0  0  0  0  0
  -26.1030  -29.4280   20.7720 C   0  0  0  0  0  0  0  0  0  0  0  0
  -27.2850  -28.6080   20.7740 C   0  0  0  0  0  3  0  0  0  0  0  0
  -26.1010  -26.8990   19.5410 C   0  0  0  0  0  3  0  0  0  0  0  0
  -24.9420  -27.7000   19.5300 C   0  0  0  0  0  3  0  0  0  0  0  0
  -23.6970  -29.8330   20.1960 C   0  0  0  0  0  2  0  0  0  0  0  0
  -24.7210  -31.0950   22.1320 N   0  0  0  0  0  0  0  0  0  0  0  0
  -23.5450  -32.1780   23.7500 O   0  0  0  0  0  0  0  0  0  0  0  0
  -22.7890  -29.4840   22.5270 C   0  0  0  0  0  0  0  0  0  0  0  0
  -21.4640  -29.3000   22.3880 N   0  0  0  0  0  0  0  0  0  0  0  0
  -23.4610  -28.8620   23.3530 O   0  0  0  0  0  0  0  0  0  0  0  0
  -20.9800  -29.8560   21.6980 H   0  0  0  0  0  0  0  0  0  0  0  0
  -18.0840  -28.0990   22.8860 C   0  0  0  0  0  0  0  0  0  0  0  0
  -20.6450  -28.3540   23.1490 C   0  0  0  0  0  3  0  0  0  0  0  0
  -20.7410  -26.9290   22.5560 C   0  0  0  0  0  2  0  0  0  0  0  0
  -19.6360  -26.6210   21.5410 C   0  0  0  0  0  2  0  0  0  0  0  0
  -18.2570  -26.7590   22.1910 C   0  0  0  0  0  2  0  0  0  0  0  0
  -19.2060  -28.8550   23.3220 C   0  0  0  0  0  0  0  0  0  0  0  0
  -18.9900  -30.1090   23.9320 C   0  0  0  0  0  3  0  0  0  0  0  0
  -17.6860  -30.6090   24.1110 C   0  0  0  0  0  3  0  0  0  0  0  0
  -16.5800  -29.8500   23.6920 C   0  0  0  0  0  3  0  0  0  0  0  0
  -16.7800  -28.5960   23.0860 C   0  0  0  0  0  3  0  0  0  0  0  0
  -25.9060  -32.5500   23.8660 C   0  0  0  0  0  3  0  0  0  0  0  0
  -25.5840  -33.9500   24.1840 N   0  0  0  0  0  0  0  0  0  0  0  0
  -25.9140  -35.0010   23.4220 C   0  0  0  0  0  0  0  0  0  0  0  0
  -26.5880  -34.8950   22.3940 O   0  0  0  0  0  0  0  0  0  0  0  0
  -24.9860  -34.1050   24.9820 H   0  0  0  0  0  0  0  0  0  0  0  0
  -24.1830  -36.7880   23.0480 C   0  0  0  0  0  1  0  0  0  0  0  0
  -25.4190  -36.3890   23.8700 C   0  0  0  0  0  3  0  0  0  0  0  0
  -27.5370  -37.2900   24.7250 C   0  0  0  0  0  1  0  0  0  0  0  0
  -26.4490  -37.4460   23.7640 N   0  0  0  0  0  0  0  0  0  0  0  0
  -26.0370  -38.3650   23.8980 H   0  0  0  0  0  0  0  0  0  0  0  0
  -26.4040  -31.7920   25.1570 C   0  0  1  0  0  0  0  0  0  0  0  0
  -25.2940  -31.5530   26.2080 C   0  0  0  0  0  1  0  0  0  0  0  0
  -27.0050  -30.4160   24.7900 C   0  0  0  0  0  1  0  0  0  0  0  0
  -27.5390  -32.5990   25.8310 C   0  0  0  0  0  1  0  0  0  0  0  0
  1  2  1  0
  2  6  1  0
  3  2  2  0
  3 52  1  0
  4  1  2  0
  5  3  1  0
  7  4  1  0
  8  5  1  0
  9  4  1  0
  9  5  2  0
 10 23  1  0
 11 16  1  0
 12 13  1  0
 12 11  1  0
 14 13  1  0
 14 27  1  0
 14 15  1  0
 16 10  1  0
 16 15  1  0
 17 10  2  0
 18 20  1  0
 18 22  1  0
 19 21  1  0
 20 23  1  0
 22  1  1  0
 22 19  1  0
 23 21  1  0
 24 25  2  0
 25 44  1  0
 26 25  1  0
 26 29  1  0
 27 28  1  0
 27 24  1  0
 28 26  2  0
 29 30  1  0
 30 31  2  0
 32 35  1  0
 32 31  1  0
 33 32  2  0
 34 33  1  0
 34 29  2  0
 35 36  1  0
 36 37  1  0
 37 38  2  0
 39 38  1  0
 39 43  1  0
 40 39  2  0
 41 36  2  0
 41 40  1  0
 42 41  1  0
 44 45  1  0
 45 48  1  0
 45 47  1  0
 46 44  2  0
 49 50  1  0
 49 24  1  0
 51 49  1  0
 53 52  1  0
 54 65  2  0
 55 53  1  0
 55 60  1  0
 56 64  1  0
 56 66  1  0
 57 63  1  0
 57 59  1  0
 58 64  1  0
 59 60  2  0
 59 58  1  0
 61 55  2  0
 62 61  1  0
 62 57  2  0
 63 56  1  0
 64 54  1  0
 66 68  2  0
 67 66  1  0
 69 67  1  0
 70 79  2  0
 70 75  1  0
 71 67  1  0
 71 75  1  0
 72 71  1  0
 73 74  1  0
 73 72  1  0
 74 70  1  0
 75 76  2  0
 76 77  1  0
 78 77  2  0
 79 78  1  0
 80 54  1  0
 80 81  1  0
 80 90  1  0
 81 84  1  0
 82 86  1  0
 82 81  1  0
 83 82  2  0
 86 85  1  0
 88 86  1  0
 88 89  1  0
 88 87  1  0
 90 93  1  1
 90 91  1  0
 92 90  1  0
M  ISO  4  10 100  23 100  52 101  53 101
M  END
>  <TORSDO>  (11) 
F 17

>  <SCORE>  (11) 
-15.342

>  <name>  (11) 
10

>  <ligand_id>  (11) 
10

>  <original_smiles>  (11) 
[H]c1c([H])c([H])c2c(c1[H])C([H])([H])C([H])([H])C([H])([H])C2([H])N([H])C(=O)C1([H])N(C(=O)C([H])(N([H])C(=O)C([H])(N([H])C([H])([H])[H])C([H])([H])[H])C(C([H])([H])[H])(C([H])([H])[H])C([H])([H])[H])C([H])([H])c2c([H])c(OC([H])([H])c3c(C([H])([H])[H])nc(C([H])([H])[H])c(C4([H])C([H])([H])C([H])([H])N(C(=O)N5C([H])([H])C([H])([H])C([H])([H])C([H])(n6nc(-c7c([H])c([H])c(Oc8c([H])c([H])c(F)c([H])c8F)c([H])c7[H])c(C(=O)N([H])[H])c6N([H])[H])C5([H])[H])C([H])([H])C4([H])[H])c3C([H])([H])[H])c([H])c([H])c2C1([H])[H]

>  <smiles>  (11) 
[H]c1c([H])c([H])c2c(c1[H])C([H])([H])C([H])([H])C([H])([H])C2([H])N([H])C(=O)C1([H])N(C(=O)C([H])(N([H])C(=O)C([H])(N([H])C([H])([H])[H])C([H])([H])[H])C(C([H])([H])[H])(C([H])([H])[H])C([H])([H])[H])C([H])([H])c2c([H])c(OC([H])([H])c3c(C([H])([H])[H])nc(C([H])([H])[H])c(C4([H])C([H])([H])C([H])([H])N(C(=O)N5C([H])([H])C([H])([H])C([H])([H])C([H])(n6nc(-c7c([H])c([H])c(Oc8c([H])c([H])c(F)c([H])c8F)c([H])c7[H])c(C(=O)N([H])[H])c6N([H])[H])C5([H])[H])C([H])([H])C4([H])[H])c3C([H])([H])[H])c([H])c([H])c2C1([H])[H]

$$$$
11:0:0
     RDKit          3D

 95104  0  0  1  0  0  0  0  0999 V2000
  -28.7940  -22.2610   21.2920 C   0  0  0  0  0  2  0  0  0  0  0  0
  -28.5050  -20.7290   21.1900 C   0  0  0  0  0  2  0  0  0  0  0  0
  -29.9290  -20.6230   19.2610 C   0  0  0  0  0  2  0  0  0  0  0  0
  -30.1810  -22.1760   19.3820 C   0  0  0  0  0  3  0  0  0  0  0  0
  -30.4700  -22.7140   17.9650 C   0  0  0  0  0  1  0  0  0  0  0  0
  -29.0280  -22.9050   19.9840 N   0  0  0  0  0  0  0  0  0  0  0  0
  -29.6190  -19.9560   20.5600 N   0  0  2  0  0  4  0  0  0  0  0  0
  -30.4190  -20.0960   21.1580 H   0  0  0  0  0  0  0  0  0  0  0  0
  -30.5380  -14.8900   19.8070 C   0  0  0  0  0  0  0  0  0  0  0  0
  -30.1910  -12.6560   18.7660 C   0  0  0  0  0  2  0  0  0  0  0  0
  -29.1470  -12.7270   17.6330 C   0  0  0  0  0  2  0  0  0  0  0  0
  -27.7310  -12.4950   18.1930 C   0  0  0  0  0  2  0  0  0  0  0  0
  -27.4370  -13.3750   19.4300 C   0  0  0  0  0  3  0  0  0  0  0  0
  -28.6020  -13.3490   20.4560 C   0  0  0  0  0  2  0  0  0  0  0  0
  -29.8450  -13.7010   19.7530 N   0  0  0  0  0  0  0  0  0  0  0  0
  -31.7100  -14.9410   19.4290 O   0  0  0  0  0  0  0  0  0  0  0  0
  -28.4920  -17.9500   19.3890 C   0  0  0  0  0  2  0  0  0  0  0  0
  -28.6010  -16.4280   19.5180 C   0  0  0  0  0  2  0  0  0  0  0  0
  -29.3480  -18.4520   20.5360 C   0  0  0  0  0  3  0  0  0  0  0  0
  -30.5160  -17.3850   20.5080 C   0  0  0  0  0  3  0  0  0  0  0  0
  -29.8810  -16.0660   20.1420 N   0  0  0  0  0  0  0  0  0  0  0  0
  -25.1380  -13.9640   20.4050 C   0  0  0  0  0  0  0  0  0  0  0  0
  -24.1070  -13.1800   20.8430 C   0  0  0  0  0  0  0  0  0  0  0  0
  -24.5620  -11.8310   20.7200 C   0  0  0  0  0  0  0  0  0  0  0  0
  -26.1510  -13.0870   20.0420 N   0  0  0  0  0  0  0  0  0  0  0  0
  -25.8190  -11.8000   20.2980 N   0  0  0  0  0  0  0  0  0  0  0  0
  -23.8560  -10.5650   20.9210 C   0  0  0  0  0  0  0  0  0  0  0  0
  -24.3170   -9.6070   21.8500 C   0  0  0  0  0  3  0  0  0  0  0  0
  -23.6130   -8.4000   22.0380 C   0  0  0  0  0  3  0  0  0  0  0  0
  -22.4350   -8.1430   21.2970 C   0  0  0  0  0  0  0  0  0  0  0  0
  -21.9950   -9.0900   20.3560 C   0  0  0  0  0  3  0  0  0  0  0  0
  -22.7000  -10.2890   20.1650 C   0  0  0  0  0  3  0  0  0  0  0  0
  -21.6990   -6.9880   21.3960 O   0  0  0  0  0  0  0  0  0  0  0  0
  -21.6110   -6.2920   22.5740 C   0  0  0  0  0  0  0  0  0  0  0  0
  -21.1090   -6.8830   23.7540 C   0  0  0  0  0  3  0  0  0  0  0  0
  -20.9720   -6.1110   24.9260 C   0  0  0  0  0  3  0  0  0  0  0  0
  -21.3250   -4.7490   24.9170 C   0  0  0  0  0  0  0  0  0  0  0  0
  -21.8190   -4.1570   23.7410 C   0  0  0  0  0  3  0  0  0  0  0  0
  -21.9600   -4.9270   22.5740 C   0  0  0  0  0  0  0  0  0  0  0  0
  -22.4180   -4.3460   21.4370 F   0  0  0  0  0  0  0  0  0  0  0  0
  -21.1850   -4.0040   26.0390 F   0  0  0  0  0  0  0  0  0  0  0  0
  -22.7410  -13.6490   21.2490 C   0  0  0  0  0  0  0  0  0  0  0  0
  -22.0950  -12.9350   22.1650 N   0  0  0  0  0  0  0  0  0  0  0  0
  -22.2540  -14.6810   20.7890 O   0  0  0  0  0  0  0  0  0  0  0  0
  -22.5020  -12.1010   22.5620 H   0  0  0  0  0  0  0  0  0  0  0  0
  -21.1800  -13.2280   22.4740 H   0  0  0  0  0  0  0  0  0  0  0  0
  -25.2770  -15.3400   20.2580 N   0  0  0  0  0  0  0  0  0  0  0  0
  -24.5120  -15.9770   20.4540 H   0  0  0  0  0  0  0  0  0  0  0  0
  -26.0670  -15.7920   19.8210 H   0  0  0  0  0  0  0  0  0  0  0  0
  -32.1440  -18.5530   22.1350 C   0  0  0  0  0  1  0  0  0  0  0  0
  -30.5600  -16.7850   23.0330 C   0  0  0  0  0  1  0  0  0  0  0  0
  -31.3610  -17.2710   21.8100 C   0  0  0  0  0  3  0  0  0  0  0  0
  -29.2160  -24.3880   20.1650 C   0  0  0  0  0  3  0  0  0  0  0  0
  -27.9410  -25.2900   19.9390 C   0  0  0  0  0  3  0  0  0  0  0  0
  -28.1210  -26.7430   20.0720 O   0  0  0  0  0  0  0  0  0  0  0  0
  -24.4840  -31.9980   23.3520 C   0  0  0  0  0  0  0  0  0  0  0  0
  -26.9800  -27.5530   20.0800 C   0  0  0  0  0  0  0  0  0  0  0  0
  -23.2150  -30.6520   21.7140 C   0  0  0  0  0  3  0  0  0  0  0  0
  -24.6090  -29.1420   20.1960 C   0  0  0  0  0  0  0  0  0  0  0  0
  -25.7440  -30.9790   21.4480 C   0  0  0  0  0  2  0  0  0  0  0  0
  -25.7980  -29.6220   20.7620 C   0  0  0  0  0  0  0  0  0  0  0  0
  -26.9840  -28.8390   20.6920 C   0  0  0  0  0  3  0  0  0  0  0  0
  -25.7660  -27.1150   19.4970 C   0  0  0  0  0  3  0  0  0  0  0  0
  -24.5950  -27.8930   19.5550 C   0  0  0  0  0  3  0  0  0  0  0  0
  -23.3750  -30.0120   20.3100 C   0  0  0  0  0  2  0  0  0  0  0  0
  -24.5020  -31.2240   22.2280 N   0  0  0  0  0  0  0  0  0  0  0  0
  -23.4220  -32.2640   23.9320 O   0  0  0  0  0  0  0  0  0  0  0  0
  -22.5840  -29.6110   22.6680 C   0  0  0  0  0  0  0  0  0  0  0  0
  -21.2670  -29.3830   22.5250 N   0  0  0  0  0  0  0  0  0  0  0  0
  -23.2770  -29.0100   23.4930 O   0  0  0  0  0  0  0  0  0  0  0  0
  -20.7670  -29.9210   21.8310 H   0  0  0  0  0  0  0  0  0  0  0  0
  -17.9470  -28.0070   22.9230 C   0  0  0  0  0  0  0  0  0  0  0  0
  -20.4730  -28.4160   23.2850 C   0  0  0  0  0  3  0  0  0  0  0  0
  -20.6790  -26.9810   22.7470 C   0  0  0  0  0  2  0  0  0  0  0  0
  -19.6380  -26.5750   21.6990 C   0  0  0  0  0  2  0  0  0  0  0  0
  -18.2250  -26.6550   22.2860 C   0  0  0  0  0  2  0  0  0  0  0  0
  -19.0030  -28.8400   23.3760 C   0  0  0  0  0  0  0  0  0  0  0  0
  -18.6900  -30.1020   23.9270 C   0  0  0  0  0  3  0  0  0  0  0  0
  -17.3540  -30.5320   24.0310 C   0  0  0  0  0  3  0  0  0  0  0  0
  -16.3110  -29.6960   23.5960 C   0  0  0  0  0  3  0  0  0  0  0  0
  -16.6080  -28.4350   23.0460 C   0  0  0  0  0  3  0  0  0  0  0  0
  -25.7930  -32.6050   23.9470 C   0  0  0  0  0  3  0  0  0  0  0  0
  -26.3120  -31.8320   25.2220 C   0  0  1  0  0  0  0  0  0  0  0  0
  -25.2290  -31.6160   26.3030 C   0  0  0  0  0  1  0  0  0  0  0  0
  -26.8690  -30.4440   24.8300 C   0  0  0  0  0  1  0  0  0  0  0  0
  -27.4830  -32.6120   25.8650 C   0  0  0  0  0  1  0  0  0  0  0  0
  -25.5220  -34.0130   24.2690 N   0  0  0  0  0  0  0  0  0  0  0  0
  -25.8360  -35.0490   23.4790 C   0  0  0  0  0  0  0  0  0  0  0  0
  -26.4560  -34.9180   22.4200 O   0  0  0  0  0  0  0  0  0  0  0  0
  -24.9700  -34.1900   25.0950 H   0  0  0  0  0  0  0  0  0  0  0  0
  -24.1050  -36.8520   23.2010 C   0  0  0  0  0  1  0  0  0  0  0  0
  -25.3940  -36.4520   23.9360 C   0  0  0  0  0  3  0  0  0  0  0  0
  -27.5840  -37.3350   24.6080 C   0  0  0  0  0  1  0  0  0  0  0  0
  -26.4260  -37.4910   23.7310 N   0  0  0  0  0  0  0  0  0  0  0  0
  -26.0390  -38.4190   23.8780 H   0  0  0  0  0  0  0  0  0  0  0  0
  2  1  1  0
  3  4  1  0
  3  7  1  0
  4  5  1  0
  4  6  1  0
  6 53  1  0
  6  1  1  0
  7  8  1  1
  7  2  1  0
  9 21  1  0
 10 15  1  0
 11 12  1  0
 11 10  1  0
 13 12  1  0
 13 25  1  0
 13 14  1  0
 15  9  1  0
 15 14  1  0
 16  9  2  0
 17 18  1  0
 18 21  1  0
 19 17  1  0
 19  7  1  0
 20 19  1  0
 20 52  1  0
 21 20  1  0
 22 23  2  0
 23 42  1  0
 24 23  1  0
 24 27  1  0
 25 26  1  0
 25 22  1  0
 26 24  2  0
 27 28  1  0
 28 29  2  0
 30 33  1  0
 30 29  1  0
 31 30  2  0
 32 31  1  0
 32 27  2  0
 33 34  1  0
 34 39  2  0
 34 35  1  0
 35 36  2  0
 37 36  1  0
 37 41  1  0
 38 37  2  0
 39 38  1  0
 40 39  1  0
 42 43  1  0
 43 46  1  0
 43 45  1  0
 44 42  2  0
 47 22  1  0
 47 48  1  0
 49 47  1  0
 52 50  1  0
 52 51  1  0
 54 55  1  0
 54 53  2  0
 55 57  1  0
 56 67  2  0
 57 62  1  0
 58 66  1  0
 58 68  1  0
 59 65  1  0
 59 61  1  0
 60 66  1  0
 61 60  1  0
 62 61  2  0
 63 64  1  0
 63 57  2  0
 64 59  2  0
 65 58  1  0
 66 56  1  0
 68 70  2  0
 69 68  1  0
 71 69  1  0
 72 81  2  0
 72 77  1  0
 73 69  1  0
 73 77  1  0
 74 73  1  0
 75 76  1  0
 75 74  1  0
 76 72  1  0
 77 78  2  0
 78 79  1  0
 80 79  2  0
 81 80  1  0
 82 56  1  0
 82 87  1  0
 82 83  1  0
 83 86  1  1
 83 84  1  0
 85 83  1  0
 87 90  1  0
 88 92  1  0
 88 87  1  0
 89 88  2  0
 92 91  1  0
 94 95  1  0
 94 92  1  0
 94 93  1  0
M  ISO  4   9 100  21 100  54 101  55 101
M  END
>  <TORSDO>  (12) 
F 19

>  <SCORE>  (12) 
-13.130

>  <name>  (12) 
11

>  <ligand_id>  (12) 
11

>  <original_smiles>  (12) 
[H]c1c([H])c([H])c2c(c1[H])C([H])([H])C([H])([H])C([H])([H])C2([H])N([H])C(=O)C1([H])N(C(=O)C([H])(N([H])C(=O)C([H])(N([H])C([H])([H])[H])C([H])([H])[H])C(C([H])([H])[H])(C([H])([H])[H])C([H])([H])[H])C([H])([H])c2c([H])c(OC([H])([H])C([H])([H])N3C([H])([H])C([H])([H])[N+]([H])(C4([H])C([H])([H])C([H])([H])N(C(=O)N5C([H])([H])C([H])([H])C([H])([H])C([H])(n6nc(-c7c([H])c([H])c(Oc8c([H])c([H])c(F)c([H])c8F)c([H])c7[H])c(C(=O)N([H])[H])c6N([H])[H])C5([H])[H])C4([H])C([H])(C([H])([H])[H])C([H])([H])[H])C([H])([H])C3([H])C([H])([H])[H])c([H])c([H])c2C1([H])[H]

>  <smiles>  (12) 
[H]c1c([H])c([H])c2c(c1[H])C([H])([H])C([H])([H])C([H])([H])C2([H])N([H])C(=O)C1([H])N(C(=O)C([H])(N([H])C(=O)C([H])(N([H])C([H])([H])[H])C([H])([H])[H])C(C([H])([H])[H])(C([H])([H])[H])C([H])([H])[H])C([H])([H])c2c([H])c(OC([H])([H])C([H])([H])N3C([H])([H])C([H])([H])[N+]([H])(C4([H])C([H])([H])C([H])([H])N(C(=O)N5C([H])([H])C([H])([H])C([H])([H])C([H])(n6nc(-c7c([H])c([H])c(Oc8c([H])c([H])c(F)c([H])c8F)c([H])c7[H])c(C(=O)N([H])[H])c6N([H])[H])C5([H])[H])C4([H])C([H])(C([H])([H])[H])C([H])([H])[H])C([H])([H])C3([H])C([H])([H])[H])c([H])c([H])c2C1([H])[H]

$$$$
12:0:0
     RDKit          3D

 97106  0  0  1  0  0  0  0  0999 V2000
  -31.4030  -18.9790   22.8540 C   0  0  0  0  0  0  0  0  0  0  0  0
  -30.2200  -19.0380   20.1470 C   0  0  0  0  0  2  0  0  0  0  0  0
  -31.7670  -21.1920   20.0980 C   0  0  0  0  0  2  0  0  0  0  0  0
  -30.6710  -20.2770   22.4070 C   0  0  1  0  0  0  0  0  0  0  0  0
  -31.0180  -17.6110   22.2080 C   0  0  2  0  0  0  0  0  0  0  0  0
  -30.6930  -20.4050   20.8570 C   0  0  2  0  0  0  0  0  0  0  0  0
  -31.0330  -17.6840   20.6230 C   0  0  2  0  0  0  0  0  0  0  0  0
  -29.2140  -20.2700   22.9370 C   0  0  0  0  0  1  0  0  0  0  0  0
  -31.3590  -21.4850   23.1260 C   0  0  0  0  0  1  0  0  0  0  0  0
  -29.6210  -17.1560   22.7200 C   0  0  0  0  0  1  0  0  0  0  0  0
  -32.0040  -16.5360   22.7690 C   0  0  0  0  0  1  0  0  0  0  0  0
  -32.4810  -17.9060   20.0910 C   0  0  0  0  0  1  0  0  0  0  0  0
  -30.5460  -21.8810   20.4700 N   0  0  2  0  0  4  0  0  0  0  0  0
  -32.2550  -19.0270   23.7480 O   0  0  0  0  0  0  0  0  0  0  0  0
  -30.6910  -22.4320   21.3040 H   0  0  0  0  0  0  0  0  0  0  0  0
  -31.1330  -15.1590   19.6860 C   0  0  0  0  0  0  0  0  0  0  0  0
  -30.7730  -12.9020   18.6730 C   0  0  0  0  0  2  0  0  0  0  0  0
  -29.7280  -12.9750   17.5400 C   0  0  0  0  0  2  0  0  0  0  0  0
  -28.3080  -12.8060   18.1100 C   0  0  0  0  0  2  0  0  0  0  0  0
  -28.0520  -13.7050   19.3490 C   0  0  0  0  0  3  0  0  0  0  0  0
  -29.2090  -13.6300   20.3680 C   0  0  0  0  0  2  0  0  0  0  0  0
  -30.4460  -13.9670   19.6510 N   0  0  0  0  0  0  0  0  0  0  0  0
  -32.2620  -15.2020   19.1960 O   0  0  0  0  0  0  0  0  0  0  0  0
  -30.4990  -16.3090   20.1500 N   0  0  0  0  0  0  0  0  0  0  0  0
  -29.5400  -16.1370   20.4120 H   0  0  0  0  0  0  0  0  0  0  0  0
  -25.7850  -14.3020   20.3900 C   0  0  0  0  0  0  0  0  0  0  0  0
  -24.7360  -13.5330   20.8110 C   0  0  0  0  0  0  0  0  0  0  0  0
  -25.1380  -12.1750   20.6170 C   0  0  0  0  0  0  0  0  0  0  0  0
  -26.7600  -13.4160   19.9640 N   0  0  0  0  0  0  0  0  0  0  0  0
  -26.3840  -12.1250   20.1620 N   0  0  0  0  0  0  0  0  0  0  0  0
  -24.3860  -10.9230   20.7800 C   0  0  0  0  0  0  0  0  0  0  0  0
  -24.8210   -9.9100   21.6620 C   0  0  0  0  0  3  0  0  0  0  0  0
  -24.0690   -8.7250   21.8170 C   0  0  0  0  0  3  0  0  0  0  0  0
  -22.8680   -8.5460   21.0900 C   0  0  0  0  0  0  0  0  0  0  0  0
  -22.4520   -9.5480   20.1960 C   0  0  0  0  0  3  0  0  0  0  0  0
  -23.2050  -10.7240   20.0390 C   0  0  0  0  0  3  0  0  0  0  0  0
  -22.0860   -7.4180   21.1570 O   0  0  0  0  0  0  0  0  0  0  0  0
  -21.9380   -6.7130   22.3250 C   0  0  0  0  0  0  0  0  0  0  0  0
  -21.4200   -7.3100   23.4960 C   0  0  0  0  0  3  0  0  0  0  0  0
  -21.2200   -6.5320   24.6540 C   0  0  0  0  0  3  0  0  0  0  0  0
  -21.5270   -5.1590   24.6420 C   0  0  0  0  0  0  0  0  0  0  0  0
  -22.0390   -4.5630   23.4760 C   0  0  0  0  0  3  0  0  0  0  0  0
  -22.2410   -5.3370   22.3210 C   0  0  0  0  0  0  0  0  0  0  0  0
  -22.7130   -4.7510   21.1950 F   0  0  0  0  0  0  0  0  0  0  0  0
  -21.3290   -4.4100   25.7520 F   0  0  0  0  0  0  0  0  0  0  0  0
  -23.3970  -14.0270   21.2750 C   0  0  0  0  0  0  0  0  0  0  0  0
  -22.7600  -13.3060   22.1910 N   0  0  0  0  0  0  0  0  0  0  0  0
  -22.9310  -15.0880   20.8620 O   0  0  0  0  0  0  0  0  0  0  0  0
  -23.1520  -12.4450   22.5440 H   0  0  0  0  0  0  0  0  0  0  0  0
  -21.8660  -13.6180   22.5420 H   0  0  0  0  0  0  0  0  0  0  0  0
  -25.9840  -15.6780   20.3070 N   0  0  0  0  0  0  0  0  0  0  0  0
  -25.2560  -16.3400   20.5520 H   0  0  0  0  0  0  0  0  0  0  0  0
  -26.7930  -16.1170   19.8900 H   0  0  0  0  0  0  0  0  0  0  0  0
  -29.7750  -22.6810   19.4240 C   0  0  0  0  0  2  0  0  0  0  0  0
  -29.8320  -24.2930   19.6800 C   0  0  0  0  0  3  0  0  0  0  0  0
  -28.7150  -25.3200   19.1310 C   0  0  0  0  0  3  0  0  0  0  0  0
  -28.7790  -26.7870   19.4530 O   0  0  0  0  0  0  0  0  0  0  0  0
  -24.5570  -31.4860   23.0000 C   0  0  0  0  0  0  0  0  0  0  0  0
  -27.5920  -27.5550   19.4660 C   0  0  0  0  0  0  0  0  0  0  0  0
  -23.4890  -30.1610   21.2120 C   0  0  0  0  0  3  0  0  0  0  0  0
  -25.0770  -28.9400   19.6200 C   0  0  0  0  0  0  0  0  0  0  0  0
  -25.9870  -30.7440   21.0800 C   0  0  0  0  0  2  0  0  0  0  0  0
  -26.1980  -29.4650   20.2760 C   0  0  0  0  0  0  0  0  0  0  0  0
  -27.4560  -28.7860   20.1890 C   0  0  0  0  0  3  0  0  0  0  0  0
  -26.4400  -27.1010   18.7770 C   0  0  0  0  0  3  0  0  0  0  0  0
  -25.2030  -27.7670   18.8600 C   0  0  0  0  0  3  0  0  0  0  0  0
  -23.7610  -29.6790   19.7610 C   0  0  0  0  0  2  0  0  0  0  0  0
  -24.6940  -30.8130   21.8190 N   0  0  0  0  0  0  0  0  0  0  0  0
  -23.4540  -31.5930   23.5570 O   0  0  0  0  0  0  0  0  0  0  0  0
  -22.9450  -28.9790   22.0500 C   0  0  0  0  0  0  0  0  0  0  0  0
  -21.6420  -28.6810   21.9030 N   0  0  0  0  0  0  0  0  0  0  0  0
  -23.6920  -28.3400   22.7950 O   0  0  0  0  0  0  0  0  0  0  0  0
  -21.0940  -29.2600   21.2830 H   0  0  0  0  0  0  0  0  0  0  0  0
  -18.4150  -27.0760   22.2450 C   0  0  0  0  0  0  0  0  0  0  0  0
  -20.9310  -27.5830   22.5640 C   0  0  0  0  0  3  0  0  0  0  0  0
  -21.1870  -26.2400   21.8420 C   0  0  0  0  0  2  0  0  0  0  0  0
  -20.1230  -25.9060   20.7910 C   0  0  0  0  0  2  0  0  0  0  0  0
  -18.7360  -25.8330   21.4320 C   0  0  0  0  0  2  0  0  0  0  0  0
  -19.4460  -27.9060   22.7620 C   0  0  0  0  0  0  0  0  0  0  0  0
  -19.0920  -29.0690   23.4800 C   0  0  0  0  0  3  0  0  0  0  0  0
  -17.7420  -29.4030   23.6910 C   0  0  0  0  0  3  0  0  0  0  0  0
  -16.7270  -28.5700   23.1910 C   0  0  0  0  0  3  0  0  0  0  0  0
  -17.0630  -27.4090   22.4720 C   0  0  0  0  0  3  0  0  0  0  0  0
  -25.7730  -32.1760   23.6900 C   0  0  0  0  0  3  0  0  0  0  0  0
  -26.3010  -31.3910   24.9540 C   0  0  1  0  0  0  0  0  0  0  0  0
  -25.1900  -31.0220   25.9670 C   0  0  0  0  0  1  0  0  0  0  0  0
  -27.0080  -30.0820   24.5360 C   0  0  0  0  0  1  0  0  0  0  0  0
  -27.3550  -32.2480   25.6970 C   0  0  0  0  0  1  0  0  0  0  0  0
  -25.3560  -33.5350   24.0660 N   0  0  0  0  0  0  0  0  0  0  0  0
  -25.6780  -34.6470   23.3940 C   0  0  0  0  0  0  0  0  0  0  0  0
  -26.4280  -34.6420   22.4140 O   0  0  0  0  0  0  0  0  0  0  0  0
  -24.6960  -33.6070   24.8260 H   0  0  0  0  0  0  0  0  0  0  0  0
  -23.8950  -36.3780   22.9870 C   0  0  0  0  0  1  0  0  0  0  0  0
  -25.0740  -35.9770   23.8880 C   0  0  0  0  0  3  0  0  0  0  0  0
  -27.0710  -36.9060   24.9750 C   0  0  0  0  0  1  0  0  0  0  0  0
  -26.0540  -37.0850   23.9420 N   0  0  0  0  0  0  0  0  0  0  0  0
  -25.5870  -37.9720   24.1060 H   0  0  0  0  0  0  0  0  0  0  0  0
  1 14  2  0
  2  7  1  0
  6  2  1  6
  3 13  1  0
  4  1  1  0
  4  8  1  1
  4  9  1  0
  5 10  1  1
  5 11  1  0
  5  1  1  0
  6  3  1  0
  6  4  1  0
  7 12  1  6
  7  5  1  0
 13  6  1  0
 13 15  1  1
 16 24  1  0
 17 22  1  0
 18 19  1  0
 18 17  1  0
 20 19  1  0
 20 29  1  0
 20 21  1  0
 22 16  1  0
 22 21  1  0
 23 16  2  0
 24 25  1  0
 24  7  1  0
 26 27  2  0
 27 46  1  0
 28 31  1  0
 28 27  1  0
 29 30  1  0
 29 26  1  0
 30 28  2  0
 31 32  1  0
 32 33  2  0
 34 37  1  0
 34 33  1  0
 35 34  2  0
 36 35  1  0
 36 31  2  0
 37 38  1  0
 38 39  1  0
 39 40  2  0
 41 40  1  0
 41 45  1  0
 42 41  2  0
 43 38  2  0
 43 42  1  0
 44 43  1  0
 46 47  1  0
 47 50  1  0
 47 49  1  0
 48 46  2  0
 51 26  1  0
 51 52  1  0
 53 51  1  0
 54 55  1  0
 54 13  1  0
 56 57  1  0
 56 55  2  0
 57 59  1  0
 58 69  2  0
 59 64  1  0
 60 68  1  0
 60 70  1  0
 61 67  1  0
 61 63  1  0
 62 68  1  0
 63 62  1  0
 64 63  2  0
 65 66  1  0
 65 59  2  0
 66 61  2  0
 67 60  1  0
 68 58  1  0
 70 72  2  0
 71 70  1  0
 73 71  1  0
 74 83  2  0
 74 79  1  0
 75 71  1  0
 75 79  1  0
 76 75  1  0
 77 78  1  0
 77 76  1  0
 78 74  1  0
 79 80  2  0
 80 81  1  0
 82 81  2  0
 83 82  1  0
 84 58  1  0
 84 89  1  0
 84 85  1  0
 85 88  1  1
 85 86  1  0
 87 85  1  0
 89 92  1  0
 90 94  1  0
 90 89  1  0
 91 90  2  0
 94 93  1  0
 94 96  1  0
 96 97  1  0
 96 95  1  0
M  ISO  4  16 100  24 100  56 101  57 101
M  END
>  <TORSDO>  (13) 
F 19

>  <SCORE>  (13) 
-5.590

>  <name>  (13) 
12

>  <ligand_id>  (13) 
12

>  <original_smiles>  (13) 
[H]c1c([H])c([H])c2c(c1[H])C([H])([H])C([H])([H])C([H])([H])C2([H])N([H])C(=O)C1([H])N(C(=O)C([H])(N([H])C(=O)C([H])(N([H])C([H])([H])[H])C([H])([H])[H])C(C([H])([H])[H])(C([H])([H])[H])C([H])([H])[H])C([H])([H])c2c([H])c(OC([H])([H])C([H])([H])C([H])([H])[N+]3([H])C([H])([H])C34C([H])([H])C(N([H])C(=O)N3C([H])([H])C([H])([H])C([H])([H])C([H])(n5nc(-c6c([H])c([H])c(Oc7c([H])c([H])c(F)c([H])c7F)c([H])c6[H])c(C(=O)N([H])[H])c5N([H])[H])C3([H])[H])(C([H])([H])[H])C(C([H])([H])[H])(C([H])([H])[H])C(=O)C4(C([H])([H])[H])C([H])([H])[H])c([H])c([H])c2C1([H])[H]

>  <smiles>  (13) 
[H]c1c([H])c([H])c2c(c1[H])C([H])([H])C([H])([H])C([H])([H])C2([H])N([H])C(=O)C1([H])N(C(=O)C([H])(N([H])C(=O)C([H])(N([H])C([H])([H])[H])C([H])([H])[H])C(C([H])([H])[H])(C([H])([H])[H])C([H])([H])[H])C([H])([H])c2c([H])c(OC([H])([H])C([H])([H])C([H])([H])[N+]3([H])C([H])([H])C34C([H])([H])C(N([H])C(=O)N3C([H])([H])C([H])([H])C([H])([H])C([H])(n5nc(-c6c([H])c([H])c(Oc7c([H])c([H])c(F)c([H])c7F)c([H])c6[H])c(C(=O)N([H])[H])c5N([H])[H])C3([H])[H])(C([H])([H])[H])C(C([H])([H])[H])(C([H])([H])[H])C(=O)C4(C([H])([H])[H])C([H])([H])[H])c([H])c([H])c2C1([H])[H]

$$$$
13:0:0
     RDKit          3D

 99109  0  0  1  0  0  0  0  0999 V2000
  -30.2810  -22.4740   20.2330 C   0  0  0  0  0  0  0  0  0  0  0  0
  -29.2700  -21.4540   20.0130 C   0  0  0  0  0  0  0  0  0  0  0  0
  -29.7510  -23.7480   20.0940 C   0  0  0  0  0  0  0  0  0  0  0  0
  -28.1270  -22.2750   19.8290 C   0  0  0  0  0  0  0  0  0  0  0  0
  -30.5050  -25.0410   20.1650 C   0  0  0  0  0  2  0  0  0  0  0  0
  -32.4040  -23.6790   20.9320 C   0  0  0  0  0  2  0  0  0  0  0  0
  -31.7800  -22.3220   20.5070 C   0  0  0  0  0  3  0  0  0  0  0  0
  -26.7250  -21.8190   19.5830 C   0  0  0  0  0  1  0  0  0  0  0  0
  -32.1280  -21.2780   21.5820 C   0  0  0  0  0  1  0  0  0  0  0  0
  -28.3890  -23.7070   19.8770 N   0  0  0  0  0  0  0  0  0  0  0  0
  -31.9660  -24.8020   20.0590 N   0  0  2  0  0  4  0  0  0  0  0  0
  -32.0920  -24.4730   19.1150 H   0  0  0  0  0  0  0  0  0  0  0  0
  -30.5170  -15.2350   19.9040 C   0  0  0  0  0  0  0  0  0  0  0  0
  -30.3270  -12.8710   19.0320 C   0  0  0  0  0  2  0  0  0  0  0  0
  -29.3360  -12.7850   17.8510 C   0  0  0  0  0  2  0  0  0  0  0  0
  -27.9030  -12.5690   18.3690 C   0  0  0  0  0  2  0  0  0  0  0  0
  -27.5430  -13.5220   19.5390 C   0  0  0  0  0  3  0  0  0  0  0  0
  -28.6570  -13.6040   20.6040 C   0  0  0  0  0  2  0  0  0  0  0  0
  -29.8850  -13.9960   19.9050 N   0  0  0  0  0  0  0  0  0  0  0  0
  -31.7060  -15.2470   19.5630 O   0  0  0  0  0  0  0  0  0  0  0  0
  -29.1450  -18.8390   21.1240 C   0  0  0  0  0  2  0  0  0  0  0  0
  -29.2490  -18.8900   18.7500 C   0  0  0  0  0  2  0  0  0  0  0  0
  -29.8130  -17.3630   21.1540 C   0  0  0  0  0  2  0  0  0  0  0  0
  -29.9350  -17.4240   18.7580 C   0  0  0  0  0  2  0  0  0  0  0  0
  -29.5830  -19.8160   19.9670 C   0  0  0  0  0  3  0  0  0  0  0  0
  -29.7990  -16.4740   19.9340 N   0  0  0  0  0  0  0  0  0  0  0  0
  -25.2630  -14.0800   20.5520 C   0  0  0  0  0  0  0  0  0  0  0  0
  -24.2020  -13.2990   20.9220 C   0  0  0  0  0  0  0  0  0  0  0  0
  -24.6080  -11.9480   20.6960 C   0  0  0  0  0  0  0  0  0  0  0  0
  -26.2440  -13.2050   20.1220 N   0  0  0  0  0  0  0  0  0  0  0  0
  -25.8670  -11.9100   20.2730 N   0  0  0  0  0  0  0  0  0  0  0  0
  -23.8480  -10.6950   20.8030 C   0  0  0  0  0  0  0  0  0  0  0  0
  -24.2870   -9.6310   21.6230 C   0  0  0  0  0  3  0  0  0  0  0  0
  -23.5270   -8.4460   21.7250 C   0  0  0  0  0  3  0  0  0  0  0  0
  -22.3140   -8.3160   21.0070 C   0  0  0  0  0  0  0  0  0  0  0  0
  -21.8940   -9.3680   20.1750 C   0  0  0  0  0  3  0  0  0  0  0  0
  -22.6540  -10.5450   20.0700 C   0  0  0  0  0  3  0  0  0  0  0  0
  -21.5230   -7.1910   21.0260 O   0  0  0  0  0  0  0  0  0  0  0  0
  -21.4360   -6.3910   22.1370 C   0  0  0  0  0  0  0  0  0  0  0  0
  -21.0240   -6.8960   23.3890 C   0  0  0  0  0  3  0  0  0  0  0  0
  -20.8800   -6.0250   24.4880 C   0  0  0  0  0  3  0  0  0  0  0  0
  -21.1400   -4.6500   24.3340 C   0  0  0  0  0  0  0  0  0  0  0  0
  -21.5440   -4.1440   23.0860 C   0  0  0  0  0  3  0  0  0  0  0  0
  -21.6890   -5.0120   21.9900 C   0  0  0  0  0  0  0  0  0  0  0  0
  -22.0590   -4.5170   20.7850 F   0  0  0  0  0  0  0  0  0  0  0  0
  -20.9950   -3.8110   25.3860 F   0  0  0  0  0  0  0  0  0  0  0  0
  -22.8530  -13.7840   21.3660 C   0  0  0  0  0  0  0  0  0  0  0  0
  -22.1850  -13.0300   22.2320 N   0  0  0  0  0  0  0  0  0  0  0  0
  -22.4060  -14.8640   20.9830 O   0  0  0  0  0  0  0  0  0  0  0  0
  -22.5640  -12.1540   22.5610 H   0  0  0  0  0  0  0  0  0  0  0  0
  -21.2830  -13.3330   22.5690 H   0  0  0  0  0  0  0  0  0  0  0  0
  -25.4680  -15.4560   20.5210 N   0  0  0  0  0  0  0  0  0  0  0  0
  -24.7460  -16.1190   20.7810 H   0  0  0  0  0  0  0  0  0  0  0  0
  -26.3180  -15.9020   20.1980 H   0  0  0  0  0  0  0  0  0  0  0  0
  -34.2050  -25.8440   19.6240 C   0  0  0  0  0  1  0  0  0  0  0  0
  -32.8000  -26.6570   21.5830 C   0  0  0  0  0  1  0  0  0  0  0  0
  -32.7780  -26.0510   20.1630 C   0  0  0  0  0  3  0  0  0  0  0  0
  -27.3790  -24.9090   19.7290 C   0  0  0  0  0  2  0  0  0  0  0  0
  -27.7970  -26.3680   19.6070 O   0  0  0  0  0  0  0  0  0  0  0  0
  -24.5640  -32.0150   23.0690 C   0  0  0  0  0  0  0  0  0  0  0  0
  -26.7690  -27.3830   19.6540 C   0  0  0  0  0  0  0  0  0  0  0  0
  -23.1880  -30.6700   21.5320 C   0  0  0  0  0  3  0  0  0  0  0  0
  -24.4670  -29.1410   19.9150 C   0  0  0  0  0  0  0  0  0  0  0  0
  -25.7140  -30.9310   21.1060 C   0  0  0  0  0  2  0  0  0  0  0  0
  -25.7090  -29.5600   20.4120 C   0  0  0  0  0  0  0  0  0  0  0  0
  -26.8590  -28.6950   20.2700 C   0  0  0  0  0  3  0  0  0  0  0  0
  -25.4980  -27.0820   19.1050 C   0  0  0  0  0  3  0  0  0  0  0  0
  -24.3740  -27.9160   19.2450 C   0  0  0  0  0  3  0  0  0  0  0  0
  -23.2580  -30.0370   20.1180 C   0  0  0  0  0  2  0  0  0  0  0  0
  -24.5140  -31.2240   21.9550 N   0  0  0  0  0  0  0  0  0  0  0  0
  -23.5410  -32.2890   23.7160 O   0  0  0  0  0  0  0  0  0  0  0  0
  -22.6120  -29.6340   22.5300 C   0  0  0  0  0  0  0  0  0  0  0  0
  -21.2900  -29.3950   22.4710 N   0  0  0  0  0  0  0  0  0  0  0  0
  -23.3550  -29.0490   23.3240 O   0  0  0  0  0  0  0  0  0  0  0  0
  -20.7420  -29.9210   21.8040 H   0  0  0  0  0  0  0  0  0  0  0  0
  -18.0360  -27.8970   23.0200 C   0  0  0  0  0  0  0  0  0  0  0  0
  -20.5540  -28.4270   23.2900 C   0  0  0  0  0  3  0  0  0  0  0  0
  -20.8040  -26.9810   22.8010 C   0  0  0  0  0  2  0  0  0  0  0  0
  -19.7520  -26.4930   21.8000 C   0  0  0  0  0  2  0  0  0  0  0  0
  -18.3540  -26.5360   22.4240 C   0  0  0  0  0  2  0  0  0  0  0  0
  -19.0690  -28.7910   23.4120 C   0  0  0  0  0  0  0  0  0  0  0  0
  -18.7180  -30.0560   23.9290 C   0  0  0  0  0  3  0  0  0  0  0  0
  -17.3670  -30.4320   24.0590 C   0  0  0  0  0  3  0  0  0  0  0  0
  -16.3490  -29.5380   23.6830 C   0  0  0  0  0  3  0  0  0  0  0  0
  -16.6850  -28.2730   23.1690 C   0  0  0  0  0  3  0  0  0  0  0  0
  -25.9050  -32.6310   23.5720 C   0  0  0  0  0  3  0  0  0  0  0  0
  -25.6240  -34.0010   24.0280 N   0  0  0  0  0  0  0  0  0  0  0  0
  -25.9680  -35.1130   23.3640 C   0  0  0  0  0  0  0  0  0  0  0  0
  -26.6220  -35.0900   22.3180 O   0  0  0  0  0  0  0  0  0  0  0  0
  -25.0430  -34.0940   24.8480 H   0  0  0  0  0  0  0  0  0  0  0  0
  -24.2700  -36.9640   23.2060 C   0  0  0  0  0  1  0  0  0  0  0  0
  -25.5170  -36.4650   23.9530 C   0  0  0  0  0  3  0  0  0  0  0  0
  -27.6840  -37.2350   24.8180 C   0  0  0  0  0  1  0  0  0  0  0  0
  -26.5690  -37.5050   23.9140 N   0  0  0  0  0  0  0  0  0  0  0  0
  -26.1830  -38.4160   24.1490 H   0  0  0  0  0  0  0  0  0  0  0  0
  -26.5750  -31.7920   24.7290 C   0  0  1  0  0  0  0  0  0  0  0  0
  -25.6230  -31.4880   25.9090 C   0  0  0  0  0  1  0  0  0  0  0  0
  -27.1060  -30.4430   24.1950 C   0  0  0  0  0  1  0  0  0  0  0  0
  -27.8000  -32.5570   25.2860 C   0  0  0  0  0  1  0  0  0  0  0  0
  1  7  1  0
  2  1  1  0
  3  5  1  0
  3  1  2  0
  4 10  1  0
  4  2  2  0
  7  6  1  0
  7  9  1  0
  8  4  1  0
 10  3  1  0
 11 57  1  0
 11  5  1  0
 11  6  1  0
 11 12  1  6
 13 19  1  0
 13 26  1  0
 14 19  1  0
 15 16  1  0
 15 14  1  0
 17 16  1  0
 17 30  1  0
 17 18  1  0
 19 18  1  0
 20 13  2  0
 21 23  1  0
 22 24  1  0
 22 25  1  0
 24 26  1  0
 25  2  1  0
 25 21  1  0
 26 23  1  0
 27 28  2  0
 28 47  1  0
 29 32  1  0
 29 28  1  0
 30 31  1  0
 30 27  1  0
 31 29  2  0
 32 33  1  0
 33 34  2  0
 35 38  1  0
 35 34  1  0
 36 35  2  0
 37 36  1  0
 37 32  2  0
 38 39  1  0
 39 40  1  0
 40 41  2  0
 42 41  1  0
 42 46  1  0
 43 42  2  0
 44 39  2  0
 44 43  1  0
 45 44  1  0
 47 48  1  0
 48 50  1  0
 48 51  1  0
 49 47  2  0
 52 27  1  0
 52 53  1  0
 54 52  1  0
 55 57  1  0
 57 56  1  0
 58 10  1  0
 59 61  1  0
 59 58  1  0
 60 71  2  0
 61 66  1  0
 62 70  1  0
 62 72  1  0
 63 69  1  0
 63 65  1  0
 64 70  1  0
 65 64  1  0
 66 65  2  0
 67 68  1  0
 67 61  2  0
 68 63  2  0
 69 62  1  0
 70 60  1  0
 72 74  2  0
 73 72  1  0
 75 73  1  0
 76 85  2  0
 76 81  1  0
 77 73  1  0
 77 81  1  0
 78 77  1  0
 79 80  1  0
 79 78  1  0
 80 76  1  0
 81 82  2  0
 82 83  1  0
 84 83  2  0
 85 84  1  0
 86 60  1  0
 86 87  1  0
 86 96  1  0
 87 90  1  0
 88 92  1  0
 88 87  1  0
 89 88  2  0
 92 91  1  0
 94 92  1  0
 94 95  1  0
 94 93  1  0
 96 99  1  1
 96 97  1  0
 98 96  1  0
M  ISO  4  13 100  26 100  58 101  59 101
M  END
>  <TORSDO>  (14) 
F 18

>  <SCORE>  (14) 
-12.704

>  <name>  (14) 
13

>  <ligand_id>  (14) 
13

>  <original_smiles>  (14) 
[H]c1c([H])c([H])c2c(c1[H])C([H])([H])C([H])([H])C([H])([H])C2([H])N([H])C(=O)C1([H])N(C(=O)C([H])(N([H])C(=O)C([H])(N([H])C([H])([H])[H])C([H])([H])[H])C(C([H])([H])[H])(C([H])([H])[H])C([H])([H])[H])C([H])([H])c2c([H])c(OC([H])([H])n3c(C([H])([H])[H])c(C4([H])C([H])([H])C([H])([H])N(C(=O)N5C([H])([H])C([H])([H])C([H])([H])C([H])(n6nc(-c7c([H])c([H])c(Oc8c([H])c([H])c(F)c([H])c8F)c([H])c7[H])c(C(=O)N([H])[H])c6N([H])[H])C5([H])[H])C([H])([H])C4([H])[H])c4c3C([H])([H])[N+]([H])(C([H])(C([H])([H])[H])C([H])([H])[H])C([H])([H])C4([H])C([H])([H])[H])c([H])c([H])c2C1([H])[H]

>  <smiles>  (14) 
[H]c1c([H])c([H])c2c(c1[H])C([H])([H])C([H])([H])C([H])([H])C2([H])N([H])C(=O)C1([H])N(C(=O)C([H])(N([H])C(=O)C([H])(N([H])C([H])([H])[H])C([H])([H])[H])C(C([H])([H])[H])(C([H])([H])[H])C([H])([H])[H])C([H])([H])c2c([H])c(OC([H])([H])n3c(C([H])([H])[H])c(C4([H])C([H])([H])C([H])([H])N(C(=O)N5C([H])([H])C([H])([H])C([H])([H])C([H])(n6nc(-c7c([H])c([H])c(Oc8c([H])c([H])c(F)c([H])c8F)c([H])c7[H])c(C(=O)N([H])[H])c6N([H])[H])C5([H])[H])C([H])([H])C4([H])[H])c4c3C([H])([H])[N+]([H])(C([H])(C([H])([H])[H])C([H])([H])[H])C([H])([H])C4([H])C([H])([H])[H])c([H])c([H])c2C1([H])[H]

$$$$
14:0:0
     RDKit          3D

 96106  0  0  1  0  0  0  0  0999 V2000
  -27.5340  -20.9830   19.3150 C   0  0  0  0  0  3  0  0  0  0  0  0
  -27.0400  -23.3600   18.7660 C   0  0  0  0  0  0  0  0  0  0  0  0
  -26.6490  -21.9780   18.8570 C   0  0  0  0  0  0  0  0  0  0  0  0
  -28.2490  -23.7770   19.4440 C   0  0  0  0  0  0  0  0  0  0  0  0
  -29.1480  -22.6830   19.8660 C   0  0  0  0  0  0  0  0  0  0  0  0
  -28.8440  -21.2600   19.7210 C   0  0  0  0  0  0  0  0  0  0  0  0
  -25.3070  -21.4130   18.4090 C   0  0  0  0  0  1  0  0  0  0  0  0
  -30.5180  -23.0370   20.4280 C   0  0  0  0  0  1  0  0  0  0  0  0
  -24.8390  -24.7070   17.8080 C   0  0  0  0  0  2  0  0  0  0  0  0
  -25.4640  -23.9830   16.6340 C   0  0  0  0  0  2  0  0  0  0  0  0
  -26.3130  -24.3560   17.8330 C   0  0  0  0  0  3  0  0  0  0  0  0
  -29.7500  -20.1310   19.9370 N   0  0  0  0  0  0  0  0  0  0  0  0
  -30.7200  -20.3630   20.1310 H   0  0  0  0  0  0  0  0  0  0  0  0
  -30.7710  -14.9290   19.9050 C   0  0  0  0  0  0  0  0  0  0  0  0
  -30.4960  -12.6320   18.9190 C   0  0  0  0  0  2  0  0  0  0  0  0
  -29.4920  -12.6440   17.7450 C   0  0  0  0  0  2  0  0  0  0  0  0
  -28.0480  -12.4630   18.2560 C   0  0  0  0  0  2  0  0  0  0  0  0
  -27.7360  -13.3680   19.4740 C   0  0  0  0  0  3  0  0  0  0  0  0
  -28.8590  -13.3050   20.5340 C   0  0  0  0  0  2  0  0  0  0  0  0
  -30.1020  -13.7120   19.8630 N   0  0  0  0  0  0  0  0  0  0  0  0
  -31.9380  -14.9520   19.4950 O   0  0  0  0  0  0  0  0  0  0  0  0
  -28.7120  -18.0160   20.9770 C   0  0  0  0  0  2  0  0  0  0  0  0
  -28.9060  -16.4730   20.8790 C   0  0  0  0  0  2  0  0  0  0  0  0
  -30.5960  -17.5410   19.6510 C   0  0  0  0  0  2  0  0  0  0  0  0
  -29.4390  -18.6380   19.7850 C   0  0  0  0  0  3  0  0  0  0  0  0
  -30.1040  -16.1650   20.0790 N   0  0  0  0  0  0  0  0  0  0  0  0
  -25.4070  -13.9820   20.3580 C   0  0  0  0  0  0  0  0  0  0  0  0
  -24.3580  -13.2200   20.7860 C   0  0  0  0  0  0  0  0  0  0  0  0
  -24.7960  -11.8630   20.7040 C   0  0  0  0  0  0  0  0  0  0  0  0
  -26.4230  -13.0920   20.0440 N   0  0  0  0  0  0  0  0  0  0  0  0
  -26.0660  -11.8100   20.3150 N   0  0  0  0  0  0  0  0  0  0  0  0
  -24.0610  -10.6110   20.9120 C   0  0  0  0  0  0  0  0  0  0  0  0
  -24.4880   -9.6520   21.8550 C   0  0  0  0  0  3  0  0  0  0  0  0
  -23.7520   -8.4630   22.0500 C   0  0  0  0  0  3  0  0  0  0  0  0
  -22.5750   -8.2270   21.3020 C   0  0  0  0  0  0  0  0  0  0  0  0
  -22.1670   -9.1750   20.3470 C   0  0  0  0  0  3  0  0  0  0  0  0
  -22.9020  -10.3550   20.1500 C   0  0  0  0  0  3  0  0  0  0  0  0
  -21.8080   -7.0930   21.4090 O   0  0  0  0  0  0  0  0  0  0  0  0
  -21.6960   -6.4090   22.5910 C   0  0  0  0  0  0  0  0  0  0  0  0
  -21.1960   -7.0210   23.7620 C   0  0  0  0  0  3  0  0  0  0  0  0
  -21.0350   -6.2620   24.9390 C   0  0  0  0  0  3  0  0  0  0  0  0
  -21.3610   -4.8930   24.9440 C   0  0  0  0  0  0  0  0  0  0  0  0
  -21.8530   -4.2800   23.7780 C   0  0  0  0  0  3  0  0  0  0  0  0
  -22.0160   -5.0360   22.6040 C   0  0  0  0  0  0  0  0  0  0  0  0
  -22.4700   -4.4370   21.4780 F   0  0  0  0  0  0  0  0  0  0  0  0
  -21.1970   -4.1610   26.0710 F   0  0  0  0  0  0  0  0  0  0  0  0
  -22.9880  -13.7170   21.1500 C   0  0  0  0  0  0  0  0  0  0  0  0
  -22.3070  -13.0250   22.0560 N   0  0  0  0  0  0  0  0  0  0  0  0
  -22.5360  -14.7550   20.6680 O   0  0  0  0  0  0  0  0  0  0  0  0
  -22.6860  -12.1850   22.4680 H   0  0  0  0  0  0  0  0  0  0  0  0
  -21.3920  -13.3430   22.3440 H   0  0  0  0  0  0  0  0  0  0  0  0
  -25.5620  -15.3520   20.1810 N   0  0  0  0  0  0  0  0  0  0  0  0
  -24.7940  -15.9960   20.3360 H   0  0  0  0  0  0  0  0  0  0  0  0
  -26.3630  -15.7880   19.7420 H   0  0  0  0  0  0  0  0  0  0  0  0
  -28.6980  -25.3480   19.4180 C   0  0  0  0  0  2  0  0  0  0  0  0
  -28.2500  -26.4840   20.3060 O   0  0  0  0  0  0  0  0  0  0  0  0
  -24.5080  -31.9380   23.2600 C   0  0  0  0  0  0  0  0  0  0  0  0
  -27.1460  -27.3620   20.1700 C   0  0  0  0  0  0  0  0  0  0  0  0
  -23.3100  -30.5370   21.6180 C   0  0  0  0  0  3  0  0  0  0  0  0
  -24.7690  -28.9950   20.1730 C   0  0  0  0  0  0  0  0  0  0  0  0
  -25.8510  -30.8580   21.4320 C   0  0  0  0  0  2  0  0  0  0  0  0
  -25.9370  -29.4800   20.7720 C   0  0  0  0  0  0  0  0  0  0  0  0
  -27.1200  -28.6730   20.7630 C   0  0  0  0  0  3  0  0  0  0  0  0
  -25.9470  -26.9370   19.5730 C   0  0  0  0  0  3  0  0  0  0  0  0
  -24.7790  -27.7300   19.5610 C   0  0  0  0  0  3  0  0  0  0  0  0
  -23.5250  -29.8630   20.2340 C   0  0  0  0  0  2  0  0  0  0  0  0
  -24.5760  -31.1310   22.1590 N   0  0  0  0  0  0  0  0  0  0  0  0
  -23.4240  -32.2090   23.7970 O   0  0  0  0  0  0  0  0  0  0  0  0
  -22.6520  -29.5190   22.5790 C   0  0  0  0  0  0  0  0  0  0  0  0
  -21.3260  -29.3340   22.4540 N   0  0  0  0  0  0  0  0  0  0  0  0
  -23.3330  -28.8980   23.3990 O   0  0  0  0  0  0  0  0  0  0  0  0
  -20.8350  -29.8890   21.7670 H   0  0  0  0  0  0  0  0  0  0  0  0
  -17.9570  -28.1030   22.9480 C   0  0  0  0  0  0  0  0  0  0  0  0
  -20.5130  -28.3900   23.2250 C   0  0  0  0  0  3  0  0  0  0  0  0
  -20.6300  -26.9600   22.6500 C   0  0  0  0  0  2  0  0  0  0  0  0
  -19.5340  -26.6240   21.6340 C   0  0  0  0  0  2  0  0  0  0  0  0
  -18.1490  -26.7550   22.2730 C   0  0  0  0  0  2  0  0  0  0  0  0
  -19.0670  -28.8780   23.3800 C   0  0  0  0  0  0  0  0  0  0  0  0
  -18.8320  -30.1370   23.9720 C   0  0  0  0  0  3  0  0  0  0  0  0
  -17.5210  -30.6230   24.1380 C   0  0  0  0  0  3  0  0  0  0  0  0
  -16.4260  -29.8450   23.7200 C   0  0  0  0  0  3  0  0  0  0  0  0
  -16.6460  -28.5880   23.1310 C   0  0  0  0  0  3  0  0  0  0  0  0
  -25.7870  -32.5780   23.8840 C   0  0  0  0  0  3  0  0  0  0  0  0
  -26.3020  -31.8130   25.1650 C   0  0  1  0  0  0  0  0  0  0  0  0
  -25.2070  -31.5770   26.2310 C   0  0  0  0  0  1  0  0  0  0  0  0
  -26.8900  -30.4350   24.7820 C   0  0  0  0  0  1  0  0  0  0  0  0
  -27.4490  -32.6120   25.8260 C   0  0  0  0  0  1  0  0  0  0  0  0
  -25.4720  -33.9760   24.2120 N   0  0  0  0  0  0  0  0  0  0  0  0
  -25.7920  -35.0300   23.4490 C   0  0  0  0  0  0  0  0  0  0  0  0
  -26.4500  -34.9270   22.4100 O   0  0  0  0  0  0  0  0  0  0  0  0
  -24.8860  -34.1290   25.0180 H   0  0  0  0  0  0  0  0  0  0  0  0
  -24.0470  -36.8140   23.1160 C   0  0  0  0  0  1  0  0  0  0  0  0
  -25.3020  -36.4180   23.9090 C   0  0  0  0  0  3  0  0  0  0  0  0
  -27.4410  -37.3220   24.7090 C   0  0  0  0  0  1  0  0  0  0  0  0
  -26.3270  -37.4770   23.7770 N   0  0  0  0  0  0  0  0  0  0  0  0
  -25.9160  -38.3940   23.9220 H   0  0  0  0  0  0  0  0  0  0  0  0
  1  6  1  0
  2  3  1  0
  2  4  2  0
  3  1  2  0
  4  5  1  0
  5  8  1  0
  6  5  2  0
  6 12  1  0
  7  3  1  0
  9 11  1  0
 10  9  1  0
 10 11  1  0
 11  2  1  0
 12 13  1  0
 14 26  1  0
 15 20  1  0
 16 17  1  0
 16 15  1  0
 18 17  1  0
 18 30  1  0
 18 19  1  0
 20 14  1  0
 20 19  1  0
 21 14  2  0
 23 22  1  0
 24 25  1  0
 24 26  1  0
 25 12  1  0
 25 22  1  0
 26 23  1  0
 27 28  2  0
 28 47  1  0
 29 28  1  0
 29 32  1  0
 30 31  1  0
 30 27  1  0
 31 29  2  0
 32 33  1  0
 33 34  2  0
 35 38  1  0
 35 34  1  0
 36 35  2  0
 37 36  1  0
 37 32  2  0
 38 39  1  0
 39 44  2  0
 39 40  1  0
 40 41  2  0
 41 42  1  0
 42 46  1  0
 43 42  2  0
 44 43  1  0
 45 44  1  0
 47 48  1  0
 48 51  1  0
 48 50  1  0
 49 47  2  0
 52 53  1  0
 52 27  1  0
 54 52  1  0
 55  4  1  0
 55 56  1  0
 57 68  2  0
 58 56  1  0
 58 63  1  0
 59 67  1  0
 59 69  1  0
 60 66  1  0
 60 62  1  0
 61 67  1  0
 62 61  1  0
 63 62  2  0
 64 58  2  0
 65 64  1  0
 65 60  2  0
 66 59  1  0
 67 57  1  0
 69 71  2  0
 70 69  1  0
 72 70  1  0
 73 82  2  0
 73 78  1  0
 74 70  1  0
 74 78  1  0
 75 74  1  0
 76 77  1  0
 76 75  1  0
 77 73  1  0
 78 79  2  0
 79 80  1  0
 81 80  2  0
 82 81  1  0
 83 57  1  0
 83 88  1  0
 83 84  1  0
 84 87  1  1
 84 85  1  0
 86 84  1  0
 88 91  1  0
 89 93  1  0
 89 88  1  0
 90 89  2  0
 93 92  1  0
 95 93  1  0
 95 96  1  0
 95 94  1  0
M  ISO  4  14 100  26 100  55 101  56 101
M  END
>  <TORSDO>  (15) 
F 19

>  <SCORE>  (15) 
-13.759

>  <name>  (15) 
14

>  <ligand_id>  (15) 
14

>  <original_smiles>  (15) 
[H]c1c([H])c([H])c2c(c1[H])C([H])([H])C([H])([H])C([H])([H])C2([H])N([H])C(=O)C1([H])N(C(=O)C([H])(N([H])C(=O)C([H])(N([H])C([H])([H])[H])C([H])([H])[H])C(C([H])([H])[H])(C([H])([H])[H])C([H])([H])[H])C([H])([H])c2c([H])c(OC([H])([H])c3c(C([H])([H])[H])c(N([H])C4([H])C([H])([H])N(C(=O)N5C([H])([H])C([H])([H])C([H])([H])C([H])(n6nc(-c7c([H])c([H])c(Oc8c([H])c([H])c(F)c([H])c8F)c([H])c7[H])c(C(=O)N([H])[H])c6N([H])[H])C5([H])[H])C([H])([H])C4([H])[H])c([H])c(C([H])([H])[H])c3C3([H])C([H])([H])C3([H])[H])c([H])c([H])c2C1([H])[H]

>  <smiles>  (15) 
[H]c1c([H])c([H])c2c(c1[H])C([H])([H])C([H])([H])C([H])([H])C2([H])N([H])C(=O)C1([H])N(C(=O)C([H])(N([H])C(=O)C([H])(N([H])C([H])([H])[H])C([H])([H])[H])C(C([H])([H])[H])(C([H])([H])[H])C([H])([H])[H])C([H])([H])c2c([H])c(OC([H])([H])c3c(C([H])([H])[H])c(N([H])C4([H])C([H])([H])N(C(=O)N5C([H])([H])C([H])([H])C([H])([H])C([H])(n6nc(-c7c([H])c([H])c(Oc8c([H])c([H])c(F)c([H])c8F)c([H])c7[H])c(C(=O)N([H])[H])c6N([H])[H])C5([H])[H])C([H])([H])C4([H])[H])c([H])c(C([H])([H])[H])c3C3([H])C([H])([H])C3([H])[H])c([H])c([H])c2C1([H])[H]

$$$$
15:0:0
     RDKit          3D

 90 99  0  0  1  0  0  0  0  0999 V2000
  -29.1820  -22.6100   18.6920 C   0  0  0  0  0  3  0  0  0  0  0  0
  -29.4770  -21.1950   18.7190 C   0  0  0  0  0  3  0  0  0  0  0  0
  -28.8370  -23.3670   19.8580 C   0  0  0  0  0  0  0  0  0  0  0  0
  -29.4600  -20.4240   19.9160 C   0  0  0  0  0  0  0  0  0  0  0  0
  -28.9200  -22.5310   21.0270 C   0  0  0  0  0  0  0  0  0  0  0  0
  -28.5530  -23.1110   22.3780 C   0  0  0  0  0  1  0  0  0  0  0  0
  -29.2250  -21.1660   21.0500 N   0  0  0  0  0  0  0  0  0  0  0  0
  -30.8970  -15.0320   19.9220 C   0  0  0  0  0  0  0  0  0  0  0  0
  -30.6730  -12.7070   18.9430 C   0  0  0  0  0  2  0  0  0  0  0  0
  -29.6580  -12.6730   17.7780 C   0  0  0  0  0  2  0  0  0  0  0  0
  -28.2280  -12.4500   18.3060 C   0  0  0  0  0  2  0  0  0  0  0  0
  -27.9020  -13.3560   19.5220 C   0  0  0  0  0  3  0  0  0  0  0  0
  -29.0360  -13.3380   20.5700 C   0  0  0  0  0  2  0  0  0  0  0  0
  -30.2570  -13.7900   19.8840 N   0  0  0  0  0  0  0  0  0  0  0  0
  -32.0580  -15.0650   19.5010 O   0  0  0  0  0  0  0  0  0  0  0  0
  -28.8220  -18.0810   21.1570 C   0  0  0  0  0  2  0  0  0  0  0  0
  -29.0590  -16.5380   21.0010 C   0  0  0  0  0  2  0  0  0  0  0  0
  -30.6300  -17.7020   19.7020 C   0  0  0  0  0  2  0  0  0  0  0  0
  -29.4340  -18.7730   19.9350 C   0  0  0  0  0  3  0  0  0  0  0  0
  -30.2110  -16.2720   20.1170 N   0  0  0  0  0  0  0  0  0  0  0  0
  -25.5860  -13.9140   20.4670 C   0  0  0  0  0  0  0  0  0  0  0  0
  -24.5470  -13.1280   20.8790 C   0  0  0  0  0  0  0  0  0  0  0  0
  -24.9930  -11.7780   20.7380 C   0  0  0  0  0  0  0  0  0  0  0  0
  -26.6010  -13.0450   20.1040 N   0  0  0  0  0  0  0  0  0  0  0  0
  -26.2560  -11.7500   20.3290 N   0  0  0  0  0  0  0  0  0  0  0  0
  -24.2670  -10.5140   20.9120 C   0  0  0  0  0  0  0  0  0  0  0  0
  -24.6610   -9.5620   21.8780 C   0  0  0  0  0  3  0  0  0  0  0  0
  -23.9330   -8.3640   22.0400 C   0  0  0  0  0  3  0  0  0  0  0  0
  -22.7990   -8.1070   21.2340 C   0  0  0  0  0  0  0  0  0  0  0  0
  -22.4250   -9.0480   20.2570 C   0  0  0  0  0  3  0  0  0  0  0  0
  -23.1530  -10.2380   20.0940 C   0  0  0  0  0  3  0  0  0  0  0  0
  -22.0470   -6.9600   21.3020 O   0  0  0  0  0  0  0  0  0  0  0  0
  -21.8050   -6.3280   22.4960 C   0  0  0  0  0  0  0  0  0  0  0  0
  -21.1370   -6.9740   23.5590 C   0  0  0  0  0  3  0  0  0  0  0  0
  -20.8480   -6.2660   24.7430 C   0  0  0  0  0  3  0  0  0  0  0  0
  -21.2170   -4.9140   24.8630 C   0  0  0  0  0  0  0  0  0  0  0  0
  -21.8790   -4.2670   23.8040 C   0  0  0  0  0  3  0  0  0  0  0  0
  -22.1690   -4.9720   22.6220 C   0  0  0  0  0  0  0  0  0  0  0  0
  -22.7870   -4.3390   21.5960 F   0  0  0  0  0  0  0  0  0  0  0  0
  -20.9340   -4.2310   25.9970 F   0  0  0  0  0  0  0  0  0  0  0  0
  -23.1810  -13.6010   21.2830 C   0  0  0  0  0  0  0  0  0  0  0  0
  -22.5210  -12.8750   22.1790 N   0  0  0  0  0  0  0  0  0  0  0  0
  -22.7110  -14.6500   20.8420 O   0  0  0  0  0  0  0  0  0  0  0  0
  -22.9160  -12.0270   22.5560 H   0  0  0  0  0  0  0  0  0  0  0  0
  -21.6070  -13.1710   22.4900 H   0  0  0  0  0  0  0  0  0  0  0  0
  -25.7360  -15.2920   20.3410 N   0  0  0  0  0  0  0  0  0  0  0  0
  -24.9730  -15.9310   20.5350 H   0  0  0  0  0  0  0  0  0  0  0  0
  -26.5370  -15.7450   19.9250 H   0  0  0  0  0  0  0  0  0  0  0  0
  -28.0270  -24.7950   19.7470 C   0  0  0  0  0  2  0  0  0  0  0  0
  -28.4200  -26.2520   20.0820 O   0  0  0  0  0  0  0  0  0  0  0  0
  -24.7450  -31.7960   23.2540 C   0  0  0  0  0  0  0  0  0  0  0  0
  -27.3830  -27.2550   20.0320 C   0  0  0  0  0  0  0  0  0  0  0  0
  -23.5740  -30.4790   21.5330 C   0  0  0  0  0  3  0  0  0  0  0  0
  -25.0500  -28.9910   20.0540 C   0  0  0  0  0  0  0  0  0  0  0  0
  -26.1310  -30.7600   21.4230 C   0  0  0  0  0  2  0  0  0  0  0  0
  -26.2190  -29.4050   20.7040 C   0  0  0  0  0  0  0  0  0  0  0  0
  -27.3870  -28.5540   20.6820 C   0  0  0  0  0  3  0  0  0  0  0  0
  -26.1840  -26.9570   19.3370 C   0  0  0  0  0  3  0  0  0  0  0  0
  -25.0440  -27.7800   19.3570 C   0  0  0  0  0  3  0  0  0  0  0  0
  -23.8180  -29.8770   20.1260 C   0  0  0  0  0  2  0  0  0  0  0  0
  -24.8350  -31.0290   22.1260 N   0  0  0  0  0  0  0  0  0  0  0  0
  -23.6490  -32.0520   23.7770 O   0  0  0  0  0  0  0  0  0  0  0  0
  -22.8860  -29.4200   22.4320 C   0  0  0  0  0  0  0  0  0  0  0  0
  -21.5600  -29.2560   22.2810 N   0  0  0  0  0  0  0  0  0  0  0  0
  -23.5490  -28.7500   23.2290 O   0  0  0  0  0  0  0  0  0  0  0  0
  -21.0830  -29.8490   21.6170 H   0  0  0  0  0  0  0  0  0  0  0  0
  -18.1610  -28.0850   22.7340 C   0  0  0  0  0  0  0  0  0  0  0  0
  -20.7270  -28.2850   22.9950 C   0  0  0  0  0  3  0  0  0  0  0  0
  -20.7990  -26.8920   22.3270 C   0  0  0  0  0  2  0  0  0  0  0  0
  -19.6830  -26.6560   21.3040 C   0  0  0  0  0  2  0  0  0  0  0  0
  -18.3100  -26.7810   21.9690 C   0  0  0  0  0  2  0  0  0  0  0  0
  -19.2970  -28.7990   23.2030 C   0  0  0  0  0  0  0  0  0  0  0  0
  -19.1040  -30.0210   23.8810 C   0  0  0  0  0  3  0  0  0  0  0  0
  -17.8080  -30.5300   24.0940 C   0  0  0  0  0  3  0  0  0  0  0  0
  -16.6880  -29.8120   23.6400 C   0  0  0  0  0  3  0  0  0  0  0  0
  -16.8660  -28.5910   22.9670 C   0  0  0  0  0  3  0  0  0  0  0  0
  -26.0110  -32.4030   23.9290 C   0  0  0  0  0  3  0  0  0  0  0  0
  -25.7130  -33.8060   24.2560 N   0  0  0  0  0  0  0  0  0  0  0  0
  -26.0520  -34.8570   23.4960 C   0  0  0  0  0  0  0  0  0  0  0  0
  -26.7170  -34.7460   22.4620 O   0  0  0  0  0  0  0  0  0  0  0  0
  -25.1230  -33.9660   25.0590 H   0  0  0  0  0  0  0  0  0  0  0  0
  -24.3200  -36.6550   23.1760 C   0  0  0  0  0  1  0  0  0  0  0  0
  -25.5820  -36.2510   23.9560 C   0  0  0  0  0  3  0  0  0  0  0  0
  -27.7330  -37.1470   24.7330 C   0  0  0  0  0  1  0  0  0  0  0  0
  -26.6150  -37.3000   23.8070 N   0  0  0  0  0  0  0  0  0  0  0  0
  -26.2130  -38.2230   23.9440 H   0  0  0  0  0  0  0  0  0  0  0  0
  -26.4590  -31.6190   25.2230 C   0  0  1  0  0  0  0  0  0  0  0  0
  -25.3180  -31.3970   26.2430 C   0  0  0  0  0  1  0  0  0  0  0  0
  -27.0350  -30.2320   24.8550 C   0  0  0  0  0  1  0  0  0  0  0  0
  -27.5940  -32.3920   25.9350 C   0  0  0  0  0  1  0  0  0  0  0  0
  1  2  2  0
  1  3  1  0
  2  4  1  0
  3  5  2  0
  4  7  2  0
  5  7  1  0
  5  6  1  0
  8 20  1  0
  9 14  1  0
 10 11  1  0
 10  9  1  0
 12 11  1  0
 12 24  1  0
 12 13  1  0
 14  8  1  0
 14 13  1  0
 15  8  2  0
 17 16  1  0
 18 19  1  0
 18 20  1  0
 19  4  1  0
 19 16  1  0
 20 17  1  0
 21 22  2  0
 22 41  1  0
 23 22  1  0
 23 26  1  0
 24 25  1  0
 24 21  1  0
 25 23  2  0
 26 27  1  0
 27 28  2  0
 29 32  1  0
 29 28  1  0
 30 29  2  0
 31 30  1  0
 31 26  2  0
 32 33  1  0
 33 38  2  0
 33 34  1  0
 34 35  2  0
 35 36  1  0
 36 40  1  0
 37 36  2  0
 38 37  1  0
 39 38  1  0
 41 42  1  0
 42 45  1  0
 42 44  1  0
 43 41  2  0
 46 21  1  0
 46 47  1  0
 48 46  1  0
 49  3  1  0
 49 50  1  0
 51 62  2  0
 52 50  1  0
 52 57  1  0
 53 61  1  0
 53 63  1  0
 54 60  1  0
 54 56  1  0
 55 61  1  0
 56 55  1  0
 57 56  2  0
 58 59  1  0
 58 52  2  0
 59 54  2  0
 60 53  1  0
 61 51  1  0
 63 65  2  0
 64 63  1  0
 66 64  1  0
 67 76  2  0
 67 72  1  0
 68 64  1  0
 68 72  1  0
 69 68  1  0
 70 71  1  0
 70 69  1  0
 71 67  1  0
 72 73  2  0
 73 74  1  0
 75 74  2  0
 76 75  1  0
 77 51  1  0
 77 78  1  0
 77 87  1  0
 78 81  1  0
 79 83  1  0
 79 78  1  0
 80 79  2  0
 83 82  1  0
 85 86  1  0
 85 83  1  0
 85 84  1  0
 87 90  1  1
 87 88  1  0
 89 87  1  0
M  ISO  4   8 100  20 100  49 101  50 101
M  END
>  <TORSDO>  (16) 
F 17

>  <SCORE>  (16) 
-13.885

>  <name>  (16) 
15

>  <ligand_id>  (16) 
15

>  <original_smiles>  (16) 
[H]c1c(C2([H])C([H])([H])N(C(=O)N3C([H])([H])C([H])([H])C([H])([H])C([H])(n4nc(-c5c([H])c([H])c(Oc6c([H])c([H])c(F)c([H])c6F)c([H])c5[H])c(C(=O)N([H])[H])c4N([H])[H])C3([H])[H])C([H])([H])C2([H])[H])nc(C([H])([H])[H])c(C([H])([H])Oc2c([H])c([H])c3c(c2[H])C([H])([H])N(C(=O)C([H])(N([H])C(=O)C([H])(N([H])C([H])([H])[H])C([H])([H])[H])C(C([H])([H])[H])(C([H])([H])[H])C([H])([H])[H])C([H])(C(=O)N([H])C2([H])c4c([H])c([H])c([H])c([H])c4C([H])([H])C([H])([H])C2([H])[H])C3([H])[H])c1[H]

>  <smiles>  (16) 
[H]c1c(C2([H])C([H])([H])N(C(=O)N3C([H])([H])C([H])([H])C([H])([H])C([H])(n4nc(-c5c([H])c([H])c(Oc6c([H])c([H])c(F)c([H])c6F)c([H])c5[H])c(C(=O)N([H])[H])c4N([H])[H])C3([H])[H])C([H])([H])C2([H])[H])nc(C([H])([H])[H])c(C([H])([H])Oc2c([H])c([H])c3c(c2[H])C([H])([H])N(C(=O)C([H])(N([H])C(=O)C([H])(N([H])C([H])([H])[H])C([H])([H])[H])C(C([H])([H])[H])(C([H])([H])[H])C([H])([H])[H])C([H])(C(=O)N([H])C2([H])c4c([H])c([H])c([H])c([H])c4C([H])([H])C([H])([H])C2([H])[H])C3([H])[H])c1[H]

$$$$
16:0:0
     RDKit          3D

 93101  0  0  1  0  0  0  0  0999 V2000
  -29.2350  -18.3140   20.4010 C   0  0  0  0  0  0  0  0  0  0  0  0
  -28.1210  -22.0200   20.5440 C   0  0  0  0  0  2  0  0  0  0  0  0
  -28.1620  -20.4970   20.8980 C   0  0  0  0  0  2  0  0  0  0  0  0
  -30.6090  -20.4730   20.3550 C   0  0  0  0  0  2  0  0  0  0  0  0
  -29.4450  -22.7560   20.8180 C   0  0  0  0  0  3  0  0  0  0  0  0
  -30.4970  -21.9980   19.9550 C   0  0  0  0  0  3  0  0  0  0  0  0
  -31.8930  -22.6400   20.0190 C   0  0  0  0  0  1  0  0  0  0  0  0
  -29.3440  -19.6980   20.4560 N   0  0  0  0  0  0  0  0  0  0  0  0
  -28.1510  -17.7610   20.6190 O   0  0  0  0  0  0  0  0  0  0  0  0
  -30.7030  -17.3780   18.5410 C   0  0  0  0  0  1  0  0  0  0  0  0
  -30.4150  -17.3280   20.0600 C   0  0  0  0  0  3  0  0  0  0  0  0
  -30.8660  -14.7710   20.2510 C   0  0  0  0  0  0  0  0  0  0  0  0
  -30.5750  -12.5260   19.2490 C   0  0  0  0  0  2  0  0  0  0  0  0
  -29.6430  -12.6640   18.0250 C   0  0  0  0  0  2  0  0  0  0  0  0
  -28.1660  -12.5520   18.4510 C   0  0  0  0  0  2  0  0  0  0  0  0
  -27.8250  -13.4470   19.6730 C   0  0  0  0  0  3  0  0  0  0  0  0
  -28.8780  -13.3030   20.7960 C   0  0  0  0  0  2  0  0  0  0  0  0
  -30.1960  -13.5790   20.2100 N   0  0  0  0  0  0  0  0  0  0  0  0
  -32.0450  -14.8580   19.8990 O   0  0  0  0  0  0  0  0  0  0  0  0
  -30.1110  -15.8960   20.4360 N   0  0  0  0  0  0  0  0  0  0  0  0
  -29.1590  -15.7530   20.7400 H   0  0  0  0  0  0  0  0  0  0  0  0
  -25.4530  -14.1140   20.4000 C   0  0  0  0  0  0  0  0  0  0  0  0
  -24.3630  -13.3700   20.7630 C   0  0  0  0  0  0  0  0  0  0  0  0
  -24.7840  -12.0050   20.7240 C   0  0  0  0  0  0  0  0  0  0  0  0
  -26.4710  -13.2030   20.1600 N   0  0  0  0  0  0  0  0  0  0  0  0
  -26.0730  -11.9300   20.4150 N   0  0  0  0  0  0  0  0  0  0  0  0
  -24.0190  -10.7640   20.9070 C   0  0  0  0  0  0  0  0  0  0  0  0
  -24.4060   -9.7910   21.8540 C   0  0  0  0  0  3  0  0  0  0  0  0
  -23.6430   -8.6150   22.0240 C   0  0  0  0  0  3  0  0  0  0  0  0
  -22.4790   -8.4050   21.2470 C   0  0  0  0  0  0  0  0  0  0  0  0
  -22.1120   -9.3670   20.2900 C   0  0  0  0  0  3  0  0  0  0  0  0
  -22.8750  -10.5340   20.1170 C   0  0  0  0  0  3  0  0  0  0  0  0
  -21.6920   -7.2820   21.3250 O   0  0  0  0  0  0  0  0  0  0  0  0
  -21.5880   -6.5540   22.4830 C   0  0  0  0  0  0  0  0  0  0  0  0
  -21.0940   -7.1210   23.6790 C   0  0  0  0  0  3  0  0  0  0  0  0
  -20.9400   -6.3200   24.8270 C   0  0  0  0  0  3  0  0  0  0  0  0
  -21.2680   -4.9520   24.7810 C   0  0  0  0  0  0  0  0  0  0  0  0
  -21.7550   -4.3840   23.5910 C   0  0  0  0  0  3  0  0  0  0  0  0
  -21.9110   -5.1830   22.4440 C   0  0  0  0  0  0  0  0  0  0  0  0
  -22.3600   -4.6260   21.2930 F   0  0  0  0  0  0  0  0  0  0  0  0
  -21.1140   -4.1790   25.8820 F   0  0  0  0  0  0  0  0  0  0  0  0
  -22.9810  -13.8870   21.0400 C   0  0  0  0  0  0  0  0  0  0  0  0
  -22.2380  -13.2160   21.9130 N   0  0  0  0  0  0  0  0  0  0  0  0
  -22.5690  -14.9220   20.5160 O   0  0  0  0  0  0  0  0  0  0  0  0
  -22.5850  -12.3800   22.3590 H   0  0  0  0  0  0  0  0  0  0  0  0
  -21.3110  -13.5450   22.1410 H   0  0  0  0  0  0  0  0  0  0  0  0
  -25.6580  -15.4800   20.2360 N   0  0  0  0  0  0  0  0  0  0  0  0
  -24.9170  -16.1560   20.3840 H   0  0  0  0  0  0  0  0  0  0  0  0
  -26.5410  -15.9170   20.0000 H   0  0  0  0  0  0  0  0  0  0  0  0
  -28.9430  -24.8050   22.2680 C   0  0  0  0  0  1  0  0  0  0  0  0
  -29.4000  -24.3690   20.8620 C   0  0  0  0  0  3  0  0  0  0  0  0
  -28.5820  -25.2230   19.8100 C   0  0  0  0  0  2  0  0  0  0  0  0
  -28.6440  -26.6900   20.0110 O   0  0  0  0  0  0  0  0  0  0  0  0
  -24.6040  -31.7830   23.0880 C   0  0  0  0  0  0  0  0  0  0  0  0
  -27.4820  -27.4700   19.9390 C   0  0  0  0  0  0  0  0  0  0  0  0
  -23.5080  -30.4210   21.3450 C   0  0  0  0  0  3  0  0  0  0  0  0
  -25.0610  -28.9880   19.9060 C   0  0  0  0  0  0  0  0  0  0  0  0
  -26.0360  -30.8370   21.2660 C   0  0  0  0  0  2  0  0  0  0  0  0
  -26.1870  -29.4930   20.5670 C   0  0  0  0  0  0  0  0  0  0  0  0
  -27.3980  -28.7440   20.5780 C   0  0  0  0  0  3  0  0  0  0  0  0
  -26.3380  -27.0220   19.2390 C   0  0  0  0  0  3  0  0  0  0  0  0
  -25.1380  -27.7580   19.2320 C   0  0  0  0  0  3  0  0  0  0  0  0
  -23.7930  -29.8150   19.9440 C   0  0  0  0  0  2  0  0  0  0  0  0
  -24.7320  -31.0280   21.9590 N   0  0  0  0  0  0  0  0  0  0  0  0
  -23.4940  -32.0010   23.5950 O   0  0  0  0  0  0  0  0  0  0  0  0
  -22.8480  -29.3400   22.2340 C   0  0  0  0  0  0  0  0  0  0  0  0
  -21.5190  -29.1900   22.1170 N   0  0  0  0  0  0  0  0  0  0  0  0
  -23.5320  -28.6440   22.9900 O   0  0  0  0  0  0  0  0  0  0  0  0
  -21.0280  -29.8040   21.4820 H   0  0  0  0  0  0  0  0  0  0  0  0
  -18.1200  -28.0880   22.6790 C   0  0  0  0  0  0  0  0  0  0  0  0
  -20.6980  -28.2070   22.8260 C   0  0  0  0  0  3  0  0  0  0  0  0
  -20.7000  -26.8470   22.0910 C   0  0  0  0  0  2  0  0  0  0  0  0
  -19.5320  -26.6860   21.1140 C   0  0  0  0  0  2  0  0  0  0  0  0
  -18.1940  -26.8170   21.8500 C   0  0  0  0  0  2  0  0  0  0  0  0
  -19.2960  -28.7490   23.1240 C   0  0  0  0  0  0  0  0  0  0  0  0
  -19.1710  -29.9450   23.8630 C   0  0  0  0  0  3  0  0  0  0  0  0
  -17.9030  -30.4800   24.1590 C   0  0  0  0  0  3  0  0  0  0  0  0
  -16.7420  -29.8140   23.7300 C   0  0  0  0  0  3  0  0  0  0  0  0
  -16.8520  -28.6200   22.9960 C   0  0  0  0  0  3  0  0  0  0  0  0
  -25.8430  -32.4300   23.7830 C   0  0  0  0  0  3  0  0  0  0  0  0
  -26.3100  -31.6460   25.0700 C   0  0  1  0  0  0  0  0  0  0  0  0
  -25.1710  -31.3710   26.0790 C   0  0  0  0  0  1  0  0  0  0  0  0
  -26.9370  -30.2860   24.6860 C   0  0  0  0  0  1  0  0  0  0  0  0
  -27.4140  -32.4470   25.8010 C   0  0  0  0  0  1  0  0  0  0  0  0
  -25.4920  -33.8160   24.1210 N   0  0  0  0  0  0  0  0  0  0  0  0
  -25.8350  -34.8870   23.3940 C   0  0  0  0  0  0  0  0  0  0  0  0
  -26.5500  -34.8130   22.3910 O   0  0  0  0  0  0  0  0  0  0  0  0
  -24.8610  -33.9460   24.8990 H   0  0  0  0  0  0  0  0  0  0  0  0
  -24.0880  -36.6510   22.9910 C   0  0  0  0  0  1  0  0  0  0  0  0
  -25.3000  -36.2580   23.8510 C   0  0  0  0  0  3  0  0  0  0  0  0
  -27.3660  -37.1800   24.8040 C   0  0  0  0  0  1  0  0  0  0  0  0
  -26.3160  -37.3330   23.8010 N   0  0  0  0  0  0  0  0  0  0  0  0
  -25.8830  -38.2430   23.9310 H   0  0  0  0  0  0  0  0  0  0  0  0
  1  8  1  0
  1  9  2  0
  2  5  1  0
  2  3  1  0
  4  8  1  0
  5 51  1  0
  6  7  1  0
  6  4  1  0
  6  5  1  0
  8  3  1  0
 11 10  1  0
 11  1  1  0
 11 20  1  0
 12 20  1  0
 13 18  1  0
 14 15  1  0
 14 13  1  0
 16 15  1  0
 16 25  1  0
 16 17  1  0
 18 12  1  0
 18 17  1  0
 19 12  2  0
 20 21  1  0
 22 23  2  0
 23 42  1  0
 24 23  1  0
 24 27  1  0
 25 22  1  0
 25 26  1  0
 26 24  2  0
 27 28  1  0
 28 29  2  0
 30 33  1  0
 30 29  1  0
 31 30  2  0
 32 31  1  0
 32 27  2  0
 33 34  1  0
 34 35  1  0
 35 36  2  0
 37 36  1  0
 37 41  1  0
 38 37  2  0
 39 34  2  0
 39 38  1  0
 40 39  1  0
 42 43  1  0
 43 46  1  0
 43 45  1  0
 44 42  2  0
 47 48  1  0
 47 22  1  0
 49 47  1  0
 51 50  1  0
 52 53  1  0
 52 51  1  0
 54 65  2  0
 55 53  1  0
 55 60  1  0
 56 64  1  0
 56 66  1  0
 57 63  1  0
 57 59  1  0
 58 64  1  0
 59 60  2  0
 59 58  1  0
 61 55  2  0
 62 61  1  0
 62 57  2  0
 63 56  1  0
 64 54  1  0
 66 68  2  0
 67 66  1  0
 69 67  1  0
 70 79  2  0
 70 75  1  0
 71 67  1  0
 71 75  1  0
 72 71  1  0
 73 74  1  0
 73 72  1  0
 74 70  1  0
 75 76  2  0
 76 77  1  0
 78 77  2  0
 79 78  1  0
 80 54  1  0
 80 85  1  0
 80 81  1  0
 81 84  1  1
 81 82  1  0
 83 81  1  0
 85 88  1  0
 86 90  1  0
 86 85  1  0
 87 86  2  0
 90 89  1  0
 92 90  1  0
 92 93  1  0
 92 91  1  0
M  ISO  4  12 100  20 100  52 101  53 101
M  END
>  <TORSDO>  (17) 
F 19

>  <SCORE>  (17) 
-14.133

>  <name>  (17) 
16

>  <ligand_id>  (17) 
16

>  <original_smiles>  (17) 
[H]c1c([H])c([H])c2c(c1[H])C([H])([H])C([H])([H])C([H])([H])C2([H])N([H])C(=O)C1([H])N(C(=O)C([H])(N([H])C(=O)C([H])(N([H])C([H])([H])[H])C([H])([H])[H])C(C([H])([H])[H])(C([H])([H])[H])C([H])([H])[H])C([H])([H])c2c([H])c(OC([H])([H])C([H])(C([H])([H])[H])C3([H])C([H])([H])C([H])([H])N(C(=O)C([H])(N([H])C(=O)N4C([H])([H])C([H])([H])C([H])([H])C([H])(n5nc(-c6c([H])c([H])c(Oc7c([H])c([H])c(F)c([H])c7F)c([H])c6[H])c(C(=O)N([H])[H])c5N([H])[H])C4([H])[H])C([H])([H])[H])C([H])([H])C3([H])C([H])([H])[H])c([H])c([H])c2C1([H])[H]

>  <smiles>  (17) 
[H]c1c([H])c([H])c2c(c1[H])C([H])([H])C([H])([H])C([H])([H])C2([H])N([H])C(=O)C1([H])N(C(=O)C([H])(N([H])C(=O)C([H])(N([H])C([H])([H])[H])C([H])([H])[H])C(C([H])([H])[H])(C([H])([H])[H])C([H])([H])[H])C([H])([H])c2c([H])c(OC([H])([H])C([H])(C([H])([H])[H])C3([H])C([H])([H])C([H])([H])N(C(=O)C([H])(N([H])C(=O)N4C([H])([H])C([H])([H])C([H])([H])C([H])(n5nc(-c6c([H])c([H])c(Oc7c([H])c([H])c(F)c([H])c7F)c([H])c6[H])c(C(=O)N([H])[H])c5N([H])[H])C4([H])[H])C([H])([H])[H])C([H])([H])C3([H])C([H])([H])[H])c([H])c([H])c2C1([H])[H]

$$$$
17:0:0
     RDKit          3D

 95104  0  0  1  0  0  0  0  0999 V2000
  -28.3040  -22.2000   22.1820 C   0  0  0  0  0  0  0  0  0  0  0  0
  -28.7330  -22.6330   20.8790 C   0  0  0  0  0  0  0  0  0  0  0  0
  -29.0040  -21.0630   22.5120 C   0  0  0  0  0  0  0  0  0  0  0  0
  -29.6560  -21.6900   20.4620 C   0  0  0  0  0  0  0  0  0  0  0  0
  -27.2890  -22.8720   23.0840 C   0  0  0  0  0  1  0  0  0  0  0  0
  -28.9830  -20.3080   23.8110 C   0  0  0  0  0  1  0  0  0  0  0  0
  -30.4570  -21.6400   19.1960 C   0  0  0  0  0  1  0  0  0  0  0  0
  -29.8320  -20.7070   21.4460 N   0  0  0  0  0  0  0  0  0  0  0  0
  -26.9550  -23.4660   19.3120 C   0  0  0  0  0  1  0  0  0  0  0  0
  -28.2530  -23.8640   20.0460 C   0  0  0  0  0  3  0  0  0  0  0  0
  -28.1190  -25.2370   20.8310 C   0  0  0  0  0  2  0  0  0  0  0  0
  -28.3030  -26.5160   20.1330 O   0  0  0  0  0  0  0  0  0  0  0  0
  -24.6240  -31.8630   23.2030 C   0  0  0  0  0  0  0  0  0  0  0  0
  -27.1990  -27.3600   20.1130 C   0  0  0  0  0  0  0  0  0  0  0  0
  -23.4110  -30.4930   21.5460 C   0  0  0  0  0  3  0  0  0  0  0  0
  -24.8500  -28.9530   20.1090 C   0  0  0  0  0  0  0  0  0  0  0  0
  -25.9470  -30.8140   21.3570 C   0  0  0  0  0  2  0  0  0  0  0  0
  -26.0190  -29.4420   20.7100 C   0  0  0  0  0  0  0  0  0  0  0  0
  -27.2030  -28.6550   20.7000 C   0  0  0  0  0  3  0  0  0  0  0  0
  -26.0150  -26.9160   19.4950 C   0  0  0  0  0  3  0  0  0  0  0  0
  -24.8480  -27.6950   19.4930 C   0  0  0  0  0  3  0  0  0  0  0  0
  -23.6200  -29.8340   20.1580 C   0  0  0  0  0  2  0  0  0  0  0  0
  -24.6800  -31.0720   22.0940 N   0  0  0  0  0  0  0  0  0  0  0  0
  -23.5440  -32.1400   23.7420 O   0  0  0  0  0  0  0  0  0  0  0  0
  -22.7460  -29.4660   22.4940 C   0  0  0  0  0  0  0  0  0  0  0  0
  -21.4170  -29.3030   22.3690 N   0  0  0  0  0  0  0  0  0  0  0  0
  -23.4230  -28.8220   23.3010 O   0  0  0  0  0  0  0  0  0  0  0  0
  -20.9320  -29.8760   21.6930 H   0  0  0  0  0  0  0  0  0  0  0  0
  -18.0290  -28.1390   22.8470 C   0  0  0  0  0  0  0  0  0  0  0  0
  -20.5900  -28.3680   23.1320 C   0  0  0  0  0  3  0  0  0  0  0  0
  -20.6790  -26.9400   22.5440 C   0  0  0  0  0  2  0  0  0  0  0  0
  -19.5760  -26.6390   21.5240 C   0  0  0  0  0  2  0  0  0  0  0  0
  -18.1930  -26.7940   22.1630 C   0  0  0  0  0  2  0  0  0  0  0  0
  -19.1540  -28.8840   23.2890 C   0  0  0  0  0  0  0  0  0  0  0  0
  -18.9470  -30.1460   23.8880 C   0  0  0  0  0  3  0  0  0  0  0  0
  -17.6470  -30.6570   24.0560 C   0  0  0  0  0  3  0  0  0  0  0  0
  -16.5350  -29.9080   23.6340 C   0  0  0  0  0  3  0  0  0  0  0  0
  -16.7280  -28.6520   23.0310 C   0  0  0  0  0  3  0  0  0  0  0  0
  -25.9110  -32.4800   23.8330 C   0  0  0  0  0  3  0  0  0  0  0  0
  -26.4460  -31.6580   25.0700 C   0  0  1  0  0  0  0  0  0  0  0  0
  -25.3700  -31.3710   26.1430 C   0  0  0  0  0  1  0  0  0  0  0  0
  -27.0260  -30.3020   24.6060 C   0  0  0  0  0  1  0  0  0  0  0  0
  -27.6070  -32.4250   25.7450 C   0  0  0  0  0  1  0  0  0  0  0  0
  -25.5940  -33.8600   24.2290 N   0  0  0  0  0  0  0  0  0  0  0  0
  -25.9050  -34.9480   23.5120 C   0  0  0  0  0  0  0  0  0  0  0  0
  -26.5620  -34.8950   22.4700 O   0  0  0  0  0  0  0  0  0  0  0  0
  -25.0090  -33.9710   25.0440 H   0  0  0  0  0  0  0  0  0  0  0  0
  -24.1490  -36.7310   23.2640 C   0  0  0  0  0  1  0  0  0  0  0  0
  -25.4100  -36.3110   24.0340 C   0  0  0  0  0  3  0  0  0  0  0  0
  -27.5570  -37.1810   24.8480 C   0  0  0  0  0  1  0  0  0  0  0  0
  -26.4300  -37.3800   23.9410 N   0  0  0  0  0  0  0  0  0  0  0  0
  -26.0190  -38.2880   24.1420 H   0  0  0  0  0  0  0  0  0  0  0  0
  -31.7670  -19.5080   22.5690 C   0  0  0  0  0  1  0  0  0  0  0  0
  -30.8030  -19.5620   21.3700 C   0  0  0  0  0  3  0  0  0  0  0  0
  -30.7520  -14.5410   20.5160 C   0  0  0  0  0  0  0  0  0  0  0  0
  -30.4040  -12.3480   19.4380 C   0  0  0  0  0  2  0  0  0  0  0  0
  -29.4870  -12.5060   18.2100 C   0  0  0  0  0  2  0  0  0  0  0  0
  -28.0140  -12.3450   18.6270 C   0  0  0  0  0  2  0  0  0  0  0  0
  -27.6480  -13.2040   19.8670 C   0  0  0  0  0  3  0  0  0  0  0  0
  -28.7060  -13.0640   20.9940 C   0  0  0  0  0  2  0  0  0  0  0  0
  -30.0190  -13.3860   20.4150 N   0  0  0  0  0  0  0  0  0  0  0  0
  -31.9120  -14.5750   20.0970 O   0  0  0  0  0  0  0  0  0  0  0  0
  -28.8460  -17.7160   21.1310 C   0  0  0  0  0  2  0  0  0  0  0  0
  -28.8610  -16.2260   20.7440 C   0  0  0  0  0  2  0  0  0  0  0  0
  -31.0520  -16.8880   21.3010 C   0  0  0  0  0  2  0  0  0  0  0  0
  -30.2730  -18.1580   20.8670 C   0  0  0  0  0  3  0  0  0  0  0  0
  -30.2060  -15.6970   21.0190 N   0  0  0  0  0  0  0  0  0  0  0  0
  -25.2550  -13.8140   20.5700 C   0  0  0  0  0  0  0  0  0  0  0  0
  -24.1810  -13.0420   20.9260 C   0  0  0  0  0  0  0  0  0  0  0  0
  -24.6370  -11.6910   20.8820 C   0  0  0  0  0  0  0  0  0  0  0  0
  -26.2980  -12.9280   20.3400 N   0  0  0  0  0  0  0  0  0  0  0  0
  -25.9310  -11.6470   20.5850 N   0  0  0  0  0  0  0  0  0  0  0  0
  -23.9040  -10.4290   21.0450 C   0  0  0  0  0  0  0  0  0  0  0  0
  -24.3620   -9.4210   21.9210 C   0  0  0  0  0  3  0  0  0  0  0  0
  -23.6330   -8.2230   22.0750 C   0  0  0  0  0  3  0  0  0  0  0  0
  -22.4310   -8.0280   21.3550 C   0  0  0  0  0  0  0  0  0  0  0  0
  -21.9930   -9.0230   20.4640 C   0  0  0  0  0  3  0  0  0  0  0  0
  -22.7220  -10.2130   20.3070 C   0  0  0  0  0  3  0  0  0  0  0  0
  -21.6670   -6.8890   21.4250 O   0  0  0  0  0  0  0  0  0  0  0  0
  -21.6860   -6.0750   22.5290 C   0  0  0  0  0  0  0  0  0  0  0  0
  -21.4000   -6.5640   23.8220 C   0  0  0  0  0  3  0  0  0  0  0  0
  -21.3680   -5.6790   24.9180 C   0  0  0  0  0  3  0  0  0  0  0  0
  -21.6070   -4.3060   24.7230 C   0  0  0  0  0  0  0  0  0  0  0  0
  -21.8820   -3.8150   23.4340 C   0  0  0  0  0  3  0  0  0  0  0  0
  -21.9190   -4.6980   22.3400 C   0  0  0  0  0  0  0  0  0  0  0  0
  -22.1660   -4.2170   21.0980 F   0  0  0  0  0  0  0  0  0  0  0  0
  -21.5660   -3.4540   25.7740 F   0  0  0  0  0  0  0  0  0  0  0  0
  -22.7840  -13.5270   21.1890 C   0  0  0  0  0  0  0  0  0  0  0  0
  -22.0470  -12.8210   22.0440 N   0  0  0  0  0  0  0  0  0  0  0  0
  -22.3550  -14.5570   20.6740 O   0  0  0  0  0  0  0  0  0  0  0  0
  -22.4120  -11.9880   22.4810 H   0  0  0  0  0  0  0  0  0  0  0  0
  -21.1080  -13.1240   22.2650 H   0  0  0  0  0  0  0  0  0  0  0  0
  -25.4190  -15.1850   20.4040 N   0  0  0  0  0  0  0  0  0  0  0  0
  -24.6440  -15.8320   20.5030 H   0  0  0  0  0  0  0  0  0  0  0  0
  -26.2620  -15.6270   20.0630 H   0  0  0  0  0  0  0  0  0  0  0  0
  1  3  2  0
  1  5  1  0
  2  1  1  0
  3  6  1  0
  4  2  2  0
  4  8  1  0
  7  4  1  0
  8  3  1  0
 10  9  1  0
 10 11  1  0
 10  2  1  0
 12 11  1  0
 13 24  2  0
 14 12  1  0
 14 19  1  0
 15 23  1  0
 15 25  1  0
 16 22  1  0
 16 18  1  0
 17 23  1  0
 18 17  1  0
 19 18  2  0
 20 14  2  0
 21 20  1  0
 21 16  2  0
 22 15  1  0
 23 13  1  0
 25 27  2  0
 26 25  1  0
 28 26  1  0
 29 38  2  0
 29 34  1  0
 30 26  1  0
 30 34  1  0
 31 30  1  0
 32 33  1  0
 32 31  1  0
 33 29  1  0
 34 35  2  0
 35 36  1  0
 37 36  2  0
 38 37  1  0
 39 13  1  0
 39 44  1  0
 39 40  1  0
 40 43  1  1
 40 41  1  0
 42 40  1  0
 44 47  1  0
 45 49  1  0
 45 44  1  0
 46 45  2  0
 49 48  1  0
 51 49  1  0
 51 52  1  0
 51 50  1  0
 54  8  1  0
 54 53  1  0
 55 67  1  0
 56 61  1  0
 57 58  1  0
 57 56  1  0
 59 58  1  0
 59 71  1  0
 59 60  1  0
 61 55  1  0
 61 60  1  0
 62 55  2  0
 64 67  1  0
 64 63  1  0
 66 63  1  0
 66 65  1  0
 66 54  1  0
 67 65  1  0
 68 69  2  0
 69 88  1  0
 70 69  1  0
 70 73  1  0
 71 68  1  0
 71 72  1  0
 72 70  2  0
 73 74  1  0
 74 75  2  0
 76 79  1  0
 76 75  1  0
 77 76  2  0
 78 77  1  0
 78 73  2  0
 79 80  1  0
 80 81  1  0
 81 82  2  0
 83 82  1  0
 83 87  1  0
 84 83  2  0
 85 80  2  0
 85 84  1  0
 86 85  1  0
 88 89  1  0
 89 92  1  0
 89 91  1  0
 90 88  2  0
 93 94  1  0
 93 68  1  0
 95 93  1  0
M  ISO  4  11 101  12 101  55 100  67 100
M  END
>  <TORSDO>  (18) 
F 19

>  <SCORE>  (18) 
-8.197

>  <name>  (18) 
17

>  <ligand_id>  (18) 
17

>  <original_smiles>  (18) 
[H]c1c([H])c([H])c2c(c1[H])C([H])([H])C([H])([H])C([H])([H])C2([H])N([H])C(=O)C1([H])N(C(=O)C([H])(N([H])C(=O)C([H])(N([H])C([H])([H])[H])C([H])([H])[H])C(C([H])([H])[H])(C([H])([H])[H])C([H])([H])[H])C([H])([H])c2c([H])c(OC([H])([H])C([H])(c3c(C([H])([H])[H])c(C([H])([H])[H])n(C([H])(C([H])([H])[H])C4([H])C([H])([H])N(C(=O)N5C([H])([H])C([H])([H])C([H])([H])C([H])(n6nc(-c7c([H])c([H])c(Oc8c([H])c([H])c(F)c([H])c8F)c([H])c7[H])c(C(=O)N([H])[H])c6N([H])[H])C5([H])[H])C([H])([H])C4([H])[H])c3C([H])([H])[H])C([H])([H])[H])c([H])c([H])c2C1([H])[H]

>  <smiles>  (18) 
[H]c1c([H])c([H])c2c(c1[H])C([H])([H])C([H])([H])C([H])([H])C2([H])N([H])C(=O)C1([H])N(C(=O)C([H])(N([H])C(=O)C([H])(N([H])C([H])([H])[H])C([H])([H])[H])C(C([H])([H])[H])(C([H])([H])[H])C([H])([H])[H])C([H])([H])c2c([H])c(OC([H])([H])C([H])(c3c(C([H])([H])[H])c(C([H])([H])[H])n(C([H])(C([H])([H])[H])C4([H])C([H])([H])N(C(=O)N5C([H])([H])C([H])([H])C([H])([H])C([H])(n6nc(-c7c([H])c([H])c(Oc8c([H])c([H])c(F)c([H])c8F)c([H])c7[H])c(C(=O)N([H])[H])c6N([H])[H])C5([H])[H])C([H])([H])C4([H])[H])c3C([H])([H])[H])C([H])([H])[H])c([H])c([H])c2C1([H])[H]

$$$$
18:0:0
     RDKit          3D

102113  0  0  1  0  0  0  0  0999 V2000
  -31.8660  -19.1450   19.4860 C   0  0  0  0  0  3  0  0  0  0  0  0
  -30.7690  -20.3690   21.2530 C   0  0  0  0  0  3  0  0  0  0  0  0
  -31.2110  -19.1440   20.7330 C   0  0  0  0  0  0  0  0  0  0  0  0
  -32.0220  -20.3530   18.7810 C   0  0  0  0  0  0  0  0  0  0  0  0
  -31.4790  -21.5210   19.3650 C   0  0  0  0  0  0  0  0  0  0  0  0
  -30.8930  -21.5260   20.5840 N   0  0  0  0  0  0  0  0  0  0  0  0
  -30.6210  -14.3690   19.9490 C   0  0  0  0  0  0  0  0  0  0  0  0
  -30.1100  -12.4030   18.5480 C   0  0  0  0  0  2  0  0  0  0  0  0
  -29.0490  -12.7270   17.4800 C   0  0  0  0  0  2  0  0  0  0  0  0
  -27.6280  -12.5500   18.0460 C   0  0  0  0  0  2  0  0  0  0  0  0
  -27.4410  -13.2710   19.4050 C   0  0  0  0  0  3  0  0  0  0  0  0
  -28.5940  -12.9050   20.3700 C   0  0  0  0  0  2  0  0  0  0  0  0
  -29.8680  -13.2590   19.7200 N   0  0  0  0  0  0  0  0  0  0  0  0
  -31.5590  -14.6900   19.2080 O   0  0  0  0  0  0  0  0  0  0  0  0
  -29.5890  -17.2590   20.8500 C   0  0  0  0  0  2  0  0  0  0  0  0
  -32.0530  -16.8430   21.4580 C   0  0  0  0  0  2  0  0  0  0  0  0
  -29.2930  -15.8570   21.3940 C   0  0  0  0  0  2  0  0  0  0  0  0
  -31.6040  -15.4410   21.9250 C   0  0  0  0  0  2  0  0  0  0  0  0
  -30.8800  -17.8500   21.4520 C   0  0  0  0  0  3  0  0  0  0  0  0
  -30.4460  -14.9790   21.1450 N   0  0  0  0  0  0  0  0  0  0  0  0
  -25.1100  -13.8420   20.3450 C   0  0  0  0  0  0  0  0  0  0  0  0
  -24.0840  -13.0480   20.7810 C   0  0  0  0  0  0  0  0  0  0  0  0
  -24.5460  -11.7020   20.6550 C   0  0  0  0  0  0  0  0  0  0  0  0
  -26.1350  -12.9770   19.9900 N   0  0  0  0  0  0  0  0  0  0  0  0
  -25.8020  -11.6830   20.2290 N   0  0  0  0  0  0  0  0  0  0  0  0
  -23.8480  -10.4270   20.8630 C   0  0  0  0  0  0  0  0  0  0  0  0
  -24.3170   -9.4720   21.7920 C   0  0  0  0  0  3  0  0  0  0  0  0
  -23.6190   -8.2610   21.9850 C   0  0  0  0  0  3  0  0  0  0  0  0
  -22.4380   -7.9950   21.2500 C   0  0  0  0  0  0  0  0  0  0  0  0
  -21.9900   -8.9410   20.3100 C   0  0  0  0  0  3  0  0  0  0  0  0
  -22.6880  -10.1430   20.1140 C   0  0  0  0  0  3  0  0  0  0  0  0
  -21.7100   -6.8360   21.3550 O   0  0  0  0  0  0  0  0  0  0  0  0
  -21.6640   -6.1160   22.5220 C   0  0  0  0  0  0  0  0  0  0  0  0
  -21.1550   -6.6680   23.7170 C   0  0  0  0  0  3  0  0  0  0  0  0
  -21.0630   -5.8700   24.8760 C   0  0  0  0  0  3  0  0  0  0  0  0
  -21.4710   -4.5240   24.8400 C   0  0  0  0  0  0  0  0  0  0  0  0
  -21.9730   -3.9710   23.6480 C   0  0  0  0  0  3  0  0  0  0  0  0
  -22.0670   -4.7660   22.4910 C   0  0  0  0  0  0  0  0  0  0  0  0
  -22.5330   -4.2230   21.3400 F   0  0  0  0  0  0  0  0  0  0  0  0
  -21.3750   -3.7550   25.9500 F   0  0  0  0  0  0  0  0  0  0  0  0
  -22.7140  -13.5010   21.2000 C   0  0  0  0  0  0  0  0  0  0  0  0
  -22.0760  -12.7670   22.1050 N   0  0  0  0  0  0  0  0  0  0  0  0
  -22.2230  -14.5400   20.7610 O   0  0  0  0  0  0  0  0  0  0  0  0
  -22.4870  -11.9250   22.4790 H   0  0  0  0  0  0  0  0  0  0  0  0
  -21.1610  -13.0500   22.4260 H   0  0  0  0  0  0  0  0  0  0  0  0
  -25.2510  -15.2200   20.2050 N   0  0  0  0  0  0  0  0  0  0  0  0
  -24.4930  -15.8630   20.4060 H   0  0  0  0  0  0  0  0  0  0  0  0
  -26.0640  -15.6790   19.8150 H   0  0  0  0  0  0  0  0  0  0  0  0
  -32.1980  -23.9430   19.3600 C   0  0  0  0  0  2  0  0  0  0  0  0
  -31.9560  -25.3420   18.7830 C   0  0  0  0  0  2  0  0  0  0  0  0
  -29.7770  -24.6950   17.8860 C   0  0  0  0  0  2  0  0  0  0  0  0
  -31.3900  -22.8520   18.6210 C   0  0  0  0  0  3  0  0  0  0  0  0
  -29.9030  -23.2520   18.3990 C   0  0  0  0  0  3  0  0  0  0  0  0
  -29.1570  -22.2840   17.4600 C   0  0  0  0  0  1  0  0  0  0  0  0
  -30.5040  -25.6290   18.7740 N   0  0  2  0  0  4  0  0  0  0  0  0
  -30.1680  -25.4400   19.7100 H   0  0  0  0  0  0  0  0  0  0  0  0
  -30.1590  -27.0480   18.5370 C   0  0  0  0  0  2  0  0  0  0  0  0
  -29.3520  -27.5980   19.7170 C   0  0  0  0  0  2  0  0  0  0  0  0
  -28.1540  -26.8230   19.8840 O   0  0  0  0  0  0  0  0  0  0  0  0
  -24.4850  -31.9430   23.2620 C   0  0  0  0  0  0  0  0  0  0  0  0
  -26.9870  -27.5330   20.0560 C   0  0  0  0  0  0  0  0  0  0  0  0
  -23.1920  -30.5500   21.6700 C   0  0  0  0  0  3  0  0  0  0  0  0
  -24.5730  -28.9910   20.1970 C   0  0  0  0  0  0  0  0  0  0  0  0
  -25.7010  -30.8990   21.3630 C   0  0  0  0  0  2  0  0  0  0  0  0
  -25.7490  -29.5250   20.7370 C   0  0  0  0  0  0  0  0  0  0  0  0
  -26.9480  -28.7960   20.6890 C   0  0  0  0  0  3  0  0  0  0  0  0
  -25.7900  -26.9840   19.5500 C   0  0  0  0  0  3  0  0  0  0  0  0
  -24.5830  -27.7100   19.6130 C   0  0  0  0  0  3  0  0  0  0  0  0
  -23.3370  -29.8580   20.2860 C   0  0  0  0  0  2  0  0  0  0  0  0
  -24.4790  -31.1460   22.1560 N   0  0  0  0  0  0  0  0  0  0  0  0
  -23.4330  -32.2270   23.8500 O   0  0  0  0  0  0  0  0  0  0  0  0
  -22.5750  -29.5380   22.6600 C   0  0  0  0  0  0  0  0  0  0  0  0
  -21.2570  -29.3180   22.5400 N   0  0  0  0  0  0  0  0  0  0  0  0
  -23.2780  -28.9520   23.4880 O   0  0  0  0  0  0  0  0  0  0  0  0
  -20.7520  -29.8430   21.8400 H   0  0  0  0  0  0  0  0  0  0  0  0
  -17.9200  -28.0380   23.0510 C   0  0  0  0  0  0  0  0  0  0  0  0
  -20.4660  -28.3810   23.3350 C   0  0  0  0  0  3  0  0  0  0  0  0
  -20.6170  -26.9360   22.8040 C   0  0  0  0  0  2  0  0  0  0  0  0
  -19.5340  -26.5490   21.7920 C   0  0  0  0  0  2  0  0  0  0  0  0
  -18.1430  -26.6730   22.4210 C   0  0  0  0  0  2  0  0  0  0  0  0
  -19.0110  -28.8470   23.4650 C   0  0  0  0  0  0  0  0  0  0  0  0
  -18.7510  -30.1220   24.0110 C   0  0  0  0  0  3  0  0  0  0  0  0
  -17.4310  -30.5900   24.1490 C   0  0  0  0  0  3  0  0  0  0  0  0
  -16.3530  -29.7790   23.7540 C   0  0  0  0  0  3  0  0  0  0  0  0
  -16.5990  -28.5050   23.2100 C   0  0  0  0  0  3  0  0  0  0  0  0
  -25.8070  -32.5560   23.8250 C   0  0  0  0  0  3  0  0  0  0  0  0
  -26.3770  -31.7710   25.0690 C   0  0  1  0  0  0  0  0  0  0  0  0
  -25.3280  -31.5150   26.1760 C   0  0  0  0  0  1  0  0  0  0  0  0
  -26.9460  -30.4000   24.6330 C   0  0  0  0  0  1  0  0  0  0  0  0
  -27.5510  -32.5590   25.6970 C   0  0  0  0  0  1  0  0  0  0  0  0
  -25.5320  -33.9560   24.1720 N   0  0  0  0  0  0  0  0  0  0  0  0
  -25.8840  -35.0080   23.4210 C   0  0  0  0  0  0  0  0  0  0  0  0
  -26.5460  -34.9000   22.3850 O   0  0  0  0  0  0  0  0  0  0  0  0
  -24.9500  -34.1170   24.9810 H   0  0  0  0  0  0  0  0  0  0  0  0
  -24.2270  -36.8610   23.0490 C   0  0  0  0  0  1  0  0  0  0  0  0
  -25.4270  -36.4020   23.8930 C   0  0  0  0  0  3  0  0  0  0  0  0
  -27.5530  -37.2020   24.8210 C   0  0  0  0  0  1  0  0  0  0  0  0
  -26.4960  -37.4220   23.8380 N   0  0  0  0  0  0  0  0  0  0  0  0
  -26.1140  -38.3530   23.9850 H   0  0  0  0  0  0  0  0  0  0  0  0
  -33.8740  -19.4750   17.1200 C   0  0  0  0  0  2  0  0  0  0  0  0
  -34.0330  -20.9730   17.2160 C   0  0  0  0  0  2  0  0  0  0  0  0
  -32.6730  -20.3460   17.4260 C   0  0  0  0  0  3  0  0  0  0  0  0
  1  3  1  0
  3  2  2  0
  4  5  1  0
  4  1  2  0
  5  6  2  0
  6  2  1  0
  7 20  1  0
  8 13  1  0
  9 10  1  0
  9  8  1  0
 11 10  1  0
 11 24  1  0
 11 12  1  0
 13  7  1  0
 13 12  1  0
 14  7  2  0
 15 17  1  0
 15 19  1  0
 16 18  1  0
 19  3  1  0
 19 16  1  0
 20 17  1  0
 20 18  1  0
 21 22  2  0
 22 41  1  0
 23 22  1  0
 23 26  1  0
 24 25  1  0
 24 21  1  0
 25 23  2  0
 26 27  1  0
 27 28  2  0
 29 32  1  0
 29 28  1  0
 30 29  2  0
 31 30  1  0
 31 26  2  0
 32 33  1  0
 33 34  1  0
 34 35  2  0
 36 35  1  0
 36 40  1  0
 37 36  2  0
 38 33  2  0
 38 37  1  0
 39 38  1  0
 41 42  1  0
 42 45  1  0
 42 44  1  0
 43 41  2  0
 46 21  1  0
 46 47  1  0
 48 46  1  0
 50 49  1  0
 51 53  1  0
 51 55  1  0
 52 49  1  0
 52  5  1  0
 53 54  1  0
 53 52  1  0
 55 50  1  0
 55 56  1  1
 57 55  1  0
 57 58  1  0
 58 59  1  0
 59 61  1  0
 60 71  2  0
 61 66  1  0
 62 70  1  0
 62 72  1  0
 63 69  1  0
 63 65  1  0
 64 70  1  0
 65 64  1  0
 66 65  2  0
 67 68  1  0
 67 61  2  0
 68 63  2  0
 69 62  1  0
 70 60  1  0
 72 74  2  0
 73 72  1  0
 75 73  1  0
 76 85  2  0
 76 81  1  0
 77 73  1  0
 77 81  1  0
 78 77  1  0
 79 80  1  0
 79 78  1  0
 80 76  1  0
 81 82  2  0
 82 83  1  0
 84 83  2  0
 85 84  1  0
 86 60  1  0
 86 91  1  0
 86 87  1  0
 87 90  1  1
 87 88  1  0
 89 87  1  0
 91 94  1  0
 92 96  1  0
 92 91  1  0
 93 92  2  0
 96 95  1  0
 98 96  1  0
 98 99  1  0
 98 97  1  0
100101  1  0
100102  1  0
101102  1  0
102  4  1  0
M  ISO  4   7 100  20 100  58 101  59 101
M  END
>  <TORSDO>  (19) 
F 20

>  <SCORE>  (19) 
-12.197

>  <name>  (19) 
18

>  <ligand_id>  (19) 
18

>  <original_smiles>  (19) 
[H]c1nc(C2([H])C([H])([H])C([H])([H])[N+]([H])(C([H])([H])C([H])([H])Oc3c([H])c([H])c4c(c3[H])C([H])([H])N(C(=O)C([H])(N([H])C(=O)C([H])(N([H])C([H])([H])[H])C([H])([H])[H])C(C([H])([H])[H])(C([H])([H])[H])C([H])([H])[H])C([H])(C(=O)N([H])C3([H])c5c([H])c([H])c([H])c([H])c5C([H])([H])C([H])([H])C3([H])[H])C4([H])[H])C([H])([H])C2([H])C([H])([H])[H])c(C2([H])C([H])([H])C2([H])[H])c([H])c1C1([H])C([H])([H])C([H])([H])N(C(=O)N2C([H])([H])C([H])([H])C([H])([H])C([H])(n3nc(-c4c([H])c([H])c(Oc5c([H])c([H])c(F)c([H])c5F)c([H])c4[H])c(C(=O)N([H])[H])c3N([H])[H])C2([H])[H])C([H])([H])C1([H])[H]

>  <smiles>  (19) 
[H]c1nc(C2([H])C([H])([H])C([H])([H])[N+]([H])(C([H])([H])C([H])([H])Oc3c([H])c([H])c4c(c3[H])C([H])([H])N(C(=O)C([H])(N([H])C(=O)C([H])(N([H])C([H])([H])[H])C([H])([H])[H])C(C([H])([H])[H])(C([H])([H])[H])C([H])([H])[H])C([H])(C(=O)N([H])C3([H])c5c([H])c([H])c([H])c([H])c5C([H])([H])C([H])([H])C3([H])[H])C4([H])[H])C([H])([H])C2([H])C([H])([H])[H])c(C2([H])C([H])([H])C2([H])[H])c([H])c1C1([H])C([H])([H])C([H])([H])N(C(=O)N2C([H])([H])C([H])([H])C([H])([H])C([H])(n3nc(-c4c([H])c([H])c(Oc5c([H])c([H])c(F)c([H])c5F)c([H])c4[H])c(C(=O)N([H])[H])c3N([H])[H])C2([H])[H])C([H])([H])C1([H])[H]

$$$$
19:0:0
     RDKit          3D

100110  0  0  1  0  0  0  0  0999 V2000
  -29.8930  -21.0420   20.7240 C   0  0  0  0  0  3  0  0  0  0  0  0
  -30.1870  -22.4380   20.6790 C   0  0  0  0  0  0  0  0  0  0  0  0
  -30.6680  -20.0880   20.0150 C   0  0  0  0  0  0  0  0  0  0  0  0
  -31.2860  -22.8100   19.8470 C   0  0  0  0  0  0  0  0  0  0  0  0
  -31.7020  -20.5910   19.2000 C   0  0  0  0  0  0  0  0  0  0  0  0
  -31.9860  -21.9010   19.1290 N   0  0  0  0  0  0  0  0  0  0  0  0
  -30.6900  -14.5920   20.0970 C   0  0  0  0  0  0  0  0  0  0  0  0
  -30.3510  -12.4170   18.9990 C   0  0  0  0  0  2  0  0  0  0  0  0
  -29.3510  -12.6170   17.8420 C   0  0  0  0  0  2  0  0  0  0  0  0
  -27.9010  -12.4770   18.3470 C   0  0  0  0  0  2  0  0  0  0  0  0
  -27.6180  -13.2950   19.6380 C   0  0  0  0  0  3  0  0  0  0  0  0
  -28.7390  -13.1130   20.6870 C   0  0  0  0  0  2  0  0  0  0  0  0
  -30.0180  -13.4110   20.0290 N   0  0  0  0  0  0  0  0  0  0  0  0
  -31.8530  -14.7180   19.6980 O   0  0  0  0  0  0  0  0  0  0  0  0
  -29.9510  -18.0080   21.4780 C   0  0  0  0  0  2  0  0  0  0  0  0
  -29.4940  -17.9920   19.0890 C   0  0  0  0  0  2  0  0  0  0  0  0
  -30.0500  -16.4540   21.5390 C   0  0  0  0  0  2  0  0  0  0  0  0
  -29.6060  -16.4530   19.0040 C   0  0  0  0  0  2  0  0  0  0  0  0
  -30.4470  -18.5590   20.1350 C   0  0  0  0  0  3  0  0  0  0  0  0
  -29.9190  -15.7060   20.2590 N   0  0  0  0  0  0  0  0  0  0  0  0
  -25.2700  -13.8780   20.5020 C   0  0  0  0  0  0  0  0  0  0  0  0
  -24.2210  -13.0950   20.9010 C   0  0  0  0  0  0  0  0  0  0  0  0
  -24.6780  -11.7430   20.8010 C   0  0  0  0  0  0  0  0  0  0  0  0
  -26.2980  -13.0030   20.1870 N   0  0  0  0  0  0  0  0  0  0  0  0
  -25.9500  -11.7130   20.4250 N   0  0  0  0  0  0  0  0  0  0  0  0
  -23.9610  -10.4770   20.9900 C   0  0  0  0  0  0  0  0  0  0  0  0
  -24.4100   -9.5040   21.9110 C   0  0  0  0  0  3  0  0  0  0  0  0
  -23.6950   -8.3010   22.0900 C   0  0  0  0  0  3  0  0  0  0  0  0
  -22.5160   -8.0600   21.3440 C   0  0  0  0  0  0  0  0  0  0  0  0
  -22.0840   -9.0210   20.4120 C   0  0  0  0  0  3  0  0  0  0  0  0
  -22.8020  -10.2160   20.2340 C   0  0  0  0  0  3  0  0  0  0  0  0
  -21.7720   -6.9080   21.4280 O   0  0  0  0  0  0  0  0  0  0  0  0
  -21.6920   -6.1860   22.5930 C   0  0  0  0  0  0  0  0  0  0  0  0
  -21.1670   -6.7430   23.7790 C   0  0  0  0  0  3  0  0  0  0  0  0
  -21.0420   -5.9480   24.9350 C   0  0  0  0  0  3  0  0  0  0  0  0
  -21.4310   -4.5950   24.9040 C   0  0  0  0  0  0  0  0  0  0  0  0
  -21.9480   -4.0360   23.7220 C   0  0  0  0  0  3  0  0  0  0  0  0
  -22.0770   -4.8310   22.5680 C   0  0  0  0  0  0  0  0  0  0  0  0
  -22.5570   -4.2840   21.4250 F   0  0  0  0  0  0  0  0  0  0  0  0
  -21.3020   -3.8270   26.0120 F   0  0  0  0  0  0  0  0  0  0  0  0
  -22.8430  -13.5640   21.2610 C   0  0  0  0  0  0  0  0  0  0  0  0
  -22.1610  -12.8410   22.1440 N   0  0  0  0  0  0  0  0  0  0  0  0
  -22.3790  -14.6040   20.7970 O   0  0  0  0  0  0  0  0  0  0  0  0
  -22.5510  -11.9990   22.5420 H   0  0  0  0  0  0  0  0  0  0  0  0
  -21.2390  -13.1390   22.4280 H   0  0  0  0  0  0  0  0  0  0  0  0
  -25.4270  -15.2540   20.3630 N   0  0  0  0  0  0  0  0  0  0  0  0
  -24.6730  -15.9090   20.5420 H   0  0  0  0  0  0  0  0  0  0  0  0
  -26.2720  -15.7030   20.0330 H   0  0  0  0  0  0  0  0  0  0  0  0
  -29.7800  -24.7100   22.1470 C   0  0  0  0  0  2  0  0  0  0  0  0
  -29.3840  -23.3410   21.6310 C   0  0  0  0  0  3  0  0  0  0  0  0
  -28.4930  -24.5700   21.3520 C   0  0  1  0  0  0  0  0  0  0  0  0
  -27.1820  -24.6530   22.1200 C   0  0  0  0  0  1  0  0  0  0  0  0
  -28.3420  -25.3080   20.0080 C   0  0  0  0  0  2  0  0  0  0  0  0
  -28.3610  -26.7560   20.1470 O   0  0  0  0  0  0  0  0  0  0  0  0
  -24.5380  -31.9420   23.2340 C   0  0  0  0  0  0  0  0  0  0  0  0
  -27.1790  -27.4890   20.1320 C   0  0  0  0  0  0  0  0  0  0  0  0
  -23.3340  -30.5500   21.5840 C   0  0  0  0  0  3  0  0  0  0  0  0
  -24.7890  -29.0250   20.1500 C   0  0  0  0  0  0  0  0  0  0  0  0
  -25.8640  -30.9070   21.3890 C   0  0  0  0  0  2  0  0  0  0  0  0
  -25.9500  -29.5380   20.7390 C   0  0  0  0  0  0  0  0  0  0  0  0
  -27.1470  -28.7780   20.7230 C   0  0  0  0  0  3  0  0  0  0  0  0
  -25.9930  -27.0090   19.5280 C   0  0  0  0  0  3  0  0  0  0  0  0
  -24.8080  -27.7630   19.5380 C   0  0  0  0  0  3  0  0  0  0  0  0
  -23.5450  -29.8830   20.2010 C   0  0  0  0  0  2  0  0  0  0  0  0
  -24.5970  -31.1460   22.1280 N   0  0  0  0  0  0  0  0  0  0  0  0
  -23.4570  -32.2110   23.7740 O   0  0  0  0  0  0  0  0  0  0  0  0
  -22.6800  -29.5220   22.5380 C   0  0  0  0  0  0  0  0  0  0  0  0
  -21.3610  -29.3190   22.3890 N   0  0  0  0  0  0  0  0  0  0  0  0
  -23.3590  -28.9090   23.3660 O   0  0  0  0  0  0  0  0  0  0  0  0
  -20.8730  -29.8660   21.6930 H   0  0  0  0  0  0  0  0  0  0  0  0
  -17.9990  -28.0670   22.8210 C   0  0  0  0  0  0  0  0  0  0  0  0
  -20.5460  -28.3730   23.1490 C   0  0  0  0  0  3  0  0  0  0  0  0
  -20.6860  -26.9390   22.5870 C   0  0  0  0  0  2  0  0  0  0  0  0
  -19.6140  -26.5910   21.5490 C   0  0  0  0  0  2  0  0  0  0  0  0
  -18.2160  -26.7160   22.1610 C   0  0  0  0  0  2  0  0  0  0  0  0
  -19.0940  -28.8520   23.2700 C   0  0  0  0  0  0  0  0  0  0  0  0
  -18.8390  -30.1170   23.8450 C   0  0  0  0  0  3  0  0  0  0  0  0
  -17.5220  -30.5960   23.9770 C   0  0  0  0  0  3  0  0  0  0  0  0
  -16.4430  -29.8080   23.5460 C   0  0  0  0  0  3  0  0  0  0  0  0
  -16.6820  -28.5460   22.9730 C   0  0  0  0  0  3  0  0  0  0  0  0
  -25.8250  -32.5690   23.8570 C   0  0  0  0  0  3  0  0  0  0  0  0
  -26.3320  -31.8010   25.1390 C   0  0  1  0  0  0  0  0  0  0  0  0
  -25.2300  -31.5680   26.1980 C   0  0  0  0  0  1  0  0  0  0  0  0
  -26.9140  -30.4210   24.7540 C   0  0  0  0  0  1  0  0  0  0  0  0
  -27.4760  -32.5960   25.8100 C   0  0  0  0  0  1  0  0  0  0  0  0
  -25.5210  -33.9700   24.1770 N   0  0  0  0  0  0  0  0  0  0  0  0
  -25.8680  -35.0160   23.4170 C   0  0  0  0  0  0  0  0  0  0  0  0
  -26.5480  -34.9050   22.3930 O   0  0  0  0  0  0  0  0  0  0  0  0
  -24.9180  -34.1320   24.9710 H   0  0  0  0  0  0  0  0  0  0  0  0
  -24.1650  -36.8270   23.0220 C   0  0  0  0  0  1  0  0  0  0  0  0
  -25.3820  -36.4090   23.8630 C   0  0  0  0  0  3  0  0  0  0  0  0
  -27.4970  -37.2800   24.7550 C   0  0  0  0  0  1  0  0  0  0  0  0
  -26.4280  -37.4530   23.7770 N   0  0  0  0  0  0  0  0  0  0  0  0
  -26.0240  -38.3770   23.9080 H   0  0  0  0  0  0  0  0  0  0  0  0
  -33.8560  -20.1340   18.0820 C   0  0  0  0  0  1  0  0  0  0  0  0
  -32.4930  -19.7410   18.4160 N   0  0  0  0  0  0  0  0  0  0  0  0
  -32.3170  -18.7450   18.4880 H   0  0  0  0  0  0  0  0  0  0  0  0
  -31.8790  -24.2140   19.7410 C   0  0  0  0  0  3  0  0  0  0  0  0
  -32.7260  -24.4370   20.7470 F   0  0  0  0  0  0  0  0  0  0  0  0
  -32.5330  -24.3860   18.5880 F   0  0  0  0  0  0  0  0  0  0  0  0
  2  1  1  0
  3  1  2  0
  4  2  2  0
  5  3  1  0
  6  5  2  0
  6  4  1  0
  7 20  1  0
  8 13  1  0
  9 10  1  0
  9  8  1  0
 11 10  1  0
 11 24  1  0
 11 12  1  0
 13  7  1  0
 13 12  1  0
 14  7  2  0
 15 17  1  0
 16 19  1  0
 18 16  1  0
 18 20  1  0
 19  3  1  0
 19 15  1  0
 20 17  1  0
 21 22  2  0
 22 41  1  0
 23 22  1  0
 23 26  1  0
 24 25  1  0
 24 21  1  0
 25 23  2  0
 26 27  1  0
 27 28  2  0
 29 32  1  0
 29 28  1  0
 30 29  2  0
 31 30  1  0
 31 26  2  0
 32 33  1  0
 33 34  1  0
 34 35  2  0
 36 35  1  0
 36 40  1  0
 37 36  2  0
 38 33  2  0
 38 37  1  0
 39 38  1  0
 41 42  1  0
 42 45  1  0
 42 44  1  0
 43 41  2  0
 46 21  1  0
 46 47  1  0
 48 46  1  0
 50  2  1  0
 50 49  1  0
 51 50  1  0
 51 52  1  1
 51 49  1  0
 53 54  1  0
 53 51  1  0
 55 66  2  0
 56 54  1  0
 56 61  1  0
 57 65  1  0
 57 67  1  0
 58 64  1  0
 58 60  1  0
 59 65  1  0
 60 59  1  0
 61 60  2  0
 62 63  1  0
 62 56  2  0
 63 58  2  0
 64 57  1  0
 65 55  1  0
 67 69  2  0
 68 67  1  0
 70 68  1  0
 71 80  2  0
 71 76  1  0
 72 68  1  0
 72 76  1  0
 73 72  1  0
 74 75  1  0
 74 73  1  0
 75 71  1  0
 76 77  2  0
 77 78  1  0
 79 78  2  0
 80 79  1  0
 81 55  1  0
 81 86  1  0
 81 82  1  0
 82 85  1  1
 82 83  1  0
 84 82  1  0
 86 89  1  0
 87 91  1  0
 87 86  1  0
 88 87  2  0
 91 90  1  0
 93 91  1  0
 93 94  1  0
 93 92  1  0
 95 96  1  0
 96 97  1  0
 96  5  1  0
 98  4  1  0
 98 99  1  0
100 98  1  0
M  ISO  4   7 100  20 100  53 101  54 101
M  END
>  <TORSDO>  (20) 
F 20

>  <SCORE>  (20) 
-13.848

>  <name>  (20) 
19

>  <ligand_id>  (20) 
19

>  <original_smiles>  (20) 
[H]c1c([H])c([H])c2c(c1[H])C([H])([H])C([H])([H])C([H])([H])C2([H])N([H])C(=O)C1([H])N(C(=O)C([H])(N([H])C(=O)C([H])(N([H])C([H])([H])[H])C([H])([H])[H])C(C([H])([H])[H])(C([H])([H])[H])C([H])([H])[H])C([H])([H])c2c([H])c(OC([H])([H])C3(C([H])([H])[H])C([H])([H])C3([H])c3c(C([H])(F)F)nc(N([H])C([H])([H])[H])c(C4([H])C([H])([H])C([H])([H])N(C(=O)N5C([H])([H])C([H])([H])C([H])([H])C([H])(n6nc(-c7c([H])c([H])c(Oc8c([H])c([H])c(F)c([H])c8F)c([H])c7[H])c(C(=O)N([H])[H])c6N([H])[H])C5([H])[H])C([H])([H])C4([H])[H])c3[H])c([H])c([H])c2C1([H])[H]

>  <smiles>  (20) 
[H]c1c([H])c([H])c2c(c1[H])C([H])([H])C([H])([H])C([H])([H])C2([H])N([H])C(=O)C1([H])N(C(=O)C([H])(N([H])C(=O)C([H])(N([H])C([H])([H])[H])C([H])([H])[H])C(C([H])([H])[H])(C([H])([H])[H])C([H])([H])[H])C([H])([H])c2c([H])c(OC([H])([H])C3(C([H])([H])[H])C([H])([H])C3([H])c3c(C([H])(F)F)nc(N([H])C([H])([H])[H])c(C4([H])C([H])([H])C([H])([H])N(C(=O)N5C([H])([H])C([H])([H])C([H])([H])C([H])(n6nc(-c7c([H])c([H])c(Oc8c([H])c([H])c(F)c([H])c8F)c([H])c7[H])c(C(=O)N([H])[H])c6N([H])[H])C5([H])[H])C([H])([H])C4([H])[H])c3[H])c([H])c([H])c2C1([H])[H]

$$$$
20:0:0
     RDKit          3D

 97107  0  0  1  0  0  0  0  0999 V2000
  -28.7590  -23.0120   21.7840 N   0  0  0  0  0  4  0  0  0  0  0  0
  -29.6230  -23.0830   22.2960 H   0  0  0  0  0  0  0  0  0  0  0  0
  -28.0400  -22.8090   22.4610 H   0  0  0  0  0  0  0  0  0  0  0  0
  -27.9640  -21.8280   19.6640 C   0  0  0  0  0  2  0  0  0  0  0  0
  -27.6790  -20.3530   19.3600 C   0  0  0  0  0  2  0  0  0  0  0  0
  -28.8940  -21.8330   20.8770 C   0  0  0  0  0  3  0  0  0  0  0  0
  -28.4630  -20.5200   21.5570 C   0  0  0  0  0  3  0  0  0  0  0  0
  -29.3570  -20.0600   22.7260 C   0  0  0  0  0  1  0  0  0  0  0  0
  -28.2470  -19.5540   20.4590 N   0  0  0  0  0  0  0  0  0  0  0  0
  -31.3310  -14.8310   19.5830 C   0  0  0  0  0  0  0  0  0  0  0  0
  -31.0070  -12.5330   18.7780 C   0  0  0  0  0  2  0  0  0  0  0  0
  -29.9850  -12.5690   17.6240 C   0  0  0  0  0  2  0  0  0  0  0  0
  -28.5470  -12.4650   18.1720 C   0  0  0  0  0  2  0  0  0  0  0  0
  -28.2730  -13.4580   19.3350 C   0  0  0  0  0  3  0  0  0  0  0  0
  -29.4070  -13.4120   20.3830 C   0  0  0  0  0  2  0  0  0  0  0  0
  -30.6790  -13.6440   19.6810 N   0  0  0  0  0  0  0  0  0  0  0  0
  -32.4360  -14.9430   19.0360 O   0  0  0  0  0  0  0  0  0  0  0  0
  -29.3850  -17.5260   21.2600 C   0  0  0  0  0  2  0  0  0  0  0  0
  -29.2980  -17.8690   18.8020 C   0  0  0  0  0  2  0  0  0  0  0  0
  -30.5900  -16.5840   21.0880 C   0  0  0  0  0  2  0  0  0  0  0  0
  -30.4840  -16.8930   18.6630 C   0  0  0  0  0  2  0  0  0  0  0  0
  -29.3480  -18.6090   20.1570 C   0  0  0  0  0  3  0  0  0  0  0  0
  -30.5610  -15.9270   19.7750 N   0  0  0  0  0  0  0  0  0  0  0  0
  -26.0100  -14.1440   20.3490 C   0  0  0  0  0  0  0  0  0  0  0  0
  -24.9400  -13.4080   20.7780 C   0  0  0  0  0  0  0  0  0  0  0  0
  -25.3080  -12.0380   20.6060 C   0  0  0  0  0  0  0  0  0  0  0  0
  -26.9650  -13.2250   19.9430 N   0  0  0  0  0  0  0  0  0  0  0  0
  -26.5530  -11.9490   20.1530 N   0  0  0  0  0  0  0  0  0  0  0  0
  -24.5290  -10.8070   20.7910 C   0  0  0  0  0  0  0  0  0  0  0  0
  -24.9240   -9.8140   21.7160 C   0  0  0  0  0  3  0  0  0  0  0  0
  -24.1480   -8.6480   21.8880 C   0  0  0  0  0  3  0  0  0  0  0  0
  -22.9630   -8.4660   21.1370 C   0  0  0  0  0  0  0  0  0  0  0  0
  -22.5870   -9.4460   20.2010 C   0  0  0  0  0  3  0  0  0  0  0  0
  -23.3630  -10.6050   20.0270 C   0  0  0  0  0  3  0  0  0  0  0  0
  -22.1610   -7.3540   21.2190 O   0  0  0  0  0  0  0  0  0  0  0  0
  -21.9220   -6.7260   22.4140 C   0  0  0  0  0  0  0  0  0  0  0  0
  -21.3840   -7.4140   23.5250 C   0  0  0  0  0  3  0  0  0  0  0  0
  -21.0900   -6.7130   24.7120 C   0  0  0  0  0  3  0  0  0  0  0  0
  -21.3250   -5.3280   24.7880 C   0  0  0  0  0  0  0  0  0  0  0  0
  -21.8560   -4.6400   23.6830 C   0  0  0  0  0  3  0  0  0  0  0  0
  -22.1510   -5.3370   22.4980 C   0  0  0  0  0  0  0  0  0  0  0  0
  -22.6430   -4.6660   21.4290 F   0  0  0  0  0  0  0  0  0  0  0  0
  -21.0360   -4.6530   25.9250 F   0  0  0  0  0  0  0  0  0  0  0  0
  -23.6130  -13.9400   21.2370 C   0  0  0  0  0  0  0  0  0  0  0  0
  -22.9530  -13.2390   22.1520 N   0  0  0  0  0  0  0  0  0  0  0  0
  -23.1760  -15.0100   20.8190 O   0  0  0  0  0  0  0  0  0  0  0  0
  -23.3220  -12.3730   22.5130 H   0  0  0  0  0  0  0  0  0  0  0  0
  -22.0640  -13.5740   22.4960 H   0  0  0  0  0  0  0  0  0  0  0  0
  -26.2460  -15.5120   20.2530 N   0  0  0  0  0  0  0  0  0  0  0  0
  -25.5610  -16.2030   20.5360 H   0  0  0  0  0  0  0  0  0  0  0  0
  -27.1200  -15.9210   19.9480 H   0  0  0  0  0  0  0  0  0  0  0  0
  -26.9680  -24.6540   21.4290 C   0  0  0  0  0  1  0  0  0  0  0  0
  -28.4650  -24.3510   21.1980 C   0  0  0  0  0  3  0  0  0  0  0  0
  -28.8650  -26.6500   22.5140 C   0  0  0  0  0  2  0  0  0  0  0  0
  -29.4090  -25.4310   21.7830 C   0  0  0  0  0  3  0  0  0  0  0  0
  -29.6390  -26.8500   21.2300 C   0  0  0  0  0  3  0  0  0  0  0  0
  -28.9720  -27.1100   19.9900 O   0  0  0  0  0  0  0  0  0  0  0  0
  -24.7510  -31.8420   23.2750 C   0  0  0  0  0  0  0  0  0  0  0  0
  -27.8080  -27.8420   20.0090 C   0  0  0  0  0  0  0  0  0  0  0  0
  -23.6890  -30.4200   21.5520 C   0  0  0  0  0  3  0  0  0  0  0  0
  -25.2880  -29.1120   20.0560 C   0  0  0  0  0  0  0  0  0  0  0  0
  -26.1670  -31.0270   21.3970 C   0  0  0  0  0  2  0  0  0  0  0  0
  -26.3850  -29.7050   20.6950 C   0  0  0  0  0  0  0  0  0  0  0  0
  -27.6500  -29.0730   20.6850 C   0  0  0  0  0  3  0  0  0  0  0  0
  -26.7100  -27.2890   19.3200 C   0  0  0  0  0  3  0  0  0  0  0  0
  -25.4450  -27.8980   19.3670 C   0  0  0  0  0  3  0  0  0  0  0  0
  -23.9660  -29.8390   20.1400 C   0  0  0  0  0  2  0  0  0  0  0  0
  -24.8860  -31.1090   22.1340 N   0  0  0  0  0  0  0  0  0  0  0  0
  -23.6460  -31.9790   23.8200 O   0  0  0  0  0  0  0  0  0  0  0  0
  -23.1380  -29.2910   22.4520 C   0  0  0  0  0  0  0  0  0  0  0  0
  -21.8510  -28.9580   22.2700 N   0  0  0  0  0  0  0  0  0  0  0  0
  -23.8660  -28.7230   23.2710 O   0  0  0  0  0  0  0  0  0  0  0  0
  -21.3230  -29.4790   21.5840 H   0  0  0  0  0  0  0  0  0  0  0  0
  -18.6310  -27.3450   22.6070 C   0  0  0  0  0  0  0  0  0  0  0  0
  -21.1270  -27.9020   22.9790 C   0  0  0  0  0  3  0  0  0  0  0  0
  -21.4250  -26.5180   22.3580 C   0  0  0  0  0  2  0  0  0  0  0  0
  -20.4010  -26.0960   21.3010 C   0  0  0  0  0  2  0  0  0  0  0  0
  -18.9950  -26.0460   21.9080 C   0  0  0  0  0  2  0  0  0  0  0  0
  -19.6330  -28.2220   23.0990 C   0  0  0  0  0  0  0  0  0  0  0  0
  -19.2400  -29.4300   23.7160 C   0  0  0  0  0  3  0  0  0  0  0  0
  -17.8790  -29.7670   23.8400 C   0  0  0  0  0  3  0  0  0  0  0  0
  -16.8910  -28.8890   23.3610 C   0  0  0  0  0  3  0  0  0  0  0  0
  -17.2670  -27.6770   22.7520 C   0  0  0  0  0  3  0  0  0  0  0  0
  -25.9690  -32.5580   23.9350 C   0  0  0  0  0  3  0  0  0  0  0  0
  -26.4810  -31.8370   25.2420 C   0  0  1  0  0  0  0  0  0  0  0  0
  -25.3620  -31.5370   26.2650 C   0  0  0  0  0  1  0  0  0  0  0  0
  -27.1750  -30.5000   24.8920 C   0  0  0  0  0  1  0  0  0  0  0  0
  -27.5460  -32.7160   25.9410 C   0  0  0  0  0  1  0  0  0  0  0  0
  -25.5640  -33.9390   24.2280 N   0  0  0  0  0  0  0  0  0  0  0  0
  -25.8610  -34.9960   23.4610 C   0  0  0  0  0  0  0  0  0  0  0  0
  -26.5790  -34.9180   22.4600 O   0  0  0  0  0  0  0  0  0  0  0  0
  -24.9310  -34.0720   25.0040 H   0  0  0  0  0  0  0  0  0  0  0  0
  -24.0450  -36.6700   22.9970 C   0  0  0  0  0  1  0  0  0  0  0  0
  -25.2710  -36.3590   23.8690 C   0  0  0  0  0  3  0  0  0  0  0  0
  -27.3140  -37.3840   24.7670 C   0  0  0  0  0  1  0  0  0  0  0  0
  -26.2420  -37.4720   23.7780 N   0  0  0  0  0  0  0  0  0  0  0  0
  -25.7750  -38.3670   23.8920 H   0  0  0  0  0  0  0  0  0  0  0  0
  1  2  1  0
  1  3  1  0
  4  6  1  0
  5  4  1  0
  6  7  1  0
  6  1  1  0
  7  8  1  0
  9  5  1  0
  9  7  1  0
 10 16  1  0
 10 23  1  0
 11 16  1  0
 12 13  1  0
 12 11  1  0
 14 13  1  0
 14 27  1  0
 14 15  1  0
 16 15  1  0
 17 10  2  0
 20 18  1  0
 21 19  1  0
 21 23  1  0
 22 19  1  0
 22  9  1  0
 22 18  1  0
 23 20  1  0
 24 25  2  0
 25 44  1  0
 26 25  1  0
 26 29  1  0
 27 28  1  0
 27 24  1  0
 28 26  2  0
 29 30  1  0
 30 31  2  0
 32 35  1  0
 32 31  1  0
 33 32  2  0
 34 33  1  0
 34 29  2  0
 35 36  1  0
 36 41  2  0
 36 37  1  0
 37 38  2  0
 38 39  1  0
 39 43  1  0
 40 39  2  0
 41 40  1  0
 42 41  1  0
 44 45  1  0
 45 48  1  0
 45 47  1  0
 46 44  2  0
 49 24  1  0
 49 50  1  0
 51 49  1  0
 53 52  1  0
 53  1  1  0
 55 53  1  0
 55 54  1  0
 56 57  1  0
 56 55  1  0
 56 54  1  0
 57 59  1  0
 58 69  2  0
 59 64  1  0
 60 68  1  0
 60 70  1  0
 61 67  1  0
 61 63  1  0
 62 68  1  0
 63 62  1  0
 64 63  2  0
 65 66  1  0
 65 59  2  0
 66 61  2  0
 67 60  1  0
 68 58  1  0
 70 72  2  0
 71 70  1  0
 73 71  1  0
 74 83  2  0
 74 79  1  0
 75 71  1  0
 75 79  1  0
 76 75  1  0
 77 78  1  0
 77 76  1  0
 78 74  1  0
 79 80  2  0
 80 81  1  0
 82 81  2  0
 83 82  1  0
 84 58  1  0
 84 89  1  0
 84 85  1  0
 85 88  1  1
 85 86  1  0
 87 85  1  0
 89 92  1  0
 90 94  1  0
 90 89  1  0
 91 90  2  0
 94 93  1  0
 96 94  1  0
 96 97  1  0
 96 95  1  0
M  ISO  4  10 100  23 100  56 101  57 101
M  END
>  <TORSDO>  (21) 
F 19

>  <SCORE>  (21) 
-10.644

>  <name>  (21) 
20

>  <ligand_id>  (21) 
20

>  <original_smiles>  (21) 
[H]c1c([H])c([H])c2c(c1[H])C([H])([H])C([H])([H])C([H])([H])C2([H])N([H])C(=O)C1([H])N(C(=O)C([H])(N([H])C(=O)C([H])(N([H])C([H])([H])[H])C([H])([H])[H])C(C([H])([H])[H])(C([H])([H])[H])C([H])([H])[H])C([H])([H])c2c([H])c(OC3([H])C([H])([H])C3([H])C([H])(C([H])([H])[H])[N+]([H])([H])C3([H])C([H])([H])C([H])([H])N(C4([H])C([H])([H])C([H])([H])N(C(=O)N5C([H])([H])C([H])([H])C([H])([H])C([H])(n6nc(-c7c([H])c([H])c(Oc8c([H])c([H])c(F)c([H])c8F)c([H])c7[H])c(C(=O)N([H])[H])c6N([H])[H])C5([H])[H])C([H])([H])C4([H])[H])C3([H])C([H])([H])[H])c([H])c([H])c2C1([H])[H]

>  <smiles>  (21) 
[H]c1c([H])c([H])c2c(c1[H])C([H])([H])C([H])([H])C([H])([H])C2([H])N([H])C(=O)C1([H])N(C(=O)C([H])(N([H])C(=O)C([H])(N([H])C([H])([H])[H])C([H])([H])[H])C(C([H])([H])[H])(C([H])([H])[H])C([H])([H])[H])C([H])([H])c2c([H])c(OC3([H])C([H])([H])C3([H])C([H])(C([H])([H])[H])[N+]([H])([H])C3([H])C([H])([H])C([H])([H])N(C4([H])C([H])([H])C([H])([H])N(C(=O)N5C([H])([H])C([H])([H])C([H])([H])C([H])(n6nc(-c7c([H])c([H])c(Oc8c([H])c([H])c(F)c([H])c8F)c([H])c7[H])c(C(=O)N([H])[H])c6N([H])[H])C5([H])[H])C([H])([H])C4([H])[H])C3([H])C([H])([H])[H])c([H])c([H])c2C1([H])[H]

$$$$
21:0:0
     RDKit          3D

 94103  0  0  1  0  0  0  0  0999 V2000
  -30.9920  -20.9130   21.1540 C   0  0  0  0  0  3  0  0  0  0  0  0
  -28.6050  -21.0010   19.6820 C   0  0  0  0  0  3  0  0  0  0  0  0
  -30.3970  -19.7010   20.7400 C   0  0  0  0  0  0  0  0  0  0  0  0
  -29.2110  -19.7310   20.0280 C   0  0  0  0  0  0  0  0  0  0  0  0
  -30.4130  -22.1750   20.8130 C   0  0  0  0  0  0  0  0  0  0  0  0
  -29.2030  -22.2730   20.0530 C   0  0  0  0  0  0  0  0  0  0  0  0
  -30.9250  -18.2640   20.9250 C   0  0  0  0  0  2  0  0  0  0  0  0
  -28.7970  -18.2560   19.7250 C   0  0  2  0  0  0  0  0  0  0  0  0
  -30.1480  -17.3700   19.8850 C   0  0  1  0  0  0  0  0  0  0  0  0
  -31.1680  -23.4230   21.2410 C   0  0  0  0  0  1  0  0  0  0  0  0
  -28.1110  -18.1270   18.3490 C   0  0  0  0  0  1  0  0  0  0  0  0
  -27.7750  -17.8370   20.8030 C   0  0  0  0  0  1  0  0  0  0  0  0
  -30.9390  -17.4350   18.5500 C   0  0  0  0  0  1  0  0  0  0  0  0
  -30.7530  -14.7440   19.9990 C   0  0  0  0  0  0  0  0  0  0  0  0
  -30.4820  -12.4960   18.9460 C   0  0  0  0  0  2  0  0  0  0  0  0
  -29.4820  -12.6200   17.7740 C   0  0  0  0  0  2  0  0  0  0  0  0
  -28.0340  -12.4570   18.2740 C   0  0  0  0  0  2  0  0  0  0  0  0
  -27.7370  -13.3110   19.5360 C   0  0  0  0  0  3  0  0  0  0  0  0
  -28.8490  -13.1710   20.5990 C   0  0  0  0  0  2  0  0  0  0  0  0
  -30.1170  -13.5230   19.9510 N   0  0  0  0  0  0  0  0  0  0  0  0
  -31.9230  -14.8310   19.6200 O   0  0  0  0  0  0  0  0  0  0  0  0
  -29.9760  -15.8760   20.2450 N   0  0  0  0  0  0  0  0  0  0  0  0
  -29.0540  -15.6520   20.5820 H   0  0  0  0  0  0  0  0  0  0  0  0
  -25.3940  -13.9130   20.3860 C   0  0  0  0  0  0  0  0  0  0  0  0
  -24.3420  -13.1460   20.8020 C   0  0  0  0  0  0  0  0  0  0  0  0
  -24.7880  -11.7910   20.7290 C   0  0  0  0  0  0  0  0  0  0  0  0
  -26.4160  -13.0280   20.0880 N   0  0  0  0  0  0  0  0  0  0  0  0
  -26.0620  -11.7440   20.3560 N   0  0  0  0  0  0  0  0  0  0  0  0
  -24.0580  -10.5340   20.9360 C   0  0  0  0  0  0  0  0  0  0  0  0
  -24.5030   -9.5630   21.8610 C   0  0  0  0  0  3  0  0  0  0  0  0
  -23.7710   -8.3720   22.0560 C   0  0  0  0  0  3  0  0  0  0  0  0
  -22.5820   -8.1430   21.3260 C   0  0  0  0  0  0  0  0  0  0  0  0
  -22.1560   -9.1010   20.3890 C   0  0  0  0  0  3  0  0  0  0  0  0
  -22.8870  -10.2830   20.1930 C   0  0  0  0  0  3  0  0  0  0  0  0
  -21.8220   -7.0020   21.4300 O   0  0  0  0  0  0  0  0  0  0  0  0
  -21.7590   -6.2830   22.5960 C   0  0  0  0  0  0  0  0  0  0  0  0
  -21.3210   -6.8620   23.8060 C   0  0  0  0  0  3  0  0  0  0  0  0
  -21.2050   -6.0690   24.9660 C   0  0  0  0  0  3  0  0  0  0  0  0
  -21.5180   -4.6980   24.9160 C   0  0  0  0  0  0  0  0  0  0  0  0
  -21.9500   -4.1180   23.7100 C   0  0  0  0  0  3  0  0  0  0  0  0
  -22.0670   -4.9070   22.5530 C   0  0  0  0  0  0  0  0  0  0  0  0
  -22.4630   -4.3400   21.3880 F   0  0  0  0  0  0  0  0  0  0  0  0
  -21.4000   -3.9340   26.0270 F   0  0  0  0  0  0  0  0  0  0  0  0
  -22.9650  -13.6340   21.1500 C   0  0  0  0  0  0  0  0  0  0  0  0
  -22.2760  -12.9400   22.0480 N   0  0  0  0  0  0  0  0  0  0  0  0
  -22.5120  -14.6670   20.6600 O   0  0  0  0  0  0  0  0  0  0  0  0
  -22.6570  -12.1060   22.4680 H   0  0  0  0  0  0  0  0  0  0  0  0
  -21.3530  -13.2520   22.3200 H   0  0  0  0  0  0  0  0  0  0  0  0
  -25.5580  -15.2830   20.2100 N   0  0  0  0  0  0  0  0  0  0  0  0
  -24.7960  -15.9350   20.3540 H   0  0  0  0  0  0  0  0  0  0  0  0
  -26.3670  -15.7100   19.7820 H   0  0  0  0  0  0  0  0  0  0  0  0
  -28.6980  -23.6880   19.4740 C   0  0  0  0  0  2  0  0  0  0  0  0
  -28.2320  -24.9510   20.3770 C   0  0  0  0  0  2  0  0  0  0  0  0
  -28.3270  -26.3670   19.8750 O   0  0  0  0  0  0  0  0  0  0  0  0
  -24.6010  -31.7230   23.0710 C   0  0  0  0  0  0  0  0  0  0  0  0
  -27.2050  -27.2200   19.9060 C   0  0  0  0  0  0  0  0  0  0  0  0
  -23.3900  -30.3550   21.4090 C   0  0  0  0  0  3  0  0  0  0  0  0
  -24.8380  -28.8400   19.9350 C   0  0  0  0  0  0  0  0  0  0  0  0
  -25.9260  -30.6910   21.2080 C   0  0  0  0  0  2  0  0  0  0  0  0
  -26.0100  -29.3220   20.5300 C   0  0  0  0  0  0  0  0  0  0  0  0
  -27.2010  -28.5270   20.4970 C   0  0  0  0  0  3  0  0  0  0  0  0
  -26.0110  -26.7940   19.2920 C   0  0  0  0  0  3  0  0  0  0  0  0
  -24.8430  -27.5850   19.3020 C   0  0  0  0  0  3  0  0  0  0  0  0
  -23.5970  -29.7100   20.0120 C   0  0  0  0  0  2  0  0  0  0  0  0
  -24.6590  -30.9400   21.9520 N   0  0  0  0  0  0  0  0  0  0  0  0
  -23.5210  -31.9810   23.6220 O   0  0  0  0  0  0  0  0  0  0  0  0
  -22.7410  -29.3130   22.3520 C   0  0  0  0  0  0  0  0  0  0  0  0
  -21.4100  -29.1550   22.2570 N   0  0  0  0  0  0  0  0  0  0  0  0
  -23.4340  -28.6530   23.1310 O   0  0  0  0  0  0  0  0  0  0  0  0
  -20.9080  -29.7420   21.6040 H   0  0  0  0  0  0  0  0  0  0  0  0
  -18.0320  -27.9950   22.8330 C   0  0  0  0  0  0  0  0  0  0  0  0
  -20.6030  -28.2000   23.0180 C   0  0  0  0  0  3  0  0  0  0  0  0
  -20.6550  -26.7920   22.3780 C   0  0  0  0  0  2  0  0  0  0  0  0
  -19.5110  -26.5330   21.3930 C   0  0  0  0  0  2  0  0  0  0  0  0
  -18.1580  -26.6750   22.0940 C   0  0  0  0  0  2  0  0  0  0  0  0
  -19.1790  -28.7200   23.2530 C   0  0  0  0  0  0  0  0  0  0  0  0
  -19.0050  -29.9580   23.9080 C   0  0  0  0  0  3  0  0  0  0  0  0
  -17.7160  -30.4710   24.1460 C   0  0  0  0  0  3  0  0  0  0  0  0
  -16.5840  -29.7440   23.7400 C   0  0  0  0  0  3  0  0  0  0  0  0
  -16.7430  -28.5070   23.0900 C   0  0  0  0  0  3  0  0  0  0  0  0
  -25.8860  -32.3500   23.6970 C   0  0  0  0  0  3  0  0  0  0  0  0
  -25.5660  -33.7310   24.0840 N   0  0  0  0  0  0  0  0  0  0  0  0
  -25.8760  -34.8160   23.3620 C   0  0  0  0  0  0  0  0  0  0  0  0
  -26.5310  -34.7590   22.3170 O   0  0  0  0  0  0  0  0  0  0  0  0
  -24.9830  -33.8500   24.9010 H   0  0  0  0  0  0  0  0  0  0  0  0
  -24.1290  -36.6070   23.0920 C   0  0  0  0  0  1  0  0  0  0  0  0
  -25.3810  -36.1810   23.8760 C   0  0  0  0  0  3  0  0  0  0  0  0
  -27.5130  -37.0530   24.7250 C   0  0  0  0  0  1  0  0  0  0  0  0
  -26.4020  -37.2480   23.7970 N   0  0  0  0  0  0  0  0  0  0  0  0
  -25.9870  -38.1570   23.9870 H   0  0  0  0  0  0  0  0  0  0  0  0
  -26.4300  -31.5400   24.9380 C   0  0  1  0  0  0  0  0  0  0  0  0
  -25.3570  -31.2560   26.0150 C   0  0  0  0  0  1  0  0  0  0  0  0
  -27.0190  -30.1810   24.4910 C   0  0  0  0  0  1  0  0  0  0  0  0
  -27.5840  -32.3220   25.6090 C   0  0  0  0  0  1  0  0  0  0  0  0
  2  4  2  0
  2  6  1  0
  3  7  1  0
  3  1  2  0
  4  3  1  0
  5  1  1  0
  5 10  1  0
  6  5  2  0
  8  9  1  0
  8  4  1  0
  8 12  1  1
  9 13  1  6
  9 22  1  0
  9  7  1  0
 11  8  1  0
 14 22  1  0
 15 20  1  0
 16 17  1  0
 16 15  1  0
 18 17  1  0
 18 27  1  0
 18 19  1  0
 20 14  1  0
 20 19  1  0
 21 14  2  0
 22 23  1  0
 24 25  2  0
 25 44  1  0
 26 25  1  0
 26 29  1  0
 27 28  1  0
 27 24  1  0
 28 26  2  0
 29 30  1  0
 30 31  2  0
 32 35  1  0
 32 31  1  0
 33 32  2  0
 34 33  1  0
 34 29  2  0
 35 36  1  0
 36 37  1  0
 37 38  2  0
 39 38  1  0
 39 43  1  0
 40 39  2  0
 41 36  2  0
 41 40  1  0
 42 41  1  0
 44 45  1  0
 45 48  1  0
 45 47  1  0
 46 44  2  0
 49 50  1  0
 49 24  1  0
 51 49  1  0
 52  6  1  0
 52 53  1  0
 54 56  1  0
 54 53  1  0
 55 66  2  0
 56 61  1  0
 57 65  1  0
 57 67  1  0
 58 64  1  0
 58 60  1  0
 59 65  1  0
 60 59  1  0
 61 60  2  0
 62 63  1  0
 62 56  2  0
 63 58  2  0
 64 57  1  0
 65 55  1  0
 67 69  2  0
 68 67  1  0
 70 68  1  0
 71 80  2  0
 71 76  1  0
 72 68  1  0
 72 76  1  0
 73 72  1  0
 74 75  1  0
 74 73  1  0
 75 71  1  0
 76 77  2  0
 77 78  1  0
 79 78  2  0
 80 79  1  0
 81 55  1  0
 81 82  1  0
 81 91  1  0
 82 85  1  0
 83 87  1  0
 83 82  1  0
 84 83  2  0
 87 86  1  0
 89 87  1  0
 89 90  1  0
 89 88  1  0
 91 94  1  1
 91 92  1  0
 93 91  1  0
M  ISO  4  14 100  22 100  53 101  54 101
M  END
>  <TORSDO>  (22) 
F 18

>  <SCORE>  (22) 
-14.321

>  <name>  (22) 
21

>  <ligand_id>  (22) 
21

>  <original_smiles>  (22) 
[H]c1c([H])c([H])c2c(c1[H])C([H])([H])C([H])([H])C([H])([H])C2([H])N([H])C(=O)C1([H])N(C(=O)C([H])(N([H])C(=O)C([H])(N([H])C([H])([H])[H])C([H])([H])[H])C(C([H])([H])[H])(C([H])([H])[H])C([H])([H])[H])C([H])([H])c2c([H])c(OC([H])([H])C([H])([H])c3c([H])c4c(c([H])c3C([H])([H])[H])C([H])([H])C(N([H])C(=O)N3C([H])([H])C([H])([H])C([H])([H])C([H])(n5nc(-c6c([H])c([H])c(Oc7c([H])c([H])c(F)c([H])c7F)c([H])c6[H])c(C(=O)N([H])[H])c5N([H])[H])C3([H])[H])(C([H])([H])[H])C4(C([H])([H])[H])C([H])([H])[H])c([H])c([H])c2C1([H])[H]

>  <smiles>  (22) 
[H]c1c([H])c([H])c2c(c1[H])C([H])([H])C([H])([H])C([H])([H])C2([H])N([H])C(=O)C1([H])N(C(=O)C([H])(N([H])C(=O)C([H])(N([H])C([H])([H])[H])C([H])([H])[H])C(C([H])([H])[H])(C([H])([H])[H])C([H])([H])[H])C([H])([H])c2c([H])c(OC([H])([H])C([H])([H])c3c([H])c4c(c([H])c3C([H])([H])[H])C([H])([H])C(N([H])C(=O)N3C([H])([H])C([H])([H])C([H])([H])C([H])(n5nc(-c6c([H])c([H])c(Oc7c([H])c([H])c(F)c([H])c7F)c([H])c6[H])c(C(=O)N([H])[H])c5N([H])[H])C3([H])[H])(C([H])([H])[H])C4(C([H])([H])[H])C([H])([H])[H])c([H])c([H])c2C1([H])[H]

$$$$
22:0:0
     RDKit          3D

 97106  0  0  1  0  0  0  0  0999 V2000
  -29.0260  -20.9270   21.3660 C   0  0  0  0  0  3  0  0  0  0  0  0
  -28.9160  -20.2120   19.0280 C   0  0  0  0  0  3  0  0  0  0  0  0
  -29.2130  -22.2520   20.9200 C   0  0  0  0  0  0  0  0  0  0  0  0
  -29.2490  -22.5540   19.5680 C   0  0  0  0  0  0  0  0  0  0  0  0
  -29.0850  -21.5480   18.5930 C   0  0  0  0  0  0  0  0  0  0  0  0
  -28.9010  -19.8930   20.4100 C   0  0  0  0  0  0  0  0  0  0  0  0
  -29.4910  -24.0240   19.3370 C   0  0  0  0  0  2  0  0  0  0  0  0
  -29.4600  -23.4640   21.7960 C   0  0  2  0  0  0  0  0  0  0  0  0
  -29.5110  -24.6790   20.7540 C   0  0  1  0  0  0  0  0  0  0  0  0
  -29.0820  -21.8880   17.1110 C   0  0  0  0  0  1  0  0  0  0  0  0
  -30.8020  -23.2130   22.5250 C   0  0  0  0  0  1  0  0  0  0  0  0
  -28.3660  -23.5860   22.8840 C   0  0  0  0  0  1  0  0  0  0  0  0
  -30.7740  -25.5670   20.9210 C   0  0  0  0  0  1  0  0  0  0  0  0
  -28.7690  -18.5790   20.8780 N   0  0  0  0  0  0  0  0  0  0  0  0
  -28.7400  -18.4740   21.8890 H   0  0  0  0  0  0  0  0  0  0  0  0
  -29.4500  -17.5050   20.1670 C   0  0  0  0  0  2  0  0  0  0  0  0
  -30.4460  -16.7620   21.0820 C   0  0  0  0  0  2  0  0  0  0  0  0
  -30.8190  -14.4690   20.1480 C   0  0  0  0  0  0  0  0  0  0  0  0
  -30.4560  -12.3580   18.9230 C   0  0  0  0  0  2  0  0  0  0  0  0
  -29.4400  -12.5910   17.7840 C   0  0  0  0  0  2  0  0  0  0  0  0
  -27.9920  -12.4520   18.2960 C   0  0  0  0  0  2  0  0  0  0  0  0
  -27.7360  -13.2660   19.5960 C   0  0  0  0  0  3  0  0  0  0  0  0
  -28.8460  -12.9800   20.6310 C   0  0  0  0  0  2  0  0  0  0  0  0
  -30.1470  -13.2980   20.0070 N   0  0  0  0  0  0  0  0  0  0  0  0
  -31.8360  -14.7590   19.5080 O   0  0  0  0  0  0  0  0  0  0  0  0
  -30.2290  -15.3280   20.9850 N   0  0  0  0  0  0  0  0  0  0  0  0
  -29.4380  -14.9630   21.4950 H   0  0  0  0  0  0  0  0  0  0  0  0
  -25.3920  -13.8850   20.4740 C   0  0  0  0  0  0  0  0  0  0  0  0
  -24.3360  -13.1170   20.8860 C   0  0  0  0  0  0  0  0  0  0  0  0
  -24.7720  -11.7610   20.7790 C   0  0  0  0  0  0  0  0  0  0  0  0
  -26.4060  -12.9970   20.1470 N   0  0  0  0  0  0  0  0  0  0  0  0
  -26.0370  -11.7130   20.3820 N   0  0  0  0  0  0  0  0  0  0  0  0
  -24.0410  -10.5030   20.9760 C   0  0  0  0  0  0  0  0  0  0  0  0
  -24.4850   -9.5280   21.8970 C   0  0  0  0  0  3  0  0  0  0  0  0
  -23.7570   -8.3330   22.0800 C   0  0  0  0  0  3  0  0  0  0  0  0
  -22.5710   -8.1030   21.3400 C   0  0  0  0  0  0  0  0  0  0  0  0
  -22.1460   -9.0650   20.4080 C   0  0  0  0  0  3  0  0  0  0  0  0
  -22.8760  -10.2520   20.2220 C   0  0  0  0  0  3  0  0  0  0  0  0
  -21.8150   -6.9580   21.4320 O   0  0  0  0  0  0  0  0  0  0  0  0
  -21.7360   -6.2370   22.5980 C   0  0  0  0  0  0  0  0  0  0  0  0
  -21.2360   -6.8020   23.7900 C   0  0  0  0  0  3  0  0  0  0  0  0
  -21.1070   -6.0060   24.9460 C   0  0  0  0  0  3  0  0  0  0  0  0
  -21.4710   -4.6480   24.9100 C   0  0  0  0  0  0  0  0  0  0  0  0
  -21.9660   -4.0820   23.7230 C   0  0  0  0  0  3  0  0  0  0  0  0
  -22.0940   -4.8740   22.5690 C   0  0  0  0  0  0  0  0  0  0  0  0
  -22.5500   -4.3200   21.4200 F   0  0  0  0  0  0  0  0  0  0  0  0
  -21.3440   -3.8830   26.0190 F   0  0  0  0  0  0  0  0  0  0  0  0
  -22.9680  -13.6030   21.2740 C   0  0  0  0  0  0  0  0  0  0  0  0
  -22.2860  -12.8760   22.1530 N   0  0  0  0  0  0  0  0  0  0  0  0
  -22.5120  -14.6570   20.8300 O   0  0  0  0  0  0  0  0  0  0  0  0
  -22.6690  -12.0230   22.5330 H   0  0  0  0  0  0  0  0  0  0  0  0
  -21.3690  -13.1740   22.4530 H   0  0  0  0  0  0  0  0  0  0  0  0
  -25.5760  -15.2560   20.3350 N   0  0  0  0  0  0  0  0  0  0  0  0
  -24.8520  -15.9370   20.5300 H   0  0  0  0  0  0  0  0  0  0  0  0
  -26.4440  -15.6790   20.0300 H   0  0  0  0  0  0  0  0  0  0  0  0
  -28.2870  -25.6290   20.8590 C   0  0  0  0  0  2  0  0  0  0  0  0
  -28.3900  -26.7550   19.9790 O   0  0  0  0  0  0  0  0  0  0  0  0
  -24.5960  -31.8450   23.1660 C   0  0  0  0  0  0  0  0  0  0  0  0
  -27.2510  -27.5120   19.9750 C   0  0  0  0  0  0  0  0  0  0  0  0
  -23.4000  -30.4870   21.4790 C   0  0  0  0  0  3  0  0  0  0  0  0
  -24.8610  -28.9970   20.0160 C   0  0  0  0  0  0  0  0  0  0  0  0
  -25.9240  -30.8630   21.3030 C   0  0  0  0  0  2  0  0  0  0  0  0
  -26.0140  -29.5130   20.6230 C   0  0  0  0  0  0  0  0  0  0  0  0
  -27.2190  -28.7760   20.6010 C   0  0  0  0  0  3  0  0  0  0  0  0
  -26.0890  -27.0060   19.3590 C   0  0  0  0  0  3  0  0  0  0  0  0
  -24.8920  -27.7440   19.3810 C   0  0  0  0  0  3  0  0  0  0  0  0
  -23.6160  -29.8490   20.0810 C   0  0  0  0  0  2  0  0  0  0  0  0
  -24.6580  -31.0760   22.0420 N   0  0  0  0  0  0  0  0  0  0  0  0
  -23.5110  -32.0990   23.7080 O   0  0  0  0  0  0  0  0  0  0  0  0
  -22.7470  -29.4370   22.4050 C   0  0  0  0  0  0  0  0  0  0  0  0
  -21.4190  -29.2750   22.2850 N   0  0  0  0  0  0  0  0  0  0  0  0
  -23.4310  -28.7720   23.1880 O   0  0  0  0  0  0  0  0  0  0  0  0
  -20.9290  -29.8640   21.6260 H   0  0  0  0  0  0  0  0  0  0  0  0
  -18.0290  -28.1420   22.8050 C   0  0  0  0  0  0  0  0  0  0  0  0
  -20.5980  -28.3190   23.0270 C   0  0  0  0  0  3  0  0  0  0  0  0
  -20.6480  -26.9180   22.3780 C   0  0  0  0  0  2  0  0  0  0  0  0
  -19.5150  -26.6770   21.3760 C   0  0  0  0  0  2  0  0  0  0  0  0
  -18.1530  -26.8250   22.0590 C   0  0  0  0  0  2  0  0  0  0  0  0
  -19.1780  -28.8530   23.2470 C   0  0  0  0  0  0  0  0  0  0  0  0
  -19.0070  -30.0890   23.9040 C   0  0  0  0  0  3  0  0  0  0  0  0
  -17.7210  -30.6160   24.1250 C   0  0  0  0  0  3  0  0  0  0  0  0
  -16.5880  -29.9020   23.7000 C   0  0  0  0  0  3  0  0  0  0  0  0
  -16.7420  -28.6670   23.0480 C   0  0  0  0  0  3  0  0  0  0  0  0
  -25.8780  -32.4590   23.8080 C   0  0  0  0  0  3  0  0  0  0  0  0
  -26.3770  -31.6690   25.0800 C   0  0  1  0  0  0  0  0  0  0  0  0
  -25.2700  -31.4210   26.1310 C   0  0  0  0  0  1  0  0  0  0  0  0
  -26.9610  -30.2950   24.6730 C   0  0  0  0  0  1  0  0  0  0  0  0
  -27.5220  -32.4510   25.7670 C   0  0  0  0  0  1  0  0  0  0  0  0
  -25.5750  -33.8550   24.1500 N   0  0  0  0  0  0  0  0  0  0  0  0
  -25.9290  -34.9120   23.4070 C   0  0  0  0  0  0  0  0  0  0  0  0
  -26.6120  -34.8150   22.3840 O   0  0  0  0  0  0  0  0  0  0  0  0
  -24.9700  -34.0060   24.9430 H   0  0  0  0  0  0  0  0  0  0  0  0
  -24.2310  -36.7280   23.0290 C   0  0  0  0  0  1  0  0  0  0  0  0
  -25.4440  -36.2990   23.8700 C   0  0  0  0  0  3  0  0  0  0  0  0
  -27.5580  -37.1520   24.7800 C   0  0  0  0  0  1  0  0  0  0  0  0
  -26.4900  -37.3420   23.8030 N   0  0  0  0  0  0  0  0  0  0  0  0
  -26.0900  -38.2650   23.9450 H   0  0  0  0  0  0  0  0  0  0  0  0
  2  6  1  0
  3  1  1  0
  3  8  1  0
  4  3  2  0
  5  2  2  0
  5  4  1  0
  6 14  1  0
  6  1  2  0
  7  4  1  0
  7  9  1  0
  8 11  1  1
  8 12  1  0
  9 56  1  0
  9 13  1  1
  9  8  1  0
 10  5  1  0
 14 15  1  0
 16 14  1  0
 16 17  1  0
 18 26  1  0
 19 24  1  0
 20 21  1  0
 20 19  1  0
 22 21  1  0
 22 31  1  0
 22 23  1  0
 24 18  1  0
 24 23  1  0
 25 18  2  0
 26 17  1  0
 26 27  1  0
 28 29  2  0
 29 48  1  0
 30 29  1  0
 30 33  1  0
 31 32  1  0
 31 28  1  0
 32 30  2  0
 33 34  1  0
 34 35  2  0
 36 39  1  0
 36 35  1  0
 37 36  2  0
 38 37  1  0
 38 33  2  0
 39 40  1  0
 40 41  1  0
 41 42  2  0
 43 42  1  0
 43 47  1  0
 44 43  2  0
 45 40  2  0
 45 44  1  0
 46 45  1  0
 48 49  1  0
 49 52  1  0
 49 51  1  0
 50 48  2  0
 53 28  1  0
 53 54  1  0
 55 53  1  0
 57 56  1  0
 58 69  2  0
 59 57  1  0
 59 64  1  0
 60 68  1  0
 60 70  1  0
 61 67  1  0
 61 63  1  0
 62 68  1  0
 63 62  1  0
 64 63  2  0
 65 66  1  0
 65 59  2  0
 66 61  2  0
 67 60  1  0
 68 58  1  0
 70 72  2  0
 71 70  1  0
 73 71  1  0
 74 83  2  0
 74 79  1  0
 75 71  1  0
 75 79  1  0
 76 75  1  0
 77 78  1  0
 77 76  1  0
 78 74  1  0
 79 80  2  0
 80 81  1  0
 82 81  2  0
 83 82  1  0
 84 58  1  0
 84 89  1  0
 84 85  1  0
 85 88  1  1
 85 86  1  0
 87 85  1  0
 89 92  1  0
 90 94  1  0
 90 89  1  0
 91 90  2  0
 94 93  1  0
 96 94  1  0
 96 97  1  0
 96 95  1  0
M  ISO  4  18 100  26 100  56 101  57 101
M  END
>  <TORSDO>  (23) 
F 20

>  <SCORE>  (23) 
-13.206

>  <name>  (23) 
22

>  <ligand_id>  (23) 
22

>  <original_smiles>  (23) 
[H]c1c([H])c([H])c2c(c1[H])C([H])([H])C([H])([H])C([H])([H])C2([H])N([H])C(=O)C1([H])N(C(=O)C([H])(N([H])C(=O)C([H])(N([H])C([H])([H])[H])C([H])([H])[H])C(C([H])([H])[H])(C([H])([H])[H])C([H])([H])[H])C([H])([H])c2c([H])c(OC([H])([H])C3(C([H])([H])[H])C([H])([H])c4c(C([H])([H])[H])c([H])c(N([H])C([H])([H])C([H])([H])N([H])C(=O)N5C([H])([H])C([H])([H])C([H])([H])C([H])(n6nc(-c7c([H])c([H])c(Oc8c([H])c([H])c(F)c([H])c8F)c([H])c7[H])c(C(=O)N([H])[H])c6N([H])[H])C5([H])[H])c([H])c4C3(C([H])([H])[H])C([H])([H])[H])c([H])c([H])c2C1([H])[H]

>  <smiles>  (23) 
[H]c1c([H])c([H])c2c(c1[H])C([H])([H])C([H])([H])C([H])([H])C2([H])N([H])C(=O)C1([H])N(C(=O)C([H])(N([H])C(=O)C([H])(N([H])C([H])([H])[H])C([H])([H])[H])C(C([H])([H])[H])(C([H])([H])[H])C([H])([H])[H])C([H])([H])c2c([H])c(OC([H])([H])C3(C([H])([H])[H])C([H])([H])c4c(C([H])([H])[H])c([H])c(N([H])C([H])([H])C([H])([H])N([H])C(=O)N5C([H])([H])C([H])([H])C([H])([H])C([H])(n6nc(-c7c([H])c([H])c(Oc8c([H])c([H])c(F)c([H])c8F)c([H])c7[H])c(C(=O)N([H])[H])c6N([H])[H])C5([H])[H])c([H])c4C3(C([H])([H])[H])C([H])([H])[H])c([H])c([H])c2C1([H])[H]

$$$$
23:0:0
     RDKit          3D

 96105  0  0  1  0  0  0  0  0999 V2000
  -30.8420  -21.5080   21.1030 C   0  0  0  0  0  2  0  0  0  0  0  0
  -29.5110  -21.9350   20.4890 C   0  0  0  0  0  3  0  0  0  0  0  0
  -31.1050  -20.1000   20.5360 C   0  0  0  0  0  3  0  0  0  0  0  0
  -28.7190  -20.6050   20.5310 C   0  0  0  0  0  3  0  0  0  0  0  0
  -31.8740  -20.1810   19.2050 C   0  0  0  0  0  1  0  0  0  0  0  0
  -27.5920  -20.5770   19.4840 C   0  0  0  0  0  1  0  0  0  0  0  0
  -29.7540  -19.5660   20.3430 N   0  0  0  0  0  0  0  0  0  0  0  0
  -30.6370  -14.6400   20.3860 C   0  0  0  0  0  0  0  0  0  0  0  0
  -30.3820  -12.4180   19.3590 C   0  0  0  0  0  2  0  0  0  0  0  0
  -29.4380  -12.5320   18.1420 C   0  0  0  0  0  2  0  0  0  0  0  0
  -27.9620  -12.4060   18.5670 C   0  0  0  0  0  2  0  0  0  0  0  0
  -27.6020  -13.2710   19.8050 C   0  0  0  0  0  3  0  0  0  0  0  0
  -28.6680  -13.1570   20.9190 C   0  0  0  0  0  2  0  0  0  0  0  0
  -29.9790  -13.4490   20.3230 N   0  0  0  0  0  0  0  0  0  0  0  0
  -31.8540  -14.7360   20.1960 O   0  0  0  0  0  0  0  0  0  0  0  0
  -29.4980  -16.1350   18.8790 C   0  0  0  0  0  2  0  0  0  0  0  0
  -30.0790  -17.0300   20.9780 C   0  0  0  0  0  2  0  0  0  0  0  0
  -29.7780  -17.6210   18.7210 C   0  0  0  0  0  3  0  0  0  0  0  0
  -29.4220  -18.1370   20.1070 C   0  0  0  0  0  3  0  0  0  0  0  0
  -29.0320  -18.2380   17.5320 C   0  0  0  0  0  1  0  0  0  0  0  0
  -29.8510  -15.7470   20.2600 N   0  0  0  0  0  0  0  0  0  0  0  0
  -25.2110  -13.8880   20.5030 C   0  0  0  0  0  0  0  0  0  0  0  0
  -24.1410  -13.1170   20.8670 C   0  0  0  0  0  0  0  0  0  0  0  0
  -24.6050  -11.7650   20.8470 C   0  0  0  0  0  0  0  0  0  0  0  0
  -26.2570  -13.0010   20.2910 N   0  0  0  0  0  0  0  0  0  0  0  0
  -25.8990  -11.7230   20.5610 N   0  0  0  0  0  0  0  0  0  0  0  0
  -23.8830  -10.5020   21.0360 C   0  0  0  0  0  0  0  0  0  0  0  0
  -24.3150   -9.5410   21.9750 C   0  0  0  0  0  3  0  0  0  0  0  0
  -23.5950   -8.3410   22.1500 C   0  0  0  0  0  3  0  0  0  0  0  0
  -22.4280   -8.0950   21.3850 C   0  0  0  0  0  0  0  0  0  0  0  0
  -22.0160   -9.0460   20.4360 C   0  0  0  0  0  3  0  0  0  0  0  0
  -22.7360  -10.2380   20.2580 C   0  0  0  0  0  3  0  0  0  0  0  0
  -21.6790   -6.9450   21.4720 O   0  0  0  0  0  0  0  0  0  0  0  0
  -21.6260   -6.2060   22.6270 C   0  0  0  0  0  0  0  0  0  0  0  0
  -21.1850   -6.7600   23.8480 C   0  0  0  0  0  3  0  0  0  0  0  0
  -21.0820   -5.9450   24.9950 C   0  0  0  0  0  3  0  0  0  0  0  0
  -21.4110   -4.5790   24.9190 C   0  0  0  0  0  0  0  0  0  0  0  0
  -21.8440   -4.0240   23.7020 C   0  0  0  0  0  3  0  0  0  0  0  0
  -21.9490   -4.8360   22.5580 C   0  0  0  0  0  0  0  0  0  0  0  0
  -22.3460   -4.2920   21.3830 F   0  0  0  0  0  0  0  0  0  0  0  0
  -21.3030   -3.7930   26.0180 F   0  0  0  0  0  0  0  0  0  0  0  0
  -22.7410  -13.5890   21.1240 C   0  0  0  0  0  0  0  0  0  0  0  0
  -22.0110  -12.8860   21.9850 N   0  0  0  0  0  0  0  0  0  0  0  0
  -22.3060  -14.6150   20.6030 O   0  0  0  0  0  0  0  0  0  0  0  0
  -22.3790  -12.0550   22.4210 H   0  0  0  0  0  0  0  0  0  0  0  0
  -21.0710  -13.1810   22.2090 H   0  0  0  0  0  0  0  0  0  0  0  0
  -25.3890  -15.2570   20.3160 N   0  0  0  0  0  0  0  0  0  0  0  0
  -24.6370  -15.9270   20.4200 H   0  0  0  0  0  0  0  0  0  0  0  0
  -26.2660  -15.6790   20.0370 H   0  0  0  0  0  0  0  0  0  0  0  0
  -28.8490  -23.0450   21.2270 N   0  0  0  0  0  4  0  0  0  0  0  0
  -28.9410  -22.8750   22.2160 H   0  0  0  0  0  0  0  0  0  0  0  0
  -27.8640  -22.9850   21.0200 H   0  0  0  0  0  0  0  0  0  0  0  0
  -29.8790  -25.0870   22.1830 C   0  0  0  0  0  1  0  0  0  0  0  0
  -29.2930  -24.4400   20.9140 C   0  0  0  0  0  3  0  0  0  0  0  0
  -28.1120  -25.2680   20.3410 C   0  0  0  0  0  2  0  0  0  0  0  0
  -28.3390  -26.6930   20.2510 O   0  0  0  0  0  0  0  0  0  0  0  0
  -24.5640  -31.9260   23.2760 C   0  0  0  0  0  0  0  0  0  0  0  0
  -27.1900  -27.4660   20.1970 C   0  0  0  0  0  0  0  0  0  0  0  0
  -23.3570  -30.5310   21.6340 C   0  0  0  0  0  3  0  0  0  0  0  0
  -24.8060  -29.0010   20.2020 C   0  0  0  0  0  0  0  0  0  0  0  0
  -25.8870  -30.8810   21.4380 C   0  0  0  0  0  2  0  0  0  0  0  0
  -25.9690  -29.5140   20.7880 C   0  0  0  0  0  0  0  0  0  0  0  0
  -27.1660  -28.7570   20.7770 C   0  0  0  0  0  3  0  0  0  0  0  0
  -26.0050  -26.9800   19.5910 C   0  0  0  0  0  3  0  0  0  0  0  0
  -24.8210  -27.7350   19.5950 C   0  0  0  0  0  3  0  0  0  0  0  0
  -23.5650  -29.8590   20.2510 C   0  0  0  0  0  2  0  0  0  0  0  0
  -24.6220  -31.1260   22.1740 N   0  0  0  0  0  0  0  0  0  0  0  0
  -23.4830  -32.2000   23.8150 O   0  0  0  0  0  0  0  0  0  0  0  0
  -22.7040  -29.5060   22.5900 C   0  0  0  0  0  0  0  0  0  0  0  0
  -21.3810  -29.3190   22.4570 N   0  0  0  0  0  0  0  0  0  0  0  0
  -23.3860  -28.8820   23.4090 O   0  0  0  0  0  0  0  0  0  0  0  0
  -20.8930  -29.8740   21.7670 H   0  0  0  0  0  0  0  0  0  0  0  0
  -18.0070  -28.1200   22.9440 C   0  0  0  0  0  0  0  0  0  0  0  0
  -20.5630  -28.3800   23.2240 C   0  0  0  0  0  3  0  0  0  0  0  0
  -20.6690  -26.9490   22.6480 C   0  0  0  0  0  2  0  0  0  0  0  0
  -19.5710  -26.6240   21.6310 C   0  0  0  0  0  2  0  0  0  0  0  0
  -18.1860  -26.7710   22.2700 C   0  0  0  0  0  2  0  0  0  0  0  0
  -19.1230  -28.8840   23.3770 C   0  0  0  0  0  0  0  0  0  0  0  0
  -18.9030  -30.1470   23.9660 C   0  0  0  0  0  3  0  0  0  0  0  0
  -17.5980  -30.6500   24.1290 C   0  0  0  0  0  3  0  0  0  0  0  0
  -16.4950  -29.8830   23.7140 C   0  0  0  0  0  3  0  0  0  0  0  0
  -16.7000  -28.6210   23.1270 C   0  0  0  0  0  3  0  0  0  0  0  0
  -25.8520  -32.5570   23.8950 C   0  0  0  0  0  3  0  0  0  0  0  0
  -26.3570  -31.7980   25.1840 C   0  0  1  0  0  0  0  0  0  0  0  0
  -25.2590  -31.5750   26.2490 C   0  0  0  0  0  1  0  0  0  0  0  0
  -26.9390  -30.4130   24.8100 C   0  0  0  0  0  1  0  0  0  0  0  0
  -27.5080  -32.5950   25.8440 C   0  0  0  0  0  1  0  0  0  0  0  0
  -25.5500  -33.9600   24.2060 N   0  0  0  0  0  0  0  0  0  0  0  0
  -25.8930  -35.0010   23.4360 C   0  0  0  0  0  0  0  0  0  0  0  0
  -26.5710  -34.8800   22.4120 O   0  0  0  0  0  0  0  0  0  0  0  0
  -24.9570  -34.1290   25.0050 H   0  0  0  0  0  0  0  0  0  0  0  0
  -24.1860  -36.8020   23.0330 C   0  0  0  0  0  1  0  0  0  0  0  0
  -25.4090  -36.3960   23.8710 C   0  0  0  0  0  3  0  0  0  0  0  0
  -27.5330  -37.2700   24.7370 C   0  0  0  0  0  1  0  0  0  0  0  0
  -26.4510  -37.4390   23.7700 N   0  0  0  0  0  0  0  0  0  0  0  0
  -26.0490  -38.3630   23.9040 H   0  0  0  0  0  0  0  0  0  0  0  0
  2  4  1  0
  2  1  1  0
  2 50  1  0
  3  5  1  0
  3  1  1  0
  4  6  1  0
  7 19  1  0
  7  4  1  0
  7  3  1  0
  9 14  1  0
 10 11  1  0
 10  9  1  0
 12 11  1  0
 12 25  1  0
 12 13  1  0
 14  8  1  0
 14 13  1  0
 15  8  2  0
 16 21  1  0
 18 20  1  0
 18 16  1  0
 18 19  1  0
 19 17  1  0
 21  8  1  0
 21 17  1  0
 22 23  2  0
 23 42  1  0
 24 23  1  0
 24 27  1  0
 25 22  1  0
 25 26  1  0
 26 24  2  0
 27 28  1  0
 28 29  2  0
 30 33  1  0
 30 29  1  0
 31 30  2  0
 32 31  1  0
 32 27  2  0
 33 34  1  0
 34 35  1  0
 35 36  2  0
 37 36  1  0
 37 41  1  0
 38 37  2  0
 39 34  2  0
 39 38  1  0
 40 39  1  0
 42 43  1  0
 43 46  1  0
 43 45  1  0
 44 42  2  0
 47 48  1  0
 47 22  1  0
 49 47  1  0
 50 51  1  0
 52 50  1  0
 54 50  1  0
 54 53  1  0
 55 54  1  0
 56 55  1  0
 57 68  2  0
 58 56  1  0
 58 63  1  0
 59 67  1  0
 59 69  1  0
 60 66  1  0
 60 62  1  0
 61 67  1  0
 62 61  1  0
 63 62  2  0
 64 65  1  0
 64 58  2  0
 65 60  2  0
 66 59  1  0
 67 57  1  0
 69 71  2  0
 70 69  1  0
 72 70  1  0
 73 82  2  0
 73 78  1  0
 74 70  1  0
 74 78  1  0
 75 74  1  0
 76 77  1  0
 76 75  1  0
 77 73  1  0
 78 79  2  0
 79 80  1  0
 81 80  2  0
 82 81  1  0
 83 57  1  0
 83 88  1  0
 83 84  1  0
 84 87  1  1
 84 85  1  0
 86 84  1  0
 88 91  1  0
 89 93  1  0
 89 88  1  0
 90 89  2  0
 93 92  1  0
 95 93  1  0
 95 96  1  0
 95 94  1  0
M  ISO  4   8 100  21 100  55 101  56 101
M  END
>  <TORSDO>  (24) 
F 19

>  <SCORE>  (24) 
-14.419

>  <name>  (24) 
23

>  <ligand_id>  (24) 
23

>  <original_smiles>  (24) 
[H]c1c([H])c([H])c2c(c1[H])C([H])([H])C([H])([H])C([H])([H])C2([H])N([H])C(=O)C1([H])N(C(=O)C([H])(N([H])C(=O)C([H])(N([H])C([H])([H])[H])C([H])([H])[H])C(C([H])([H])[H])(C([H])([H])[H])C([H])([H])[H])C([H])([H])c2c([H])c(OC([H])([H])C([H])(C([H])([H])[H])[N+]([H])([H])C3([H])C([H])([H])C([H])(C([H])([H])[H])N(C4([H])C([H])([H])N(C(=O)N5C([H])([H])C([H])([H])C([H])([H])C([H])(n6nc(-c7c([H])c([H])c(Oc8c([H])c([H])c(F)c([H])c8F)c([H])c7[H])c(C(=O)N([H])[H])c6N([H])[H])C5([H])[H])C([H])([H])C4([H])C([H])([H])[H])C3([H])C([H])([H])[H])c([H])c([H])c2C1([H])[H]

>  <smiles>  (24) 
[H]c1c([H])c([H])c2c(c1[H])C([H])([H])C([H])([H])C([H])([H])C2([H])N([H])C(=O)C1([H])N(C(=O)C([H])(N([H])C(=O)C([H])(N([H])C([H])([H])[H])C([H])([H])[H])C(C([H])([H])[H])(C([H])([H])[H])C([H])([H])[H])C([H])([H])c2c([H])c(OC([H])([H])C([H])(C([H])([H])[H])[N+]([H])([H])C3([H])C([H])([H])C([H])(C([H])([H])[H])N(C4([H])C([H])([H])N(C(=O)N5C([H])([H])C([H])([H])C([H])([H])C([H])(n6nc(-c7c([H])c([H])c(Oc8c([H])c([H])c(F)c([H])c8F)c([H])c7[H])c(C(=O)N([H])[H])c6N([H])[H])C5([H])[H])C([H])([H])C4([H])C([H])([H])[H])C3([H])C([H])([H])[H])c([H])c([H])c2C1([H])[H]

$$$$
24:0:0
     RDKit          3D

 97107  0  0  1  0  0  0  0  0999 V2000
  -31.1110  -21.7500   20.3780 C   0  0  0  0  0  3  0  0  0  0  0  0
  -30.5880  -24.1350   19.9950 C   0  0  0  0  0  0  0  0  0  0  0  0
  -31.5250  -23.0890   20.2190 C   0  0  0  0  0  0  0  0  0  0  0  0
  -29.1950  -23.8590   20.0870 C   0  0  0  0  0  0  0  0  0  0  0  0
  -28.7990  -22.4640   20.2580 C   0  0  0  0  0  0  0  0  0  0  0  0
  -29.7500  -21.3820   20.3760 C   0  0  0  0  0  0  0  0  0  0  0  0
  -33.0230  -23.3590   20.2850 C   0  0  0  0  0  1  0  0  0  0  0  0
  -30.7130  -26.1770   18.3140 C   0  0  0  0  0  2  0  0  0  0  0  0
  -32.1250  -25.7270   18.5470 C   0  0  0  0  0  2  0  0  0  0  0  0
  -31.0820  -25.5170   19.6310 C   0  0  0  0  0  3  0  0  0  0  0  0
  -26.7470  -21.9340   18.8560 C   0  0  0  0  0  1  0  0  0  0  0  0
  -27.3210  -22.0780   20.2710 C   0  0  0  0  0  2  0  0  0  0  0  0
  -28.1250  -25.0090   19.8640 C   0  0  0  0  0  2  0  0  0  0  0  0
  -28.3790  -26.4470   20.1610 O   0  0  0  0  0  0  0  0  0  0  0  0
  -24.6140  -31.8360   23.1860 C   0  0  0  0  0  0  0  0  0  0  0  0
  -27.2670  -27.3140   20.0970 C   0  0  0  0  0  0  0  0  0  0  0  0
  -23.4270  -30.4450   21.5300 C   0  0  0  0  0  3  0  0  0  0  0  0
  -24.8920  -28.9240   20.0960 C   0  0  0  0  0  0  0  0  0  0  0  0
  -25.9670  -30.7800   21.3590 C   0  0  0  0  0  2  0  0  0  0  0  0
  -26.0590  -29.4090   20.6980 C   0  0  0  0  0  0  0  0  0  0  0  0
  -27.2500  -28.6180   20.6870 C   0  0  0  0  0  3  0  0  0  0  0  0
  -26.0690  -26.8920   19.4670 C   0  0  0  0  0  3  0  0  0  0  0  0
  -24.9000  -27.6700   19.4710 C   0  0  0  0  0  3  0  0  0  0  0  0
  -23.6510  -29.7900   20.1450 C   0  0  0  0  0  2  0  0  0  0  0  0
  -24.6890  -31.0370   22.0810 N   0  0  0  0  0  0  0  0  0  0  0  0
  -23.5260  -32.1010   23.7170 O   0  0  0  0  0  0  0  0  0  0  0  0
  -22.7680  -29.4120   22.4760 C   0  0  0  0  0  0  0  0  0  0  0  0
  -21.4400  -29.2420   22.3570 N   0  0  0  0  0  0  0  0  0  0  0  0
  -23.4500  -28.7680   23.2780 O   0  0  0  0  0  0  0  0  0  0  0  0
  -20.9500  -29.8130   21.6820 H   0  0  0  0  0  0  0  0  0  0  0  0
  -18.0560  -28.0750   22.8840 C   0  0  0  0  0  0  0  0  0  0  0  0
  -20.6210  -28.2980   23.1180 C   0  0  0  0  0  3  0  0  0  0  0  0
  -20.6960  -26.8780   22.5090 C   0  0  0  0  0  2  0  0  0  0  0  0
  -19.5740  -26.5920   21.5070 C   0  0  0  0  0  2  0  0  0  0  0  0
  -18.2050  -26.7400   22.1740 C   0  0  0  0  0  2  0  0  0  0  0  0
  -19.1900  -28.8140   23.3120 C   0  0  0  0  0  0  0  0  0  0  0  0
  -18.9960  -30.0650   23.9360 C   0  0  0  0  0  3  0  0  0  0  0  0
  -17.7000  -30.5780   24.1350 C   0  0  0  0  0  3  0  0  0  0  0  0
  -16.5810  -29.8360   23.7210 C   0  0  0  0  0  3  0  0  0  0  0  0
  -16.7600  -28.5870   23.1010 C   0  0  0  0  0  3  0  0  0  0  0  0
  -25.8890  -32.4710   23.8190 C   0  0  0  0  0  3  0  0  0  0  0  0
  -26.4060  -31.6910   25.0900 C   0  0  1  0  0  0  0  0  0  0  0  0
  -25.3100  -31.4320   26.1490 C   0  0  0  0  0  1  0  0  0  0  0  0
  -27.0040  -30.3230   24.6870 C   0  0  0  0  0  1  0  0  0  0  0  0
  -27.5460  -32.4900   25.7660 C   0  0  0  0  0  1  0  0  0  0  0  0
  -25.5660  -33.8630   24.1620 N   0  0  0  0  0  0  0  0  0  0  0  0
  -25.8780  -34.9260   23.4080 C   0  0  0  0  0  0  0  0  0  0  0  0
  -26.5400  -34.8380   22.3700 O   0  0  0  0  0  0  0  0  0  0  0  0
  -24.9780  -34.0060   24.9690 H   0  0  0  0  0  0  0  0  0  0  0  0
  -24.1220  -36.6990   23.0890 C   0  0  0  0  0  1  0  0  0  0  0  0
  -25.3800  -36.3060   23.8810 C   0  0  0  0  0  3  0  0  0  0  0  0
  -27.5120  -37.2150   24.6920 C   0  0  0  0  0  1  0  0  0  0  0  0
  -26.3970  -37.3740   23.7630 N   0  0  0  0  0  0  0  0  0  0  0  0
  -25.9790  -38.2870   23.9210 H   0  0  0  0  0  0  0  0  0  0  0  0
  -29.3360  -20.0250   20.4740 O   0  0  0  0  0  0  0  0  0  0  0  0
  -30.7350  -14.6690   19.9880 C   0  0  0  0  0  0  0  0  0  0  0  0
  -30.3830  -12.4460   18.9260 C   0  0  0  0  0  2  0  0  0  0  0  0
  -29.3740  -12.5800   17.7660 C   0  0  0  0  0  2  0  0  0  0  0  0
  -27.9280  -12.4320   18.2800 C   0  0  0  0  0  2  0  0  0  0  0  0
  -27.6510  -13.2820   19.5510 C   0  0  0  0  0  3  0  0  0  0  0  0
  -28.7800  -13.1320   20.5930 C   0  0  0  0  0  2  0  0  0  0  0  0
  -30.0400  -13.4830   19.9240 N   0  0  0  0  0  0  0  0  0  0  0  0
  -31.8920  -14.7160   19.5590 O   0  0  0  0  0  0  0  0  0  0  0  0
  -29.8180  -17.7990   21.7090 C   0  0  0  0  0  2  0  0  0  0  0  0
  -30.8580  -18.2200   19.4430 C   0  0  0  0  0  2  0  0  0  0  0  0
  -29.2560  -16.4360   21.1610 C   0  0  0  0  0  2  0  0  0  0  0  0
  -30.1450  -16.9050   18.9860 C   0  0  0  0  0  2  0  0  0  0  0  0
  -30.2790  -18.9120   20.7070 C   0  0  0  0  0  3  0  0  0  0  0  0
  -30.0190  -15.8570   20.0320 N   0  0  0  0  0  0  0  0  0  0  0  0
  -25.3230  -13.8730   20.4580 C   0  0  0  0  0  0  0  0  0  0  0  0
  -24.2740  -13.0980   20.8720 C   0  0  0  0  0  0  0  0  0  0  0  0
  -24.7160  -11.7440   20.7620 C   0  0  0  0  0  0  0  0  0  0  0  0
  -26.3380  -12.9920   20.1210 N   0  0  0  0  0  0  0  0  0  0  0  0
  -25.9830  -11.7040   20.3640 N   0  0  0  0  0  0  0  0  0  0  0  0
  -23.9850  -10.4840   20.9560 C   0  0  0  0  0  0  0  0  0  0  0  0
  -24.4260   -9.5100   21.8790 C   0  0  0  0  0  3  0  0  0  0  0  0
  -23.6950   -8.3150   22.0640 C   0  0  0  0  0  3  0  0  0  0  0  0
  -22.5090   -8.0880   21.3260 C   0  0  0  0  0  0  0  0  0  0  0  0
  -22.0880   -9.0510   20.3930 C   0  0  0  0  0  3  0  0  0  0  0  0
  -22.8190  -10.2360   20.2060 C   0  0  0  0  0  3  0  0  0  0  0  0
  -21.7490   -6.9480   21.4200 O   0  0  0  0  0  0  0  0  0  0  0  0
  -21.6590   -6.2370   22.5900 C   0  0  0  0  0  0  0  0  0  0  0  0
  -21.1780   -6.8210   23.7820 C   0  0  0  0  0  3  0  0  0  0  0  0
  -21.0380   -6.0350   24.9440 C   0  0  0  0  0  3  0  0  0  0  0  0
  -21.3670   -4.6670   24.9130 C   0  0  0  0  0  0  0  0  0  0  0  0
  -21.8410   -4.0830   23.7250 C   0  0  0  0  0  3  0  0  0  0  0  0
  -21.9830   -4.8660   22.5660 C   0  0  0  0  0  0  0  0  0  0  0  0
  -22.4190   -4.2930   21.4180 F   0  0  0  0  0  0  0  0  0  0  0  0
  -21.2250   -3.9100   26.0260 F   0  0  0  0  0  0  0  0  0  0  0  0
  -22.9060  -13.5820   21.2550 C   0  0  0  0  0  0  0  0  0  0  0  0
  -22.2290  -12.8670   22.1470 N   0  0  0  0  0  0  0  0  0  0  0  0
  -22.4470  -14.6290   20.8000 O   0  0  0  0  0  0  0  0  0  0  0  0
  -22.6140  -12.0200   22.5380 H   0  0  0  0  0  0  0  0  0  0  0  0
  -21.3140  -13.1730   22.4430 H   0  0  0  0  0  0  0  0  0  0  0  0
  -25.4890  -15.2470   20.3170 N   0  0  0  0  0  0  0  0  0  0  0  0
  -24.7370  -15.9000   20.5060 H   0  0  0  0  0  0  0  0  0  0  0  0
  -26.3200  -15.6940   19.9500 H   0  0  0  0  0  0  0  0  0  0  0  0
  2  4  2  0
  2  3  1  0
  3  7  1  0
  3  1  2  0
  4  5  1  0
  5 12  1  0
  5  6  2  0
  6  1  1  0
  6 55  1  0
  8  9  1  0
  8 10  1  0
  9 10  1  0
 10  2  1  0
 11 12  1  0
 13  4  1  0
 13 14  1  0
 15 26  2  0
 16 14  1  0
 16 21  1  0
 17 25  1  0
 17 27  1  0
 18 24  1  0
 18 20  1  0
 19 25  1  0
 20 19  1  0
 21 20  2  0
 22 23  1  0
 22 16  2  0
 23 18  2  0
 24 17  1  0
 25 15  1  0
 27 29  2  0
 28 27  1  0
 30 28  1  0
 31 40  2  0
 31 36  1  0
 32 28  1  0
 32 36  1  0
 33 32  1  0
 34 35  1  0
 34 33  1  0
 35 31  1  0
 36 37  2  0
 37 38  1  0
 39 38  2  0
 40 39  1  0
 41 15  1  0
 41 46  1  0
 41 42  1  0
 42 45  1  1
 42 43  1  0
 44 42  1  0
 46 49  1  0
 47 51  1  0
 47 46  1  0
 48 47  2  0
 51 50  1  0
 53 51  1  0
 53 54  1  0
 53 52  1  0
 56 69  1  0
 57 62  1  0
 58 59  1  0
 58 57  1  0
 60 59  1  0
 60 73  1  0
 60 61  1  0
 62 56  1  0
 62 61  1  0
 63 56  2  0
 65 68  1  0
 66 64  1  0
 67 65  1  0
 67 69  1  0
 68 55  1  0
 68 64  1  0
 69 66  1  0
 70 71  2  0
 71 90  1  0
 72 71  1  0
 72 75  1  0
 73 74  1  0
 73 70  1  0
 74 72  2  0
 75 76  1  0
 76 77  2  0
 78 81  1  0
 78 77  1  0
 79 78  2  0
 80 79  1  0
 80 75  2  0
 81 82  1  0
 82 83  1  0
 83 84  2  0
 85 84  1  0
 85 89  1  0
 86 85  2  0
 87 82  2  0
 87 86  1  0
 88 87  1  0
 90 91  1  0
 91 94  1  0
 91 93  1  0
 92 90  2  0
 95 70  1  0
 95 96  1  0
 97 95  1  0
M  ISO  4  13 101  14 101  56 100  69 100
M  END
>  <TORSDO>  (25) 
F 20

>  <SCORE>  (25) 
-13.535

>  <name>  (25) 
24

>  <ligand_id>  (25) 
24

>  <original_smiles>  (25) 
[H]c1c([H])c([H])c2c(c1[H])C([H])([H])C([H])([H])C([H])([H])C2([H])N([H])C(=O)C1([H])N(C(=O)C([H])(N([H])C(=O)C([H])(N([H])C([H])([H])[H])C([H])([H])[H])C(C([H])([H])[H])(C([H])([H])[H])C([H])([H])[H])C([H])([H])c2c([H])c(OC([H])([H])c3c(C([H])([H])C([H])([H])[H])c(OC4([H])C([H])([H])C([H])([H])N(C(=O)N5C([H])([H])C([H])([H])C([H])([H])C([H])(n6nc(-c7c([H])c([H])c(Oc8c([H])c([H])c(F)c([H])c8F)c([H])c7[H])c(C(=O)N([H])[H])c6N([H])[H])C5([H])[H])C([H])([H])C4([H])[H])c([H])c(C([H])([H])[H])c3C3([H])C([H])([H])C3([H])[H])c([H])c([H])c2C1([H])[H]

>  <smiles>  (25) 
[H]c1c([H])c([H])c2c(c1[H])C([H])([H])C([H])([H])C([H])([H])C2([H])N([H])C(=O)C1([H])N(C(=O)C([H])(N([H])C(=O)C([H])(N([H])C([H])([H])[H])C([H])([H])[H])C(C([H])([H])[H])(C([H])([H])[H])C([H])([H])[H])C([H])([H])c2c([H])c(OC([H])([H])c3c(C([H])([H])C([H])([H])[H])c(OC4([H])C([H])([H])C([H])([H])N(C(=O)N5C([H])([H])C([H])([H])C([H])([H])C([H])(n6nc(-c7c([H])c([H])c(Oc8c([H])c([H])c(F)c([H])c8F)c([H])c7[H])c(C(=O)N([H])[H])c6N([H])[H])C5([H])[H])C([H])([H])C4([H])[H])c([H])c(C([H])([H])[H])c3C3([H])C([H])([H])C3([H])[H])c([H])c([H])c2C1([H])[H]

$$$$
25:0:0
     RDKit          3D

 92101  0  0  1  0  0  0  0  0999 V2000
  -27.7710  -20.6640   20.3740 C   0  0  0  0  0  0  0  0  0  0  0  0
  -27.2450  -21.7540   21.2920 C   0  0  0  0  0  2  0  0  0  0  0  0
  -28.5340  -22.4530   21.7100 C   0  0  0  0  0  2  0  0  0  0  0  0
  -29.4000  -22.3260   20.4540 C   0  0  0  0  0  3  0  0  0  0  0  0
  -29.0720  -20.8490   20.0570 N   0  0  0  0  0  0  0  0  0  0  0  0
  -27.0800  -19.6790   20.1010 O   0  0  0  0  0  0  0  0  0  0  0  0
  -31.1680  -15.0250   19.9120 C   0  0  0  0  0  0  0  0  0  0  0  0
  -30.8740  -12.6960   19.0070 C   0  0  0  0  0  2  0  0  0  0  0  0
  -29.8980  -12.6860   17.8110 C   0  0  0  0  0  2  0  0  0  0  0  0
  -28.4460  -12.5450   18.3010 C   0  0  0  0  0  2  0  0  0  0  0  0
  -28.1190  -13.4990   19.4830 C   0  0  0  0  0  3  0  0  0  0  0  0
  -29.2190  -13.5060   20.5680 C   0  0  0  0  0  2  0  0  0  0  0  0
  -30.4840  -13.8220   19.8950 N   0  0  0  0  0  0  0  0  0  0  0  0
  -32.3550  -15.0130   19.5600 O   0  0  0  0  0  0  0  0  0  0  0  0
  -29.7650  -18.5650   18.8430 C   0  0  0  0  0  2  0  0  0  0  0  0
  -29.9070  -18.5610   21.2530 C   0  0  0  0  0  2  0  0  0  0  0  0
  -30.6220  -17.2160   18.8410 C   0  0  0  0  0  2  0  0  0  0  0  0
  -30.7180  -17.1770   21.1720 C   0  0  0  0  0  2  0  0  0  0  0  0
  -29.9960  -19.5770   20.0300 C   0  0  0  0  0  3  0  0  0  0  0  0
  -30.4910  -16.2650   19.9990 N   0  0  0  0  0  0  0  0  0  0  0  0
  -25.8110  -14.1490   20.3770 C   0  0  0  0  0  0  0  0  0  0  0  0
  -24.7310  -13.4060   20.7650 C   0  0  0  0  0  0  0  0  0  0  0  0
  -25.1290  -12.0380   20.6490 C   0  0  0  0  0  0  0  0  0  0  0  0
  -26.7970  -13.2390   20.0440 N   0  0  0  0  0  0  0  0  0  0  0  0
  -26.3990  -11.9600   20.2720 N   0  0  0  0  0  0  0  0  0  0  0  0
  -24.3530  -10.8020   20.8210 C   0  0  0  0  0  0  0  0  0  0  0  0
  -24.7150   -9.8290   21.7800 C   0  0  0  0  0  3  0  0  0  0  0  0
  -23.9410   -8.6600   21.9410 C   0  0  0  0  0  3  0  0  0  0  0  0
  -22.7920   -8.4530   21.1430 C   0  0  0  0  0  0  0  0  0  0  0  0
  -22.4480   -9.4130   20.1750 C   0  0  0  0  0  3  0  0  0  0  0  0
  -23.2220  -10.5750   20.0120 C   0  0  0  0  0  3  0  0  0  0  0  0
  -21.9950   -7.3340   21.2100 O   0  0  0  0  0  0  0  0  0  0  0  0
  -21.7770   -6.6760   22.3940 C   0  0  0  0  0  0  0  0  0  0  0  0
  -21.1680   -7.3100   23.4980 C   0  0  0  0  0  3  0  0  0  0  0  0
  -20.9010   -6.5770   24.6710 C   0  0  0  0  0  3  0  0  0  0  0  0
  -21.2330   -5.2100   24.7400 C   0  0  0  0  0  0  0  0  0  0  0  0
  -21.8340   -4.5760   23.6380 C   0  0  0  0  0  3  0  0  0  0  0  0
  -22.1030   -5.3070   22.4670 C   0  0  0  0  0  0  0  0  0  0  0  0
  -22.6620   -4.6850   21.4010 F   0  0  0  0  0  0  0  0  0  0  0  0
  -20.9710   -4.5040   25.8630 F   0  0  0  0  0  0  0  0  0  0  0  0
  -23.3740  -13.9330   21.1320 C   0  0  0  0  0  0  0  0  0  0  0  0
  -22.6680  -13.2410   22.0190 N   0  0  0  0  0  0  0  0  0  0  0  0
  -22.9520  -14.9900   20.6670 O   0  0  0  0  0  0  0  0  0  0  0  0
  -23.0240  -12.3830   22.4150 H   0  0  0  0  0  0  0  0  0  0  0  0
  -21.7590  -13.5730   22.3060 H   0  0  0  0  0  0  0  0  0  0  0  0
  -26.0310  -15.5190   20.2550 N   0  0  0  0  0  0  0  0  0  0  0  0
  -25.3130  -16.2040   20.4570 H   0  0  0  0  0  0  0  0  0  0  0  0
  -26.9020  -15.9390   19.9560 H   0  0  0  0  0  0  0  0  0  0  0  0
  -30.0470  -23.7070   18.3490 C   0  0  0  0  0  1  0  0  0  0  0  0
  -29.0210  -23.6340   19.4850 C   0  0  0  0  0  3  0  0  0  0  0  0
  -28.7870  -25.1440   20.1440 C   0  0  0  0  0  2  0  0  0  0  0  0
  -28.6950  -26.5040   19.4580 O   0  0  0  0  0  0  0  0  0  0  0  0
  -24.6010  -31.5240   22.8910 C   0  0  0  0  0  0  0  0  0  0  0  0
  -27.5380  -27.3240   19.5460 C   0  0  0  0  0  0  0  0  0  0  0  0
  -23.5160  -30.1820   21.1270 C   0  0  0  0  0  3  0  0  0  0  0  0
  -25.0820  -28.8350   19.6090 C   0  0  0  0  0  0  0  0  0  0  0  0
  -26.0370  -30.6610   21.0140 C   0  0  0  0  0  2  0  0  0  0  0  0
  -26.2150  -29.3370   20.2620 C   0  0  0  0  0  0  0  0  0  0  0  0
  -27.4450  -28.5980   20.2130 C   0  0  0  0  0  3  0  0  0  0  0  0
  -26.3760  -26.8880   18.8820 C   0  0  0  0  0  3  0  0  0  0  0  0
  -25.1680  -27.6180   18.9100 C   0  0  0  0  0  3  0  0  0  0  0  0
  -23.7930  -29.6300   19.7030 C   0  0  0  0  0  2  0  0  0  0  0  0
  -24.7360  -30.8080   21.7340 N   0  0  0  0  0  0  0  0  0  0  0  0
  -23.4930  -31.6880   23.4230 O   0  0  0  0  0  0  0  0  0  0  0  0
  -22.9100  -29.0550   21.9970 C   0  0  0  0  0  0  0  0  0  0  0  0
  -21.5870  -28.8370   21.8800 N   0  0  0  0  0  0  0  0  0  0  0  0
  -23.6290  -28.3800   22.7380 O   0  0  0  0  0  0  0  0  0  0  0  0
  -21.0600  -29.4420   21.2650 H   0  0  0  0  0  0  0  0  0  0  0  0
  -18.2710  -27.4630   22.3390 C   0  0  0  0  0  0  0  0  0  0  0  0
  -20.8250  -27.7920   22.5700 C   0  0  0  0  0  3  0  0  0  0  0  0
  -20.9600  -26.4330   21.8440 C   0  0  0  0  0  2  0  0  0  0  0  0
  -19.8410  -26.1750   20.8320 C   0  0  0  0  0  2  0  0  0  0  0  0
  -18.4740  -26.2000   21.5190 C   0  0  0  0  0  2  0  0  0  0  0  0
  -19.3740  -28.2180   22.8170 C   0  0  0  0  0  0  0  0  0  0  0  0
  -19.1260  -29.4020   23.5470 C   0  0  0  0  0  3  0  0  0  0  0  0
  -17.8090  -29.8300   23.7980 C   0  0  0  0  0  3  0  0  0  0  0  0
  -16.7220  -29.0700   23.3350 C   0  0  0  0  0  3  0  0  0  0  0  0
  -16.9540  -27.8870   22.6100 C   0  0  0  0  0  3  0  0  0  0  0  0
  -25.8260  -32.1960   23.5830 C   0  0  0  0  0  3  0  0  0  0  0  0
  -25.4300  -33.5570   23.9730 N   0  0  0  0  0  0  0  0  0  0  0  0
  -25.7320  -34.6680   23.2850 C   0  0  0  0  0  0  0  0  0  0  0  0
  -26.4440  -34.6560   22.2780 O   0  0  0  0  0  0  0  0  0  0  0  0
  -24.7960  -33.6350   24.7540 H   0  0  0  0  0  0  0  0  0  0  0  0
  -23.9170  -36.3810   22.9830 C   0  0  0  0  0  1  0  0  0  0  0  0
  -25.1600  -36.0020   23.8020 C   0  0  0  0  0  3  0  0  0  0  0  0
  -27.2160  -36.9670   24.7350 C   0  0  0  0  0  1  0  0  0  0  0  0
  -26.1340  -37.1150   23.7660 N   0  0  0  0  0  0  0  0  0  0  0  0
  -25.6720  -38.0040   23.9390 H   0  0  0  0  0  0  0  0  0  0  0  0
  -26.3440  -31.3930   24.8390 C   0  0  1  0  0  0  0  0  0  0  0  0
  -25.2380  -31.0660   25.8700 C   0  0  0  0  0  1  0  0  0  0  0  0
  -26.9930  -30.0580   24.4060 C   0  0  0  0  0  1  0  0  0  0  0  0
  -27.4450  -32.2050   25.5620 C   0  0  0  0  0  1  0  0  0  0  0  0
  1  2  1  0
  2  3  1  0
  4 50  1  0
  4  3  1  0
  5  1  1  0
  5  4  1  0
  6  1  2  0
  7 20  1  0
  8 13  1  0
  9 10  1  0
  9  8  1  0
 11 10  1  0
 11 24  1  0
 11 12  1  0
 13  7  1  0
 13 12  1  0
 14  7  2  0
 17 15  1  0
 17 20  1  0
 18 16  1  0
 19 15  1  0
 19  5  1  0
 19 16  1  0
 20 18  1  0
 21 22  2  0
 22 41  1  0
 23 22  1  0
 23 26  1  0
 24 25  1  0
 24 21  1  0
 25 23  2  0
 26 27  1  0
 27 28  2  0
 29 32  1  0
 29 28  1  0
 30 29  2  0
 31 30  1  0
 31 26  2  0
 32 33  1  0
 33 38  2  0
 33 34  1  0
 34 35  2  0
 35 36  1  0
 36 40  1  0
 37 36  2  0
 38 37  1  0
 39 38  1  0
 41 42  1  0
 42 45  1  0
 42 44  1  0
 43 41  2  0
 46 21  1  0
 46 47  1  0
 48 46  1  0
 50 49  1  0
 50 51  1  0
 52 54  1  0
 52 51  1  0
 53 64  2  0
 54 59  1  0
 55 63  1  0
 55 65  1  0
 56 62  1  0
 56 58  1  0
 57 63  1  0
 58 57  1  0
 59 58  2  0
 60 61  1  0
 60 54  2  0
 61 56  2  0
 62 55  1  0
 63 53  1  0
 65 67  2  0
 66 65  1  0
 68 66  1  0
 69 78  2  0
 69 74  1  0
 70 66  1  0
 70 74  1  0
 71 70  1  0
 72 73  1  0
 72 71  1  0
 73 69  1  0
 74 75  2  0
 75 76  1  0
 77 76  2  0
 78 77  1  0
 79 53  1  0
 79 80  1  0
 79 89  1  0
 80 83  1  0
 81 85  1  0
 81 80  1  0
 82 81  2  0
 85 84  1  0
 87 85  1  0
 87 88  1  0
 87 86  1  0
 89 92  1  1
 89 90  1  0
 91 89  1  0
M  ISO  4   7 100  20 100  51 101  52 101
M  END
>  <TORSDO>  (26) 
F 18

>  <SCORE>  (26) 
-12.177

>  <name>  (26) 
25

>  <ligand_id>  (26) 
25

>  <original_smiles>  (26) 
[H]c1c([H])c([H])c2c(c1[H])C([H])([H])C([H])([H])C([H])([H])C2([H])N([H])C(=O)C1([H])N(C(=O)C([H])(N([H])C(=O)C([H])(N([H])C([H])([H])[H])C([H])([H])[H])C(C([H])([H])[H])(C([H])([H])[H])C([H])([H])[H])C([H])([H])c2c([H])c(OC([H])([H])C([H])(C([H])([H])[H])C3([H])N(C4([H])C([H])([H])C([H])([H])N(C(=O)N5C([H])([H])C([H])([H])C([H])([H])C([H])(n6nc(-c7c([H])c([H])c(Oc8c([H])c([H])c(F)c([H])c8F)c([H])c7[H])c(C(=O)N([H])[H])c6N([H])[H])C5([H])[H])C([H])([H])C4([H])[H])C(=O)C([H])([H])C3([H])[H])c([H])c([H])c2C1([H])[H]

>  <smiles>  (26) 
[H]c1c([H])c([H])c2c(c1[H])C([H])([H])C([H])([H])C([H])([H])C2([H])N([H])C(=O)C1([H])N(C(=O)C([H])(N([H])C(=O)C([H])(N([H])C([H])([H])[H])C([H])([H])[H])C(C([H])([H])[H])(C([H])([H])[H])C([H])([H])[H])C([H])([H])c2c([H])c(OC([H])([H])C([H])(C([H])([H])[H])C3([H])N(C4([H])C([H])([H])C([H])([H])N(C(=O)N5C([H])([H])C([H])([H])C([H])([H])C([H])(n6nc(-c7c([H])c([H])c(Oc8c([H])c([H])c(F)c([H])c8F)c([H])c7[H])c(C(=O)N([H])[H])c6N([H])[H])C5([H])[H])C([H])([H])C4([H])[H])C(=O)C([H])([H])C3([H])[H])c([H])c([H])c2C1([H])[H]

$$$$
26:0:0
     RDKit          3D

 90 99  0  0  1  0  0  0  0  0999 V2000
  -29.7430  -22.7040   20.3880 C   0  0  0  0  0  3  0  0  0  0  0  0
  -28.7630  -21.6830   20.1210 C   0  0  0  0  0  0  0  0  0  0  0  0
  -27.5440  -22.4250   19.8150 C   0  0  0  0  0  3  0  0  0  0  0  0
  -28.3660  -24.6970   20.1190 C   0  0  0  0  0  0  0  0  0  0  0  0
  -26.2970  -21.6550   19.4210 C   0  0  0  0  0  1  0  0  0  0  0  0
  -29.5570  -24.0940   20.3780 N   0  0  0  0  0  0  0  0  0  0  0  0
  -27.3620  -23.8300   19.8210 N   0  0  0  0  0  0  0  0  0  0  0  0
  -30.5510  -15.2610   19.8900 C   0  0  0  0  0  0  0  0  0  0  0  0
  -30.3640  -12.8780   18.9630 C   0  0  0  0  0  2  0  0  0  0  0  0
  -29.3620  -12.7160   17.7970 C   0  0  0  0  0  2  0  0  0  0  0  0
  -27.9500  -12.4560   18.3450 C   0  0  0  0  0  2  0  0  0  0  0  0
  -27.5820  -13.4270   19.4960 C   0  0  0  0  0  3  0  0  0  0  0  0
  -28.7030  -13.5530   20.5470 C   0  0  0  0  0  2  0  0  0  0  0  0
  -29.9000  -14.0110   19.8300 N   0  0  0  0  0  0  0  0  0  0  0  0
  -31.7640  -15.1980   19.6420 O   0  0  0  0  0  0  0  0  0  0  0  0
  -28.6980  -18.9080   19.1180 C   0  0  0  0  0  2  0  0  0  0  0  0
  -30.3560  -19.3220   20.7190 C   0  0  0  0  0  2  0  0  0  0  0  0
  -28.8020  -17.2670   19.3580 C   0  0  0  0  0  2  0  0  0  0  0  0
  -30.5750  -17.6960   20.9470 C   0  0  0  0  0  2  0  0  0  0  0  0
  -28.9660  -19.9810   20.2820 C   0  0  0  0  0  3  0  0  0  0  0  0
  -29.9340  -16.5760   20.1200 N   0  0  0  0  0  0  0  0  0  0  0  0
  -25.2770  -13.9840   20.4340 C   0  0  0  0  0  0  0  0  0  0  0  0
  -24.2340  -13.2040   20.8520 C   0  0  0  0  0  0  0  0  0  0  0  0
  -24.6880  -11.8530   20.7490 C   0  0  0  0  0  0  0  0  0  0  0  0
  -26.2910  -13.1100   20.0920 N   0  0  0  0  0  0  0  0  0  0  0  0
  -25.9550  -11.8190   20.3500 N   0  0  0  0  0  0  0  0  0  0  0  0
  -23.9640  -10.5890   20.9450 C   0  0  0  0  0  0  0  0  0  0  0  0
  -24.4070   -9.6200   21.8710 C   0  0  0  0  0  3  0  0  0  0  0  0
  -23.6820   -8.4240   22.0570 C   0  0  0  0  0  3  0  0  0  0  0  0
  -22.4980   -8.1890   21.3170 C   0  0  0  0  0  0  0  0  0  0  0  0
  -22.0750   -9.1470   20.3780 C   0  0  0  0  0  3  0  0  0  0  0  0
  -22.8020  -10.3340   20.1900 C   0  0  0  0  0  3  0  0  0  0  0  0
  -21.7440   -7.0440   21.4130 O   0  0  0  0  0  0  0  0  0  0  0  0
  -21.6600   -6.3340   22.5830 C   0  0  0  0  0  0  0  0  0  0  0  0
  -21.1530   -6.9080   23.7680 C   0  0  0  0  0  3  0  0  0  0  0  0
  -21.0180   -6.1230   24.9300 C   0  0  0  0  0  3  0  0  0  0  0  0
  -21.3800   -4.7630   24.9080 C   0  0  0  0  0  0  0  0  0  0  0  0
  -21.8820   -4.1870   23.7270 C   0  0  0  0  0  3  0  0  0  0  0  0
  -22.0190   -4.9700   22.5680 C   0  0  0  0  0  0  0  0  0  0  0  0
  -22.4820   -4.4040   21.4270 F   0  0  0  0  0  0  0  0  0  0  0  0
  -21.2440   -4.0070   26.0220 F   0  0  0  0  0  0  0  0  0  0  0  0
  -22.8630  -13.6850   21.2260 C   0  0  0  0  0  0  0  0  0  0  0  0
  -22.1860  -12.9640   22.1140 N   0  0  0  0  0  0  0  0  0  0  0  0
  -22.4080  -14.7320   20.7700 O   0  0  0  0  0  0  0  0  0  0  0  0
  -22.5710  -12.1160   22.5010 H   0  0  0  0  0  0  0  0  0  0  0  0
  -21.2680  -13.2650   22.4100 H   0  0  0  0  0  0  0  0  0  0  0  0
  -25.4400  -15.3590   20.2890 N   0  0  0  0  0  0  0  0  0  0  0  0
  -24.7000  -16.0230   20.4920 H   0  0  0  0  0  0  0  0  0  0  0  0
  -26.2780  -15.7960   19.9310 H   0  0  0  0  0  0  0  0  0  0  0  0
  -28.3150  -26.1740   20.1330 O   0  0  0  0  0  0  0  0  0  0  0  0
  -24.6240  -31.8870   23.2190 C   0  0  0  0  0  0  0  0  0  0  0  0
  -27.2110  -27.1380   20.1370 C   0  0  0  0  0  0  0  0  0  0  0  0
  -23.4380  -30.5120   21.5560 C   0  0  0  0  0  3  0  0  0  0  0  0
  -24.8910  -28.9420   20.1140 C   0  0  0  0  0  0  0  0  0  0  0  0
  -25.9950  -30.7580   21.4110 C   0  0  0  0  0  2  0  0  0  0  0  0
  -26.0690  -29.3640   20.7420 C   0  0  0  0  0  0  0  0  0  0  0  0
  -27.2230  -28.4790   20.7330 C   0  0  0  0  0  3  0  0  0  0  0  0
  -26.0070  -26.8450   19.4600 C   0  0  0  0  0  3  0  0  0  0  0  0
  -24.8790  -27.7030   19.4570 C   0  0  0  0  0  3  0  0  0  0  0  0
  -23.6660  -29.8510   20.1690 C   0  0  0  0  0  2  0  0  0  0  0  0
  -24.7060  -31.0760   22.1170 N   0  0  0  0  0  0  0  0  0  0  0  0
  -23.5340  -32.1600   23.7470 O   0  0  0  0  0  0  0  0  0  0  0  0
  -22.7560  -29.4920   22.5010 C   0  0  0  0  0  0  0  0  0  0  0  0
  -21.4280  -29.3170   22.3670 N   0  0  0  0  0  0  0  0  0  0  0  0
  -23.4250  -28.8590   23.3220 O   0  0  0  0  0  0  0  0  0  0  0  0
  -20.9420  -29.8720   21.6780 H   0  0  0  0  0  0  0  0  0  0  0  0
  -18.0500  -28.1050   22.8660 C   0  0  0  0  0  0  0  0  0  0  0  0
  -20.6100  -28.3650   23.1260 C   0  0  0  0  0  3  0  0  0  0  0  0
  -20.7100  -26.9450   22.5260 C   0  0  0  0  0  2  0  0  0  0  0  0
  -19.6060  -26.6370   21.5110 C   0  0  0  0  0  2  0  0  0  0  0  0
  -18.2260  -26.7700   22.1620 C   0  0  0  0  0  2  0  0  0  0  0  0
  -19.1690  -28.8590   23.3050 C   0  0  0  0  0  0  0  0  0  0  0  0
  -18.9500  -30.1060   23.9300 C   0  0  0  0  0  3  0  0  0  0  0  0
  -17.6450  -30.5990   24.1190 C   0  0  0  0  0  3  0  0  0  0  0  0
  -16.5400  -29.8380   23.6960 C   0  0  0  0  0  3  0  0  0  0  0  0
  -16.7450  -28.5950   23.0740 C   0  0  0  0  0  3  0  0  0  0  0  0
  -25.8940  -32.5220   23.8630 C   0  0  0  0  0  3  0  0  0  0  0  0
  -25.5740  -33.9170   24.2060 N   0  0  0  0  0  0  0  0  0  0  0  0
  -25.8730  -34.9830   23.4510 C   0  0  0  0  0  0  0  0  0  0  0  0
  -26.5100  -34.8950   22.3990 O   0  0  0  0  0  0  0  0  0  0  0  0
  -25.0000  -34.0590   25.0240 H   0  0  0  0  0  0  0  0  0  0  0  0
  -24.1000  -36.7540   23.1920 C   0  0  0  0  0  1  0  0  0  0  0  0
  -25.3870  -36.3640   23.9350 C   0  0  0  0  0  3  0  0  0  0  0  0
  -27.5400  -37.2930   24.6660 C   0  0  0  0  0  1  0  0  0  0  0  0
  -26.3960  -37.4340   23.7710 N   0  0  0  0  0  0  0  0  0  0  0  0
  -25.9810  -38.3480   23.9300 H   0  0  0  0  0  0  0  0  0  0  0  0
  -26.3930  -31.7470   25.1450 C   0  0  1  0  0  0  0  0  0  0  0  0
  -25.2830  -31.5040   26.1950 C   0  0  0  0  0  1  0  0  0  0  0  0
  -26.9840  -30.3720   24.7620 C   0  0  0  0  0  1  0  0  0  0  0  0
  -27.5320  -32.5390   25.8260 C   0  0  0  0  0  1  0  0  0  0  0  0
  2  1  2  0
  3  5  1  0
  3  7  1  0
  3  2  1  0
  4 50  1  0
  4  6  2  0
  6  1  1  0
  7  4  2  0
  8 21  1  0
  9 14  1  0
 10 11  1  0
 10  9  1  0
 12 11  1  0
 12 25  1  0
 12 13  1  0
 14  8  1  0
 14 13  1  0
 15  8  2  0
 16 18  1  0
 16 20  1  0
 17 19  1  0
 18 21  1  0
 20  2  1  0
 20 17  1  0
 21 19  1  0
 22 23  2  0
 23 42  1  0
 24 23  1  0
 24 27  1  0
 25 26  1  0
 25 22  1  0
 26 24  2  0
 27 28  1  0
 28 29  2  0
 30 33  1  0
 30 29  1  0
 31 30  2  0
 32 31  1  0
 32 27  2  0
 33 34  1  0
 34 35  1  0
 35 36  2  0
 37 36  1  0
 37 41  1  0
 38 37  2  0
 39 34  2  0
 39 38  1  0
 40 39  1  0
 42 43  1  0
 43 46  1  0
 43 45  1  0
 44 42  2  0
 47 22  1  0
 47 48  1  0
 49 47  1  0
 50 52  1  0
 51 62  2  0
 52 57  1  0
 53 61  1  0
 53 63  1  0
 54 60  1  0
 54 56  1  0
 55 61  1  0
 56 55  1  0
 57 56  2  0
 58 52  2  0
 59 58  1  0
 59 54  2  0
 60 53  1  0
 61 51  1  0
 63 65  2  0
 64 63  1  0
 66 64  1  0
 67 76  2  0
 67 72  1  0
 68 64  1  0
 68 72  1  0
 69 68  1  0
 70 71  1  0
 70 69  1  0
 71 67  1  0
 72 73  2  0
 73 74  1  0
 75 74  2  0
 76 75  1  0
 77 51  1  0
 77 78  1  0
 77 87  1  0
 78 81  1  0
 79 83  1  0
 79 78  1  0
 80 79  2  0
 83 82  1  0
 85 86  1  0
 85 83  1  0
 85 84  1  0
 87 90  1  1
 87 88  1  0
 89 87  1  0
M  ISO  4   4 101   8 100  21 100  50 101
M  END
>  <TORSDO>  (27) 
F 16

>  <SCORE>  (27) 
-15.779

>  <name>  (27) 
26

>  <ligand_id>  (27) 
26

>  <original_smiles>  (27) 
[H]c1nc(Oc2c([H])c([H])c3c(c2[H])C([H])([H])N(C(=O)C([H])(N([H])C(=O)C([H])(N([H])C([H])([H])[H])C([H])([H])[H])C(C([H])([H])[H])(C([H])([H])[H])C([H])([H])[H])C([H])(C(=O)N([H])C2([H])c4c([H])c([H])c([H])c([H])c4C([H])([H])C([H])([H])C2([H])[H])C3([H])[H])nc(C([H])([H])[H])c1C1([H])C([H])([H])C([H])([H])N(C(=O)N2C([H])([H])C([H])([H])C([H])([H])C([H])(n3nc(-c4c([H])c([H])c(Oc5c([H])c([H])c(F)c([H])c5F)c([H])c4[H])c(C(=O)N([H])[H])c3N([H])[H])C2([H])[H])C([H])([H])C1([H])[H]

>  <smiles>  (27) 
[H]c1nc(Oc2c([H])c([H])c3c(c2[H])C([H])([H])N(C(=O)C([H])(N([H])C(=O)C([H])(N([H])C([H])([H])[H])C([H])([H])[H])C(C([H])([H])[H])(C([H])([H])[H])C([H])([H])[H])C([H])(C(=O)N([H])C2([H])c4c([H])c([H])c([H])c([H])c4C([H])([H])C([H])([H])C2([H])[H])C3([H])[H])nc(C([H])([H])[H])c1C1([H])C([H])([H])C([H])([H])N(C(=O)N2C([H])([H])C([H])([H])C([H])([H])C([H])(n3nc(-c4c([H])c([H])c(Oc5c([H])c([H])c(F)c([H])c5F)c([H])c4[H])c(C(=O)N([H])[H])c3N([H])[H])C2([H])[H])C([H])([H])C1([H])[H]

$$$$
27:0:0
     RDKit          3D

102112  0  0  1  0  0  0  0  0999 V2000
  -27.9880  -24.1490   21.4590 C   0  0  0  0  0  0  0  0  0  0  0  0
  -29.1480  -24.8660   21.0580 C   0  0  0  0  0  0  0  0  0  0  0  0
  -27.9150  -22.7590   21.1690 C   0  0  0  0  0  0  0  0  0  0  0  0
  -30.1800  -24.1440   20.4120 C   0  0  0  0  0  0  0  0  0  0  0  0
  -29.0160  -22.1360   20.5320 C   0  0  0  0  0  0  0  0  0  0  0  0
  -26.8070  -24.8510   22.1330 C   0  0  0  0  0  1  0  0  0  0  0  0
  -26.6340  -21.9880   21.4770 C   0  0  0  0  0  1  0  0  0  0  0  0
  -31.4420  -24.8100   19.8910 C   0  0  0  0  0  1  0  0  0  0  0  0
  -30.1150  -22.8200   20.1800 N   0  0  0  0  0  0  0  0  0  0  0  0
  -29.0650  -19.7670   21.2210 C   0  0  0  0  0  2  0  0  0  0  0  0
  -29.6200  -20.4210   18.8810 C   0  0  0  0  0  2  0  0  0  0  0  0
  -27.6590  -18.8420   18.5680 C   0  0  0  0  0  2  0  0  0  0  0  0
  -29.6550  -17.9610   19.5040 C   0  0  0  0  0  3  0  0  0  0  0  0
  -28.7090  -18.3580   20.6540 C   0  0  0  0  0  3  0  0  0  0  0  0
  -29.1990  -18.9900   18.4500 C   0  0  2  0  0  0  0  0  0  0  0  0
  -29.7100  -18.6680   17.0360 C   0  0  0  0  0  1  0  0  0  0  0  0
  -28.9970  -20.7800   20.1620 N   0  0  0  0  0  0  0  0  0  0  0  0
  -27.4030  -18.4100   19.9630 N   0  0  0  0  0  4  0  0  0  0  0  0
  -26.9990  -17.4850   19.9440 H   0  0  0  0  0  0  0  0  0  0  0  0
  -26.7680  -19.0300   20.4350 H   0  0  0  0  0  0  0  0  0  0  0  0
  -31.1720  -17.8690   19.8190 C   0  0  0  0  0  2  0  0  0  0  0  0
  -31.5160  -16.9620   21.0210 C   0  0  0  0  0  2  0  0  0  0  0  0
  -31.4190  -14.6720   20.0180 C   0  0  0  0  0  0  0  0  0  0  0  0
  -31.0510  -12.3960   19.1400 C   0  0  0  0  0  2  0  0  0  0  0  0
  -30.0700  -12.3980   17.9530 C   0  0  0  0  0  2  0  0  0  0  0  0
  -28.6140  -12.3190   18.4470 C   0  0  0  0  0  2  0  0  0  0  0  0
  -28.3050  -13.3620   19.5520 C   0  0  0  0  0  3  0  0  0  0  0  0
  -29.3840  -13.3220   20.6560 C   0  0  0  0  0  2  0  0  0  0  0  0
  -30.7070  -13.5150   20.0290 N   0  0  0  0  0  0  0  0  0  0  0  0
  -32.4060  -14.8590   19.3010 O   0  0  0  0  0  0  0  0  0  0  0  0
  -30.9850  -15.6070   20.8720 N   0  0  0  0  0  0  0  0  0  0  0  0
  -30.2020  -15.3460   21.4530 H   0  0  0  0  0  0  0  0  0  0  0  0
  -26.0070  -14.1160   20.4410 C   0  0  0  0  0  0  0  0  0  0  0  0
  -24.9060  -13.4090   20.8480 C   0  0  0  0  0  0  0  0  0  0  0  0
  -25.2550  -12.0310   20.7220 C   0  0  0  0  0  0  0  0  0  0  0  0
  -26.9640  -13.1710   20.1030 N   0  0  0  0  0  0  0  0  0  0  0  0
  -26.5150  -11.9080   20.3250 N   0  0  0  0  0  0  0  0  0  0  0  0
  -24.4450  -10.8190   20.9010 C   0  0  0  0  0  0  0  0  0  0  0  0
  -24.8430   -9.7880   21.7800 C   0  0  0  0  0  3  0  0  0  0  0  0
  -24.0370   -8.6400   21.9490 C   0  0  0  0  0  3  0  0  0  0  0  0
  -22.8190   -8.5170   21.2390 C   0  0  0  0  0  0  0  0  0  0  0  0
  -22.4400   -9.5360   20.3470 C   0  0  0  0  0  3  0  0  0  0  0  0
  -23.2450  -10.6750   20.1760 C   0  0  0  0  0  3  0  0  0  0  0  0
  -21.9870   -7.4290   21.3200 O   0  0  0  0  0  0  0  0  0  0  0  0
  -21.8600   -6.7040   22.4790 C   0  0  0  0  0  0  0  0  0  0  0  0
  -21.4710   -7.3060   23.6950 C   0  0  0  0  0  3  0  0  0  0  0  0
  -21.2860   -6.5130   24.8460 C   0  0  0  0  0  3  0  0  0  0  0  0
  -21.4800   -5.1210   24.7810 C   0  0  0  0  0  0  0  0  0  0  0  0
  -21.8620   -4.5190   23.5690 C   0  0  0  0  0  3  0  0  0  0  0  0
  -22.0480   -5.3090   22.4210 C   0  0  0  0  0  0  0  0  0  0  0  0
  -22.3960   -4.7200   21.2510 F   0  0  0  0  0  0  0  0  0  0  0  0
  -21.2950   -4.3580   25.8830 F   0  0  0  0  0  0  0  0  0  0  0  0
  -23.5710  -13.9790   21.2310 C   0  0  0  0  0  0  0  0  0  0  0  0
  -22.8600  -13.3170   22.1390 N   0  0  0  0  0  0  0  0  0  0  0  0
  -23.1710  -15.0420   20.7600 O   0  0  0  0  0  0  0  0  0  0  0  0
  -23.1970  -12.4540   22.5380 H   0  0  0  0  0  0  0  0  0  0  0  0
  -21.9660  -13.6800   22.4380 H   0  0  0  0  0  0  0  0  0  0  0  0
  -26.2640  -15.4750   20.3010 N   0  0  0  0  0  0  0  0  0  0  0  0
  -25.4270  -16.0450   20.2450 H   0  0  0  0  0  0  0  0  0  0  0  0
  -26.9260  -15.7030   19.5690 H   0  0  0  0  0  0  0  0  0  0  0  0
  -29.2770  -26.3820   21.2300 C   0  0  0  0  0  2  0  0  0  0  0  0
  -28.8320  -27.0460   20.0540 O   0  0  0  0  0  0  0  0  0  0  0  0
  -24.6430  -31.7690   23.3680 C   0  0  0  0  0  0  0  0  0  0  0  0
  -27.6280  -27.6950   20.1360 C   0  0  0  0  0  0  0  0  0  0  0  0
  -23.5740  -30.4310   21.5780 C   0  0  0  0  0  3  0  0  0  0  0  0
  -25.1600  -29.0550   20.1320 C   0  0  0  0  0  0  0  0  0  0  0  0
  -26.0790  -30.9240   21.5180 C   0  0  0  0  0  2  0  0  0  0  0  0
  -26.2570  -29.5980   20.8120 C   0  0  0  0  0  0  0  0  0  0  0  0
  -27.4940  -28.9190   20.8250 C   0  0  0  0  0  3  0  0  0  0  0  0
  -26.5200  -27.1570   19.4530 C   0  0  0  0  0  3  0  0  0  0  0  0
  -25.2820  -27.8300   19.4530 C   0  0  0  0  0  3  0  0  0  0  0  0
  -23.8750  -29.8520   20.1680 C   0  0  0  0  0  2  0  0  0  0  0  0
  -24.7800  -31.0520   22.2160 N   0  0  0  0  0  0  0  0  0  0  0  0
  -23.5310  -31.9570   23.8780 O   0  0  0  0  0  0  0  0  0  0  0  0
  -22.9310  -29.3220   22.4410 C   0  0  0  0  0  0  0  0  0  0  0  0
  -21.6270  -29.0800   22.2300 N   0  0  0  0  0  0  0  0  0  0  0  0
  -23.6040  -28.6820   23.2540 O   0  0  0  0  0  0  0  0  0  0  0  0
  -21.1470  -29.6540   21.5510 H   0  0  0  0  0  0  0  0  0  0  0  0
  -18.3020  -27.6870   22.4450 C   0  0  0  0  0  0  0  0  0  0  0  0
  -20.8200  -28.0570   22.8930 C   0  0  0  0  0  3  0  0  0  0  0  0
  -21.0340  -26.6700   22.2430 C   0  0  0  0  0  2  0  0  0  0  0  0
  -20.0120  -26.3530   21.1460 C   0  0  0  0  0  2  0  0  0  0  0  0
  -18.5900  -26.3900   21.7100 C   0  0  0  0  0  2  0  0  0  0  0  0
  -19.3480  -28.4790   22.9870 C   0  0  0  0  0  0  0  0  0  0  0  0
  -19.0270  -29.6920   23.6310 C   0  0  0  0  0  3  0  0  0  0  0  0
  -17.6880  -30.1150   23.7420 C   0  0  0  0  0  3  0  0  0  0  0  0
  -16.6540  -29.3200   23.2190 C   0  0  0  0  0  3  0  0  0  0  0  0
  -16.9610  -28.1090   22.5750 C   0  0  0  0  0  3  0  0  0  0  0  0
  -25.8760  -32.4060   24.0830 C   0  0  0  0  0  3  0  0  0  0  0  0
  -26.2980  -31.6400   25.3960 C   0  0  1  0  0  0  0  0  0  0  0  0
  -25.1160  -31.3420   26.3470 C   0  0  0  0  0  1  0  0  0  0  0  0
  -26.9740  -30.2940   25.0430 C   0  0  0  0  0  1  0  0  0  0  0  0
  -27.3380  -32.4750   26.1800 C   0  0  0  0  0  1  0  0  0  0  0  0
  -25.5410  -33.8040   24.3810 N   0  0  0  0  0  0  0  0  0  0  0  0
  -25.9200  -34.8520   23.6380 C   0  0  0  0  0  0  0  0  0  0  0  0
  -26.6610  -34.7430   22.6560 O   0  0  0  0  0  0  0  0  0  0  0  0
  -24.8930  -33.9600   25.1390 H   0  0  0  0  0  0  0  0  0  0  0  0
  -24.2020  -36.6240   23.1520 C   0  0  0  0  0  1  0  0  0  0  0  0
  -25.3930  -36.2400   24.0460 C   0  0  0  0  0  3  0  0  0  0  0  0
  -27.4690  -37.1530   24.9860 C   0  0  0  0  0  1  0  0  0  0  0  0
  -26.4190  -37.3020   23.9810 N   0  0  0  0  0  0  0  0  0  0  0  0
  -25.9970  -38.2190   24.0960 H   0  0  0  0  0  0  0  0  0  0  0  0
  1  6  1  0
  2 61  1  0
  2  1  2  0
  3  1  1  0
  3  7  1  0
  4  2  1  0
  5  3  2  0
  8  4  1  0
  9  4  2  0
  9  5  1  0
 11 17  1  0
 12 18  1  0
 13 21  1  0
 13 14  1  0
 14 10  1  0
 15 16  1  6
 15 12  1  0
 15 11  1  0
 15 13  1  0
 17  5  1  0
 17 10  1  0
 18 20  1  0
 18 14  1  0
 19 18  1  0
 21 22  1  0
 23 29  1  0
 23 31  1  0
 24 29  1  0
 25 26  1  0
 25 24  1  0
 27 26  1  0
 27 36  1  0
 27 28  1  0
 29 28  1  0
 30 23  2  0
 31 22  1  0
 31 32  1  0
 33 34  2  0
 34 53  1  0
 35 34  1  0
 35 38  1  0
 36 37  1  0
 36 33  1  0
 37 35  2  0
 38 39  1  0
 39 40  2  0
 41 44  1  0
 41 40  1  0
 42 41  2  0
 43 42  1  0
 43 38  2  0
 44 45  1  0
 45 46  1  0
 46 47  2  0
 48 47  1  0
 48 52  1  0
 49 48  2  0
 50 45  2  0
 50 49  1  0
 51 50  1  0
 53 54  1  0
 54 57  1  0
 54 56  1  0
 55 53  2  0
 58 33  1  0
 59 58  1  0
 60 58  1  0
 62 64  1  0
 62 61  1  0
 63 74  2  0
 64 69  1  0
 65 73  1  0
 65 75  1  0
 66 72  1  0
 66 68  1  0
 67 73  1  0
 68 69  2  0
 68 67  1  0
 70 64  2  0
 71 70  1  0
 71 66  2  0
 72 65  1  0
 73 63  1  0
 75 77  2  0
 76 75  1  0
 78 76  1  0
 79 88  2  0
 79 84  1  0
 80 76  1  0
 80 84  1  0
 81 80  1  0
 82 83  1  0
 82 81  1  0
 83 79  1  0
 84 85  2  0
 85 86  1  0
 87 86  2  0
 88 87  1  0
 89 63  1  0
 89 94  1  0
 89 90  1  0
 90 93  1  1
 90 91  1  0
 92 90  1  0
 94 97  1  0
 95 99  1  0
 95 94  1  0
 96 95  2  0
 99 98  1  0
101 99  1  0
101102  1  0
101100  1  0
M  ISO  4  23 100  31 100  61 101  62 101
M  END
>  <TORSDO>  (28) 
F 20

>  <SCORE>  (28) 
-12.319

>  <name>  (28) 
27

>  <ligand_id>  (28) 
27

>  <original_smiles>  (28) 
[H]c1c([H])c([H])c2c(c1[H])C([H])([H])C([H])([H])C([H])([H])C2([H])N([H])C(=O)C1([H])N(C(=O)C([H])(N([H])C(=O)C([H])(N([H])C([H])([H])[H])C([H])([H])[H])C(C([H])([H])[H])(C([H])([H])[H])C([H])([H])[H])C([H])([H])c2c([H])c(OC([H])([H])c3c(C([H])([H])[H])nc(N4C([H])([H])C5(C([H])([H])[H])C([H])(C([H])([H])C([H])([H])N([H])C(=O)N6C([H])([H])C([H])([H])C([H])([H])C([H])(n7nc(-c8c([H])c([H])c(Oc9c([H])c([H])c(F)c([H])c9F)c([H])c8[H])c(C(=O)N([H])[H])c7N([H])[H])C6([H])[H])C([H])(C4([H])[H])[N+]([H])([H])C5([H])[H])c(C([H])([H])[H])c3C([H])([H])[H])c([H])c([H])c2C1([H])[H]

>  <smiles>  (28) 
[H]c1c([H])c([H])c2c(c1[H])C([H])([H])C([H])([H])C([H])([H])C2([H])N([H])C(=O)C1([H])N(C(=O)C([H])(N([H])C(=O)C([H])(N([H])C([H])([H])[H])C([H])([H])[H])C(C([H])([H])[H])(C([H])([H])[H])C([H])([H])[H])C([H])([H])c2c([H])c(OC([H])([H])c3c(C([H])([H])[H])nc(N4C([H])([H])C5(C([H])([H])[H])C([H])(C([H])([H])C([H])([H])N([H])C(=O)N6C([H])([H])C([H])([H])C([H])([H])C([H])(n7nc(-c8c([H])c([H])c(Oc9c([H])c([H])c(F)c([H])c9F)c([H])c8[H])c(C(=O)N([H])[H])c7N([H])[H])C6([H])[H])C([H])(C4([H])[H])[N+]([H])([H])C5([H])[H])c(C([H])([H])[H])c3C([H])([H])[H])c([H])c([H])c2C1([H])[H]

$$$$
28:0:0
     RDKit          3D

101111  0  0  1  0  0  0  0  0999 V2000
  -30.8520  -20.0330   22.9110 C   0  0  0  0  0  0  0  0  0  0  0  0
  -30.0620  -21.2040   22.7830 C   0  0  0  0  0  0  0  0  0  0  0  0
  -30.9470  -19.1380   21.8010 C   0  0  0  0  0  0  0  0  0  0  0  0
  -29.3060  -21.3630   21.5990 C   0  0  0  0  0  0  0  0  0  0  0  0
  -30.1750  -19.4300   20.6360 C   0  0  0  0  0  0  0  0  0  0  0  0
  -31.5440  -19.7140   24.2460 C   0  0  0  0  0  1  0  0  0  0  0  0
  -30.0280  -22.2710   23.8750 C   0  0  0  0  0  1  0  0  0  0  0  0
  -31.8600  -17.9080   21.9120 C   0  0  0  0  0  1  0  0  0  0  0  0
  -29.3950  -20.5220   20.5710 N   0  0  0  0  0  0  0  0  0  0  0  0
  -30.7930  -14.6540   20.1820 C   0  0  0  0  0  0  0  0  0  0  0  0
  -30.5080  -12.4280   19.2380 C   0  0  0  0  0  2  0  0  0  0  0  0
  -29.5440  -12.5650   18.0350 C   0  0  0  0  0  2  0  0  0  0  0  0
  -28.0800  -12.3860   18.4980 C   0  0  0  0  0  2  0  0  0  0  0  0
  -27.7460  -13.3070   19.6910 C   0  0  0  0  0  3  0  0  0  0  0  0
  -28.8250  -13.2200   20.8010 C   0  0  0  0  0  2  0  0  0  0  0  0
  -30.1380  -13.4690   20.1960 N   0  0  0  0  0  0  0  0  0  0  0  0
  -32.0090  -14.7490   20.0100 O   0  0  0  0  0  0  0  0  0  0  0  0
  -28.6140  -17.6690   19.7960 C   0  0  0  0  0  2  0  0  0  0  0  0
  -29.0190  -16.3570   20.4650 C   0  0  0  0  0  2  0  0  0  0  0  0
  -30.4550  -16.2860   18.4100 C   0  0  0  0  0  2  0  0  0  0  0  0
  -29.8460  -18.5220   19.4320 C   0  0  0  0  0  3  0  0  0  0  0  0
  -30.9670  -17.7080   18.7110 C   0  0  0  0  0  3  0  0  0  0  0  0
  -31.4900  -18.3700   17.4260 C   0  0  0  0  0  1  0  0  0  0  0  0
  -30.0170  -15.6290   19.6590 N   0  0  0  0  0  0  0  0  0  0  0  0
  -25.3950  -13.9400   20.5250 C   0  0  0  0  0  0  0  0  0  0  0  0
  -24.3310  -13.1610   20.8970 C   0  0  0  0  0  0  0  0  0  0  0  0
  -24.7780  -11.8110   20.8010 C   0  0  0  0  0  0  0  0  0  0  0  0
  -26.4140  -13.0490   20.2200 N   0  0  0  0  0  0  0  0  0  0  0  0
  -26.0550  -11.7650   20.4590 N   0  0  0  0  0  0  0  0  0  0  0  0
  -24.0540  -10.5440   20.9500 C   0  0  0  0  0  0  0  0  0  0  0  0
  -24.4960   -9.5470   21.8480 C   0  0  0  0  0  3  0  0  0  0  0  0
  -23.7770   -8.3430   21.9900 C   0  0  0  0  0  3  0  0  0  0  0  0
  -22.6020   -8.1280   21.2330 C   0  0  0  0  0  0  0  0  0  0  0  0
  -22.1760   -9.1140   20.3270 C   0  0  0  0  0  3  0  0  0  0  0  0
  -22.8940  -10.3130   20.1820 C   0  0  0  0  0  3  0  0  0  0  0  0
  -21.8540   -6.9780   21.2840 O   0  0  0  0  0  0  0  0  0  0  0  0
  -21.7900   -6.2140   22.4200 C   0  0  0  0  0  0  0  0  0  0  0  0
  -21.3410   -6.7410   23.6530 C   0  0  0  0  0  3  0  0  0  0  0  0
  -21.2270   -5.9000   24.7760 C   0  0  0  0  0  3  0  0  0  0  0  0
  -21.5500   -4.5350   24.6700 C   0  0  0  0  0  0  0  0  0  0  0  0
  -21.9960   -4.0090   23.4440 C   0  0  0  0  0  3  0  0  0  0  0  0
  -22.1120   -4.8460   22.3210 C   0  0  0  0  0  0  0  0  0  0  0  0
  -22.5210   -4.3310   21.1350 F   0  0  0  0  0  0  0  0  0  0  0  0
  -21.4340   -3.7260   25.7470 F   0  0  0  0  0  0  0  0  0  0  0  0
  -22.9450  -13.6350   21.2280 C   0  0  0  0  0  0  0  0  0  0  0  0
  -22.2460  -12.9140   22.1010 N   0  0  0  0  0  0  0  0  0  0  0  0
  -22.4890  -14.6690   20.7460 O   0  0  0  0  0  0  0  0  0  0  0  0
  -22.6330  -12.0700   22.5000 H   0  0  0  0  0  0  0  0  0  0  0  0
  -21.3170  -13.2090   22.3780 H   0  0  0  0  0  0  0  0  0  0  0  0
  -25.5760  -15.3110   20.4010 N   0  0  0  0  0  0  0  0  0  0  0  0
  -24.8220  -15.9680   20.5690 H   0  0  0  0  0  0  0  0  0  0  0  0
  -26.4140  -15.7460   20.0310 H   0  0  0  0  0  0  0  0  0  0  0  0
  -27.1090  -22.5000   21.7570 C   0  0  0  0  0  3  0  0  0  0  0  0
  -28.3870  -22.4820   21.3230 C   0  0  0  0  0  0  0  0  0  0  0  0
  -26.1250  -23.6260   21.4500 C   0  0  0  0  0  2  0  0  0  0  0  0
  -28.9140  -23.5780   20.4280 C   0  0  0  0  0  2  0  0  0  0  0  0
  -26.6570  -24.6330   20.4110 C   0  0  0  0  0  2  0  0  0  0  0  0
  -28.1790  -24.9200   20.5790 C   0  0  1  0  0  0  0  0  0  0  0  0
  -28.4450  -25.5320   21.9740 C   0  0  0  0  0  1  0  0  0  0  0  0
  -28.8070  -25.8410   19.4890 C   0  0  0  0  0  2  0  0  0  0  0  0
  -28.7170  -27.2330   19.7740 O   0  0  0  0  0  0  0  0  0  0  0  0
  -24.4780  -31.8380   23.1330 C   0  0  0  0  0  0  0  0  0  0  0  0
  -27.4870  -27.8310   19.7920 C   0  0  0  0  0  0  0  0  0  0  0  0
  -23.4160  -30.4690   21.3740 C   0  0  0  0  0  3  0  0  0  0  0  0
  -24.9960  -29.1340   19.9120 C   0  0  0  0  0  0  0  0  0  0  0  0
  -25.9200  -31.0190   21.2700 C   0  0  0  0  0  2  0  0  0  0  0  0
  -26.1120  -29.7030   20.5450 C   0  0  0  0  0  0  0  0  0  0  0  0
  -27.3610  -29.0520   20.4840 C   0  0  0  0  0  3  0  0  0  0  0  0
  -26.3540  -27.2900   19.1360 C   0  0  0  0  0  3  0  0  0  0  0  0
  -25.1040  -27.9160   19.2300 C   0  0  0  0  0  3  0  0  0  0  0  0
  -23.7080  -29.9060   19.9620 C   0  0  0  0  0  2  0  0  0  0  0  0
  -24.6250  -31.1110   21.9880 N   0  0  0  0  0  0  0  0  0  0  0  0
  -23.3650  -32.0010   23.6500 O   0  0  0  0  0  0  0  0  0  0  0  0
  -22.8100  -29.3430   22.2410 C   0  0  0  0  0  0  0  0  0  0  0  0
  -21.4900  -29.1270   22.1150 N   0  0  0  0  0  0  0  0  0  0  0  0
  -23.5250  -28.6730   22.9900 O   0  0  0  0  0  0  0  0  0  0  0  0
  -20.9810  -29.7280   21.4860 H   0  0  0  0  0  0  0  0  0  0  0  0
  -18.1550  -27.8320   22.6030 C   0  0  0  0  0  0  0  0  0  0  0  0
  -20.7170  -28.1010   22.8130 C   0  0  0  0  0  3  0  0  0  0  0  0
  -20.8140  -26.7380   22.0880 C   0  0  0  0  0  2  0  0  0  0  0  0
  -19.6810  -26.5040   21.0870 C   0  0  0  0  0  2  0  0  0  0  0  0
  -18.3230  -26.5600   21.7930 C   0  0  0  0  0  2  0  0  0  0  0  0
  -19.2770  -28.5620   23.0750 C   0  0  0  0  0  0  0  0  0  0  0  0
  -19.0600  -29.7480   23.8080 C   0  0  0  0  0  3  0  0  0  0  0  0
  -17.7540  -30.2100   24.0640 C   0  0  0  0  0  3  0  0  0  0  0  0
  -16.6470  -29.4750   23.6050 C   0  0  0  0  0  3  0  0  0  0  0  0
  -16.8470  -28.2890   22.8780 C   0  0  0  0  0  3  0  0  0  0  0  0
  -25.7050  -32.5110   23.8260 C   0  0  0  0  0  3  0  0  0  0  0  0
  -25.3330  -33.9020   24.1210 N   0  0  0  0  0  0  0  0  0  0  0  0
  -25.6770  -34.9520   23.3650 C   0  0  0  0  0  0  0  0  0  0  0  0
  -26.4070  -34.8530   22.3740 O   0  0  0  0  0  0  0  0  0  0  0  0
  -24.6770  -34.0490   24.8720 H   0  0  0  0  0  0  0  0  0  0  0  0
  -23.9130  -36.6800   22.8920 C   0  0  0  0  0  1  0  0  0  0  0  0
  -25.1240  -36.3290   23.7710 C   0  0  0  0  0  3  0  0  0  0  0  0
  -27.1870  -37.2960   24.6870 C   0  0  0  0  0  1  0  0  0  0  0  0
  -26.1270  -37.4100   23.6910 N   0  0  0  0  0  0  0  0  0  0  0  0
  -25.6890  -38.3210   23.7970 H   0  0  0  0  0  0  0  0  0  0  0  0
  -26.1650  -31.7610   25.1370 C   0  0  1  0  0  0  0  0  0  0  0  0
  -25.0140  -31.4930   26.1300 C   0  0  0  0  0  1  0  0  0  0  0  0
  -26.7990  -30.3930   24.7910 C   0  0  0  0  0  1  0  0  0  0  0  0
  -27.2580  -32.5810   25.8580 C   0  0  0  0  0  1  0  0  0  0  0  0
  1  6  1  0
  2  1  1  0
  2  7  1  0
  3  8  1  0
  3  1  2  0
  4  2  2  0
  5  3  1  0
  9  5  2  0
  9  4  1  0
 10 16  1  0
 11 16  1  0
 12 13  1  0
 12 11  1  0
 14 13  1  0
 14 28  1  0
 14 15  1  0
 16 15  1  0
 17 10  2  0
 18 19  1  0
 20 22  1  0
 20 24  1  0
 21 18  1  0
 21  5  1  0
 22 23  1  0
 22 21  1  0
 24 10  1  0
 24 19  1  0
 25 26  2  0
 26 45  1  0
 27 26  1  0
 27 30  1  0
 28 29  1  0
 28 25  1  0
 29 27  2  0
 30 31  1  0
 31 32  2  0
 33 36  1  0
 33 32  1  0
 34 33  2  0
 35 34  1  0
 35 30  2  0
 36 37  1  0
 37 38  1  0
 38 39  2  0
 40 39  1  0
 40 44  1  0
 41 40  2  0
 42 37  2  0
 42 41  1  0
 43 42  1  0
 45 46  1  0
 46 49  1  0
 46 48  1  0
 47 45  2  0
 50 25  1  0
 50 51  1  0
 52 50  1  0
 54  4  1  0
 54 53  2  0
 55 53  1  0
 56 58  1  0
 56 54  1  0
 57 58  1  0
 57 55  1  0
 58 59  1  1
 60 61  1  0
 60 58  1  0
 61 63  1  0
 62 73  2  0
 63 68  1  0
 64 72  1  0
 64 74  1  0
 65 71  1  0
 65 67  1  0
 66 72  1  0
 67 66  1  0
 68 67  2  0
 69 70  1  0
 69 63  2  0
 70 65  2  0
 71 64  1  0
 72 62  1  0
 74 76  2  0
 75 74  1  0
 77 75  1  0
 78 87  2  0
 78 83  1  0
 79 75  1  0
 79 83  1  0
 80 79  1  0
 81 82  1  0
 81 80  1  0
 82 78  1  0
 83 84  2  0
 84 85  1  0
 86 85  2  0
 87 86  1  0
 88 62  1  0
 88 89  1  0
 88 98  1  0
 89 92  1  0
 90 94  1  0
 90 89  1  0
 91 90  2  0
 94 93  1  0
 96 94  1  0
 96 97  1  0
 96 95  1  0
 98101  1  1
 98 99  1  0
100 98  1  0
M  ISO  4  10 100  24 100  60 101  61 101
M  END
>  <TORSDO>  (29) 
F 18

>  <SCORE>  (29) 
-13.875

>  <name>  (29) 
28

>  <ligand_id>  (29) 
28

>  <original_smiles>  (29) 
[H]C1=C(c2nc(C3([H])C([H])([H])C([H])([H])N(C(=O)N4C([H])([H])C([H])([H])C([H])([H])C([H])(n5nc(-c6c([H])c([H])c(Oc7c([H])c([H])c(F)c([H])c7F)c([H])c6[H])c(C(=O)N([H])[H])c5N([H])[H])C4([H])[H])C([H])([H])C3([H])C([H])([H])[H])c(C([H])([H])[H])c(C([H])([H])[H])c2C([H])([H])[H])C([H])([H])C(C([H])([H])[H])(C([H])([H])Oc2c([H])c([H])c3c(c2[H])C([H])([H])N(C(=O)C([H])(N([H])C(=O)C([H])(N([H])C([H])([H])[H])C([H])([H])[H])C(C([H])([H])[H])(C([H])([H])[H])C([H])([H])[H])C([H])(C(=O)N([H])C2([H])c4c([H])c([H])c([H])c([H])c4C([H])([H])C([H])([H])C2([H])[H])C3([H])[H])C([H])([H])C1([H])[H]

>  <smiles>  (29) 
[H]C1=C(c2nc(C3([H])C([H])([H])C([H])([H])N(C(=O)N4C([H])([H])C([H])([H])C([H])([H])C([H])(n5nc(-c6c([H])c([H])c(Oc7c([H])c([H])c(F)c([H])c7F)c([H])c6[H])c(C(=O)N([H])[H])c5N([H])[H])C4([H])[H])C([H])([H])C3([H])C([H])([H])[H])c(C([H])([H])[H])c(C([H])([H])[H])c2C([H])([H])[H])C([H])([H])C(C([H])([H])[H])(C([H])([H])Oc2c([H])c([H])c3c(c2[H])C([H])([H])N(C(=O)C([H])(N([H])C(=O)C([H])(N([H])C([H])([H])[H])C([H])([H])[H])C(C([H])([H])[H])(C([H])([H])[H])C([H])([H])[H])C([H])(C(=O)N([H])C2([H])c4c([H])c([H])c([H])c([H])c4C([H])([H])C([H])([H])C2([H])[H])C3([H])[H])C([H])([H])C1([H])[H]

$$$$
29:0:0
     RDKit          3D

 95104  0  0  1  0  0  0  0  0999 V2000
  -29.6870  -20.9300   21.5700 C   0  0  0  0  0  2  0  0  0  0  0  0
  -28.5740  -20.7550   19.3610 C   0  0  0  0  0  2  0  0  0  0  0  0
  -29.0080  -22.3090   21.7670 C   0  0  0  0  0  2  0  0  0  0  0  0
  -28.8640  -19.9720   20.6760 C   0  0  0  0  0  3  0  0  0  0  0  0
  -27.9220  -22.1550   19.5790 C   0  0  0  0  0  3  0  0  0  0  0  0
  -27.6210  -22.8140   18.2190 C   0  0  0  0  0  1  0  0  0  0  0  0
  -28.7510  -23.0210   20.4810 N   0  0  1  0  0  4  0  0  0  0  0  0
  -29.6560  -23.1450   20.0470 H   0  0  0  0  0  0  0  0  0  0  0  0
  -30.8330  -14.5700   20.1200 C   0  0  0  0  0  0  0  0  0  0  0  0
  -30.4600  -12.4010   19.0140 C   0  0  0  0  0  2  0  0  0  0  0  0
  -29.4710  -12.6020   17.8480 C   0  0  0  0  0  2  0  0  0  0  0  0
  -28.0190  -12.4690   18.3450 C   0  0  0  0  0  2  0  0  0  0  0  0
  -27.7360  -13.3080   19.6200 C   0  0  0  0  0  3  0  0  0  0  0  0
  -28.8440  -13.1250   20.6820 C   0  0  0  0  0  2  0  0  0  0  0  0
  -30.1340  -13.4070   20.0360 N   0  0  0  0  0  0  0  0  0  0  0  0
  -31.9870  -14.6790   19.6950 O   0  0  0  0  0  0  0  0  0  0  0  0
  -29.9560  -16.5550   19.1520 C   0  0  0  0  0  2  0  0  0  0  0  0
  -30.4260  -16.4880   21.5520 C   0  0  0  0  0  2  0  0  0  0  0  0
  -29.0770  -17.8060   19.3580 C   0  0  0  0  0  2  0  0  0  0  0  0
  -29.5890  -17.7900   21.7210 C   0  0  0  0  0  2  0  0  0  0  0  0
  -30.1060  -15.6980   20.3460 N   0  0  0  0  0  0  0  0  0  0  0  0
  -29.5570  -18.6360   20.4930 N   0  0  2  0  0  4  0  0  0  0  0  0
  -30.5190  -18.8520   20.2760 H   0  0  0  0  0  0  0  0  0  0  0  0
  -25.3860  -13.8980   20.4780 C   0  0  0  0  0  0  0  0  0  0  0  0
  -24.3340  -13.1200   20.8770 C   0  0  0  0  0  0  0  0  0  0  0  0
  -24.7840  -11.7680   20.7810 C   0  0  0  0  0  0  0  0  0  0  0  0
  -26.4120  -13.0200   20.1660 N   0  0  0  0  0  0  0  0  0  0  0  0
  -26.0570  -11.7310   20.4070 N   0  0  0  0  0  0  0  0  0  0  0  0
  -24.0600  -10.5040   20.9680 C   0  0  0  0  0  0  0  0  0  0  0  0
  -24.4890   -9.5360   21.9030 C   0  0  0  0  0  3  0  0  0  0  0  0
  -23.7640   -8.3380   22.0780 C   0  0  0  0  0  3  0  0  0  0  0  0
  -22.5950   -8.0980   21.3190 C   0  0  0  0  0  0  0  0  0  0  0  0
  -22.1840   -9.0530   20.3730 C   0  0  0  0  0  3  0  0  0  0  0  0
  -22.9110  -10.2440   20.1950 C   0  0  0  0  0  3  0  0  0  0  0  0
  -21.8410   -6.9530   21.4030 O   0  0  0  0  0  0  0  0  0  0  0  0
  -21.7280   -6.2510   22.5770 C   0  0  0  0  0  0  0  0  0  0  0  0
  -21.2000   -6.8380   23.7470 C   0  0  0  0  0  3  0  0  0  0  0  0
  -21.0360   -6.0630   24.9130 C   0  0  0  0  0  3  0  0  0  0  0  0
  -21.3900   -4.7010   24.9070 C   0  0  0  0  0  0  0  0  0  0  0  0
  -21.9090   -4.1130   23.7410 C   0  0  0  0  0  3  0  0  0  0  0  0
  -22.0760   -4.8850   22.5780 C   0  0  0  0  0  0  0  0  0  0  0  0
  -22.5570   -4.3090   21.4500 F   0  0  0  0  0  0  0  0  0  0  0  0
  -21.2250   -3.9530   26.0240 F   0  0  0  0  0  0  0  0  0  0  0  0
  -22.9560  -13.5950   21.2360 C   0  0  0  0  0  0  0  0  0  0  0  0
  -22.2660  -12.8730   22.1120 N   0  0  0  0  0  0  0  0  0  0  0  0
  -22.5020  -14.6420   20.7770 O   0  0  0  0  0  0  0  0  0  0  0  0
  -22.6470  -12.0240   22.5040 H   0  0  0  0  0  0  0  0  0  0  0  0
  -21.3450  -13.1730   22.3960 H   0  0  0  0  0  0  0  0  0  0  0  0
  -25.5540  -15.2720   20.3330 N   0  0  0  0  0  0  0  0  0  0  0  0
  -24.8030  -15.9330   20.4910 H   0  0  0  0  0  0  0  0  0  0  0  0
  -26.3920  -15.7020   19.9650 H   0  0  0  0  0  0  0  0  0  0  0  0
  -28.2330  -24.4200   20.7110 C   0  0  0  0  0  2  0  0  0  0  0  0
  -30.3120  -25.3740   19.5490 C   0  0  0  0  0  1  0  0  0  0  0  0
  -28.7920  -25.5080   19.7370 C   0  0  0  0  0  3  0  0  0  0  0  0
  -28.6170  -26.8400   20.2630 O   0  0  0  0  0  0  0  0  0  0  0  0
  -24.6510  -31.9310   23.2500 C   0  0  0  0  0  0  0  0  0  0  0  0
  -27.4020  -27.5020   20.2220 C   0  0  0  0  0  0  0  0  0  0  0  0
  -23.4810  -30.4950   21.6080 C   0  0  0  0  0  3  0  0  0  0  0  0
  -24.9720  -28.9670   20.2050 C   0  0  0  0  0  0  0  0  0  0  0  0
  -25.9980  -30.8950   21.4230 C   0  0  0  0  0  2  0  0  0  0  0  0
  -26.1140  -29.5180   20.7990 C   0  0  0  0  0  0  0  0  0  0  0  0
  -27.3260  -28.7900   20.8050 C   0  0  0  0  0  3  0  0  0  0  0  0
  -26.2370  -26.9670   19.6230 C   0  0  0  0  0  3  0  0  0  0  0  0
  -25.0310  -27.6940   19.6150 C   0  0  0  0  0  3  0  0  0  0  0  0
  -23.7090  -29.8010   20.2380 C   0  0  0  0  0  2  0  0  0  0  0  0
  -24.7280  -31.1240   22.1530 N   0  0  0  0  0  0  0  0  0  0  0  0
  -23.5620  -32.1880   23.7810 O   0  0  0  0  0  0  0  0  0  0  0  0
  -22.8400  -29.4720   22.5740 C   0  0  0  0  0  0  0  0  0  0  0  0
  -21.5200  -29.2670   22.4370 N   0  0  0  0  0  0  0  0  0  0  0  0
  -23.5280  -28.8640   23.3980 O   0  0  0  0  0  0  0  0  0  0  0  0
  -21.0260  -29.8110   21.7440 H   0  0  0  0  0  0  0  0  0  0  0  0
  -18.1600  -28.0280   22.9220 C   0  0  0  0  0  0  0  0  0  0  0  0
  -20.7130  -28.3170   23.2030 C   0  0  0  0  0  3  0  0  0  0  0  0
  -20.8370  -26.8880   22.6270 C   0  0  0  0  0  2  0  0  0  0  0  0
  -19.7420  -26.5520   21.6080 C   0  0  0  0  0  2  0  0  0  0  0  0
  -18.3560  -26.6810   22.2460 C   0  0  0  0  0  2  0  0  0  0  0  0
  -19.2680  -28.8030   23.3560 C   0  0  0  0  0  0  0  0  0  0  0  0
  -19.0320  -30.0640   23.9430 C   0  0  0  0  0  3  0  0  0  0  0  0
  -17.7230  -30.5530   24.1020 C   0  0  0  0  0  3  0  0  0  0  0  0
  -16.6280  -29.7740   23.6860 C   0  0  0  0  0  3  0  0  0  0  0  0
  -16.8480  -28.5130   23.1030 C   0  0  0  0  0  3  0  0  0  0  0  0
  -25.9210  -32.5860   23.8770 C   0  0  0  0  0  3  0  0  0  0  0  0
  -25.5890  -33.9810   24.1920 N   0  0  0  0  0  0  0  0  0  0  0  0
  -25.9200  -35.0340   23.4310 C   0  0  0  0  0  0  0  0  0  0  0  0
  -26.6070  -34.9310   22.4100 O   0  0  0  0  0  0  0  0  0  0  0  0
  -24.9760  -34.1350   24.9790 H   0  0  0  0  0  0  0  0  0  0  0  0
  -24.1740  -36.7990   23.0310 C   0  0  0  0  0  1  0  0  0  0  0  0
  -25.4050  -36.4170   23.8690 C   0  0  0  0  0  3  0  0  0  0  0  0
  -27.5090  -37.3340   24.7380 C   0  0  0  0  0  1  0  0  0  0  0  0
  -26.4250  -37.4840   23.7710 N   0  0  0  0  0  0  0  0  0  0  0  0
  -26.0030  -38.4000   23.9080 H   0  0  0  0  0  0  0  0  0  0  0  0
  -26.4410  -31.8330   25.1620 C   0  0  1  0  0  0  0  0  0  0  0  0
  -25.3370  -31.5630   26.2120 C   0  0  0  0  0  1  0  0  0  0  0  0
  -27.0720  -30.4730   24.7790 C   0  0  0  0  0  1  0  0  0  0  0  0
  -27.5580  -32.6620   25.8410 C   0  0  0  0  0  1  0  0  0  0  0  0
  1  3  1  0
  2  5  1  0
  4  2  1  0
  4  1  1  0
  5  6  1  0
  5  7  1  0
  7 52  1  0
  7  3  1  0
  7  8  1  6
  9 21  1  0
 10 15  1  0
 11 12  1  0
 11 10  1  0
 13 12  1  0
 13 27  1  0
 13 14  1  0
 15  9  1  0
 15 14  1  0
 16  9  2  0
 17 19  1  0
 17 21  1  0
 18 20  1  0
 19 22  1  0
 21 18  1  0
 22 23  1  6
 22  4  1  0
 22 20  1  0
 24 25  2  0
 25 44  1  0
 26 25  1  0
 26 29  1  0
 27 28  1  0
 27 24  1  0
 28 26  2  0
 29 30  1  0
 30 31  2  0
 32 35  1  0
 32 31  1  0
 33 32  2  0
 34 33  1  0
 34 29  2  0
 35 36  1  0
 36 41  2  0
 36 37  1  0
 37 38  2  0
 39 38  1  0
 39 43  1  0
 40 39  2  0
 41 40  1  0
 42 41  1  0
 44 45  1  0
 45 48  1  0
 45 47  1  0
 46 44  2  0
 49 24  1  0
 49 50  1  0
 51 49  1  0
 54 53  1  0
 54 55  1  0
 54 52  1  0
 56 67  2  0
 57 55  1  0
 57 62  1  0
 58 66  1  0
 58 68  1  0
 59 65  1  0
 59 61  1  0
 60 66  1  0
 61 62  2  0
 61 60  1  0
 63 57  2  0
 64 63  1  0
 64 59  2  0
 65 58  1  0
 66 56  1  0
 68 70  2  0
 69 68  1  0
 71 69  1  0
 72 81  2  0
 72 77  1  0
 73 69  1  0
 73 77  1  0
 74 73  1  0
 75 76  1  0
 75 74  1  0
 76 72  1  0
 77 78  2  0
 78 79  1  0
 80 79  2  0
 81 80  1  0
 82 56  1  0
 82 83  1  0
 82 92  1  0
 83 86  1  0
 84 88  1  0
 84 83  1  0
 85 84  2  0
 88 87  1  0
 90 88  1  0
 90 91  1  0
 90 89  1  0
 92 95  1  1
 92 93  1  0
 94 92  1  0
M  ISO  4   9 100  21 100  54 101  55 101
M  END
>  <TORSDO>  (30) 
F 18

>  <SCORE>  (30) 
-14.599

>  <name>  (30) 
29

>  <ligand_id>  (30) 
29

>  <original_smiles>  (30) 
[H]c1c([H])c([H])c2c(c1[H])C([H])([H])C([H])([H])C([H])([H])C2([H])N([H])C(=O)C1([H])N(C(=O)C([H])(N([H])C(=O)C([H])(N([H])C([H])([H])[H])C([H])([H])[H])C(C([H])([H])[H])(C([H])([H])[H])C([H])([H])[H])C([H])([H])c2c([H])c(OC([H])(C([H])([H])[H])C([H])([H])[N+]3([H])C([H])([H])C([H])([H])C([H])([N+]4([H])C([H])([H])C([H])([H])N(C(=O)N5C([H])([H])C([H])([H])C([H])([H])C([H])(n6nc(-c7c([H])c([H])c(Oc8c([H])c([H])c(F)c([H])c8F)c([H])c7[H])c(C(=O)N([H])[H])c6N([H])[H])C5([H])[H])C([H])([H])C4([H])[H])C([H])([H])C3([H])C([H])([H])[H])c([H])c([H])c2C1([H])[H]

>  <smiles>  (30) 
[H]c1c([H])c([H])c2c(c1[H])C([H])([H])C([H])([H])C([H])([H])C2([H])N([H])C(=O)C1([H])N(C(=O)C([H])(N([H])C(=O)C([H])(N([H])C([H])([H])[H])C([H])([H])[H])C(C([H])([H])[H])(C([H])([H])[H])C([H])([H])[H])C([H])([H])c2c([H])c(OC([H])(C([H])([H])[H])C([H])([H])[N+]3([H])C([H])([H])C([H])([H])C([H])([N+]4([H])C([H])([H])C([H])([H])N(C(=O)N5C([H])([H])C([H])([H])C([H])([H])C([H])(n6nc(-c7c([H])c([H])c(Oc8c([H])c([H])c(F)c([H])c8F)c([H])c7[H])c(C(=O)N([H])[H])c6N([H])[H])C5([H])[H])C([H])([H])C4([H])[H])C([H])([H])C3([H])C([H])([H])[H])c([H])c([H])c2C1([H])[H]

$$$$
30:0:0
     RDKit          3D

 94103  0  0  1  0  0  0  0  0999 V2000
  -30.3120  -22.1590   20.8190 C   0  0  0  0  0  0  0  0  0  0  0  0
  -29.9710  -23.5450   20.6630 C   0  0  0  0  0  0  0  0  0  0  0  0
  -29.6670  -21.1370   20.0530 C   0  0  0  0  0  0  0  0  0  0  0  0
  -28.9260  -23.9240   19.7780 C   0  0  0  0  0  0  0  0  0  0  0  0
  -28.5870  -21.6210   19.2470 C   0  0  0  0  0  0  0  0  0  0  0  0
  -31.4190  -21.7610   21.7960 C   0  0  0  0  0  1  0  0  0  0  0  0
  -30.7640  -24.6200   21.4000 C   0  0  0  0  0  1  0  0  0  0  0  0
  -28.2480  -22.9420   19.1260 N   0  0  0  0  0  0  0  0  0  0  0  0
  -27.6330  -20.5480   18.2880 Cl  0  0  0  0  0  0  0  0  0  0  0  0
  -30.2030  -19.7890   20.1330 N   0  0  0  0  0  0  0  0  0  0  0  0
  -31.1550  -19.7580   20.4810 H   0  0  0  0  0  0  0  0  0  0  0  0
  -30.8730  -14.7670   19.9590 C   0  0  0  0  0  0  0  0  0  0  0  0
  -30.5720  -12.5120   18.9350 C   0  0  0  0  0  2  0  0  0  0  0  0
  -29.5630  -12.5900   17.7690 C   0  0  0  0  0  2  0  0  0  0  0  0
  -28.1210  -12.4200   18.2850 C   0  0  0  0  0  2  0  0  0  0  0  0
  -27.8250  -13.3010   19.5260 C   0  0  0  0  0  3  0  0  0  0  0  0
  -28.9490  -13.1790   20.5780 C   0  0  0  0  0  2  0  0  0  0  0  0
  -30.2010  -13.5630   19.9120 N   0  0  0  0  0  0  0  0  0  0  0  0
  -32.0270  -14.8220   19.5190 O   0  0  0  0  0  0  0  0  0  0  0  0
  -29.0280  -17.8360   21.2220 C   0  0  0  0  0  2  0  0  0  0  0  0
  -29.1250  -16.2940   21.0940 C   0  0  0  0  0  2  0  0  0  0  0  0
  -30.6490  -17.2840   19.5910 C   0  0  0  0  0  2  0  0  0  0  0  0
  -29.6200  -18.4220   19.9410 C   0  0  0  0  0  3  0  0  0  0  0  0
  -30.1820  -15.9640   20.1270 N   0  0  0  0  0  0  0  0  0  0  0  0
  -25.4990  -13.9000   20.4370 C   0  0  0  0  0  0  0  0  0  0  0  0
  -24.4500  -13.1260   20.8490 C   0  0  0  0  0  0  0  0  0  0  0  0
  -24.8880  -11.7710   20.7290 C   0  0  0  0  0  0  0  0  0  0  0  0
  -26.5120  -13.0170   20.0940 N   0  0  0  0  0  0  0  0  0  0  0  0
  -26.1530  -11.7280   20.3290 N   0  0  0  0  0  0  0  0  0  0  0  0
  -24.1550  -10.5120   20.9110 C   0  0  0  0  0  0  0  0  0  0  0  0
  -24.5640   -9.5500   21.8620 C   0  0  0  0  0  3  0  0  0  0  0  0
  -23.8300   -8.3570   22.0320 C   0  0  0  0  0  3  0  0  0  0  0  0
  -22.6750   -8.1160   21.2510 C   0  0  0  0  0  0  0  0  0  0  0  0
  -22.2870   -9.0650   20.2900 C   0  0  0  0  0  3  0  0  0  0  0  0
  -23.0200  -10.2510   20.1170 C   0  0  0  0  0  3  0  0  0  0  0  0
  -21.9150   -6.9750   21.3290 O   0  0  0  0  0  0  0  0  0  0  0  0
  -21.7300   -6.3140   22.5180 C   0  0  0  0  0  0  0  0  0  0  0  0
  -21.1200   -6.9360   23.6300 C   0  0  0  0  0  3  0  0  0  0  0  0
  -20.8870   -6.2010   24.8080 C   0  0  0  0  0  3  0  0  0  0  0  0
  -21.2530   -4.8420   24.8750 C   0  0  0  0  0  0  0  0  0  0  0  0
  -21.8540   -4.2200   23.7670 C   0  0  0  0  0  3  0  0  0  0  0  0
  -22.0890   -4.9540   22.5900 C   0  0  0  0  0  0  0  0  0  0  0  0
  -22.6500   -4.3430   21.5190 F   0  0  0  0  0  0  0  0  0  0  0  0
  -21.0210   -4.1320   26.0030 F   0  0  0  0  0  0  0  0  0  0  0  0
  -23.0830  -13.6100   21.2360 C   0  0  0  0  0  0  0  0  0  0  0  0
  -22.4050  -12.8850   22.1200 N   0  0  0  0  0  0  0  0  0  0  0  0
  -22.6290  -14.6640   20.7930 O   0  0  0  0  0  0  0  0  0  0  0  0
  -22.7870  -12.0310   22.4990 H   0  0  0  0  0  0  0  0  0  0  0  0
  -21.4900  -13.1880   22.4220 H   0  0  0  0  0  0  0  0  0  0  0  0
  -25.6640  -15.2740   20.3000 N   0  0  0  0  0  0  0  0  0  0  0  0
  -24.9110  -15.9260   20.4880 H   0  0  0  0  0  0  0  0  0  0  0  0
  -26.4850  -15.7180   19.9120 H   0  0  0  0  0  0  0  0  0  0  0  0
  -28.6560  -25.4090   19.2840 C   0  0  0  0  0  2  0  0  0  0  0  0
  -28.3880  -26.5280   20.2190 O   0  0  0  0  0  0  0  0  0  0  0  0
  -24.5080  -31.8480   23.1630 C   0  0  0  0  0  0  0  0  0  0  0  0
  -27.2440  -27.3400   20.1230 C   0  0  0  0  0  0  0  0  0  0  0  0
  -23.3570  -30.4470   21.4890 C   0  0  0  0  0  3  0  0  0  0  0  0
  -24.8560  -28.9260   20.0810 C   0  0  0  0  0  0  0  0  0  0  0  0
  -25.8960  -30.7960   21.3620 C   0  0  0  0  0  2  0  0  0  0  0  0
  -26.0050  -29.4230   20.7080 C   0  0  0  0  0  0  0  0  0  0  0  0
  -27.1960  -28.6390   20.7250 C   0  0  0  0  0  3  0  0  0  0  0  0
  -26.0610  -26.8900   19.4920 C   0  0  0  0  0  3  0  0  0  0  0  0
  -24.8860  -27.6660   19.4670 C   0  0  0  0  0  3  0  0  0  0  0  0
  -23.6070  -29.7840   20.1090 C   0  0  0  0  0  2  0  0  0  0  0  0
  -24.6050  -31.0470   22.0620 N   0  0  0  0  0  0  0  0  0  0  0  0
  -23.4100  -32.1100   23.6760 O   0  0  0  0  0  0  0  0  0  0  0  0
  -22.6870  -29.4150   22.4280 C   0  0  0  0  0  0  0  0  0  0  0  0
  -21.3590  -29.2520   22.2960 N   0  0  0  0  0  0  0  0  0  0  0  0
  -23.3590  -28.7680   23.2330 O   0  0  0  0  0  0  0  0  0  0  0  0
  -20.8760  -29.8280   21.6210 H   0  0  0  0  0  0  0  0  0  0  0  0
  -17.9650  -28.1120   22.8050 C   0  0  0  0  0  0  0  0  0  0  0  0
  -20.5310  -28.3060   23.0460 C   0  0  0  0  0  3  0  0  0  0  0  0
  -20.5950  -26.8940   22.4210 C   0  0  0  0  0  2  0  0  0  0  0  0
  -19.4710  -26.6290   21.4130 C   0  0  0  0  0  2  0  0  0  0  0  0
  -18.1010  -26.7820   22.0820 C   0  0  0  0  0  2  0  0  0  0  0  0
  -19.1060  -28.8350   23.2440 C   0  0  0  0  0  0  0  0  0  0  0  0
  -18.9230  -30.0810   23.8810 C   0  0  0  0  0  3  0  0  0  0  0  0
  -17.6320  -30.6050   24.0830 C   0  0  0  0  0  3  0  0  0  0  0  0
  -16.5060  -29.8780   23.6600 C   0  0  0  0  0  3  0  0  0  0  0  0
  -16.6730  -28.6330   23.0280 C   0  0  0  0  0  3  0  0  0  0  0  0
  -25.7700  -32.4910   23.8180 C   0  0  0  0  0  3  0  0  0  0  0  0
  -25.4410  -33.8880   24.1350 N   0  0  0  0  0  0  0  0  0  0  0  0
  -25.7820  -34.9410   23.3810 C   0  0  0  0  0  0  0  0  0  0  0  0
  -26.4750  -34.8400   22.3650 O   0  0  0  0  0  0  0  0  0  0  0  0
  -24.8250  -34.0380   24.9200 H   0  0  0  0  0  0  0  0  0  0  0  0
  -24.0520  -36.7250   22.9790 C   0  0  0  0  0  1  0  0  0  0  0  0
  -25.2740  -36.3270   23.8230 C   0  0  0  0  0  3  0  0  0  0  0  0
  -27.3730  -37.2340   24.7220 C   0  0  0  0  0  1  0  0  0  0  0  0
  -26.3020  -37.3880   23.7390 N   0  0  0  0  0  0  0  0  0  0  0  0
  -25.8850  -38.3060   23.8690 H   0  0  0  0  0  0  0  0  0  0  0  0
  -26.2560  -31.7280   25.1110 C   0  0  1  0  0  0  0  0  0  0  0  0
  -25.1320  -31.4760   26.1430 C   0  0  0  0  0  1  0  0  0  0  0  0
  -26.8690  -30.3570   24.7400 C   0  0  0  0  0  1  0  0  0  0  0  0
  -27.3750  -32.5380   25.8080 C   0  0  0  0  0  1  0  0  0  0  0  0
  1  6  1  0
  2  1  1  0
  2  7  1  0
  3 10  1  0
  3  1  2  0
  4  2  2  0
  5  3  1  0
  8  5  2  0
  8  4  1  0
  9  5  1  0
 10 11  1  0
 12 24  1  0
 13 18  1  0
 14 15  1  0
 14 13  1  0
 16 15  1  0
 16 28  1  0
 16 17  1  0
 18 12  1  0
 18 17  1  0
 19 12  2  0
 21 20  1  0
 22 23  1  0
 22 24  1  0
 23 10  1  0
 23 20  1  0
 24 21  1  0
 25 26  2  0
 26 45  1  0
 27 26  1  0
 27 30  1  0
 28 29  1  0
 28 25  1  0
 29 27  2  0
 30 31  1  0
 31 32  2  0
 33 36  1  0
 33 32  1  0
 34 33  2  0
 35 34  1  0
 35 30  2  0
 36 37  1  0
 37 42  2  0
 37 38  1  0
 38 39  2  0
 39 40  1  0
 40 44  1  0
 41 40  2  0
 42 41  1  0
 43 42  1  0
 45 46  1  0
 46 49  1  0
 46 48  1  0
 47 45  2  0
 50 25  1  0
 50 51  1  0
 52 50  1  0
 53  4  1  0
 53 54  1  0
 55 66  2  0
 56 54  1  0
 56 61  1  0
 57 65  1  0
 57 67  1  0
 58 64  1  0
 58 60  1  0
 59 65  1  0
 60 61  2  0
 60 59  1  0
 62 56  2  0
 63 62  1  0
 63 58  2  0
 64 57  1  0
 65 55  1  0
 67 69  2  0
 68 67  1  0
 70 68  1  0
 71 80  2  0
 71 76  1  0
 72 68  1  0
 72 76  1  0
 73 72  1  0
 74 75  1  0
 74 73  1  0
 75 71  1  0
 76 77  2  0
 77 78  1  0
 79 78  2  0
 80 79  1  0
 81 55  1  0
 81 82  1  0
 81 91  1  0
 82 85  1  0
 83 87  1  0
 83 82  1  0
 84 83  2  0
 87 86  1  0
 89 87  1  0
 89 90  1  0
 89 88  1  0
 91 94  1  1
 91 92  1  0
 93 91  1  0
M  ISO  4  12 100  24 100  53 101  54 101
M  END
>  <TORSDO>  (31) 
F 18

>  <SCORE>  (31) 
-14.200

>  <name>  (31) 
30

>  <ligand_id>  (31) 
30

>  <original_smiles>  (31) 
[H]c1c([H])c([H])c2c(c1[H])C([H])([H])C([H])([H])C([H])([H])C2([H])N([H])C(=O)C1([H])N(C(=O)C([H])(N([H])C(=O)C([H])(N([H])C([H])([H])[H])C([H])([H])[H])C(C([H])([H])[H])(C([H])([H])[H])C([H])([H])[H])C([H])([H])c2c([H])c(OC([H])([H])c3nc(Cl)c(N([H])C4([H])C([H])([H])N(C(=O)N5C([H])([H])C([H])([H])C([H])([H])C([H])(n6nc(-c7c([H])c([H])c(Oc8c([H])c([H])c(F)c([H])c8F)c([H])c7[H])c(C(=O)N([H])[H])c6N([H])[H])C5([H])[H])C([H])([H])C4([H])[H])c(C([H])([H])[H])c3C([H])([H])[H])c([H])c([H])c2C1([H])[H]

>  <smiles>  (31) 
[H]c1c([H])c([H])c2c(c1[H])C([H])([H])C([H])([H])C([H])([H])C2([H])N([H])C(=O)C1([H])N(C(=O)C([H])(N([H])C(=O)C([H])(N([H])C([H])([H])[H])C([H])([H])[H])C(C([H])([H])[H])(C([H])([H])[H])C([H])([H])[H])C([H])([H])c2c([H])c(OC([H])([H])c3nc(Cl)c(N([H])C4([H])C([H])([H])N(C(=O)N5C([H])([H])C([H])([H])C([H])([H])C([H])(n6nc(-c7c([H])c([H])c(Oc8c([H])c([H])c(F)c([H])c8F)c([H])c7[H])c(C(=O)N([H])[H])c6N([H])[H])C5([H])[H])C([H])([H])C4([H])[H])c(C([H])([H])[H])c3C([H])([H])[H])c([H])c([H])c2C1([H])[H]

$$$$
31:0:0
     RDKit          3D

 91100  0  0  1  0  0  0  0  0999 V2000
  -27.3160  -22.2080   20.6170 C   0  0  0  0  0  2  0  0  0  0  0  0
  -27.0540  -23.7600   20.8750 C   0  0  0  0  0  2  0  0  0  0  0  0
  -29.2880  -23.4600   20.1390 C   0  0  0  0  0  2  0  0  0  0  0  0
  -28.8400  -21.9580   20.6960 C   0  0  0  0  0  3  0  0  0  0  0  0
  -28.0880  -24.6050   20.0700 C   0  0  0  0  0  3  0  0  0  0  0  0
  -30.7410  -20.5720   19.5520 C   0  0  0  0  0  3  0  0  0  0  0  0
  -29.2290  -19.0530   20.6260 C   0  0  0  0  0  3  0  0  0  0  0  0
  -29.5410  -20.4850   20.2800 C   0  0  0  0  0  0  0  0  0  0  0  0
  -31.5110  -19.4300   19.2420 C   0  0  0  0  0  0  0  0  0  0  0  0
  -30.0640  -17.8500   20.2660 C   0  0  0  0  0  0  0  0  0  0  0  0
  -32.8140  -19.5930   18.4870 C   0  0  0  0  0  1  0  0  0  0  0  0
  -31.1850  -18.1590   19.5740 N   0  0  0  0  0  0  0  0  0  0  0  0
  -30.5590  -15.1300   20.3190 C   0  0  0  0  0  0  0  0  0  0  0  0
  -30.4410  -12.7610   19.3750 C   0  0  0  0  0  2  0  0  0  0  0  0
  -29.5010  -12.6930   18.1480 C   0  0  0  0  0  2  0  0  0  0  0  0
  -28.0440  -12.4680   18.5910 C   0  0  0  0  0  2  0  0  0  0  0  0
  -27.6420  -13.3840   19.7760 C   0  0  0  0  0  3  0  0  0  0  0  0
  -28.7060  -13.4170   20.8930 C   0  0  0  0  0  2  0  0  0  0  0  0
  -29.9620  -13.8610   20.2730 N   0  0  0  0  0  0  0  0  0  0  0  0
  -31.7600  -15.1460   20.0150 O   0  0  0  0  0  0  0  0  0  0  0  0
  -29.8080  -16.3440   20.5470 N   0  0  0  0  0  0  0  0  0  0  0  0
  -28.8800  -16.1600   20.8930 H   0  0  0  0  0  0  0  0  0  0  0  0
  -25.2730  -13.9440   20.5540 C   0  0  0  0  0  0  0  0  0  0  0  0
  -24.2150  -13.1600   20.9220 C   0  0  0  0  0  0  0  0  0  0  0  0
  -24.6810  -11.8100   20.8630 C   0  0  0  0  0  0  0  0  0  0  0  0
  -26.3130  -13.0710   20.2850 N   0  0  0  0  0  0  0  0  0  0  0  0
  -25.9680  -11.7830   20.5380 N   0  0  0  0  0  0  0  0  0  0  0  0
  -23.9560  -10.5440   21.0380 C   0  0  0  0  0  0  0  0  0  0  0  0
  -24.3820   -9.5710   21.9680 C   0  0  0  0  0  3  0  0  0  0  0  0
  -23.6550   -8.3720   22.1330 C   0  0  0  0  0  3  0  0  0  0  0  0
  -22.4890   -8.1370   21.3670 C   0  0  0  0  0  0  0  0  0  0  0  0
  -22.0820   -9.1000   20.4270 C   0  0  0  0  0  3  0  0  0  0  0  0
  -22.8090  -10.2910   20.2590 C   0  0  0  0  0  3  0  0  0  0  0  0
  -21.7340   -6.9910   21.4430 O   0  0  0  0  0  0  0  0  0  0  0  0
  -21.6570   -6.2550   22.5980 C   0  0  0  0  0  0  0  0  0  0  0  0
  -21.1700   -6.8080   23.8020 C   0  0  0  0  0  3  0  0  0  0  0  0
  -21.0410   -5.9960   24.9470 C   0  0  0  0  0  3  0  0  0  0  0  0
  -21.3900   -4.6330   24.8880 C   0  0  0  0  0  0  0  0  0  0  0  0
  -21.8700   -4.0810   23.6880 C   0  0  0  0  0  3  0  0  0  0  0  0
  -22.0000   -4.8890   22.5460 C   0  0  0  0  0  0  0  0  0  0  0  0
  -22.4420   -4.3470   21.3850 F   0  0  0  0  0  0  0  0  0  0  0  0
  -21.2600   -3.8510   25.9850 F   0  0  0  0  0  0  0  0  0  0  0  0
  -22.8210  -13.6330   21.2130 C   0  0  0  0  0  0  0  0  0  0  0  0
  -22.1000  -12.9190   22.0710 N   0  0  0  0  0  0  0  0  0  0  0  0
  -22.3800  -14.6690   20.7170 O   0  0  0  0  0  0  0  0  0  0  0  0
  -22.4720  -12.0780   22.4900 H   0  0  0  0  0  0  0  0  0  0  0  0
  -21.1640  -13.2130   22.3110 H   0  0  0  0  0  0  0  0  0  0  0  0
  -25.4370  -15.3160   20.3970 N   0  0  0  0  0  0  0  0  0  0  0  0
  -24.6690  -15.9680   20.5190 H   0  0  0  0  0  0  0  0  0  0  0  0
  -26.2700  -15.7570   20.0310 H   0  0  0  0  0  0  0  0  0  0  0  0
  -28.2360  -26.1640   20.3150 O   0  0  0  0  0  0  0  0  0  0  0  0
  -24.6230  -31.9140   23.2360 C   0  0  0  0  0  0  0  0  0  0  0  0
  -27.1850  -27.1630   20.2120 C   0  0  0  0  0  0  0  0  0  0  0  0
  -23.4190  -30.5150   21.6030 C   0  0  0  0  0  3  0  0  0  0  0  0
  -24.8610  -28.9390   20.1670 C   0  0  0  0  0  0  0  0  0  0  0  0
  -25.9720  -30.7750   21.4270 C   0  0  0  0  0  2  0  0  0  0  0  0
  -26.0430  -29.3790   20.7750 C   0  0  0  0  0  0  0  0  0  0  0  0
  -27.2010  -28.5100   20.7760 C   0  0  0  0  0  3  0  0  0  0  0  0
  -25.9800  -26.8370   19.5500 C   0  0  0  0  0  3  0  0  0  0  0  0
  -24.8470  -27.6830   19.5360 C   0  0  0  0  0  3  0  0  0  0  0  0
  -23.6330  -29.8380   20.2230 C   0  0  0  0  0  2  0  0  0  0  0  0
  -24.6920  -31.0920   22.1440 N   0  0  0  0  0  0  0  0  0  0  0  0
  -23.5380  -32.1970   23.7690 O   0  0  0  0  0  0  0  0  0  0  0  0
  -22.7450  -29.5080   22.5720 C   0  0  0  0  0  0  0  0  0  0  0  0
  -21.4170  -29.3270   22.4450 N   0  0  0  0  0  0  0  0  0  0  0  0
  -23.4180  -28.8920   23.4020 O   0  0  0  0  0  0  0  0  0  0  0  0
  -20.9290  -29.8750   21.7510 H   0  0  0  0  0  0  0  0  0  0  0  0
  -18.0460  -28.0970   22.9520 C   0  0  0  0  0  0  0  0  0  0  0  0
  -20.6030  -28.3880   23.2210 C   0  0  0  0  0  3  0  0  0  0  0  0
  -20.7190  -26.9530   22.6580 C   0  0  0  0  0  2  0  0  0  0  0  0
  -19.6230  -26.6120   21.6430 C   0  0  0  0  0  2  0  0  0  0  0  0
  -18.2370  -26.7470   22.2820 C   0  0  0  0  0  2  0  0  0  0  0  0
  -19.1580  -28.8730   23.3780 C   0  0  0  0  0  0  0  0  0  0  0  0
  -18.9240  -30.1360   23.9660 C   0  0  0  0  0  3  0  0  0  0  0  0
  -17.6130  -30.6220   24.1310 C   0  0  0  0  0  3  0  0  0  0  0  0
  -16.5180  -29.8420   23.7200 C   0  0  0  0  0  3  0  0  0  0  0  0
  -16.7350  -28.5830   23.1360 C   0  0  0  0  0  3  0  0  0  0  0  0
  -25.9010  -32.5540   23.8560 C   0  0  0  0  0  3  0  0  0  0  0  0
  -25.5880  -33.9550   24.1860 N   0  0  0  0  0  0  0  0  0  0  0  0
  -25.9110  -35.0110   23.4280 C   0  0  0  0  0  0  0  0  0  0  0  0
  -26.5690  -34.9090   22.3910 O   0  0  0  0  0  0  0  0  0  0  0  0
  -25.0000  -34.1070   24.9930 H   0  0  0  0  0  0  0  0  0  0  0  0
  -24.1760  -36.8060   23.0990 C   0  0  0  0  0  1  0  0  0  0  0  0
  -25.4270  -36.4000   23.8940 C   0  0  0  0  0  3  0  0  0  0  0  0
  -27.5630  -37.2940   24.7080 C   0  0  0  0  0  1  0  0  0  0  0  0
  -26.4590  -37.4530   23.7650 N   0  0  0  0  0  0  0  0  0  0  0  0
  -26.0540  -38.3750   23.9040 H   0  0  0  0  0  0  0  0  0  0  0  0
  -26.4150  -31.7920   25.1400 C   0  0  1  0  0  0  0  0  0  0  0  0
  -25.3210  -31.5620   26.2090 C   0  0  0  0  0  1  0  0  0  0  0  0
  -27.0010  -30.4120   24.7630 C   0  0  0  0  0  1  0  0  0  0  0  0
  -27.5670  -32.5910   25.7960 C   0  0  0  0  0  1  0  0  0  0  0  0
  1  4  1  0
  1  2  1  0
  3  4  1  0
  4  8  1  0
  5  3  1  0
  5 51  1  0
  5  2  1  0
  6  8  1  0
  8  7  2  0
  9  6  2  0
  9 12  1  0
 10 21  1  0
 10  7  1  0
 11  9  1  0
 12 10  2  0
 13 21  1  0
 14 19  1  0
 15 16  1  0
 15 14  1  0
 17 16  1  0
 17 26  1  0
 17 18  1  0
 19 13  1  0
 19 18  1  0
 20 13  2  0
 21 22  1  0
 23 24  2  0
 24 43  1  0
 25 24  1  0
 25 28  1  0
 26 27  1  0
 26 23  1  0
 27 25  2  0
 28 29  1  0
 29 30  2  0
 31 34  1  0
 31 30  1  0
 32 31  2  0
 33 32  1  0
 33 28  2  0
 34 35  1  0
 35 36  1  0
 36 37  2  0
 38 37  1  0
 38 42  1  0
 39 38  2  0
 40 35  2  0
 40 39  1  0
 41 40  1  0
 43 44  1  0
 44 47  1  0
 44 46  1  0
 45 43  2  0
 48 49  1  0
 48 23  1  0
 50 48  1  0
 52 63  2  0
 53 51  1  0
 53 58  1  0
 54 62  1  0
 54 64  1  0
 55 61  1  0
 55 57  1  0
 56 62  1  0
 57 58  2  0
 57 56  1  0
 59 53  2  0
 60 59  1  0
 60 55  2  0
 61 54  1  0
 62 52  1  0
 64 66  2  0
 65 64  1  0
 67 65  1  0
 68 77  2  0
 68 73  1  0
 69 65  1  0
 69 73  1  0
 70 69  1  0
 71 72  1  0
 71 70  1  0
 72 68  1  0
 73 74  2  0
 74 75  1  0
 76 75  2  0
 77 76  1  0
 78 52  1  0
 78 79  1  0
 78 88  1  0
 79 82  1  0
 80 84  1  0
 80 79  1  0
 81 80  2  0
 84 83  1  0
 86 84  1  0
 86 87  1  0
 86 85  1  0
 88 91  1  1
 88 89  1  0
 90 88  1  0
M  ISO  4   5 101  13 100  21 100  51 101
M  END
>  <TORSDO>  (32) 
F 17

>  <SCORE>  (32) 
-15.072

>  <name>  (32) 
31

>  <ligand_id>  (32) 
31

>  <original_smiles>  (32) 
[H]c1c([H])c([H])c2c(c1[H])C([H])([H])C([H])([H])C([H])([H])C2([H])N([H])C(=O)C1([H])N(C(=O)C([H])(N([H])C(=O)C([H])(N([H])C([H])([H])[H])C([H])([H])[H])C(C([H])([H])[H])(C([H])([H])[H])C([H])([H])[H])C([H])([H])c2c([H])c(OC3([H])C([H])([H])C([H])([H])C([H])(c4c([H])c(N([H])C(=O)N5C([H])([H])C([H])([H])C([H])([H])C([H])(n6nc(-c7c([H])c([H])c(Oc8c([H])c([H])c(F)c([H])c8F)c([H])c7[H])c(C(=O)N([H])[H])c6N([H])[H])C5([H])[H])nc(C([H])([H])[H])c4[H])C3([H])[H])c([H])c([H])c2C1([H])[H]

>  <smiles>  (32) 
[H]c1c([H])c([H])c2c(c1[H])C([H])([H])C([H])([H])C([H])([H])C2([H])N([H])C(=O)C1([H])N(C(=O)C([H])(N([H])C(=O)C([H])(N([H])C([H])([H])[H])C([H])([H])[H])C(C([H])([H])[H])(C([H])([H])[H])C([H])([H])[H])C([H])([H])c2c([H])c(OC3([H])C([H])([H])C([H])([H])C([H])(c4c([H])c(N([H])C(=O)N5C([H])([H])C([H])([H])C([H])([H])C([H])(n6nc(-c7c([H])c([H])c(Oc8c([H])c([H])c(F)c([H])c8F)c([H])c7[H])c(C(=O)N([H])[H])c6N([H])[H])C5([H])[H])nc(C([H])([H])[H])c4[H])C3([H])[H])c([H])c([H])c2C1([H])[H]

$$$$
32:0:0
     RDKit          3D

 96106  0  0  1  0  0  0  0  0999 V2000
  -31.3900  -21.0850   22.8280 C   0  0  0  0  0  3  0  0  0  0  0  0
  -30.1160  -20.5110   20.4320 C   0  0  0  0  0  3  0  0  0  0  0  0
  -30.5770  -22.0720   22.2470 C   0  0  0  0  0  0  0  0  0  0  0  0
  -30.8440  -19.4530   21.0890 C   0  0  0  0  0  0  0  0  0  0  0  0
  -31.5770  -19.8190   22.2460 C   0  0  0  0  0  0  0  0  0  0  0  0
  -30.0260  -21.8590   20.9500 C   0  0  0  0  0  0  0  0  0  0  0  0
  -32.5770  -18.8870   22.9180 C   0  0  0  0  0  1  0  0  0  0  0  0
  -30.9550  -14.8220   20.0630 C   0  0  0  0  0  0  0  0  0  0  0  0
  -30.6260  -12.5910   19.0230 C   0  0  0  0  0  2  0  0  0  0  0  0
  -29.6260  -12.7130   17.8520 C   0  0  0  0  0  2  0  0  0  0  0  0
  -28.1760  -12.5840   18.3570 C   0  0  0  0  0  2  0  0  0  0  0  0
  -27.8910  -13.4730   19.5970 C   0  0  0  0  0  3  0  0  0  0  0  0
  -28.9980  -13.3330   20.6630 C   0  0  0  0  0  2  0  0  0  0  0  0
  -30.2850  -13.6320   20.0140 N   0  0  0  0  0  0  0  0  0  0  0  0
  -32.0820  -14.9510   19.5750 O   0  0  0  0  0  0  0  0  0  0  0  0
  -30.7400  -16.7760   21.6040 C   0  0  0  0  0  2  0  0  0  0  0  0
  -29.9350  -17.1490   19.7430 C   0  0  0  0  0  2  0  0  0  0  0  0
  -30.9160  -17.9520   20.6140 C   0  0  0  0  0  3  0  0  0  0  0  0
  -30.2550  -15.9100   20.5150 N   0  0  0  0  0  0  0  0  0  0  0  0
  -25.5630  -14.1080   20.4780 C   0  0  0  0  0  0  0  0  0  0  0  0
  -24.4940  -13.3480   20.8740 C   0  0  0  0  0  0  0  0  0  0  0  0
  -24.9120  -11.9870   20.7600 C   0  0  0  0  0  0  0  0  0  0  0  0
  -26.5650  -13.2090   20.1490 N   0  0  0  0  0  0  0  0  0  0  0  0
  -26.1820  -11.9250   20.3770 N   0  0  0  0  0  0  0  0  0  0  0  0
  -24.1590  -10.7390   20.9380 C   0  0  0  0  0  0  0  0  0  0  0  0
  -24.5590   -9.7630   21.8770 C   0  0  0  0  0  3  0  0  0  0  0  0
  -23.8080   -8.5790   22.0440 C   0  0  0  0  0  3  0  0  0  0  0  0
  -22.6410   -8.3650   21.2720 C   0  0  0  0  0  0  0  0  0  0  0  0
  -22.2590   -9.3310   20.3250 C   0  0  0  0  0  3  0  0  0  0  0  0
  -23.0100  -10.5050   20.1570 C   0  0  0  0  0  3  0  0  0  0  0  0
  -21.8640   -7.2340   21.3490 O   0  0  0  0  0  0  0  0  0  0  0  0
  -21.7400   -6.5220   22.5140 C   0  0  0  0  0  0  0  0  0  0  0  0
  -21.2020   -7.0990   23.6850 C   0  0  0  0  0  3  0  0  0  0  0  0
  -21.0310   -6.3120   24.8420 C   0  0  0  0  0  3  0  0  0  0  0  0
  -21.3830   -4.9490   24.8260 C   0  0  0  0  0  0  0  0  0  0  0  0
  -21.9140   -4.3730   23.6600 C   0  0  0  0  0  3  0  0  0  0  0  0
  -22.0900   -5.1560   22.5060 C   0  0  0  0  0  0  0  0  0  0  0  0
  -22.5820   -4.5910   21.3760 F   0  0  0  0  0  0  0  0  0  0  0  0
  -21.2110   -4.1910   25.9340 F   0  0  0  0  0  0  0  0  0  0  0  0
  -23.1320  -13.8550   21.2470 C   0  0  0  0  0  0  0  0  0  0  0  0
  -22.4380  -13.1470   22.1310 N   0  0  0  0  0  0  0  0  0  0  0  0
  -22.6950  -14.9120   20.7940 O   0  0  0  0  0  0  0  0  0  0  0  0
  -22.8030  -12.2890   22.5160 H   0  0  0  0  0  0  0  0  0  0  0  0
  -21.5280  -13.4690   22.4290 H   0  0  0  0  0  0  0  0  0  0  0  0
  -25.7580  -15.4790   20.3490 N   0  0  0  0  0  0  0  0  0  0  0  0
  -25.0220  -16.1510   20.5330 H   0  0  0  0  0  0  0  0  0  0  0  0
  -26.6170  -15.9100   20.0260 H   0  0  0  0  0  0  0  0  0  0  0  0
  -29.6670  -23.0020   24.4870 C   0  0  0  0  0  2  0  0  0  0  0  0
  -28.9280  -23.7880   23.4340 C   0  0  0  0  0  2  0  0  0  0  0  0
  -30.3130  -23.2550   23.1380 C   0  0  0  0  0  3  0  0  0  0  0  0
  -29.3000  -22.8700   20.2340 N   0  0  0  0  0  0  0  0  0  0  0  0
  -28.7920  -22.4940   19.4370 H   0  0  0  0  0  0  0  0  0  0  0  0
  -30.8750  -24.8830   20.7080 C   0  0  0  0  0  1  0  0  0  0  0  0
  -29.6270  -24.3270   20.0040 C   0  0  0  0  0  3  0  0  0  0  0  0
  -28.3810  -25.2960   20.1620 C   0  0  0  0  0  2  0  0  0  0  0  0
  -28.5490  -26.7430   19.9240 O   0  0  0  0  0  0  0  0  0  0  0  0
  -24.5780  -31.7840   23.1970 C   0  0  0  0  0  0  0  0  0  0  0  0
  -27.3860  -27.5260   19.9170 C   0  0  0  0  0  0  0  0  0  0  0  0
  -23.4350  -30.4260   21.4820 C   0  0  0  0  0  3  0  0  0  0  0  0
  -24.9500  -29.0200   19.9770 C   0  0  0  0  0  0  0  0  0  0  0  0
  -25.9580  -30.8620   21.3270 C   0  0  0  0  0  2  0  0  0  0  0  0
  -26.0950  -29.5270   20.6050 C   0  0  0  0  0  0  0  0  0  0  0  0
  -27.3160  -28.7950   20.5620 C   0  0  0  0  0  3  0  0  0  0  0  0
  -26.2190  -27.0690   19.2620 C   0  0  0  0  0  3  0  0  0  0  0  0
  -25.0140  -27.7960   19.2970 C   0  0  0  0  0  3  0  0  0  0  0  0
  -23.6740  -29.8330   20.0690 C   0  0  0  0  0  2  0  0  0  0  0  0
  -24.6740  -31.0400   22.0570 N   0  0  0  0  0  0  0  0  0  0  0  0
  -23.4860  -31.9890   23.7440 O   0  0  0  0  0  0  0  0  0  0  0  0
  -22.8180  -29.3320   22.3850 C   0  0  0  0  0  0  0  0  0  0  0  0
  -21.5090  -29.0830   22.2160 N   0  0  0  0  0  0  0  0  0  0  0  0
  -23.5160  -28.7130   23.1910 O   0  0  0  0  0  0  0  0  0  0  0  0
  -21.0070  -29.6320   21.5310 H   0  0  0  0  0  0  0  0  0  0  0  0
  -18.1850  -27.7190   22.6330 C   0  0  0  0  0  0  0  0  0  0  0  0
  -20.7300  -28.0710   22.9320 C   0  0  0  0  0  3  0  0  0  0  0  0
  -20.8970  -26.6820   22.2770 C   0  0  0  0  0  2  0  0  0  0  0  0
  -19.8120  -26.3690   21.2410 C   0  0  0  0  0  2  0  0  0  0  0  0
  -18.4210  -26.4180   21.8820 C   0  0  0  0  0  2  0  0  0  0  0  0
  -19.2690  -28.5030   23.1090 C   0  0  0  0  0  0  0  0  0  0  0  0
  -18.9970  -29.7210   23.7680 C   0  0  0  0  0  3  0  0  0  0  0  0
  -17.6720  -30.1580   23.9550 C   0  0  0  0  0  3  0  0  0  0  0  0
  -16.6020  -29.3720   23.4950 C   0  0  0  0  0  3  0  0  0  0  0  0
  -16.8590  -28.1540   22.8390 C   0  0  0  0  0  3  0  0  0  0  0  0
  -25.8360  -32.4300   23.8580 C   0  0  0  0  0  3  0  0  0  0  0  0
  -26.3180  -31.6670   25.1520 C   0  0  1  0  0  0  0  0  0  0  0  0
  -25.1910  -31.3950   26.1770 C   0  0  0  0  0  1  0  0  0  0  0  0
  -26.9520  -30.3070   24.7810 C   0  0  0  0  0  1  0  0  0  0  0  0
  -27.4180  -32.4930   25.8600 C   0  0  0  0  0  1  0  0  0  0  0  0
  -25.5020  -33.8260   24.1720 N   0  0  0  0  0  0  0  0  0  0  0  0
  -25.8060  -34.8750   23.3970 C   0  0  0  0  0  0  0  0  0  0  0  0
  -26.4680  -34.7700   22.3610 O   0  0  0  0  0  0  0  0  0  0  0  0
  -24.9130  -33.9790   24.9780 H   0  0  0  0  0  0  0  0  0  0  0  0
  -24.0170  -36.6100   23.0600 C   0  0  0  0  0  1  0  0  0  0  0  0
  -25.2960  -36.2610   23.8390 C   0  0  0  0  0  3  0  0  0  0  0  0
  -27.4200  -37.2310   24.5940 C   0  0  0  0  0  1  0  0  0  0  0  0
  -26.2940  -37.3390   23.6700 N   0  0  0  0  0  0  0  0  0  0  0  0
  -25.8660  -38.2520   23.7960 H   0  0  0  0  0  0  0  0  0  0  0  0
  2  6  1  0
  2  4  2  0
  3  1  1  0
  3 50  1  0
  4  5  1  0
  5  1  2  0
  5  7  1  0
  6  3  2  0
  8 19  1  0
  9 14  1  0
 10 11  1  0
 10  9  1  0
 12 11  1  0
 12 23  1  0
 12 13  1  0
 14  8  1  0
 14 13  1  0
 15  8  2  0
 17 19  1  0
 17 18  1  0
 18  4  1  0
 18 16  1  0
 19 16  1  0
 20 21  2  0
 21 40  1  0
 22 21  1  0
 22 25  1  0
 23 24  1  0
 23 20  1  0
 24 22  2  0
 25 26  1  0
 26 27  2  0
 28 31  1  0
 28 27  1  0
 29 28  2  0
 30 29  1  0
 30 25  2  0
 31 32  1  0
 32 33  1  0
 33 34  2  0
 35 34  1  0
 35 39  1  0
 36 35  2  0
 37 32  2  0
 37 36  1  0
 38 37  1  0
 40 41  1  0
 41 44  1  0
 41 43  1  0
 42 40  2  0
 45 20  1  0
 45 46  1  0
 47 45  1  0
 49 48  1  0
 50 49  1  0
 50 48  1  0
 51  6  1  0
 52 51  1  0
 54 55  1  0
 54 51  1  0
 54 53  1  0
 56 55  1  0
 57 68  2  0
 58 56  1  0
 58 63  1  0
 59 67  1  0
 59 69  1  0
 60 66  1  0
 60 62  1  0
 61 67  1  0
 62 61  1  0
 63 62  2  0
 64 65  1  0
 64 58  2  0
 65 60  2  0
 66 59  1  0
 67 57  1  0
 69 71  2  0
 70 69  1  0
 72 70  1  0
 73 82  2  0
 73 78  1  0
 74 70  1  0
 74 78  1  0
 75 74  1  0
 76 77  1  0
 76 75  1  0
 77 73  1  0
 78 79  2  0
 79 80  1  0
 81 80  2  0
 82 81  1  0
 83 57  1  0
 83 88  1  0
 83 84  1  0
 84 87  1  1
 84 85  1  0
 86 84  1  0
 88 91  1  0
 89 93  1  0
 89 88  1  0
 90 89  2  0
 93 92  1  0
 95 96  1  0
 95 93  1  0
 95 94  1  0
M  ISO  4   8 100  19 100  55 101  56 101
M  END
>  <TORSDO>  (33) 
F 20

>  <SCORE>  (33) 
-12.181

>  <name>  (33) 
32

>  <ligand_id>  (33) 
32

>  <original_smiles>  (33) 
[H]c1c([H])c([H])c2c(c1[H])C([H])([H])C([H])([H])C([H])([H])C2([H])N([H])C(=O)C1([H])N(C(=O)C([H])(N([H])C(=O)C([H])(N([H])C([H])([H])[H])C([H])([H])[H])C(C([H])([H])[H])(C([H])([H])[H])C([H])([H])[H])C([H])([H])c2c([H])c(OC([H])([H])C([H])(N([H])c3c([H])c(C4([H])C([H])([H])N(C(=O)N5C([H])([H])C([H])([H])C([H])([H])C([H])(n6nc(-c7c([H])c([H])c(Oc8c([H])c([H])c(F)c([H])c8F)c([H])c7[H])c(C(=O)N([H])[H])c6N([H])[H])C5([H])[H])C4([H])[H])c(C([H])([H])[H])c([H])c3C3([H])C([H])([H])C3([H])[H])C([H])([H])[H])c([H])c([H])c2C1([H])[H]

>  <smiles>  (33) 
[H]c1c([H])c([H])c2c(c1[H])C([H])([H])C([H])([H])C([H])([H])C2([H])N([H])C(=O)C1([H])N(C(=O)C([H])(N([H])C(=O)C([H])(N([H])C([H])([H])[H])C([H])([H])[H])C(C([H])([H])[H])(C([H])([H])[H])C([H])([H])[H])C([H])([H])c2c([H])c(OC([H])([H])C([H])(N([H])c3c([H])c(C4([H])C([H])([H])N(C(=O)N5C([H])([H])C([H])([H])C([H])([H])C([H])(n6nc(-c7c([H])c([H])c(Oc8c([H])c([H])c(F)c([H])c8F)c([H])c7[H])c(C(=O)N([H])[H])c6N([H])[H])C5([H])[H])C4([H])[H])c(C([H])([H])[H])c([H])c3C3([H])C([H])([H])C3([H])[H])C([H])([H])[H])c([H])c([H])c2C1([H])[H]

$$$$
33:0:0
     RDKit          3D

 94 90  0  0  1  0  0  0  0  0999 V2000
  -27.1950  -15.5840   21.5100 C   0  0  0  0  0 15  0  0  0  0  0  0
  -25.9290  -16.8930   20.3240 C   0  0  0  0  0 15  0  0  0  0  0  0
  -24.6120  -15.9110   19.0240 C   0  0  0  0  0  1  0  0  0  0  0  0
  -27.4450  -13.3960   21.2140 C   0  0  0  0  0  1  0  0  0  0  0  0
  -24.6330  -13.6740   18.6080 C   0  0  0  0  0  1  0  0  0  0  0  0
  -24.8460  -18.6560   18.7410 C   0  0  0  0  0  2  0  0  0  0  0  0
  -25.8370  -19.0930   19.9960 C   0  0  0  0  0  2  0  0  0  0  0  0
  -23.9640  -17.2250   18.4820 C   0  0  2  0  0  0  0  0  0  0  0  0
  -23.7010  -13.0530   17.5970 C   0  0  0  0  0  1  0  0  0  0  0  0
  -25.0280  -19.4580   21.2470 C   0  0  0  0  0  1  0  0  0  0  0  0
  -22.6150  -17.3870   19.2010 C   0  0  0  0  0  1  0  0  0  0  0  0
  -23.6890  -17.0610   16.9820 C   0  0  0  0  0  1  0  0  0  0  0  0
  -26.0780  -12.3220   19.6030 N   0  0  0  0  0 15  0  0  0  0  0  0
  -28.9960  -13.2000   21.5700 C   0  0  0  0  0  2  0  0  0  0  0  0
  -30.5360  -13.4050   19.3590 C   0  0  0  0  0  0  0  0  0  0  0  0
  -30.1950  -11.5520   17.6600 C   0  0  0  0  0  2  0  0  0  0  0  0
  -28.9410  -11.7290   16.6900 C   0  0  0  0  0  2  0  0  0  0  0  0
  -27.5610  -12.1730   17.2920 C   0  0  0  0  0  2  0  0  0  0  0  0
  -27.8860  -13.0980   18.5020 C   0  0  0  0  0  2  0  0  0  0  0  0
  -28.7120  -11.9410   19.2740 C   0  0  0  0  0  2  0  0  0  0  0  0
  -30.0380  -12.2230   18.9560 N   0  0  0  0  0  0  0  0  0  0  0  0
  -31.3430  -14.0100   18.6250 O   0  0  0  0  0  0  0  0  0  0  0  0
  -30.0390  -13.8070   20.5950 N   0  0  0  0  0  0  0  0  0  0  0  0
  -30.4040  -14.6960   20.9020 H   0  0  0  0  0  0  0  0  0  0  0  0
  -25.1960  -14.2710   20.4440 C   0  0  0  0  0  1  0  0  0  0  0  0
  -24.0770  -13.3540   20.9990 C   0  0  0  0  0  0  0  0  0  0  0  0
  -24.5960  -12.1370   21.2740 C   0  0  0  0  0  1  0  0  0  0  0  0
  -26.4540  -14.2010   19.4640 N   0  0  0  0  0  1  0  0  0  0  0  0
  -25.0280  -13.5550   20.7230 N   0  0  0  0  0  0  0  0  0  0  0  0
  -23.8110  -10.6440   21.1290 C   0  0  0  0  0  3  0  0  0  0  0  0
  -24.2600   -9.4650   21.8580 C   0  0  0  0  0  3  0  0  0  0  0  0
  -23.5240   -8.2340   22.0720 C   0  0  0  0  0  3  0  0  0  0  0  0
  -22.2210   -8.0360   21.5520 C   0  0  0  0  0  0  0  0  0  0  0  0
  -21.7860   -9.0950   20.7110 C   0  0  0  0  0  3  0  0  0  0  0  0
  -22.5450  -10.3110   20.4990 C   0  0  0  0  0  3  0  0  0  0  0  0
  -21.4110   -6.8990   21.7540 O   0  0  0  0  0  0  0  0  0  0  0  0
  -21.4160   -6.0960   22.8970 C   0  0  0  0  0  0  0  0  0  0  0  0
  -21.1970   -6.6290   24.1910 C   0  0  0  0  0  3  0  0  0  0  0  0
  -21.1680   -5.7900   25.3290 C   0  0  0  0  0  3  0  0  0  0  0  0
  -21.3530   -4.4010   25.1960 C   0  0  0  0  0  0  0  0  0  0  0  0
  -21.5330   -3.8500   23.9170 C   0  0  0  0  0  3  0  0  0  0  0  0
  -21.5530   -4.6860   22.7800 C   0  0  0  0  0  0  0  0  0  0  0  0
  -21.6980   -4.1120   21.5610 F   0  0  0  0  0  0  0  0  0  0  0  0
  -21.3510   -3.5990   26.2910 F   0  0  0  0  0  0  0  0  0  0  0  0
  -22.6060  -13.6110   21.3460 C   0  0  0  0  0  0  0  0  0  0  0  0
  -22.0570  -12.8710   22.3130 N   0  0  0  0  0  0  0  0  0  0  0  0
  -22.0110  -14.4850   20.7480 O   0  0  0  0  0  0  0  0  0  0  0  0
  -22.5860  -12.1560   22.7880 H   0  0  0  0  0  0  0  0  0  0  0  0
  -21.0880  -13.0070   22.5620 H   0  0  0  0  0  0  0  0  0  0  0  0
  -26.5560  -14.5890   19.3540 N   0  0  0  0  0  0  0  0  0  0  0  0
  -25.9440  -15.2810   18.8880 H   0  0  0  0  0  0  0  0  0  0  0  0
  -27.0240  -15.0970   20.1170 H   0  0  0  0  0  0  0  0  0  0  0  0
  -26.4860  -21.4560   19.4470 C   0  0  0  0  0 15  0  0  0  0  0  0
  -27.0640  -23.6090   19.4910 O   0  0  0  0  0  1  0  0  0  0  0  0
  -25.1220  -31.2710   22.4470 C   0  0  0  0  0  0  0  0  0  0  0  0
  -26.6860  -25.3510   19.3980 C   0  0  0  0  0  0  0  0  0  0  0  0
  -23.8000  -29.9060   20.9170 C   0  0  0  0  0  3  0  0  0  0  0  0
  -25.0070  -28.1260   19.3650 C   0  0  0  0  0  0  0  0  0  0  0  0
  -26.3660  -29.6820   20.7000 C   0  0  0  0  0  2  0  0  0  0  0  0
  -26.2270  -28.1780   20.0290 C   0  0  0  0  0  0  0  0  0  0  0  0
  -27.0460  -26.8300   20.0070 C   0  0  0  0  0  3  0  0  0  0  0  0
  -25.6220  -25.7850   18.5500 C   0  0  0  0  0  3  0  0  0  0  0  0
  -24.8180  -26.9860   18.5670 C   0  0  0  0  0  3  0  0  0  0  0  0
  -23.9290  -29.2330   19.5120 C   0  0  0  0  0  2  0  0  0  0  0  0
  -25.1450  -30.3530   21.3950 N   0  0  0  0  0  0  0  0  0  0  0  0
  -24.0600  -31.6060   23.0120 O   0  0  0  0  0  0  0  0  0  0  0  0
  -23.1310  -28.9450   21.9380 C   0  0  0  0  0  0  0  0  0  0  0  0
  -21.7880  -28.8230   21.9360 N   0  0  0  0  0  0  0  0  0  0  0  0
  -23.8370  -28.3120   22.7260 O   0  0  0  0  0  0  0  0  0  0  0  0
  -21.2560  -29.3850   21.2870 H   0  0  0  0  0  0  0  0  0  0  0  0
  -18.4520  -27.6550   22.8020 C   0  0  0  0  0  0  0  0  0  0  0  0
  -21.0290  -27.8800   22.7730 C   0  0  0  0  0  3  0  0  0  0  0  0
  -21.0350  -26.4640   22.1490 C   0  0  0  0  0  2  0  0  0  0  0  0
  -19.8240  -26.1970   21.2530 C   0  0  0  0  0  2  0  0  0  0  0  0
  -18.5250  -26.3340   22.0540 C   0  0  0  0  0  2  0  0  0  0  0  0
  -19.6240  -28.3890   23.1240 C   0  0  0  0  0  0  0  0  0  0  0  0
  -19.4940  -29.6230   23.7990 C   0  0  0  0  0  3  0  0  0  0  0  0
  -18.2250  -30.1240   24.1460 C   0  0  0  0  0  3  0  0  0  0  0  0
  -17.0680  -29.3880   23.8330 C   0  0  0  0  0  3  0  0  0  0  0  0
  -17.1840  -28.1550   23.1670 C   0  0  0  0  0  3  0  0  0  0  0  0
  -26.4030  -31.9630   23.0100 C   0  0  0  0  0  3  0  0  0  0  0  0
  -26.0460  -33.3190   23.5090 N   0  0  0  0  0  0  0  0  0  0  0  0
  -26.2590  -34.4810   22.8720 C   0  0  0  0  0  0  0  0  0  0  0  0
  -26.8160  -34.5340   21.7750 O   0  0  0  0  0  0  0  0  0  0  0  0
  -25.5300  -33.3460   24.3750 H   0  0  0  0  0  0  0  0  0  0  0  0
  -24.4400  -36.2350   22.9600 C   0  0  0  0  0  1  0  0  0  0  0  0
  -25.7880  -35.7910   23.5510 C   0  0  0  0  0  3  0  0  0  0  0  0
  -27.9700  -36.7070   24.2270 C   0  0  0  0  0  1  0  0  0  0  0  0
  -26.7580  -36.9050   23.4360 N   0  0  0  0  0  0  0  0  0  0  0  0
  -26.3350  -37.7850   23.7230 H   0  0  0  0  0  0  0  0  0  0  0  0
  -27.0690  -31.1550   24.1940 C   0  0  1  0  0  0  0  0  0  0  0  0
  -26.0930  -30.8100   25.3450 C   0  0  0  0  0  1  0  0  0  0  0  0
  -27.6750  -29.8270   23.7010 C   0  0  0  0  0  1  0  0  0  0  0  0
  -28.2460  -31.9650   24.7890 C   0  0  0  0  0  1  0  0  0  0  0  0
  4 14  1  0
  6  7  1  0
  7 10  1  0
  8  6  1  0
  8  3  1  1
  8 11  1  0
  9  5  1  0
 12  8  1  0
 15 23  1  0
 16 21  1  0
 17 18  1  0
 17 16  1  0
 18 19  1  0
 19 20  1  0
 21 20  1  0
 21 15  1  0
 22 15  2  0
 23 24  1  0
 23 14  1  0
 25 29  1  0
 26 27  1  0
 26 45  1  0
 29 26  2  0
 30 31  1  0
 31 32  2  0
 33 36  1  0
 33 32  1  0
 34 33  2  0
 35 34  1  0
 35 30  2  0
 36 37  1  0
 37 38  1  0
 38 39  2  0
 40 39  1  0
 40 44  1  0
 41 40  2  0
 42 37  2  0
 42 41  1  0
 43 42  1  0
 45 46  1  0
 46 49  1  0
 46 48  1  0
 47 45  2  0
 50 28  1  0
 50 52  1  0
 51 50  1  0
 55 66  2  0
 56 54  1  0
 56 61  1  0
 57 65  1  0
 57 67  1  0
 58 64  1  0
 58 60  1  0
 59 65  1  0
 60 59  1  0
 61 60  2  0
 62 63  1  0
 62 56  2  0
 63 58  2  0
 64 57  1  0
 65 55  1  0
 67 69  2  0
 68 67  1  0
 70 68  1  0
 71 76  2  0
 71 80  1  0
 72 68  1  0
 72 76  1  0
 73 72  1  0
 74 75  1  0
 74 73  1  0
 75 71  1  0
 76 77  1  0
 77 78  2  0
 79 78  1  0
 80 79  2  0
 81 55  1  0
 81 82  1  0
 81 91  1  0
 82 85  1  0
 83 82  1  0
 83 87  1  0
 84 83  2  0
 87 86  1  0
 89 87  1  0
 89 90  1  0
 89 88  1  0
 91 94  1  1
 91 92  1  0
 93 91  1  0
M  ISO  4  15 100  23 100  53 101  54 101
M  END
>  <TORSDO>  (34) 
F 18

>  <SCORE>  (34) 
28.198

>  <name>  (34) 
33

>  <ligand_id>  (34) 
33

>  <original_smiles>  (34) 
[H]c1c([H])c([H])c2c(c1[H])C([H])([H])C([H])([H])C([H])([H])C2([H])N([H])C(=O)C1([H])N(C(=O)C([H])(N([H])C(=O)C([H])(N([H])C([H])([H])[H])C([H])([H])[H])C(C([H])([H])[H])(C([H])([H])[H])C([H])([H])[H])C([H])([H])c2c([H])c(OC([H])([H])C3(C([H])([H])[H])c4c([H])c(C([H])([H])N([H])C(=O)N5C([H])([H])C([H])([H])C([H])([H])C([H])(n6nc(-c7c([H])c([H])c(Oc8c([H])c([H])c(F)c([H])c8F)c([H])c7[H])c(C(=O)N([H])[H])c6N([H])[H])C5([H])[H])nc(C([H])([H])[H])c4C(C([H])([H])[H])(C([H])([H])[H])C3([H])[H])c([H])c([H])c2C1([H])[H]

>  <smiles>  (34) 
[H]c1c([H])c([H])c2c(c1[H])C([H])([H])C([H])([H])C([H])([H])C2([H])N([H])C(=O)C1([H])N(C(=O)C([H])(N([H])C(=O)C([H])(N([H])C([H])([H])[H])C([H])([H])[H])C(C([H])([H])[H])(C([H])([H])[H])C([H])([H])[H])C([H])([H])c2c([H])c(OC([H])([H])C3(C([H])([H])[H])c4c([H])c(C([H])([H])N([H])C(=O)N5C([H])([H])C([H])([H])C([H])([H])C([H])(n6nc(-c7c([H])c([H])c(Oc8c([H])c([H])c(F)c([H])c8F)c([H])c7[H])c(C(=O)N([H])[H])c6N([H])[H])C5([H])[H])nc(C([H])([H])[H])c4C(C([H])([H])[H])(C([H])([H])[H])C3([H])[H])c([H])c([H])c2C1([H])[H]

$$$$
34:0:0
     RDKit          3D

 95105  0  0  1  0  0  0  0  0999 V2000
  -29.4690  -20.9230   19.9970 C   0  0  0  0  0  3  0  0  0  0  0  0
  -29.7920  -22.5080   22.2650 C   0  0  0  0  0  3  0  0  0  0  0  0
  -30.0600  -20.3210   21.1370 C   0  0  0  0  0  0  0  0  0  0  0  0
  -29.1230  -23.0840   21.1550 C   0  0  0  0  0  0  0  0  0  0  0  0
  -30.2460  -21.1610   22.2710 C   0  0  0  0  0  0  0  0  0  0  0  0
  -29.0280  -22.2760   19.9910 C   0  0  0  0  0  0  0  0  0  0  0  0
  -30.8900  -20.6270   23.5440 C   0  0  0  0  0  1  0  0  0  0  0  0
  -28.3970  -22.8260   18.7260 C   0  0  0  0  0  1  0  0  0  0  0  0
  -31.0580  -14.7400   20.0610 C   0  0  0  0  0  0  0  0  0  0  0  0
  -30.7060  -12.5470   18.9610 C   0  0  0  0  0  2  0  0  0  0  0  0
  -29.7170  -12.7180   17.7890 C   0  0  0  0  0  2  0  0  0  0  0  0
  -28.2620  -12.5830   18.2810 C   0  0  0  0  0  2  0  0  0  0  0  0
  -27.9760  -13.4270   19.5520 C   0  0  0  0  0  3  0  0  0  0  0  0
  -29.0830  -13.2170   20.6110 C   0  0  0  0  0  2  0  0  0  0  0  0
  -30.3590  -13.5640   19.9740 N   0  0  0  0  0  0  0  0  0  0  0  0
  -32.2230  -14.7940   19.6550 O   0  0  0  0  0  0  0  0  0  0  0  0
  -29.2150  -17.8780   21.3680 C   0  0  0  0  0  2  0  0  0  0  0  0
  -31.2720  -18.2830   19.9480 C   0  0  0  0  0  2  0  0  0  0  0  0
  -29.5370  -16.3480   21.3040 C   0  0  0  0  0  2  0  0  0  0  0  0
  -30.6600  -17.0450   19.2270 C   0  0  0  0  0  2  0  0  0  0  0  0
  -30.4370  -18.8030   21.1530 C   0  0  0  0  0  3  0  0  0  0  0  0
  -30.3410  -15.9160   20.1360 N   0  0  0  0  0  0  0  0  0  0  0  0
  -25.6230  -14.0520   20.3770 C   0  0  0  0  0  0  0  0  0  0  0  0
  -24.5600  -13.2880   20.7780 C   0  0  0  0  0  0  0  0  0  0  0  0
  -25.0000  -11.9310   20.7050 C   0  0  0  0  0  0  0  0  0  0  0  0
  -26.6430  -13.1600   20.0880 N   0  0  0  0  0  0  0  0  0  0  0  0
  -26.2750  -11.8790   20.3410 N   0  0  0  0  0  0  0  0  0  0  0  0
  -24.2650  -10.6750   20.9030 C   0  0  0  0  0  0  0  0  0  0  0  0
  -24.6850   -9.7150   21.8510 C   0  0  0  0  0  3  0  0  0  0  0  0
  -23.9470   -8.5250   22.0360 C   0  0  0  0  0  3  0  0  0  0  0  0
  -22.7790   -8.2850   21.2750 C   0  0  0  0  0  0  0  0  0  0  0  0
  -22.3780   -9.2350   20.3180 C   0  0  0  0  0  3  0  0  0  0  0  0
  -23.1150  -10.4160   20.1290 C   0  0  0  0  0  3  0  0  0  0  0  0
  -22.0160   -7.1470   21.3700 O   0  0  0  0  0  0  0  0  0  0  0  0
  -21.8860   -6.4660   22.5540 C   0  0  0  0  0  0  0  0  0  0  0  0
  -21.3800   -7.0820   23.7190 C   0  0  0  0  0  3  0  0  0  0  0  0
  -21.1960   -6.3260   24.8930 C   0  0  0  0  0  3  0  0  0  0  0  0
  -21.5090   -4.9530   24.9050 C   0  0  0  0  0  0  0  0  0  0  0  0
  -22.0080   -4.3360   23.7450 C   0  0  0  0  0  3  0  0  0  0  0  0
  -22.1930   -5.0890   22.5730 C   0  0  0  0  0  0  0  0  0  0  0  0
  -22.6550   -4.4850   21.4520 F   0  0  0  0  0  0  0  0  0  0  0  0
  -21.3250   -4.2250   26.0310 F   0  0  0  0  0  0  0  0  0  0  0  0
  -23.1830  -13.7810   21.1140 C   0  0  0  0  0  0  0  0  0  0  0  0
  -22.4850  -13.0900   22.0080 N   0  0  0  0  0  0  0  0  0  0  0  0
  -22.7360  -14.8160   20.6210 O   0  0  0  0  0  0  0  0  0  0  0  0
  -22.8590  -12.2530   22.4330 H   0  0  0  0  0  0  0  0  0  0  0  0
  -21.5640  -13.4070   22.2750 H   0  0  0  0  0  0  0  0  0  0  0  0
  -25.7960  -15.4230   20.2190 N   0  0  0  0  0  0  0  0  0  0  0  0
  -25.0380  -16.0780   20.3760 H   0  0  0  0  0  0  0  0  0  0  0  0
  -26.6360  -15.8660   19.8670 H   0  0  0  0  0  0  0  0  0  0  0  0
  -27.4770  -24.5070   22.5610 C   0  0  0  0  0  2  0  0  0  0  0  0
  -26.8290  -24.2660   21.2360 C   0  0  0  0  0  2  0  0  0  0  0  0
  -28.3470  -24.4140   21.3120 C   0  0  2  0  0  0  0  0  0  0  0  0
  -29.1390  -25.7290   20.9630 C   0  0  0  0  0  2  0  0  0  0  0  0
  -28.7800  -26.6450   19.8760 O   0  0  0  0  0  0  0  0  0  0  0  0
  -24.8230  -31.7360   23.1020 C   0  0  0  0  0  0  0  0  0  0  0  0
  -27.6300  -27.4170   19.9510 C   0  0  0  0  0  0  0  0  0  0  0  0
  -23.6770  -30.3280   21.4230 C   0  0  0  0  0  3  0  0  0  0  0  0
  -25.1990  -28.8890   19.9570 C   0  0  0  0  0  0  0  0  0  0  0  0
  -26.1910  -30.7720   21.2530 C   0  0  0  0  0  2  0  0  0  0  0  0
  -26.3330  -29.4130   20.5930 C   0  0  0  0  0  0  0  0  0  0  0  0
  -27.5500  -28.6780   20.6050 C   0  0  0  0  0  3  0  0  0  0  0  0
  -26.5050  -26.9740   19.2320 C   0  0  0  0  0  3  0  0  0  0  0  0
  -25.2830  -27.6670   19.2700 C   0  0  0  0  0  3  0  0  0  0  0  0
  -23.9210  -29.6980   20.0240 C   0  0  0  0  0  2  0  0  0  0  0  0
  -24.9140  -30.9630   21.9830 N   0  0  0  0  0  0  0  0  0  0  0  0
  -23.7320  -31.9510   23.6490 O   0  0  0  0  0  0  0  0  0  0  0  0
  -23.0680  -29.2560   22.3560 C   0  0  0  0  0  0  0  0  0  0  0  0
  -21.7510  -29.0220   22.2270 N   0  0  0  0  0  0  0  0  0  0  0  0
  -23.7780  -28.6390   23.1540 O   0  0  0  0  0  0  0  0  0  0  0  0
  -21.2380  -29.5750   21.5540 H   0  0  0  0  0  0  0  0  0  0  0  0
  -18.4340  -27.6680   22.6950 C   0  0  0  0  0  0  0  0  0  0  0  0
  -20.9780  -28.0320   22.9760 C   0  0  0  0  0  3  0  0  0  0  0  0
  -21.1440  -26.6210   22.3650 C   0  0  0  0  0  2  0  0  0  0  0  0
  -20.0570  -26.2760   21.3430 C   0  0  0  0  0  2  0  0  0  0  0  0
  -18.6710  -26.3440   21.9880 C   0  0  0  0  0  2  0  0  0  0  0  0
  -19.5180  -28.4670   23.1450 C   0  0  0  0  0  0  0  0  0  0  0  0
  -19.2430  -29.7050   23.7670 C   0  0  0  0  0  3  0  0  0  0  0  0
  -17.9170  -30.1440   23.9420 C   0  0  0  0  0  3  0  0  0  0  0  0
  -16.8480  -29.3420   23.5090 C   0  0  0  0  0  3  0  0  0  0  0  0
  -17.1060  -28.1050   22.8910 C   0  0  0  0  0  3  0  0  0  0  0  0
  -26.0820  -32.4050   23.7360 C   0  0  0  0  0  3  0  0  0  0  0  0
  -25.7140  -33.7770   24.1070 N   0  0  0  0  0  0  0  0  0  0  0  0
  -25.9890  -34.8640   23.3730 C   0  0  0  0  0  0  0  0  0  0  0  0
  -26.6530  -34.8200   22.3330 O   0  0  0  0  0  0  0  0  0  0  0  0
  -25.1210  -33.8820   24.9170 H   0  0  0  0  0  0  0  0  0  0  0  0
  -24.1710  -36.5790   23.0880 C   0  0  0  0  0  1  0  0  0  0  0  0
  -25.4440  -36.2160   23.8720 C   0  0  0  0  0  3  0  0  0  0  0  0
  -27.5450  -37.1840   24.6940 C   0  0  0  0  0  1  0  0  0  0  0  0
  -26.4230  -37.3200   23.7700 N   0  0  0  0  0  0  0  0  0  0  0  0
  -25.9750  -38.2160   23.9450 H   0  0  0  0  0  0  0  0  0  0  0  0
  -26.6410  -31.6190   24.9850 C   0  0  1  0  0  0  0  0  0  0  0  0
  -25.5640  -31.3040   26.0500 C   0  0  0  0  0  1  0  0  0  0  0  0
  -27.2780  -30.2770   24.5500 C   0  0  0  0  0  1  0  0  0  0  0  0
  -27.7610  -32.4400   25.6640 C   0  0  0  0  0  1  0  0  0  0  0  0
  1  3  1  0
  2  5  1  0
  3  5  2  0
  4 53  1  0
  4  2  2  0
  5  7  1  0
  6  1  2  0
  6  4  1  0
  8  6  1  0
  9 22  1  0
 10 15  1  0
 11 12  1  0
 11 10  1  0
 13 12  1  0
 13 26  1  0
 13 14  1  0
 15  9  1  0
 15 14  1  0
 16  9  2  0
 18 21  1  0
 19 17  1  0
 20 18  1  0
 20 22  1  0
 21  3  1  0
 21 17  1  0
 22 19  1  0
 23 24  2  0
 24 43  1  0
 25 24  1  0
 25 28  1  0
 26 27  1  0
 26 23  1  0
 27 25  2  0
 28 29  1  0
 29 30  2  0
 31 34  1  0
 31 30  1  0
 32 31  2  0
 33 32  1  0
 33 28  2  0
 34 35  1  0
 35 40  2  0
 35 36  1  0
 36 37  2  0
 37 38  1  0
 38 42  1  0
 39 38  2  0
 40 39  1  0
 41 40  1  0
 43 44  1  0
 44 47  1  0
 44 46  1  0
 45 43  2  0
 48 49  1  0
 48 23  1  0
 50 48  1  0
 52 53  1  0
 52 51  1  0
 53 51  1  0
 53 54  1  6
 55 57  1  0
 55 54  1  0
 56 67  2  0
 57 62  1  0
 58 66  1  0
 58 68  1  0
 59 65  1  0
 59 61  1  0
 60 66  1  0
 61 62  2  0
 61 60  1  0
 63 64  1  0
 63 57  2  0
 64 59  2  0
 65 58  1  0
 66 56  1  0
 68 70  2  0
 69 68  1  0
 71 69  1  0
 72 81  2  0
 72 77  1  0
 73 69  1  0
 73 77  1  0
 74 73  1  0
 75 76  1  0
 75 74  1  0
 76 72  1  0
 77 78  2  0
 78 79  1  0
 80 79  2  0
 81 80  1  0
 82 56  1  0
 82 83  1  0
 82 92  1  0
 83 86  1  0
 84 88  1  0
 84 83  1  0
 85 84  2  0
 88 87  1  0
 90 88  1  0
 90 91  1  0
 90 89  1  0
 92 95  1  1
 92 93  1  0
 94 92  1  0
M  ISO  4   9 100  22 100  54 101  55 101
M  END
>  <TORSDO>  (35) 
F 18

>  <SCORE>  (35) 
-13.780

>  <name>  (35) 
34

>  <ligand_id>  (35) 
34

>  <original_smiles>  (35) 
[H]c1c([H])c([H])c2c(c1[H])C([H])([H])C([H])([H])C([H])([H])C2([H])N([H])C(=O)C1([H])N(C(=O)C([H])(N([H])C(=O)C([H])(N([H])C([H])([H])[H])C([H])([H])[H])C(C([H])([H])[H])(C([H])([H])[H])C([H])([H])[H])C([H])([H])c2c([H])c(OC([H])([H])C3(c4c([H])c(C([H])([H])[H])c(C5([H])C([H])([H])C([H])([H])N(C(=O)N6C([H])([H])C([H])([H])C([H])([H])C([H])(n7nc(-c8c([H])c([H])c(Oc9c([H])c([H])c(F)c([H])c9F)c([H])c8[H])c(C(=O)N([H])[H])c7N([H])[H])C6([H])[H])C([H])([H])C5([H])[H])c([H])c4C([H])([H])[H])C([H])([H])C3([H])[H])c([H])c([H])c2C1([H])[H]

>  <smiles>  (35) 
[H]c1c([H])c([H])c2c(c1[H])C([H])([H])C([H])([H])C([H])([H])C2([H])N([H])C(=O)C1([H])N(C(=O)C([H])(N([H])C(=O)C([H])(N([H])C([H])([H])[H])C([H])([H])[H])C(C([H])([H])[H])(C([H])([H])[H])C([H])([H])[H])C([H])([H])c2c([H])c(OC([H])([H])C3(c4c([H])c(C([H])([H])[H])c(C5([H])C([H])([H])C([H])([H])N(C(=O)N6C([H])([H])C([H])([H])C([H])([H])C([H])(n7nc(-c8c([H])c([H])c(Oc9c([H])c([H])c(F)c([H])c9F)c([H])c8[H])c(C(=O)N([H])[H])c7N([H])[H])C6([H])[H])C([H])([H])C5([H])[H])c([H])c4C([H])([H])[H])C([H])([H])C3([H])[H])c([H])c([H])c2C1([H])[H]

$$$$
35:0:0
     RDKit          3D

 89 98  0  0  1  0  0  0  0  0999 V2000
  -28.2780  -21.4640   20.0620 C   0  0  0  0  0  3  0  0  0  0  0  0
  -28.7010  -22.8460   20.1690 C   0  0  0  0  0  0  0  0  0  0  0  0
  -30.0920  -22.4990   20.3490 C   0  0  0  0  0  0  0  0  0  0  0  0
  -31.2180  -23.4750   20.5310 C   0  0  0  0  0  1  0  0  0  0  0  0
  -30.4060  -21.1600   20.3440 N   0  0  0  0  0  0  0  0  0  0  0  0
  -29.2860  -20.3910   20.1690 N   0  0  0  0  0  0  0  0  0  0  0  0
  -30.6120  -15.2260   19.8680 C   0  0  0  0  0  0  0  0  0  0  0  0
  -30.5040  -12.8310   18.9220 C   0  0  0  0  0  2  0  0  0  0  0  0
  -29.4860  -12.6840   17.7660 C   0  0  0  0  0  2  0  0  0  0  0  0
  -28.0780  -12.3960   18.3180 C   0  0  0  0  0  2  0  0  0  0  0  0
  -27.7210  -13.3170   19.5140 C   0  0  0  0  0  3  0  0  0  0  0  0
  -28.8590  -13.4300   20.5500 C   0  0  0  0  0  2  0  0  0  0  0  0
  -30.0340  -13.9360   19.8280 N   0  0  0  0  0  0  0  0  0  0  0  0
  -31.8030  -15.2480   19.5290 O   0  0  0  0  0  0  0  0  0  0  0  0
  -29.7910  -17.6790   19.0560 C   0  0  0  0  0  2  0  0  0  0  0  0
  -29.2810  -18.7580   20.1430 C   0  0  0  0  0  3  0  0  0  0  0  0
  -30.1020  -17.6640   21.0100 C   0  0  0  0  0  3  0  0  0  0  0  0
  -29.6310  -17.3050   22.4130 C   0  0  0  0  0  1  0  0  0  0  0  0
  -29.8610  -16.4830   20.0350 N   0  0  0  0  0  0  0  0  0  0  0  0
  -25.4220  -13.8140   20.4990 C   0  0  0  0  0  0  0  0  0  0  0  0
  -24.4010  -13.0090   20.9210 C   0  0  0  0  0  0  0  0  0  0  0  0
  -24.8730  -11.6670   20.7860 C   0  0  0  0  0  0  0  0  0  0  0  0
  -26.4450  -12.9640   20.1240 N   0  0  0  0  0  0  0  0  0  0  0  0
  -26.1340  -11.6630   20.3630 N   0  0  0  0  0  0  0  0  0  0  0  0
  -24.1750  -10.3880   20.9800 C   0  0  0  0  0  0  0  0  0  0  0  0
  -24.6310   -9.4290   21.9110 C   0  0  0  0  0  3  0  0  0  0  0  0
  -23.9310   -8.2180   22.0930 C   0  0  0  0  0  3  0  0  0  0  0  0
  -22.7580   -7.9550   21.3440 C   0  0  0  0  0  0  0  0  0  0  0  0
  -22.3210   -8.9030   20.4020 C   0  0  0  0  0  3  0  0  0  0  0  0
  -23.0230  -10.1070   20.2180 C   0  0  0  0  0  3  0  0  0  0  0  0
  -22.0270   -6.7960   21.4360 O   0  0  0  0  0  0  0  0  0  0  0  0
  -21.9050   -6.1140   22.6200 C   0  0  0  0  0  0  0  0  0  0  0  0
  -21.3730   -6.7190   23.7790 C   0  0  0  0  0  3  0  0  0  0  0  0
  -21.2010   -5.9610   24.9540 C   0  0  0  0  0  3  0  0  0  0  0  0
  -21.5530   -4.5980   24.9710 C   0  0  0  0  0  0  0  0  0  0  0  0
  -22.0780   -3.9910   23.8170 C   0  0  0  0  0  3  0  0  0  0  0  0
  -22.2510   -4.7460   22.6440 C   0  0  0  0  0  0  0  0  0  0  0  0
  -22.7380   -4.1520   21.5280 F   0  0  0  0  0  0  0  0  0  0  0  0
  -21.3810   -3.8680   26.0970 F   0  0  0  0  0  0  0  0  0  0  0  0
  -23.0290  -13.4570   21.3300 C   0  0  0  0  0  0  0  0  0  0  0  0
  -22.3930  -12.7300   22.2430 N   0  0  0  0  0  0  0  0  0  0  0  0
  -22.5310  -14.4860   20.8760 O   0  0  0  0  0  0  0  0  0  0  0  0
  -22.8110  -11.8970   22.6320 H   0  0  0  0  0  0  0  0  0  0  0  0
  -21.4760  -13.0100   22.5570 H   0  0  0  0  0  0  0  0  0  0  0  0
  -25.5600  -15.1940   20.3750 N   0  0  0  0  0  0  0  0  0  0  0  0
  -24.8080  -15.8380   20.5950 H   0  0  0  0  0  0  0  0  0  0  0  0
  -26.3890  -15.6560   20.0240 H   0  0  0  0  0  0  0  0  0  0  0  0
  -27.8430  -24.3570   20.0660 C   0  0  0  0  0  2  0  0  0  0  0  0
  -28.2240  -25.9170   20.2930 O   0  0  0  0  0  0  0  0  0  0  0  0
  -24.7050  -31.8640   23.2400 C   0  0  0  0  0  0  0  0  0  0  0  0
  -27.2310  -27.0130   20.2170 C   0  0  0  0  0  0  0  0  0  0  0  0
  -23.5010  -30.4780   21.6010 C   0  0  0  0  0  3  0  0  0  0  0  0
  -24.9390  -28.8780   20.1750 C   0  0  0  0  0  0  0  0  0  0  0  0
  -26.0660  -30.6860   21.4510 C   0  0  0  0  0  2  0  0  0  0  0  0
  -26.1290  -29.2820   20.7940 C   0  0  0  0  0  0  0  0  0  0  0  0
  -27.2720  -28.3700   20.7940 C   0  0  0  0  0  3  0  0  0  0  0  0
  -26.0130  -26.7550   19.5460 C   0  0  0  0  0  3  0  0  0  0  0  0
  -24.9030  -27.6330   19.5320 C   0  0  0  0  0  3  0  0  0  0  0  0
  -23.7240  -29.7990   20.2240 C   0  0  0  0  0  2  0  0  0  0  0  0
  -24.7790  -31.0350   22.1510 N   0  0  0  0  0  0  0  0  0  0  0  0
  -23.6180  -32.1590   23.7620 O   0  0  0  0  0  0  0  0  0  0  0  0
  -22.8050  -29.4810   22.5640 C   0  0  0  0  0  0  0  0  0  0  0  0
  -21.4750  -29.3200   22.4360 N   0  0  0  0  0  0  0  0  0  0  0  0
  -23.4680  -28.8530   23.3940 O   0  0  0  0  0  0  0  0  0  0  0  0
  -20.9940  -29.8770   21.7430 H   0  0  0  0  0  0  0  0  0  0  0  0
  -18.0850  -28.1340   22.9440 C   0  0  0  0  0  0  0  0  0  0  0  0
  -20.6460  -28.3880   23.2080 C   0  0  0  0  0  3  0  0  0  0  0  0
  -20.7410  -26.9540   22.6340 C   0  0  0  0  0  2  0  0  0  0  0  0
  -19.6370  -26.6360   21.6200 C   0  0  0  0  0  2  0  0  0  0  0  0
  -18.2560  -26.7850   22.2650 C   0  0  0  0  0  2  0  0  0  0  0  0
  -19.2070  -28.8930   23.3720 C   0  0  0  0  0  0  0  0  0  0  0  0
  -18.9910  -30.1530   23.9700 C   0  0  0  0  0  3  0  0  0  0  0  0
  -17.6860  -30.6560   24.1410 C   0  0  0  0  0  3  0  0  0  0  0  0
  -16.5800  -29.8940   23.7270 C   0  0  0  0  0  3  0  0  0  0  0  0
  -16.7800  -28.6350   23.1340 C   0  0  0  0  0  3  0  0  0  0  0  0
  -25.9820  -32.4970   23.8700 C   0  0  0  0  0  3  0  0  0  0  0  0
  -25.6720  -33.8960   24.2110 N   0  0  0  0  0  0  0  0  0  0  0  0
  -25.9870  -34.9580   23.4560 C   0  0  0  0  0  0  0  0  0  0  0  0
  -26.6320  -34.8610   22.4090 O   0  0  0  0  0  0  0  0  0  0  0  0
  -25.0940  -34.0440   25.0250 H   0  0  0  0  0  0  0  0  0  0  0  0
  -24.2420  -36.7510   23.1710 C   0  0  0  0  0  1  0  0  0  0  0  0
  -25.5120  -36.3450   23.9350 C   0  0  0  0  0  3  0  0  0  0  0  0
  -27.6700  -37.2380   24.6950 C   0  0  0  0  0  1  0  0  0  0  0  0
  -26.5380  -37.4010   23.7880 N   0  0  0  0  0  0  0  0  0  0  0  0
  -26.1340  -38.3210   23.9480 H   0  0  0  0  0  0  0  0  0  0  0  0
  -26.4870  -31.7240   25.1520 C   0  0  1  0  0  0  0  0  0  0  0  0
  -25.3860  -31.4930   26.2150 C   0  0  0  0  0  1  0  0  0  0  0  0
  -27.0660  -30.3420   24.7730 C   0  0  0  0  0  1  0  0  0  0  0  0
  -27.6370  -32.5140   25.8200 C   0  0  0  0  0  1  0  0  0  0  0  0
  1  2  2  0
  1  6  1  0
  2  3  1  0
  3  4  1  0
  5  3  2  0
  6  5  1  0
  7 19  1  0
  8 13  1  0
  9 10  1  0
  9  8  1  0
 11 10  1  0
 11 23  1  0
 11 12  1  0
 13  7  1  0
 13 12  1  0
 14  7  2  0
 15 19  1  0
 16 15  1  0
 16  6  1  0
 16 17  1  0
 17 18  1  0
 19 17  1  0
 20 21  2  0
 21 40  1  0
 22 21  1  0
 22 25  1  0
 23 24  1  0
 23 20  1  0
 24 22  2  0
 25 26  1  0
 26 27  2  0
 28 31  1  0
 28 27  1  0
 29 28  2  0
 30 29  1  0
 30 25  2  0
 31 32  1  0
 32 37  2  0
 32 33  1  0
 33 34  2  0
 34 35  1  0
 35 39  1  0
 36 35  2  0
 37 36  1  0
 38 37  1  0
 40 41  1  0
 41 44  1  0
 41 43  1  0
 42 40  2  0
 45 20  1  0
 45 46  1  0
 47 45  1  0
 48  2  1  0
 48 49  1  0
 50 61  2  0
 51 49  1  0
 51 56  1  0
 52 60  1  0
 52 62  1  0
 53 59  1  0
 53 55  1  0
 54 60  1  0
 55 54  1  0
 56 55  2  0
 57 51  2  0
 58 57  1  0
 58 53  2  0
 59 52  1  0
 60 50  1  0
 62 64  2  0
 63 62  1  0
 65 63  1  0
 66 75  2  0
 66 71  1  0
 67 63  1  0
 67 71  1  0
 68 67  1  0
 69 70  1  0
 69 68  1  0
 70 66  1  0
 71 72  2  0
 72 73  1  0
 74 73  2  0
 75 74  1  0
 76 50  1  0
 76 77  1  0
 76 86  1  0
 77 80  1  0
 78 82  1  0
 78 77  1  0
 79 78  2  0
 82 81  1  0
 84 82  1  0
 84 85  1  0
 84 83  1  0
 86 89  1  1
 86 87  1  0
 88 86  1  0
M  ISO  4   7 100  19 100  48 101  49 101
M  END
>  <TORSDO>  (36) 
F 17

>  <SCORE>  (36) 
-14.391

>  <name>  (36) 
35

>  <ligand_id>  (36) 
35

>  <original_smiles>  (36) 
[H]c1c([H])c([H])c2c(c1[H])C([H])([H])C([H])([H])C([H])([H])C2([H])N([H])C(=O)C1([H])N(C(=O)C([H])(N([H])C(=O)C([H])(N([H])C([H])([H])[H])C([H])([H])[H])C(C([H])([H])[H])(C([H])([H])[H])C([H])([H])[H])C([H])([H])c2c([H])c(OC([H])([H])c3c(C([H])([H])[H])nn(C4([H])C([H])([H])N(C(=O)N5C([H])([H])C([H])([H])C([H])([H])C([H])(n6nc(-c7c([H])c([H])c(Oc8c([H])c([H])c(F)c([H])c8F)c([H])c7[H])c(C(=O)N([H])[H])c6N([H])[H])C5([H])[H])C4([H])C([H])([H])[H])c3[H])c([H])c([H])c2C1([H])[H]

>  <smiles>  (36) 
[H]c1c([H])c([H])c2c(c1[H])C([H])([H])C([H])([H])C([H])([H])C2([H])N([H])C(=O)C1([H])N(C(=O)C([H])(N([H])C(=O)C([H])(N([H])C([H])([H])[H])C([H])([H])[H])C(C([H])([H])[H])(C([H])([H])[H])C([H])([H])[H])C([H])([H])c2c([H])c(OC([H])([H])c3c(C([H])([H])[H])nn(C4([H])C([H])([H])N(C(=O)N5C([H])([H])C([H])([H])C([H])([H])C([H])(n6nc(-c7c([H])c([H])c(Oc8c([H])c([H])c(F)c([H])c8F)c([H])c7[H])c(C(=O)N([H])[H])c6N([H])[H])C5([H])[H])C4([H])C([H])([H])[H])c3[H])c([H])c([H])c2C1([H])[H]

$$$$
36:0:0
     RDKit          3D

 96107  0  0  1  0  0  0  0  0999 V2000
  -29.3070  -22.8030   19.0380 C   0  0  0  0  0  0  0  0  0  0  0  0
  -29.7500  -21.3930   18.9320 C   0  0  0  0  0  0  0  0  0  0  0  0
  -28.7120  -23.3460   20.2390 C   0  0  0  0  0  0  0  0  0  0  0  0
  -29.4600  -20.3860   19.9370 C   0  0  0  0  0  0  0  0  0  0  0  0
  -28.5390  -22.2690   21.1950 C   0  0  0  0  0  0  0  0  0  0  0  0
  -27.8610  -22.5490   22.5240 C   0  0  0  0  0  1  0  0  0  0  0  0
  -28.8760  -20.9200   21.0530 N   0  0  0  0  0  0  0  0  0  0  0  0
  -30.8040  -15.2510   19.9190 C   0  0  0  0  0  0  0  0  0  0  0  0
  -30.5530  -12.9100   18.9780 C   0  0  0  0  0  2  0  0  0  0  0  0
  -29.5650  -12.8500   17.7940 C   0  0  0  0  0  2  0  0  0  0  0  0
  -28.1320  -12.6310   18.3090 C   0  0  0  0  0  2  0  0  0  0  0  0
  -27.7830  -13.5560   19.5050 C   0  0  0  0  0  3  0  0  0  0  0  0
  -28.9010  -13.6190   20.5670 C   0  0  0  0  0  2  0  0  0  0  0  0
  -30.1250  -14.0300   19.8720 N   0  0  0  0  0  0  0  0  0  0  0  0
  -32.0030  -15.2020   19.6220 O   0  0  0  0  0  0  0  0  0  0  0  0
  -30.9490  -17.8610   20.4880 C   0  0  0  0  0  2  0  0  0  0  0  0
  -28.9870  -17.3710   19.9820 C   0  0  0  0  0  2  0  0  0  0  0  0
  -29.8140  -18.7380   19.8230 C   0  0  0  0  0  3  0  0  0  0  0  0
  -30.2440  -16.5460   20.2030 N   0  0  0  0  0  0  0  0  0  0  0  0
  -25.4620  -14.1070   20.4170 C   0  0  0  0  0  0  0  0  0  0  0  0
  -24.4190  -13.3210   20.8210 C   0  0  0  0  0  0  0  0  0  0  0  0
  -24.8770  -11.9710   20.7200 C   0  0  0  0  0  0  0  0  0  0  0  0
  -26.4840  -13.2360   20.0830 N   0  0  0  0  0  0  0  0  0  0  0  0
  -26.1470  -11.9430   20.3330 N   0  0  0  0  0  0  0  0  0  0  0  0
  -24.1560  -10.7050   20.9090 C   0  0  0  0  0  0  0  0  0  0  0  0
  -24.5790   -9.7480   21.8590 C   0  0  0  0  0  3  0  0  0  0  0  0
  -23.8550   -8.5490   22.0380 C   0  0  0  0  0  3  0  0  0  0  0  0
  -22.6950   -8.2970   21.2670 C   0  0  0  0  0  0  0  0  0  0  0  0
  -22.2920   -9.2430   20.3070 C   0  0  0  0  0  3  0  0  0  0  0  0
  -23.0160  -10.4330   20.1270 C   0  0  0  0  0  3  0  0  0  0  0  0
  -21.9440   -7.1500   21.3540 O   0  0  0  0  0  0  0  0  0  0  0  0
  -21.8030   -6.4710   22.5370 C   0  0  0  0  0  0  0  0  0  0  0  0
  -21.2010   -7.0620   23.6700 C   0  0  0  0  0  3  0  0  0  0  0  0
  -21.0130   -6.3050   24.8440 C   0  0  0  0  0  3  0  0  0  0  0  0
  -21.4170   -4.9570   24.8860 C   0  0  0  0  0  0  0  0  0  0  0  0
  -22.0110   -4.3640   23.7570 C   0  0  0  0  0  3  0  0  0  0  0  0
  -22.2000   -5.1180   22.5850 C   0  0  0  0  0  0  0  0  0  0  0  0
  -22.7540   -4.5370   21.4940 F   0  0  0  0  0  0  0  0  0  0  0  0
  -21.2300   -4.2280   26.0100 F   0  0  0  0  0  0  0  0  0  0  0  0
  -23.0420  -13.7940   21.1860 C   0  0  0  0  0  0  0  0  0  0  0  0
  -22.3670  -13.0780   22.0780 N   0  0  0  0  0  0  0  0  0  0  0  0
  -22.5780  -14.8310   20.7160 O   0  0  0  0  0  0  0  0  0  0  0  0
  -22.7570  -12.2400   22.4810 H   0  0  0  0  0  0  0  0  0  0  0  0
  -21.4440  -13.3750   22.3630 H   0  0  0  0  0  0  0  0  0  0  0  0
  -25.6210  -15.4820   20.2760 N   0  0  0  0  0  0  0  0  0  0  0  0
  -24.8670  -16.1340   20.4600 H   0  0  0  0  0  0  0  0  0  0  0  0
  -26.4540  -15.9280   19.9160 H   0  0  0  0  0  0  0  0  0  0  0  0
  -28.4080  -24.8180   17.5040 C   0  0  0  0  0  2  0  0  0  0  0  0
  -28.5120  -24.3030   16.0830 C   0  0  0  0  0  2  0  0  0  0  0  0
  -29.4570  -23.7560   17.8390 C   0  0  0  0  0  3  0  0  0  0  0  0
  -29.2290  -23.1310   16.5380 O   0  0  0  0  0  0  0  0  0  0  0  0
  -31.8550  -20.1870   17.8790 C   0  0  0  0  0  2  0  0  0  0  0  0
  -31.8680  -21.5940   17.3510 C   0  0  0  0  0  2  0  0  0  0  0  0
  -30.5470  -20.9450   17.7280 C   0  0  0  0  0  3  0  0  0  0  0  0
  -28.0330  -24.8650   20.5060 C   0  0  0  0  0  2  0  0  0  0  0  0
  -28.4180  -26.3260   20.0760 O   0  0  0  0  0  0  0  0  0  0  0  0
  -24.7240  -31.9490   23.2170 C   0  0  0  0  0  0  0  0  0  0  0  0
  -27.3840  -27.3470   20.0610 C   0  0  0  0  0  0  0  0  0  0  0  0
  -23.5570  -30.5840   21.5320 C   0  0  0  0  0  3  0  0  0  0  0  0
  -25.0390  -29.0820   20.0640 C   0  0  0  0  0  0  0  0  0  0  0  0
  -26.1100  -30.8900   21.3920 C   0  0  0  0  0  2  0  0  0  0  0  0
  -26.2110  -29.5170   20.6980 C   0  0  0  0  0  0  0  0  0  0  0  0
  -27.3880  -28.6680   20.6790 C   0  0  0  0  0  3  0  0  0  0  0  0
  -26.1910  -27.0400   19.3710 C   0  0  0  0  0  3  0  0  0  0  0  0
  -25.0450  -27.8590   19.3840 C   0  0  0  0  0  3  0  0  0  0  0  0
  -23.7970  -29.9570   20.1330 C   0  0  0  0  0  2  0  0  0  0  0  0
  -24.8160  -31.1630   22.1020 N   0  0  0  0  0  0  0  0  0  0  0  0
  -23.6300  -32.1980   23.7470 O   0  0  0  0  0  0  0  0  0  0  0  0
  -22.8920  -29.5340   22.4590 C   0  0  0  0  0  0  0  0  0  0  0  0
  -21.5680  -29.3420   22.3210 N   0  0  0  0  0  0  0  0  0  0  0  0
  -23.5710  -28.8970   23.2670 O   0  0  0  0  0  0  0  0  0  0  0  0
  -21.0740  -29.9090   21.6450 H   0  0  0  0  0  0  0  0  0  0  0  0
  -18.1990  -28.1010   22.8170 C   0  0  0  0  0  0  0  0  0  0  0  0
  -20.7600  -28.3680   23.0610 C   0  0  0  0  0  3  0  0  0  0  0  0
  -20.8610  -26.9620   22.4230 C   0  0  0  0  0  2  0  0  0  0  0  0
  -19.7470  -26.6780   21.4100 C   0  0  0  0  0  2  0  0  0  0  0  0
  -18.3730  -26.7850   22.0780 C   0  0  0  0  0  2  0  0  0  0  0  0
  -19.3190  -28.8510   23.2650 C   0  0  0  0  0  0  0  0  0  0  0  0
  -19.0990  -30.0830   23.9190 C   0  0  0  0  0  3  0  0  0  0  0  0
  -17.7940  -30.5660   24.1280 C   0  0  0  0  0  3  0  0  0  0  0  0
  -16.6890  -29.8130   23.6950 C   0  0  0  0  0  3  0  0  0  0  0  0
  -16.8920  -28.5820   23.0460 C   0  0  0  0  0  3  0  0  0  0  0  0
  -25.9860  -32.5910   23.8680 C   0  0  0  0  0  3  0  0  0  0  0  0
  -26.4870  -31.8100   25.1450 C   0  0  1  0  0  0  0  0  0  0  0  0
  -25.3780  -31.5460   26.1900 C   0  0  0  0  0  1  0  0  0  0  0  0
  -27.0960  -30.4440   24.7530 C   0  0  0  0  0  1  0  0  0  0  0  0
  -27.6160  -32.6110   25.8380 C   0  0  0  0  0  1  0  0  0  0  0  0
  -25.6530  -33.9810   24.2180 N   0  0  0  0  0  0  0  0  0  0  0  0
  -25.9380  -35.0490   23.4610 C   0  0  0  0  0  0  0  0  0  0  0  0
  -26.5750  -34.9690   22.4080 O   0  0  0  0  0  0  0  0  0  0  0  0
  -25.0800  -34.1160   25.0390 H   0  0  0  0  0  0  0  0  0  0  0  0
  -24.1460  -36.7990   23.2050 C   0  0  0  0  0  1  0  0  0  0  0  0
  -25.4380  -36.4250   23.9490 C   0  0  0  0  0  3  0  0  0  0  0  0
  -27.5800  -37.3760   24.6840 C   0  0  0  0  0  1  0  0  0  0  0  0
  -26.4350  -37.5050   23.7860 N   0  0  0  0  0  0  0  0  0  0  0  0
  -26.0090  -38.4150   23.9430 H   0  0  0  0  0  0  0  0  0  0  0  0
  1  3  1  0
  2  1  2  0
  2  4  1  0
  3 55  1  0
  3  5  2  0
  4  7  2  0
  5  6  1  0
  7  5  1  0
  8 19  1  0
  9 14  1  0
 10 11  1  0
 10  9  1  0
 12 11  1  0
 12 23  1  0
 12 13  1  0
 14  8  1  0
 14 13  1  0
 15  8  2  0
 17 19  1  0
 18  4  1  0
 18 17  1  0
 18 16  1  0
 19 16  1  0
 20 21  2  0
 21 40  1  0
 22 21  1  0
 22 25  1  0
 23 24  1  0
 23 20  1  0
 24 22  2  0
 25 26  1  0
 26 27  2  0
 28 31  1  0
 28 27  1  0
 29 28  2  0
 30 29  1  0
 30 25  2  0
 31 32  1  0
 32 37  2  0
 32 33  1  0
 33 34  2  0
 34 35  1  0
 35 39  1  0
 36 35  2  0
 37 36  1  0
 38 37  1  0
 40 41  1  0
 41 44  1  0
 41 43  1  0
 42 40  2  0
 45 20  1  0
 45 46  1  0
 47 45  1  0
 48 50  1  0
 49 51  1  0
 49 48  1  0
 50  1  1  0
 51 50  1  0
 53 54  1  0
 53 52  1  0
 54 52  1  0
 54  2  1  0
 56 55  1  0
 57 68  2  0
 58 56  1  0
 58 63  1  0
 59 67  1  0
 59 69  1  0
 60 66  1  0
 60 62  1  0
 61 67  1  0
 62 61  1  0
 63 62  2  0
 64 65  1  0
 64 58  2  0
 65 60  2  0
 66 59  1  0
 67 57  1  0
 69 71  2  0
 70 69  1  0
 72 70  1  0
 73 82  2  0
 73 78  1  0
 74 70  1  0
 74 78  1  0
 75 74  1  0
 76 77  1  0
 76 75  1  0
 77 73  1  0
 78 79  2  0
 79 80  1  0
 81 80  2  0
 82 81  1  0
 83 57  1  0
 83 88  1  0
 83 84  1  0
 84 87  1  1
 84 85  1  0
 86 84  1  0
 88 91  1  0
 89 93  1  0
 89 88  1  0
 90 89  2  0
 93 92  1  0
 95 96  1  0
 95 93  1  0
 95 94  1  0
M  ISO  4   8 100  19 100  55 101  56 101
M  END
>  <TORSDO>  (37) 
F 19

>  <SCORE>  (37) 
-13.433

>  <name>  (37) 
36

>  <ligand_id>  (37) 
36

>  <original_smiles>  (37) 
[H]c1c([H])c([H])c2c(c1[H])C([H])([H])C([H])([H])C([H])([H])C2([H])N([H])C(=O)C1([H])N(C(=O)C([H])(N([H])C(=O)C([H])(N([H])C([H])([H])[H])C([H])([H])[H])C(C([H])([H])[H])(C([H])([H])[H])C([H])([H])[H])C([H])([H])c2c([H])c(OC([H])([H])c3c(C([H])([H])[H])nc(C4([H])C([H])([H])N(C(=O)N5C([H])([H])C([H])([H])C([H])([H])C([H])(n6nc(-c7c([H])c([H])c(Oc8c([H])c([H])c(F)c([H])c8F)c([H])c7[H])c(C(=O)N([H])[H])c6N([H])[H])C5([H])[H])C4([H])[H])c(C4([H])C([H])([H])C4([H])[H])c3C3([H])OC([H])([H])C3([H])[H])c([H])c([H])c2C1([H])[H]

>  <smiles>  (37) 
[H]c1c([H])c([H])c2c(c1[H])C([H])([H])C([H])([H])C([H])([H])C2([H])N([H])C(=O)C1([H])N(C(=O)C([H])(N([H])C(=O)C([H])(N([H])C([H])([H])[H])C([H])([H])[H])C(C([H])([H])[H])(C([H])([H])[H])C([H])([H])[H])C([H])([H])c2c([H])c(OC([H])([H])c3c(C([H])([H])[H])nc(C4([H])C([H])([H])N(C(=O)N5C([H])([H])C([H])([H])C([H])([H])C([H])(n6nc(-c7c([H])c([H])c(Oc8c([H])c([H])c(F)c([H])c8F)c([H])c7[H])c(C(=O)N([H])[H])c6N([H])[H])C5([H])[H])C4([H])[H])c(C4([H])C([H])([H])C4([H])[H])c3C3([H])OC([H])([H])C3([H])[H])c([H])c([H])c2C1([H])[H]

$$$$
37:0:0
     RDKit          3D

 99109  0  0  1  0  0  0  0  0999 V2000
  -29.7950  -20.6750   17.2470 C   0  0  0  0  0  2  0  0  0  0  0  0
  -28.8640  -20.7290   19.4350 C   0  0  0  0  0  3  0  0  0  0  0  0
  -30.8340  -20.2510   18.2940 C   0  0  0  0  0  3  0  0  0  0  0  0
  -31.8620  -21.3510   18.6370 C   0  0  0  0  0  1  0  0  0  0  0  0
  -30.0380  -19.8320   19.4730 N   0  0  0  0  0  0  0  0  0  0  0  0
  -28.5390  -20.8180   17.9940 N   0  0  0  0  0  4  0  0  0  0  0  0
  -27.9420  -20.0470   17.7430 H   0  0  0  0  0  0  0  0  0  0  0  0
  -28.0470  -21.6630   17.7570 H   0  0  0  0  0  0  0  0  0  0  0  0
  -30.7710  -14.4680   20.4490 C   0  0  0  0  0  0  0  0  0  0  0  0
  -30.4600  -12.2780   19.4030 C   0  0  0  0  0  2  0  0  0  0  0  0
  -29.5290  -12.4450   18.1840 C   0  0  0  0  0  2  0  0  0  0  0  0
  -28.0460  -12.3680   18.6010 C   0  0  0  0  0  2  0  0  0  0  0  0
  -27.7020  -13.2280   19.8480 C   0  0  0  0  0  3  0  0  0  0  0  0
  -28.7570  -13.0530   20.9640 C   0  0  0  0  0  2  0  0  0  0  0  0
  -30.0830  -13.3010   20.3830 N   0  0  0  0  0  0  0  0  0  0  0  0
  -31.9760  -14.5700   20.2040 O   0  0  0  0  0  0  0  0  0  0  0  0
  -30.4190  -17.4350   18.6920 C   0  0  0  0  0  2  0  0  0  0  0  0
  -29.3110  -17.9280   20.9190 C   0  0  0  0  0  2  0  0  0  0  0  0
  -29.8700  -16.0260   18.8940 C   0  0  0  0  0  2  0  0  0  0  0  0
  -30.0680  -16.6290   21.3040 C   0  0  0  0  0  2  0  0  0  0  0  0
  -29.5520  -18.4310   19.4700 C   0  0  0  0  0  3  0  0  0  0  0  0
  -29.9940  -15.5610   20.2900 N   0  0  0  0  0  0  0  0  0  0  0  0
  -25.3080  -13.8460   20.5580 C   0  0  0  0  0  0  0  0  0  0  0  0
  -24.2340  -13.0740   20.9160 C   0  0  0  0  0  0  0  0  0  0  0  0
  -24.6920  -11.7220   20.8860 C   0  0  0  0  0  0  0  0  0  0  0  0
  -26.3500  -12.9590   20.3310 N   0  0  0  0  0  0  0  0  0  0  0  0
  -25.9840  -11.6790   20.5910 N   0  0  0  0  0  0  0  0  0  0  0  0
  -23.9650  -10.4580   21.0640 C   0  0  0  0  0  0  0  0  0  0  0  0
  -24.3880   -9.4910   22.0010 C   0  0  0  0  0  3  0  0  0  0  0  0
  -23.6640   -8.2900   22.1690 C   0  0  0  0  0  3  0  0  0  0  0  0
  -22.5010   -8.0510   21.3970 C   0  0  0  0  0  0  0  0  0  0  0  0
  -22.0990   -9.0070   20.4480 C   0  0  0  0  0  3  0  0  0  0  0  0
  -22.8230  -10.1980   20.2790 C   0  0  0  0  0  3  0  0  0  0  0  0
  -21.7480   -6.9050   21.4750 O   0  0  0  0  0  0  0  0  0  0  0  0
  -21.6750   -6.1670   22.6290 C   0  0  0  0  0  0  0  0  0  0  0  0
  -21.1970   -6.7180   23.8380 C   0  0  0  0  0  3  0  0  0  0  0  0
  -21.0770   -5.9060   24.9830 C   0  0  0  0  0  3  0  0  0  0  0  0
  -21.4210   -4.5420   24.9190 C   0  0  0  0  0  0  0  0  0  0  0  0
  -21.8900   -3.9900   23.7140 C   0  0  0  0  0  3  0  0  0  0  0  0
  -22.0130   -4.7990   22.5710 C   0  0  0  0  0  0  0  0  0  0  0  0
  -22.4460   -4.2570   21.4080 F   0  0  0  0  0  0  0  0  0  0  0  0
  -21.2960   -3.7590   26.0140 F   0  0  0  0  0  0  0  0  0  0  0  0
  -22.8350  -13.5530   21.1800 C   0  0  0  0  0  0  0  0  0  0  0  0
  -22.0980  -12.8500   22.0320 N   0  0  0  0  0  0  0  0  0  0  0  0
  -22.4040  -14.5820   20.6640 O   0  0  0  0  0  0  0  0  0  0  0  0
  -22.4570  -12.0150   22.4700 H   0  0  0  0  0  0  0  0  0  0  0  0
  -21.1570  -13.1520   22.2510 H   0  0  0  0  0  0  0  0  0  0  0  0
  -25.4850  -15.2140   20.3820 N   0  0  0  0  0  0  0  0  0  0  0  0
  -24.7350  -15.8870   20.4910 H   0  0  0  0  0  0  0  0  0  0  0  0
  -26.3640  -15.6370   20.1130 H   0  0  0  0  0  0  0  0  0  0  0  0
  -28.7360  -23.3060   19.4730 C   0  0  0  0  0  3  0  0  0  0  0  0
  -29.9320  -22.1880   21.2390 C   0  0  0  0  0  3  0  0  0  0  0  0
  -29.1670  -22.0970   20.0580 C   0  0  0  0  0  0  0  0  0  0  0  0
  -29.1700  -24.5330   20.0060 C   0  0  0  0  0  0  0  0  0  0  0  0
  -29.9970  -24.5070   21.1560 C   0  0  0  0  0  0  0  0  0  0  0  0
  -30.5960  -25.7570   21.7770 C   0  0  0  0  0  1  0  0  0  0  0  0
  -30.3400  -23.3570   21.7740 N   0  0  0  0  0  0  0  0  0  0  0  0
  -28.8160  -25.8110   19.2610 C   0  0  0  0  0  2  0  0  0  0  0  0
  -28.5050  -26.8770   20.1430 O   0  0  0  0  0  0  0  0  0  0  0  0
  -24.5920  -31.8760   23.2210 C   0  0  0  0  0  0  0  0  0  0  0  0
  -27.2770  -27.4930   20.1250 C   0  0  0  0  0  0  0  0  0  0  0  0
  -23.3930  -30.4720   21.5730 C   0  0  0  0  0  3  0  0  0  0  0  0
  -24.8560  -28.9460   20.1500 C   0  0  0  0  0  0  0  0  0  0  0  0
  -25.9120  -30.8550   21.3770 C   0  0  0  0  0  2  0  0  0  0  0  0
  -26.0050  -29.4880   20.7380 C   0  0  0  0  0  0  0  0  0  0  0  0
  -27.2110  -28.7640   20.7310 C   0  0  0  0  0  3  0  0  0  0  0  0
  -26.1040  -26.9400   19.5610 C   0  0  0  0  0  3  0  0  0  0  0  0
  -24.8970  -27.6670   19.5680 C   0  0  0  0  0  3  0  0  0  0  0  0
  -23.6080  -29.7950   20.1920 C   0  0  0  0  0  2  0  0  0  0  0  0
  -24.6500  -31.0820   22.1160 N   0  0  0  0  0  0  0  0  0  0  0  0
  -23.5090  -32.1410   23.7620 O   0  0  0  0  0  0  0  0  0  0  0  0
  -22.7510  -29.4430   22.5290 C   0  0  0  0  0  0  0  0  0  0  0  0
  -21.4250  -29.2640   22.4080 N   0  0  0  0  0  0  0  0  0  0  0  0
  -23.4380  -28.8080   23.3340 O   0  0  0  0  0  0  0  0  0  0  0  0
  -20.9310  -29.8290   21.7290 H   0  0  0  0  0  0  0  0  0  0  0  0
  -18.0480  -28.0970   22.9270 C   0  0  0  0  0  0  0  0  0  0  0  0
  -20.6100  -28.3240   23.1760 C   0  0  0  0  0  3  0  0  0  0  0  0
  -20.6920  -26.9010   22.5780 C   0  0  0  0  0  2  0  0  0  0  0  0
  -19.5760  -26.6030   21.5710 C   0  0  0  0  0  2  0  0  0  0  0  0
  -18.2030  -26.7550   22.2330 C   0  0  0  0  0  2  0  0  0  0  0  0
  -19.1790  -28.8420   23.3560 C   0  0  0  0  0  0  0  0  0  0  0  0
  -18.9810  -30.1010   23.9630 C   0  0  0  0  0  3  0  0  0  0  0  0
  -17.6840  -30.6150   24.1470 C   0  0  0  0  0  3  0  0  0  0  0  0
  -16.5670  -29.8670   23.7370 C   0  0  0  0  0  3  0  0  0  0  0  0
  -16.7490  -28.6100   23.1330 C   0  0  0  0  0  3  0  0  0  0  0  0
  -25.8760  -32.5100   23.8440 C   0  0  0  0  0  3  0  0  0  0  0  0
  -25.5650  -33.9070   24.1700 N   0  0  0  0  0  0  0  0  0  0  0  0
  -25.9020  -34.9570   23.4110 C   0  0  0  0  0  0  0  0  0  0  0  0
  -26.5810  -34.8540   22.3860 O   0  0  0  0  0  0  0  0  0  0  0  0
  -24.9660  -34.0630   24.9670 H   0  0  0  0  0  0  0  0  0  0  0  0
  -24.1860  -36.7520   23.0220 C   0  0  0  0  0  1  0  0  0  0  0  0
  -25.4070  -36.3450   23.8610 C   0  0  0  0  0  3  0  0  0  0  0  0
  -27.5210  -37.2250   24.7460 C   0  0  0  0  0  1  0  0  0  0  0  0
  -26.4440  -37.3960   23.7740 N   0  0  0  0  0  0  0  0  0  0  0  0
  -26.0360  -38.3170   23.9120 H   0  0  0  0  0  0  0  0  0  0  0  0
  -26.3960  -31.7400   25.1190 C   0  0  1  0  0  0  0  0  0  0  0  0
  -25.3020  -31.4980   26.1860 C   0  0  0  0  0  1  0  0  0  0  0  0
  -26.9830  -30.3640   24.7240 C   0  0  0  0  0  1  0  0  0  0  0  0
  -27.5430  -32.5370   25.7830 C   0  0  0  0  0  1  0  0  0  0  0  0
  1  6  1  0
  1  3  1  0
  2  5  1  0
  2 53  1  0
  3  4  1  0
  3  5  1  0
  5 21  1  0
  6  2  1  0
  7  6  1  0
  8  6  1  0
 10 15  1  0
 11 12  1  0
 11 10  1  0
 13 12  1  0
 13 26  1  0
 13 14  1  0
 15  9  1  0
 15 14  1  0
 16  9  2  0
 17 19  1  0
 18 20  1  0
 19 22  1  0
 21 17  1  0
 21 18  1  0
 22  9  1  0
 22 20  1  0
 23 24  2  0
 24 43  1  0
 25 24  1  0
 25 28  1  0
 26 23  1  0
 26 27  1  0
 27 25  2  0
 28 29  1  0
 29 30  2  0
 31 34  1  0
 31 30  1  0
 32 31  2  0
 33 32  1  0
 33 28  2  0
 34 35  1  0
 35 36  1  0
 36 37  2  0
 38 37  1  0
 38 42  1  0
 39 38  2  0
 40 35  2  0
 40 39  1  0
 41 40  1  0
 43 44  1  0
 44 47  1  0
 44 46  1  0
 45 43  2  0
 48 49  1  0
 48 23  1  0
 50 48  1  0
 51 54  2  0
 51 53  1  0
 52 57  1  0
 53 52  2  0
 54 55  1  0
 55 57  2  0
 55 56  1  0
 58 54  1  0
 58 59  1  0
 60 71  2  0
 61 59  1  0
 61 66  1  0
 62 70  1  0
 62 72  1  0
 63 69  1  0
 63 65  1  0
 64 70  1  0
 65 64  1  0
 66 65  2  0
 67 68  1  0
 67 61  2  0
 68 63  2  0
 69 62  1  0
 70 60  1  0
 72 74  2  0
 73 72  1  0
 75 73  1  0
 76 85  2  0
 76 81  1  0
 77 73  1  0
 77 81  1  0
 78 77  1  0
 79 80  1  0
 79 78  1  0
 80 76  1  0
 81 82  2  0
 82 83  1  0
 84 83  2  0
 85 84  1  0
 86 60  1  0
 86 87  1  0
 86 96  1  0
 87 90  1  0
 88 92  1  0
 88 87  1  0
 89 88  2  0
 92 91  1  0
 94 92  1  0
 94 95  1  0
 94 93  1  0
 96 99  1  1
 96 97  1  0
 98 96  1  0
M  ISO  4   9 100  22 100  58 101  59 101
M  END
>  <TORSDO>  (38) 
F 18

>  <SCORE>  (38) 
-14.931

>  <name>  (38) 
37

>  <ligand_id>  (38) 
37

>  <original_smiles>  (38) 
[H]c1nc(C([H])([H])[H])c(C([H])([H])Oc2c([H])c([H])c3c(c2[H])C([H])([H])N(C(=O)C([H])(N([H])C(=O)C([H])(N([H])C([H])([H])[H])C([H])([H])[H])C(C([H])([H])[H])(C([H])([H])[H])C([H])([H])[H])C([H])(C(=O)N([H])C2([H])c4c([H])c([H])c([H])c([H])c4C([H])([H])C([H])([H])C2([H])[H])C3([H])[H])c([H])c1C1([H])N(C2([H])C([H])([H])C([H])([H])N(C(=O)N3C([H])([H])C([H])([H])C([H])([H])C([H])(n4nc(-c5c([H])c([H])c(Oc6c([H])c([H])c(F)c([H])c6F)c([H])c5[H])c(C(=O)N([H])[H])c4N([H])[H])C3([H])[H])C([H])([H])C2([H])[H])C([H])(C([H])([H])[H])C([H])([H])[N+]1([H])[H]

>  <smiles>  (38) 
[H]c1nc(C([H])([H])[H])c(C([H])([H])Oc2c([H])c([H])c3c(c2[H])C([H])([H])N(C(=O)C([H])(N([H])C(=O)C([H])(N([H])C([H])([H])[H])C([H])([H])[H])C(C([H])([H])[H])(C([H])([H])[H])C([H])([H])[H])C([H])(C(=O)N([H])C2([H])c4c([H])c([H])c([H])c([H])c4C([H])([H])C([H])([H])C2([H])[H])C3([H])[H])c([H])c1C1([H])N(C2([H])C([H])([H])C([H])([H])N(C(=O)N3C([H])([H])C([H])([H])C([H])([H])C([H])(n4nc(-c5c([H])c([H])c(Oc6c([H])c([H])c(F)c([H])c6F)c([H])c5[H])c(C(=O)N([H])[H])c4N([H])[H])C3([H])[H])C([H])([H])C2([H])[H])C([H])(C([H])([H])[H])C([H])([H])[N+]1([H])[H]

$$$$
38:0:0
     RDKit          3D

 95104  0  0  1  0  0  0  0  0999 V2000
  -30.4120  -17.2660   21.7680 C   0  0  0  0  0  0  0  0  0  0  0  0
  -31.3120  -16.6840   22.5830 C   0  0  0  0  0  2  0  0  0  0  0  0
  -29.7920  -18.6330   22.1530 C   0  0  0  0  0  2  0  0  0  0  0  0
  -29.1900  -20.8400   19.4610 C   0  0  0  0  0  2  0  0  0  0  0  0
  -29.4890  -22.1350   20.3990 C   0  0  0  0  0  3  0  0  0  0  0  0
  -29.5680  -21.2190   21.6830 C   0  0  0  0  0  3  0  0  0  0  0  0
  -29.9500  -17.9700   19.3960 C   0  0  0  0  0  3  0  0  0  0  0  0
  -29.9340  -16.6570   20.4310 C   0  0  1  0  0  0  0  0  0  0  0  0
  -30.3620  -19.8560   21.3650 C   0  0  2  0  0  0  0  0  0  0  0  0
  -30.1940  -19.5910   19.8240 C   0  0  2  0  0  0  0  0  0  0  0  0
  -30.0290  -21.9400   22.9660 C   0  0  0  0  0  1  0  0  0  0  0  0
  -28.8490  -17.8970   18.3200 C   0  0  0  0  0  1  0  0  0  0  0  0
  -31.8500  -20.0080   21.7940 C   0  0  0  0  0  1  0  0  0  0  0  0
  -31.4700  -19.9770   19.0120 C   0  0  0  0  0  1  0  0  0  0  0  0
  -30.6450  -15.1820   19.9810 C   0  0  0  0  0  0  0  0  0  0  0  0
  -30.4990  -12.8320   19.0170 C   0  0  0  0  0  2  0  0  0  0  0  0
  -29.5050  -12.8150   17.8300 C   0  0  0  0  0  2  0  0  0  0  0  0
  -28.0590  -12.6050   18.3240 C   0  0  0  0  0  2  0  0  0  0  0  0
  -27.7210  -13.5040   19.5400 C   0  0  0  0  0  3  0  0  0  0  0  0
  -28.8300  -13.4530   20.6130 C   0  0  0  0  0  2  0  0  0  0  0  0
  -30.0710  -13.9030   19.9680 N   0  0  0  0  0  0  0  0  0  0  0  0
  -31.8080  -15.2270   19.5550 O   0  0  0  0  0  0  0  0  0  0  0  0
  -25.3840  -14.0960   20.3970 C   0  0  0  0  0  0  0  0  0  0  0  0
  -24.3260  -13.3250   20.7970 C   0  0  0  0  0  0  0  0  0  0  0  0
  -24.7760  -11.9700   20.7240 C   0  0  0  0  0  0  0  0  0  0  0  0
  -26.4040  -13.2120   20.0950 N   0  0  0  0  0  0  0  0  0  0  0  0
  -26.0500  -11.9260   20.3540 N   0  0  0  0  0  0  0  0  0  0  0  0
  -24.0480  -10.7110   20.9300 C   0  0  0  0  0  0  0  0  0  0  0  0
  -24.4940   -9.7410   21.8530 C   0  0  0  0  0  3  0  0  0  0  0  0
  -23.7660   -8.5470   22.0450 C   0  0  0  0  0  3  0  0  0  0  0  0
  -22.5760   -8.3160   21.3150 C   0  0  0  0  0  0  0  0  0  0  0  0
  -22.1490   -9.2750   20.3790 C   0  0  0  0  0  3  0  0  0  0  0  0
  -22.8770  -10.4610   20.1860 C   0  0  0  0  0  3  0  0  0  0  0  0
  -21.8170   -7.1750   21.4160 O   0  0  0  0  0  0  0  0  0  0  0  0
  -21.7740   -6.4410   22.5750 C   0  0  0  0  0  0  0  0  0  0  0  0
  -21.3290   -6.9980   23.7930 C   0  0  0  0  0  3  0  0  0  0  0  0
  -21.2350   -6.1890   24.9430 C   0  0  0  0  0  3  0  0  0  0  0  0
  -21.5760   -4.8240   24.8760 C   0  0  0  0  0  0  0  0  0  0  0  0
  -22.0130   -4.2670   23.6620 C   0  0  0  0  0  3  0  0  0  0  0  0
  -22.1090   -5.0740   22.5130 C   0  0  0  0  0  0  0  0  0  0  0  0
  -22.5120   -4.5270   21.3410 F   0  0  0  0  0  0  0  0  0  0  0  0
  -21.4780   -4.0440   25.9780 F   0  0  0  0  0  0  0  0  0  0  0  0
  -22.9490  -13.8090   21.1440 C   0  0  0  0  0  0  0  0  0  0  0  0
  -22.2610  -13.1120   22.0410 N   0  0  0  0  0  0  0  0  0  0  0  0
  -22.4920  -14.8420   20.6550 O   0  0  0  0  0  0  0  0  0  0  0  0
  -22.6430  -12.2750   22.4580 H   0  0  0  0  0  0  0  0  0  0  0  0
  -21.3370  -13.4180   22.3140 H   0  0  0  0  0  0  0  0  0  0  0  0
  -25.5660  -15.4660   20.2460 N   0  0  0  0  0  0  0  0  0  0  0  0
  -24.8580  -16.1520   20.4810 H   0  0  0  0  0  0  0  0  0  0  0  0
  -26.4940  -15.8620   20.1180 H   0  0  0  0  0  0  0  0  0  0  0  0
  -28.5470  -16.4440   20.6210 O   0  0  0  0  0  0  0  0  0  0  0  0
  -28.1980  -17.2660   20.9370 H   0  0  0  0  0  0  0  0  0  0  0  0
  -28.5910  -23.5710   20.5400 C   0  0  0  0  0  2  0  0  0  0  0  0
  -28.7590  -25.0390   19.7390 C   0  0  0  0  0  2  0  0  0  0  0  0
  -28.6000  -26.4830   20.2910 O   0  0  0  0  0  0  0  0  0  0  0  0
  -24.6970  -31.9400   23.2410 C   0  0  0  0  0  0  0  0  0  0  0  0
  -27.4830  -27.3800   20.1740 C   0  0  0  0  0  0  0  0  0  0  0  0
  -23.5700  -30.5380   21.5530 C   0  0  0  0  0  3  0  0  0  0  0  0
  -25.0930  -29.0310   20.1260 C   0  0  0  0  0  0  0  0  0  0  0  0
  -26.1130  -30.8900   21.4390 C   0  0  0  0  0  2  0  0  0  0  0  0
  -26.2410  -29.5130   20.7650 C   0  0  0  0  0  0  0  0  0  0  0  0
  -27.4320  -28.7010   20.7740 C   0  0  0  0  0  3  0  0  0  0  0  0
  -26.3070  -26.9880   19.5020 C   0  0  0  0  0  3  0  0  0  0  0  0
  -25.1360  -27.7830   19.4810 C   0  0  0  0  0  3  0  0  0  0  0  0
  -23.8360  -29.8860   20.1670 C   0  0  0  0  0  2  0  0  0  0  0  0
  -24.8110  -31.1450   22.1330 N   0  0  0  0  0  0  0  0  0  0  0  0
  -23.5940  -32.1810   23.7540 O   0  0  0  0  0  0  0  0  0  0  0  0
  -22.9040  -29.4970   22.4850 C   0  0  0  0  0  0  0  0  0  0  0  0
  -21.5780  -29.3160   22.3540 N   0  0  0  0  0  0  0  0  0  0  0  0
  -23.5830  -28.8530   23.2900 O   0  0  0  0  0  0  0  0  0  0  0  0
  -21.0860  -29.8870   21.6810 H   0  0  0  0  0  0  0  0  0  0  0  0
  -18.2050  -28.0940   22.8480 C   0  0  0  0  0  0  0  0  0  0  0  0
  -20.7670  -28.3470   23.0950 C   0  0  0  0  0  3  0  0  0  0  0  0
  -20.8620  -26.9410   22.4620 C   0  0  0  0  0  2  0  0  0  0  0  0
  -19.7500  -26.6570   21.4480 C   0  0  0  0  0  2  0  0  0  0  0  0
  -18.3760  -26.7740   22.1130 C   0  0  0  0  0  2  0  0  0  0  0  0
  -19.3270  -28.8390   23.2960 C   0  0  0  0  0  0  0  0  0  0  0  0
  -19.1140  -30.0740   23.9450 C   0  0  0  0  0  3  0  0  0  0  0  0
  -17.8110  -30.5650   24.1480 C   0  0  0  0  0  3  0  0  0  0  0  0
  -16.7020  -29.8170   23.7170 C   0  0  0  0  0  3  0  0  0  0  0  0
  -16.9000  -28.5820   23.0740 C   0  0  0  0  0  3  0  0  0  0  0  0
  -25.9440  -32.6010   23.9040 C   0  0  0  0  0  3  0  0  0  0  0  0
  -26.4160  -31.8580   25.2150 C   0  0  1  0  0  0  0  0  0  0  0  0
  -25.2820  -31.6230   26.2400 C   0  0  0  0  0  1  0  0  0  0  0  0
  -27.0340  -30.4830   24.8760 C   0  0  0  0  0  1  0  0  0  0  0  0
  -27.5280  -32.6800   25.9100 C   0  0  0  0  0  1  0  0  0  0  0  0
  -25.6020  -34.0000   24.2020 N   0  0  0  0  0  0  0  0  0  0  0  0
  -25.9430  -35.0510   23.4420 C   0  0  0  0  0  0  0  0  0  0  0  0
  -26.6430  -34.9420   22.4320 O   0  0  0  0  0  0  0  0  0  0  0  0
  -24.9770  -34.1540   24.9810 H   0  0  0  0  0  0  0  0  0  0  0  0
  -24.2010  -36.8200   23.0240 C   0  0  0  0  0  1  0  0  0  0  0  0
  -25.4280  -36.4390   23.8690 C   0  0  0  0  0  3  0  0  0  0  0  0
  -27.5280  -37.3700   24.7410 C   0  0  0  0  0  1  0  0  0  0  0  0
  -26.4510  -37.5040   23.7640 N   0  0  0  0  0  0  0  0  0  0  0  0
  -26.0290  -38.4210   23.8820 H   0  0  0  0  0  0  0  0  0  0  0  0
  1  3  1  0
  1  2  2  0
  4 10  1  0
  4  5  1  0
  5 53  1  0
  5  6  1  0
  6 11  1  0
  7 12  1  0
  7 10  1  0
  7  8  1  0
  8 15  1  0
  8 51  1  1
  8  1  1  0
  9  6  1  0
  9 13  1  6
  9  3  1  0
 10 14  1  6
 10  9  1  0
 16 21  1  0
 17 18  1  0
 17 16  1  0
 19 18  1  0
 19 26  1  0
 19 20  1  0
 21 15  1  0
 21 20  1  0
 22 15  2  0
 23 24  2  0
 24 43  1  0
 25 24  1  0
 25 28  1  0
 26 27  1  0
 26 23  1  0
 27 25  2  0
 28 29  1  0
 29 30  2  0
 31 34  1  0
 31 30  1  0
 32 31  2  0
 33 32  1  0
 33 28  2  0
 34 35  1  0
 35 36  1  0
 36 37  2  0
 38 37  1  0
 38 42  1  0
 39 38  2  0
 40 35  2  0
 40 39  1  0
 41 40  1  0
 43 44  1  0
 44 47  1  0
 44 46  1  0
 45 43  2  0
 48 23  1  0
 48 49  1  0
 50 48  1  0
 51 52  1  0
 54 55  1  0
 54 53  1  0
 56 67  2  0
 57 55  1  0
 57 62  1  0
 58 66  1  0
 58 68  1  0
 59 65  1  0
 59 61  1  0
 60 66  1  0
 61 62  2  0
 61 60  1  0
 63 57  2  0
 64 63  1  0
 64 59  2  0
 65 58  1  0
 66 56  1  0
 68 70  2  0
 69 68  1  0
 71 69  1  0
 72 81  2  0
 72 77  1  0
 73 69  1  0
 73 77  1  0
 74 73  1  0
 75 76  1  0
 75 74  1  0
 76 72  1  0
 77 78  2  0
 78 79  1  0
 80 79  2  0
 81 80  1  0
 82 56  1  0
 82 87  1  0
 82 83  1  0
 83 86  1  1
 83 84  1  0
 85 83  1  0
 87 90  1  0
 88 92  1  0
 88 87  1  0
 89 88  2  0
 92 91  1  0
 94 92  1  0
 94 95  1  0
 94 93  1  0
M  ISO  4   8 100  15 100  54 101  55 101
M  END
>  <TORSDO>  (39) 
F 19

>  <SCORE>  (39) 
-14.659

>  <name>  (39) 
38

>  <ligand_id>  (39) 
38

>  <original_smiles>  (39) 
[H]OC1(C(=O)N2C([H])([H])C([H])([H])C([H])([H])C([H])(n3nc(-c4c([H])c([H])c(Oc5c([H])c([H])c(F)c([H])c5F)c([H])c4[H])c(C(=O)N([H])[H])c3N([H])[H])C2([H])[H])C(=C([H])[H])C([H])([H])C2(C([H])([H])[H])C([H])(C([H])([H])[H])C([H])(C([H])([H])C([H])([H])Oc3c([H])c([H])c4c(c3[H])C([H])([H])N(C(=O)C([H])(N([H])C(=O)C([H])(N([H])C([H])([H])[H])C([H])([H])[H])C(C([H])([H])[H])(C([H])([H])[H])C([H])([H])[H])C([H])(C(=O)N([H])C3([H])c5c([H])c([H])c([H])c([H])c5C([H])([H])C([H])([H])C3([H])[H])C4([H])[H])C([H])([H])C2(C([H])([H])[H])C1([H])C([H])([H])[H]

>  <smiles>  (39) 
[H]OC1(C(=O)N2C([H])([H])C([H])([H])C([H])([H])C([H])(n3nc(-c4c([H])c([H])c(Oc5c([H])c([H])c(F)c([H])c5F)c([H])c4[H])c(C(=O)N([H])[H])c3N([H])[H])C2([H])[H])C(=C([H])[H])C([H])([H])C2(C([H])([H])[H])C([H])(C([H])([H])[H])C([H])(C([H])([H])C([H])([H])Oc3c([H])c([H])c4c(c3[H])C([H])([H])N(C(=O)C([H])(N([H])C(=O)C([H])(N([H])C([H])([H])[H])C([H])([H])[H])C(C([H])([H])[H])(C([H])([H])[H])C([H])([H])[H])C([H])(C(=O)N([H])C3([H])c5c([H])c([H])c([H])c([H])c5C([H])([H])C([H])([H])C3([H])[H])C4([H])[H])C([H])([H])C2(C([H])([H])[H])C1([H])C([H])([H])[H]

$$$$
39:0:0
     RDKit          3D

 93102  0  0  1  0  0  0  0  0999 V2000
  -29.9710  -22.0780   21.9940 C   0  0  0  0  0  3  0  0  0  0  0  0
  -28.6100  -22.3140   19.6110 C   0  0  0  0  0  3  0  0  0  0  0  0
  -29.9220  -20.9260   21.1600 C   0  0  0  0  0  0  0  0  0  0  0  0
  -29.2020  -21.0280   19.9470 C   0  0  0  0  0  0  0  0  0  0  0  0
  -29.3730  -23.3320   21.6560 C   0  0  0  0  0  0  0  0  0  0  0  0
  -28.6910  -23.5130   20.4230 C   0  0  0  0  0  0  0  0  0  0  0  0
  -30.2050  -18.2360   21.4960 C   0  0  0  0  0  0  0  0  0  0  0  0
  -30.7960  -19.6820   21.5090 C   0  0  0  0  0  2  0  0  0  0  0  0
  -29.1920  -19.8160   18.9520 C   0  0  0  0  0  2  0  0  0  0  0  0
  -28.9660  -18.2930   19.4090 C   0  0  0  0  0  2  0  0  0  0  0  0
  -30.1140  -17.4790   20.1430 C   0  0  0  0  0  3  0  0  0  0  0  0
  -29.4760  -24.4810   22.6420 C   0  0  0  0  0  1  0  0  0  0  0  0
  -29.8170  -17.7270   22.5530 O   0  0  0  0  0  0  0  0  0  0  0  0
  -30.6380  -14.8460   20.0510 C   0  0  0  0  0  0  0  0  0  0  0  0
  -30.4340  -12.5760   19.0120 C   0  0  0  0  0  2  0  0  0  0  0  0
  -29.4270  -12.6460   17.8420 C   0  0  0  0  0  2  0  0  0  0  0  0
  -27.9860  -12.4400   18.3480 C   0  0  0  0  0  2  0  0  0  0  0  0
  -27.6670  -13.2970   19.6010 C   0  0  0  0  0  3  0  0  0  0  0  0
  -28.7860  -13.2080   20.6610 C   0  0  0  0  0  2  0  0  0  0  0  0
  -30.0390  -13.6030   20.0050 N   0  0  0  0  0  0  0  0  0  0  0  0
  -31.8050  -14.9720   19.6720 O   0  0  0  0  0  0  0  0  0  0  0  0
  -29.8380  -15.9610   20.2880 N   0  0  0  0  0  0  0  0  0  0  0  0
  -28.9100  -15.7360   20.6090 H   0  0  0  0  0  0  0  0  0  0  0  0
  -25.3220  -13.8470   20.4810 C   0  0  0  0  0  0  0  0  0  0  0  0
  -24.2820  -13.0540   20.8840 C   0  0  0  0  0  0  0  0  0  0  0  0
  -24.7500  -11.7080   20.7800 C   0  0  0  0  0  0  0  0  0  0  0  0
  -26.3550  -12.9830   20.1560 N   0  0  0  0  0  0  0  0  0  0  0  0
  -26.0210  -11.6890   20.4000 N   0  0  0  0  0  0  0  0  0  0  0  0
  -24.0400  -10.4350   20.9660 C   0  0  0  0  0  0  0  0  0  0  0  0
  -24.4820   -9.4720   21.9000 C   0  0  0  0  0  3  0  0  0  0  0  0
  -23.7700   -8.2650   22.0740 C   0  0  0  0  0  3  0  0  0  0  0  0
  -22.6040   -8.0120   21.3140 C   0  0  0  0  0  0  0  0  0  0  0  0
  -22.1820   -8.9650   20.3700 C   0  0  0  0  0  3  0  0  0  0  0  0
  -22.8930  -10.1630   20.1940 C   0  0  0  0  0  3  0  0  0  0  0  0
  -21.8640   -6.8570   21.3980 O   0  0  0  0  0  0  0  0  0  0  0  0
  -21.7480   -6.1610   22.5740 C   0  0  0  0  0  0  0  0  0  0  0  0
  -21.2090   -6.7510   23.7380 C   0  0  0  0  0  3  0  0  0  0  0  0
  -21.0430   -5.9790   24.9060 C   0  0  0  0  0  3  0  0  0  0  0  0
  -21.4040   -4.6190   24.9090 C   0  0  0  0  0  0  0  0  0  0  0  0
  -21.9340   -4.0280   23.7480 C   0  0  0  0  0  3  0  0  0  0  0  0
  -22.1030   -4.7970   22.5840 C   0  0  0  0  0  0  0  0  0  0  0  0
  -22.5950   -4.2180   21.4620 F   0  0  0  0  0  0  0  0  0  0  0  0
  -21.2380   -3.8750   26.0270 F   0  0  0  0  0  0  0  0  0  0  0  0
  -22.9000  -13.5130   21.2470 C   0  0  0  0  0  0  0  0  0  0  0  0
  -22.2280  -12.7890   22.1350 N   0  0  0  0  0  0  0  0  0  0  0  0
  -22.4270  -14.5490   20.7820 O   0  0  0  0  0  0  0  0  0  0  0  0
  -22.6260  -11.9510   22.5330 H   0  0  0  0  0  0  0  0  0  0  0  0
  -21.3040  -13.0790   22.4240 H   0  0  0  0  0  0  0  0  0  0  0  0
  -25.4660  -15.2230   20.3380 N   0  0  0  0  0  0  0  0  0  0  0  0
  -24.6960  -15.8610   20.5080 H   0  0  0  0  0  0  0  0  0  0  0  0
  -26.2690  -15.6800   19.9260 H   0  0  0  0  0  0  0  0  0  0  0  0
  -27.8810  -24.8510   20.0330 C   0  0  0  0  0  2  0  0  0  0  0  0
  -28.2330  -26.2900   20.3780 O   0  0  0  0  0  0  0  0  0  0  0  0
  -24.6410  -31.9210   23.3100 C   0  0  0  0  0  0  0  0  0  0  0  0
  -27.1940  -27.2620   20.2680 C   0  0  0  0  0  0  0  0  0  0  0  0
  -23.4310  -30.5380   21.6660 C   0  0  0  0  0  3  0  0  0  0  0  0
  -24.8720  -28.9790   20.2350 C   0  0  0  0  0  0  0  0  0  0  0  0
  -25.9830  -30.8040   21.5050 C   0  0  0  0  0  2  0  0  0  0  0  0
  -26.0480  -29.4220   20.8510 C   0  0  0  0  0  0  0  0  0  0  0  0
  -27.2100  -28.5770   20.8630 C   0  0  0  0  0  3  0  0  0  0  0  0
  -26.0000  -26.9210   19.5890 C   0  0  0  0  0  3  0  0  0  0  0  0
  -24.8560  -27.7360   19.5910 C   0  0  0  0  0  3  0  0  0  0  0  0
  -23.6470  -29.8710   20.2840 C   0  0  0  0  0  2  0  0  0  0  0  0
  -24.7040  -31.1060   22.2160 N   0  0  0  0  0  0  0  0  0  0  0  0
  -23.5570  -32.2120   23.8370 O   0  0  0  0  0  0  0  0  0  0  0  0
  -22.7510  -29.5260   22.6210 C   0  0  0  0  0  0  0  0  0  0  0  0
  -21.4250  -29.3560   22.4850 N   0  0  0  0  0  0  0  0  0  0  0  0
  -23.4170  -28.8990   23.4480 O   0  0  0  0  0  0  0  0  0  0  0  0
  -20.9450  -29.9190   21.7960 H   0  0  0  0  0  0  0  0  0  0  0  0
  -18.0350  -28.1750   22.9650 C   0  0  0  0  0  0  0  0  0  0  0  0
  -20.5940  -28.4240   23.2500 C   0  0  0  0  0  3  0  0  0  0  0  0
  -20.6920  -26.9910   22.6800 C   0  0  0  0  0  2  0  0  0  0  0  0
  -19.5950  -26.6690   21.6600 C   0  0  0  0  0  2  0  0  0  0  0  0
  -18.2080  -26.8230   22.2930 C   0  0  0  0  0  2  0  0  0  0  0  0
  -19.1540  -28.9340   23.3990 C   0  0  0  0  0  0  0  0  0  0  0  0
  -18.9370  -30.1980   23.9890 C   0  0  0  0  0  3  0  0  0  0  0  0
  -17.6330  -30.7050   24.1450 C   0  0  0  0  0  3  0  0  0  0  0  0
  -16.5290  -29.9430   23.7260 C   0  0  0  0  0  3  0  0  0  0  0  0
  -16.7310  -28.6820   23.1410 C   0  0  0  0  0  3  0  0  0  0  0  0
  -25.9260  -32.5440   23.9380 C   0  0  0  0  0  3  0  0  0  0  0  0
  -25.6280  -33.9470   24.2640 N   0  0  0  0  0  0  0  0  0  0  0  0
  -25.9380  -34.9930   23.4860 C   0  0  0  0  0  0  0  0  0  0  0  0
  -26.5740  -34.8790   22.4360 O   0  0  0  0  0  0  0  0  0  0  0  0
  -25.0640  -34.1110   25.0860 H   0  0  0  0  0  0  0  0  0  0  0  0
  -24.1860  -36.7740   23.1940 C   0  0  0  0  0  1  0  0  0  0  0  0
  -25.4680  -36.3860   23.9490 C   0  0  0  0  0  3  0  0  0  0  0  0
  -27.6370  -37.2920   24.6590 C   0  0  0  0  0  1  0  0  0  0  0  0
  -26.4880  -37.4410   23.7690 N   0  0  0  0  0  0  0  0  0  0  0  0
  -26.0850  -38.3620   23.9240 H   0  0  0  0  0  0  0  0  0  0  0  0
  -26.4250  -31.7720   25.2220 C   0  0  1  0  0  0  0  0  0  0  0  0
  -25.3190  -31.5470   26.2810 C   0  0  0  0  0  1  0  0  0  0  0  0
  -27.0020  -30.3890   24.8420 C   0  0  0  0  0  1  0  0  0  0  0  0
  -27.5770  -32.5600   25.8900 C   0  0  0  0  0  1  0  0  0  0  0  0
  2  4  2  0
  2  6  1  0
  3  8  1  0
  3  1  2  0
  4  3  1  0
  5  1  1  0
  5 12  1  0
  6  5  2  0
  7  8  1  0
  7 13  2  0
  9 10  1  0
  9  4  1  0
 10 11  1  0
 11 22  1  0
 11  7  1  0
 14 22  1  0
 15 20  1  0
 16 17  1  0
 16 15  1  0
 18 17  1  0
 18 27  1  0
 18 19  1  0
 20 14  1  0
 20 19  1  0
 21 14  2  0
 22 23  1  0
 24 25  2  0
 25 44  1  0
 26 25  1  0
 26 29  1  0
 27 28  1  0
 27 24  1  0
 28 26  2  0
 29 30  1  0
 30 31  2  0
 32 35  1  0
 32 31  1  0
 33 32  2  0
 34 33  1  0
 34 29  2  0
 35 36  1  0
 36 41  2  0
 36 37  1  0
 37 38  2  0
 38 39  1  0
 39 43  1  0
 40 39  2  0
 41 40  1  0
 42 41  1  0
 44 45  1  0
 45 48  1  0
 45 47  1  0
 46 44  2  0
 49 24  1  0
 49 50  1  0
 51 49  1  0
 52 53  1  0
 52  6  1  0
 54 65  2  0
 55 53  1  0
 55 60  1  0
 56 64  1  0
 56 66  1  0
 57 63  1  0
 57 59  1  0
 58 64  1  0
 59 60  2  0
 59 58  1  0
 61 62  1  0
 61 55  2  0
 62 57  2  0
 63 56  1  0
 64 54  1  0
 66 68  2  0
 67 66  1  0
 69 67  1  0
 70 79  2  0
 70 75  1  0
 71 67  1  0
 71 75  1  0
 72 71  1  0
 73 74  1  0
 73 72  1  0
 74 70  1  0
 75 76  2  0
 76 77  1  0
 78 77  2  0
 79 78  1  0
 80 54  1  0
 80 81  1  0
 80 90  1  0
 81 84  1  0
 82 86  1  0
 82 81  1  0
 83 82  2  0
 86 85  1  0
 88 89  1  0
 88 86  1  0
 88 87  1  0
 90 93  1  1
 90 91  1  0
 92 90  1  0
M  ISO  4  14 100  22 100  52 101  53 101
M  END
>  <TORSDO>  (40) 
F 17

>  <SCORE>  (40) 
-14.692

>  <name>  (40) 
39

>  <ligand_id>  (40) 
39

>  <original_smiles>  (40) 
[H]c1c([H])c([H])c2c(c1[H])C([H])([H])C([H])([H])C([H])([H])C2([H])N([H])C(=O)C1([H])N(C(=O)C([H])(N([H])C(=O)C([H])(N([H])C([H])([H])[H])C([H])([H])[H])C(C([H])([H])[H])(C([H])([H])[H])C([H])([H])[H])C([H])([H])c2c([H])c(OC([H])([H])c3c([H])c4c(c([H])c3C([H])([H])[H])C([H])([H])C(=O)C([H])(N([H])C(=O)N3C([H])([H])C([H])([H])C([H])([H])C([H])(n5nc(-c6c([H])c([H])c(Oc7c([H])c([H])c(F)c([H])c7F)c([H])c6[H])c(C(=O)N([H])[H])c5N([H])[H])C3([H])[H])C([H])([H])C4([H])[H])c([H])c([H])c2C1([H])[H]

>  <smiles>  (40) 
[H]c1c([H])c([H])c2c(c1[H])C([H])([H])C([H])([H])C([H])([H])C2([H])N([H])C(=O)C1([H])N(C(=O)C([H])(N([H])C(=O)C([H])(N([H])C([H])([H])[H])C([H])([H])[H])C(C([H])([H])[H])(C([H])([H])[H])C([H])([H])[H])C([H])([H])c2c([H])c(OC([H])([H])c3c([H])c4c(c([H])c3C([H])([H])[H])C([H])([H])C(=O)C([H])(N([H])C(=O)N3C([H])([H])C([H])([H])C([H])([H])C([H])(n5nc(-c6c([H])c([H])c(Oc7c([H])c([H])c(F)c([H])c7F)c([H])c6[H])c(C(=O)N([H])[H])c5N([H])[H])C3([H])[H])C([H])([H])C4([H])[H])c([H])c([H])c2C1([H])[H]

$$$$
40:0:0
     RDKit          3D

 96106  0  0  1  0  0  0  0  0999 V2000
  -30.6530  -14.7210   20.5570 C   0  0  0  0  0  0  0  0  0  0  0  0
  -30.3980  -12.4630   19.4630 C   0  0  0  0  0  2  0  0  0  0  0  0
  -29.4840  -12.5530   18.2200 C   0  0  0  0  0  2  0  0  0  0  0  0
  -28.0120  -12.3790   18.6280 C   0  0  0  0  0  2  0  0  0  0  0  0
  -27.6330  -13.2470   19.8600 C   0  0  0  0  0  3  0  0  0  0  0  0
  -28.6740  -13.1390   20.9890 C   0  0  0  0  0  2  0  0  0  0  0  0
  -29.9750  -13.5200   20.4260 N   0  0  0  0  0  0  0  0  0  0  0  0
  -31.7970  -14.7710   20.1000 O   0  0  0  0  0  0  0  0  0  0  0  0
  -28.6550  -19.4360   23.3050 C   0  0  0  0  0  3  0  0  0  0  0  0
  -28.9780  -18.3250   22.5010 C   0  0  0  0  0  0  0  0  0  0  0  0
  -28.8990  -20.7560   22.8620 C   0  0  0  0  0  0  0  0  0  0  0  0
  -29.5390  -18.5490   21.2370 C   0  0  0  0  0  0  0  0  0  0  0  0
  -29.2220  -20.9700   21.4860 C   0  0  0  0  0  0  0  0  0  0  0  0
  -29.9080  -15.9510   22.5100 C   0  0  0  0  0  2  0  0  0  0  0  0
  -28.8400  -16.9240   23.0680 C   0  0  0  0  0  3  0  0  0  0  0  0
  -30.1630  -17.3140   20.4410 C   0  0  0  0  0  3  0  0  0  0  0  0
  -28.9010  -21.8260   23.9590 C   0  0  0  0  0  1  0  0  0  0  0  0
  -27.3920  -16.4020   22.9480 C   0  0  0  0  0  1  0  0  0  0  0  0
  -31.6450  -17.6950   20.1340 C   0  0  0  0  0  1  0  0  0  0  0  0
  -29.5730  -19.8470   20.7330 N   0  0  0  0  0  0  0  0  0  0  0  0
  -30.0170  -15.8820   21.0340 N   0  0  0  0  0  0  0  0  0  0  0  0
  -27.9770  -22.4510   19.7500 C   0  0  0  0  0  2  0  0  0  0  0  0
  -27.8420  -23.9230   19.2720 C   0  0  0  0  0  2  0  0  0  0  0  0
  -29.1660  -22.3900   20.7110 C   0  0  0  0  0  3  0  0  0  0  0  0
  -29.0670  -23.8800   21.3440 C   0  0  0  0  0  3  0  0  0  0  0  0
  -28.0610  -24.8230   20.5060 C   0  0  0  0  0  3  0  0  0  0  0  0
  -30.4700  -24.4980   21.5480 C   0  0  0  0  0  1  0  0  0  0  0  0
  -28.3040  -26.3120   20.2910 O   0  0  0  0  0  0  0  0  0  0  0  0
  -24.6350  -31.8540   23.1930 C   0  0  0  0  0  0  0  0  0  0  0  0
  -27.2170  -27.2240   20.1890 C   0  0  0  0  0  0  0  0  0  0  0  0
  -23.4330  -30.4710   21.5400 C   0  0  0  0  0  3  0  0  0  0  0  0
  -24.8820  -28.9100   20.1150 C   0  0  0  0  0  0  0  0  0  0  0  0
  -25.9800  -30.7540   21.3840 C   0  0  0  0  0  2  0  0  0  0  0  0
  -26.0520  -29.3740   20.7310 C   0  0  0  0  0  0  0  0  0  0  0  0
  -27.2250  -28.5470   20.7450 C   0  0  0  0  0  3  0  0  0  0  0  0
  -26.0260  -26.8330   19.5390 C   0  0  0  0  0  3  0  0  0  0  0  0
  -24.8800  -27.6540   19.4990 C   0  0  0  0  0  3  0  0  0  0  0  0
  -23.6500  -29.7970   20.1590 C   0  0  0  0  0  2  0  0  0  0  0  0
  -24.7000  -31.0480   22.0940 N   0  0  0  0  0  0  0  0  0  0  0  0
  -23.5480  -32.1360   23.7240 O   0  0  0  0  0  0  0  0  0  0  0  0
  -22.7520  -29.4580   22.4920 C   0  0  0  0  0  0  0  0  0  0  0  0
  -21.4200  -29.3030   22.3640 N   0  0  0  0  0  0  0  0  0  0  0  0
  -23.4210  -28.8150   23.3050 O   0  0  0  0  0  0  0  0  0  0  0  0
  -20.9410  -29.8680   21.6760 H   0  0  0  0  0  0  0  0  0  0  0  0
  -18.0310  -28.1400   22.8500 C   0  0  0  0  0  0  0  0  0  0  0  0
  -20.5880  -28.3720   23.1280 C   0  0  0  0  0  3  0  0  0  0  0  0
  -20.6780  -26.9440   22.5420 C   0  0  0  0  0  2  0  0  0  0  0  0
  -19.5750  -26.6390   21.5240 C   0  0  0  0  0  2  0  0  0  0  0  0
  -18.1930  -26.7960   22.1640 C   0  0  0  0  0  2  0  0  0  0  0  0
  -19.1540  -28.8890   23.2880 C   0  0  0  0  0  0  0  0  0  0  0  0
  -18.9450  -30.1500   23.8900 C   0  0  0  0  0  3  0  0  0  0  0  0
  -17.6440  -30.6600   24.0590 C   0  0  0  0  0  3  0  0  0  0  0  0
  -16.5350  -29.9090   23.6350 C   0  0  0  0  0  3  0  0  0  0  0  0
  -16.7290  -28.6490   23.0390 C   0  0  0  0  0  3  0  0  0  0  0  0
  -25.9170  -32.4730   23.8290 C   0  0  0  0  0  3  0  0  0  0  0  0
  -25.5960  -33.8530   24.2190 N   0  0  0  0  0  0  0  0  0  0  0  0
  -25.9100  -34.9420   23.5040 C   0  0  0  0  0  0  0  0  0  0  0  0
  -26.5650  -34.8920   22.4600 O   0  0  0  0  0  0  0  0  0  0  0  0
  -25.0220  -33.9670   25.0400 H   0  0  0  0  0  0  0  0  0  0  0  0
  -24.1490  -36.7220   23.2620 C   0  0  0  0  0  1  0  0  0  0  0  0
  -25.4140  -36.3040   24.0290 C   0  0  0  0  0  3  0  0  0  0  0  0
  -27.5580  -37.1770   24.8430 C   0  0  0  0  0  1  0  0  0  0  0  0
  -26.4290  -37.3770   23.9410 N   0  0  0  0  0  0  0  0  0  0  0  0
  -26.0140  -38.2800   24.1550 H   0  0  0  0  0  0  0  0  0  0  0  0
  -26.4530  -31.6590   25.0700 C   0  0  1  0  0  0  0  0  0  0  0  0
  -25.3690  -31.3790   26.1360 C   0  0  0  0  0  1  0  0  0  0  0  0
  -27.0410  -30.2990   24.6280 C   0  0  0  0  0  1  0  0  0  0  0  0
  -27.6050  -32.4370   25.7500 C   0  0  0  0  0  1  0  0  0  0  0  0
  -25.2350  -13.8190   20.5580 C   0  0  0  0  0  0  0  0  0  0  0  0
  -24.1770  -13.0460   20.9230 C   0  0  0  0  0  0  0  0  0  0  0  0
  -24.6430  -11.6960   20.8880 C   0  0  0  0  0  0  0  0  0  0  0  0
  -26.2890  -12.9470   20.3370 N   0  0  0  0  0  0  0  0  0  0  0  0
  -25.9360  -11.6610   20.5900 N   0  0  0  0  0  0  0  0  0  0  0  0
  -23.9170  -10.4310   21.0520 C   0  0  0  0  0  0  0  0  0  0  0  0
  -24.3720   -9.4170   21.9240 C   0  0  0  0  0  3  0  0  0  0  0  0
  -23.6360   -8.2210   22.0780 C   0  0  0  0  0  3  0  0  0  0  0  0
  -22.4320   -8.0300   21.3590 C   0  0  0  0  0  0  0  0  0  0  0  0
  -22.0010   -9.0290   20.4680 C   0  0  0  0  0  3  0  0  0  0  0  0
  -22.7390  -10.2140   20.3110 C   0  0  0  0  0  3  0  0  0  0  0  0
  -21.6660   -6.8910   21.4270 O   0  0  0  0  0  0  0  0  0  0  0  0
  -21.6850   -6.0790   22.5320 C   0  0  0  0  0  0  0  0  0  0  0  0
  -21.4040   -6.5710   23.8270 C   0  0  0  0  0  3  0  0  0  0  0  0
  -21.3640   -5.6850   24.9220 C   0  0  0  0  0  3  0  0  0  0  0  0
  -21.6000   -4.3110   24.7270 C   0  0  0  0  0  0  0  0  0  0  0  0
  -21.8820   -3.8210   23.4400 C   0  0  0  0  0  3  0  0  0  0  0  0
  -21.9200   -4.7020   22.3460 C   0  0  0  0  0  0  0  0  0  0  0  0
  -22.1640   -4.2190   21.1030 F   0  0  0  0  0  0  0  0  0  0  0  0
  -21.5590   -3.4610   25.7790 F   0  0  0  0  0  0  0  0  0  0  0  0
  -22.7760  -13.5170   21.1920 C   0  0  0  0  0  0  0  0  0  0  0  0
  -22.0490  -12.8100   22.0470 N   0  0  0  0  0  0  0  0  0  0  0  0
  -22.3420  -14.5490   20.6810 O   0  0  0  0  0  0  0  0  0  0  0  0
  -22.4190  -11.9680   22.4650 H   0  0  0  0  0  0  0  0  0  0  0  0
  -21.1110  -13.1040   22.2810 H   0  0  0  0  0  0  0  0  0  0  0  0
  -25.4010  -15.1890   20.3690 N   0  0  0  0  0  0  0  0  0  0  0  0
  -24.6590  -15.8660   20.5010 H   0  0  0  0  0  0  0  0  0  0  0  0
  -26.2750  -15.6100   20.0920 H   0  0  0  0  0  0  0  0  0  0  0  0
  1 21  1  0
  2  7  1  0
  3  4  1  0
  3  2  1  0
  5  4  1  0
  5 72  1  0
  5  6  1  0
  7  1  1  0
  7  6  1  0
  8  1  2  0
 10 15  1  0
 10  9  2  0
 11  9  1  0
 11 17  1  0
 12 10  1  0
 13 11  2  0
 14 15  1  0
 15 18  1  0
 16 19  1  0
 16 21  1  0
 16 12  1  0
 20 12  2  0
 20 13  1  0
 21 14  1  0
 22 24  1  0
 23 22  1  0
 23 26  1  0
 24 25  1  0
 24 13  1  0
 25 27  1  0
 26 28  1  0
 26 25  1  0
 29 40  2  0
 30 28  1  0
 30 35  1  0
 31 39  1  0
 31 41  1  0
 32 38  1  0
 32 34  1  0
 33 39  1  0
 34 35  2  0
 34 33  1  0
 36 30  2  0
 37 36  1  0
 37 32  2  0
 38 31  1  0
 39 29  1  0
 41 43  2  0
 42 41  1  0
 44 42  1  0
 45 54  2  0
 45 50  1  0
 46 42  1  0
 46 50  1  0
 47 46  1  0
 48 49  1  0
 48 47  1  0
 49 45  1  0
 50 51  2  0
 51 52  1  0
 53 52  2  0
 54 53  1  0
 55 29  1  0
 55 56  1  0
 55 65  1  0
 56 59  1  0
 57 61  1  0
 57 56  1  0
 58 57  2  0
 61 60  1  0
 63 61  1  0
 63 64  1  0
 63 62  1  0
 65 68  1  1
 65 66  1  0
 67 65  1  0
 69 70  2  0
 70 89  1  0
 71 70  1  0
 71 74  1  0
 72 69  1  0
 72 73  1  0
 73 71  2  0
 74 75  1  0
 75 76  2  0
 77 80  1  0
 77 76  1  0
 78 77  2  0
 79 78  1  0
 79 74  2  0
 80 81  1  0
 81 82  1  0
 82 83  2  0
 84 83  1  0
 84 88  1  0
 85 84  2  0
 86 81  2  0
 86 85  1  0
 87 86  1  0
 89 90  1  0
 90 93  1  0
 90 92  1  0
 91 89  2  0
 94 95  1  0
 94 69  1  0
 96 94  1  0
M  ISO  4   1 100  21 100  26 101  28 101
M  END
>  <TORSDO>  (41) 
F 16

>  <SCORE>  (41) 
12.558

>  <name>  (41) 
40

>  <ligand_id>  (41) 
40

>  <original_smiles>  (41) 
[H]c1c([H])c([H])c2c(c1[H])C([H])([H])C([H])([H])C([H])([H])C2([H])N([H])C(=O)C1([H])N(C(=O)C([H])(N([H])C(=O)C([H])(N([H])C([H])([H])[H])C([H])([H])[H])C(C([H])([H])[H])(C([H])([H])[H])C([H])([H])[H])C([H])([H])c2c([H])c(OC3([H])C([H])([H])C([H])([H])C([H])(c4nc5c(c([H])c4C([H])([H])[H])C([H])(C([H])([H])[H])C([H])([H])N(C(=O)N4C([H])([H])C([H])([H])C([H])([H])C([H])(n6nc(-c7c([H])c([H])c(Oc8c([H])c([H])c(F)c([H])c8F)c([H])c7[H])c(C(=O)N([H])[H])c6N([H])[H])C4([H])[H])C5([H])C([H])([H])[H])C3([H])C([H])([H])[H])c([H])c([H])c2C1([H])[H]

>  <smiles>  (41) 
[H]c1c([H])c([H])c2c(c1[H])C([H])([H])C([H])([H])C([H])([H])C2([H])N([H])C(=O)C1([H])N(C(=O)C([H])(N([H])C(=O)C([H])(N([H])C([H])([H])[H])C([H])([H])[H])C(C([H])([H])[H])(C([H])([H])[H])C([H])([H])[H])C([H])([H])c2c([H])c(OC3([H])C([H])([H])C([H])([H])C([H])(c4nc5c(c([H])c4C([H])([H])[H])C([H])(C([H])([H])[H])C([H])([H])N(C(=O)N4C([H])([H])C([H])([H])C([H])([H])C([H])(n6nc(-c7c([H])c([H])c(Oc8c([H])c([H])c(F)c([H])c8F)c([H])c7[H])c(C(=O)N([H])[H])c6N([H])[H])C4([H])[H])C5([H])C([H])([H])[H])C3([H])C([H])([H])[H])c([H])c([H])c2C1([H])[H]

$$$$
41:0:0
     RDKit          3D

105117  0  0  1  0  0  0  0  0999 V2000
  -30.2270  -21.5980   20.5260 C   0  0  0  0  0  0  0  0  0  0  0  0
  -28.5790  -23.2070   19.4310 C   0  0  0  0  0  0  0  0  0  0  0  0
  -29.4260  -22.8190   20.5360 C   0  0  0  0  0  0  0  0  0  0  0  0
  -29.9570  -20.5810   19.5570 C   0  0  0  0  0  3  0  0  0  0  0  0
  -28.3950  -22.1510   18.4880 C   0  0  0  0  0  0  0  0  0  0  0  0
  -27.4070  -22.2850   17.3460 C   0  0  0  0  0  1  0  0  0  0  0  0
  -29.0350  -20.9380   18.6080 N   0  0  0  0  0  0  0  0  0  0  0  0
  -28.8410  -20.2450   17.8830 H   0  0  0  0  0  0  0  0  0  0  0  0
  -30.8960  -14.6170   20.3010 C   0  0  0  0  0  0  0  0  0  0  0  0
  -30.6710  -12.2660   19.4880 C   0  0  0  0  0  2  0  0  0  0  0  0
  -29.7520  -12.2480   18.2490 C   0  0  0  0  0  2  0  0  0  0  0  0
  -28.2810  -12.1090   18.6790 C   0  0  0  0  0  2  0  0  0  0  0  0
  -27.8940  -13.1010   19.8100 C   0  0  0  0  0  3  0  0  0  0  0  0
  -28.9400  -13.1210   20.9440 C   0  0  0  0  0  2  0  0  0  0  0  0
  -30.2400  -13.4050   20.3320 N   0  0  0  0  0  0  0  0  0  0  0  0
  -32.0990  -14.6480   20.0310 O   0  0  0  0  0  0  0  0  0  0  0  0
  -30.7120  -17.0190   21.0780 C   0  0  0  0  0  2  0  0  0  0  0  0
  -29.6160  -16.5450   19.2290 C   0  0  0  0  0  2  0  0  0  0  0  0
  -30.7800  -19.2450   19.2690 C   0  0  0  0  0  3  0  0  0  0  0  0
  -31.2890  -18.0170   20.0530 C   0  0  0  0  0  3  0  0  0  0  0  0
  -30.4660  -17.7800   18.7990 C   0  0  0  0  0  3  0  0  0  0  0  0
  -30.1730  -15.8120   20.4060 N   0  0  0  0  0  0  0  0  0  0  0  0
  -25.5280  -13.7720   20.5290 C   0  0  0  0  0  0  0  0  0  0  0  0
  -24.4350  -13.0400   20.9010 C   0  0  0  0  0  0  0  0  0  0  0  0
  -24.8540  -11.6750   20.8910 C   0  0  0  0  0  0  0  0  0  0  0  0
  -26.5430  -12.8590   20.3100 N   0  0  0  0  0  0  0  0  0  0  0  0
  -26.1440  -11.5900   20.5930 N   0  0  0  0  0  0  0  0  0  0  0  0
  -24.0810  -10.4420   21.1000 C   0  0  0  0  0  0  0  0  0  0  0  0
  -24.4430   -9.5000   22.0870 C   0  0  0  0  0  3  0  0  0  0  0  0
  -23.6710   -8.3340   22.2790 C   0  0  0  0  0  3  0  0  0  0  0  0
  -22.5250   -8.0990   21.4810 C   0  0  0  0  0  0  0  0  0  0  0  0
  -22.1840   -9.0300   20.4840 C   0  0  0  0  0  3  0  0  0  0  0  0
  -22.9560  -10.1890   20.2900 C   0  0  0  0  0  3  0  0  0  0  0  0
  -21.7360   -6.9790   21.5740 O   0  0  0  0  0  0  0  0  0  0  0  0
  -21.6040   -6.2890   22.7540 C   0  0  0  0  0  0  0  0  0  0  0  0
  -21.0820   -6.8960   23.9150 C   0  0  0  0  0  3  0  0  0  0  0  0
  -20.8960   -6.1350   25.0860 C   0  0  0  0  0  3  0  0  0  0  0  0
  -21.2260   -4.7650   25.0960 C   0  0  0  0  0  0  0  0  0  0  0  0
  -21.7390   -4.1560   23.9370 C   0  0  0  0  0  3  0  0  0  0  0  0
  -21.9260   -4.9170   22.7690 C   0  0  0  0  0  0  0  0  0  0  0  0
  -22.4030   -4.3200   21.6500 F   0  0  0  0  0  0  0  0  0  0  0  0
  -21.0380   -4.0320   26.2170 F   0  0  0  0  0  0  0  0  0  0  0  0
  -23.0520  -13.5690   21.1550 C   0  0  0  0  0  0  0  0  0  0  0  0
  -22.3040  -12.9200   22.0410 N   0  0  0  0  0  0  0  0  0  0  0  0
  -22.6490  -14.5960   20.6090 O   0  0  0  0  0  0  0  0  0  0  0  0
  -22.6430  -12.0940   22.5090 H   0  0  0  0  0  0  0  0  0  0  0  0
  -21.3790  -13.2620   22.2580 H   0  0  0  0  0  0  0  0  0  0  0  0
  -25.7370  -15.1340   20.3310 N   0  0  0  0  0  0  0  0  0  0  0  0
  -24.9820  -15.8060   20.4140 H   0  0  0  0  0  0  0  0  0  0  0  0
  -26.6140  -15.5470   20.0370 H   0  0  0  0  0  0  0  0  0  0  0  0
  -29.8860  -24.8170   22.0190 C   0  0  0  0  0  2  0  0  0  0  0  0
  -29.2580  -22.7150   22.9500 C   0  0  0  0  0  2  0  0  0  0  0  0
  -30.6170  -24.6140   23.3630 C   0  0  0  0  0  3  0  0  0  0  0  0
  -29.6500  -23.6670   24.0890 C   0  0  0  0  0  3  0  0  0  0  0  0
  -30.9500  -25.9180   24.0970 C   0  0  0  0  0  1  0  0  0  0  0  0
  -29.2460  -23.5370   21.7390 N   0  0  0  0  0  0  0  0  0  0  0  0
  -30.2320  -22.9720   25.2500 N   0  0  0  0  0  4  0  0  0  0  0  0
  -31.0610  -22.4650   25.0050 H   0  0  0  0  0  0  0  0  0  0  0  0
  -29.5680  -22.3190   25.6290 H   0  0  0  0  0  0  0  0  0  0  0  0
  -30.4680  -23.6290   25.9710 H   0  0  0  0  0  0  0  0  0  0  0  0
  -32.5180  -22.3130   21.7090 C   0  0  0  0  0  2  0  0  0  0  0  0
  -32.7640  -21.0120   21.0300 C   0  0  0  0  0  2  0  0  0  0  0  0
  -31.3560  -21.3460   21.5090 C   0  0  0  0  0  3  0  0  0  0  0  0
  -27.6940  -24.5670   19.4500 C   0  0  0  0  0  2  0  0  0  0  0  0
  -27.8220  -25.7740   18.5310 O   0  0  0  0  0  0  0  0  0  0  0  0
  -24.5840  -31.0470   22.4020 C   0  0  0  0  0  0  0  0  0  0  0  0
  -26.7950  -26.7500   18.6640 C   0  0  0  0  0  0  0  0  0  0  0  0
  -23.2060  -29.8300   20.7570 C   0  0  0  0  0  3  0  0  0  0  0  0
  -24.4910  -28.4320   19.0320 C   0  0  0  0  0  0  0  0  0  0  0  0
  -25.7290  -30.1370   20.3590 C   0  0  0  0  0  2  0  0  0  0  0  0
  -25.7250  -28.8300   19.5660 C   0  0  0  0  0  0  0  0  0  0  0  0
  -26.8850  -28.0040   19.3700 C   0  0  0  0  0  3  0  0  0  0  0  0
  -25.5460  -26.4560   18.0790 C   0  0  0  0  0  3  0  0  0  0  0  0
  -24.4100  -27.2580   18.2730 C   0  0  0  0  0  3  0  0  0  0  0  0
  -23.2760  -29.3020   19.3000 C   0  0  0  0  0  2  0  0  0  0  0  0
  -24.5320  -30.3500   21.2280 N   0  0  0  0  0  0  0  0  0  0  0  0
  -23.5600  -31.2750   23.0640 O   0  0  0  0  0  0  0  0  0  0  0  0
  -22.6270  -28.7210   21.6680 C   0  0  0  0  0  0  0  0  0  0  0  0
  -21.2970  -28.5200   21.6130 N   0  0  0  0  0  0  0  0  0  0  0  0
  -23.3680  -28.0490   22.3910 O   0  0  0  0  0  0  0  0  0  0  0  0
  -20.7540  -29.1180   21.0030 H   0  0  0  0  0  0  0  0  0  0  0  0
  -17.9880  -27.1790   22.2070 C   0  0  0  0  0  0  0  0  0  0  0  0
  -20.5490  -27.5020   22.3530 C   0  0  0  0  0  3  0  0  0  0  0  0
  -20.6590  -26.1200   21.6690 C   0  0  0  0  0  2  0  0  0  0  0  0
  -19.5120  -25.8370   20.6940 C   0  0  0  0  0  2  0  0  0  0  0  0
  -18.1650  -25.8890   21.4220 C   0  0  0  0  0  2  0  0  0  0  0  0
  -19.1070  -27.9440   22.6290 C   0  0  0  0  0  0  0  0  0  0  0  0
  -18.8860  -29.1510   23.3270 C   0  0  0  0  0  3  0  0  0  0  0  0
  -17.5780  -29.5940   23.6020 C   0  0  0  0  0  3  0  0  0  0  0  0
  -16.4740  -28.8250   23.1920 C   0  0  0  0  0  3  0  0  0  0  0  0
  -16.6810  -27.6180   22.5000 C   0  0  0  0  0  3  0  0  0  0  0  0
  -25.9280  -31.6100   22.9540 C   0  0  0  0  0  3  0  0  0  0  0  0
  -26.6000  -30.6690   24.0290 C   0  0  1  0  0  0  0  0  0  0  0  0
  -25.6470  -30.2580   25.1750 C   0  0  0  0  0  1  0  0  0  0  0  0
  -27.1310  -29.3720   23.3740 C   0  0  0  0  0  1  0  0  0  0  0  0
  -27.8230  -31.3810   24.6570 C   0  0  0  0  0  1  0  0  0  0  0  0
  -25.6510  -32.9350   23.5260 N   0  0  0  0  0  0  0  0  0  0  0  0
  -25.9690  -34.1010   22.9450 C   0  0  0  0  0  0  0  0  0  0  0  0
  -26.5970  -34.1700   21.8850 O   0  0  0  0  0  0  0  0  0  0  0  0
  -25.0890  -32.9580   24.3640 H   0  0  0  0  0  0  0  0  0  0  0  0
  -24.2690  -35.9550   22.9610 C   0  0  0  0  0  1  0  0  0  0  0  0
  -25.5230  -35.3940   23.6510 C   0  0  0  0  0  3  0  0  0  0  0  0
  -27.6920  -36.0940   24.5660 C   0  0  0  0  0  1  0  0  0  0  0  0
  -26.5710  -36.4350   23.6920 N   0  0  0  0  0  0  0  0  0  0  0  0
  -26.1860  -37.3230   24.0030 H   0  0  0  0  0  0  0  0  0  0  0  0
  1  3  2  0
  1 63  1  0
  2 64  1  0
  2  3  1  0
  3 56  1  0
  4  1  1  0
  5  7  1  0
  5  2  2  0
  6  5  1  0
  7  4  1  0
  8  7  1  0
  9 15  1  0
  9 22  1  0
 10 15  1  0
 11 12  1  0
 11 10  1  0
 13 12  1  0
 13 26  1  0
 13 14  1  0
 15 14  1  0
 16  9  2  0
 18 22  1  0
 19  4  1  0
 19 20  1  0
 20 17  1  0
 21 18  1  0
 21 19  1  0
 21 20  1  0
 22 17  1  0
 23 24  2  0
 24 43  1  0
 25 24  1  0
 25 28  1  0
 26 23  1  0
 26 27  1  0
 27 25  2  0
 28 29  1  0
 29 30  2  0
 31 34  1  0
 31 30  1  0
 32 31  2  0
 33 32  1  0
 33 28  2  0
 34 35  1  0
 35 40  2  0
 35 36  1  0
 36 37  2  0
 37 38  1  0
 38 42  1  0
 39 38  2  0
 40 39  1  0
 41 40  1  0
 43 44  1  0
 44 47  1  0
 44 46  1  0
 45 43  2  0
 48 49  1  0
 48 23  1  0
 50 48  1  0
 51 53  1  0
 52 54  1  0
 53 54  1  0
 53 55  1  0
 54 57  1  0
 56 51  1  0
 56 52  1  0
 57 59  1  0
 57 60  1  0
 58 57  1  0
 62 63  1  0
 62 61  1  0
 63 61  1  0
 65 67  1  0
 65 64  1  0
 66 77  2  0
 67 72  1  0
 68 76  1  0
 68 78  1  0
 69 75  1  0
 69 71  1  0
 70 76  1  0
 71 70  1  0
 72 71  2  0
 73 74  1  0
 73 67  2  0
 74 69  2  0
 75 68  1  0
 76 66  1  0
 78 80  2  0
 79 78  1  0
 81 79  1  0
 82 91  2  0
 82 87  1  0
 83 79  1  0
 83 87  1  0
 84 83  1  0
 85 86  1  0
 85 84  1  0
 86 82  1  0
 87 88  2  0
 88 89  1  0
 90 89  2  0
 91 90  1  0
 92 66  1  0
 92 97  1  0
 92 93  1  0
 93 96  1  1
 93 94  1  0
 95 93  1  0
 97100  1  0
 98 97  1  0
 98102  1  0
 99 98  2  0
102101  1  0
102104  1  0
104105  1  0
104103  1  0
M  ISO  4   9 100  22 100  64 101  65 101
M  END
>  <TORSDO>  (42) 
F 20

>  <SCORE>  (42) 
-6.668

>  <name>  (42) 
41

>  <ligand_id>  (42) 
41

>  <original_smiles>  (42) 
[H]c1c([H])c([H])c2c(c1[H])C([H])([H])C([H])([H])C([H])([H])C2([H])N([H])C(=O)C1([H])N(C(=O)C([H])(N([H])C(=O)C([H])(N([H])C([H])([H])[H])C([H])([H])[H])C(C([H])([H])[H])(C([H])([H])[H])C([H])([H])[H])C([H])([H])c2c([H])c(OC([H])([H])c3c(N4C([H])([H])C([H])(C([H])([H])[H])C([H])([N+]([H])([H])[H])C4([H])[H])c(C4([H])C([H])([H])C4([H])[H])c(C4([H])C5([H])C([H])([H])N(C(=O)N6C([H])([H])C([H])([H])C([H])([H])C([H])(n7nc(-c8c([H])c([H])c(Oc9c([H])c([H])c(F)c([H])c9F)c([H])c8[H])c(C(=O)N([H])[H])c7N([H])[H])C6([H])[H])C([H])([H])C45[H])[n+]([H])c3C([H])([H])[H])c([H])c([H])c2C1([H])[H]

>  <smiles>  (42) 
[H]c1c([H])c([H])c2c(c1[H])C([H])([H])C([H])([H])C([H])([H])C2([H])N([H])C(=O)C1([H])N(C(=O)C([H])(N([H])C(=O)C([H])(N([H])C([H])([H])[H])C([H])([H])[H])C(C([H])([H])[H])(C([H])([H])[H])C([H])([H])[H])C([H])([H])c2c([H])c(OC([H])([H])c3c(N4C([H])([H])C([H])(C([H])([H])[H])C([H])([N+]([H])([H])[H])C4([H])[H])c(C4([H])C([H])([H])C4([H])[H])c(C4([H])C5([H])C([H])([H])N(C(=O)N6C([H])([H])C([H])([H])C([H])([H])C([H])(n7nc(-c8c([H])c([H])c(Oc9c([H])c([H])c(F)c([H])c9F)c([H])c8[H])c(C(=O)N([H])[H])c7N([H])[H])C6([H])[H])C([H])([H])C45[H])[n+]([H])c3C([H])([H])[H])c([H])c([H])c2C1([H])[H]

$$$$
42:0:0
     RDKit          3D

 91100  0  0  1  0  0  0  0  0999 V2000
  -28.2450  -21.8970   20.3600 C   0  0  0  0  0  0  0  0  0  0  0  0
  -28.5680  -20.4430   20.2820 C   0  0  0  0  0  0  0  0  0  0  0  0
  -28.9990  -22.9940   19.7500 C   0  0  0  0  0  0  0  0  0  0  0  0
  -29.7970  -19.9050   19.7260 C   0  0  0  0  0  0  0  0  0  0  0  0
  -30.1720  -22.3450   19.1710 C   0  0  0  0  0  0  0  0  0  0  0  0
  -27.0320  -22.2930   21.1850 C   0  0  0  0  0  1  0  0  0  0  0  0
  -27.5300  -19.4300   20.7750 C   0  0  0  0  0  1  0  0  0  0  0  0
  -31.1440  -23.2060   18.3850 C   0  0  0  0  0  1  0  0  0  0  0  0
  -30.5390  -20.9690   19.2110 N   0  0  0  0  0  0  0  0  0  0  0  0
  -30.9560  -15.4180   19.7640 C   0  0  0  0  0  0  0  0  0  0  0  0
  -30.8220  -12.9930   18.8990 C   0  0  0  0  0  2  0  0  0  0  0  0
  -29.8180  -12.8210   17.7340 C   0  0  0  0  0  2  0  0  0  0  0  0
  -28.3920  -12.5960   18.2640 C   0  0  0  0  0  2  0  0  0  0  0  0
  -28.0380  -13.5600   19.4250 C   0  0  0  0  0  3  0  0  0  0  0  0
  -29.1610  -13.6680   20.4760 C   0  0  0  0  0  2  0  0  0  0  0  0
  -30.3650  -14.1320   19.7680 N   0  0  0  0  0  0  0  0  0  0  0  0
  -32.1200  -15.4340   19.3370 O   0  0  0  0  0  0  0  0  0  0  0  0
  -30.9900  -18.2130   21.2110 C   0  0  0  0  0  2  0  0  0  0  0  0
  -30.1680  -16.9640   21.4900 C   0  0  0  0  0  2  0  0  0  0  0  0
  -30.4600  -18.2900   19.7650 C   0  0  0  0  0  3  0  0  0  0  0  0
  -30.2490  -16.6680   20.0590 N   0  0  0  0  0  0  0  0  0  0  0  0
  -25.7590  -14.1320   20.4230 C   0  0  0  0  0  0  0  0  0  0  0  0
  -24.7070  -13.3600   20.8280 C   0  0  0  0  0  0  0  0  0  0  0  0
  -25.1230  -12.0030   20.6610 C   0  0  0  0  0  0  0  0  0  0  0  0
  -26.7460  -13.2490   20.0240 N   0  0  0  0  0  0  0  0  0  0  0  0
  -26.3810  -11.9570   20.2350 N   0  0  0  0  0  0  0  0  0  0  0  0
  -24.3730  -10.7510   20.8250 C   0  0  0  0  0  0  0  0  0  0  0  0
  -24.7490   -9.7840   21.7840 C   0  0  0  0  0  3  0  0  0  0  0  0
  -23.9980   -8.5990   21.9360 C   0  0  0  0  0  3  0  0  0  0  0  0
  -22.8590   -8.3700   21.1290 C   0  0  0  0  0  0  0  0  0  0  0  0
  -22.5030   -9.3250   20.1590 C   0  0  0  0  0  3  0  0  0  0  0  0
  -23.2530  -10.5030   20.0060 C   0  0  0  0  0  3  0  0  0  0  0  0
  -22.0840   -7.2370   21.1880 O   0  0  0  0  0  0  0  0  0  0  0  0
  -21.8140   -6.6120   22.3800 C   0  0  0  0  0  0  0  0  0  0  0  0
  -21.1540   -7.2750   23.4370 C   0  0  0  0  0  3  0  0  0  0  0  0
  -20.8360   -6.5730   24.6170 C   0  0  0  0  0  3  0  0  0  0  0  0
  -21.1670   -5.2110   24.7390 C   0  0  0  0  0  0  0  0  0  0  0  0
  -21.8220   -4.5480   23.6850 C   0  0  0  0  0  3  0  0  0  0  0  0
  -22.1410   -5.2470   22.5080 C   0  0  0  0  0  0  0  0  0  0  0  0
  -22.7520   -4.5970   21.4870 F   0  0  0  0  0  0  0  0  0  0  0  0
  -20.8550   -4.5350   25.8690 F   0  0  0  0  0  0  0  0  0  0  0  0
  -23.3540  -13.8530   21.2520 C   0  0  0  0  0  0  0  0  0  0  0  0
  -22.6840  -13.1270   22.1380 N   0  0  0  0  0  0  0  0  0  0  0  0
  -22.9030  -14.9190   20.8300 O   0  0  0  0  0  0  0  0  0  0  0  0
  -23.0630  -12.2630   22.4990 H   0  0  0  0  0  0  0  0  0  0  0  0
  -21.7790  -13.4360   22.4620 H   0  0  0  0  0  0  0  0  0  0  0  0
  -25.9570  -15.5080   20.3310 N   0  0  0  0  0  0  0  0  0  0  0  0
  -25.2370  -16.1820   20.5720 H   0  0  0  0  0  0  0  0  0  0  0  0
  -26.7980  -15.9390   19.9700 H   0  0  0  0  0  0  0  0  0  0  0  0
  -28.3750  -24.5990   19.4450 C   0  0  0  0  0  2  0  0  0  0  0  0
  -28.5600  -26.1070   20.0460 O   0  0  0  0  0  0  0  0  0  0  0  0
  -24.7660  -31.7930   23.2150 C   0  0  0  0  0  0  0  0  0  0  0  0
  -27.5290  -27.1800   19.9910 C   0  0  0  0  0  0  0  0  0  0  0  0
  -23.6400  -30.4310   21.5020 C   0  0  0  0  0  3  0  0  0  0  0  0
  -25.1580  -28.9600   20.0160 C   0  0  0  0  0  0  0  0  0  0  0  0
  -26.1960  -30.7500   21.3880 C   0  0  0  0  0  2  0  0  0  0  0  0
  -26.3230  -29.3780   20.6700 C   0  0  0  0  0  0  0  0  0  0  0  0
  -27.5020  -28.5060   20.6410 C   0  0  0  0  0  3  0  0  0  0  0  0
  -26.3350  -26.9240   19.2760 C   0  0  0  0  0  3  0  0  0  0  0  0
  -25.1870  -27.7550   19.2980 C   0  0  0  0  0  3  0  0  0  0  0  0
  -23.9020  -29.8260   20.0970 C   0  0  0  0  0  2  0  0  0  0  0  0
  -24.8880  -31.0160   22.0900 N   0  0  0  0  0  0  0  0  0  0  0  0
  -23.6600  -32.0150   23.7370 O   0  0  0  0  0  0  0  0  0  0  0  0
  -22.9770  -29.3630   22.4120 C   0  0  0  0  0  0  0  0  0  0  0  0
  -21.6590  -29.1380   22.2520 N   0  0  0  0  0  0  0  0  0  0  0  0
  -23.6570  -28.7400   23.2310 O   0  0  0  0  0  0  0  0  0  0  0  0
  -21.1600  -29.6940   21.5720 H   0  0  0  0  0  0  0  0  0  0  0  0
  -18.3290  -27.7600   22.6550 C   0  0  0  0  0  0  0  0  0  0  0  0
  -20.8690  -28.1320   22.9690 C   0  0  0  0  0  3  0  0  0  0  0  0
  -21.0440  -26.7310   22.3360 C   0  0  0  0  0  2  0  0  0  0  0  0
  -19.9720  -26.4040   21.2920 C   0  0  0  0  0  2  0  0  0  0  0  0
  -18.5760  -26.4540   21.9180 C   0  0  0  0  0  2  0  0  0  0  0  0
  -19.4040  -28.5550   23.1340 C   0  0  0  0  0  0  0  0  0  0  0  0
  -19.1160  -29.7770   23.7820 C   0  0  0  0  0  3  0  0  0  0  0  0
  -17.7860  -30.2050   23.9520 C   0  0  0  0  0  3  0  0  0  0  0  0
  -16.7250  -29.4080   23.4860 C   0  0  0  0  0  3  0  0  0  0  0  0
  -16.9970  -28.1860   22.8450 C   0  0  0  0  0  3  0  0  0  0  0  0
  -26.0050  -32.4540   23.8900 C   0  0  0  0  0  3  0  0  0  0  0  0
  -25.6580  -33.8480   24.2140 N   0  0  0  0  0  0  0  0  0  0  0  0
  -25.9690  -34.9120   23.4620 C   0  0  0  0  0  0  0  0  0  0  0  0
  -26.6430  -34.8250   22.4320 O   0  0  0  0  0  0  0  0  0  0  0  0
  -25.0650  -33.9910   25.0180 H   0  0  0  0  0  0  0  0  0  0  0  0
  -24.2000  -36.6670   23.1150 C   0  0  0  0  0  1  0  0  0  0  0  0
  -25.4540  -36.2920   23.9210 C   0  0  0  0  0  3  0  0  0  0  0  0
  -27.5660  -37.2330   24.7460 C   0  0  0  0  0  1  0  0  0  0  0  0
  -26.4620  -37.3690   23.8000 N   0  0  0  0  0  0  0  0  0  0  0  0
  -26.0330  -38.2810   23.9400 H   0  0  0  0  0  0  0  0  0  0  0  0
  -26.4740  -31.6950   25.1920 C   0  0  1  0  0  0  0  0  0  0  0  0
  -25.3370  -31.4360   26.2090 C   0  0  0  0  0  1  0  0  0  0  0  0
  -27.1040  -30.3290   24.8340 C   0  0  0  0  0  1  0  0  0  0  0  0
  -27.5770  -32.5130   25.9030 C   0  0  0  0  0  1  0  0  0  0  0  0
  1  6  1  0
  2  1  1  0
  2  7  1  0
  3  1  2  0
  4  2  2  0
  5  9  2  0
  5  3  1  0
  8  5  1  0
  9  4  1  0
 10 16  1  0
 10 21  1  0
 11 16  1  0
 12 13  1  0
 12 11  1  0
 14 13  1  0
 14 25  1  0
 14 15  1  0
 16 15  1  0
 17 10  2  0
 18 19  1  0
 20  4  1  0
 20 21  1  0
 20 18  1  0
 21 19  1  0
 22 23  2  0
 23 42  1  0
 24 27  1  0
 24 23  1  0
 25 26  1  0
 25 22  1  0
 26 24  2  0
 27 28  1  0
 28 29  2  0
 30 33  1  0
 30 29  1  0
 31 30  2  0
 32 31  1  0
 32 27  2  0
 33 34  1  0
 34 39  2  0
 34 35  1  0
 35 36  2  0
 36 37  1  0
 37 41  1  0
 38 37  2  0
 39 38  1  0
 40 39  1  0
 42 43  1  0
 43 46  1  0
 43 45  1  0
 44 42  2  0
 47 22  1  0
 47 48  1  0
 49 47  1  0
 50  3  1  0
 50 51  1  0
 52 63  2  0
 53 51  1  0
 53 58  1  0
 54 62  1  0
 54 64  1  0
 55 61  1  0
 55 57  1  0
 56 62  1  0
 57 56  1  0
 58 57  2  0
 59 60  1  0
 59 53  2  0
 60 55  2  0
 61 54  1  0
 62 52  1  0
 64 66  2  0
 65 64  1  0
 67 65  1  0
 68 77  2  0
 68 73  1  0
 69 65  1  0
 69 73  1  0
 70 69  1  0
 71 72  1  0
 71 70  1  0
 72 68  1  0
 73 74  2  0
 74 75  1  0
 76 75  2  0
 77 76  1  0
 78 52  1  0
 78 79  1  0
 78 88  1  0
 79 82  1  0
 80 84  1  0
 80 79  1  0
 81 80  2  0
 84 83  1  0
 86 84  1  0
 86 87  1  0
 86 85  1  0
 88 91  1  1
 88 89  1  0
 90 88  1  0
M  ISO  4  10 100  21 100  50 101  51 101
M  END
>  <TORSDO>  (43) 
F 17

>  <SCORE>  (43) 
-14.438

>  <name>  (43) 
42

>  <ligand_id>  (43) 
42

>  <original_smiles>  (43) 
[H]c1c([H])c([H])c2c(c1[H])C([H])([H])C([H])([H])C([H])([H])C2([H])N([H])C(=O)C1([H])N(C(=O)C([H])(N([H])C(=O)C([H])(N([H])C([H])([H])[H])C([H])([H])[H])C(C([H])([H])[H])(C([H])([H])[H])C([H])([H])[H])C([H])([H])c2c([H])c(OC([H])([H])c3c(C([H])([H])[H])nc(C4([H])N(C(=O)N5C([H])([H])C([H])([H])C([H])([H])C([H])(n6nc(-c7c([H])c([H])c(Oc8c([H])c([H])c(F)c([H])c8F)c([H])c7[H])c(C(=O)N([H])[H])c6N([H])[H])C5([H])[H])C([H])([H])C4([H])[H])c(C([H])([H])[H])c3C([H])([H])[H])c([H])c([H])c2C1([H])[H]

>  <smiles>  (43) 
[H]c1c([H])c([H])c2c(c1[H])C([H])([H])C([H])([H])C([H])([H])C2([H])N([H])C(=O)C1([H])N(C(=O)C([H])(N([H])C(=O)C([H])(N([H])C([H])([H])[H])C([H])([H])[H])C(C([H])([H])[H])(C([H])([H])[H])C([H])([H])[H])C([H])([H])c2c([H])c(OC([H])([H])c3c(C([H])([H])[H])nc(C4([H])N(C(=O)N5C([H])([H])C([H])([H])C([H])([H])C([H])(n6nc(-c7c([H])c([H])c(Oc8c([H])c([H])c(F)c([H])c8F)c([H])c7[H])c(C(=O)N([H])[H])c6N([H])[H])C5([H])[H])C([H])([H])C4([H])[H])c(C([H])([H])[H])c3C([H])([H])[H])c([H])c([H])c2C1([H])[H]

$$$$
43:0:0
     RDKit          3D

107119  0  0  1  0  0  0  0  0999 V2000
  -32.8810  -18.3290   21.0610 C   0  0  0  0  0  3  0  0  0  0  0  0
  -31.6420  -18.9060   20.6800 C   0  0  0  0  0  0  0  0  0  0  0  0
  -31.5430  -20.3550   20.6170 C   0  0  0  0  0  0  0  0  0  0  0  0
  -32.7340  -21.0990   20.8070 C   0  0  0  0  0  0  0  0  0  0  0  0
  -33.9490  -20.4890   21.1020 C   0  0  0  0  0  0  0  0  0  0  0  0
  -34.0430  -19.0990   21.2600 C   0  0  0  0  0  0  0  0  0  0  0  0
  -32.9060  -22.6010   20.7390 C   0  0  0  0  0  2  0  0  0  0  0  0
  -30.2200  -21.1570   20.5100 C   0  0  0  0  0  2  0  0  0  0  0  0
  -35.0650  -21.4920   21.2500 C   0  0  0  0  0  2  0  0  0  0  0  0
  -34.3420  -22.8540   21.2460 C   0  0  0  0  0  2  0  0  0  0  0  0
  -31.6050  -18.4280   16.2440 C   0  0  0  0  0  2  0  0  0  0  0  0
  -31.8540  -18.7890   17.7000 C   0  0  0  0  0  2  0  0  0  0  0  0
  -28.7810  -20.9550   16.8720 C   0  0  0  0  0  2  0  0  0  0  0  0
  -28.8930  -20.2630   15.5020 C   0  0  0  0  0  2  0  0  0  0  0  0
  -29.6170  -18.4940   19.1000 C   0  0  0  0  0  2  0  0  0  0  0  0
  -30.4730  -17.9510   20.3020 C   0  0  0  0  0  3  0  0  0  0  0  0
  -30.1260  -18.3630   16.6050 C   0  0  0  0  0  3  0  0  0  0  0  0
  -29.6590  -21.6850   19.1350 C   0  0  0  0  0  3  0  0  0  0  0  0
  -30.3580  -19.2100   17.9160 C   0  0  2  0  0  0  0  0  0  0  0  0
  -30.0190  -20.8100   17.8100 C   0  0  1  0  0  0  0  0  0  0  0  0
  -29.0340  -18.7320   15.5950 C   0  0  1  0  0  0  0  0  0  0  0  0
  -35.3580  -18.4310   21.6070 C   0  0  0  0  0  1  0  0  0  0  0  0
  -31.1980  -21.5690   17.1280 C   0  0  0  0  0  1  0  0  0  0  0  0
  -27.6910  -18.1070   16.0340 C   0  0  0  0  0  1  0  0  0  0  0  0
  -29.3720  -18.1700   14.2010 C   0  0  0  0  0  1  0  0  0  0  0  0
  -31.3590  -15.4350   19.7210 C   0  0  0  0  0  0  0  0  0  0  0  0
  -31.1370  -13.1960   18.6410 C   0  0  0  0  0  2  0  0  0  0  0  0
  -30.0690  -13.3070   17.5280 C   0  0  0  0  0  2  0  0  0  0  0  0
  -28.6550  -13.0800   18.0990 C   0  0  0  0  0  2  0  0  0  0  0  0
  -28.3960  -13.9060   19.3870 C   0  0  0  0  0  3  0  0  0  0  0  0
  -29.5660  -13.7700   20.3860 C   0  0  0  0  0  2  0  0  0  0  0  0
  -30.7970  -14.1810   19.6910 N   0  0  0  0  0  0  0  0  0  0  0  0
  -32.4220  -15.6460   19.1330 O   0  0  0  0  0  0  0  0  0  0  0  0
  -30.6030  -16.4230   20.3100 N   0  0  0  0  0  0  0  0  0  0  0  0
  -29.8230  -16.0060   20.7930 H   0  0  0  0  0  0  0  0  0  0  0  0
  -26.1090  -14.4100   20.4450 C   0  0  0  0  0  0  0  0  0  0  0  0
  -25.0930  -13.5940   20.8650 C   0  0  0  0  0  0  0  0  0  0  0  0
  -25.5410  -12.2570   20.6400 C   0  0  0  0  0  0  0  0  0  0  0  0
  -27.1130  -13.5650   19.9990 N   0  0  0  0  0  0  0  0  0  0  0  0
  -26.7840  -12.2600   20.1740 N   0  0  0  0  0  0  0  0  0  0  0  0
  -24.8380  -10.9760   20.7890 C   0  0  0  0  0  0  0  0  0  0  0  0
  -25.2180  -10.0320   21.7690 C   0  0  0  0  0  3  0  0  0  0  0  0
  -24.5120   -8.8170   21.9050 C   0  0  0  0  0  3  0  0  0  0  0  0
  -23.4120   -8.5380   21.0590 C   0  0  0  0  0  0  0  0  0  0  0  0
  -23.0520   -9.4700   20.0710 C   0  0  0  0  0  3  0  0  0  0  0  0
  -23.7600  -10.6770   19.9330 C   0  0  0  0  0  3  0  0  0  0  0  0
  -22.6820   -7.3730   21.1020 O   0  0  0  0  0  0  0  0  0  0  0  0
  -22.2950   -6.8100   22.2910 C   0  0  0  0  0  0  0  0  0  0  0  0
  -21.5140   -7.5170   23.2310 C   0  0  0  0  0  3  0  0  0  0  0  0
  -21.0790   -6.8770   24.4090 C   0  0  0  0  0  3  0  0  0  0  0  0
  -21.4150   -5.5310   24.6450 C   0  0  0  0  0  0  0  0  0  0  0  0
  -22.1870   -4.8230   23.7070 C   0  0  0  0  0  3  0  0  0  0  0  0
  -22.6240   -5.4610   22.5330 C   0  0  0  0  0  0  0  0  0  0  0  0
  -23.3510   -4.7670   21.6230 F   0  0  0  0  0  0  0  0  0  0  0  0
  -20.9900   -4.9150   25.7730 F   0  0  0  0  0  0  0  0  0  0  0  0
  -23.7420  -14.0310   21.3560 C   0  0  0  0  0  0  0  0  0  0  0  0
  -23.1530  -13.2780   22.2790 N   0  0  0  0  0  0  0  0  0  0  0  0
  -23.2230  -15.0720   20.9560 O   0  0  0  0  0  0  0  0  0  0  0  0
  -23.5870  -12.4320   22.6190 H   0  0  0  0  0  0  0  0  0  0  0  0
  -22.2540  -13.5510   22.6510 H   0  0  0  0  0  0  0  0  0  0  0  0
  -26.2540  -15.7930   20.3850 N   0  0  0  0  0  0  0  0  0  0  0  0
  -25.4940  -16.4210   20.6250 H   0  0  0  0  0  0  0  0  0  0  0  0
  -27.0360  -16.2670   19.9560 H   0  0  0  0  0  0  0  0  0  0  0  0
  -29.7520  -23.3050   18.9200 C   0  0  0  0  0  2  0  0  0  0  0  0
  -28.9760  -24.4540   19.7280 C   0  0  0  0  0  2  0  0  0  0  0  0
  -28.9180  -25.8810   18.9840 C   0  0  0  0  0  2  0  0  0  0  0  0
  -28.6940  -27.1710   19.6870 O   0  0  0  0  0  0  0  0  0  0  0  0
  -24.4880  -31.8620   23.1920 C   0  0  0  0  0  0  0  0  0  0  0  0
  -27.4750  -27.8720   19.6970 C   0  0  0  0  0  0  0  0  0  0  0  0
  -23.3930  -30.5070   21.4420 C   0  0  0  0  0  3  0  0  0  0  0  0
  -24.9580  -29.2360   19.8630 C   0  0  0  0  0  0  0  0  0  0  0  0
  -25.8850  -31.0850   21.2620 C   0  0  0  0  0  2  0  0  0  0  0  0
  -26.0830  -29.7830   20.4910 C   0  0  0  0  0  0  0  0  0  0  0  0
  -27.3380  -29.1090   20.4040 C   0  0  0  0  0  3  0  0  0  0  0  0
  -26.3170  -27.3690   19.0630 C   0  0  0  0  0  3  0  0  0  0  0  0
  -25.0770  -28.0350   19.1440 C   0  0  0  0  0  3  0  0  0  0  0  0
  -23.6440  -29.9790   20.0040 C   0  0  0  0  0  2  0  0  0  0  0  0
  -24.6080  -31.1650   22.0230 N   0  0  0  0  0  0  0  0  0  0  0  0
  -23.3940  -31.9850   23.7600 O   0  0  0  0  0  0  0  0  0  0  0  0
  -22.8470  -29.3510   22.3140 C   0  0  0  0  0  0  0  0  0  0  0  0
  -21.5540  -29.0260   22.1470 N   0  0  0  0  0  0  0  0  0  0  0  0
  -23.5860  -28.7520   23.1000 O   0  0  0  0  0  0  0  0  0  0  0  0
  -21.0090  -29.5690   21.4910 H   0  0  0  0  0  0  0  0  0  0  0  0
  -18.3360  -27.4120   22.4980 C   0  0  0  0  0  0  0  0  0  0  0  0
  -20.8450  -27.9430   22.8300 C   0  0  0  0  0  3  0  0  0  0  0  0
  -21.1190  -26.5830   22.1470 C   0  0  0  0  0  2  0  0  0  0  0  0
  -20.0690  -26.2160   21.0940 C   0  0  0  0  0  2  0  0  0  0  0  0
  -18.6740  -26.1490   21.7230 C   0  0  0  0  0  2  0  0  0  0  0  0
  -19.3550  -28.2620   23.0050 C   0  0  0  0  0  0  0  0  0  0  0  0
  -18.9870  -29.4410   23.6880 C   0  0  0  0  0  3  0  0  0  0  0  0
  -17.6320  -29.7730   23.8730 C   0  0  0  0  0  3  0  0  0  0  0  0
  -16.6280  -28.9210   23.3820 C   0  0  0  0  0  3  0  0  0  0  0  0
  -16.9800  -27.7420   22.7000 C   0  0  0  0  0  3  0  0  0  0  0  0
  -25.7160  -32.5570   23.8580 C   0  0  0  0  0  3  0  0  0  0  0  0
  -26.1900  -31.8400   25.1830 C   0  0  1  0  0  0  0  0  0  0  0  0
  -25.0300  -31.4460   26.1270 C   0  0  0  0  0  1  0  0  0  0  0  0
  -26.9890  -30.5560   24.8580 C   0  0  0  0  0  1  0  0  0  0  0  0
  -27.1500  -32.7670   25.9650 C   0  0  0  0  0  1  0  0  0  0  0  0
  -25.3440  -33.9530   24.1290 N   0  0  0  0  0  0  0  0  0  0  0  0
  -25.7110  -34.9990   23.3770 C   0  0  0  0  0  0  0  0  0  0  0  0
  -26.4650  -34.8940   22.4050 O   0  0  0  0  0  0  0  0  0  0  0  0
  -24.6780  -34.1070   24.8710 H   0  0  0  0  0  0  0  0  0  0  0  0
  -24.0040  -36.7580   22.8130 C   0  0  0  0  0  1  0  0  0  0  0  0
  -25.1530  -36.3830   23.7620 C   0  0  0  0  0  3  0  0  0  0  0  0
  -27.1930  -37.2860   24.7860 C   0  0  0  0  0  1  0  0  0  0  0  0
  -26.1740  -37.4530   23.7530 N   0  0  0  0  0  0  0  0  0  0  0  0
  -25.7430  -38.3650   23.8770 H   0  0  0  0  0  0  0  0  0  0  0  0
  1  6  1  0
  2  1  2  0
  3  2  1  0
  3  4  2  0
  4  5  1  0
  5  9  1  0
  5  6  2  0
  6 22  1  0
  7  4  1  0
  7 10  1  0
  8  3  1  0
 10  9  1  0
 11 12  1  0
 13 20  1  0
 14 21  1  0
 14 13  1  0
 15 16  1  0
 16 34  1  0
 16  2  1  0
 17 11  1  0
 17 19  1  0
 18 64  1  0
 18  8  1  0
 19 12  1  1
 19 15  1  0
 20 23  1  6
 20 19  1  0
 20 18  1  0
 21 24  1  1
 21 17  1  0
 25 21  1  0
 26 34  1  0
 27 32  1  0
 28 29  1  0
 28 27  1  0
 30 29  1  0
 30 39  1  0
 30 31  1  0
 32 26  1  0
 32 31  1  0
 33 26  2  0
 34 35  1  0
 36 37  2  0
 37 56  1  0
 38 41  1  0
 38 37  1  0
 39 40  1  0
 39 36  1  0
 40 38  2  0
 41 42  1  0
 42 43  2  0
 44 47  1  0
 44 43  1  0
 45 44  2  0
 46 45  1  0
 46 41  2  0
 47 48  1  0
 48 53  2  0
 48 49  1  0
 49 50  2  0
 50 51  1  0
 51 55  1  0
 52 51  2  0
 53 52  1  0
 54 53  1  0
 56 57  1  0
 57 59  1  0
 57 60  1  0
 58 56  2  0
 61 36  1  0
 61 62  1  0
 63 61  1  0
 64 65  1  0
 66 67  1  0
 66 65  1  0
 67 69  1  0
 68 79  2  0
 69 74  1  0
 70 78  1  0
 70 80  1  0
 71 77  1  0
 71 73  1  0
 72 78  1  0
 73 72  1  0
 74 73  2  0
 75 76  1  0
 75 69  2  0
 76 71  2  0
 77 70  1  0
 78 68  1  0
 80 82  2  0
 81 80  1  0
 83 81  1  0
 84 93  2  0
 84 89  1  0
 85 81  1  0
 85 89  1  0
 86 85  1  0
 87 88  1  0
 87 86  1  0
 88 84  1  0
 89 90  2  0
 90 91  1  0
 92 91  2  0
 93 92  1  0
 94 68  1  0
 94 99  1  0
 94 95  1  0
 95 98  1  1
 95 96  1  0
 97 95  1  0
 99102  1  0
100104  1  0
100 99  1  0
101100  2  0
104103  1  0
106104  1  0
106107  1  0
106105  1  0
M  ISO  4  26 100  34 100  66 101  67 101
M  END
>  <TORSDO>  (44) 
F 19

>  <SCORE>  (44) 
-7.684

>  <name>  (44) 
43

>  <ligand_id>  (44) 
43

>  <original_smiles>  (44) 
[H]c1c([H])c([H])c2c(c1[H])C([H])([H])C([H])([H])C([H])([H])C2([H])N([H])C(=O)C1([H])N(C(=O)C([H])(N([H])C(=O)C([H])(N([H])C([H])([H])[H])C([H])([H])[H])C(C([H])([H])[H])(C([H])([H])[H])C([H])([H])[H])C([H])([H])c2c([H])c(OC([H])([H])C([H])([H])C([H])([H])C3([H])C([H])([H])c4c5c(c(C([H])([H])[H])c([H])c4C([H])(N([H])C(=O)N4C([H])([H])C([H])([H])C([H])([H])C([H])(n6nc(-c7c([H])c([H])c(Oc8c([H])c([H])c(F)c([H])c8F)c([H])c7[H])c(C(=O)N([H])[H])c6N([H])[H])C4([H])[H])C([H])([H])C46C([H])([H])C([H])([H])C4([H])C(C([H])([H])[H])(C([H])([H])[H])C([H])([H])C([H])([H])C36C([H])([H])[H])C([H])([H])C([H])([H])C5([H])[H])c([H])c([H])c2C1([H])[H]

>  <smiles>  (44) 
[H]c1c([H])c([H])c2c(c1[H])C([H])([H])C([H])([H])C([H])([H])C2([H])N([H])C(=O)C1([H])N(C(=O)C([H])(N([H])C(=O)C([H])(N([H])C([H])([H])[H])C([H])([H])[H])C(C([H])([H])[H])(C([H])([H])[H])C([H])([H])[H])C([H])([H])c2c([H])c(OC([H])([H])C([H])([H])C([H])([H])C3([H])C([H])([H])c4c5c(c(C([H])([H])[H])c([H])c4C([H])(N([H])C(=O)N4C([H])([H])C([H])([H])C([H])([H])C([H])(n6nc(-c7c([H])c([H])c(Oc8c([H])c([H])c(F)c([H])c8F)c([H])c7[H])c(C(=O)N([H])[H])c6N([H])[H])C4([H])[H])C([H])([H])C46C([H])([H])C([H])([H])C4([H])C(C([H])([H])[H])(C([H])([H])[H])C([H])([H])C([H])([H])C36C([H])([H])[H])C([H])([H])C([H])([H])C5([H])[H])c([H])c([H])c2C1([H])[H]

$$$$
44:0:0
     RDKit          3D

106118  0  0  1  0  0  0  0  0999 V2000
  -27.4520  -21.9160   18.6110 C   0  0  0  0  0  2  0  0  0  0  0  0
  -27.5360  -20.7150   17.6790 C   0  0  0  0  0  2  0  0  0  0  0  0
  -29.2270  -16.8320   18.9020 C   0  0  0  0  0  2  0  0  0  0  0  0
  -30.1040  -20.5740   21.1860 C   0  0  0  0  0  2  0  0  0  0  0  0
  -28.0440  -21.9010   21.6190 C   0  0  0  0  0  2  0  0  0  0  0  0
  -29.0500  -17.8110   17.7380 C   0  0  0  0  0  2  0  0  0  0  0  0
  -31.1310  -19.9120   20.2320 C   0  0  0  0  0  2  0  0  0  0  0  0
  -28.5670  -22.6880   22.8280 C   0  0  0  0  0  2  0  0  0  0  0  0
  -29.2380  -24.3110   20.2410 C   0  0  0  0  0  2  0  0  0  0  0  0
  -28.8410  -21.5150   19.1710 C   0  0  0  0  0  3  0  0  0  0  0  0
  -28.5480  -20.0880   18.6640 C   0  0  0  0  0  3  0  0  0  0  0  0
  -29.9090  -17.6160   20.0410 C   0  0  0  0  0  3  0  0  0  0  0  0
  -29.0310  -24.9490   21.6070 C   0  0  0  0  0  3  0  0  0  0  0  0
  -29.2540  -21.7580   20.6490 C   0  0  2  0  0  0  0  0  0  0  0  0
  -29.6860  -19.1550   18.1600 C   0  0  1  0  0  0  0  0  0  0  0  0
  -30.6880  -18.7450   19.3070 C   0  0  1  0  0  0  0  0  0  0  0  0
  -29.6050  -23.6660   22.2650 C   0  0  2  0  0  0  0  0  0  0  0  0
  -29.9710  -23.1250   20.8530 C   0  0  2  0  0  0  0  0  0  0  0  0
  -30.3920  -19.7770   16.9260 C   0  0  0  0  0  1  0  0  0  0  0  0
  -32.0100  -18.1720   18.7060 C   0  0  0  0  0  1  0  0  0  0  0  0
  -30.7180  -23.8300   23.3070 C   0  0  0  0  0  1  0  0  0  0  0  0
  -31.4560  -23.1180   20.4560 C   0  0  0  0  0  1  0  0  0  0  0  0
  -28.8650  -27.0520   23.0340 C   0  0  0  0  0  1  0  0  0  0  0  0
  -29.5680  -26.3730   21.8440 C   0  0  0  0  0  3  0  0  0  0  0  0
  -29.4620  -27.2310   20.5630 C   0  0  0  0  0  2  0  0  0  0  0  0
  -28.2930  -26.8770   19.8070 O   0  0  0  0  0  0  0  0  0  0  0  0
  -24.5050  -31.8770   23.1580 C   0  0  0  0  0  0  0  0  0  0  0  0
  -27.1180  -27.5660   19.9620 C   0  0  0  0  0  0  0  0  0  0  0  0
  -23.2520  -30.4920   21.5240 C   0  0  0  0  0  3  0  0  0  0  0  0
  -24.6770  -28.9770   20.0510 C   0  0  0  0  0  0  0  0  0  0  0  0
  -25.7550  -30.8860   21.2570 C   0  0  0  0  0  2  0  0  0  0  0  0
  -25.8300  -29.5220   20.6210 C   0  0  0  0  0  0  0  0  0  0  0  0
  -27.0420  -28.8230   20.5920 C   0  0  0  0  0  3  0  0  0  0  0  0
  -25.9500  -27.0110   19.3940 C   0  0  0  0  0  3  0  0  0  0  0  0
  -24.7250  -27.7110   19.4360 C   0  0  0  0  0  3  0  0  0  0  0  0
  -23.4250  -29.8210   20.1320 C   0  0  0  0  0  2  0  0  0  0  0  0
  -24.5230  -31.0980   22.0410 N   0  0  0  0  0  0  0  0  0  0  0  0
  -23.4400  -32.1420   23.7330 O   0  0  0  0  0  0  0  0  0  0  0  0
  -22.6310  -29.4610   22.4900 C   0  0  0  0  0  0  0  0  0  0  0  0
  -21.3060  -29.2760   22.3870 N   0  0  0  0  0  0  0  0  0  0  0  0
  -23.3350  -28.8290   23.2830 O   0  0  0  0  0  0  0  0  0  0  0  0
  -20.8030  -29.8400   21.7160 H   0  0  0  0  0  0  0  0  0  0  0  0
  -17.9440  -28.0870   22.9320 C   0  0  0  0  0  0  0  0  0  0  0  0
  -20.5050  -28.3310   23.1600 C   0  0  0  0  0  3  0  0  0  0  0  0
  -20.5930  -26.9070   22.5640 C   0  0  0  0  0  2  0  0  0  0  0  0
  -19.4720  -26.6020   21.5670 C   0  0  0  0  0  2  0  0  0  0  0  0
  -18.1040  -26.7450   22.2380 C   0  0  0  0  0  2  0  0  0  0  0  0
  -19.0730  -28.8400   23.3500 C   0  0  0  0  0  0  0  0  0  0  0  0
  -18.8710  -30.0980   23.9570 C   0  0  0  0  0  3  0  0  0  0  0  0
  -17.5710  -30.6030   24.1510 C   0  0  0  0  0  3  0  0  0  0  0  0
  -16.4570  -29.8470   23.7520 C   0  0  0  0  0  3  0  0  0  0  0  0
  -16.6440  -28.5900   23.1490 C   0  0  0  0  0  3  0  0  0  0  0  0
  -25.8110  -32.4940   23.7510 C   0  0  0  0  0  3  0  0  0  0  0  0
  -26.3690  -31.6990   24.9940 C   0  0  1  0  0  0  0  0  0  0  0  0
  -25.3100  -31.4290   26.0890 C   0  0  0  0  0  1  0  0  0  0  0  0
  -26.9450  -30.3330   24.5510 C   0  0  0  0  0  1  0  0  0  0  0  0
  -27.5350  -32.4840   25.6400 C   0  0  0  0  0  1  0  0  0  0  0  0
  -25.5190  -33.8870   24.1100 N   0  0  0  0  0  0  0  0  0  0  0  0
  -25.8580  -34.9480   23.3680 C   0  0  0  0  0  0  0  0  0  0  0  0
  -26.5240  -34.8580   22.3320 O   0  0  0  0  0  0  0  0  0  0  0  0
  -24.9270  -34.0310   24.9160 H   0  0  0  0  0  0  0  0  0  0  0  0
  -24.1660  -36.7720   23.0210 C   0  0  0  0  0  1  0  0  0  0  0  0
  -25.3830  -36.3320   23.8500 C   0  0  0  0  0  3  0  0  0  0  0  0
  -27.5130  -37.1580   24.7500 C   0  0  0  0  0  1  0  0  0  0  0  0
  -26.4350  -37.3710   23.7870 N   0  0  0  0  0  0  0  0  0  0  0  0
  -26.0420  -38.2940   23.9490 H   0  0  0  0  0  0  0  0  0  0  0  0
  -30.3700  -17.3380   22.5670 C   0  0  0  0  0  1  0  0  0  0  0  0
  -30.6670  -16.8080   21.1520 C   0  0  0  0  0  3  0  0  0  0  0  0
  -31.0090  -14.4340   20.4690 C   0  0  0  0  0  0  0  0  0  0  0  0
  -30.7010  -12.2800   19.3210 C   0  0  0  0  0  2  0  0  0  0  0  0
  -29.7650  -12.4610   18.1100 C   0  0  0  0  0  2  0  0  0  0  0  0
  -28.2870  -12.3490   18.5310 C   0  0  0  0  0  2  0  0  0  0  0  0
  -27.9490  -13.2300   19.7620 C   0  0  0  0  0  3  0  0  0  0  0  0
  -28.9840  -13.0020   20.8870 C   0  0  0  0  0  2  0  0  0  0  0  0
  -30.3250  -13.2700   20.3360 N   0  0  0  0  0  0  0  0  0  0  0  0
  -32.1000  -14.6510   19.9350 O   0  0  0  0  0  0  0  0  0  0  0  0
  -30.3340  -15.3890   21.1240 N   0  0  0  0  0  0  0  0  0  0  0  0
  -29.4460  -15.1170   21.5150 H   0  0  0  0  0  0  0  0  0  0  0  0
  -25.5640  -13.9130   20.4620 C   0  0  0  0  0  0  0  0  0  0  0  0
  -24.4710  -13.1660   20.8210 C   0  0  0  0  0  0  0  0  0  0  0  0
  -24.8940  -11.8040   20.7790 C   0  0  0  0  0  0  0  0  0  0  0  0
  -26.5840  -13.0010   20.2300 N   0  0  0  0  0  0  0  0  0  0  0  0
  -26.1820  -11.7280   20.4730 N   0  0  0  0  0  0  0  0  0  0  0  0
  -24.1340  -10.5600   20.9560 C   0  0  0  0  0  0  0  0  0  0  0  0
  -24.5170   -9.5920   21.9100 C   0  0  0  0  0  3  0  0  0  0  0  0
  -23.7620   -8.4110   22.0740 C   0  0  0  0  0  3  0  0  0  0  0  0
  -22.6090   -8.1920   21.2850 C   0  0  0  0  0  0  0  0  0  0  0  0
  -22.2440   -9.1480   20.3220 C   0  0  0  0  0  3  0  0  0  0  0  0
  -22.9990  -10.3210   20.1560 C   0  0  0  0  0  3  0  0  0  0  0  0
  -21.8290   -7.0630   21.3570 O   0  0  0  0  0  0  0  0  0  0  0  0
  -21.6920   -6.3560   22.5250 C   0  0  0  0  0  0  0  0  0  0  0  0
  -21.1740   -6.9470   23.6980 C   0  0  0  0  0  3  0  0  0  0  0  0
  -20.9860   -6.1670   24.8560 C   0  0  0  0  0  3  0  0  0  0  0  0
  -21.3040   -4.7960   24.8410 C   0  0  0  0  0  0  0  0  0  0  0  0
  -21.8150   -4.2040   23.6720 C   0  0  0  0  0  3  0  0  0  0  0  0
  -22.0060   -4.9830   22.5170 C   0  0  0  0  0  0  0  0  0  0  0  0
  -22.4780   -4.4020   21.3870 F   0  0  0  0  0  0  0  0  0  0  0  0
  -21.1160   -4.0440   25.9500 F   0  0  0  0  0  0  0  0  0  0  0  0
  -23.0860  -13.6800   21.0960 C   0  0  0  0  0  0  0  0  0  0  0  0
  -22.3440  -13.0020   21.9640 N   0  0  0  0  0  0  0  0  0  0  0  0
  -22.6730  -14.7180   20.5790 O   0  0  0  0  0  0  0  0  0  0  0  0
  -22.6890  -12.1620   22.4030 H   0  0  0  0  0  0  0  0  0  0  0  0
  -21.4140  -13.3280   22.1890 H   0  0  0  0  0  0  0  0  0  0  0  0
  -25.7670  -15.2780   20.2970 N   0  0  0  0  0  0  0  0  0  0  0  0
  -25.0190  -15.9540   20.4110 H   0  0  0  0  0  0  0  0  0  0  0  0
  -26.6320  -15.6970   19.9780 H   0  0  0  0  0  0  0  0  0  0  0  0
  2  1  1  0
  3 12  1  0
  5  8  1  0
  6 15  1  0
  6  3  1  0
  7  4  1  0
  9 18  1  0
  9 13  1  0
 10  1  1  0
 10 14  1  0
 11  2  1  0
 11 10  1  0
 12 68  1  0
 13 24  1  0
 13 17  1  0
 14 18  1  0
 14  4  1  1
 14  5  1  0
 15 19  1  6
 15 11  1  0
 15 16  1  0
 16 20  1  6
 16 12  1  0
 16  7  1  0
 17  8  1  0
 17 21  1  1
 18 22  1  1
 18 17  1  0
 24 23  1  0
 25 24  1  0
 26 28  1  0
 26 25  1  0
 27 38  2  0
 28 33  1  0
 29 37  1  0
 29 39  1  0
 30 36  1  0
 30 32  1  0
 31 37  1  0
 32 31  1  0
 33 32  2  0
 34 35  1  0
 34 28  2  0
 35 30  2  0
 36 29  1  0
 37 27  1  0
 39 41  2  0
 40 39  1  0
 42 40  1  0
 43 52  2  0
 43 48  1  0
 44 40  1  0
 44 48  1  0
 45 44  1  0
 46 47  1  0
 46 45  1  0
 47 43  1  0
 48 49  2  0
 49 50  1  0
 51 50  2  0
 52 51  1  0
 53 27  1  0
 53 58  1  0
 53 54  1  0
 54 57  1  1
 54 55  1  0
 56 54  1  0
 58 61  1  0
 59 63  1  0
 59 58  1  0
 60 59  2  0
 63 62  1  0
 65 63  1  0
 65 66  1  0
 65 64  1  0
 68 67  1  0
 69 77  1  0
 70 75  1  0
 71 72  1  0
 71 70  1  0
 73 72  1  0
 73 82  1  0
 73 74  1  0
 75 69  1  0
 75 74  1  0
 76 69  2  0
 77 68  1  0
 77 78  1  0
 79 80  2  0
 80 99  1  0
 81 80  1  0
 81 84  1  0
 82 79  1  0
 82 83  1  0
 83 81  2  0
 84 85  1  0
 85 86  2  0
 87 90  1  0
 87 86  1  0
 88 87  2  0
 89 88  1  0
 89 84  2  0
 90 91  1  0
 91 92  1  0
 92 93  2  0
 94 93  1  0
 94 98  1  0
 95 94  2  0
 96 91  2  0
 96 95  1  0
 97 96  1  0
 99100  1  0
100103  1  0
100102  1  0
101 99  2  0
104105  1  0
104 79  1  0
106104  1  0
M  ISO  4  25 101  26 101  69 100  77 100
M  END
>  <TORSDO>  (45) 
F 19

>  <SCORE>  (45) 
-13.268

>  <name>  (45) 
44

>  <ligand_id>  (45) 
44

>  <original_smiles>  (45) 
[H]c1c([H])c([H])c2c(c1[H])C([H])([H])C([H])([H])C([H])([H])C2([H])N([H])C(=O)C1([H])N(C(=O)C([H])(N([H])C(=O)C([H])(N([H])C([H])([H])[H])C([H])([H])[H])C(C([H])([H])[H])(C([H])([H])[H])C([H])([H])[H])C([H])([H])c2c([H])c(OC([H])([H])C([H])(C([H])([H])[H])C3([H])C([H])([H])C4(C([H])([H])[H])C3(C([H])([H])[H])C([H])([H])C([H])([H])C43C([H])([H])C([H])([H])C4(C([H])([H])[H])C([H])(C([H])(N([H])C(=O)N5C([H])([H])C([H])([H])C([H])([H])C([H])(n6nc(-c7c([H])c([H])c(Oc8c([H])c([H])c(F)c([H])c8F)c([H])c7[H])c(C(=O)N([H])[H])c6N([H])[H])C5([H])[H])C([H])([H])[H])C([H])([H])C([H])([H])C4(C([H])([H])[H])C4([H])C([H])([H])C([H])([H])C43[H])c([H])c([H])c2C1([H])[H]

>  <smiles>  (45) 
[H]c1c([H])c([H])c2c(c1[H])C([H])([H])C([H])([H])C([H])([H])C2([H])N([H])C(=O)C1([H])N(C(=O)C([H])(N([H])C(=O)C([H])(N([H])C([H])([H])[H])C([H])([H])[H])C(C([H])([H])[H])(C([H])([H])[H])C([H])([H])[H])C([H])([H])c2c([H])c(OC([H])([H])C([H])(C([H])([H])[H])C3([H])C([H])([H])C4(C([H])([H])[H])C3(C([H])([H])[H])C([H])([H])C([H])([H])C43C([H])([H])C([H])([H])C4(C([H])([H])[H])C([H])(C([H])(N([H])C(=O)N5C([H])([H])C([H])([H])C([H])([H])C([H])(n6nc(-c7c([H])c([H])c(Oc8c([H])c([H])c(F)c([H])c8F)c([H])c7[H])c(C(=O)N([H])[H])c6N([H])[H])C5([H])[H])C([H])([H])[H])C([H])([H])C([H])([H])C4(C([H])([H])[H])C4([H])C([H])([H])C([H])([H])C43[H])c([H])c([H])c2C1([H])[H]

$$$$
45:0:0
     RDKit          3D

 91100  0  0  1  0  0  0  0  0999 V2000
  -30.6570  -14.7500   20.3920 C   0  0  0  0  0  0  0  0  0  0  0  0
  -30.3590  -12.4940   19.3970 C   0  0  0  0  0  2  0  0  0  0  0  0
  -29.4410  -12.6000   18.1600 C   0  0  0  0  0  2  0  0  0  0  0  0
  -27.9660  -12.4610   18.5900 C   0  0  0  0  0  2  0  0  0  0  0  0
  -27.5970  -13.3540   19.8090 C   0  0  0  0  0  3  0  0  0  0  0  0
  -28.6560  -13.2820   20.9310 C   0  0  0  0  0  2  0  0  0  0  0  0
  -29.9510  -13.5770   20.3130 N   0  0  0  0  0  0  0  0  0  0  0  0
  -31.8870  -14.7020   20.3130 O   0  0  0  0  0  0  0  0  0  0  0  0
  -31.6400  -19.9500   19.3380 C   0  0  0  0  0  3  0  0  0  0  0  0
  -29.2500  -19.7480   20.7270 C   0  0  0  0  0  3  0  0  0  0  0  0
  -31.0550  -18.6800   19.5170 C   0  0  0  0  0  0  0  0  0  0  0  0
  -29.8990  -18.5280   20.3050 C   0  0  0  0  0  0  0  0  0  0  0  0
  -31.0480  -21.1300   19.8390 C   0  0  0  0  0  0  0  0  0  0  0  0
  -29.7670  -21.0810   20.4710 C   0  0  0  0  0  0  0  0  0  0  0  0
  -31.6390  -17.4770   18.8100 C   0  0  0  0  0  2  0  0  0  0  0  0
  -29.3970  -17.0520   20.6190 C   0  0  0  0  0  2  0  0  0  0  0  0
  -30.5670  -16.3870   18.5950 C   0  0  0  0  0  2  0  0  0  0  0  0
  -31.8510  -22.4100   19.6550 C   0  0  0  0  0  1  0  0  0  0  0  0
  -30.0400  -15.8900   19.8820 N   0  0  0  0  0  0  0  0  0  0  0  0
  -25.2030  -13.9430   20.5140 C   0  0  0  0  0  0  0  0  0  0  0  0
  -24.1340  -13.1680   20.8730 C   0  0  0  0  0  0  0  0  0  0  0  0
  -24.6020  -11.8190   20.8630 C   0  0  0  0  0  0  0  0  0  0  0  0
  -26.2510  -13.0660   20.2960 N   0  0  0  0  0  0  0  0  0  0  0  0
  -25.9000  -11.7840   20.5750 N   0  0  0  0  0  0  0  0  0  0  0  0
  -23.8760  -10.5560   21.0520 C   0  0  0  0  0  0  0  0  0  0  0  0
  -24.2970   -9.5920   21.9920 C   0  0  0  0  0  3  0  0  0  0  0  0
  -23.5680   -8.3960   22.1670 C   0  0  0  0  0  3  0  0  0  0  0  0
  -22.4020   -8.1570   21.4030 C   0  0  0  0  0  0  0  0  0  0  0  0
  -22.0000   -9.1090   20.4490 C   0  0  0  0  0  3  0  0  0  0  0  0
  -22.7320  -10.2970   20.2730 C   0  0  0  0  0  3  0  0  0  0  0  0
  -21.6470   -7.0130   21.4900 O   0  0  0  0  0  0  0  0  0  0  0  0
  -21.5890   -6.2760   22.6440 C   0  0  0  0  0  0  0  0  0  0  0  0
  -21.1530   -6.8370   23.8640 C   0  0  0  0  0  3  0  0  0  0  0  0
  -21.0390   -6.0240   25.0100 C   0  0  0  0  0  3  0  0  0  0  0  0
  -21.3510   -4.6540   24.9370 C   0  0  0  0  0  0  0  0  0  0  0  0
  -21.7780   -4.0920   23.7210 C   0  0  0  0  0  3  0  0  0  0  0  0
  -21.8940   -4.9010   22.5760 C   0  0  0  0  0  0  0  0  0  0  0  0
  -22.2880   -4.3500   21.4030 F   0  0  0  0  0  0  0  0  0  0  0  0
  -21.2340   -3.8730   26.0360 F   0  0  0  0  0  0  0  0  0  0  0  0
  -22.7340  -13.6480   21.1120 C   0  0  0  0  0  0  0  0  0  0  0  0
  -21.9910  -12.9670   21.9760 N   0  0  0  0  0  0  0  0  0  0  0  0
  -22.3060  -14.6660   20.5690 O   0  0  0  0  0  0  0  0  0  0  0  0
  -22.3510  -12.1500   22.4480 H   0  0  0  0  0  0  0  0  0  0  0  0
  -21.0510  -13.2810   22.1780 H   0  0  0  0  0  0  0  0  0  0  0  0
  -25.3610  -15.3120   20.3310 N   0  0  0  0  0  0  0  0  0  0  0  0
  -24.5810  -15.9540   20.4290 H   0  0  0  0  0  0  0  0  0  0  0  0
  -26.1960  -15.7630   19.9890 H   0  0  0  0  0  0  0  0  0  0  0  0
  -28.9130  -22.3620   20.8810 C   0  0  0  0  0  2  0  0  0  0  0  0
  -29.2620  -23.8860   20.4730 C   0  0  0  0  0  3  0  0  0  0  0  0
  -28.1090  -24.9870   20.5790 C   0  0  0  0  0  3  0  0  0  0  0  0
  -28.3900  -26.4490   20.4100 O   0  0  0  0  0  0  0  0  0  0  0  0
  -24.6500  -31.9610   23.2890 C   0  0  0  0  0  0  0  0  0  0  0  0
  -27.2870  -27.3270   20.3370 C   0  0  0  0  0  0  0  0  0  0  0  0
  -23.4690  -30.5380   21.6580 C   0  0  0  0  0  3  0  0  0  0  0  0
  -24.9320  -28.9680   20.2730 C   0  0  0  0  0  0  0  0  0  0  0  0
  -26.0160  -30.8430   21.5070 C   0  0  0  0  0  2  0  0  0  0  0  0
  -26.0990  -29.4550   20.8770 C   0  0  0  0  0  0  0  0  0  0  0  0
  -27.2800  -28.6480   20.8930 C   0  0  0  0  0  3  0  0  0  0  0  0
  -26.0940  -26.9120   19.6940 C   0  0  0  0  0  3  0  0  0  0  0  0
  -24.9340  -27.7060   19.6710 C   0  0  0  0  0  3  0  0  0  0  0  0
  -23.7030  -29.8520   20.2900 C   0  0  0  0  0  2  0  0  0  0  0  0
  -24.7310  -31.1330   22.2080 N   0  0  0  0  0  0  0  0  0  0  0  0
  -23.5600  -32.2440   23.8060 O   0  0  0  0  0  0  0  0  0  0  0  0
  -22.7960  -29.5280   22.6200 C   0  0  0  0  0  0  0  0  0  0  0  0
  -21.4740  -29.3380   22.4730 N   0  0  0  0  0  0  0  0  0  0  0  0
  -23.4640  -28.9210   23.4610 O   0  0  0  0  0  0  0  0  0  0  0  0
  -20.9930  -29.8800   21.7710 H   0  0  0  0  0  0  0  0  0  0  0  0
  -18.0970  -28.1250   22.9470 C   0  0  0  0  0  0  0  0  0  0  0  0
  -20.6500  -28.4110   23.2520 C   0  0  0  0  0  3  0  0  0  0  0  0
  -20.7690  -26.9670   22.7110 C   0  0  0  0  0  2  0  0  0  0  0  0
  -19.6870  -26.6130   21.6860 C   0  0  0  0  0  2  0  0  0  0  0  0
  -18.2950  -26.7620   22.3030 C   0  0  0  0  0  2  0  0  0  0  0  0
  -19.2030  -28.9050   23.3790 C   0  0  0  0  0  0  0  0  0  0  0  0
  -18.9660  -30.1760   23.9440 C   0  0  0  0  0  3  0  0  0  0  0  0
  -17.6540  -30.6720   24.0760 C   0  0  0  0  0  3  0  0  0  0  0  0
  -16.5630  -29.8900   23.6570 C   0  0  0  0  0  3  0  0  0  0  0  0
  -16.7850  -28.6170   23.1020 C   0  0  0  0  0  3  0  0  0  0  0  0
  -25.9220  -32.6090   23.9160 C   0  0  0  0  0  3  0  0  0  0  0  0
  -25.5990  -34.0070   24.2320 N   0  0  0  0  0  0  0  0  0  0  0  0
  -25.9160  -35.0550   23.4600 C   0  0  0  0  0  0  0  0  0  0  0  0
  -26.5830  -34.9470   22.4270 O   0  0  0  0  0  0  0  0  0  0  0  0
  -25.0150  -34.1680   25.0410 H   0  0  0  0  0  0  0  0  0  0  0  0
  -24.1680  -36.8250   23.0870 C   0  0  0  0  0  1  0  0  0  0  0  0
  -25.4140  -36.4430   23.9020 C   0  0  0  0  0  3  0  0  0  0  0  0
  -27.5420  -37.3580   24.7180 C   0  0  0  0  0  1  0  0  0  0  0  0
  -26.4350  -37.5060   23.7760 N   0  0  0  0  0  0  0  0  0  0  0  0
  -26.0200  -38.4230   23.9180 H   0  0  0  0  0  0  0  0  0  0  0  0
  -26.4350  -31.8540   25.2030 C   0  0  1  0  0  0  0  0  0  0  0  0
  -25.3340  -31.6080   26.2620 C   0  0  0  0  0  1  0  0  0  0  0  0
  -27.0410  -30.4820   24.8290 C   0  0  0  0  0  1  0  0  0  0  0  0
  -27.5680  -32.6690   25.8700 C   0  0  0  0  0  1  0  0  0  0  0  0
  2  7  1  0
  3  4  1  0
  3  2  1  0
  5  4  1  0
  5 23  1  0
  5  6  1  0
  7  1  1  0
  7  6  1  0
  8  1  2  0
  9 11  2  0
  9 13  1  0
 11 12  1  0
 12 16  1  0
 12 10  2  0
 13 14  2  0
 14 10  1  0
 14 48  1  0
 15 11  1  0
 17 15  1  0
 17 19  1  0
 18 13  1  0
 19  1  1  0
 19 16  1  0
 20 21  2  0
 21 40  1  0
 22 21  1  0
 22 25  1  0
 23 20  1  0
 23 24  1  0
 24 22  2  0
 25 26  1  0
 26 27  2  0
 28 31  1  0
 28 27  1  0
 29 28  2  0
 30 29  1  0
 30 25  2  0
 31 32  1  0
 32 33  1  0
 33 34  2  0
 35 34  1  0
 35 39  1  0
 36 35  2  0
 37 32  2  0
 37 36  1  0
 38 37  1  0
 40 41  1  0
 41 44  1  0
 41 43  1  0
 42 40  2  0
 45 46  1  0
 45 20  1  0
 47 45  1  0
 49 50  2  0
 49 48  1  0
 51 50  1  0
 52 63  2  0
 53 51  1  0
 53 58  1  0
 54 62  1  0
 54 64  1  0
 55 61  1  0
 55 57  1  0
 56 62  1  0
 57 58  2  0
 57 56  1  0
 59 53  2  0
 60 59  1  0
 60 55  2  0
 61 54  1  0
 62 52  1  0
 64 66  2  0
 65 64  1  0
 67 65  1  0
 68 77  2  0
 68 73  1  0
 69 65  1  0
 69 73  1  0
 70 69  1  0
 71 72  1  0
 71 70  1  0
 72 68  1  0
 73 74  2  0
 74 75  1  0
 76 75  2  0
 77 76  1  0
 78 52  1  0
 78 79  1  0
 78 88  1  0
 79 82  1  0
 80 84  1  0
 80 79  1  0
 81 80  2  0
 84 83  1  0
 86 84  1  0
 86 87  1  0
 86 85  1  0
 88 91  1  1
 88 89  1  0
 90 88  1  0
M  ISO  4   1 100  19 100  50 101  51 101
M  END
>  <TORSDO>  (46) 
F 18

>  <SCORE>  (46) 
-14.707

>  <name>  (46) 
45

>  <ligand_id>  (46) 
45

>  <original_smiles>  (46) 
[H]c1c([H])c([H])c2c(c1[H])C([H])([H])C([H])([H])C([H])([H])C2([H])N([H])C(=O)C1([H])N(C(=O)C([H])(N([H])C(=O)C([H])(N([H])C([H])([H])[H])C([H])([H])[H])C(C([H])([H])[H])(C([H])([H])[H])C([H])([H])[H])C([H])([H])c2c([H])c(OC([H])([H])C([H])([H])C([H])([H])c3c([H])c4c(c([H])c3C([H])([H])[H])C([H])([H])C([H])([H])N(C(=O)N3C([H])([H])C([H])([H])C([H])([H])C([H])(n5nc(-c6c([H])c([H])c(Oc7c([H])c([H])c(F)c([H])c7F)c([H])c6[H])c(C(=O)N([H])[H])c5N([H])[H])C3([H])[H])C4([H])[H])c([H])c([H])c2C1([H])[H]

>  <smiles>  (46) 
[H]c1c([H])c([H])c2c(c1[H])C([H])([H])C([H])([H])C([H])([H])C2([H])N([H])C(=O)C1([H])N(C(=O)C([H])(N([H])C(=O)C([H])(N([H])C([H])([H])[H])C([H])([H])[H])C(C([H])([H])[H])(C([H])([H])[H])C([H])([H])[H])C([H])([H])c2c([H])c(OC([H])([H])C([H])([H])C([H])([H])c3c([H])c4c(c([H])c3C([H])([H])[H])C([H])([H])C([H])([H])N(C(=O)N3C([H])([H])C([H])([H])C([H])([H])C([H])(n5nc(-c6c([H])c([H])c(Oc7c([H])c([H])c(F)c([H])c7F)c([H])c6[H])c(C(=O)N([H])[H])c5N([H])[H])C3([H])[H])C4([H])[H])c([H])c([H])c2C1([H])[H]

$$$$
46:0:0
     RDKit          3D

 95105  0  0  1  0  0  0  0  0999 V2000
  -27.9360  -19.7430   21.0940 C   0  0  0  0  0  3  0  0  0  0  0  0
  -28.8380  -20.5930   20.4360 C   0  0  0  0  0  0  0  0  0  0  0  0
  -29.6860  -20.1160   19.3880 C   0  0  0  0  0  0  0  0  0  0  0  0
  -27.9190  -18.3890   20.8020 C   0  0  0  0  0  0  0  0  0  0  0  0
  -29.7070  -18.5860   19.2880 C   0  0  0  0  0  0  0  0  0  0  0  0
  -26.9650  -17.4420   21.5000 C   0  0  0  0  0  1  0  0  0  0  0  0
  -28.7900  -17.8450   19.9540 N   0  0  0  0  0  0  0  0  0  0  0  0
  -29.8690  -21.9900   17.3870 C   0  0  0  0  0  2  0  0  0  0  0  0
  -30.4460  -21.3600   18.6150 C   0  0  0  0  0  3  0  0  0  0  0  0
  -30.3400  -23.0690   18.3600 C   0  0  1  0  0  0  0  0  0  0  0  0
  -31.7100  -23.6990   18.2020 C   0  0  0  0  0  1  0  0  0  0  0  0
  -29.3210  -24.4140   18.4400 C   0  0  0  0  0  2  0  0  0  0  0  0
  -29.7200  -25.9320   18.5540 O   0  0  0  0  0  0  0  0  0  0  0  0
  -26.6930  -30.1650   23.8260 C   0  0  0  0  0  0  0  0  0  0  0  0
  -28.7950  -26.9640   18.9760 C   0  0  0  0  0  0  0  0  0  0  0  0
  -25.4100  -29.8170   21.7510 C   0  0  0  0  0  3  0  0  0  0  0  0
  -26.7150  -28.8510   19.7580 C   0  0  0  0  0  0  0  0  0  0  0  0
  -27.9820  -29.7690   21.6930 C   0  0  0  0  0  2  0  0  0  0  0  0
  -27.9100  -28.8120   20.4880 C   0  0  0  0  0  0  0  0  0  0  0  0
  -28.9540  -27.8930   20.0860 C   0  0  0  0  0  3  0  0  0  0  0  0
  -27.5880  -27.1230   18.2580 C   0  0  0  0  0  3  0  0  0  0  0  0
  -26.5690  -28.0230   18.6370 C   0  0  0  0  0  3  0  0  0  0  0  0
  -25.6130  -29.7950   20.2140 C   0  0  0  0  0  2  0  0  0  0  0  0
  -26.7150  -29.9110   22.4820 N   0  0  0  0  0  0  0  0  0  0  0  0
  -25.6270  -30.3330   24.4380 O   0  0  0  0  0  0  0  0  0  0  0  0
  -24.5610  -28.5900   22.1710 C   0  0  0  0  0  0  0  0  0  0  0  0
  -23.2340  -28.6610   21.9580 N   0  0  0  0  0  0  0  0  0  0  0  0
  -25.1020  -27.5930   22.6550 O   0  0  0  0  0  0  0  0  0  0  0  0
  -22.8620  -29.5170   21.5720 H   0  0  0  0  0  0  0  0  0  0  0  0
  -19.7120  -27.8140   21.8730 C   0  0  0  0  0  0  0  0  0  0  0  0
  -22.2630  -27.5980   22.2330 C   0  0  0  0  0  3  0  0  0  0  0  0
  -22.2310  -26.5600   21.0890 C   0  0  0  0  0  2  0  0  0  0  0  0
  -21.1620  -26.8600   20.0320 C   0  0  0  0  0  2  0  0  0  0  0  0
  -19.7710  -26.8860   20.6700 C   0  0  0  0  0  2  0  0  0  0  0  0
  -20.8840  -28.1600   22.5970 C   0  0  0  0  0  0  0  0  0  0  0  0
  -20.7750  -29.0510   23.6870 C   0  0  0  0  0  3  0  0  0  0  0  0
  -19.5290  -29.5920   24.0550 C   0  0  0  0  0  3  0  0  0  0  0  0
  -18.3700  -29.2350   23.3440 C   0  0  0  0  0  3  0  0  0  0  0  0
  -18.4620  -28.3440   22.2590 C   0  0  0  0  0  3  0  0  0  0  0  0
  -28.0090  -30.2780   24.6560 C   0  0  0  0  0  3  0  0  0  0  0  0
  -28.3370  -28.9700   25.4790 C   0  0  1  0  0  0  0  0  0  0  0  0
  -27.1640  -28.4730   26.3570 C   0  0  0  0  0  1  0  0  0  0  0  0
  -28.7350  -27.8110   24.5360 C   0  0  0  0  0  1  0  0  0  0  0  0
  -29.5530  -29.2230   26.4010 C   0  0  0  0  0  1  0  0  0  0  0  0
  -27.8700  -31.4290   25.5610 N   0  0  0  0  0  0  0  0  0  0  0  0
  -28.3910  -32.6430   25.3400 C   0  0  0  0  0  0  0  0  0  0  0  0
  -29.1060  -32.8960   24.3670 O   0  0  0  0  0  0  0  0  0  0  0  0
  -27.2490  -31.3100   26.3490 H   0  0  0  0  0  0  0  0  0  0  0  0
  -26.9530  -34.6530   25.8150 C   0  0  0  0  0  1  0  0  0  0  0  0
  -28.0730  -33.7540   26.3620 C   0  0  0  0  0  3  0  0  0  0  0  0
  -30.2470  -33.8630   27.4990 C   0  0  0  0  0  1  0  0  0  0  0  0
  -29.2460  -34.5830   26.7170 N   0  0  0  0  0  0  0  0  0  0  0  0
  -28.9600  -35.4020   27.2460 H   0  0  0  0  0  0  0  0  0  0  0  0
  -30.2150  -22.6630   21.2740 C   0  0  0  0  0  2  0  0  0  0  0  0
  -29.3010  -22.2620   22.3990 C   0  0  0  0  0  2  0  0  0  0  0  0
  -28.8870  -21.9920   20.9640 C   0  0  0  0  0  3  0  0  0  0  0  0
  -30.6360  -17.4160   18.6220 C   0  0  0  0  0  2  0  0  0  0  0  0
  -31.3190  -14.7420   19.0950 C   0  0  0  0  0  0  0  0  0  0  0  0
  -31.1700  -12.2540   18.6240 C   0  0  0  0  0  2  0  0  0  0  0  0
  -30.0920  -11.9770   17.5490 C   0  0  0  0  0  2  0  0  0  0  0  0
  -28.7060  -11.8230   18.2010 C   0  0  0  0  0  2  0  0  0  0  0  0
  -28.4150  -12.9440   19.2330 C   0  0  0  0  0  3  0  0  0  0  0  0
  -29.5990  -13.1780   20.1950 C   0  0  0  0  0  2  0  0  0  0  0  0
  -30.7730  -13.4850   19.3670 N   0  0  0  0  0  0  0  0  0  0  0  0
  -32.4610  -14.7680   18.6240 O   0  0  0  0  0  0  0  0  0  0  0  0
  -30.5250  -15.9160   19.1490 N   0  0  0  0  0  0  0  0  0  0  0  0
  -29.6350  -15.7880   19.6100 H   0  0  0  0  0  0  0  0  0  0  0  0
  -26.3270  -13.6580   20.5290 C   0  0  0  0  0  0  0  0  0  0  0  0
  -25.2390  -12.9630   20.9800 C   0  0  0  0  0  0  0  0  0  0  0  0
  -25.4740  -11.5950   20.6380 C   0  0  0  0  0  0  0  0  0  0  0  0
  -27.1600  -12.7220   19.9440 N   0  0  0  0  0  0  0  0  0  0  0  0
  -26.6670  -11.4610   20.0690 N   0  0  0  0  0  0  0  0  0  0  0  0
  -24.6060  -10.4180   20.7680 C   0  0  0  0  0  0  0  0  0  0  0  0
  -24.8770   -9.3990   21.7080 C   0  0  0  0  0  3  0  0  0  0  0  0
  -24.0150   -8.2880   21.8280 C   0  0  0  0  0  3  0  0  0  0  0  0
  -22.8670   -8.1880   21.0050 C   0  0  0  0  0  0  0  0  0  0  0  0
  -22.6150   -9.1940   20.0560 C   0  0  0  0  0  3  0  0  0  0  0  0
  -23.4760  -10.2970   19.9350 C   0  0  0  0  0  3  0  0  0  0  0  0
  -21.9870   -7.1330   21.0350 O   0  0  0  0  0  0  0  0  0  0  0  0
  -21.5200   -6.6160   22.2170 C   0  0  0  0  0  0  0  0  0  0  0  0
  -20.7970   -7.4040   23.1400 C   0  0  0  0  0  3  0  0  0  0  0  0
  -20.2750   -6.8160   24.3090 C   0  0  0  0  0  3  0  0  0  0  0  0
  -20.4670   -5.4440   24.5540 C   0  0  0  0  0  0  0  0  0  0  0  0
  -21.1820   -4.6570   23.6340 C   0  0  0  0  0  3  0  0  0  0  0  0
  -21.7040   -5.2420   22.4670 C   0  0  0  0  0  0  0  0  0  0  0  0
  -22.3750   -4.4740   21.5740 F   0  0  0  0  0  0  0  0  0  0  0  0
  -19.9590   -4.8770   25.6730 F   0  0  0  0  0  0  0  0  0  0  0  0
  -24.0060  -13.5470   21.6050 C   0  0  0  0  0  0  0  0  0  0  0  0
  -23.3550  -12.8020   22.4910 N   0  0  0  0  0  0  0  0  0  0  0  0
  -23.6410  -14.6940   21.3460 O   0  0  0  0  0  0  0  0  0  0  0  0
  -23.6670  -11.8690   22.7180 H   0  0  0  0  0  0  0  0  0  0  0  0
  -22.5330  -13.1700   22.9480 H   0  0  0  0  0  0  0  0  0  0  0  0
  -26.6660  -15.0080   20.5430 N   0  0  0  0  0  0  0  0  0  0  0  0
  -26.0370  -15.7160   20.9070 H   0  0  0  0  0  0  0  0  0  0  0  0
  -27.5130  -15.3990   20.1520 H   0  0  0  0  0  0  0  0  0  0  0  0
  2 56  1  0
  2  1  2  0
  3  2  1  0
  4  1  1  0
  4  6  1  0
  5  3  2  0
  5  7  1  0
  7  4  2  0
  8 10  1  0
  8  9  1  0
  9  3  1  0
 10 11  1  6
 10 12  1  0
 10  9  1  0
 12 13  1  0
 13 15  1  0
 14 25  2  0
 15 20  1  0
 16 26  1  0
 16 24  1  0
 17 23  1  0
 17 19  1  0
 18 24  1  0
 19 18  1  0
 20 19  2  0
 21 22  1  0
 21 15  2  0
 22 17  2  0
 23 16  1  0
 24 14  1  0
 26 28  2  0
 27 26  1  0
 29 27  1  0
 30 39  2  0
 30 35  1  0
 31 27  1  0
 31 35  1  0
 32 31  1  0
 33 34  1  0
 33 32  1  0
 34 30  1  0
 35 36  2  0
 36 37  1  0
 38 37  2  0
 39 38  1  0
 40 14  1  0
 40 41  1  0
 40 45  1  0
 41 42  1  1
 41 44  1  0
 43 41  1  0
 45 48  1  0
 46 45  1  0
 46 50  1  0
 47 46  2  0
 50 49  1  0
 50 52  1  0
 52 53  1  0
 52 51  1  0
 54 55  1  0
 56 54  1  0
 56 55  1  0
 57 66  1  0
 57  5  1  0
 58 66  1  0
 58 64  1  0
 59 64  1  0
 60 61  1  0
 60 59  1  0
 62 61  1  0
 62 71  1  0
 62 63  1  0
 64 63  1  0
 65 58  2  0
 66 67  1  0
 68 93  1  0
 68 69  2  0
 69 88  1  0
 70 73  1  0
 70 69  1  0
 71 72  1  0
 71 68  1  0
 72 70  2  0
 73 74  1  0
 74 75  2  0
 76 79  1  0
 76 75  1  0
 77 76  2  0
 78 77  1  0
 78 73  2  0
 79 80  1  0
 80 85  2  0
 80 81  1  0
 81 82  2  0
 82 83  1  0
 83 87  1  0
 84 83  2  0
 85 84  1  0
 86 85  1  0
 88 89  1  0
 89 91  1  0
 89 92  1  0
 90 88  2  0
 93 94  1  0
 95 93  1  0
M  ISO  4  12 101  13 101  58 100  66 100
M  END
>  <TORSDO>  (47) 
F 20

>  <SCORE>  (47) 
-4.565

>  <name>  (47) 
46

>  <ligand_id>  (47) 
46

>  <original_smiles>  (47) 
[H]c1c([H])c([H])c2c(c1[H])C([H])([H])C([H])([H])C([H])([H])C2([H])N([H])C(=O)C1([H])N(C(=O)C([H])(N([H])C(=O)C([H])(N([H])C([H])([H])[H])C([H])([H])[H])C(C([H])([H])[H])(C([H])([H])[H])C([H])([H])[H])C([H])([H])c2c([H])c(OC([H])([H])C3(C([H])([H])[H])C([H])([H])C3([H])c3c(C([H])([H])N([H])C(=O)N4C([H])([H])C([H])([H])C([H])([H])C([H])(n5nc(-c6c([H])c([H])c(Oc7c([H])c([H])c(F)c([H])c7F)c([H])c6[H])c(C(=O)N([H])[H])c5N([H])[H])C4([H])[H])nc(C([H])([H])[H])c([H])c3C3([H])C([H])([H])C3([H])[H])c([H])c([H])c2C1([H])[H]

>  <smiles>  (47) 
[H]c1c([H])c([H])c2c(c1[H])C([H])([H])C([H])([H])C([H])([H])C2([H])N([H])C(=O)C1([H])N(C(=O)C([H])(N([H])C(=O)C([H])(N([H])C([H])([H])[H])C([H])([H])[H])C(C([H])([H])[H])(C([H])([H])[H])C([H])([H])[H])C([H])([H])c2c([H])c(OC([H])([H])C3(C([H])([H])[H])C([H])([H])C3([H])c3c(C([H])([H])N([H])C(=O)N4C([H])([H])C([H])([H])C([H])([H])C([H])(n5nc(-c6c([H])c([H])c(Oc7c([H])c([H])c(F)c([H])c7F)c([H])c6[H])c(C(=O)N([H])[H])c5N([H])[H])C4([H])[H])nc(C([H])([H])[H])c([H])c3C3([H])C([H])([H])C3([H])[H])c([H])c([H])c2C1([H])[H]

$$$$
47:0:0
     RDKit          3D

 95104  0  0  1  0  0  0  0  0999 V2000
  -26.8980  -22.1610   19.7930 C   0  0  0  0  0  0  0  0  0  0  0  0
  -28.2910  -24.0960   20.3640 C   0  0  0  0  0  0  0  0  0  0  0  0
  -28.2470  -22.6310   19.9400 C   0  0  0  0  0  0  0  0  0  0  0  0
  -25.8410  -22.8930   20.3710 C   0  0  0  0  0  0  0  0  0  0  0  0
  -27.2470  -24.4670   21.2500 C   0  0  0  0  0  0  0  0  0  0  0  0
  -26.5130  -20.9720   18.9150 C   0  0  0  0  0  1  0  0  0  0  0  0
  -24.3770  -22.6710   20.0420 C   0  0  0  0  0  1  0  0  0  0  0  0
  -27.2470  -25.6240   22.2300 C   0  0  0  0  0  1  0  0  0  0  0  0
  -26.0470  -23.8920   21.2250 N   0  0  0  0  0  0  0  0  0  0  0  0
  -29.1110  -25.4300   18.2460 C   0  0  0  0  0  1  0  0  0  0  0  0
  -29.0850  -25.3940   19.7830 C   0  0  0  0  0  3  0  0  0  0  0  0
  -28.8970  -26.8580   20.2790 O   0  0  0  0  0  0  0  0  0  0  0  0
  -24.8000  -32.0210   23.4860 C   0  0  0  0  0  0  0  0  0  0  0  0
  -27.7500  -27.7260   20.2070 C   0  0  0  0  0  0  0  0  0  0  0  0
  -23.7340  -30.7030   21.6920 C   0  0  0  0  0  3  0  0  0  0  0  0
  -25.3170  -29.3150   20.2250 C   0  0  0  0  0  0  0  0  0  0  0  0
  -26.2790  -31.1050   21.6650 C   0  0  0  0  0  2  0  0  0  0  0  0
  -26.4430  -29.7790   20.9110 C   0  0  0  0  0  0  0  0  0  0  0  0
  -27.6570  -29.0050   20.8800 C   0  0  0  0  0  3  0  0  0  0  0  0
  -26.5830  -27.3430   19.5180 C   0  0  0  0  0  3  0  0  0  0  0  0
  -25.3990  -28.1100   19.5120 C   0  0  0  0  0  3  0  0  0  0  0  0
  -24.0350  -30.1380   20.2780 C   0  0  0  0  0  2  0  0  0  0  0  0
  -24.9540  -31.2950   22.3380 N   0  0  0  0  0  0  0  0  0  0  0  0
  -23.6830  -32.2080   23.9950 O   0  0  0  0  0  0  0  0  0  0  0  0
  -23.0720  -29.5930   22.5390 C   0  0  0  0  0  0  0  0  0  0  0  0
  -21.7570  -29.3850   22.3490 N   0  0  0  0  0  0  0  0  0  0  0  0
  -23.7400  -28.9300   23.3350 O   0  0  0  0  0  0  0  0  0  0  0  0
  -21.2690  -29.9740   21.6890 H   0  0  0  0  0  0  0  0  0  0  0  0
  -18.4000  -28.0810   22.6600 C   0  0  0  0  0  0  0  0  0  0  0  0
  -20.9480  -28.3580   23.0070 C   0  0  0  0  0  3  0  0  0  0  0  0
  -21.0880  -26.9900   22.3000 C   0  0  0  0  0  2  0  0  0  0  0  0
  -20.0140  -26.7480   21.2350 C   0  0  0  0  0  2  0  0  0  0  0  0
  -18.6170  -26.8080   21.8590 C   0  0  0  0  0  2  0  0  0  0  0  0
  -19.4960  -28.8170   23.1840 C   0  0  0  0  0  0  0  0  0  0  0  0
  -19.2420  -30.0140   23.8890 C   0  0  0  0  0  3  0  0  0  0  0  0
  -17.9260  -30.4760   24.0770 C   0  0  0  0  0  3  0  0  0  0  0  0
  -16.8440  -29.7350   23.5720 C   0  0  0  0  0  3  0  0  0  0  0  0
  -17.0810  -28.5380   22.8710 C   0  0  0  0  0  3  0  0  0  0  0  0
  -26.0180  -32.6590   24.2150 C   0  0  0  0  0  3  0  0  0  0  0  0
  -25.6750  -34.0570   24.5170 N   0  0  0  0  0  0  0  0  0  0  0  0
  -26.0650  -35.1150   23.7950 C   0  0  0  0  0  0  0  0  0  0  0  0
  -26.8190  -35.0190   22.8240 O   0  0  0  0  0  0  0  0  0  0  0  0
  -25.0160  -34.2060   25.2660 H   0  0  0  0  0  0  0  0  0  0  0  0
  -24.3560  -36.9000   23.3070 C   0  0  0  0  0  1  0  0  0  0  0  0
  -25.5320  -36.5000   24.2130 C   0  0  0  0  0  3  0  0  0  0  0  0
  -27.5860  -37.4070   25.2090 C   0  0  0  0  0  1  0  0  0  0  0  0
  -26.5610  -37.5620   24.1800 N   0  0  0  0  0  0  0  0  0  0  0  0
  -26.1360  -38.4780   24.2940 H   0  0  0  0  0  0  0  0  0  0  0  0
  -26.4230  -31.8940   25.5370 C   0  0  1  0  0  0  0  0  0  0  0  0
  -25.2390  -31.6320   26.4930 C   0  0  0  0  0  1  0  0  0  0  0  0
  -27.0730  -30.5290   25.2110 C   0  0  0  0  0  1  0  0  0  0  0  0
  -27.4820  -32.7120   26.3150 C   0  0  0  0  0  1  0  0  0  0  0  0
  -29.3120  -21.6610   19.6380 O   0  0  0  0  0  0  0  0  0  0  0  0
  -30.9790  -15.5680   20.4610 C   0  0  0  0  0  0  0  0  0  0  0  0
  -30.8850  -13.1490   19.7010 C   0  0  0  0  0  2  0  0  0  0  0  0
  -30.0730  -13.0400   18.3910 C   0  0  0  0  0  2  0  0  0  0  0  0
  -28.5710  -12.8680   18.6940 C   0  0  0  0  0  2  0  0  0  0  0  0
  -28.0730  -13.8350   19.8040 C   0  0  0  0  0  3  0  0  0  0  0  0
  -29.0430  -13.9250   20.9970 C   0  0  0  0  0  2  0  0  0  0  0  0
  -30.3440  -14.3220   20.4440 N   0  0  0  0  0  0  0  0  0  0  0  0
  -32.2150  -15.5330   20.4040 O   0  0  0  0  0  0  0  0  0  0  0  0
  -29.2180  -18.9440   19.0060 C   0  0  0  0  0  2  0  0  0  0  0  0
  -30.6910  -19.5890   20.6910 C   0  0  0  0  0  2  0  0  0  0  0  0
  -29.2820  -17.3690   19.4560 C   0  0  0  0  0  2  0  0  0  0  0  0
  -30.7920  -18.0550   21.2310 C   0  0  0  0  0  2  0  0  0  0  0  0
  -29.3540  -20.1430   20.0630 C   0  0  0  0  0  3  0  0  0  0  0  0
  -30.3090  -16.8520   20.4400 N   0  0  0  0  0  0  0  0  0  0  0  0
  -25.6600  -14.4410   20.3880 C   0  0  0  0  0  0  0  0  0  0  0  0
  -24.5680  -13.6890   20.6950 C   0  0  0  0  0  0  0  0  0  0  0  0
  -25.0170  -12.3300   20.7190 C   0  0  0  0  0  0  0  0  0  0  0  0
  -26.7070  -13.5520   20.2240 N   0  0  0  0  0  0  0  0  0  0  0  0
  -26.3260  -12.2760   20.4940 N   0  0  0  0  0  0  0  0  0  0  0  0
  -24.2650  -11.0790   20.8850 C   0  0  0  0  0  0  0  0  0  0  0  0
  -24.6380  -10.1190   21.8520 C   0  0  0  0  0  3  0  0  0  0  0  0
  -23.8950   -8.9310   22.0090 C   0  0  0  0  0  3  0  0  0  0  0  0
  -22.7650   -8.6900   21.1920 C   0  0  0  0  0  0  0  0  0  0  0  0
  -22.4080   -9.6360   20.2160 C   0  0  0  0  0  3  0  0  0  0  0  0
  -23.1520  -10.8180   20.0610 C   0  0  0  0  0  3  0  0  0  0  0  0
  -22.0050   -7.5480   21.2440 O   0  0  0  0  0  0  0  0  0  0  0  0
  -21.9070   -6.8000   22.3900 C   0  0  0  0  0  0  0  0  0  0  0  0
  -21.4230   -7.3480   23.5960 C   0  0  0  0  0  3  0  0  0  0  0  0
  -21.2750   -6.5250   24.7320 C   0  0  0  0  0  3  0  0  0  0  0  0
  -21.5980   -5.1570   24.6580 C   0  0  0  0  0  0  0  0  0  0  0  0
  -22.0730   -4.6090   23.4540 C   0  0  0  0  0  3  0  0  0  0  0  0
  -22.2230   -5.4290   22.3210 C   0  0  0  0  0  0  0  0  0  0  0  0
  -22.6600   -4.8910   21.1580 F   0  0  0  0  0  0  0  0  0  0  0  0
  -21.4460   -4.3680   25.7470 F   0  0  0  0  0  0  0  0  0  0  0  0
  -23.1590  -14.1770   20.8590 C   0  0  0  0  0  0  0  0  0  0  0  0
  -22.3690  -13.5140   21.6930 N   0  0  0  0  0  0  0  0  0  0  0  0
  -22.7630  -15.1890   20.2770 O   0  0  0  0  0  0  0  0  0  0  0  0
  -22.7070  -12.7010   22.1900 H   0  0  0  0  0  0  0  0  0  0  0  0
  -21.4160  -13.8200   21.8360 H   0  0  0  0  0  0  0  0  0  0  0  0
  -25.8560  -15.8090   20.2080 N   0  0  0  0  0  0  0  0  0  0  0  0
  -25.1070  -16.4860   20.2490 H   0  0  0  0  0  0  0  0  0  0  0  0
  -26.7440  -16.2120   19.9540 H   0  0  0  0  0  0  0  0  0  0  0  0
  1  3  2  0
  1  4  1  0
  2  5  2  0
  3  2  1  0
  4  9  2  0
  5  8  1  0
  6  1  1  0
  7  4  1  0
  9  5  1  0
 11 10  1  0
 11 12  1  0
 11  2  1  0
 13 24  2  0
 14 12  1  0
 14 19  1  0
 15 23  1  0
 15 25  1  0
 16 22  1  0
 16 18  1  0
 17 23  1  0
 18 17  1  0
 19 18  2  0
 20 14  2  0
 21 20  1  0
 21 16  2  0
 22 15  1  0
 23 13  1  0
 25 27  2  0
 26 25  1  0
 28 26  1  0
 29 38  2  0
 29 34  1  0
 30 26  1  0
 30 34  1  0
 31 30  1  0
 32 33  1  0
 32 31  1  0
 33 29  1  0
 34 35  2  0
 35 36  1  0
 37 36  2  0
 38 37  1  0
 39 13  1  0
 39 40  1  0
 39 49  1  0
 40 43  1  0
 41 45  1  0
 41 40  1  0
 42 41  2  0
 45 44  1  0
 47 45  1  0
 47 48  1  0
 47 46  1  0
 49 52  1  1
 49 50  1  0
 51 49  1  0
 53  3  1  0
 55 60  1  0
 56 57  1  0
 56 55  1  0
 58 57  1  0
 58 71  1  0
 58 59  1  0
 60 54  1  0
 60 59  1  0
 61 54  2  0
 62 64  1  0
 62 66  1  0
 63 65  1  0
 64 67  1  0
 66 53  1  0
 66 63  1  0
 67 54  1  0
 67 65  1  0
 68 69  2  0
 69 70  1  0
 69 88  1  0
 70 73  1  0
 71 68  1  0
 71 72  1  0
 72 70  2  0
 73 74  1  0
 74 75  2  0
 76 79  1  0
 76 75  1  0
 77 76  2  0
 78 77  1  0
 78 73  2  0
 79 80  1  0
 80 81  1  0
 81 82  2  0
 83 82  1  0
 83 87  1  0
 84 83  2  0
 85 80  2  0
 85 84  1  0
 86 85  1  0
 88 89  1  0
 89 92  1  0
 89 91  1  0
 90 88  2  0
 93 94  1  0
 93 68  1  0
 95 93  1  0
M  ISO  4  11 101  12 101  54 100  67 100
M  END
>  <TORSDO>  (48) 
F 18

>  <SCORE>  (48) 
-13.245

>  <name>  (48) 
47

>  <ligand_id>  (48) 
47

>  <original_smiles>  (48) 
[H]c1c([H])c([H])c2c(c1[H])C([H])([H])C([H])([H])C([H])([H])C2([H])N([H])C(=O)C1([H])N(C(=O)C([H])(N([H])C(=O)C([H])(N([H])C([H])([H])[H])C([H])([H])[H])C(C([H])([H])[H])(C([H])([H])[H])C([H])([H])[H])C([H])([H])c2c([H])c(OC([H])(c3c(C([H])([H])[H])nc(C([H])([H])[H])c(C([H])([H])[H])c3OC3([H])C([H])([H])C([H])([H])N(C(=O)N4C([H])([H])C([H])([H])C([H])([H])C([H])(n5nc(-c6c([H])c([H])c(Oc7c([H])c([H])c(F)c([H])c7F)c([H])c6[H])c(C(=O)N([H])[H])c5N([H])[H])C4([H])[H])C([H])([H])C3([H])[H])C([H])([H])[H])c([H])c([H])c2C1([H])[H]

>  <smiles>  (48) 
[H]c1c([H])c([H])c2c(c1[H])C([H])([H])C([H])([H])C([H])([H])C2([H])N([H])C(=O)C1([H])N(C(=O)C([H])(N([H])C(=O)C([H])(N([H])C([H])([H])[H])C([H])([H])[H])C(C([H])([H])[H])(C([H])([H])[H])C([H])([H])[H])C([H])([H])c2c([H])c(OC([H])(c3c(C([H])([H])[H])nc(C([H])([H])[H])c(C([H])([H])[H])c3OC3([H])C([H])([H])C([H])([H])N(C(=O)N4C([H])([H])C([H])([H])C([H])([H])C([H])(n5nc(-c6c([H])c([H])c(Oc7c([H])c([H])c(F)c([H])c7F)c([H])c6[H])c(C(=O)N([H])[H])c5N([H])[H])C4([H])[H])C([H])([H])C3([H])[H])C([H])([H])[H])c([H])c([H])c2C1([H])[H]

$$$$
48:0:0
     RDKit          3D

 92101  0  0  1  0  0  0  0  0999 V2000
  -31.7390  -20.2720   17.8780 C   0  0  0  0  0  3  0  0  0  0  0  0
  -30.4580  -21.4560   19.5370 C   0  0  0  0  0  3  0  0  0  0  0  0
  -31.1650  -21.5340   18.3150 C   0  0  0  0  0  0  0  0  0  0  0  0
  -31.6510  -19.0210   18.6340 C   0  0  0  0  0  0  0  0  0  0  0  0
  -30.9820  -19.0790   19.9000 C   0  0  0  0  0  0  0  0  0  0  0  0
  -30.3560  -20.2860   20.3050 C   0  0  0  0  0  0  0  0  0  0  0  0
  -30.9660  -17.8960   20.8740 C   0  0  0  0  0  1  0  0  0  0  0  0
  -29.4750  -20.4070   21.7910 Cl  0  0  0  0  0  0  0  0  0  0  0  0
  -30.0360  -23.7710   18.0350 C   0  0  0  0  0  2  0  0  0  0  0  0
  -31.3430  -23.0260   17.7800 C   0  0  0  0  0  3  0  0  0  0  0  0
  -30.7010  -24.1160   16.7560 C   0  0  0  0  0  3  0  0  0  0  0  0
  -31.0770  -25.6730   16.6790 C   0  0  0  0  0  2  0  0  0  0  0  0
  -30.3310  -26.7240   15.9380 O   0  0  0  0  0  0  0  0  0  0  0  0
  -25.5180  -28.2770   21.1360 C   0  0  0  0  0  0  0  0  0  0  0  0
  -29.0240  -27.0510   16.3330 C   0  0  0  0  0  0  0  0  0  0  0  0
  -24.6110  -27.6980   18.9130 C   0  0  0  0  0  3  0  0  0  0  0  0
  -26.3050  -27.6480   16.9990 C   0  0  0  0  0  0  0  0  0  0  0  0
  -26.9220  -28.7940   19.1280 C   0  0  0  0  0  2  0  0  0  0  0  0
  -27.3350  -28.0690   17.8490 C   0  0  0  0  0  0  0  0  0  0  0  0
  -28.6970  -27.7950   17.5120 C   0  0  0  0  0  3  0  0  0  0  0  0
  -27.9600  -26.6620   15.4970 C   0  0  0  0  0  3  0  0  0  0  0  0
  -26.6160  -26.9470   15.8190 C   0  0  0  0  0  3  0  0  0  0  0  0
  -24.8750  -27.9590   17.4070 C   0  0  0  0  0  2  0  0  0  0  0  0
  -25.6990  -28.2460   19.7830 N   0  0  0  0  0  0  0  0  0  0  0  0
  -24.4560  -27.8950   21.6520 O   0  0  0  0  0  0  0  0  0  0  0  0
  -24.3600  -26.1840   19.1210 C   0  0  0  0  0  0  0  0  0  0  0  0
  -23.2280  -25.6810   18.6000 N   0  0  0  0  0  0  0  0  0  0  0  0
  -25.1860  -25.4860   19.7180 O   0  0  0  0  0  0  0  0  0  0  0  0
  -22.5970  -26.3240   18.1420 H   0  0  0  0  0  0  0  0  0  0  0  0
  -20.6520  -23.3680   17.5410 C   0  0  0  0  0  0  0  0  0  0  0  0
  -22.8100  -24.2780   18.6380 C   0  0  0  0  0  3  0  0  0  0  0  0
  -23.5730  -23.4400   17.5870 C   0  0  0  0  0  2  0  0  0  0  0  0
  -22.8280  -23.3210   16.2550 C   0  0  0  0  0  2  0  0  0  0  0  0
  -21.4560  -22.6700   16.4560 C   0  0  0  0  0  2  0  0  0  0  0  0
  -21.2870  -24.1370   18.5520 C   0  0  0  0  0  0  0  0  0  0  0  0
  -20.4870  -24.7950   19.5120 C   0  0  0  0  0  3  0  0  0  0  0  0
  -19.0850  -24.6860   19.4790 C   0  0  0  0  0  3  0  0  0  0  0  0
  -18.4620  -23.9140   18.4840 C   0  0  0  0  0  3  0  0  0  0  0  0
  -19.2470  -23.2570   17.5200 C   0  0  0  0  0  3  0  0  0  0  0  0
  -26.6230  -28.8170   22.0980 C   0  0  0  0  0  3  0  0  0  0  0  0
  -27.3240  -27.6800   22.9370 C   0  0  1  0  0  0  0  0  0  0  0  0
  -26.3320  -26.7400   23.6620 C   0  0  0  0  0  1  0  0  0  0  0  0
  -28.2290  -26.8070   22.0350 C   0  0  0  0  0  1  0  0  0  0  0  0
  -28.2480  -28.3130   24.0040 C   0  0  0  0  0  1  0  0  0  0  0  0
  -25.9920  -29.7990   22.9890 N   0  0  0  0  0  0  0  0  0  0  0  0
  -26.1240  -31.1280   22.8760 C   0  0  0  0  0  0  0  0  0  0  0  0
  -26.8530  -31.6580   22.0350 O   0  0  0  0  0  0  0  0  0  0  0  0
  -25.3280  -29.4410   23.6600 H   0  0  0  0  0  0  0  0  0  0  0  0
  -24.0750  -32.5660   23.1340 C   0  0  0  0  0  1  0  0  0  0  0  0
  -25.3160  -32.0060   23.8480 C   0  0  0  0  0  3  0  0  0  0  0  0
  -27.1100  -32.6670   25.3850 C   0  0  0  0  0  1  0  0  0  0  0  0
  -26.0970  -33.1170   24.4310 N   0  0  0  0  0  0  0  0  0  0  0  0
  -25.4870  -33.7740   24.9090 H   0  0  0  0  0  0  0  0  0  0  0  0
  -32.3500  -17.6770   18.1220 C   0  0  0  0  0  2  0  0  0  0  0  0
  -33.0810  -15.2940   18.9670 C   0  0  0  0  0  0  0  0  0  0  0  0
  -33.0950  -12.7930   19.0120 C   0  0  0  0  0  2  0  0  0  0  0  0
  -32.0990  -12.2610   17.9580 C   0  0  0  0  0  2  0  0  0  0  0  0
  -30.6770  -12.1750   18.5460 C   0  0  0  0  0  2  0  0  0  0  0  0
  -30.2620  -13.4690   19.2980 C   0  0  0  0  0  3  0  0  0  0  0  0
  -31.3730  -13.9350   20.2630 C   0  0  0  0  0  2  0  0  0  0  0  0
  -32.5990  -14.1090   19.4720 N   0  0  0  0  0  0  0  0  0  0  0  0
  -34.2100  -15.3470   18.4720 O   0  0  0  0  0  0  0  0  0  0  0  0
  -32.1970  -16.3470   18.8460 N   0  0  0  0  0  0  0  0  0  0  0  0
  -31.2800  -16.1730   19.2210 H   0  0  0  0  0  0  0  0  0  0  0  0
  -28.1220  -14.2900   20.4490 C   0  0  0  0  0  0  0  0  0  0  0  0
  -27.0240  -13.6250   20.9230 C   0  0  0  0  0  0  0  0  0  0  0  0
  -27.2760  -12.2360   20.7040 C   0  0  0  0  0  0  0  0  0  0  0  0
  -28.9780  -13.3110   19.9750 N   0  0  0  0  0  0  0  0  0  0  0  0
  -28.4850  -12.0630   20.1890 N   0  0  0  0  0  0  0  0  0  0  0  0
  -26.4130  -11.0660   20.9050 C   0  0  0  0  0  0  0  0  0  0  0  0
  -26.4800  -10.2940   22.0850 C   0  0  0  0  0  3  0  0  0  0  0  0
  -25.6260   -9.1840   22.2640 C   0  0  0  0  0  3  0  0  0  0  0  0
  -24.6920   -8.8380   21.2580 C   0  0  0  0  0  0  0  0  0  0  0  0
  -24.6440   -9.5970   20.0780 C   0  0  0  0  0  3  0  0  0  0  0  0
  -25.4980  -10.6990   19.8990 C   0  0  0  0  0  3  0  0  0  0  0  0
  -23.8390   -7.7630   21.3350 O   0  0  0  0  0  0  0  0  0  0  0  0
  -22.9030   -7.6550   22.3310 C   0  0  0  0  0  0  0  0  0  0  0  0
  -21.8660   -8.6000   22.4840 C   0  0  0  0  0  3  0  0  0  0  0  0
  -20.8850   -8.4150   23.4790 C   0  0  0  0  0  3  0  0  0  0  0  0
  -20.9330   -7.2820   24.3130 C   0  0  0  0  0  0  0  0  0  0  0  0
  -21.9630   -6.3390   24.1590 C   0  0  0  0  0  3  0  0  0  0  0  0
  -22.9450   -6.5230   23.1690 C   0  0  0  0  0  0  0  0  0  0  0  0
  -23.9230   -5.5980   23.0120 F   0  0  0  0  0  0  0  0  0  0  0  0
  -19.9870   -7.0990   25.2640 F   0  0  0  0  0  0  0  0  0  0  0  0
  -25.7690  -14.2480   21.4600 C   0  0  0  0  0  0  0  0  0  0  0  0
  -25.1450  -13.6080   22.4440 N   0  0  0  0  0  0  0  0  0  0  0  0
  -25.3610  -15.3300   21.0420 O   0  0  0  0  0  0  0  0  0  0  0  0
  -25.4880  -12.7250   22.7920 H   0  0  0  0  0  0  0  0  0  0  0  0
  -24.3120  -14.0070   22.8560 H   0  0  0  0  0  0  0  0  0  0  0  0
  -28.4520  -15.6390   20.3600 N   0  0  0  0  0  0  0  0  0  0  0  0
  -27.8020  -16.3660   20.6390 H   0  0  0  0  0  0  0  0  0  0  0  0
  -29.2740  -16.0030   19.8970 H   0  0  0  0  0  0  0  0  0  0  0  0
  1  3  2  0
  1  4  1  0
  2  6  2  0
  3  2  1  0
  4  5  2  0
  5  6  1  0
  5  7  1  0
  6  8  1  0
 10  9  1  0
 10  3  1  0
 11 12  1  0
 11 10  1  0
 11  9  1  0
 13 15  1  0
 13 12  1  0
 14 25  2  0
 15 20  1  0
 16 26  1  0
 16 24  1  0
 17 23  1  0
 17 19  1  0
 18 24  1  0
 19 18  1  0
 20 19  2  0
 21 22  1  0
 21 15  2  0
 22 17  2  0
 23 16  1  0
 24 14  1  0
 26 28  2  0
 27 26  1  0
 29 27  1  0
 30 35  1  0
 31 27  1  0
 32 31  1  0
 33 34  1  0
 33 32  1  0
 34 30  1  0
 35 31  1  0
 35 36  2  0
 37 36  1  0
 38 37  2  0
 39 30  2  0
 39 38  1  0
 40 14  1  0
 40 41  1  0
 40 45  1  0
 41 42  1  1
 41 44  1  0
 43 41  1  0
 45 48  1  0
 46 45  1  0
 46 50  1  0
 47 46  2  0
 50 49  1  0
 50 52  1  0
 52 53  1  0
 52 51  1  0
 54  4  1  0
 54 63  1  0
 55 61  1  0
 56 61  1  0
 57 58  1  0
 57 56  1  0
 59 58  1  0
 59 68  1  0
 59 60  1  0
 61 60  1  0
 62 55  2  0
 63 55  1  0
 63 64  1  0
 65 66  2  0
 66 85  1  0
 67 70  1  0
 67 66  1  0
 68 69  1  0
 68 65  1  0
 69 67  2  0
 70 71  1  0
 71 72  2  0
 73 76  1  0
 73 72  1  0
 74 73  2  0
 75 74  1  0
 75 70  2  0
 76 77  1  0
 77 78  2  0
 77 82  1  0
 78 79  1  0
 79 80  2  0
 80 84  1  0
 81 80  1  0
 82 81  2  0
 83 82  1  0
 85 86  1  0
 86 88  1  0
 86 89  1  0
 87 85  2  0
 90 65  1  0
 90 91  1  0
 92 90  1  0
M  ISO  4  12 101  13 101  55 100  63 100
M  END
>  <TORSDO>  (49) 
F 19

>  <SCORE>  (49) 
-4.824

>  <name>  (49) 
48

>  <ligand_id>  (49) 
48

>  <original_smiles>  (49) 
[H]c1c([H])c([H])c2c(c1[H])C([H])([H])C([H])([H])C([H])([H])C2([H])N([H])C(=O)C1([H])N(C(=O)C([H])(N([H])C(=O)C([H])(N([H])C([H])([H])[H])C([H])([H])[H])C(C([H])([H])[H])(C([H])([H])[H])C([H])([H])[H])C([H])([H])c2c([H])c(OC([H])([H])C3([H])C([H])([H])C3([H])c3c([H])c(Cl)c(C([H])([H])[H])c(C([H])([H])N([H])C(=O)N4C([H])([H])C([H])([H])C([H])([H])C([H])(n5nc(-c6c([H])c([H])c(Oc7c([H])c([H])c(F)c([H])c7F)c([H])c6[H])c(C(=O)N([H])[H])c5N([H])[H])C4([H])[H])c3[H])c([H])c([H])c2C1([H])[H]

>  <smiles>  (49) 
[H]c1c([H])c([H])c2c(c1[H])C([H])([H])C([H])([H])C([H])([H])C2([H])N([H])C(=O)C1([H])N(C(=O)C([H])(N([H])C(=O)C([H])(N([H])C([H])([H])[H])C([H])([H])[H])C(C([H])([H])[H])(C([H])([H])[H])C([H])([H])[H])C([H])([H])c2c([H])c(OC([H])([H])C3([H])C([H])([H])C3([H])c3c([H])c(Cl)c(C([H])([H])[H])c(C([H])([H])N([H])C(=O)N4C([H])([H])C([H])([H])C([H])([H])C([H])(n5nc(-c6c([H])c([H])c(Oc7c([H])c([H])c(F)c([H])c7F)c([H])c6[H])c(C(=O)N([H])[H])c5N([H])[H])C4([H])[H])c3[H])c([H])c([H])c2C1([H])[H]

$$$$
49:0:0
     RDKit          3D

 97106  0  0  1  0  0  0  0  0999 V2000
  -28.4460  -21.1860   21.0930 C   0  0  0  0  0  2  0  0  0  0  0  0
  -28.7020  -22.6900   21.5150 C   0  0  0  0  0  2  0  0  0  0  0  0
  -29.6780  -21.4540   19.0700 C   0  0  0  0  0  2  0  0  0  0  0  0
  -29.5730  -20.4400   20.2770 C   0  0  0  0  0  3  0  0  0  0  0  0
  -29.1290  -23.7750   20.4490 C   0  0  0  0  0  3  0  0  0  0  0  0
  -30.0200  -22.9970   19.3690 C   0  0  1  0  0  0  0  0  0  0  0  0
  -31.4970  -23.0470   19.8410 C   0  0  0  0  0  1  0  0  0  0  0  0
  -29.9800  -23.7610   18.0360 C   0  0  0  0  0  1  0  0  0  0  0  0
  -28.0560  -24.9690   20.0620 C   0  0  0  0  0  2  0  0  0  0  0  0
  -28.3130  -26.4620   20.2200 O   0  0  0  0  0  0  0  0  0  0  0  0
  -24.6150  -31.9550   23.2320 C   0  0  0  0  0  0  0  0  0  0  0  0
  -27.2260  -27.3810   20.1350 C   0  0  0  0  0  0  0  0  0  0  0  0
  -23.4210  -30.5810   21.5670 C   0  0  0  0  0  3  0  0  0  0  0  0
  -24.8760  -29.0510   20.1170 C   0  0  0  0  0  0  0  0  0  0  0  0
  -25.9640  -30.8940   21.3910 C   0  0  0  0  0  2  0  0  0  0  0  0
  -26.0480  -29.5170   20.7260 C   0  0  0  0  0  0  0  0  0  0  0  0
  -27.2250  -28.6970   20.7190 C   0  0  0  0  0  3  0  0  0  0  0  0
  -26.0320  -26.9930   19.4870 C   0  0  0  0  0  3  0  0  0  0  0  0
  -24.8760  -27.8000   19.4820 C   0  0  0  0  0  3  0  0  0  0  0  0
  -23.6400  -29.9260   20.1770 C   0  0  0  0  0  2  0  0  0  0  0  0
  -24.6860  -31.1610   22.1200 N   0  0  0  0  0  0  0  0  0  0  0  0
  -23.5290  -32.2190   23.7690 O   0  0  0  0  0  0  0  0  0  0  0  0
  -22.7540  -29.5500   22.5120 C   0  0  0  0  0  0  0  0  0  0  0  0
  -21.4330  -29.3530   22.3630 N   0  0  0  0  0  0  0  0  0  0  0  0
  -23.4280  -28.9310   23.3400 O   0  0  0  0  0  0  0  0  0  0  0  0
  -20.9500  -29.9050   21.6680 H   0  0  0  0  0  0  0  0  0  0  0  0
  -18.0670  -28.0880   22.7950 C   0  0  0  0  0  0  0  0  0  0  0  0
  -20.6160  -28.3960   23.1120 C   0  0  0  0  0  3  0  0  0  0  0  0
  -20.7550  -26.9700   22.5290 C   0  0  0  0  0  2  0  0  0  0  0  0
  -19.6760  -26.6330   21.4940 C   0  0  0  0  0  2  0  0  0  0  0  0
  -18.2810  -26.7470   22.1140 C   0  0  0  0  0  2  0  0  0  0  0  0
  -19.1640  -28.8700   23.2500 C   0  0  0  0  0  0  0  0  0  0  0  0
  -18.9100  -30.1240   23.8460 C   0  0  0  0  0  3  0  0  0  0  0  0
  -17.5910  -30.5950   23.9980 C   0  0  0  0  0  3  0  0  0  0  0  0
  -16.5100  -29.8120   23.5570 C   0  0  0  0  0  3  0  0  0  0  0  0
  -16.7490  -28.5610   22.9610 C   0  0  0  0  0  3  0  0  0  0  0  0
  -25.8920  -32.5860   23.8660 C   0  0  0  0  0  3  0  0  0  0  0  0
  -25.5850  -33.9870   24.1960 N   0  0  0  0  0  0  0  0  0  0  0  0
  -25.9030  -35.0390   23.4300 C   0  0  0  0  0  0  0  0  0  0  0  0
  -26.5550  -34.9320   22.3880 O   0  0  0  0  0  0  0  0  0  0  0  0
  -25.0060  -34.1410   25.0100 H   0  0  0  0  0  0  0  0  0  0  0  0
  -24.1610  -36.8250   23.1060 C   0  0  0  0  0  1  0  0  0  0  0  0
  -25.4240  -36.4290   23.8900 C   0  0  0  0  0  3  0  0  0  0  0  0
  -27.5650  -37.3370   24.6780 C   0  0  0  0  0  1  0  0  0  0  0  0
  -26.4510  -37.4860   23.7450 N   0  0  0  0  0  0  0  0  0  0  0  0
  -26.0440  -38.4070   23.8830 H   0  0  0  0  0  0  0  0  0  0  0  0
  -26.3860  -31.8160   25.1510 C   0  0  1  0  0  0  0  0  0  0  0  0
  -25.2750  -31.5750   26.2000 C   0  0  0  0  0  1  0  0  0  0  0  0
  -26.9760  -30.4400   24.7650 C   0  0  0  0  0  1  0  0  0  0  0  0
  -27.5270  -32.6070   25.8320 C   0  0  0  0  0  1  0  0  0  0  0  0
  -29.2980  -18.8020   20.0600 C   0  0  0  0  0  3  0  0  0  0  0  0
  -28.7360  -18.2840   21.3180 N   0  0  0  0  0  4  0  0  0  0  0  0
  -29.4310  -18.3010   22.0460 H   0  0  0  0  0  0  0  0  0  0  0  0
  -28.4230  -17.3390   21.2120 H   0  0  0  0  0  0  0  0  0  0  0  0
  -27.9540  -18.8480   21.6030 H   0  0  0  0  0  0  0  0  0  0  0  0
  -30.3790  -17.6530   19.5600 C   0  0  0  0  0  3  0  0  0  0  0  0
  -30.8120  -15.0000   19.7970 C   0  0  0  0  0  0  0  0  0  0  0  0
  -30.6170  -12.6480   18.9500 C   0  0  0  0  0  2  0  0  0  0  0  0
  -29.6150  -12.5900   17.7760 C   0  0  0  0  0  2  0  0  0  0  0  0
  -28.1780  -12.3940   18.2970 C   0  0  0  0  0  2  0  0  0  0  0  0
  -27.8300  -13.3460   19.4720 C   0  0  0  0  0  3  0  0  0  0  0  0
  -28.9550  -13.4010   20.5280 C   0  0  0  0  0  2  0  0  0  0  0  0
  -30.1950  -13.7640   19.8290 N   0  0  0  0  0  0  0  0  0  0  0  0
  -32.0070  -15.0600   19.5170 O   0  0  0  0  0  0  0  0  0  0  0  0
  -30.0270  -16.1600   19.8370 N   0  0  0  0  0  0  0  0  0  0  0  0
  -29.0440  -15.9470   19.8710 H   0  0  0  0  0  0  0  0  0  0  0  0
  -25.5220  -13.9070   20.4450 C   0  0  0  0  0  0  0  0  0  0  0  0
  -24.4800  -13.1230   20.8580 C   0  0  0  0  0  0  0  0  0  0  0  0
  -24.9200  -11.7710   20.7130 C   0  0  0  0  0  0  0  0  0  0  0  0
  -26.5290  -13.0350   20.0640 N   0  0  0  0  0  0  0  0  0  0  0  0
  -26.1820  -11.7430   20.2940 N   0  0  0  0  0  0  0  0  0  0  0  0
  -24.1930  -10.5070   20.8890 C   0  0  0  0  0  0  0  0  0  0  0  0
  -24.6040   -9.5450   21.8360 C   0  0  0  0  0  3  0  0  0  0  0  0
  -23.8750   -8.3460   22.0020 C   0  0  0  0  0  3  0  0  0  0  0  0
  -22.7190   -8.1020   21.2210 C   0  0  0  0  0  0  0  0  0  0  0  0
  -22.3280   -9.0530   20.2650 C   0  0  0  0  0  3  0  0  0  0  0  0
  -23.0580  -10.2420   20.0960 C   0  0  0  0  0  3  0  0  0  0  0  0
  -21.9680   -6.9540   21.2930 O   0  0  0  0  0  0  0  0  0  0  0  0
  -21.7760   -6.2920   22.4800 C   0  0  0  0  0  0  0  0  0  0  0  0
  -21.1500   -6.9100   23.5860 C   0  0  0  0  0  3  0  0  0  0  0  0
  -20.9140   -6.1730   24.7620 C   0  0  0  0  0  3  0  0  0  0  0  0
  -21.2880   -4.8180   24.8350 C   0  0  0  0  0  0  0  0  0  0  0  0
  -21.9060   -4.2010   23.7340 C   0  0  0  0  0  3  0  0  0  0  0  0
  -22.1450   -4.9370   22.5590 C   0  0  0  0  0  0  0  0  0  0  0  0
  -22.7220   -4.3310   21.4930 F   0  0  0  0  0  0  0  0  0  0  0  0
  -21.0520   -4.1070   25.9630 F   0  0  0  0  0  0  0  0  0  0  0  0
  -23.1140  -13.5980   21.2630 C   0  0  0  0  0  0  0  0  0  0  0  0
  -22.4380  -12.8610   22.1390 N   0  0  0  0  0  0  0  0  0  0  0  0
  -22.6560  -14.6580   20.8370 O   0  0  0  0  0  0  0  0  0  0  0  0
  -22.8190  -12.0040   22.5140 H   0  0  0  0  0  0  0  0  0  0  0  0
  -21.5240  -13.1620   22.4470 H   0  0  0  0  0  0  0  0  0  0  0  0
  -25.6890  -15.2830   20.3300 N   0  0  0  0  0  0  0  0  0  0  0  0
  -24.9270  -15.9180   20.5390 H   0  0  0  0  0  0  0  0  0  0  0  0
  -26.4350  -15.7220   19.8070 H   0  0  0  0  0  0  0  0  0  0  0  0
  -31.7600  -18.9400   17.6800 C   0  0  0  0  0  2  0  0  0  0  0  0
  -32.0640  -17.4840   17.4740 C   0  0  0  0  0  2  0  0  0  0  0  0
  -30.7360  -17.8990   18.0890 C   0  0  0  0  0  3  0  0  0  0  0  0
  1  2  1  0
  3  6  1  0
  3  4  1  0
  4 51  1  0
  4  1  1  0
  5  9  1  0
  5  2  1  0
  6  7  1  1
  6  5  1  0
  8  6  1  0
  9 10  1  0
 11 22  2  0
 12 10  1  0
 12 17  1  0
 13 21  1  0
 13 23  1  0
 14 20  1  0
 14 16  1  0
 15 21  1  0
 16 15  1  0
 17 16  2  0
 18 12  2  0
 19 18  1  0
 19 14  2  0
 20 13  1  0
 21 11  1  0
 23 25  2  0
 24 23  1  0
 26 24  1  0
 27 36  2  0
 27 32  1  0
 28 24  1  0
 28 32  1  0
 29 28  1  0
 30 31  1  0
 30 29  1  0
 31 27  1  0
 32 33  2  0
 33 34  1  0
 35 34  2  0
 36 35  1  0
 37 11  1  0
 37 38  1  0
 37 47  1  0
 38 41  1  0
 39 43  1  0
 39 38  1  0
 40 39  2  0
 43 42  1  0
 45 46  1  0
 45 43  1  0
 45 44  1  0
 47 50  1  1
 47 48  1  0
 49 47  1  0
 51 52  1  0
 52 55  1  0
 52 53  1  0
 54 52  1  0
 56 65  1  0
 56 51  1  0
 57 63  1  0
 57 65  1  0
 58 63  1  0
 59 60  1  0
 59 58  1  0
 61 60  1  0
 61 70  1  0
 61 62  1  0
 63 62  1  0
 64 57  2  0
 65 66  1  0
 67 68  2  0
 68 87  1  0
 69 68  1  0
 69 72  1  0
 70 71  1  0
 70 67  1  0
 71 69  2  0
 72 73  1  0
 73 74  2  0
 75 78  1  0
 75 74  1  0
 76 75  2  0
 77 76  1  0
 77 72  2  0
 78 79  1  0
 79 84  2  0
 79 80  1  0
 80 81  2  0
 81 82  1  0
 82 86  1  0
 83 82  2  0
 84 83  1  0
 85 84  1  0
 87 88  1  0
 88 91  1  0
 88 90  1  0
 89 87  2  0
 92 67  1  0
 92 93  1  0
 94 92  1  0
 95 97  1  0
 96 95  1  0
 96 97  1  0
 97 56  1  0
M  ISO  4   9 101  10 101  57 100  65 100
M  END
>  <TORSDO>  (50) 
F 21

>  <SCORE>  (50) 
-13.308

>  <name>  (50) 
49

>  <ligand_id>  (50) 
49

>  <original_smiles>  (50) 
[H]c1c([H])c([H])c2c(c1[H])C([H])([H])C([H])([H])C([H])([H])C2([H])N([H])C(=O)C1([H])N(C(=O)C([H])(N([H])C(=O)C([H])(N([H])C([H])([H])[H])C([H])([H])[H])C(C([H])([H])[H])(C([H])([H])[H])C([H])([H])[H])C([H])([H])c2c([H])c(OC([H])([H])C3([H])C([H])([H])C([H])([H])C([H])(C([H])(C([H])(N([H])C(=O)N4C([H])([H])C([H])([H])C([H])([H])C([H])(n5nc(-c6c([H])c([H])c(Oc7c([H])c([H])c(F)c([H])c7F)c([H])c6[H])c(C(=O)N([H])[H])c5N([H])[H])C4([H])[H])C4([H])C([H])([H])C4([H])[H])[N+]([H])([H])[H])C([H])([H])C3(C([H])([H])[H])C([H])([H])[H])c([H])c([H])c2C1([H])[H]

>  <smiles>  (50) 
[H]c1c([H])c([H])c2c(c1[H])C([H])([H])C([H])([H])C([H])([H])C2([H])N([H])C(=O)C1([H])N(C(=O)C([H])(N([H])C(=O)C([H])(N([H])C([H])([H])[H])C([H])([H])[H])C(C([H])([H])[H])(C([H])([H])[H])C([H])([H])[H])C([H])([H])c2c([H])c(OC([H])([H])C3([H])C([H])([H])C([H])([H])C([H])(C([H])(C([H])(N([H])C(=O)N4C([H])([H])C([H])([H])C([H])([H])C([H])(n5nc(-c6c([H])c([H])c(Oc7c([H])c([H])c(F)c([H])c7F)c([H])c6[H])c(C(=O)N([H])[H])c5N([H])[H])C4([H])[H])C4([H])C([H])([H])C4([H])[H])[N+]([H])([H])[H])C([H])([H])C3(C([H])([H])[H])C([H])([H])[H])c([H])c([H])c2C1([H])[H]

$$$$
50:0:0
     RDKit          3D

 94103  0  0  1  0  0  0  0  0999 V2000
  -28.1030  -21.5980   21.7150 C   0  0  0  0  0  2  0  0  0  0  0  0
  -27.3810  -22.9580   21.5540 C   0  0  0  0  0  2  0  0  0  0  0  0
  -28.7920  -21.2640   20.3910 C   0  0  0  0  0  3  0  0  0  0  0  0
  -28.0250  -23.7900   20.4080 C   0  0  0  0  0  3  0  0  0  0  0  0
  -29.1740  -22.7740   19.8950 C   0  0  1  0  0  0  0  0  0  0  0  0
  -30.5490  -23.2940   20.3560 C   0  0  0  0  0  1  0  0  0  0  0  0
  -29.1920  -22.7800   18.3550 C   0  0  0  0  0  1  0  0  0  0  0  0
  -31.1370  -20.1890   20.9000 C   0  0  0  0  0  3  0  0  0  0  0  0
  -29.4140  -18.6080   20.3730 C   0  0  0  0  0  3  0  0  0  0  0  0
  -29.7910  -20.0080   20.5280 C   0  0  0  0  0  0  0  0  0  0  0  0
  -32.0100  -19.0930   21.0110 C   0  0  0  0  0  0  0  0  0  0  0  0
  -30.3510  -17.5010   20.5240 C   0  0  0  0  0  0  0  0  0  0  0  0
  -33.4710  -19.3030   21.3490 C   0  0  0  0  0  1  0  0  0  0  0  0
  -31.6310  -17.8120   20.8270 N   0  0  0  0  0  0  0  0  0  0  0  0
  -30.7450  -14.9320   20.2330 C   0  0  0  0  0  0  0  0  0  0  0  0
  -30.5470  -12.6260   19.2830 C   0  0  0  0  0  2  0  0  0  0  0  0
  -29.5920  -12.6470   18.0710 C   0  0  0  0  0  2  0  0  0  0  0  0
  -28.1330  -12.4610   18.5310 C   0  0  0  0  0  2  0  0  0  0  0  0
  -27.7580  -13.3850   19.7230 C   0  0  0  0  0  3  0  0  0  0  0  0
  -28.8350  -13.3590   20.8300 C   0  0  0  0  0  2  0  0  0  0  0  0
  -30.1140  -13.7060   20.2000 N   0  0  0  0  0  0  0  0  0  0  0  0
  -31.9270  -14.9940   19.8840 O   0  0  0  0  0  0  0  0  0  0  0  0
  -29.9660  -16.0740   20.4120 N   0  0  0  0  0  0  0  0  0  0  0  0
  -28.9800  -15.8920   20.4960 H   0  0  0  0  0  0  0  0  0  0  0  0
  -25.3940  -13.9600   20.5320 C   0  0  0  0  0  0  0  0  0  0  0  0
  -24.3390  -13.1800   20.9150 C   0  0  0  0  0  0  0  0  0  0  0  0
  -24.7970  -11.8290   20.8380 C   0  0  0  0  0  0  0  0  0  0  0  0
  -26.4280  -13.0860   20.2430 N   0  0  0  0  0  0  0  0  0  0  0  0
  -26.0790  -11.7960   20.4890 N   0  0  0  0  0  0  0  0  0  0  0  0
  -24.0720  -10.5640   21.0150 C   0  0  0  0  0  0  0  0  0  0  0  0
  -24.5010   -9.5900   21.9440 C   0  0  0  0  0  3  0  0  0  0  0  0
  -23.7750   -8.3920   22.1100 C   0  0  0  0  0  3  0  0  0  0  0  0
  -22.6060   -8.1580   21.3470 C   0  0  0  0  0  0  0  0  0  0  0  0
  -22.1960   -9.1210   20.4090 C   0  0  0  0  0  3  0  0  0  0  0  0
  -22.9220  -10.3110   20.2410 C   0  0  0  0  0  3  0  0  0  0  0  0
  -21.8520   -7.0110   21.4240 O   0  0  0  0  0  0  0  0  0  0  0  0
  -21.7620   -6.2850   22.5850 C   0  0  0  0  0  0  0  0  0  0  0  0
  -21.2530   -6.8460   23.7760 C   0  0  0  0  0  3  0  0  0  0  0  0
  -21.1130   -6.0440   24.9270 C   0  0  0  0  0  3  0  0  0  0  0  0
  -21.4710   -4.6840   24.8860 C   0  0  0  0  0  0  0  0  0  0  0  0
  -21.9720   -4.1220   23.6990 C   0  0  0  0  0  3  0  0  0  0  0  0
  -22.1150   -4.9210   22.5510 C   0  0  0  0  0  0  0  0  0  0  0  0
  -22.5790   -4.3700   21.4020 F   0  0  0  0  0  0  0  0  0  0  0  0
  -21.3290   -3.9110   25.9890 F   0  0  0  0  0  0  0  0  0  0  0  0
  -22.9510  -13.6550   21.2350 C   0  0  0  0  0  0  0  0  0  0  0  0
  -22.2360  -12.9350   22.0920 N   0  0  0  0  0  0  0  0  0  0  0  0
  -22.5100  -14.7020   20.7620 O   0  0  0  0  0  0  0  0  0  0  0  0
  -22.6060  -12.0910   22.5020 H   0  0  0  0  0  0  0  0  0  0  0  0
  -21.3070  -13.2400   22.3470 H   0  0  0  0  0  0  0  0  0  0  0  0
  -25.5510  -15.3350   20.3810 N   0  0  0  0  0  0  0  0  0  0  0  0
  -24.7740  -15.9710   20.5260 H   0  0  0  0  0  0  0  0  0  0  0  0
  -26.3610  -15.7860   19.9790 H   0  0  0  0  0  0  0  0  0  0  0  0
  -28.2530  -25.3410   20.8770 C   0  0  0  0  0  2  0  0  0  0  0  0
  -28.2520  -26.5690   20.0290 O   0  0  0  0  0  0  0  0  0  0  0  0
  -24.5710  -31.9690   23.2100 C   0  0  0  0  0  0  0  0  0  0  0  0
  -27.1420  -27.4290   20.0780 C   0  0  0  0  0  0  0  0  0  0  0  0
  -23.3420  -30.5730   21.5870 C   0  0  0  0  0  3  0  0  0  0  0  0
  -24.7720  -29.0330   20.1220 C   0  0  0  0  0  0  0  0  0  0  0  0
  -25.8750  -30.9080   21.3480 C   0  0  0  0  0  2  0  0  0  0  0  0
  -25.9510  -29.5300   20.6920 C   0  0  0  0  0  0  0  0  0  0  0  0
  -27.1440  -28.7410   20.6540 C   0  0  0  0  0  3  0  0  0  0  0  0
  -25.9410  -26.9830   19.4940 C   0  0  0  0  0  3  0  0  0  0  0  0
  -24.7680  -27.7660   19.5130 C   0  0  0  0  0  3  0  0  0  0  0  0
  -23.5310  -29.9030   20.2000 C   0  0  0  0  0  2  0  0  0  0  0  0
  -24.6160  -31.1690   22.1040 N   0  0  0  0  0  0  0  0  0  0  0  0
  -23.4980  -32.2350   23.7700 O   0  0  0  0  0  0  0  0  0  0  0  0
  -22.7050  -29.5470   22.5570 C   0  0  0  0  0  0  0  0  0  0  0  0
  -21.3840  -29.3360   22.4350 N   0  0  0  0  0  0  0  0  0  0  0  0
  -23.4010  -28.9430   23.3770 O   0  0  0  0  0  0  0  0  0  0  0  0
  -20.8800  -29.8770   21.7460 H   0  0  0  0  0  0  0  0  0  0  0  0
  -18.0430  -28.0420   22.9370 C   0  0  0  0  0  0  0  0  0  0  0  0
  -20.5900  -28.3810   23.2120 C   0  0  0  0  0  3  0  0  0  0  0  0
  -20.7370  -26.9480   22.6500 C   0  0  0  0  0  2  0  0  0  0  0  0
  -19.6490  -26.5830   21.6360 C   0  0  0  0  0  2  0  0  0  0  0  0
  -18.2610  -26.6920   22.2740 C   0  0  0  0  0  2  0  0  0  0  0  0
  -19.1360  -28.8420   23.3620 C   0  0  0  0  0  0  0  0  0  0  0  0
  -18.8770  -30.1020   23.9420 C   0  0  0  0  0  3  0  0  0  0  0  0
  -17.5560  -30.5660   24.0980 C   0  0  0  0  0  3  0  0  0  0  0  0
  -16.4770  -29.7640   23.6880 C   0  0  0  0  0  3  0  0  0  0  0  0
  -16.7210  -28.5030   23.1150 C   0  0  0  0  0  3  0  0  0  0  0  0
  -25.8630  -32.6070   23.8090 C   0  0  0  0  0  3  0  0  0  0  0  0
  -25.5550  -34.0040   24.1450 N   0  0  0  0  0  0  0  0  0  0  0  0
  -25.8850  -35.0600   23.3910 C   0  0  0  0  0  0  0  0  0  0  0  0
  -26.5490  -34.9600   22.3560 O   0  0  0  0  0  0  0  0  0  0  0  0
  -24.9660  -34.1570   24.9510 H   0  0  0  0  0  0  0  0  0  0  0  0
  -24.1690  -36.8650   23.0400 C   0  0  0  0  0  1  0  0  0  0  0  0
  -25.4020  -36.4460   23.8560 C   0  0  0  0  0  3  0  0  0  0  0  0
  -27.5330  -37.3140   24.7140 C   0  0  0  0  0  1  0  0  0  0  0  0
  -26.4410  -37.4950   23.7610 N   0  0  0  0  0  0  0  0  0  0  0  0
  -26.0380  -38.4170   23.9110 H   0  0  0  0  0  0  0  0  0  0  0  0
  -26.4040  -31.8390   25.0770 C   0  0  1  0  0  0  0  0  0  0  0  0
  -25.3250  -31.5790   26.1550 C   0  0  0  0  0  1  0  0  0  0  0  0
  -27.0050  -30.4720   24.6730 C   0  0  0  0  0  1  0  0  0  0  0  0
  -27.5490  -32.6480   25.7310 C   0  0  0  0  0  1  0  0  0  0  0  0
  2  1  1  0
  3 10  1  0
  3  1  1  0
  4 53  1  0
  4  2  1  0
  5  6  1  1
  5  3  1  0
  5  4  1  0
  7  5  1  0
  8 11  1  0
  9 12  2  0
  9 10  1  0
 10  8  2  0
 11 13  1  0
 12 14  1  0
 14 11  2  0
 15 23  1  0
 16 21  1  0
 17 18  1  0
 17 16  1  0
 19 18  1  0
 19 28  1  0
 19 20  1  0
 21 15  1  0
 21 20  1  0
 22 15  2  0
 23 24  1  0
 23 12  1  0
 25 26  2  0
 26 45  1  0
 27 26  1  0
 27 30  1  0
 28 29  1  0
 28 25  1  0
 29 27  2  0
 30 31  1  0
 31 32  2  0
 33 36  1  0
 33 32  1  0
 34 33  2  0
 35 34  1  0
 35 30  2  0
 36 37  1  0
 37 38  1  0
 38 39  2  0
 40 39  1  0
 40 44  1  0
 41 40  2  0
 42 37  2  0
 42 41  1  0
 43 42  1  0
 45 46  1  0
 46 49  1  0
 46 48  1  0
 47 45  2  0
 50 51  1  0
 50 25  1  0
 52 50  1  0
 54 56  1  0
 54 53  1  0
 55 66  2  0
 56 61  1  0
 57 65  1  0
 57 67  1  0
 58 64  1  0
 58 60  1  0
 59 65  1  0
 60 59  1  0
 61 60  2  0
 62 63  1  0
 62 56  2  0
 63 58  2  0
 64 57  1  0
 65 55  1  0
 67 69  2  0
 68 67  1  0
 70 68  1  0
 71 80  2  0
 71 76  1  0
 72 68  1  0
 72 76  1  0
 73 72  1  0
 74 75  1  0
 74 73  1  0
 75 71  1  0
 76 77  2  0
 77 78  1  0
 79 78  2  0
 80 79  1  0
 81 55  1  0
 81 82  1  0
 81 91  1  0
 82 85  1  0
 83 87  1  0
 83 82  1  0
 84 83  2  0
 87 86  1  0
 89 87  1  0
 89 90  1  0
 89 88  1  0
 91 94  1  1
 91 92  1  0
 93 91  1  0
M  ISO  4  15 100  23 100  53 101  54 101
M  END
>  <TORSDO>  (51) 
F 18

>  <SCORE>  (51) 
-14.864

>  <name>  (51) 
50

>  <ligand_id>  (51) 
50

>  <original_smiles>  (51) 
[H]c1c([H])c([H])c2c(c1[H])C([H])([H])C([H])([H])C([H])([H])C2([H])N([H])C(=O)C1([H])N(C(=O)C([H])(N([H])C(=O)C([H])(N([H])C([H])([H])[H])C([H])([H])[H])C(C([H])([H])[H])(C([H])([H])[H])C([H])([H])[H])C([H])([H])c2c([H])c(OC([H])([H])C3([H])C([H])([H])C([H])([H])C([H])(c4c([H])c(N([H])C(=O)N5C([H])([H])C([H])([H])C([H])([H])C([H])(n6nc(-c7c([H])c([H])c(Oc8c([H])c([H])c(F)c([H])c8F)c([H])c7[H])c(C(=O)N([H])[H])c6N([H])[H])C5([H])[H])nc(C([H])([H])[H])c4[H])C3(C([H])([H])[H])C([H])([H])[H])c([H])c([H])c2C1([H])[H]

>  <smiles>  (51) 
[H]c1c([H])c([H])c2c(c1[H])C([H])([H])C([H])([H])C([H])([H])C2([H])N([H])C(=O)C1([H])N(C(=O)C([H])(N([H])C(=O)C([H])(N([H])C([H])([H])[H])C([H])([H])[H])C(C([H])([H])[H])(C([H])([H])[H])C([H])([H])[H])C([H])([H])c2c([H])c(OC([H])([H])C3([H])C([H])([H])C([H])([H])C([H])(c4c([H])c(N([H])C(=O)N5C([H])([H])C([H])([H])C([H])([H])C([H])(n6nc(-c7c([H])c([H])c(Oc8c([H])c([H])c(F)c([H])c8F)c([H])c7[H])c(C(=O)N([H])[H])c6N([H])[H])C5([H])[H])nc(C([H])([H])[H])c4[H])C3(C([H])([H])[H])C([H])([H])[H])c([H])c([H])c2C1([H])[H]

$$$$
51:0:0
     RDKit          3D

 91100  0  0  1  0  0  0  0  0999 V2000
  -28.7730  -21.4220   18.5140 C   0  0  0  0  0  2  0  0  0  0  0  0
  -28.2780  -22.0550   19.7970 C   0  0  0  0  0  3  0  0  0  0  0  0
  -28.4220  -20.4290   19.6020 C   0  0  1  0  0  0  0  0  0  0  0  0
  -27.0730  -19.7050   19.5430 C   0  0  0  0  0  1  0  0  0  0  0  0
  -29.4400  -18.3570   20.9110 C   0  0  0  0  0  2  0  0  0  0  0  0
  -29.7760  -18.2740   18.9310 C   0  0  0  0  0  2  0  0  0  0  0  0
  -30.3190  -17.3670   20.0820 C   0  0  0  0  0  3  0  0  0  0  0  0
  -29.6070  -19.4450   19.8760 N   0  0  1  0  0  4  0  0  0  0  0  0
  -30.4850  -19.9240   20.0060 H   0  0  0  0  0  0  0  0  0  0  0  0
  -30.7670  -14.7220   19.8990 C   0  0  0  0  0  0  0  0  0  0  0  0
  -30.5320  -12.4150   18.9530 C   0  0  0  0  0  2  0  0  0  0  0  0
  -29.5200  -12.4510   17.7880 C   0  0  0  0  0  2  0  0  0  0  0  0
  -28.0810  -12.2720   18.3110 C   0  0  0  0  0  2  0  0  0  0  0  0
  -27.7720  -13.1840   19.5280 C   0  0  0  0  0  3  0  0  0  0  0  0
  -28.8990  -13.1300   20.5830 C   0  0  0  0  0  2  0  0  0  0  0  0
  -30.1520  -13.4870   19.9030 N   0  0  0  0  0  0  0  0  0  0  0  0
  -31.9330  -14.8240   19.5130 O   0  0  0  0  0  0  0  0  0  0  0  0
  -29.9900  -15.8540   20.1310 N   0  0  0  0  0  0  0  0  0  0  0  0
  -29.0410  -15.6320   20.3930 H   0  0  0  0  0  0  0  0  0  0  0  0
  -25.4600  -13.7900   20.4620 C   0  0  0  0  0  0  0  0  0  0  0  0
  -24.4070  -13.0220   20.8790 C   0  0  0  0  0  0  0  0  0  0  0  0
  -24.8360  -11.6650   20.7590 C   0  0  0  0  0  0  0  0  0  0  0  0
  -26.4630  -12.9010   20.1090 N   0  0  0  0  0  0  0  0  0  0  0  0
  -26.0980  -11.6150   20.3510 N   0  0  0  0  0  0  0  0  0  0  0  0
  -24.0960  -10.4100   20.9530 C   0  0  0  0  0  0  0  0  0  0  0  0
  -24.5240   -9.4360   21.8820 C   0  0  0  0  0  3  0  0  0  0  0  0
  -23.7870   -8.2470   22.0630 C   0  0  0  0  0  3  0  0  0  0  0  0
  -22.6060   -8.0220   21.3150 C   0  0  0  0  0  0  0  0  0  0  0  0
  -22.1980   -8.9840   20.3740 C   0  0  0  0  0  3  0  0  0  0  0  0
  -22.9360  -10.1650   20.1920 C   0  0  0  0  0  3  0  0  0  0  0  0
  -21.8420   -6.8830   21.4040 O   0  0  0  0  0  0  0  0  0  0  0  0
  -21.7140   -6.1940   22.5820 C   0  0  0  0  0  0  0  0  0  0  0  0
  -21.1270   -6.7750   23.7270 C   0  0  0  0  0  3  0  0  0  0  0  0
  -20.9540   -6.0070   24.8960 C   0  0  0  0  0  3  0  0  0  0  0  0
  -21.3550   -4.6570   24.9190 C   0  0  0  0  0  0  0  0  0  0  0  0
  -21.9340   -4.0760   23.7780 C   0  0  0  0  0  3  0  0  0  0  0  0
  -22.1120   -4.8410   22.6130 C   0  0  0  0  0  0  0  0  0  0  0  0
  -22.6500   -4.2690   21.5080 F   0  0  0  0  0  0  0  0  0  0  0  0
  -21.1820   -3.9170   26.0390 F   0  0  0  0  0  0  0  0  0  0  0  0
  -23.0440  -13.5170   21.2700 C   0  0  0  0  0  0  0  0  0  0  0  0
  -22.3680  -12.8110   22.1710 N   0  0  0  0  0  0  0  0  0  0  0  0
  -22.5880  -14.5630   20.8090 O   0  0  0  0  0  0  0  0  0  0  0  0
  -22.7480  -11.9650   22.5660 H   0  0  0  0  0  0  0  0  0  0  0  0
  -21.4560  -13.1270   22.4700 H   0  0  0  0  0  0  0  0  0  0  0  0
  -25.6400  -15.1630   20.3260 N   0  0  0  0  0  0  0  0  0  0  0  0
  -24.8860  -15.8180   20.5030 H   0  0  0  0  0  0  0  0  0  0  0  0
  -26.4440  -15.5950   19.8910 H   0  0  0  0  0  0  0  0  0  0  0  0
  -29.2980  -23.3480   21.7740 C   0  0  0  0  0  1  0  0  0  0  0  0
  -28.9770  -23.4230   20.2790 C   0  0  0  0  0  3  0  0  0  0  0  0
  -28.0730  -24.7610   19.9700 C   0  0  0  0  0  2  0  0  0  0  0  0
  -28.3180  -26.2000   20.3900 O   0  0  0  0  0  0  0  0  0  0  0  0
  -24.5440  -31.7490   23.2820 C   0  0  0  0  0  0  0  0  0  0  0  0
  -27.2430  -27.1330   20.2950 C   0  0  0  0  0  0  0  0  0  0  0  0
  -23.4000  -30.3640   21.5940 C   0  0  0  0  0  3  0  0  0  0  0  0
  -24.8980  -28.8140   20.2110 C   0  0  0  0  0  0  0  0  0  0  0  0
  -25.9530  -30.6510   21.5170 C   0  0  0  0  0  2  0  0  0  0  0  0
  -26.0520  -29.2720   20.8610 C   0  0  0  0  0  0  0  0  0  0  0  0
  -27.2260  -28.4440   20.8930 C   0  0  0  0  0  3  0  0  0  0  0  0
  -26.0650  -26.7600   19.6040 C   0  0  0  0  0  3  0  0  0  0  0  0
  -24.9120  -27.5670   19.5720 C   0  0  0  0  0  3  0  0  0  0  0  0
  -23.6650  -29.6970   20.2200 C   0  0  0  0  0  2  0  0  0  0  0  0
  -24.6490  -30.9410   22.1860 N   0  0  0  0  0  0  0  0  0  0  0  0
  -23.4400  -32.0280   23.7750 O   0  0  0  0  0  0  0  0  0  0  0  0
  -22.6930  -29.3460   22.5220 C   0  0  0  0  0  0  0  0  0  0  0  0
  -21.3720  -29.1720   22.3420 N   0  0  0  0  0  0  0  0  0  0  0  0
  -23.3350  -28.7140   23.3660 O   0  0  0  0  0  0  0  0  0  0  0  0
  -20.9130  -29.7310   21.6370 H   0  0  0  0  0  0  0  0  0  0  0  0
  -17.9630  -28.0210   22.7480 C   0  0  0  0  0  0  0  0  0  0  0  0
  -20.5200  -28.2330   23.0760 C   0  0  0  0  0  3  0  0  0  0  0  0
  -20.6110  -26.8120   22.4740 C   0  0  0  0  0  2  0  0  0  0  0  0
  -19.5250  -26.5270   21.4310 C   0  0  0  0  0  2  0  0  0  0  0  0
  -18.1320  -26.6820   22.0490 C   0  0  0  0  0  2  0  0  0  0  0  0
  -19.0850  -28.7560   23.2160 C   0  0  0  0  0  0  0  0  0  0  0  0
  -18.8730  -30.0100   23.8280 C   0  0  0  0  0  3  0  0  0  0  0  0
  -17.5730  -30.5290   23.9780 C   0  0  0  0  0  3  0  0  0  0  0  0
  -16.4660  -29.7890   23.5290 C   0  0  0  0  0  3  0  0  0  0  0  0
  -16.6620  -28.5370   22.9190 C   0  0  0  0  0  3  0  0  0  0  0  0
  -25.8010  -32.3760   23.9570 C   0  0  0  0  0  3  0  0  0  0  0  0
  -26.2340  -31.6280   25.2770 C   0  0  1  0  0  0  0  0  0  0  0  0
  -25.0790  -31.4250   26.2860 C   0  0  0  0  0  1  0  0  0  0  0  0
  -26.8230  -30.2350   24.9520 C   0  0  0  0  0  1  0  0  0  0  0  0
  -27.3550  -32.4250   25.9870 C   0  0  0  0  0  1  0  0  0  0  0  0
  -25.4980  -33.7860   24.2410 N   0  0  0  0  0  0  0  0  0  0  0  0
  -25.8230  -34.8120   23.4420 C   0  0  0  0  0  0  0  0  0  0  0  0
  -26.4790  -34.6700   22.4060 O   0  0  0  0  0  0  0  0  0  0  0  0
  -24.9170  -33.9710   25.0450 H   0  0  0  0  0  0  0  0  0  0  0  0
  -24.0720  -36.5810   23.0780 C   0  0  0  0  0  1  0  0  0  0  0  0
  -25.3460  -36.2180   23.8570 C   0  0  0  0  0  3  0  0  0  0  0  0
  -27.4960  -37.1600   24.5790 C   0  0  0  0  0  1  0  0  0  0  0  0
  -26.3670  -37.2700   23.6590 N   0  0  0  0  0  0  0  0  0  0  0  0
  -25.9570  -38.1940   23.7690 H   0  0  0  0  0  0  0  0  0  0  0  0
  1  3  1  0
  1  2  1  0
  2 49  1  0
  3  4  1  6
  3  2  1  0
  3  8  1  0
  6  8  1  0
  6  7  1  0
  7 18  1  0
  7  5  1  0
  8  9  1  1
  8  5  1  0
 10 16  1  0
 10 18  1  0
 11 16  1  0
 12 13  1  0
 12 11  1  0
 14 13  1  0
 14 23  1  0
 14 15  1  0
 16 15  1  0
 17 10  2  0
 18 19  1  0
 20 21  2  0
 21 40  1  0
 22 21  1  0
 22 25  1  0
 23 24  1  0
 23 20  1  0
 24 22  2  0
 25 26  1  0
 26 27  2  0
 28 31  1  0
 28 27  1  0
 29 28  2  0
 30 29  1  0
 30 25  2  0
 31 32  1  0
 32 37  2  0
 32 33  1  0
 33 34  2  0
 34 35  1  0
 35 39  1  0
 36 35  2  0
 37 36  1  0
 38 37  1  0
 40 41  1  0
 41 44  1  0
 41 43  1  0
 42 40  2  0
 45 20  1  0
 45 46  1  0
 47 45  1  0
 49 48  1  0
 50 49  1  0
 50 51  1  0
 52 63  2  0
 53 51  1  0
 53 58  1  0
 54 62  1  0
 54 64  1  0
 55 61  1  0
 55 57  1  0
 56 62  1  0
 57 58  2  0
 57 56  1  0
 59 53  2  0
 60 59  1  0
 60 55  2  0
 61 54  1  0
 62 52  1  0
 64 66  2  0
 65 64  1  0
 67 65  1  0
 68 77  2  0
 68 73  1  0
 69 65  1  0
 69 73  1  0
 70 69  1  0
 71 72  1  0
 71 70  1  0
 72 68  1  0
 73 74  2  0
 74 75  1  0
 76 75  2  0
 77 76  1  0
 78 52  1  0
 78 83  1  0
 78 79  1  0
 79 82  1  1
 79 80  1  0
 81 79  1  0
 83 86  1  0
 84 88  1  0
 84 83  1  0
 85 84  2  0
 88 87  1  0
 90 91  1  0
 90 88  1  0
 90 89  1  0
M  ISO  4  10 100  18 100  50 101  51 101
M  END
>  <TORSDO>  (52) 
F 19

>  <SCORE>  (52) 
-13.554

>  <name>  (52) 
51

>  <ligand_id>  (52) 
51

>  <original_smiles>  (52) 
[H]c1c([H])c([H])c2c(c1[H])C([H])([H])C([H])([H])C([H])([H])C2([H])N([H])C(=O)C1([H])N(C(=O)C([H])(N([H])C(=O)C([H])(N([H])C([H])([H])[H])C([H])([H])[H])C(C([H])([H])[H])(C([H])([H])[H])C([H])([H])[H])C([H])([H])c2c([H])c(OC([H])([H])C([H])(C([H])([H])[H])C3([H])C([H])([H])C3(C([H])([H])[H])[N+]3([H])C([H])([H])C([H])(N([H])C(=O)N4C([H])([H])C([H])([H])C([H])([H])C([H])(n5nc(-c6c([H])c([H])c(Oc7c([H])c([H])c(F)c([H])c7F)c([H])c6[H])c(C(=O)N([H])[H])c5N([H])[H])C4([H])[H])C3([H])[H])c([H])c([H])c2C1([H])[H]

>  <smiles>  (52) 
[H]c1c([H])c([H])c2c(c1[H])C([H])([H])C([H])([H])C([H])([H])C2([H])N([H])C(=O)C1([H])N(C(=O)C([H])(N([H])C(=O)C([H])(N([H])C([H])([H])[H])C([H])([H])[H])C(C([H])([H])[H])(C([H])([H])[H])C([H])([H])[H])C([H])([H])c2c([H])c(OC([H])([H])C([H])(C([H])([H])[H])C3([H])C([H])([H])C3(C([H])([H])[H])[N+]3([H])C([H])([H])C([H])(N([H])C(=O)N4C([H])([H])C([H])([H])C([H])([H])C([H])(n5nc(-c6c([H])c([H])c(Oc7c([H])c([H])c(F)c([H])c7F)c([H])c6[H])c(C(=O)N([H])[H])c5N([H])[H])C4([H])[H])C3([H])[H])c([H])c([H])c2C1([H])[H]

$$$$
52:0:0
     RDKit          3D

 92102  0  0  1  0  0  0  0  0999 V2000
  -30.2440  -21.1170   21.1130 C   0  0  0  0  0  3  0  0  0  0  0  0
  -28.6030  -19.2110   20.0530 C   0  0  0  0  0  3  0  0  0  0  0  0
  -29.8830  -18.7400   20.4610 C   0  0  0  0  0  0  0  0  0  0  0  0
  -30.6950  -19.7690   21.0310 C   0  0  0  0  0  0  0  0  0  0  0  0
  -28.9720  -21.4820   20.6320 C   0  0  0  0  0  0  0  0  0  0  0  0
  -28.1660  -20.5070   20.1340 N   0  0  0  0  0  0  0  0  0  0  0  0
  -32.2890  -19.4340   21.6090 Cl  0  0  0  0  0  0  0  0  0  0  0  0
  -30.5940  -14.7320   20.4250 C   0  0  0  0  0  0  0  0  0  0  0  0
  -30.3630  -12.4350   19.5070 C   0  0  0  0  0  2  0  0  0  0  0  0
  -29.4620  -12.4480   18.2540 C   0  0  0  0  0  2  0  0  0  0  0  0
  -27.9720  -12.3570   18.6480 C   0  0  0  0  0  2  0  0  0  0  0  0
  -27.5740  -13.2710   19.8420 C   0  0  0  0  0  3  0  0  0  0  0  0
  -28.6140  -13.2330   20.9810 C   0  0  0  0  0  2  0  0  0  0  0  0
  -29.9210  -13.5350   20.3890 N   0  0  0  0  0  0  0  0  0  0  0  0
  -31.8220  -14.7480   20.3120 O   0  0  0  0  0  0  0  0  0  0  0  0
  -30.3900  -17.0520   18.5700 C   0  0  0  0  0  2  0  0  0  0  0  0
  -29.2410  -16.1200   18.9250 C   0  0  0  0  0  2  0  0  0  0  0  0
  -30.4980  -17.3170   20.0660 C   0  0  0  0  0  3  0  0  0  0  0  0
  -29.8760  -15.9190   20.2420 N   0  0  0  0  0  0  0  0  0  0  0  0
  -25.1770  -13.8840   20.5120 C   0  0  0  0  0  0  0  0  0  0  0  0
  -24.1000  -13.1170   20.8590 C   0  0  0  0  0  0  0  0  0  0  0  0
  -24.5620  -11.7650   20.8620 C   0  0  0  0  0  0  0  0  0  0  0  0
  -26.2230  -12.9980   20.3140 N   0  0  0  0  0  0  0  0  0  0  0  0
  -25.8600  -11.7200   20.5930 N   0  0  0  0  0  0  0  0  0  0  0  0
  -23.8310  -10.5060   21.0460 C   0  0  0  0  0  0  0  0  0  0  0  0
  -24.2450   -9.5460   21.9940 C   0  0  0  0  0  3  0  0  0  0  0  0
  -23.5150   -8.3510   22.1650 C   0  0  0  0  0  3  0  0  0  0  0  0
  -22.3570   -8.1090   21.3890 C   0  0  0  0  0  0  0  0  0  0  0  0
  -21.9630   -9.0580   20.4300 C   0  0  0  0  0  3  0  0  0  0  0  0
  -22.6930  -10.2450   20.2560 C   0  0  0  0  0  3  0  0  0  0  0  0
  -21.5990   -6.9660   21.4700 O   0  0  0  0  0  0  0  0  0  0  0  0
  -21.5320   -6.2280   22.6240 C   0  0  0  0  0  0  0  0  0  0  0  0
  -21.0880   -6.7870   23.8430 C   0  0  0  0  0  3  0  0  0  0  0  0
  -20.9690   -5.9740   24.9880 C   0  0  0  0  0  3  0  0  0  0  0  0
  -21.2840   -4.6040   24.9160 C   0  0  0  0  0  0  0  0  0  0  0  0
  -21.7210   -4.0450   23.7030 C   0  0  0  0  0  3  0  0  0  0  0  0
  -21.8420   -4.8540   22.5600 C   0  0  0  0  0  0  0  0  0  0  0  0
  -22.2430   -4.3050   21.3870 F   0  0  0  0  0  0  0  0  0  0  0  0
  -21.1630   -3.8220   26.0140 F   0  0  0  0  0  0  0  0  0  0  0  0
  -22.6960  -13.5990   21.0830 C   0  0  0  0  0  0  0  0  0  0  0  0
  -21.9430  -12.9160   21.9360 N   0  0  0  0  0  0  0  0  0  0  0  0
  -22.2760  -14.6180   20.5360 O   0  0  0  0  0  0  0  0  0  0  0  0
  -22.2940  -12.0910   22.3990 H   0  0  0  0  0  0  0  0  0  0  0  0
  -20.9990  -13.2220   22.1270 H   0  0  0  0  0  0  0  0  0  0  0  0
  -25.3500  -15.2530   20.3240 N   0  0  0  0  0  0  0  0  0  0  0  0
  -24.5850  -15.9120   20.4240 H   0  0  0  0  0  0  0  0  0  0  0  0
  -26.2220  -15.6930   20.0650 H   0  0  0  0  0  0  0  0  0  0  0  0
  -29.1120  -24.2070   21.3080 C   0  0  0  0  0  2  0  0  0  0  0  0
  -27.9280  -23.9090   19.6400 C   0  0  0  0  0  2  0  0  0  0  0  0
  -28.3760  -22.9330   20.7790 C   0  0  0  0  0  3  0  0  0  0  0  0
  -27.9920  -25.0830   20.6660 C   0  0  0  0  0  3  0  0  0  0  0  0
  -28.2810  -26.4790   20.2570 O   0  0  0  0  0  0  0  0  0  0  0  0
  -24.5780  -31.8930   23.2470 C   0  0  0  0  0  0  0  0  0  0  0  0
  -27.1780  -27.3400   20.1950 C   0  0  0  0  0  0  0  0  0  0  0  0
  -23.3670  -30.4890   21.6150 C   0  0  0  0  0  3  0  0  0  0  0  0
  -24.8130  -28.9400   20.1830 C   0  0  0  0  0  0  0  0  0  0  0  0
  -25.9030  -30.8160   21.4160 C   0  0  0  0  0  2  0  0  0  0  0  0
  -25.9830  -29.4370   20.7700 C   0  0  0  0  0  0  0  0  0  0  0  0
  -27.1730  -28.6510   20.7610 C   0  0  0  0  0  3  0  0  0  0  0  0
  -25.9870  -26.8930   19.5810 C   0  0  0  0  0  3  0  0  0  0  0  0
  -24.8170  -27.6740   19.5760 C   0  0  0  0  0  3  0  0  0  0  0  0
  -23.5740  -29.8100   20.2360 C   0  0  0  0  0  2  0  0  0  0  0  0
  -24.6350  -31.0830   22.1490 N   0  0  0  0  0  0  0  0  0  0  0  0
  -23.4960  -32.1710   23.7860 O   0  0  0  0  0  0  0  0  0  0  0  0
  -22.7100  -29.4730   22.5810 C   0  0  0  0  0  0  0  0  0  0  0  0
  -21.3860  -29.2890   22.4560 N   0  0  0  0  0  0  0  0  0  0  0  0
  -23.3920  -28.8550   23.4030 O   0  0  0  0  0  0  0  0  0  0  0  0
  -20.8940  -29.8390   21.7650 H   0  0  0  0  0  0  0  0  0  0  0  0
  -18.0140  -28.0760   22.9540 C   0  0  0  0  0  0  0  0  0  0  0  0
  -20.5700  -28.3530   23.2310 C   0  0  0  0  0  3  0  0  0  0  0  0
  -20.6830  -26.9180   22.6680 C   0  0  0  0  0  2  0  0  0  0  0  0
  -19.5860  -26.5800   21.6530 C   0  0  0  0  0  2  0  0  0  0  0  0
  -18.2020  -26.7230   22.2900 C   0  0  0  0  0  2  0  0  0  0  0  0
  -19.1260  -28.8490   23.3810 C   0  0  0  0  0  0  0  0  0  0  0  0
  -18.8980  -30.1160   23.9600 C   0  0  0  0  0  3  0  0  0  0  0  0
  -17.5890  -30.6100   24.1190 C   0  0  0  0  0  3  0  0  0  0  0  0
  -16.4910  -29.8340   23.7070 C   0  0  0  0  0  3  0  0  0  0  0  0
  -16.7050  -28.5700   23.1300 C   0  0  0  0  0  3  0  0  0  0  0  0
  -25.8630  -32.5280   23.8600 C   0  0  0  0  0  3  0  0  0  0  0  0
  -26.3850  -31.7610   25.1380 C   0  0  1  0  0  0  0  0  0  0  0  0
  -25.2970  -31.5280   26.2120 C   0  0  0  0  0  1  0  0  0  0  0  0
  -26.9650  -30.3810   24.7490 C   0  0  0  0  0  1  0  0  0  0  0  0
  -27.5390  -32.5570   25.7910 C   0  0  0  0  0  1  0  0  0  0  0  0
  -25.5550  -33.9270   24.1880 N   0  0  0  0  0  0  0  0  0  0  0  0
  -25.8810  -34.9780   23.4230 C   0  0  0  0  0  0  0  0  0  0  0  0
  -26.5430  -34.8720   22.3880 O   0  0  0  0  0  0  0  0  0  0  0  0
  -24.9650  -34.0840   24.9930 H   0  0  0  0  0  0  0  0  0  0  0  0
  -24.1490  -36.7690   23.0780 C   0  0  0  0  0  1  0  0  0  0  0  0
  -25.3960  -36.3670   23.8810 C   0  0  0  0  0  3  0  0  0  0  0  0
  -27.5370  -37.2550   24.6920 C   0  0  0  0  0  1  0  0  0  0  0  0
  -26.4270  -37.4220   23.7570 N   0  0  0  0  0  0  0  0  0  0  0  0
  -26.0210  -38.3410   23.9090 H   0  0  0  0  0  0  0  0  0  0  0  0
  2  6  2  0
  2  3  1  0
  3  4  2  0
  4  1  1  0
  4  7  1  0
  5  1  2  0
  6  5  1  0
  9 14  1  0
 10 11  1  0
 10  9  1  0
 12 11  1  0
 12 23  1  0
 12 13  1  0
 14  8  1  0
 14 13  1  0
 15  8  2  0
 16 17  1  0
 16 18  1  0
 17 19  1  0
 18 19  1  0
 18  3  1  0
 19  8  1  0
 20 21  2  0
 21 22  1  0
 21 40  1  0
 22 25  1  0
 23 20  1  0
 23 24  1  0
 24 22  2  0
 25 26  1  0
 26 27  2  0
 28 31  1  0
 28 27  1  0
 29 28  2  0
 30 29  1  0
 30 25  2  0
 31 32  1  0
 32 33  1  0
 33 34  2  0
 35 34  1  0
 35 39  1  0
 36 35  2  0
 37 32  2  0
 37 36  1  0
 38 37  1  0
 40 41  1  0
 41 44  1  0
 41 43  1  0
 42 40  2  0
 45 46  1  0
 45 20  1  0
 47 45  1  0
 49 51  1  0
 49 50  1  0
 50  5  1  0
 50 48  1  0
 51 52  1  0
 51 48  1  0
 53 64  2  0
 54 52  1  0
 54 59  1  0
 55 63  1  0
 55 65  1  0
 56 62  1  0
 56 58  1  0
 57 63  1  0
 58 57  1  0
 59 58  2  0
 60 54  2  0
 61 60  1  0
 61 56  2  0
 62 55  1  0
 63 53  1  0
 65 67  2  0
 66 65  1  0
 68 66  1  0
 69 78  2  0
 69 74  1  0
 70 66  1  0
 70 74  1  0
 71 70  1  0
 72 73  1  0
 72 71  1  0
 73 69  1  0
 74 75  2  0
 75 76  1  0
 77 76  2  0
 78 77  1  0
 79 53  1  0
 79 84  1  0
 79 80  1  0
 80 83  1  1
 80 81  1  0
 82 80  1  0
 84 87  1  0
 85 89  1  0
 85 84  1  0
 86 85  2  0
 89 88  1  0
 91 89  1  0
 91 92  1  0
 91 90  1  0
M  ISO  4   8 100  19 100  51 101  52 101
M  END
>  <TORSDO>  (53) 
F 17

>  <SCORE>  (53) 
-15.148

>  <name>  (53) 
52

>  <ligand_id>  (53) 
52

>  <original_smiles>  (53) 
[H]c1nc(C2([H])C([H])([H])C([H])(Oc3c([H])c([H])c4c(c3[H])C([H])([H])N(C(=O)C([H])(N([H])C(=O)C([H])(N([H])C([H])([H])[H])C([H])([H])[H])C(C([H])([H])[H])(C([H])([H])[H])C([H])([H])[H])C([H])(C(=O)N([H])C3([H])c5c([H])c([H])c([H])c([H])c5C([H])([H])C([H])([H])C3([H])[H])C4([H])[H])C2([H])[H])c([H])c(Cl)c1C1([H])N(C(=O)N2C([H])([H])C([H])([H])C([H])([H])C([H])(n3nc(-c4c([H])c([H])c(Oc5c([H])c([H])c(F)c([H])c5F)c([H])c4[H])c(C(=O)N([H])[H])c3N([H])[H])C2([H])[H])C([H])([H])C1([H])[H]

>  <smiles>  (53) 
[H]c1nc(C2([H])C([H])([H])C([H])(Oc3c([H])c([H])c4c(c3[H])C([H])([H])N(C(=O)C([H])(N([H])C(=O)C([H])(N([H])C([H])([H])[H])C([H])([H])[H])C(C([H])([H])[H])(C([H])([H])[H])C([H])([H])[H])C([H])(C(=O)N([H])C3([H])c5c([H])c([H])c([H])c([H])c5C([H])([H])C([H])([H])C3([H])[H])C4([H])[H])C2([H])[H])c([H])c(Cl)c1C1([H])N(C(=O)N2C([H])([H])C([H])([H])C([H])([H])C([H])(n3nc(-c4c([H])c([H])c(Oc5c([H])c([H])c(F)c([H])c5F)c([H])c4[H])c(C(=O)N([H])[H])c3N([H])[H])C2([H])[H])C([H])([H])C1([H])[H]

$$$$
53:0:0
     RDKit          3D

 97106  0  0  1  0  0  0  0  0999 V2000
  -30.3770  -17.9230   21.2080 C   0  0  0  0  0  0  0  0  0  0  0  0
  -29.5790  -18.9870   21.5400 C   0  0  0  0  0  3  0  0  0  0  0  0
  -30.1950  -18.7430   18.7300 C   0  0  0  0  0  2  0  0  0  0  0  0
  -30.6940  -17.5910   19.7240 C   0  0  0  0  0  3  0  0  0  0  0  0
  -29.9350  -20.1690   19.4030 C   0  0  0  0  0  3  0  0  0  0  0  0
  -29.1770  -19.4960   22.9210 C   0  0  0  0  0  1  0  0  0  0  0  0
  -27.6140  -19.5950   20.1380 C   0  0  0  0  0  1  0  0  0  0  0  0
  -29.0060  -19.9270   20.5310 N   0  0  1  0  0  4  0  0  0  0  0  0
  -28.9320  -20.8230   20.9900 H   0  0  0  0  0  0  0  0  0  0  0  0
  -30.9910  -15.0510   19.0610 C   0  0  0  0  0  0  0  0  0  0  0  0
  -30.5950  -12.7420   18.2080 C   0  0  0  0  0  2  0  0  0  0  0  0
  -29.4900  -12.7860   17.1290 C   0  0  0  0  0  2  0  0  0  0  0  0
  -28.0890  -12.7070   17.7700 C   0  0  0  0  0  2  0  0  0  0  0  0
  -27.9210  -13.6830   18.9650 C   0  0  0  0  0  3  0  0  0  0  0  0
  -29.1200  -13.5900   19.9320 C   0  0  0  0  0  2  0  0  0  0  0  0
  -30.3350  -13.8510   19.1460 N   0  0  0  0  0  0  0  0  0  0  0  0
  -32.1130  -15.1340   18.5530 O   0  0  0  0  0  0  0  0  0  0  0  0
  -30.2730  -16.1630   19.4270 N   0  0  0  0  0  0  0  0  0  0  0  0
  -29.3370  -15.9400   19.7280 H   0  0  0  0  0  0  0  0  0  0  0  0
  -25.7530  -14.4400   20.1140 C   0  0  0  0  0  0  0  0  0  0  0  0
  -24.6860  -13.7430   20.6100 C   0  0  0  0  0  0  0  0  0  0  0  0
  -24.9940  -12.3610   20.4190 C   0  0  0  0  0  0  0  0  0  0  0  0
  -26.6490  -13.4880   19.6530 N   0  0  0  0  0  0  0  0  0  0  0  0
  -26.2080  -12.2280   19.8960 N   0  0  0  0  0  0  0  0  0  0  0  0
  -24.1810  -11.1610   20.6500 C   0  0  0  0  0  0  0  0  0  0  0  0
  -24.6510  -10.0920   21.4440 C   0  0  0  0  0  3  0  0  0  0  0  0
  -23.8430   -8.9560   21.6660 C   0  0  0  0  0  3  0  0  0  0  0  0
  -22.5510   -8.8810   21.0960 C   0  0  0  0  0  0  0  0  0  0  0  0
  -22.0970   -9.9380   20.2870 C   0  0  0  0  0  3  0  0  0  0  0  0
  -22.9030  -11.0660   20.0620 C   0  0  0  0  0  3  0  0  0  0  0  0
  -21.7070   -7.8070   21.2370 O   0  0  0  0  0  0  0  0  0  0  0  0
  -21.7480   -7.0000   22.3440 C   0  0  0  0  0  0  0  0  0  0  0  0
  -21.5580   -7.5110   23.6470 C   0  0  0  0  0  3  0  0  0  0  0  0
  -21.5400   -6.6360   24.7510 C   0  0  0  0  0  3  0  0  0  0  0  0
  -21.7010   -5.2510   24.5570 C   0  0  0  0  0  0  0  0  0  0  0  0
  -21.8840   -4.7390   23.2590 C   0  0  0  0  0  3  0  0  0  0  0  0
  -21.9050   -5.6120   22.1570 C   0  0  0  0  0  0  0  0  0  0  0  0
  -22.0610   -5.1120   20.9080 F   0  0  0  0  0  0  0  0  0  0  0  0
  -21.6750   -4.4090   25.6160 F   0  0  0  0  0  0  0  0  0  0  0  0
  -23.4070  -14.3260   21.1390 C   0  0  0  0  0  0  0  0  0  0  0  0
  -22.7790  -13.6550   22.0990 N   0  0  0  0  0  0  0  0  0  0  0  0
  -22.9810  -15.4070   20.7340 O   0  0  0  0  0  0  0  0  0  0  0  0
  -23.1390  -12.7780   22.4440 H   0  0  0  0  0  0  0  0  0  0  0  0
  -21.9250  -14.0240   22.4920 H   0  0  0  0  0  0  0  0  0  0  0  0
  -26.0270  -15.8010   19.9920 N   0  0  0  0  0  0  0  0  0  0  0  0
  -25.3370  -16.5010   20.2420 H   0  0  0  0  0  0  0  0  0  0  0  0
  -26.8020  -16.1760   19.4640 H   0  0  0  0  0  0  0  0  0  0  0  0
  -31.1510  -17.2550   23.4890 C   0  0  0  0  0  2  0  0  0  0  0  0
  -30.9730  -17.1520   22.1620 C   0  0  0  0  0  0  0  0  0  0  0  0
  -31.9630  -15.9750   23.5740 C   0  0  0  0  0  2  0  0  0  0  0  0
  -31.7220  -15.8320   22.0590 C   0  0  0  0  0  2  0  0  0  0  0  0
  -30.7110  -21.8220   17.5820 C   0  0  0  0  0  1  0  0  0  0  0  0
  -29.5440  -21.4730   18.5240 C   0  0  0  0  0  3  0  0  0  0  0  0
  -29.0920  -22.8030   19.3180 C   0  0  0  0  0  2  0  0  0  0  0  0
  -28.8100  -24.1880   18.5500 C   0  0  0  0  0  3  0  0  0  0  0  0
  -28.1620  -25.3960   19.3740 C   0  0  0  0  0  3  0  0  0  0  0  0
  -28.1400  -26.7710   18.8190 O   0  0  0  0  0  0  0  0  0  0  0  0
  -24.4870  -31.5610   22.8200 C   0  0  0  0  0  0  0  0  0  0  0  0
  -26.9880  -27.5430   19.0180 C   0  0  0  0  0  0  0  0  0  0  0  0
  -23.1910  -30.3010   21.1370 C   0  0  0  0  0  3  0  0  0  0  0  0
  -24.5630  -29.0030   19.4110 C   0  0  0  0  0  0  0  0  0  0  0  0
  -25.6820  -30.7790   20.7620 C   0  0  0  0  0  2  0  0  0  0  0  0
  -25.7600  -29.4900   19.9510 C   0  0  0  0  0  0  0  0  0  0  0  0
  -26.9770  -28.7750   19.7410 C   0  0  0  0  0  3  0  0  0  0  0  0
  -25.7660  -27.1060   18.4640 C   0  0  0  0  0  3  0  0  0  0  0  0
  -24.5660  -27.8180   18.6580 C   0  0  0  0  0  3  0  0  0  0  0  0
  -23.2990  -29.7990   19.6730 C   0  0  0  0  0  2  0  0  0  0  0  0
  -24.4760  -30.8920   21.6310 N   0  0  0  0  0  0  0  0  0  0  0  0
  -23.4480  -31.7160   23.4800 O   0  0  0  0  0  0  0  0  0  0  0  0
  -22.6670  -29.1470   22.0250 C   0  0  0  0  0  0  0  0  0  0  0  0
  -21.3540  -28.8720   21.9460 N   0  0  0  0  0  0  0  0  0  0  0  0
  -23.4380  -28.5050   22.7440 O   0  0  0  0  0  0  0  0  0  0  0  0
  -20.7850  -29.4480   21.3410 H   0  0  0  0  0  0  0  0  0  0  0  0
  -18.1330  -27.2890   22.4100 C   0  0  0  0  0  0  0  0  0  0  0  0
  -20.6560  -27.8010   22.6600 C   0  0  0  0  0  3  0  0  0  0  0  0
  -20.8950  -26.4320   21.9810 C   0  0  0  0  0  2  0  0  0  0  0  0
  -19.8100  -26.0650   20.9620 C   0  0  0  0  0  2  0  0  0  0  0  0
  -18.4360  -26.0170   21.6370 C   0  0  0  0  0  2  0  0  0  0  0  0
  -19.1760  -28.1340   22.8780 C   0  0  0  0  0  0  0  0  0  0  0  0
  -18.8380  -29.3220   23.5620 C   0  0  0  0  0  3  0  0  0  0  0  0
  -17.4920  -29.6670   23.7840 C   0  0  0  0  0  3  0  0  0  0  0  0
  -16.4650  -28.8200   23.3330 C   0  0  0  0  0  3  0  0  0  0  0  0
  -16.7870  -27.6320   22.6530 C   0  0  0  0  0  3  0  0  0  0  0  0
  -25.7950  -32.1850   23.3960 C   0  0  0  0  0  3  0  0  0  0  0  0
  -25.4840  -33.5550   23.8280 N   0  0  0  0  0  0  0  0  0  0  0  0
  -25.7830  -34.6600   23.1320 C   0  0  0  0  0  0  0  0  0  0  0  0
  -26.4210  -34.6330   22.0760 O   0  0  0  0  0  0  0  0  0  0  0  0
  -24.9160  -33.6490   24.6570 H   0  0  0  0  0  0  0  0  0  0  0  0
  -24.0340  -36.4590   22.9440 C   0  0  0  0  0  1  0  0  0  0  0  0
  -25.2970  -36.0100   23.6950 C   0  0  0  0  0  3  0  0  0  0  0  0
  -27.4400  -36.8600   24.5430 C   0  0  0  0  0  1  0  0  0  0  0  0
  -26.3200  -37.0770   23.6310 N   0  0  0  0  0  0  0  0  0  0  0  0
  -25.9080  -37.9820   23.8440 H   0  0  0  0  0  0  0  0  0  0  0  0
  -26.4080  -31.3530   24.5890 C   0  0  1  0  0  0  0  0  0  0  0  0
  -25.3970  -31.0450   25.7180 C   0  0  0  0  0  1  0  0  0  0  0  0
  -26.9720  -30.0040   24.0840 C   0  0  0  0  0  1  0  0  0  0  0  0
  -27.5970  -32.1240   25.2090 C   0  0  0  0  0  1  0  0  0  0  0  0
  1  2  1  0
  1 49  2  0
  2  6  1  0
  3  5  1  0
  3  4  1  0
  4 18  1  0
  4  1  1  0
  5 53  1  0
  5  8  1  0
  7  8  1  0
  8  9  1  1
  8  2  1  0
 10 16  1  0
 10 18  1  0
 11 16  1  0
 12 13  1  0
 12 11  1  0
 14 13  1  0
 14 23  1  0
 14 15  1  0
 16 15  1  0
 17 10  2  0
 18 19  1  0
 20 21  2  0
 21 40  1  0
 22 21  1  0
 22 25  1  0
 23 24  1  0
 23 20  1  0
 24 22  2  0
 25 26  1  0
 26 27  2  0
 28 31  1  0
 28 27  1  0
 29 28  2  0
 30 29  1  0
 30 25  2  0
 31 32  1  0
 32 33  1  0
 33 34  2  0
 35 34  1  0
 35 39  1  0
 36 35  2  0
 37 32  2  0
 37 36  1  0
 38 37  1  0
 40 41  1  0
 41 43  1  0
 41 44  1  0
 42 40  2  0
 45 20  1  0
 45 46  1  0
 47 45  1  0
 48 50  1  0
 49 48  1  0
 51 49  1  0
 51 50  1  0
 53 52  1  0
 53 54  1  0
 55 54  1  0
 55 56  2  0
 57 59  1  0
 57 56  1  0
 58 69  2  0
 59 64  1  0
 60 68  1  0
 60 70  1  0
 61 67  1  0
 61 63  1  0
 62 68  1  0
 63 62  1  0
 64 63  2  0
 65 66  1  0
 65 59  2  0
 66 61  2  0
 67 60  1  0
 68 58  1  0
 70 72  2  0
 71 70  1  0
 73 71  1  0
 74 83  2  0
 74 79  1  0
 75 71  1  0
 75 79  1  0
 76 75  1  0
 77 78  1  0
 77 76  1  0
 78 74  1  0
 79 80  2  0
 80 81  1  0
 82 81  2  0
 83 82  1  0
 84 58  1  0
 84 85  1  0
 84 94  1  0
 85 88  1  0
 86 90  1  0
 86 85  1  0
 87 86  2  0
 90 89  1  0
 92 90  1  0
 92 93  1  0
 92 91  1  0
 94 97  1  1
 94 95  1  0
 96 94  1  0
M  ISO  4  10 100  18 100  56 101  57 101
M  END
>  <TORSDO>  (54) 
F 21

>  <SCORE>  (54) 
-1.857

>  <name>  (54) 
53

>  <ligand_id>  (54) 
53

>  <original_smiles>  (54) 
[H]C1=C(C2=C(C([H])([H])[H])[N+]([H])(C([H])([H])[H])C([H])(C([H])(C([H])([H])[H])C([H])([H])C([H])([H])C([H])([H])Oc3c([H])c([H])c4c(c3[H])C([H])([H])N(C(=O)C([H])(N([H])C(=O)C([H])(N([H])C([H])([H])[H])C([H])([H])[H])C(C([H])([H])[H])(C([H])([H])[H])C([H])([H])[H])C([H])(C(=O)N([H])C3([H])c5c([H])c([H])c([H])c([H])c5C([H])([H])C([H])([H])C3([H])[H])C4([H])[H])C([H])([H])C2([H])N([H])C(=O)N2C([H])([H])C([H])([H])C([H])([H])C([H])(n3nc(-c4c([H])c([H])c(Oc5c([H])c([H])c(F)c([H])c5F)c([H])c4[H])c(C(=O)N([H])[H])c3N([H])[H])C2([H])[H])C([H])([H])C1([H])[H]

>  <smiles>  (54) 
[H]C1=C(C2=C(C([H])([H])[H])[N+]([H])(C([H])([H])[H])C([H])(C([H])(C([H])([H])[H])C([H])([H])C([H])([H])C([H])([H])Oc3c([H])c([H])c4c(c3[H])C([H])([H])N(C(=O)C([H])(N([H])C(=O)C([H])(N([H])C([H])([H])[H])C([H])([H])[H])C(C([H])([H])[H])(C([H])([H])[H])C([H])([H])[H])C([H])(C(=O)N([H])C3([H])c5c([H])c([H])c([H])c([H])c5C([H])([H])C([H])([H])C3([H])[H])C4([H])[H])C([H])([H])C2([H])N([H])C(=O)N2C([H])([H])C([H])([H])C([H])([H])C([H])(n3nc(-c4c([H])c([H])c(Oc5c([H])c([H])c(F)c([H])c5F)c([H])c4[H])c(C(=O)N([H])[H])c3N([H])[H])C2([H])[H])C([H])([H])C1([H])[H]

$$$$
54:0:0
     RDKit          3D

 95105  0  0  1  0  0  0  0  0999 V2000
  -29.2640  -21.3980   18.5610 C   0  0  0  0  0  3  0  0  0  0  0  0
  -29.3800  -21.1350   19.9390 C   0  0  0  0  0  0  0  0  0  0  0  0
  -29.1170  -22.3000   20.8010 C   0  0  0  0  0  0  0  0  0  0  0  0
  -28.9450  -22.6800   18.0850 C   0  0  0  0  0  0  0  0  0  0  0  0
  -28.7520  -23.6200   20.2210 C   0  0  0  0  0  0  0  0  0  0  0  0
  -28.8460  -22.9410   16.5960 C   0  0  0  0  0  1  0  0  0  0  0  0
  -28.7000  -23.7400   18.8780 N   0  0  0  0  0  0  0  0  0  0  0  0
  -29.3220  -18.4860   21.2100 C   0  0  0  0  0  2  0  0  0  0  0  0
  -30.0690  -18.4290   19.3070 C   0  0  0  0  0  2  0  0  0  0  0  0
  -29.9100  -19.6480   20.3110 C   0  0  0  0  0  3  0  0  0  0  0  0
  -30.2770  -17.4340   20.5060 C   0  0  0  0  0  3  0  0  0  0  0  0
  -30.5990  -14.8210   20.0740 C   0  0  0  0  0  0  0  0  0  0  0  0
  -30.3480  -12.5770   18.9800 C   0  0  0  0  0  2  0  0  0  0  0  0
  -29.3410  -12.6800   17.8130 C   0  0  0  0  0  2  0  0  0  0  0  0
  -27.8990  -12.4830   18.3210 C   0  0  0  0  0  2  0  0  0  0  0  0
  -27.5920  -13.3250   19.5880 C   0  0  0  0  0  3  0  0  0  0  0  0
  -28.7130  -13.2060   20.6420 C   0  0  0  0  0  2  0  0  0  0  0  0
  -29.9670  -13.5970   19.9860 N   0  0  0  0  0  0  0  0  0  0  0  0
  -31.7730  -14.9220   19.7050 O   0  0  0  0  0  0  0  0  0  0  0  0
  -29.8490  -15.9570   20.3830 N   0  0  0  0  0  0  0  0  0  0  0  0
  -28.8840  -15.7650   20.6070 H   0  0  0  0  0  0  0  0  0  0  0  0
  -25.2490  -13.8820   20.4630 C   0  0  0  0  0  0  0  0  0  0  0  0
  -24.2070  -13.0930   20.8680 C   0  0  0  0  0  0  0  0  0  0  0  0
  -24.6720  -11.7460   20.7750 C   0  0  0  0  0  0  0  0  0  0  0  0
  -26.2800  -13.0150   20.1440 N   0  0  0  0  0  0  0  0  0  0  0  0
  -25.9450  -11.7230   20.3960 N   0  0  0  0  0  0  0  0  0  0  0  0
  -23.9610  -10.4750   20.9670 C   0  0  0  0  0  0  0  0  0  0  0  0
  -24.4030   -9.5140   21.9020 C   0  0  0  0  0  3  0  0  0  0  0  0
  -23.6900   -8.3080   22.0820 C   0  0  0  0  0  3  0  0  0  0  0  0
  -22.5200   -8.0570   21.3270 C   0  0  0  0  0  0  0  0  0  0  0  0
  -22.0960   -9.0070   20.3810 C   0  0  0  0  0  3  0  0  0  0  0  0
  -22.8100  -10.2030   20.1990 C   0  0  0  0  0  3  0  0  0  0  0  0
  -21.7780   -6.9040   21.4160 O   0  0  0  0  0  0  0  0  0  0  0  0
  -21.6920   -6.1920   22.5850 C   0  0  0  0  0  0  0  0  0  0  0  0
  -21.1370   -6.7490   23.7580 C   0  0  0  0  0  3  0  0  0  0  0  0
  -21.0060   -5.9590   24.9190 C   0  0  0  0  0  3  0  0  0  0  0  0
  -21.4180   -4.6140   24.9060 C   0  0  0  0  0  0  0  0  0  0  0  0
  -21.9660   -4.0560   23.7370 C   0  0  0  0  0  3  0  0  0  0  0  0
  -22.1000   -4.8420   22.5790 C   0  0  0  0  0  0  0  0  0  0  0  0
  -22.6080   -4.2940   21.4500 F   0  0  0  0  0  0  0  0  0  0  0  0
  -21.2850   -3.8520   26.0170 F   0  0  0  0  0  0  0  0  0  0  0  0
  -22.8250  -13.5560   21.2250 C   0  0  0  0  0  0  0  0  0  0  0  0
  -22.1400  -12.8260   22.0980 N   0  0  0  0  0  0  0  0  0  0  0  0
  -22.3620  -14.5990   20.7650 O   0  0  0  0  0  0  0  0  0  0  0  0
  -22.5280  -11.9810   22.4900 H   0  0  0  0  0  0  0  0  0  0  0  0
  -21.2140  -13.1170   22.3800 H   0  0  0  0  0  0  0  0  0  0  0  0
  -25.3960  -15.2580   20.3130 N   0  0  0  0  0  0  0  0  0  0  0  0
  -24.6270  -15.8990   20.4760 H   0  0  0  0  0  0  0  0  0  0  0  0
  -26.2090  -15.7110   19.9150 H   0  0  0  0  0  0  0  0  0  0  0  0
  -30.1930  -22.8400   23.1640 C   0  0  0  0  0  2  0  0  0  0  0  0
  -30.3070  -21.3560   23.0100 C   0  0  0  0  0  2  0  0  0  0  0  0
  -29.1870  -22.1030   22.2990 C   0  0  0  0  0  3  0  0  0  0  0  0
  -28.5310  -25.1870   22.4020 C   0  0  0  0  0  1  0  0  0  0  0  0
  -28.1780  -24.9760   20.9250 C   0  0  0  0  0  3  0  0  0  0  0  0
  -28.4010  -26.3550   20.3260 O   0  0  0  0  0  0  0  0  0  0  0  0
  -24.6060  -31.8770   23.2390 C   0  0  0  0  0  0  0  0  0  0  0  0
  -27.3120  -27.2640   20.2890 C   0  0  0  0  0  0  0  0  0  0  0  0
  -23.4550  -30.4610   21.5780 C   0  0  0  0  0  3  0  0  0  0  0  0
  -24.9520  -28.9050   20.1980 C   0  0  0  0  0  0  0  0  0  0  0  0
  -26.0000  -30.7820   21.4590 C   0  0  0  0  0  2  0  0  0  0  0  0
  -26.1070  -29.3940   20.8230 C   0  0  0  0  0  0  0  0  0  0  0  0
  -27.2950  -28.5890   20.8530 C   0  0  0  0  0  3  0  0  0  0  0  0
  -26.1380  -26.8480   19.6310 C   0  0  0  0  0  3  0  0  0  0  0  0
  -24.9730  -27.6400   19.5890 C   0  0  0  0  0  3  0  0  0  0  0  0
  -23.7100  -29.7780   20.2090 C   0  0  0  0  0  2  0  0  0  0  0  0
  -24.7040  -31.0600   22.1490 N   0  0  0  0  0  0  0  0  0  0  0  0
  -23.5070  -32.1510   23.7440 O   0  0  0  0  0  0  0  0  0  0  0  0
  -22.7730  -29.4480   22.5300 C   0  0  0  0  0  0  0  0  0  0  0  0
  -21.4460  -29.2770   22.3870 N   0  0  0  0  0  0  0  0  0  0  0  0
  -23.4370  -28.8190   23.3570 O   0  0  0  0  0  0  0  0  0  0  0  0
  -20.9680  -29.8360   21.6940 H   0  0  0  0  0  0  0  0  0  0  0  0
  -18.0500  -28.1300   22.8890 C   0  0  0  0  0  0  0  0  0  0  0  0
  -20.6150  -28.3410   23.1460 C   0  0  0  0  0  3  0  0  0  0  0  0
  -20.6870  -26.9180   22.5460 C   0  0  0  0  0  2  0  0  0  0  0  0
  -19.5740  -26.6330   21.5320 C   0  0  0  0  0  2  0  0  0  0  0  0
  -18.1990  -26.7910   22.1870 C   0  0  0  0  0  2  0  0  0  0  0  0
  -19.1850  -28.8650   23.3250 C   0  0  0  0  0  0  0  0  0  0  0  0
  -18.9910  -30.1200   23.9420 C   0  0  0  0  0  3  0  0  0  0  0  0
  -17.6960  -30.6390   24.1270 C   0  0  0  0  0  3  0  0  0  0  0  0
  -16.5760  -29.9020   23.7060 C   0  0  0  0  0  3  0  0  0  0  0  0
  -16.7540  -28.6490   23.0940 C   0  0  0  0  0  3  0  0  0  0  0  0
  -25.8670  -32.5260   23.8880 C   0  0  0  0  0  3  0  0  0  0  0  0
  -26.3490  -31.7760   25.1910 C   0  0  1  0  0  0  0  0  0  0  0  0
  -25.2230  -31.5410   26.2260 C   0  0  0  0  0  1  0  0  0  0  0  0
  -26.9560  -30.3990   24.8380 C   0  0  0  0  0  1  0  0  0  0  0  0
  -27.4690  -32.5890   25.8800 C   0  0  0  0  0  1  0  0  0  0  0  0
  -25.5400  -33.9270   24.1930 N   0  0  0  0  0  0  0  0  0  0  0  0
  -25.8840  -34.9730   23.4290 C   0  0  0  0  0  0  0  0  0  0  0  0
  -26.5760  -34.8610   22.4140 O   0  0  0  0  0  0  0  0  0  0  0  0
  -24.9280  -34.0870   24.9790 H   0  0  0  0  0  0  0  0  0  0  0  0
  -24.1720  -36.7670   23.0000 C   0  0  0  0  0  1  0  0  0  0  0  0
  -25.3810  -36.3650   23.8600 C   0  0  0  0  0  3  0  0  0  0  0  0
  -27.4720  -37.2650   24.7790 C   0  0  0  0  0  1  0  0  0  0  0  0
  -26.4180  -37.4170   23.7810 N   0  0  0  0  0  0  0  0  0  0  0  0
  -26.0050  -38.3390   23.8930 H   0  0  0  0  0  0  0  0  0  0  0  0
  1  2  1  0
  2  3  2  0
  3 52  1  0
  4  1  2  0
  4  7  1  0
  5  3  1  0
  5 54  1  0
  6  4  1  0
  7  5  2  0
  9 10  1  0
  9 11  1  0
 10  2  1  0
 10  8  1  0
 11 20  1  0
 11  8  1  0
 12 20  1  0
 13 18  1  0
 14 15  1  0
 14 13  1  0
 16 15  1  0
 16 25  1  0
 16 17  1  0
 18 12  1  0
 18 17  1  0
 19 12  2  0
 20 21  1  0
 22 23  2  0
 23 42  1  0
 24 23  1  0
 24 27  1  0
 25 26  1  0
 25 22  1  0
 26 24  2  0
 27 28  1  0
 28 29  2  0
 30 33  1  0
 30 29  1  0
 31 30  2  0
 32 31  1  0
 32 27  2  0
 33 34  1  0
 34 35  1  0
 35 36  2  0
 37 36  1  0
 37 41  1  0
 38 37  2  0
 39 34  2  0
 39 38  1  0
 40 39  1  0
 42 43  1  0
 43 46  1  0
 43 45  1  0
 44 42  2  0
 47 22  1  0
 47 48  1  0
 49 47  1  0
 51 50  1  0
 52 51  1  0
 52 50  1  0
 54 53  1  0
 55 54  1  0
 56 67  2  0
 57 55  1  0
 57 62  1  0
 58 66  1  0
 58 68  1  0
 59 65  1  0
 59 61  1  0
 60 66  1  0
 61 62  2  0
 61 60  1  0
 63 57  2  0
 64 63  1  0
 64 59  2  0
 65 58  1  0
 66 56  1  0
 68 70  2  0
 69 68  1  0
 71 69  1  0
 72 81  2  0
 72 77  1  0
 73 69  1  0
 73 77  1  0
 74 73  1  0
 75 76  1  0
 75 74  1  0
 76 72  1  0
 77 78  2  0
 78 79  1  0
 80 79  2  0
 81 80  1  0
 82 56  1  0
 82 87  1  0
 82 83  1  0
 83 86  1  1
 83 84  1  0
 85 83  1  0
 87 90  1  0
 88 92  1  0
 88 87  1  0
 89 88  2  0
 92 91  1  0
 94 92  1  0
 94 95  1  0
 94 93  1  0
M  ISO  4  12 100  20 100  54 101  55 101
M  END
>  <TORSDO>  (55) 
F 19

>  <SCORE>  (55) 
-14.124

>  <name>  (55) 
54

>  <ligand_id>  (55) 
54

>  <original_smiles>  (55) 
[H]c1c([H])c([H])c2c(c1[H])C([H])([H])C([H])([H])C([H])([H])C2([H])N([H])C(=O)C1([H])N(C(=O)C([H])(N([H])C(=O)C([H])(N([H])C([H])([H])[H])C([H])([H])[H])C(C([H])([H])[H])(C([H])([H])[H])C([H])([H])[H])C([H])([H])c2c([H])c(OC([H])(c3nc(C([H])([H])[H])c([H])c(C4([H])C([H])([H])C([H])(N([H])C(=O)N5C([H])([H])C([H])([H])C([H])([H])C([H])(n6nc(-c7c([H])c([H])c(Oc8c([H])c([H])c(F)c([H])c8F)c([H])c7[H])c(C(=O)N([H])[H])c6N([H])[H])C5([H])[H])C4([H])[H])c3C3([H])C([H])([H])C3([H])[H])C([H])([H])[H])c([H])c([H])c2C1([H])[H]

>  <smiles>  (55) 
[H]c1c([H])c([H])c2c(c1[H])C([H])([H])C([H])([H])C([H])([H])C2([H])N([H])C(=O)C1([H])N(C(=O)C([H])(N([H])C(=O)C([H])(N([H])C([H])([H])[H])C([H])([H])[H])C(C([H])([H])[H])(C([H])([H])[H])C([H])([H])[H])C([H])([H])c2c([H])c(OC([H])(c3nc(C([H])([H])[H])c([H])c(C4([H])C([H])([H])C([H])(N([H])C(=O)N5C([H])([H])C([H])([H])C([H])([H])C([H])(n6nc(-c7c([H])c([H])c(Oc8c([H])c([H])c(F)c([H])c8F)c([H])c7[H])c(C(=O)N([H])[H])c6N([H])[H])C5([H])[H])C4([H])[H])c3C3([H])C([H])([H])C3([H])[H])C([H])([H])[H])c([H])c([H])c2C1([H])[H]

$$$$
55:0:0
     RDKit          3D

 96106  0  0  1  0  0  0  0  0999 V2000
  -29.9570  -20.9070   21.2110 C   0  0  0  0  0  3  0  0  0  0  0  0
  -31.7850  -20.0410   19.9030 C   0  0  0  0  0  3  0  0  0  0  0  0
  -30.7500  -19.7990   20.8240 C   0  0  0  0  0  0  0  0  0  0  0  0
  -30.2050  -22.1960   20.6590 C   0  0  0  0  0  0  0  0  0  0  0  0
  -31.2870  -22.3080   19.7520 C   0  0  0  0  0  0  0  0  0  0  0  0
  -31.6560  -23.6230   19.0630 C   0  0  0  0  0  2  0  0  0  0  0  0
  -30.6100  -24.7570   19.1530 C   0  0  0  0  0  2  0  0  0  0  0  0
  -29.2340  -24.2750   19.6350 C   0  0  0  0  0  3  0  0  0  0  0  0
  -29.3270  -23.4380   20.9620 C   0  0  2  0  0  0  0  0  0  0  0  0
  -29.9720  -24.2570   22.0990 C   0  0  0  0  0  1  0  0  0  0  0  0
  -27.9190  -23.0210   21.4550 C   0  0  0  0  0  1  0  0  0  0  0  0
  -32.0550  -21.2580   19.3920 N   0  0  0  0  0  0  0  0  0  0  0  0
  -30.6760  -14.5300   20.1500 C   0  0  0  0  0  0  0  0  0  0  0  0
  -30.2460  -12.4400   18.8870 C   0  0  0  0  0  2  0  0  0  0  0  0
  -29.2300  -12.6570   17.7480 C   0  0  0  0  0  2  0  0  0  0  0  0
  -27.7940  -12.4630   18.2700 C   0  0  0  0  0  2  0  0  0  0  0  0
  -27.5280  -13.2770   19.5600 C   0  0  0  0  0  3  0  0  0  0  0  0
  -28.6510  -13.0600   20.6040 C   0  0  0  0  0  2  0  0  0  0  0  0
  -29.9390  -13.3920   19.9730 N   0  0  0  0  0  0  0  0  0  0  0  0
  -31.7220  -14.7220   19.5200 O   0  0  0  0  0  0  0  0  0  0  0  0
  -29.3760  -17.6580   20.5480 C   0  0  0  0  0  2  0  0  0  0  0  0
  -31.6980  -17.4630   21.4930 C   0  0  0  0  0  2  0  0  0  0  0  0
  -29.0940  -16.2330   21.0870 C   0  0  0  0  0  2  0  0  0  0  0  0
  -31.3230  -16.0440   21.9950 C   0  0  0  0  0  2  0  0  0  0  0  0
  -30.4600  -18.3860   21.3680 C   0  0  0  0  0  3  0  0  0  0  0  0
  -30.3110  -15.4000   21.1360 N   0  0  0  0  0  0  0  0  0  0  0  0
  -25.1840  -13.8690   20.4410 C   0  0  0  0  0  0  0  0  0  0  0  0
  -24.1410  -13.0860   20.8560 C   0  0  0  0  0  0  0  0  0  0  0  0
  -24.5980  -11.7350   20.7560 C   0  0  0  0  0  0  0  0  0  0  0  0
  -26.2100  -12.9930   20.1180 N   0  0  0  0  0  0  0  0  0  0  0  0
  -25.8650  -11.7050   20.3660 N   0  0  0  0  0  0  0  0  0  0  0  0
  -23.8840  -10.4670   20.9520 C   0  0  0  0  0  0  0  0  0  0  0  0
  -24.3270   -9.5090   21.8900 C   0  0  0  0  0  3  0  0  0  0  0  0
  -23.6150   -8.3040   22.0720 C   0  0  0  0  0  3  0  0  0  0  0  0
  -22.4470   -8.0500   21.3170 C   0  0  0  0  0  0  0  0  0  0  0  0
  -22.0240   -8.9960   20.3680 C   0  0  0  0  0  3  0  0  0  0  0  0
  -22.7360  -10.1930   20.1820 C   0  0  0  0  0  3  0  0  0  0  0  0
  -21.7060   -6.8960   21.4090 O   0  0  0  0  0  0  0  0  0  0  0  0
  -21.6220   -6.1880   22.5810 C   0  0  0  0  0  0  0  0  0  0  0  0
  -21.1080   -6.7620   23.7640 C   0  0  0  0  0  3  0  0  0  0  0  0
  -20.9740   -5.9770   24.9270 C   0  0  0  0  0  3  0  0  0  0  0  0
  -21.3430   -4.6190   24.9070 C   0  0  0  0  0  0  0  0  0  0  0  0
  -21.8500   -4.0440   23.7290 C   0  0  0  0  0  3  0  0  0  0  0  0
  -21.9870   -4.8260   22.5680 C   0  0  0  0  0  0  0  0  0  0  0  0
  -22.4560   -4.2620   21.4290 F   0  0  0  0  0  0  0  0  0  0  0  0
  -21.2070   -3.8630   26.0210 F   0  0  0  0  0  0  0  0  0  0  0  0
  -22.7640  -13.5530   21.2290 C   0  0  0  0  0  0  0  0  0  0  0  0
  -22.0810  -12.8160   22.0990 N   0  0  0  0  0  0  0  0  0  0  0  0
  -22.3020  -14.6040   20.7850 O   0  0  0  0  0  0  0  0  0  0  0  0
  -22.4680  -11.9640   22.4770 H   0  0  0  0  0  0  0  0  0  0  0  0
  -21.1600  -13.1070   22.3910 H   0  0  0  0  0  0  0  0  0  0  0  0
  -25.3400  -15.2430   20.2920 N   0  0  0  0  0  0  0  0  0  0  0  0
  -24.5850  -15.8960   20.4670 H   0  0  0  0  0  0  0  0  0  0  0  0
  -26.1690  -15.6890   19.9170 H   0  0  0  0  0  0  0  0  0  0  0  0
  -28.1080  -25.3340   19.4580 C   0  0  0  0  0  2  0  0  0  0  0  0
  -28.2220  -26.6430   20.0610 O   0  0  0  0  0  0  0  0  0  0  0  0
  -24.5390  -31.9180   23.2020 C   0  0  0  0  0  0  0  0  0  0  0  0
  -27.0660  -27.4220   20.0570 C   0  0  0  0  0  0  0  0  0  0  0  0
  -23.2840  -30.5210   21.6000 C   0  0  0  0  0  3  0  0  0  0  0  0
  -24.6890  -28.9810   20.1390 C   0  0  0  0  0  0  0  0  0  0  0  0
  -25.8130  -30.8480   21.3450 C   0  0  0  0  0  2  0  0  0  0  0  0
  -25.8690  -29.4770   20.7040 C   0  0  0  0  0  0  0  0  0  0  0  0
  -27.0580  -28.7000   20.6710 C   0  0  0  0  0  3  0  0  0  0  0  0
  -25.8570  -26.9720   19.4630 C   0  0  0  0  0  3  0  0  0  0  0  0
  -24.6790  -27.7270   19.5190 C   0  0  0  0  0  3  0  0  0  0  0  0
  -23.4540  -29.8480   20.2150 C   0  0  0  0  0  2  0  0  0  0  0  0
  -24.5650  -31.1100   22.1060 N   0  0  0  0  0  0  0  0  0  0  0  0
  -23.4730  -32.2000   23.7660 O   0  0  0  0  0  0  0  0  0  0  0  0
  -22.6510  -29.5020   22.5750 C   0  0  0  0  0  0  0  0  0  0  0  0
  -21.3320  -29.2840   22.4440 N   0  0  0  0  0  0  0  0  0  0  0  0
  -23.3420  -28.9100   23.4080 O   0  0  0  0  0  0  0  0  0  0  0  0
  -20.8340  -29.8140   21.7420 H   0  0  0  0  0  0  0  0  0  0  0  0
  -17.9900  -27.9980   22.9280 C   0  0  0  0  0  0  0  0  0  0  0  0
  -20.5330  -28.3460   23.2310 C   0  0  0  0  0  3  0  0  0  0  0  0
  -20.6910  -26.9010   22.7010 C   0  0  0  0  0  2  0  0  0  0  0  0
  -19.6160  -26.5120   21.6810 C   0  0  0  0  0  2  0  0  0  0  0  0
  -18.2200  -26.6340   22.2990 C   0  0  0  0  0  2  0  0  0  0  0  0
  -19.0770  -28.8080   23.3500 C   0  0  0  0  0  0  0  0  0  0  0  0
  -18.8090  -30.0830   23.8960 C   0  0  0  0  0  3  0  0  0  0  0  0
  -17.4870  -30.5480   24.0260 C   0  0  0  0  0  3  0  0  0  0  0  0
  -16.4140  -29.7340   23.6210 C   0  0  0  0  0  3  0  0  0  0  0  0
  -16.6660  -28.4620   23.0760 C   0  0  0  0  0  3  0  0  0  0  0  0
  -25.8430  -32.5440   23.7850 C   0  0  0  0  0  3  0  0  0  0  0  0
  -25.5470  -33.9390   24.1360 N   0  0  0  0  0  0  0  0  0  0  0  0
  -25.8780  -34.9980   23.3860 C   0  0  0  0  0  0  0  0  0  0  0  0
  -26.5390  -34.9030   22.3460 O   0  0  0  0  0  0  0  0  0  0  0  0
  -24.9650  -34.0890   24.9470 H   0  0  0  0  0  0  0  0  0  0  0  0
  -24.1840  -36.8220   23.0300 C   0  0  0  0  0  1  0  0  0  0  0  0
  -25.4000  -36.3830   23.8620 C   0  0  0  0  0  3  0  0  0  0  0  0
  -27.5240  -37.2180   24.7660 C   0  0  0  0  0  1  0  0  0  0  0  0
  -26.4500  -37.4230   23.7980 N   0  0  0  0  0  0  0  0  0  0  0  0
  -26.0530  -38.3440   23.9600 H   0  0  0  0  0  0  0  0  0  0  0  0
  -26.4040  -31.7610   25.0350 C   0  0  1  0  0  0  0  0  0  0  0  0
  -25.3410  -31.4930   26.1250 C   0  0  0  0  0  1  0  0  0  0  0  0
  -26.9950  -30.3960   24.6090 C   0  0  0  0  0  1  0  0  0  0  0  0
  -27.5630  -32.5600   25.6770 C   0  0  0  0  0  1  0  0  0  0  0  0
  2  3  2  0
  3  1  1  0
  4  9  1  0
  4  1  2  0
  5  4  1  0
  6  7  1  0
  6  5  1  0
  7  8  1  0
  8 55  1  0
  8  9  1  0
  9 11  1  1
  9 10  1  0
 12  5  2  0
 12  2  1  0
 13 26  1  0
 14 19  1  0
 15 16  1  0
 15 14  1  0
 17 16  1  0
 17 30  1  0
 17 18  1  0
 19 13  1  0
 19 18  1  0
 20 13  2  0
 21 23  1  0
 21 25  1  0
 22 24  1  0
 23 26  1  0
 25  3  1  0
 25 22  1  0
 26 24  1  0
 27 28  2  0
 28 47  1  0
 29 28  1  0
 29 32  1  0
 30 31  1  0
 30 27  1  0
 31 29  2  0
 32 33  1  0
 33 34  2  0
 35 38  1  0
 35 34  1  0
 36 35  2  0
 37 36  1  0
 37 32  2  0
 38 39  1  0
 39 40  1  0
 40 41  2  0
 42 41  1  0
 42 46  1  0
 43 42  2  0
 44 39  2  0
 44 43  1  0
 45 44  1  0
 47 48  1  0
 48 51  1  0
 48 50  1  0
 49 47  2  0
 52 27  1  0
 52 53  1  0
 54 52  1  0
 55 56  1  0
 57 68  2  0
 58 56  1  0
 58 63  1  0
 59 67  1  0
 59 69  1  0
 60 66  1  0
 60 62  1  0
 61 67  1  0
 62 61  1  0
 63 62  2  0
 64 65  1  0
 64 58  2  0
 65 60  2  0
 66 59  1  0
 67 57  1  0
 69 71  2  0
 70 69  1  0
 72 70  1  0
 73 82  2  0
 73 78  1  0
 74 70  1  0
 74 78  1  0
 75 74  1  0
 76 77  1  0
 76 75  1  0
 77 73  1  0
 78 79  2  0
 79 80  1  0
 81 80  2  0
 82 81  1  0
 83 57  1  0
 83 84  1  0
 83 93  1  0
 84 87  1  0
 85 89  1  0
 85 84  1  0
 86 85  2  0
 89 88  1  0
 91 89  1  0
 91 92  1  0
 91 90  1  0
 93 96  1  1
 93 94  1  0
 95 93  1  0
M  ISO  4  13 100  26 100  55 101  56 101
M  END
>  <TORSDO>  (56) 
F 17

>  <SCORE>  (56) 
-15.001

>  <name>  (56) 
55

>  <ligand_id>  (56) 
55

>  <original_smiles>  (56) 
[H]c1nc2c(c([H])c1C1([H])C([H])([H])C([H])([H])N(C(=O)N3C([H])([H])C([H])([H])C([H])([H])C([H])(n4nc(-c5c([H])c([H])c(Oc6c([H])c([H])c(F)c([H])c6F)c([H])c5[H])c(C(=O)N([H])[H])c4N([H])[H])C3([H])[H])C([H])([H])C1([H])[H])C(C([H])([H])[H])(C([H])([H])[H])C([H])(C([H])([H])Oc1c([H])c([H])c3c(c1[H])C([H])([H])N(C(=O)C([H])(N([H])C(=O)C([H])(N([H])C([H])([H])[H])C([H])([H])[H])C(C([H])([H])[H])(C([H])([H])[H])C([H])([H])[H])C([H])(C(=O)N([H])C1([H])c4c([H])c([H])c([H])c([H])c4C([H])([H])C([H])([H])C1([H])[H])C3([H])[H])C([H])([H])C2([H])[H]

>  <smiles>  (56) 
[H]c1nc2c(c([H])c1C1([H])C([H])([H])C([H])([H])N(C(=O)N3C([H])([H])C([H])([H])C([H])([H])C([H])(n4nc(-c5c([H])c([H])c(Oc6c([H])c([H])c(F)c([H])c6F)c([H])c5[H])c(C(=O)N([H])[H])c4N([H])[H])C3([H])[H])C([H])([H])C1([H])[H])C(C([H])([H])[H])(C([H])([H])[H])C([H])(C([H])([H])Oc1c([H])c([H])c3c(c1[H])C([H])([H])N(C(=O)C([H])(N([H])C(=O)C([H])(N([H])C([H])([H])[H])C([H])([H])[H])C(C([H])([H])[H])(C([H])([H])[H])C([H])([H])[H])C([H])(C(=O)N([H])C1([H])c4c([H])c([H])c([H])c([H])c4C([H])([H])C([H])([H])C1([H])[H])C3([H])[H])C([H])([H])C2([H])[H]

$$$$
56:0:0
     RDKit          3D

 90 99  0  0  1  0  0  0  0  0999 V2000
  -27.9340  -21.0150   18.3040 C   0  0  0  0  0  3  0  0  0  0  0  0
  -28.9380  -21.2080   20.8240 C   0  0  0  0  0  3  0  0  0  0  0  0
  -28.5620  -19.8730   18.8650 C   0  0  0  0  0  0  0  0  0  0  0  0
  -29.0320  -19.7940   20.1780 C   0  0  0  0  0  0  0  0  0  0  0  0
  -27.8190  -22.2820   18.9570 C   0  0  0  0  0  0  0  0  0  0  0  0
  -28.3610  -22.5460   20.2450 C   0  0  0  0  0  0  0  0  0  0  0  0
  -29.0270  -18.6810   18.0600 C   0  0  0  0  0  2  0  0  0  0  0  0
  -30.2810  -18.1940   18.8320 C   0  0  0  0  0  2  0  0  0  0  0  0
  -29.9020  -18.2500   20.3290 C   0  0  0  0  0  3  0  0  0  0  0  0
  -27.0790  -23.3980   18.2450 C   0  0  0  0  0  1  0  0  0  0  0  0
  -30.3530  -15.3210   20.3870 C   0  0  0  0  0  0  0  0  0  0  0  0
  -30.3600  -12.8560   19.5140 C   0  0  0  0  0  2  0  0  0  0  0  0
  -29.4690  -12.6560   18.2610 C   0  0  0  0  0  2  0  0  0  0  0  0
  -28.0200  -12.3710   18.6850 C   0  0  0  0  0  2  0  0  0  0  0  0
  -27.5520  -13.3310   19.8050 C   0  0  0  0  0  3  0  0  0  0  0  0
  -28.5760  -13.4790   20.9500 C   0  0  0  0  0  2  0  0  0  0  0  0
  -29.8080  -14.0000   20.3390 N   0  0  0  0  0  0  0  0  0  0  0  0
  -31.5610  -15.3270   20.0980 O   0  0  0  0  0  0  0  0  0  0  0  0
  -29.5910  -16.6000   20.5550 N   0  0  0  0  0  0  0  0  0  0  0  0
  -28.6460  -16.4270   20.8680 H   0  0  0  0  0  0  0  0  0  0  0  0
  -25.1780  -13.8820   20.5320 C   0  0  0  0  0  0  0  0  0  0  0  0
  -24.1150  -13.1050   20.8860 C   0  0  0  0  0  0  0  0  0  0  0  0
  -24.5840  -11.7540   20.8590 C   0  0  0  0  0  0  0  0  0  0  0  0
  -26.2210  -13.0080   20.2940 N   0  0  0  0  0  0  0  0  0  0  0  0
  -25.8770  -11.7230   20.5610 N   0  0  0  0  0  0  0  0  0  0  0  0
  -23.8580  -10.4890   21.0430 C   0  0  0  0  0  0  0  0  0  0  0  0
  -24.2840   -9.5220   21.9810 C   0  0  0  0  0  3  0  0  0  0  0  0
  -23.5540   -8.3270   22.1530 C   0  0  0  0  0  3  0  0  0  0  0  0
  -22.3900   -8.0850   21.3850 C   0  0  0  0  0  0  0  0  0  0  0  0
  -21.9840   -9.0430   20.4380 C   0  0  0  0  0  3  0  0  0  0  0  0
  -22.7120  -10.2310   20.2630 C   0  0  0  0  0  3  0  0  0  0  0  0
  -21.6360   -6.9400   21.4670 O   0  0  0  0  0  0  0  0  0  0  0  0
  -21.5700   -6.2030   22.6230 C   0  0  0  0  0  0  0  0  0  0  0  0
  -21.1080   -6.7590   23.8370 C   0  0  0  0  0  3  0  0  0  0  0  0
  -20.9870   -5.9490   24.9850 C   0  0  0  0  0  3  0  0  0  0  0  0
  -21.3220   -4.5830   24.9190 C   0  0  0  0  0  0  0  0  0  0  0  0
  -21.7820   -4.0270   23.7110 C   0  0  0  0  0  3  0  0  0  0  0  0
  -21.8990   -4.8340   22.5660 C   0  0  0  0  0  0  0  0  0  0  0  0
  -22.3210   -4.2890   21.3990 F   0  0  0  0  0  0  0  0  0  0  0  0
  -21.2000   -3.8010   26.0170 F   0  0  0  0  0  0  0  0  0  0  0  0
  -22.7130  -13.5750   21.1440 C   0  0  0  0  0  0  0  0  0  0  0  0
  -21.9790  -12.8730   21.9980 N   0  0  0  0  0  0  0  0  0  0  0  0
  -22.2800  -14.6030   20.6190 O   0  0  0  0  0  0  0  0  0  0  0  0
  -22.3470  -12.0430   22.4410 H   0  0  0  0  0  0  0  0  0  0  0  0
  -21.0400  -13.1700   22.2270 H   0  0  0  0  0  0  0  0  0  0  0  0
  -25.3500  -15.2570   20.3650 N   0  0  0  0  0  0  0  0  0  0  0  0
  -24.5920  -15.9210   20.5010 H   0  0  0  0  0  0  0  0  0  0  0  0
  -26.1950  -15.6870   20.0180 H   0  0  0  0  0  0  0  0  0  0  0  0
  -28.0640  -24.1830   20.8840 C   0  0  0  0  0  2  0  0  0  0  0  0
  -28.1690  -25.7570   20.2940 O   0  0  0  0  0  0  0  0  0  0  0  0
  -24.6130  -31.8370   23.2000 C   0  0  0  0  0  0  0  0  0  0  0  0
  -27.1690  -26.8860   20.2860 C   0  0  0  0  0  0  0  0  0  0  0  0
  -23.4360  -30.4400   21.5500 C   0  0  0  0  0  3  0  0  0  0  0  0
  -24.9000  -28.8270   20.1600 C   0  0  0  0  0  0  0  0  0  0  0  0
  -26.0120  -30.6320   21.4450 C   0  0  0  0  0  2  0  0  0  0  0  0
  -26.0850  -29.2140   20.8020 C   0  0  0  0  0  0  0  0  0  0  0  0
  -27.2150  -28.2700   20.8340 C   0  0  0  0  0  3  0  0  0  0  0  0
  -25.9630  -26.6780   19.5760 C   0  0  0  0  0  3  0  0  0  0  0  0
  -24.8710  -27.5820   19.5190 C   0  0  0  0  0  3  0  0  0  0  0  0
  -23.6880  -29.7590   20.1790 C   0  0  0  0  0  2  0  0  0  0  0  0
  -24.7090  -31.0010   22.1160 N   0  0  0  0  0  0  0  0  0  0  0  0
  -23.5180  -32.1310   23.7070 O   0  0  0  0  0  0  0  0  0  0  0  0
  -22.7310  -29.4470   22.5100 C   0  0  0  0  0  0  0  0  0  0  0  0
  -21.4020  -29.2790   22.3720 N   0  0  0  0  0  0  0  0  0  0  0  0
  -23.3890  -28.8270   23.3500 O   0  0  0  0  0  0  0  0  0  0  0  0
  -20.9240  -29.8230   21.6700 H   0  0  0  0  0  0  0  0  0  0  0  0
  -18.0170  -28.0680   22.8670 C   0  0  0  0  0  0  0  0  0  0  0  0
  -20.5770  -28.3430   23.1430 C   0  0  0  0  0  3  0  0  0  0  0  0
  -20.6830  -26.9120   22.5720 C   0  0  0  0  0  2  0  0  0  0  0  0
  -19.5870  -26.5840   21.5510 C   0  0  0  0  0  2  0  0  0  0  0  0
  -18.2020  -26.7220   22.1880 C   0  0  0  0  0  2  0  0  0  0  0  0
  -19.1320  -28.8360   23.3010 C   0  0  0  0  0  0  0  0  0  0  0  0
  -18.9020  -30.0930   23.8990 C   0  0  0  0  0  3  0  0  0  0  0  0
  -17.5930  -30.5840   24.0680 C   0  0  0  0  0  3  0  0  0  0  0  0
  -16.4940  -29.8150   23.6440 C   0  0  0  0  0  3  0  0  0  0  0  0
  -16.7080  -28.5590   23.0480 C   0  0  0  0  0  3  0  0  0  0  0  0
  -25.8790  -32.4820   23.8430 C   0  0  0  0  0  3  0  0  0  0  0  0
  -25.5630  -33.8870   24.1580 N   0  0  0  0  0  0  0  0  0  0  0  0
  -25.9100  -34.9420   23.4080 C   0  0  0  0  0  0  0  0  0  0  0  0
  -26.5980  -34.8360   22.3910 O   0  0  0  0  0  0  0  0  0  0  0  0
  -24.9490  -34.0410   24.9440 H   0  0  0  0  0  0  0  0  0  0  0  0
  -24.2040  -36.7570   23.0220 C   0  0  0  0  0  1  0  0  0  0  0  0
  -25.4210  -36.3360   23.8590 C   0  0  0  0  0  3  0  0  0  0  0  0
  -27.5350  -37.2100   24.7520 C   0  0  0  0  0  1  0  0  0  0  0  0
  -26.4630  -37.3820   23.7760 N   0  0  0  0  0  0  0  0  0  0  0  0
  -26.0560  -38.3050   23.9080 H   0  0  0  0  0  0  0  0  0  0  0  0
  -26.3630  -31.7320   25.1480 C   0  0  1  0  0  0  0  0  0  0  0  0
  -25.2440  -31.5210   26.1950 C   0  0  0  0  0  1  0  0  0  0  0  0
  -26.9460  -30.3400   24.8070 C   0  0  0  0  0  1  0  0  0  0  0  0
  -27.4990  -32.5360   25.8220 C   0  0  0  0  0  1  0  0  0  0  0  0
  1  3  2  0
  1  5  1  0
  3  4  1  0
  4  9  1  0
  4  2  2  0
  5  6  2  0
  6  2  1  0
  6 49  1  0
  7  8  1  0
  7  3  1  0
  8  9  1  0
  9 19  1  0
 10  5  1  0
 11 19  1  0
 12 17  1  0
 13 14  1  0
 13 12  1  0
 15 14  1  0
 15 24  1  0
 15 16  1  0
 17 11  1  0
 17 16  1  0
 18 11  2  0
 19 20  1  0
 21 22  2  0
 22 41  1  0
 23 22  1  0
 23 26  1  0
 24 21  1  0
 24 25  1  0
 25 23  2  0
 26 27  1  0
 27 28  2  0
 29 32  1  0
 29 28  1  0
 30 29  2  0
 31 30  1  0
 31 26  2  0
 32 33  1  0
 33 34  1  0
 34 35  2  0
 36 35  1  0
 36 40  1  0
 37 36  2  0
 38 33  2  0
 38 37  1  0
 39 38  1  0
 41 42  1  0
 42 45  1  0
 42 44  1  0
 43 41  2  0
 46 47  1  0
 46 21  1  0
 48 46  1  0
 50 49  1  0
 51 62  2  0
 52 50  1  0
 52 57  1  0
 53 61  1  0
 53 63  1  0
 54 60  1  0
 54 56  1  0
 55 61  1  0
 56 57  2  0
 56 55  1  0
 58 52  2  0
 59 58  1  0
 59 54  2  0
 60 53  1  0
 61 51  1  0
 63 65  2  0
 64 63  1  0
 66 64  1  0
 67 76  2  0
 67 72  1  0
 68 64  1  0
 68 72  1  0
 69 68  1  0
 70 71  1  0
 70 69  1  0
 71 67  1  0
 72 73  2  0
 73 74  1  0
 75 74  2  0
 76 75  1  0
 77 51  1  0
 77 78  1  0
 77 87  1  0
 78 81  1  0
 79 83  1  0
 79 78  1  0
 80 79  2  0
 83 82  1  0
 85 83  1  0
 85 86  1  0
 85 84  1  0
 87 90  1  1
 87 88  1  0
 89 87  1  0
M  ISO  4  11 100  19 100  49 101  50 101
M  END
>  <TORSDO>  (57) 
F 17

>  <SCORE>  (57) 
-16.969

>  <name>  (57) 
56

>  <ligand_id>  (57) 
56

>  <original_smiles>  (57) 
[H]c1c([H])c([H])c2c(c1[H])C([H])([H])C([H])([H])C([H])([H])C2([H])N([H])C(=O)C1([H])N(C(=O)C([H])(N([H])C(=O)C([H])(N([H])C([H])([H])[H])C([H])([H])[H])C(C([H])([H])[H])(C([H])([H])[H])C([H])([H])[H])C([H])([H])c2c([H])c(OC([H])([H])c3c([H])c4c(c([H])c3C([H])([H])[H])C([H])([H])C([H])([H])C4([H])N([H])C(=O)N3C([H])([H])C([H])([H])C([H])([H])C([H])(n4nc(-c5c([H])c([H])c(Oc6c([H])c([H])c(F)c([H])c6F)c([H])c5[H])c(C(=O)N([H])[H])c4N([H])[H])C3([H])[H])c([H])c([H])c2C1([H])[H]

>  <smiles>  (57) 
[H]c1c([H])c([H])c2c(c1[H])C([H])([H])C([H])([H])C([H])([H])C2([H])N([H])C(=O)C1([H])N(C(=O)C([H])(N([H])C(=O)C([H])(N([H])C([H])([H])[H])C([H])([H])[H])C(C([H])([H])[H])(C([H])([H])[H])C([H])([H])[H])C([H])([H])c2c([H])c(OC([H])([H])c3c([H])c4c(c([H])c3C([H])([H])[H])C([H])([H])C([H])([H])C4([H])N([H])C(=O)N3C([H])([H])C([H])([H])C([H])([H])C([H])(n4nc(-c5c([H])c([H])c(Oc6c([H])c([H])c(F)c([H])c6F)c([H])c5[H])c(C(=O)N([H])[H])c4N([H])[H])C3([H])[H])c([H])c([H])c2C1([H])[H]

$$$$
57:0:0
     RDKit          3D

 92102  0  0  1  0  0  0  0  0999 V2000
  -31.4390  -13.7060   20.4510 C   0  0  0  0  0  0  0  0  0  0  0  0
  -31.1460  -11.2340   21.1120 C   0  0  0  0  0  2  0  0  0  0  0  0
  -30.5020  -10.3450   20.0250 C   0  0  0  0  0  2  0  0  0  0  0  0
  -28.9670  -10.4030   20.1190 C   0  0  0  0  0  2  0  0  0  0  0  0
  -28.4470  -11.8520   20.2990 C   0  0  0  0  0  3  0  0  0  0  0  0
  -29.2360  -12.6420   21.3660 C   0  0  0  0  0  2  0  0  0  0  0  0
  -30.6400  -12.6390   20.9270 N   0  0  0  0  0  0  0  0  0  0  0  0
  -32.6430  -13.5600   20.7110 O   0  0  0  0  0  0  0  0  0  0  0  0
  -31.5350  -19.0940   16.2270 C   0  0  0  0  0  3  0  0  0  0  0  0
  -29.2670  -19.5290   15.7530 C   0  0  0  0  0  3  0  0  0  0  0  0
  -31.1750  -17.9440   17.1370 C   0  0  0  0  0  0  0  0  0  0  0  0
  -29.8160  -17.6960   17.4550 C   0  0  0  0  0  0  0  0  0  0  0  0
  -30.5910  -19.9980   15.5040 C   0  0  0  0  0  0  0  0  0  0  0  0
  -28.8820  -18.4630   16.6550 C   0  0  0  0  0  0  0  0  0  0  0  0
  -32.1320  -16.8700   17.8880 C   0  0  0  0  0  2  0  0  0  0  0  0
  -30.5870  -17.1550   19.8090 C   0  0  0  0  0  2  0  0  0  0  0  0
  -29.7760  -15.1780   18.8200 C   0  0  0  0  0  2  0  0  0  0  0  0
  -31.7020  -16.2230   19.3650 C   0  0  0  0  0  3  0  0  0  0  0  0
  -29.5130  -16.7830   18.7770 C   0  0  2  0  0  0  0  0  0  0  0  0
  -27.3860  -18.2020   16.7200 C   0  0  0  0  0  1  0  0  0  0  0  0
  -28.1480  -17.0830   19.4290 C   0  0  0  0  0  1  0  0  0  0  0  0
  -31.0350  -14.8300   19.5830 N   0  0  0  0  0  0  0  0  0  0  0  0
  -26.1710  -13.0010   20.4150 C   0  0  0  0  0  0  0  0  0  0  0  0
  -24.9030  -12.5270   20.6030 C   0  0  0  0  0  0  0  0  0  0  0  0
  -25.0350  -11.1210   20.8170 C   0  0  0  0  0  0  0  0  0  0  0  0
  -27.0060  -11.9030   20.5150 N   0  0  0  0  0  0  0  0  0  0  0  0
  -26.3180  -10.7740   20.8260 N   0  0  0  0  0  0  0  0  0  0  0  0
  -24.0060  -10.0810   20.9500 C   0  0  0  0  0  0  0  0  0  0  0  0
  -24.0300   -9.1500   22.0100 C   0  0  0  0  0  3  0  0  0  0  0  0
  -23.0170   -8.1750   22.1300 C   0  0  0  0  0  3  0  0  0  0  0  0
  -21.9630   -8.1250   21.1870 C   0  0  0  0  0  0  0  0  0  0  0  0
  -21.9560   -9.0410   20.1190 C   0  0  0  0  0  3  0  0  0  0  0  0
  -22.9680  -10.0070   19.9990 C   0  0  0  0  0  3  0  0  0  0  0  0
  -20.9510   -7.1970   21.2090 O   0  0  0  0  0  0  0  0  0  0  0  0
  -20.6350   -6.5030   22.3500 C   0  0  0  0  0  0  0  0  0  0  0  0
  -20.0770   -7.1430   23.4790 C   0  0  0  0  0  3  0  0  0  0  0  0
  -19.7030   -6.3820   24.6040 C   0  0  0  0  0  3  0  0  0  0  0  0
  -19.8760   -4.9850   24.6010 C   0  0  0  0  0  0  0  0  0  0  0  0
  -20.4240   -4.3460   23.4750 C   0  0  0  0  0  3  0  0  0  0  0  0
  -20.8010   -5.1040   22.3510 C   0  0  0  0  0  0  0  0  0  0  0  0
  -21.3100   -4.4810   21.2620 F   0  0  0  0  0  0  0  0  0  0  0  0
  -19.5090   -4.2540   25.6790 F   0  0  0  0  0  0  0  0  0  0  0  0
  -23.6360  -13.3200   20.4790 C   0  0  0  0  0  0  0  0  0  0  0  0
  -22.5860  -12.9130   21.1840 N   0  0  0  0  0  0  0  0  0  0  0  0
  -23.5830  -14.3380   19.7920 O   0  0  0  0  0  0  0  0  0  0  0  0
  -22.6320  -12.0910   21.7670 H   0  0  0  0  0  0  0  0  0  0  0  0
  -21.7220  -13.4350   21.1420 H   0  0  0  0  0  0  0  0  0  0  0  0
  -26.6740  -14.2660   20.1300 N   0  0  0  0  0  0  0  0  0  0  0  0
  -26.0590  -15.0570   19.9740 H   0  0  0  0  0  0  0  0  0  0  0  0
  -27.6380  -14.4600   19.8970 H   0  0  0  0  0  0  0  0  0  0  0  0
  -30.7600  -21.5710   14.8270 C   0  0  0  0  0  2  0  0  0  0  0  0
  -30.0310  -22.4610   13.7140 O   0  0  0  0  0  0  0  0  0  0  0  0
  -29.9690  -29.7780   15.4890 C   0  0  0  0  0  0  0  0  0  0  0  0
  -29.4310  -23.7910   13.8750 C   0  0  0  0  0  0  0  0  0  0  0  0
  -27.8260  -28.5710   15.3730 C   0  0  0  0  0  3  0  0  0  0  0  0
  -27.8760  -26.2640   14.2250 C   0  0  0  0  0  0  0  0  0  0  0  0
  -29.8020  -27.8030   13.9090 C   0  0  0  0  0  2  0  0  0  0  0  0
  -29.2470  -26.3580   13.9480 C   0  0  0  0  0  0  0  0  0  0  0  0
  -30.0140  -25.1340   13.7410 C   0  0  0  0  0  3  0  0  0  0  0  0
  -28.0390  -23.8130   14.0910 C   0  0  0  0  0  3  0  0  0  0  0  0
  -27.2790  -24.9940   14.2670 C   0  0  0  0  0  3  0  0  0  0  0  0
  -27.0850  -27.5430   14.4770 C   0  0  0  0  0  2  0  0  0  0  0  0
  -29.2530  -28.7460   14.9450 N   0  0  0  0  0  0  0  0  0  0  0  0
  -29.4640  -30.5640   16.3060 O   0  0  0  0  0  0  0  0  0  0  0  0
  -27.6800  -28.1570   16.8600 C   0  0  0  0  0  0  0  0  0  0  0  0
  -26.4320  -28.0430   17.3500 N   0  0  0  0  0  0  0  0  0  0  0  0
  -28.6820  -27.9250   17.5420 O   0  0  0  0  0  0  0  0  0  0  0  0
  -25.6600  -28.2610   16.7370 H   0  0  0  0  0  0  0  0  0  0  0  0
  -23.6740  -27.5430   19.6510 C   0  0  0  0  0  0  0  0  0  0  0  0
  -26.0810  -27.6060   18.7050 C   0  0  0  0  0  3  0  0  0  0  0  0
  -26.0460  -26.0630   18.8020 C   0  0  0  0  0  2  0  0  0  0  0  0
  -24.6500  -25.4750   18.5690 C   0  0  0  0  0  2  0  0  0  0  0  0
  -23.6580  -26.0240   19.5960 C   0  0  0  0  0  2  0  0  0  0  0  0
  -24.8050  -28.2860   19.2180 C   0  0  0  0  0  0  0  0  0  0  0  0
  -24.7550  -29.6960   19.2620 C   0  0  0  0  0  3  0  0  0  0  0  0
  -23.6050  -30.3630   19.7260 C   0  0  0  0  0  3  0  0  0  0  0  0
  -22.4930  -29.6230   20.1640 C   0  0  0  0  0  3  0  0  0  0  0  0
  -22.5310  -28.2170   20.1310 C   0  0  0  0  0  3  0  0  0  0  0  0
  -31.4570  -30.0350   15.0970 C   0  0  0  0  0  3  0  0  0  0  0  0
  -31.6880  -31.4890   15.1360 N   0  0  0  0  0  0  0  0  0  0  0  0
  -32.2090  -32.2090   14.1330 C   0  0  0  0  0  0  0  0  0  0  0  0
  -32.6070  -31.6980   13.0820 O   0  0  0  0  0  0  0  0  0  0  0  0
  -31.3350  -31.9800   15.9420 H   0  0  0  0  0  0  0  0  0  0  0  0
  -31.4490  -34.4460   13.2620 C   0  0  0  0  0  1  0  0  0  0  0  0
  -32.3060  -33.7360   14.3230 C   0  0  0  0  0  3  0  0  0  0  0  0
  -34.5200  -33.8100   15.3840 C   0  0  0  0  0  1  0  0  0  0  0  0
  -33.6920  -34.2510   14.2650 N   0  0  0  0  0  0  0  0  0  0  0  0
  -33.6980  -35.2680   14.2460 H   0  0  0  0  0  0  0  0  0  0  0  0
  -32.4830  -29.2930   16.0410 C   0  0  1  0  0  0  0  0  0  0  0  0
  -32.3020  -29.6240   17.5400 C   0  0  0  0  0  1  0  0  0  0  0  0
  -32.3690  -27.7600   15.8830 C   0  0  0  0  0  1  0  0  0  0  0  0
  -33.9280  -29.6720   15.6410 C   0  0  0  0  0  1  0  0  0  0  0  0
  1  8  2  0
  1  7  1  0
  3  4  1  0
  3  2  1  0
  5  4  1  0
  5 26  1  0
  5  6  1  0
  7  2  1  0
  7  6  1  0
  9 11  1  0
 10 14  2  0
 11 12  2  0
 11 15  1  0
 12 19  1  0
 13 10  1  0
 13  9  2  0
 14 20  1  0
 14 12  1  0
 17 22  1  0
 18 15  1  0
 18 22  1  0
 18 16  1  0
 19 17  1  0
 19 21  1  1
 19 16  1  0
 22  1  1  0
 23 26  1  0
 23 24  2  0
 24 25  1  0
 25 27  2  0
 25 28  1  0
 26 27  1  0
 28 29  1  0
 29 30  2  0
 31 34  1  0
 31 30  1  0
 32 31  2  0
 33 32  1  0
 33 28  2  0
 34 35  1  0
 35 40  2  0
 35 36  1  0
 36 37  2  0
 38 37  1  0
 38 42  1  0
 39 38  2  0
 40 39  1  0
 41 40  1  0
 43 24  1  0
 43 44  1  0
 44 46  1  0
 45 43  2  0
 47 44  1  0
 48 23  1  0
 49 48  1  0
 50 48  1  0
 51 13  1  0
 52 54  1  0
 52 51  1  0
 53 64  2  0
 54 60  1  0
 55 65  1  0
 56 61  1  0
 56 62  1  0
 57 58  1  0
 57 63  1  0
 58 56  2  0
 59 54  2  0
 59 58  1  0
 60 61  2  0
 62 55  1  0
 63 55  1  0
 63 53  1  0
 65 66  1  0
 65 67  2  0
 68 66  1  0
 69 78  1  0
 70 66  1  0
 70 71  1  0
 70 74  1  0
 72 71  1  0
 72 73  1  0
 73 69  1  0
 74 75  1  0
 74 69  2  0
 75 76  2  0
 76 77  1  0
 78 77  2  0
 79 80  1  0
 79 53  1  0
 79 89  1  0
 80 83  1  0
 81 85  1  0
 81 80  1  0
 82 81  2  0
 85 84  1  0
 87 85  1  0
 87 86  1  0
 88 87  1  0
 89 90  1  1
 91 89  1  0
 92 89  1  0
M  ISO  4   1 100  22 100  51 101  52 101
M  END
>  <TORSDO>  (58) 
F 16

>  <SCORE>  (58) 
-4.091

>  <name>  (58) 
57

>  <ligand_id>  (58) 
57

>  <original_smiles>  (58) 
[H]c1c([H])c([H])c2c(c1[H])C([H])([H])C([H])([H])C([H])([H])C2([H])N([H])C(=O)C1([H])N(C(=O)C([H])(N([H])C(=O)C([H])(N([H])C([H])([H])[H])C([H])([H])[H])C(C([H])([H])[H])(C([H])([H])[H])C([H])([H])[H])C([H])([H])c2c([H])c(OC([H])([H])c3c([H])c(C([H])([H])[H])c4c(c3[H])C([H])([H])C3([H])N(C(=O)N5C([H])([H])C([H])([H])C([H])([H])C([H])(n6nc(-c7c([H])c([H])c(Oc8c([H])c([H])c(F)c([H])c8F)c([H])c7[H])c(C(=O)N([H])[H])c6N([H])[H])C5([H])[H])C([H])([H])C4(C([H])([H])[H])C3([H])[H])c([H])c([H])c2C1([H])[H]

>  <smiles>  (58) 
[H]c1c([H])c([H])c2c(c1[H])C([H])([H])C([H])([H])C([H])([H])C2([H])N([H])C(=O)C1([H])N(C(=O)C([H])(N([H])C(=O)C([H])(N([H])C([H])([H])[H])C([H])([H])[H])C(C([H])([H])[H])(C([H])([H])[H])C([H])([H])[H])C([H])([H])c2c([H])c(OC([H])([H])c3c([H])c(C([H])([H])[H])c4c(c3[H])C([H])([H])C3([H])N(C(=O)N5C([H])([H])C([H])([H])C([H])([H])C([H])(n6nc(-c7c([H])c([H])c(Oc8c([H])c([H])c(F)c([H])c8F)c([H])c7[H])c(C(=O)N([H])[H])c6N([H])[H])C5([H])[H])C([H])([H])C4(C([H])([H])[H])C3([H])[H])c([H])c([H])c2C1([H])[H]

$$$$
58:0:0
     RDKit          3D

 93101  0  0  1  0  0  0  0  0999 V2000
  -30.1700  -21.4590   20.9860 C   0  0  0  0  0  0  0  0  0  0  0  0
  -28.9620  -21.9890   20.4200 C   0  0  0  0  0  0  0  0  0  0  0  0
  -30.5310  -20.0560   20.8970 C   0  0  0  0  0  0  0  0  0  0  0  0
  -28.2050  -20.9380   19.7850 C   0  0  0  0  0  0  0  0  0  0  0  0
  -29.7270  -19.0880   20.2090 C   0  0  0  0  0  0  0  0  0  0  0  0
  -31.0980  -22.3860   21.7610 C   0  0  0  0  0  1  0  0  0  0  0  0
  -26.8430  -21.2550   19.2040 C   0  0  0  0  0  1  0  0  0  0  0  0
  -28.5690  -19.5950   19.6700 N   0  0  0  0  0  0  0  0  0  0  0  0
  -30.4170  -17.5600   18.2520 C   0  0  0  0  0  1  0  0  0  0  0  0
  -30.3100  -17.6040   19.7900 C   0  0  0  0  0  0  0  0  0  0  0  0
  -30.6190  -14.9810   20.1740 C   0  0  0  0  0  0  0  0  0  0  0  0
  -30.4230  -12.6680   19.2050 C   0  0  0  0  0  2  0  0  0  0  0  0
  -29.4730  -12.6820   17.9870 C   0  0  0  0  0  2  0  0  0  0  0  0
  -28.0140  -12.4880   18.4410 C   0  0  0  0  0  2  0  0  0  0  0  0
  -27.6390  -13.3930   19.6440 C   0  0  0  0  0  3  0  0  0  0  0  0
  -28.7120  -13.3650   20.7530 C   0  0  0  0  0  2  0  0  0  0  0  0
  -29.9840  -13.7480   20.1300 N   0  0  0  0  0  0  0  0  0  0  0  0
  -31.8160  -15.0160   19.8800 O   0  0  0  0  0  0  0  0  0  0  0  0
  -29.8840  -16.1820   20.2800 N   0  0  0  0  0  4  0  0  0  0  0  0
  -28.9100  -16.0900   20.5210 H   0  0  0  0  0  0  0  0  0  0  0  0
  -25.2610  -13.9640   20.4030 C   0  0  0  0  0  0  0  0  0  0  0  0
  -24.2050  -13.1850   20.7870 C   0  0  0  0  0  0  0  0  0  0  0  0
  -24.6780  -11.8370   20.7610 C   0  0  0  0  0  0  0  0  0  0  0  0
  -26.3080  -13.0910   20.1580 N   0  0  0  0  0  0  0  0  0  0  0  0
  -25.9660  -11.8080   20.4410 N   0  0  0  0  0  0  0  0  0  0  0  0
  -23.9610  -10.5720   20.9650 C   0  0  0  0  0  0  0  0  0  0  0  0
  -24.4000   -9.6160   21.9070 C   0  0  0  0  0  3  0  0  0  0  0  0
  -23.6810   -8.4160   22.0990 C   0  0  0  0  0  3  0  0  0  0  0  0
  -22.5090   -8.1640   21.3480 C   0  0  0  0  0  0  0  0  0  0  0  0
  -22.0880   -9.1070   20.3960 C   0  0  0  0  0  3  0  0  0  0  0  0
  -22.8070  -10.2990   20.2020 C   0  0  0  0  0  3  0  0  0  0  0  0
  -21.7600   -7.0160   21.4490 O   0  0  0  0  0  0  0  0  0  0  0  0
  -21.7170   -6.2850   22.6100 C   0  0  0  0  0  0  0  0  0  0  0  0
  -21.2840   -6.8490   23.8290 C   0  0  0  0  0  3  0  0  0  0  0  0
  -21.1870   -6.0440   24.9820 C   0  0  0  0  0  3  0  0  0  0  0  0
  -21.5150   -4.6770   24.9160 C   0  0  0  0  0  0  0  0  0  0  0  0
  -21.9410   -4.1120   23.7010 C   0  0  0  0  0  3  0  0  0  0  0  0
  -22.0390   -4.9140   22.5510 C   0  0  0  0  0  0  0  0  0  0  0  0
  -22.4290   -4.3600   21.3770 F   0  0  0  0  0  0  0  0  0  0  0  0
  -21.4130   -3.9010   26.0210 F   0  0  0  0  0  0  0  0  0  0  0  0
  -22.8070  -13.6560   21.0620 C   0  0  0  0  0  0  0  0  0  0  0  0
  -22.0870  -12.9630   21.9380 N   0  0  0  0  0  0  0  0  0  0  0  0
  -22.3620  -14.6750   20.5370 O   0  0  0  0  0  0  0  0  0  0  0  0
  -22.4610  -12.1420   22.3900 H   0  0  0  0  0  0  0  0  0  0  0  0
  -21.1490  -13.2630   22.1640 H   0  0  0  0  0  0  0  0  0  0  0  0
  -25.4120  -15.3360   20.2150 N   0  0  0  0  0  0  0  0  0  0  0  0
  -24.6410  -15.9820   20.3390 H   0  0  0  0  0  0  0  0  0  0  0  0
  -26.2420  -15.7820   19.8450 H   0  0  0  0  0  0  0  0  0  0  0  0
  -31.5120  -19.0180   22.7380 C   0  0  0  0  0  1  0  0  0  0  0  0
  -31.7040  -19.6560   21.4810 O   0  0  0  0  0  0  0  0  0  0  0  0
  -28.4290  -23.5250   20.7400 C   0  0  0  0  0  2  0  0  0  0  0  0
  -28.4240  -24.8750   19.7660 C   0  0  0  0  0  2  0  0  0  0  0  0
  -28.3620  -26.3450   20.2510 O   0  0  0  0  0  0  0  0  0  0  0  0
  -24.6320  -31.9050   23.2220 C   0  0  0  0  0  0  0  0  0  0  0  0
  -27.2600  -27.2590   20.1590 C   0  0  0  0  0  0  0  0  0  0  0  0
  -23.4450  -30.5100   21.5660 C   0  0  0  0  0  3  0  0  0  0  0  0
  -24.9100  -28.9570   20.1370 C   0  0  0  0  0  0  0  0  0  0  0  0
  -25.9940  -30.8060   21.4100 C   0  0  0  0  0  2  0  0  0  0  0  0
  -26.0790  -29.4210   20.7490 C   0  0  0  0  0  0  0  0  0  0  0  0
  -27.2530  -28.5840   20.7440 C   0  0  0  0  0  3  0  0  0  0  0  0
  -26.0610  -26.8820   19.5150 C   0  0  0  0  0  3  0  0  0  0  0  0
  -24.9110  -27.7010   19.5100 C   0  0  0  0  0  3  0  0  0  0  0  0
  -23.6750  -29.8410   20.1840 C   0  0  0  0  0  2  0  0  0  0  0  0
  -24.7090  -31.0960   22.1190 N   0  0  0  0  0  0  0  0  0  0  0  0
  -23.5430  -32.1760   23.7510 O   0  0  0  0  0  0  0  0  0  0  0  0
  -22.7770  -29.4900   22.5210 C   0  0  0  0  0  0  0  0  0  0  0  0
  -21.4520  -29.3060   22.3860 N   0  0  0  0  0  0  0  0  0  0  0  0
  -23.4510  -28.8700   23.3470 O   0  0  0  0  0  0  0  0  0  0  0  0
  -20.9650  -29.8650   21.6990 H   0  0  0  0  0  0  0  0  0  0  0  0
  -18.0810  -28.0660   22.8570 C   0  0  0  0  0  0  0  0  0  0  0  0
  -20.6340  -28.3570   23.1470 C   0  0  0  0  0  3  0  0  0  0  0  0
  -20.7550  -26.9280   22.5690 C   0  0  0  0  0  2  0  0  0  0  0  0
  -19.6670  -26.5950   21.5430 C   0  0  0  0  0  2  0  0  0  0  0  0
  -18.2790  -26.7210   22.1760 C   0  0  0  0  0  2  0  0  0  0  0  0
  -19.1870  -28.8410   23.2980 C   0  0  0  0  0  0  0  0  0  0  0  0
  -18.9480  -30.0970   23.8970 C   0  0  0  0  0  3  0  0  0  0  0  0
  -17.6360  -30.5820   24.0540 C   0  0  0  0  0  3  0  0  0  0  0  0
  -16.5450  -29.8050   23.6290 C   0  0  0  0  0  3  0  0  0  0  0  0
  -16.7670  -28.5480   23.0380 C   0  0  0  0  0  3  0  0  0  0  0  0
  -25.9050  -32.5440   23.8570 C   0  0  0  0  0  3  0  0  0  0  0  0
  -26.4090  -31.7800   25.1440 C   0  0  1  0  0  0  0  0  0  0  0  0
  -25.3050  -31.5480   26.2040 C   0  0  0  0  0  1  0  0  0  0  0  0
  -26.9940  -30.4000   24.7700 C   0  0  0  0  0  1  0  0  0  0  0  0
  -27.5520  -32.5790   25.8130 C   0  0  0  0  0  1  0  0  0  0  0  0
  -25.5880  -33.9430   24.1820 N   0  0  0  0  0  0  0  0  0  0  0  0
  -25.9180  -34.9980   23.4250 C   0  0  0  0  0  0  0  0  0  0  0  0
  -26.5900  -34.8950   22.3950 O   0  0  0  0  0  0  0  0  0  0  0  0
  -24.9930  -34.0970   24.9820 H   0  0  0  0  0  0  0  0  0  0  0  0
  -24.1860  -36.7890   23.0730 C   0  0  0  0  0  1  0  0  0  0  0  0
  -25.4290  -36.3860   23.8830 C   0  0  0  0  0  3  0  0  0  0  0  0
  -27.5590  -37.2820   24.7130 C   0  0  0  0  0  1  0  0  0  0  0  0
  -26.4570  -37.4430   23.7690 N   0  0  0  0  0  0  0  0  0  0  0  0
  -26.0470  -38.3620   23.9140 H   0  0  0  0  0  0  0  0  0  0  0  0
  1  6  1  0
  2 51  1  0
  2  1  2  0
  3  1  1  0
  3 50  1  0
  4  2  1  0
  5  3  2  0
  7  4  1  0
  8  4  2  0
  8  5  1  0
  9 10  1  0
 10  5  1  0
 10 19  2  0
 11 19  1  0
 12 17  1  0
 13 14  1  0
 13 12  1  0
 15 14  1  0
 15 24  1  0
 15 16  1  0
 17 11  1  0
 17 16  1  0
 18 11  2  0
 19 20  1  0
 21 22  2  0
 22 41  1  0
 23 22  1  0
 23 26  1  0
 24 21  1  0
 24 25  1  0
 25 23  2  0
 26 27  1  0
 27 28  2  0
 29 32  1  0
 29 28  1  0
 30 29  2  0
 31 30  1  0
 31 26  2  0
 32 33  1  0
 33 34  1  0
 34 35  2  0
 36 35  1  0
 36 40  1  0
 37 36  2  0
 38 33  2  0
 38 37  1  0
 39 38  1  0
 41 42  1  0
 42 45  1  0
 42 44  1  0
 43 41  2  0
 46 47  1  0
 46 21  1  0
 48 46  1  0
 50 49  1  0
 52 53  1  0
 52 51  1  0
 54 65  2  0
 55 53  1  0
 55 60  1  0
 56 64  1  0
 56 66  1  0
 57 63  1  0
 57 59  1  0
 58 64  1  0
 59 58  1  0
 60 59  2  0
 61 55  2  0
 62 61  1  0
 62 57  2  0
 63 56  1  0
 64 54  1  0
 66 68  2  0
 67 66  1  0
 69 67  1  0
 70 79  2  0
 70 75  1  0
 71 67  1  0
 71 75  1  0
 72 71  1  0
 73 74  1  0
 73 72  1  0
 74 70  1  0
 75 76  2  0
 76 77  1  0
 78 77  2  0
 79 78  1  0
 80 54  1  0
 80 85  1  0
 80 81  1  0
 81 84  1  1
 81 82  1  0
 83 81  1  0
 85 88  1  0
 86 90  1  0
 86 85  1  0
 87 86  2  0
 90 89  1  0
 92 90  1  0
 92 93  1  0
 92 91  1  0
M  ISO  4  11 100  19 100  52 101  53 101
M  END
>  <TORSDO>  (59) 
F 20

>  <SCORE>  (59) 
-13.849

>  <name>  (59) 
58

>  <ligand_id>  (59) 
58

>  <original_smiles>  (59) 
[H]c1c([H])c([H])c2c(c1[H])C([H])([H])C([H])([H])C([H])([H])C2([H])N([H])C(=O)C1([H])N(C(=O)C([H])(N([H])C(=O)C([H])(N([H])C([H])([H])[H])C([H])([H])[H])C(C([H])([H])[H])(C([H])([H])[H])C([H])([H])[H])C([H])([H])c2c([H])c(OC([H])([H])C([H])([H])c3c(C([H])([H])[H])nc(C([H])(N([H])C(=O)N4C([H])([H])C([H])([H])C([H])([H])C([H])(n5nc(-c6c([H])c([H])c(Oc7c([H])c([H])c(F)c([H])c7F)c([H])c6[H])c(C(=O)N([H])[H])c5N([H])[H])C4([H])[H])C([H])([H])[H])c(OC([H])([H])[H])c3C([H])([H])[H])c([H])c([H])c2C1([H])[H]

>  <smiles>  (59) 
[H]c1c([H])c([H])c2c(c1[H])C([H])([H])C([H])([H])C([H])([H])C2([H])N([H])C(=O)C1([H])N(C(=O)C([H])(N([H])C(=O)C([H])(N([H])C([H])([H])[H])C([H])([H])[H])C(C([H])([H])[H])(C([H])([H])[H])C([H])([H])[H])C([H])([H])c2c([H])c(OC([H])([H])C([H])([H])c3c(C([H])([H])[H])nc(C([H])(N([H])C(=O)N4C([H])([H])C([H])([H])C([H])([H])C([H])(n5nc(-c6c([H])c([H])c(Oc7c([H])c([H])c(F)c([H])c7F)c([H])c6[H])c(C(=O)N([H])[H])c5N([H])[H])C4([H])[H])C([H])([H])[H])c(OC([H])([H])[H])c3C([H])([H])[H])c([H])c([H])c2C1([H])[H]

$$$$
59:0:0
     RDKit          3D

 97106  0  0  1  0  0  0  0  0999 V2000
  -29.3370  -23.4570   20.6520 C   0  0  0  0  0  0  0  0  0  0  0  0
  -28.1060  -23.2040   18.5580 C   0  0  0  0  0  0  0  0  0  0  0  0
  -28.7480  -24.0760   19.5000 C   0  0  0  0  0  0  0  0  0  0  0  0
  -29.2180  -22.0460   20.8940 C   0  0  0  0  0  0  0  0  0  0  0  0
  -28.0460  -21.7890   18.7770 C   0  0  0  0  0  0  0  0  0  0  0  0
  -28.5950  -21.1920   19.9440 C   0  0  0  0  0  0  0  0  0  0  0  0
  -30.1290  -24.2980   21.6510 C   0  0  0  0  0  1  0  0  0  0  0  0
  -27.4900  -23.7270   17.2530 C   0  0  0  0  0  1  0  0  0  0  0  0
  -29.6900  -21.4460   22.2180 C   0  0  0  0  0  1  0  0  0  0  0  0
  -25.8550  -20.6980   18.0400 C   0  0  0  0  0  1  0  0  0  0  0  0
  -27.3550  -20.8730   17.7530 C   0  0  0  0  0  2  0  0  0  0  0  0
  -28.3580  -19.7990   20.1530 N   0  0  0  0  0  0  0  0  0  0  0  0
  -27.4990  -19.4870   19.7180 H   0  0  0  0  0  0  0  0  0  0  0  0
  -30.8770  -14.5260   19.8410 C   0  0  0  0  0  0  0  0  0  0  0  0
  -30.5070  -12.2790   18.8510 C   0  0  0  0  0  2  0  0  0  0  0  0
  -29.4800  -12.3620   17.7030 C   0  0  0  0  0  2  0  0  0  0  0  0
  -28.0340  -12.2760   18.2340 C   0  0  0  0  0  2  0  0  0  0  0  0
  -27.7880  -13.1840   19.4730 C   0  0  0  0  0  3  0  0  0  0  0  0
  -28.9200  -12.9940   20.5010 C   0  0  0  0  0  2  0  0  0  0  0  0
  -30.1710  -13.3480   19.8170 N   0  0  0  0  0  0  0  0  0  0  0  0
  -32.0370  -14.5350   19.4090 O   0  0  0  0  0  0  0  0  0  0  0  0
  -29.8980  -18.1510   18.9850 C   0  0  0  0  0  2  0  0  0  0  0  0
  -28.6450  -17.4790   20.9680 C   0  0  0  0  0  2  0  0  0  0  0  0
  -30.7990  -16.8910   19.1810 C   0  0  0  0  0  2  0  0  0  0  0  0
  -29.5720  -16.2430   21.1690 C   0  0  0  0  0  2  0  0  0  0  0  0
  -29.3340  -18.6950   20.3110 C   0  0  0  0  0  3  0  0  0  0  0  0
  -30.2040  -15.7370   19.9270 N   0  0  0  0  0  0  0  0  0  0  0  0
  -25.4930  -13.8680   20.4040 C   0  0  0  0  0  0  0  0  0  0  0  0
  -24.4220  -13.1300   20.8310 C   0  0  0  0  0  0  0  0  0  0  0  0
  -24.8090  -11.7620   20.7060 C   0  0  0  0  0  0  0  0  0  0  0  0
  -26.4700  -12.9480   20.0570 N   0  0  0  0  0  0  0  0  0  0  0  0
  -26.0670  -11.6730   20.2920 N   0  0  0  0  0  0  0  0  0  0  0  0
  -24.0340  -10.5290   20.9000 C   0  0  0  0  0  0  0  0  0  0  0  0
  -24.4540   -9.5260   21.8030 C   0  0  0  0  0  3  0  0  0  0  0  0
  -23.6810   -8.3590   21.9860 C   0  0  0  0  0  3  0  0  0  0  0  0
  -22.4740   -8.1870   21.2670 C   0  0  0  0  0  0  0  0  0  0  0  0
  -22.0710   -9.1780   20.3540 C   0  0  0  0  0  3  0  0  0  0  0  0
  -22.8460  -10.3360   20.1670 C   0  0  0  0  0  3  0  0  0  0  0  0
  -21.6730   -7.0750   21.3650 O   0  0  0  0  0  0  0  0  0  0  0  0
  -21.5920   -6.3460   22.5250 C   0  0  0  0  0  0  0  0  0  0  0  0
  -21.1870   -6.9280   23.7460 C   0  0  0  0  0  3  0  0  0  0  0  0
  -21.0470   -6.1280   24.8970 C   0  0  0  0  0  3  0  0  0  0  0  0
  -21.3030   -4.7470   24.8280 C   0  0  0  0  0  0  0  0  0  0  0  0
  -21.7050   -4.1630   23.6130 C   0  0  0  0  0  3  0  0  0  0  0  0
  -21.8440   -4.9600   22.4640 C   0  0  0  0  0  0  0  0  0  0  0  0
  -22.2070   -4.3890   21.2900 F   0  0  0  0  0  0  0  0  0  0  0  0
  -21.1650   -3.9740   25.9310 F   0  0  0  0  0  0  0  0  0  0  0  0
  -23.0790  -13.6660   21.2390 C   0  0  0  0  0  0  0  0  0  0  0  0
  -22.3910  -12.9750   22.1410 N   0  0  0  0  0  0  0  0  0  0  0  0
  -22.6530  -14.7310   20.7960 O   0  0  0  0  0  0  0  0  0  0  0  0
  -22.7470  -12.1070   22.5150 H   0  0  0  0  0  0  0  0  0  0  0  0
  -21.4950  -13.3180   22.4580 H   0  0  0  0  0  0  0  0  0  0  0  0
  -25.7090  -15.2330   20.2580 N   0  0  0  0  0  0  0  0  0  0  0  0
  -24.9800  -15.9170   20.4270 H   0  0  0  0  0  0  0  0  0  0  0  0
  -26.5500  -15.6300   19.8590 H   0  0  0  0  0  0  0  0  0  0  0  0
  -28.9500  -25.6130   19.2000 C   0  0  0  0  0  2  0  0  0  0  0  0
  -28.6050  -26.6200   20.2050 O   0  0  0  0  0  0  0  0  0  0  0  0
  -24.5240  -31.7240   23.1750 C   0  0  0  0  0  0  0  0  0  0  0  0
  -27.4150  -27.3460   20.1340 C   0  0  0  0  0  0  0  0  0  0  0  0
  -23.4180  -30.2850   21.4980 C   0  0  0  0  0  3  0  0  0  0  0  0
  -24.9670  -28.8130   20.0970 C   0  0  0  0  0  0  0  0  0  0  0  0
  -25.9420  -30.7250   21.3760 C   0  0  0  0  0  2  0  0  0  0  0  0
  -26.0950  -29.3620   20.7180 C   0  0  0  0  0  0  0  0  0  0  0  0
  -27.3170  -28.6350   20.7330 C   0  0  0  0  0  3  0  0  0  0  0  0
  -26.2540  -26.8230   19.5240 C   0  0  0  0  0  3  0  0  0  0  0  0
  -25.0450  -27.5450   19.4960 C   0  0  0  0  0  3  0  0  0  0  0  0
  -23.6850  -29.6190   20.1220 C   0  0  0  0  0  2  0  0  0  0  0  0
  -24.6440  -30.9300   22.0720 N   0  0  0  0  0  0  0  0  0  0  0  0
  -23.4170  -31.9520   23.6840 O   0  0  0  0  0  0  0  0  0  0  0  0
  -22.7820  -29.2360   22.4380 C   0  0  0  0  0  0  0  0  0  0  0  0
  -21.4680  -29.0050   22.2800 N   0  0  0  0  0  0  0  0  0  0  0  0
  -23.4680  -28.6300   23.2650 O   0  0  0  0  0  0  0  0  0  0  0  0
  -20.9750  -29.5430   21.5820 H   0  0  0  0  0  0  0  0  0  0  0  0
  -18.1280  -27.6880   22.7060 C   0  0  0  0  0  0  0  0  0  0  0  0
  -20.6710  -28.0290   23.0220 C   0  0  0  0  0  3  0  0  0  0  0  0
  -20.8320  -26.6100   22.4280 C   0  0  0  0  0  2  0  0  0  0  0  0
  -19.7580  -26.2640   21.3930 C   0  0  0  0  0  2  0  0  0  0  0  0
  -18.3620  -26.3560   22.0130 C   0  0  0  0  0  2  0  0  0  0  0  0
  -19.2130  -28.4820   23.1630 C   0  0  0  0  0  0  0  0  0  0  0  0
  -18.9410  -29.7290   23.7660 C   0  0  0  0  0  3  0  0  0  0  0  0
  -17.6160  -30.1820   23.9160 C   0  0  0  0  0  3  0  0  0  0  0  0
  -16.5470  -29.3850   23.4740 C   0  0  0  0  0  3  0  0  0  0  0  0
  -16.8030  -28.1390   22.8750 C   0  0  0  0  0  3  0  0  0  0  0  0
  -25.7660  -32.4040   23.8330 C   0  0  0  0  0  3  0  0  0  0  0  0
  -26.2710  -31.6570   25.1280 C   0  0  1  0  0  0  0  0  0  0  0  0
  -25.1520  -31.3790   26.1590 C   0  0  0  0  0  1  0  0  0  0  0  0
  -26.9180  -30.3010   24.7650 C   0  0  0  0  0  1  0  0  0  0  0  0
  -27.3680  -32.4970   25.8240 C   0  0  0  0  0  1  0  0  0  0  0  0
  -25.3920  -33.7900   24.1480 N   0  0  0  0  0  0  0  0  0  0  0  0
  -25.7080  -34.8530   23.3990 C   0  0  0  0  0  0  0  0  0  0  0  0
  -26.4140  -34.7750   22.3900 O   0  0  0  0  0  0  0  0  0  0  0  0
  -24.7670  -33.9250   24.9300 H   0  0  0  0  0  0  0  0  0  0  0  0
  -23.9260  -36.5790   22.9870 C   0  0  0  0  0  1  0  0  0  0  0  0
  -25.1550  -36.2220   23.8390 C   0  0  0  0  0  3  0  0  0  0  0  0
  -27.2330  -37.1810   24.7310 C   0  0  0  0  0  1  0  0  0  0  0  0
  -26.1480  -37.3160   23.7620 N   0  0  0  0  0  0  0  0  0  0  0  0
  -25.7040  -38.2180   23.9040 H   0  0  0  0  0  0  0  0  0  0  0  0
  1  4  1  0
  1  7  1  0
  2  5  2  0
  2  3  1  0
  3  1  2  0
  4  9  1  0
  5  6  1  0
  6 12  1  0
  6  4  2  0
  8  2  1  0
 11 10  1  0
 11  5  1  0
 13 12  1  0
 14 27  1  0
 15 20  1  0
 16 17  1  0
 16 15  1  0
 18 17  1  0
 18 31  1  0
 18 19  1  0
 20 14  1  0
 20 19  1  0
 21 14  2  0
 22 24  1  0
 22 26  1  0
 23 25  1  0
 24 27  1  0
 26 12  1  0
 26 23  1  0
 27 25  1  0
 28 29  2  0
 29 48  1  0
 30 29  1  0
 30 33  1  0
 31 32  1  0
 31 28  1  0
 32 30  2  0
 33 34  1  0
 34 35  2  0
 36 39  1  0
 36 35  1  0
 37 36  2  0
 38 37  1  0
 38 33  2  0
 39 40  1  0
 40 41  1  0
 41 42  2  0
 43 42  1  0
 43 47  1  0
 44 43  2  0
 45 40  2  0
 45 44  1  0
 46 45  1  0
 48 49  1  0
 49 52  1  0
 49 51  1  0
 50 48  2  0
 53 28  1  0
 53 54  1  0
 55 53  1  0
 56  3  1  0
 56 57  1  0
 58 69  2  0
 59 57  1  0
 59 64  1  0
 60 68  1  0
 60 70  1  0
 61 67  1  0
 61 63  1  0
 62 68  1  0
 63 64  2  0
 63 62  1  0
 65 59  2  0
 66 65  1  0
 66 61  2  0
 67 60  1  0
 68 58  1  0
 70 72  2  0
 71 70  1  0
 73 71  1  0
 74 83  2  0
 74 79  1  0
 75 71  1  0
 75 79  1  0
 76 75  1  0
 77 78  1  0
 77 76  1  0
 78 74  1  0
 79 80  2  0
 80 81  1  0
 82 81  2  0
 83 82  1  0
 84 58  1  0
 84 89  1  0
 84 85  1  0
 85 88  1  1
 85 86  1  0
 87 85  1  0
 89 92  1  0
 90 94  1  0
 90 89  1  0
 91 90  2  0
 94 93  1  0
 96 94  1  0
 96 97  1  0
 96 95  1  0
M  ISO  4  14 100  27 100  56 101  57 101
M  END
>  <TORSDO>  (60) 
F 19

>  <SCORE>  (60) 
-14.140

>  <name>  (60) 
59

>  <ligand_id>  (60) 
59

>  <original_smiles>  (60) 
[H]c1c([H])c([H])c2c(c1[H])C([H])([H])C([H])([H])C([H])([H])C2([H])N([H])C(=O)C1([H])N(C(=O)C([H])(N([H])C(=O)C([H])(N([H])C([H])([H])[H])C([H])([H])[H])C(C([H])([H])[H])(C([H])([H])[H])C([H])([H])[H])C([H])([H])c2c([H])c(OC([H])([H])c3c(C([H])([H])[H])c(C([H])([H])[H])c(N([H])C4([H])C([H])([H])C([H])([H])N(C(=O)N5C([H])([H])C([H])([H])C([H])([H])C([H])(n6nc(-c7c([H])c([H])c(Oc8c([H])c([H])c(F)c([H])c8F)c([H])c7[H])c(C(=O)N([H])[H])c6N([H])[H])C5([H])[H])C([H])([H])C4([H])[H])c(C([H])([H])C([H])([H])[H])c3C([H])([H])[H])c([H])c([H])c2C1([H])[H]

>  <smiles>  (60) 
[H]c1c([H])c([H])c2c(c1[H])C([H])([H])C([H])([H])C([H])([H])C2([H])N([H])C(=O)C1([H])N(C(=O)C([H])(N([H])C(=O)C([H])(N([H])C([H])([H])[H])C([H])([H])[H])C(C([H])([H])[H])(C([H])([H])[H])C([H])([H])[H])C([H])([H])c2c([H])c(OC([H])([H])c3c(C([H])([H])[H])c(C([H])([H])[H])c(N([H])C4([H])C([H])([H])C([H])([H])N(C(=O)N5C([H])([H])C([H])([H])C([H])([H])C([H])(n6nc(-c7c([H])c([H])c(Oc8c([H])c([H])c(F)c([H])c8F)c([H])c7[H])c(C(=O)N([H])[H])c6N([H])[H])C5([H])[H])C([H])([H])C4([H])[H])c(C([H])([H])C([H])([H])[H])c3C([H])([H])[H])c([H])c([H])c2C1([H])[H]

$$$$
60:0:0
     RDKit          3D

 91100  0  0  1  0  0  0  0  0999 V2000
  -30.3910  -15.4360   20.3210 C   0  0  0  0  0  0  0  0  0  0  0  0
  -30.3830  -12.9450   19.4840 C   0  0  0  0  0  2  0  0  0  0  0  0
  -29.4830  -12.6320   18.2610 C   0  0  0  0  0  2  0  0  0  0  0  0
  -28.0470  -12.3180   18.7130 C   0  0  0  0  0  2  0  0  0  0  0  0
  -27.5530  -13.3200   19.7830 C   0  0  0  0  0  3  0  0  0  0  0  0
  -28.5910  -13.5940   20.8950 C   0  0  0  0  0  2  0  0  0  0  0  0
  -29.7980  -14.1260   20.2330 N   0  0  0  0  0  0  0  0  0  0  0  0
  -31.6300  -15.3540   20.2760 O   0  0  0  0  0  0  0  0  0  0  0  0
  -29.2690  -21.3250   20.7270 C   0  0  0  0  0  3  0  0  0  0  0  0
  -27.6580  -22.1110   19.1560 C   0  0  0  0  0  3  0  0  0  0  0  0
  -29.2330  -19.8410   20.2620 C   0  0  0  0  0  0  0  0  0  0  0  0
  -28.3290  -19.6490   19.2100 C   0  0  0  0  0  3  0  0  0  0  0  0
  -28.5010  -22.5680   20.2030 C   0  0  0  0  0  0  0  0  0  0  0  0
  -27.5540  -20.7450   18.6930 C   0  0  0  0  0  0  0  0  0  0  0  0
  -28.2450  -18.2190   18.6130 C   0  0  0  0  0  3  0  0  0  0  0  0
  -30.0410  -18.3630   20.7030 C   0  0  0  0  0  3  0  0  0  0  0  0
  -28.4070  -16.9590   19.5640 C   0  0  0  0  0  3  0  0  0  0  0  0
  -29.6890  -16.7880   20.2890 N   0  0  0  0  0  0  0  0  0  0  0  0
  -25.1910  -13.8870   20.5350 C   0  0  0  0  0  0  0  0  0  0  0  0
  -24.1240  -13.1170   20.8930 C   0  0  0  0  0  0  0  0  0  0  0  0
  -24.5890  -11.7650   20.8690 C   0  0  0  0  0  0  0  0  0  0  0  0
  -26.2320  -13.0090   20.2990 N   0  0  0  0  0  0  0  0  0  0  0  0
  -25.8840  -11.7260   20.5710 N   0  0  0  0  0  0  0  0  0  0  0  0
  -23.8600  -10.5070   21.0530 C   0  0  0  0  0  0  0  0  0  0  0  0
  -24.2840   -9.5390   21.9900 C   0  0  0  0  0  3  0  0  0  0  0  0
  -23.5530   -8.3440   22.1600 C   0  0  0  0  0  3  0  0  0  0  0  0
  -22.3860   -8.1090   21.3950 C   0  0  0  0  0  0  0  0  0  0  0  0
  -21.9840   -9.0650   20.4450 C   0  0  0  0  0  3  0  0  0  0  0  0
  -22.7150  -10.2520   20.2730 C   0  0  0  0  0  3  0  0  0  0  0  0
  -21.6250   -6.9680   21.4770 O   0  0  0  0  0  0  0  0  0  0  0  0
  -21.5620   -6.2300   22.6320 C   0  0  0  0  0  0  0  0  0  0  0  0
  -21.1290   -6.7910   23.8520 C   0  0  0  0  0  3  0  0  0  0  0  0
  -21.0100   -5.9790   24.9970 C   0  0  0  0  0  3  0  0  0  0  0  0
  -21.3120   -4.6050   24.9210 C   0  0  0  0  0  0  0  0  0  0  0  0
  -21.7360   -4.0450   23.7040 C   0  0  0  0  0  3  0  0  0  0  0  0
  -21.8570   -4.8530   22.5610 C   0  0  0  0  0  0  0  0  0  0  0  0
  -22.2490   -4.3040   21.3870 F   0  0  0  0  0  0  0  0  0  0  0  0
  -21.1880   -3.8240   26.0180 F   0  0  0  0  0  0  0  0  0  0  0  0
  -22.7260  -13.5990   21.1430 C   0  0  0  0  0  0  0  0  0  0  0  0
  -21.9860  -12.9090   22.0000 N   0  0  0  0  0  0  0  0  0  0  0  0
  -22.3000  -14.6240   20.6110 O   0  0  0  0  0  0  0  0  0  0  0  0
  -22.3480  -12.0790   22.4480 H   0  0  0  0  0  0  0  0  0  0  0  0
  -21.0480  -13.2130   22.2130 H   0  0  0  0  0  0  0  0  0  0  0  0
  -25.3540  -15.2570   20.3540 N   0  0  0  0  0  0  0  0  0  0  0  0
  -24.5860  -15.9090   20.4520 H   0  0  0  0  0  0  0  0  0  0  0  0
  -26.2070  -15.6910   20.0350 H   0  0  0  0  0  0  0  0  0  0  0  0
  -29.0740  -24.3800   22.0820 C   0  0  0  0  0  1  0  0  0  0  0  0
  -28.2320  -24.2260   20.8090 C   0  0  0  0  0  3  0  0  0  0  0  0
  -28.2600  -25.7890   20.2030 O   0  0  0  0  0  0  0  0  0  0  0  0
  -24.6200  -31.8450   23.1800 C   0  0  0  0  0  0  0  0  0  0  0  0
  -27.2340  -26.8950   20.2650 C   0  0  0  0  0  0  0  0  0  0  0  0
  -23.4520  -30.4190   21.5510 C   0  0  0  0  0  3  0  0  0  0  0  0
  -24.9250  -28.7930   20.1740 C   0  0  0  0  0  0  0  0  0  0  0  0
  -26.0230  -30.6350   21.4250 C   0  0  0  0  0  2  0  0  0  0  0  0
  -26.1110  -29.2080   20.7940 C   0  0  0  0  0  0  0  0  0  0  0  0
  -27.2620  -28.2850   20.8050 C   0  0  0  0  0  3  0  0  0  0  0  0
  -26.0110  -26.6440   19.6050 C   0  0  0  0  0  3  0  0  0  0  0  0
  -24.9010  -27.5310   19.5600 C   0  0  0  0  0  3  0  0  0  0  0  0
  -23.7020  -29.7140   20.1890 C   0  0  0  0  0  2  0  0  0  0  0  0
  -24.7190  -30.9950   22.1050 N   0  0  0  0  0  0  0  0  0  0  0  0
  -23.5230  -32.1350   23.6850 O   0  0  0  0  0  0  0  0  0  0  0  0
  -22.7550  -29.4340   22.5270 C   0  0  0  0  0  0  0  0  0  0  0  0
  -21.4230  -29.2760   22.4090 N   0  0  0  0  0  0  0  0  0  0  0  0
  -23.4220  -28.8140   23.3590 O   0  0  0  0  0  0  0  0  0  0  0  0
  -20.9370  -29.8320   21.7190 H   0  0  0  0  0  0  0  0  0  0  0  0
  -18.0420  -28.0740   22.9290 C   0  0  0  0  0  0  0  0  0  0  0  0
  -20.6010  -28.3440   23.1880 C   0  0  0  0  0  3  0  0  0  0  0  0
  -20.7010  -26.9090   22.6160 C   0  0  0  0  0  2  0  0  0  0  0  0
  -19.6010  -26.5940   21.5980 C   0  0  0  0  0  2  0  0  0  0  0  0
  -18.2200  -26.7300   22.2450 C   0  0  0  0  0  2  0  0  0  0  0  0
  -19.1600  -28.8410   23.3560 C   0  0  0  0  0  0  0  0  0  0  0  0
  -18.9360  -30.1000   23.9540 C   0  0  0  0  0  3  0  0  0  0  0  0
  -17.6280  -30.5930   24.1300 C   0  0  0  0  0  3  0  0  0  0  0  0
  -16.5260  -29.8220   23.7220 C   0  0  0  0  0  3  0  0  0  0  0  0
  -16.7340  -28.5650   23.1270 C   0  0  0  0  0  3  0  0  0  0  0  0
  -25.8790  -32.5080   23.8160 C   0  0  0  0  0  3  0  0  0  0  0  0
  -25.5400  -33.9040   24.1470 N   0  0  0  0  0  0  0  0  0  0  0  0
  -25.8620  -34.9710   23.4040 C   0  0  0  0  0  0  0  0  0  0  0  0
  -26.5360  -34.8850   22.3740 O   0  0  0  0  0  0  0  0  0  0  0  0
  -24.9400  -34.0430   24.9470 H   0  0  0  0  0  0  0  0  0  0  0  0
  -24.1120  -36.7530   23.0720 C   0  0  0  0  0  1  0  0  0  0  0  0
  -25.3590  -36.3510   23.8760 C   0  0  0  0  0  3  0  0  0  0  0  0
  -27.4820  -37.2610   24.7120 C   0  0  0  0  0  1  0  0  0  0  0  0
  -26.3770  -37.4190   23.7690 N   0  0  0  0  0  0  0  0  0  0  0  0
  -25.9570  -38.3310   23.9220 H   0  0  0  0  0  0  0  0  0  0  0  0
  -26.3870  -31.7570   25.1090 C   0  0  1  0  0  0  0  0  0  0  0  0
  -25.2840  -31.5250   26.1680 C   0  0  0  0  0  1  0  0  0  0  0  0
  -26.9860  -30.3780   24.7510 C   0  0  0  0  0  1  0  0  0  0  0  0
  -27.5230  -32.5690   25.7760 C   0  0  0  0  0  1  0  0  0  0  0  0
  -25.4120  -21.1150   17.6910 C   0  0  0  0  0  1  0  0  0  0  0  0
  -26.6570  -20.4210   17.6960 O   0  0  0  0  0  0  0  0  0  0  0  0
  2  7  1  0
  3  4  1  0
  3  2  1  0
  5  4  1  0
  5 22  1  0
  5  6  1  0
  7  1  1  0
  7  6  1  0
  8  1  2  0
 10 13  1  0
 11 16  2  0
 11  9  1  0
 12 15  1  0
 12 11  1  0
 13  9  2  0
 13 48  1  0
 14 10  2  0
 14 12  1  0
 15 17  2  0
 17 18  1  0
 18  1  1  0
 18 16  1  0
 19 20  2  0
 20 39  1  0
 21 20  1  0
 21 24  1  0
 22 19  1  0
 22 23  1  0
 23 21  2  0
 24 25  1  0
 25 26  2  0
 27 30  1  0
 27 26  1  0
 28 27  2  0
 29 28  1  0
 29 24  2  0
 30 31  1  0
 31 32  1  0
 32 33  2  0
 34 33  1  0
 34 38  1  0
 35 34  2  0
 36 31  2  0
 36 35  1  0
 37 36  1  0
 39 40  1  0
 40 43  1  0
 40 42  1  0
 41 39  2  0
 44 45  1  0
 44 19  1  0
 46 44  1  0
 48 47  1  0
 49 51  1  0
 49 48  1  0
 50 61  2  0
 51 56  1  0
 52 60  1  0
 52 62  1  0
 53 59  1  0
 53 55  1  0
 54 60  1  0
 55 56  2  0
 55 54  1  0
 57 51  2  0
 58 57  1  0
 58 53  2  0
 59 52  1  0
 60 50  1  0
 62 64  2  0
 63 62  1  0
 65 63  1  0
 66 75  2  0
 66 71  1  0
 67 63  1  0
 67 71  1  0
 68 67  1  0
 69 70  1  0
 69 68  1  0
 70 66  1  0
 71 72  2  0
 72 73  1  0
 74 73  2  0
 75 74  1  0
 76 50  1  0
 76 77  1  0
 76 86  1  0
 77 80  1  0
 78 82  1  0
 78 77  1  0
 79 78  2  0
 82 81  1  0
 84 82  1  0
 84 85  1  0
 84 83  1  0
 86 89  1  1
 86 87  1  0
 88 86  1  0
 90 91  1  0
 91 14  1  0
M  ISO  4   1 100  18 100  48 101  49 101
M  END
>  <TORSDO>  (61) 
F 17

>  <SCORE>  (61) 
-16.855

>  <name>  (61) 
60

>  <ligand_id>  (61) 
60

>  <original_smiles>  (61) 
[H]c1c([H])c([H])c2c(c1[H])C([H])([H])C([H])([H])C([H])([H])C2([H])N([H])C(=O)C1([H])N(C(=O)C([H])(N([H])C(=O)C([H])(N([H])C([H])([H])[H])C([H])([H])[H])C(C([H])([H])[H])(C([H])([H])[H])C([H])([H])[H])C([H])([H])c2c([H])c(OC([H])(c3c([H])c(OC([H])([H])[H])c4c(c3[H])C([H])([H])N(C(=O)N3C([H])([H])C([H])([H])C([H])([H])C([H])(n5nc(-c6c([H])c([H])c(Oc7c([H])c([H])c(F)c([H])c7F)c([H])c6[H])c(C(=O)N([H])[H])c5N([H])[H])C3([H])[H])C([H])([H])C4([H])[H])C([H])([H])[H])c([H])c([H])c2C1([H])[H]

>  <smiles>  (61) 
[H]c1c([H])c([H])c2c(c1[H])C([H])([H])C([H])([H])C([H])([H])C2([H])N([H])C(=O)C1([H])N(C(=O)C([H])(N([H])C(=O)C([H])(N([H])C([H])([H])[H])C([H])([H])[H])C(C([H])([H])[H])(C([H])([H])[H])C([H])([H])[H])C([H])([H])c2c([H])c(OC([H])(c3c([H])c(OC([H])([H])[H])c4c(c3[H])C([H])([H])N(C(=O)N3C([H])([H])C([H])([H])C([H])([H])C([H])(n5nc(-c6c([H])c([H])c(Oc7c([H])c([H])c(F)c([H])c7F)c([H])c6[H])c(C(=O)N([H])[H])c5N([H])[H])C3([H])[H])C([H])([H])C4([H])[H])C([H])([H])[H])c([H])c([H])c2C1([H])[H]

$$$$
61:0:0
     RDKit          3D

105117  0  0  1  0  0  0  0  0999 V2000
  -30.2080  -20.2370   21.5750 C   0  0  0  0  0  0  0  0  0  0  0  0
  -30.9470  -21.1430   22.4170 C   0  0  0  0  0  0  0  0  0  0  0  0
  -30.7990  -22.5810   22.3160 C   0  0  0  0  0  0  0  0  0  0  0  0
  -29.8190  -23.1460   21.4510 C   0  0  0  0  0  0  0  0  0  0  0  0
  -29.2380  -20.9070   20.7680 C   0  0  0  0  0  0  0  0  0  0  0  0
  -31.9290  -20.5700   23.4360 C   0  0  0  0  0  1  0  0  0  0  0  0
  -31.7080  -23.5240   23.0970 C   0  0  0  0  0  1  0  0  0  0  0  0
  -29.0630  -22.2640   20.7380 N   0  0  0  0  0  0  0  0  0  0  0  0
  -28.4050  -20.1320   19.9490 N   0  0  0  0  0  0  0  0  0  0  0  0
  -28.5250  -19.1320   20.0330 H   0  0  0  0  0  0  0  0  0  0  0  0
  -31.4110  -14.1960   20.7670 C   0  0  0  0  0  0  0  0  0  0  0  0
  -30.9960  -12.1060   19.4590 C   0  0  0  0  0  2  0  0  0  0  0  0
  -30.0660  -12.3730   18.2600 C   0  0  0  0  0  2  0  0  0  0  0  0
  -28.5930  -12.2340   18.6870 C   0  0  0  0  0  2  0  0  0  0  0  0
  -28.2760  -12.9820   20.0110 C   0  0  0  0  0  3  0  0  0  0  0  0
  -29.3380  -12.7070   21.0960 C   0  0  0  0  0  2  0  0  0  0  0  0
  -30.6290  -13.0860   20.5130 N   0  0  0  0  0  0  0  0  0  0  0  0
  -32.6170  -14.0930   20.5150 O   0  0  0  0  0  0  0  0  0  0  0  0
  -29.4410  -17.5720   21.7930 C   0  0  0  0  0  2  0  0  0  0  0  0
  -31.1940  -18.0710   20.2220 C   0  0  0  0  0  2  0  0  0  0  0  0
  -29.9060  -16.0330   21.8610 C   0  0  0  0  0  2  0  0  0  0  0  0
  -31.7750  -16.6180   20.3830 C   0  0  0  0  0  2  0  0  0  0  0  0
  -30.5450  -18.6440   21.5080 C   0  0  0  0  0  3  0  0  0  0  0  0
  -30.8790  -15.5040   20.8480 N   0  0  0  0  0  0  0  0  0  0  0  0
  -25.8830  -13.5910   20.6820 C   0  0  0  0  0  0  0  0  0  0  0  0
  -24.8010  -12.8270   21.0240 C   0  0  0  0  0  0  0  0  0  0  0  0
  -25.2530  -11.4710   21.0100 C   0  0  0  0  0  0  0  0  0  0  0  0
  -26.9230  -12.7030   20.4760 N   0  0  0  0  0  0  0  0  0  0  0  0
  -26.5520  -11.4230   20.7370 N   0  0  0  0  0  0  0  0  0  0  0  0
  -24.5090  -10.2160   21.1800 C   0  0  0  0  0  0  0  0  0  0  0  0
  -24.9180   -9.2350   22.1090 C   0  0  0  0  0  3  0  0  0  0  0  0
  -24.1730   -8.0460   22.2700 C   0  0  0  0  0  3  0  0  0  0  0  0
  -23.0050   -7.8310   21.5010 C   0  0  0  0  0  0  0  0  0  0  0  0
  -22.6150   -8.8010   20.5590 C   0  0  0  0  0  3  0  0  0  0  0  0
  -23.3610   -9.9810   20.3980 C   0  0  0  0  0  3  0  0  0  0  0  0
  -22.2330   -6.6960   21.5710 O   0  0  0  0  0  0  0  0  0  0  0  0
  -22.0100   -6.0500   22.7600 C   0  0  0  0  0  0  0  0  0  0  0  0
  -21.3860   -6.6920   23.8510 C   0  0  0  0  0  3  0  0  0  0  0  0
  -21.1130   -5.9700   25.0310 C   0  0  0  0  0  3  0  0  0  0  0  0
  -21.4560   -4.6080   25.1190 C   0  0  0  0  0  0  0  0  0  0  0  0
  -22.0730   -3.9650   24.0310 C   0  0  0  0  0  3  0  0  0  0  0  0
  -22.3460   -4.6840   22.8540 C   0  0  0  0  0  0  0  0  0  0  0  0
  -22.9220   -4.0550   21.8010 F   0  0  0  0  0  0  0  0  0  0  0  0
  -21.1870   -3.9120   26.2480 F   0  0  0  0  0  0  0  0  0  0  0  0
  -23.4010  -13.3180   21.2550 C   0  0  0  0  0  0  0  0  0  0  0  0
  -22.6560  -12.6550   22.1330 N   0  0  0  0  0  0  0  0  0  0  0  0
  -22.9770  -14.3250   20.6890 O   0  0  0  0  0  0  0  0  0  0  0  0
  -23.0120  -11.8410   22.6110 H   0  0  0  0  0  0  0  0  0  0  0  0
  -21.7160  -12.9680   22.3290 H   0  0  0  0  0  0  0  0  0  0  0  0
  -26.0630  -14.9580   20.5060 N   0  0  0  0  0  0  0  0  0  0  0  0
  -25.2990  -15.6200   20.5970 H   0  0  0  0  0  0  0  0  0  0  0  0
  -26.9250  -15.3880   20.1970 H   0  0  0  0  0  0  0  0  0  0  0  0
  -26.8840  -20.6110   15.9310 C   0  0  0  0  0  2  0  0  0  0  0  0
  -26.1060  -22.6260   17.2360 C   0  0  0  0  0  2  0  0  0  0  0  0
  -24.8900  -20.4350   17.4610 C   0  0  0  0  0  2  0  0  0  0  0  0
  -28.2810  -21.4910   17.8360 C   0  0  0  0  0  2  0  0  0  0  0  0
  -27.0630  -19.3170   18.0870 C   0  0  0  0  0  2  0  0  0  0  0  0
  -26.2670  -21.3110   19.3800 C   0  0  0  0  0  2  0  0  0  0  0  0
  -27.3380  -21.8790   16.6770 C   0  0  0  0  0  3  0  0  0  0  0  0
  -26.1310  -19.6980   16.9180 C   0  0  0  0  0  3  0  0  0  0  0  0
  -25.3260  -21.7140   18.2150 C   0  0  1  0  0  0  0  0  0  0  0  0
  -27.5350  -20.5820   18.8550 C   0  0  1  0  0  0  0  0  0  0  0  0
  -24.0920  -22.4520   18.7610 C   0  0  0  0  0  1  0  0  0  0  0  0
  -29.6300  -24.6930   21.0420 C   0  0  0  0  0  2  0  0  0  0  0  0
  -29.3280  -25.8330   21.9700 O   0  0  0  0  0  0  0  0  0  0  0  0
  -25.4200  -31.3300   24.6350 C   0  0  0  0  0  0  0  0  0  0  0  0
  -28.2980  -26.7770   21.7490 C   0  0  0  0  0  0  0  0  0  0  0  0
  -24.4610  -30.1130   22.7140 C   0  0  0  0  0  3  0  0  0  0  0  0
  -26.0640  -28.5640   21.4490 C   0  0  0  0  0  0  0  0  0  0  0  0
  -27.0080  -30.2700   23.0040 C   0  0  0  0  0  2  0  0  0  0  0  0
  -27.1310  -28.9310   22.2780 C   0  0  0  0  0  0  0  0  0  0  0  0
  -28.2470  -28.0460   22.4220 C   0  0  0  0  0  3  0  0  0  0  0  0
  -27.2060  -26.4740   20.9060 C   0  0  0  0  0  3  0  0  0  0  0  0
  -26.1080  -27.3450   20.7570 C   0  0  0  0  0  3  0  0  0  0  0  0
  -24.8850  -29.5130   21.3460 C   0  0  0  0  0  2  0  0  0  0  0  0
  -25.6400  -30.5860   23.5100 N   0  0  0  0  0  0  0  0  0  0  0  0
  -24.2740  -31.6430   24.9880 O   0  0  0  0  0  0  0  0  0  0  0  0
  -23.5860  -29.0840   23.4680 C   0  0  0  0  0  0  0  0  0  0  0  0
  -22.3540  -28.8640   22.9820 N   0  0  0  0  0  0  0  0  0  0  0  0
  -24.0280  -28.4860   24.4530 O   0  0  0  0  0  0  0  0  0  0  0  0
  -22.0610  -29.3990   22.1760 H   0  0  0  0  0  0  0  0  0  0  0  0
  -18.9990  -27.5730   22.5550 C   0  0  0  0  0  0  0  0  0  0  0  0
  -21.3790  -27.9070   23.5090 C   0  0  0  0  0  3  0  0  0  0  0  0
  -21.6720  -26.4770   22.9980 C   0  0  0  0  0  2  0  0  0  0  0  0
  -20.8960  -26.1200   21.7240 C   0  0  0  0  0  2  0  0  0  0  0  0
  -19.3880  -26.2290   21.9650 C   0  0  0  0  0  2  0  0  0  0  0  0
  -19.9380  -28.3690   23.2660 C   0  0  0  0  0  0  0  0  0  0  0  0
  -19.5320  -29.6260   23.7620 C   0  0  0  0  0  3  0  0  0  0  0  0
  -18.2180  -30.0900   23.5630 C   0  0  0  0  0  3  0  0  0  0  0  0
  -17.2890  -29.2920   22.8710 C   0  0  0  0  0  3  0  0  0  0  0  0
  -17.6790  -28.0370   22.3740 C   0  0  0  0  0  3  0  0  0  0  0  0
  -26.6000  -31.8440   25.5160 C   0  0  0  0  0  3  0  0  0  0  0  0
  -26.4770  -33.3060   25.6180 N   0  0  0  0  0  0  0  0  0  0  0  0
  -27.2280  -34.1840   24.9400 C   0  0  0  0  0  0  0  0  0  0  0  0
  -28.1560  -33.8400   24.2050 O   0  0  0  0  0  0  0  0  0  0  0  0
  -25.7010  -33.6560   26.1610 H   0  0  0  0  0  0  0  0  0  0  0  0
  -26.1780  -36.1910   23.8450 C   0  0  0  0  0  1  0  0  0  0  0  0
  -26.8960  -35.6810   25.1050 C   0  0  0  0  0  3  0  0  0  0  0  0
  -28.6620  -36.2970   26.6960 C   0  0  0  0  0  1  0  0  0  0  0  0
  -28.0840  -36.5210   25.3740 N   0  0  0  0  0  0  0  0  0  0  0  0
  -27.8540  -37.5070   25.2910 H   0  0  0  0  0  0  0  0  0  0  0  0
  -26.6310  -31.1910   26.9520 C   0  0  1  0  0  0  0  0  0  0  0  0
  -25.2630  -31.2090   27.6750 C   0  0  0  0  0  1  0  0  0  0  0  0
  -27.1040  -29.7210   26.8770 C   0  0  0  0  0  1  0  0  0  0  0  0
  -27.6530  -31.9360   27.8450 C   0  0  0  0  0  1  0  0  0  0  0  0
  1  2  1  0
  2  6  1  0
  3  2  2  0
  3  7  1  0
  4  3  1  0
  5  1  2  0
  8  5  1  0
  8  4  2  0
  9 10  1  0
  9  5  1  0
 11 24  1  0
 12 17  1  0
 13 14  1  0
 13 12  1  0
 15 14  1  0
 15 28  1  0
 15 16  1  0
 17 11  1  0
 17 16  1  0
 18 11  2  0
 19 21  1  0
 20 22  1  0
 20 23  1  0
 22 24  1  0
 23  1  1  0
 23 19  1  0
 24 21  1  0
 25 26  2  0
 26 45  1  0
 27 26  1  0
 27 30  1  0
 28 25  1  0
 28 29  1  0
 29 27  2  0
 30 31  1  0
 31 32  2  0
 33 36  1  0
 33 32  1  0
 34 33  2  0
 35 34  1  0
 35 30  2  0
 36 37  1  0
 37 42  2  0
 37 38  1  0
 38 39  2  0
 39 40  1  0
 40 44  1  0
 41 40  2  0
 42 41  1  0
 43 42  1  0
 45 46  1  0
 46 49  1  0
 46 48  1  0
 47 45  2  0
 50 51  1  0
 50 25  1  0
 52 50  1  0
 54 61  1  0
 55 61  1  0
 56 62  1  0
 57 62  1  0
 59 53  1  0
 59 54  1  0
 59 56  1  0
 60 53  1  0
 60 55  1  0
 60 57  1  0
 61 63  1  1
 61 58  1  0
 62 58  1  0
 62  9  1  1
 64  4  1  0
 64 65  1  0
 66 77  2  0
 67 65  1  0
 67 72  1  0
 68 78  1  0
 68 76  1  0
 69 71  1  0
 70 76  1  0
 71 72  2  0
 71 70  1  0
 73 67  2  0
 74 73  1  0
 74 69  2  0
 75 69  1  0
 75 68  1  0
 76 66  1  0
 78 80  2  0
 79 78  1  0
 81 79  1  0
 82 87  1  0
 83 79  1  0
 84 83  1  0
 85 86  1  0
 85 84  1  0
 86 82  1  0
 87 83  1  0
 87 88  2  0
 89 88  1  0
 90 89  2  0
 91 82  2  0
 91 90  1  0
 92 66  1  0
 92 93  1  0
 92102  1  0
 93 96  1  0
 94 98  1  0
 94 93  1  0
 95 94  2  0
 98 97  1  0
 98100  1  0
100 99  1  0
101100  1  0
102103  1  1
102105  1  0
104102  1  0
M  ISO  4  11 100  24 100  64 101  65 101
M  END
>  <TORSDO>  (62) 
F 18

>  <SCORE>  (62) 
-2.844

>  <name>  (62) 
61

>  <ligand_id>  (62) 
61

>  <original_smiles>  (62) 
[H]c1c([H])c([H])c2c(c1[H])C([H])([H])C([H])([H])C([H])([H])C2([H])N([H])C(=O)C1([H])N(C(=O)C([H])(N([H])C(=O)C([H])(N([H])C([H])([H])[H])C([H])([H])[H])C(C([H])([H])[H])(C([H])([H])[H])C([H])([H])[H])C([H])([H])c2c([H])c(OC([H])([H])c3nc(N([H])C45C([H])([H])C6([H])C([H])([H])C([H])(C4([H])[H])C([H])([H])C(C([H])([H])[H])(C6([H])[H])C5([H])[H])c(C4([H])C([H])([H])C([H])([H])N(C(=O)N5C([H])([H])C([H])([H])C([H])([H])C([H])(n6nc(-c7c([H])c([H])c(Oc8c([H])c([H])c(F)c([H])c8F)c([H])c7[H])c(C(=O)N([H])[H])c6N([H])[H])C5([H])[H])C([H])([H])C4([H])[H])c(C([H])([H])[H])c3C([H])([H])[H])c([H])c([H])c2C1([H])[H]

>  <smiles>  (62) 
[H]c1c([H])c([H])c2c(c1[H])C([H])([H])C([H])([H])C([H])([H])C2([H])N([H])C(=O)C1([H])N(C(=O)C([H])(N([H])C(=O)C([H])(N([H])C([H])([H])[H])C([H])([H])[H])C(C([H])([H])[H])(C([H])([H])[H])C([H])([H])[H])C([H])([H])c2c([H])c(OC([H])([H])c3nc(N([H])C45C([H])([H])C6([H])C([H])([H])C([H])(C4([H])[H])C([H])([H])C(C([H])([H])[H])(C6([H])[H])C5([H])[H])c(C4([H])C([H])([H])C([H])([H])N(C(=O)N5C([H])([H])C([H])([H])C([H])([H])C([H])(n6nc(-c7c([H])c([H])c(Oc8c([H])c([H])c(F)c([H])c8F)c([H])c7[H])c(C(=O)N([H])[H])c6N([H])[H])C5([H])[H])C([H])([H])C4([H])[H])c(C([H])([H])[H])c3C([H])([H])[H])c([H])c([H])c2C1([H])[H]

$$$$
62:0:0
     RDKit          3D

 92101  0  0  1  0  0  0  0  0999 V2000
  -30.1520  -20.9560   20.0980 C   0  0  0  0  0  3  0  0  0  0  0  0
  -29.8050  -19.5840   19.8320 C   0  0  0  0  0  0  0  0  0  0  0  0
  -28.4770  -19.7750   19.2910 C   0  0  0  0  0  0  0  0  0  0  0  0
  -28.1060  -21.1210   19.3620 C   0  0  0  0  0  0  0  0  0  0  0  0
  -27.1480  -23.2350   20.0140 C   0  0  0  0  0  2  0  0  0  0  0  0
  -28.6810  -23.4570   20.1160 C   0  0  0  0  0  3  0  0  0  0  0  0
  -26.8830  -21.9600   19.1500 C   0  0  2  0  0  0  0  0  0  0  0  0
  -27.6030  -18.6630   18.7770 C   0  0  0  0  0  1  0  0  0  0  0  0
  -25.5870  -21.2640   19.6030 C   0  0  0  0  0  1  0  0  0  0  0  0
  -26.7560  -22.3410   17.6630 C   0  0  0  0  0  1  0  0  0  0  0  0
  -29.1120  -21.9350   19.8160 N   0  0  0  0  0  0  0  0  0  0  0  0
  -30.6710  -18.1430   20.0740 C   0  0  0  0  0  2  0  0  0  0  0  0
  -30.9550  -15.3770   20.1670 C   0  0  0  0  0  0  0  0  0  0  0  0
  -30.8320  -12.9810   19.3060 C   0  0  0  0  0  2  0  0  0  0  0  0
  -29.9260  -12.8870   18.0560 C   0  0  0  0  0  2  0  0  0  0  0  0
  -28.4580  -12.6830   18.4720 C   0  0  0  0  0  2  0  0  0  0  0  0
  -28.0290  -13.6530   19.6030 C   0  0  0  0  0  3  0  0  0  0  0  0
  -29.0620  -13.7220   20.7470 C   0  0  0  0  0  2  0  0  0  0  0  0
  -30.3390  -14.1190   20.1420 N   0  0  0  0  0  0  0  0  0  0  0  0
  -32.1690  -15.3860   19.9260 O   0  0  0  0  0  0  0  0  0  0  0  0
  -30.2200  -16.6130   20.2480 N   0  0  0  0  0  0  0  0  0  0  0  0
  -29.2340  -16.4880   20.4140 H   0  0  0  0  0  0  0  0  0  0  0  0
  -25.6580  -14.2730   20.3270 C   0  0  0  0  0  0  0  0  0  0  0  0
  -24.5740  -13.5190   20.6810 C   0  0  0  0  0  0  0  0  0  0  0  0
  -25.0090  -12.1590   20.6450 C   0  0  0  0  0  0  0  0  0  0  0  0
  -26.6830  -13.3750   20.0880 N   0  0  0  0  0  0  0  0  0  0  0  0
  -26.3030  -12.0970   20.3470 N   0  0  0  0  0  0  0  0  0  0  0  0
  -24.2520  -10.9130   20.8160 C   0  0  0  0  0  0  0  0  0  0  0  0
  -24.6530   -9.9260   21.7420 C   0  0  0  0  0  3  0  0  0  0  0  0
  -23.8950   -8.7460   21.9020 C   0  0  0  0  0  3  0  0  0  0  0  0
  -22.7210   -8.5460   21.1370 C   0  0  0  0  0  0  0  0  0  0  0  0
  -22.3400   -9.5220   20.1990 C   0  0  0  0  0  3  0  0  0  0  0  0
  -23.0990  -10.6930   20.0360 C   0  0  0  0  0  3  0  0  0  0  0  0
  -21.9380   -7.4200   21.2070 O   0  0  0  0  0  0  0  0  0  0  0  0
  -21.8860   -6.6480   22.3410 C   0  0  0  0  0  0  0  0  0  0  0  0
  -21.5050   -7.1840   23.5910 C   0  0  0  0  0  3  0  0  0  0  0  0
  -21.3990   -6.3410   24.7150 C   0  0  0  0  0  3  0  0  0  0  0  0
  -21.6640   -4.9640   24.5910 C   0  0  0  0  0  0  0  0  0  0  0  0
  -22.0370   -4.4270   23.3450 C   0  0  0  0  0  3  0  0  0  0  0  0
  -22.1450   -5.2670   22.2230 C   0  0  0  0  0  0  0  0  0  0  0  0
  -22.4860   -4.7420   21.0220 F   0  0  0  0  0  0  0  0  0  0  0  0
  -21.5530   -4.1530   25.6680 F   0  0  0  0  0  0  0  0  0  0  0  0
  -23.1850  -14.0280   20.9350 C   0  0  0  0  0  0  0  0  0  0  0  0
  -22.4300  -13.3490   21.7920 N   0  0  0  0  0  0  0  0  0  0  0  0
  -22.7780  -15.0620   20.4090 O   0  0  0  0  0  0  0  0  0  0  0  0
  -22.7730  -12.5130   22.2420 H   0  0  0  0  0  0  0  0  0  0  0  0
  -21.4970  -13.6710   22.0030 H   0  0  0  0  0  0  0  0  0  0  0  0
  -25.8500  -15.6390   20.1600 N   0  0  0  0  0  0  0  0  0  0  0  0
  -25.0910  -16.3040   20.2640 H   0  0  0  0  0  0  0  0  0  0  0  0
  -26.6930  -16.0540   19.7860 H   0  0  0  0  0  0  0  0  0  0  0  0
  -28.9660  -24.9370   19.3040 C   0  0  0  0  0  2  0  0  0  0  0  0
  -28.8060  -26.4210   19.8480 O   0  0  0  0  0  0  0  0  0  0  0  0
  -24.6950  -31.7180   22.9860 C   0  0  0  0  0  0  0  0  0  0  0  0
  -27.6720  -27.3290   19.7730 C   0  0  0  0  0  0  0  0  0  0  0  0
  -23.6390  -30.3370   21.2390 C   0  0  0  0  0  3  0  0  0  0  0  0
  -25.2300  -28.9390   19.7700 C   0  0  0  0  0  0  0  0  0  0  0  0
  -26.1750  -30.7720   21.1670 C   0  0  0  0  0  2  0  0  0  0  0  0
  -26.3600  -29.4230   20.4380 C   0  0  0  0  0  0  0  0  0  0  0  0
  -27.5760  -28.6350   20.4220 C   0  0  0  0  0  3  0  0  0  0  0  0
  -26.5050  -26.9530   19.0730 C   0  0  0  0  0  3  0  0  0  0  0  0
  -25.3170  -27.7220   19.0740 C   0  0  0  0  0  3  0  0  0  0  0  0
  -23.9430  -29.7510   19.8330 C   0  0  0  0  0  2  0  0  0  0  0  0
  -24.8540  -30.9640   21.8540 N   0  0  0  0  0  0  0  0  0  0  0  0
  -23.5770  -31.8990   23.4950 O   0  0  0  0  0  0  0  0  0  0  0  0
  -23.0040  -29.2370   22.1280 C   0  0  0  0  0  0  0  0  0  0  0  0
  -21.6770  -29.0410   22.0130 N   0  0  0  0  0  0  0  0  0  0  0  0
  -23.7080  -28.5640   22.8850 O   0  0  0  0  0  0  0  0  0  0  0  0
  -21.1620  -29.6390   21.3810 H   0  0  0  0  0  0  0  0  0  0  0  0
  -18.3300  -27.7600   22.5430 C   0  0  0  0  0  0  0  0  0  0  0  0
  -20.8980  -28.0190   22.7180 C   0  0  0  0  0  3  0  0  0  0  0  0
  -20.9810  -26.6570   21.9890 C   0  0  0  0  0  2  0  0  0  0  0  0
  -19.8340  -26.4330   20.9990 C   0  0  0  0  0  2  0  0  0  0  0  0
  -18.4830  -26.4930   21.7180 C   0  0  0  0  0  2  0  0  0  0  0  0
  -19.4640  -28.4840   23.0000 C   0  0  0  0  0  0  0  0  0  0  0  0
  -19.2640  -29.6730   23.7360 C   0  0  0  0  0  3  0  0  0  0  0  0
  -17.9650  -30.1360   24.0170 C   0  0  0  0  0  3  0  0  0  0  0  0
  -16.8470  -29.4070   23.5740 C   0  0  0  0  0  3  0  0  0  0  0  0
  -17.0310  -28.2190   22.8440 C   0  0  0  0  0  3  0  0  0  0  0  0
  -25.9060  -32.4070   23.6850 C   0  0  0  0  0  3  0  0  0  0  0  0
  -25.5020  -33.7750   24.0430 N   0  0  0  0  0  0  0  0  0  0  0  0
  -25.8090  -34.8730   23.3390 C   0  0  0  0  0  0  0  0  0  0  0  0
  -26.5260  -34.8430   22.3370 O   0  0  0  0  0  0  0  0  0  0  0  0
  -24.8660  -33.8680   24.8220 H   0  0  0  0  0  0  0  0  0  0  0  0
  -23.9900  -36.5790   22.9890 C   0  0  0  0  0  1  0  0  0  0  0  0
  -25.2300  -36.2190   23.8240 C   0  0  0  0  0  3  0  0  0  0  0  0
  -27.2860  -37.2010   24.7410 C   0  0  0  0  0  1  0  0  0  0  0  0
  -26.2020  -37.3330   23.7700 N   0  0  0  0  0  0  0  0  0  0  0  0
  -25.7390  -38.2230   23.9310 H   0  0  0  0  0  0  0  0  0  0  0  0
  -26.4050  -31.6300   24.9670 C   0  0  1  0  0  0  0  0  0  0  0  0
  -25.2800  -31.3130   25.9790 C   0  0  0  0  0  1  0  0  0  0  0  0
  -27.0730  -30.2920   24.5760 C   0  0  0  0  0  1  0  0  0  0  0  0
  -27.4840  -32.4640   25.6960 C   0  0  0  0  0  1  0  0  0  0  0  0
  2 12  1  0
  2  1  2  0
  3  4  2  0
  3  2  1  0
  4 11  1  0
  5  6  1  0
  6 51  1  0
  7  4  1  0
  7  9  1  1
  7  5  1  0
  8  3  1  0
 10  7  1  0
 11  1  1  0
 11  6  1  0
 12 21  1  0
 13 21  1  0
 14 19  1  0
 15 16  1  0
 15 14  1  0
 17 16  1  0
 17 26  1  0
 17 18  1  0
 19 13  1  0
 19 18  1  0
 20 13  2  0
 21 22  1  0
 23 24  2  0
 24 43  1  0
 25 24  1  0
 25 28  1  0
 26 23  1  0
 26 27  1  0
 27 25  2  0
 28 29  1  0
 29 30  2  0
 31 34  1  0
 31 30  1  0
 32 31  2  0
 33 32  1  0
 33 28  2  0
 34 35  1  0
 35 36  1  0
 36 37  2  0
 38 37  1  0
 38 42  1  0
 39 38  2  0
 40 35  2  0
 40 39  1  0
 41 40  1  0
 43 44  1  0
 44 47  1  0
 44 46  1  0
 45 43  2  0
 48 49  1  0
 48 23  1  0
 50 48  1  0
 51 52  1  0
 53 64  2  0
 54 52  1  0
 54 59  1  0
 55 63  1  0
 55 65  1  0
 56 62  1  0
 56 58  1  0
 57 63  1  0
 58 57  1  0
 59 58  2  0
 60 61  1  0
 60 54  2  0
 61 56  2  0
 62 55  1  0
 63 53  1  0
 65 67  2  0
 66 65  1  0
 68 66  1  0
 69 78  2  0
 69 74  1  0
 70 66  1  0
 70 74  1  0
 71 70  1  0
 72 73  1  0
 72 71  1  0
 73 69  1  0
 74 75  2  0
 75 76  1  0
 77 76  2  0
 78 77  1  0
 79 53  1  0
 79 80  1  0
 79 89  1  0
 80 83  1  0
 81 85  1  0
 81 80  1  0
 82 81  2  0
 85 84  1  0
 87 85  1  0
 87 88  1  0
 87 86  1  0
 89 92  1  1
 89 90  1  0
 91 89  1  0
M  ISO  4  13 100  21 100  51 101  52 101
M  END
>  <TORSDO>  (63) 
F 18

>  <SCORE>  (63) 
-13.612

>  <name>  (63) 
62

>  <ligand_id>  (63) 
62

>  <original_smiles>  (63) 
[H]c1c([H])c([H])c2c(c1[H])C([H])([H])C([H])([H])C([H])([H])C2([H])N([H])C(=O)C1([H])N(C(=O)C([H])(N([H])C(=O)C([H])(N([H])C([H])([H])[H])C([H])([H])[H])C(C([H])([H])[H])(C([H])([H])[H])C([H])([H])[H])C([H])([H])c2c([H])c(OC([H])([H])C3([H])n4c([H])c(C([H])([H])N([H])C(=O)N5C([H])([H])C([H])([H])C([H])([H])C([H])(n6nc(-c7c([H])c([H])c(Oc8c([H])c([H])c(F)c([H])c8F)c([H])c7[H])c(C(=O)N([H])[H])c6N([H])[H])C5([H])[H])c(C([H])([H])[H])c4C(C([H])([H])[H])(C([H])([H])[H])C3([H])[H])c([H])c([H])c2C1([H])[H]

>  <smiles>  (63) 
[H]c1c([H])c([H])c2c(c1[H])C([H])([H])C([H])([H])C([H])([H])C2([H])N([H])C(=O)C1([H])N(C(=O)C([H])(N([H])C(=O)C([H])(N([H])C([H])([H])[H])C([H])([H])[H])C(C([H])([H])[H])(C([H])([H])[H])C([H])([H])[H])C([H])([H])c2c([H])c(OC([H])([H])C3([H])n4c([H])c(C([H])([H])N([H])C(=O)N5C([H])([H])C([H])([H])C([H])([H])C([H])(n6nc(-c7c([H])c([H])c(Oc8c([H])c([H])c(F)c([H])c8F)c([H])c7[H])c(C(=O)N([H])[H])c6N([H])[H])C5([H])[H])c(C([H])([H])[H])c4C(C([H])([H])[H])(C([H])([H])[H])C3([H])[H])c([H])c([H])c2C1([H])[H]

$$$$
63:0:0
     RDKit          3D

 95104  0  0  1  0  0  0  0  0999 V2000
  -30.1860  -23.5290   19.2090 C   0  0  0  0  0  2  0  0  0  0  0  0
  -29.4800  -21.2020   19.7700 C   0  0  0  0  0  3  0  0  0  0  0  0
  -30.7240  -22.1210   19.6060 C   0  0  0  0  0  3  0  0  0  0  0  0
  -28.9760  -23.8260   20.1080 C   0  0  0  0  0  3  0  0  0  0  0  0
  -28.4430  -22.3020   20.3370 C   0  0  0  0  0  3  0  0  0  0  0  0
  -31.5910  -22.2180   20.8800 C   0  0  0  0  0  1  0  0  0  0  0  0
  -30.8220  -15.1150   20.5580 C   0  0  0  0  0  0  0  0  0  0  0  0
  -30.5560  -12.7930   19.6520 C   0  0  0  0  0  2  0  0  0  0  0  0
  -29.7090  -12.7410   18.3670 C   0  0  0  0  0  2  0  0  0  0  0  0
  -28.2230  -12.5820   18.7270 C   0  0  0  0  0  2  0  0  0  0  0  0
  -27.7670  -13.5620   19.8410 C   0  0  0  0  0  3  0  0  0  0  0  0
  -28.7620  -13.6250   21.0210 C   0  0  0  0  0  2  0  0  0  0  0  0
  -30.0700  -13.9560   20.4470 N   0  0  0  0  0  0  0  0  0  0  0  0
  -32.0420  -14.9740   20.4300 O   0  0  0  0  0  0  0  0  0  0  0  0
  -30.8640  -18.9080   19.6170 C   0  0  0  0  0  2  0  0  0  0  0  0
  -28.6600  -18.5690   20.4320 C   0  0  0  0  0  2  0  0  0  0  0  0
  -31.3250  -17.5350   20.2290 C   0  0  0  0  0  2  0  0  0  0  0  0
  -29.0530  -17.0810   20.9370 C   0  0  0  0  0  2  0  0  0  0  0  0
  -29.7710  -19.6930   20.3980 C   0  0  0  0  0  3  0  0  0  0  0  0
  -30.3160  -16.4400   20.4350 N   0  0  0  0  0  0  0  0  0  0  0  0
  -25.3660  -14.1810   20.4670 C   0  0  0  0  0  0  0  0  0  0  0  0
  -24.2700  -13.4230   20.7750 C   0  0  0  0  0  0  0  0  0  0  0  0
  -24.7120  -12.0650   20.7600 C   0  0  0  0  0  0  0  0  0  0  0  0
  -26.4040  -13.2870   20.2780 N   0  0  0  0  0  0  0  0  0  0  0  0
  -26.0160  -12.0070   20.5210 N   0  0  0  0  0  0  0  0  0  0  0  0
  -23.9530  -10.8140   20.9000 C   0  0  0  0  0  0  0  0  0  0  0  0
  -24.3460   -9.8090   21.8100 C   0  0  0  0  0  3  0  0  0  0  0  0
  -23.5860   -8.6250   21.9420 C   0  0  0  0  0  3  0  0  0  0  0  0
  -22.4200   -8.4390   21.1610 C   0  0  0  0  0  0  0  0  0  0  0  0
  -22.0470   -9.4340   20.2380 C   0  0  0  0  0  3  0  0  0  0  0  0
  -22.8070  -10.6080   20.1060 C   0  0  0  0  0  3  0  0  0  0  0  0
  -21.6350   -7.3120   21.2040 O   0  0  0  0  0  0  0  0  0  0  0  0
  -21.5930   -6.5060   22.3120 C   0  0  0  0  0  0  0  0  0  0  0  0
  -21.2270   -7.0030   23.5820 C   0  0  0  0  0  3  0  0  0  0  0  0
  -21.1300   -6.1250   24.6800 C   0  0  0  0  0  3  0  0  0  0  0  0
  -21.3880   -4.7520   24.5110 C   0  0  0  0  0  0  0  0  0  0  0  0
  -21.7480   -4.2550   23.2460 C   0  0  0  0  0  3  0  0  0  0  0  0
  -21.8470   -5.1280   22.1490 C   0  0  0  0  0  0  0  0  0  0  0  0
  -22.1730   -4.6410   20.9280 F   0  0  0  0  0  0  0  0  0  0  0  0
  -21.2880   -3.9070   25.5630 F   0  0  0  0  0  0  0  0  0  0  0  0
  -22.8700  -13.9250   20.9720 C   0  0  0  0  0  0  0  0  0  0  0  0
  -22.0890  -13.2490   21.8070 N   0  0  0  0  0  0  0  0  0  0  0  0
  -22.4750  -14.9510   20.4200 O   0  0  0  0  0  0  0  0  0  0  0  0
  -22.4200  -12.4190   22.2770 H   0  0  0  0  0  0  0  0  0  0  0  0
  -21.1460  -13.5680   21.9820 H   0  0  0  0  0  0  0  0  0  0  0  0
  -25.5590  -15.5500   20.3040 N   0  0  0  0  0  0  0  0  0  0  0  0
  -24.7960  -16.2120   20.3750 H   0  0  0  0  0  0  0  0  0  0  0  0
  -26.4270  -15.9760   20.0060 H   0  0  0  0  0  0  0  0  0  0  0  0
  -25.9750  -22.6070   20.1600 C   0  0  0  0  0  0  0  0  0  0  0  0
  -24.7170  -22.2250   19.3900 C   0  0  0  0  0  1  0  0  0  0  0  0
  -27.1320  -22.0950   19.7240 N   0  0  0  0  0  0  0  0  0  0  0  0
  -25.8930  -23.3530   21.1360 O   0  0  0  0  0  0  0  0  0  0  0  0
  -27.0970  -21.4880   18.9170 H   0  0  0  0  0  0  0  0  0  0  0  0
  -28.0180  -25.0640   19.6140 C   0  0  0  0  0  2  0  0  0  0  0  0
  -28.3000  -26.5550   19.7520 O   0  0  0  0  0  0  0  0  0  0  0  0
  -24.5180  -31.8360   23.0860 C   0  0  0  0  0  0  0  0  0  0  0  0
  -27.1960  -27.4560   19.7540 C   0  0  0  0  0  0  0  0  0  0  0  0
  -23.3280  -30.4770   21.4090 C   0  0  0  0  0  3  0  0  0  0  0  0
  -24.7970  -29.0520   19.8700 C   0  0  0  0  0  0  0  0  0  0  0  0
  -25.8590  -30.8750   21.1900 C   0  0  0  0  0  2  0  0  0  0  0  0
  -25.9700  -29.5290   20.4680 C   0  0  0  0  0  0  0  0  0  0  0  0
  -27.1730  -28.7460   20.3960 C   0  0  0  0  0  3  0  0  0  0  0  0
  -25.9940  -27.0660   19.1210 C   0  0  0  0  0  3  0  0  0  0  0  0
  -24.8150  -27.8310   19.1840 C   0  0  0  0  0  3  0  0  0  0  0  0
  -23.5350  -29.8830   19.9920 C   0  0  0  0  0  2  0  0  0  0  0  0
  -24.5890  -31.0790   21.9500 N   0  0  0  0  0  0  0  0  0  0  0  0
  -23.4370  -32.0490   23.6550 O   0  0  0  0  0  0  0  0  0  0  0  0
  -22.7240  -29.3890   22.3310 C   0  0  0  0  0  0  0  0  0  0  0  0
  -21.4000  -29.1720   22.2300 N   0  0  0  0  0  0  0  0  0  0  0  0
  -23.4430  -28.7480   23.1000 O   0  0  0  0  0  0  0  0  0  0  0  0
  -20.8740  -29.7460   21.5850 H   0  0  0  0  0  0  0  0  0  0  0  0
  -18.0780  -27.8360   22.7650 C   0  0  0  0  0  0  0  0  0  0  0  0
  -20.6350  -28.1700   22.9740 C   0  0  0  0  0  3  0  0  0  0  0  0
  -20.7650  -26.7740   22.3220 C   0  0  0  0  0  2  0  0  0  0  0  0
  -19.6440  -26.4650   21.3250 C   0  0  0  0  0  2  0  0  0  0  0  0
  -18.2780  -26.5300   22.0140 C   0  0  0  0  0  2  0  0  0  0  0  0
  -19.1850  -28.6130   23.2020 C   0  0  0  0  0  0  0  0  0  0  0  0
  -18.9420  -29.8340   23.8670 C   0  0  0  0  0  3  0  0  0  0  0  0
  -17.6260  -30.2800   24.0980 C   0  0  0  0  0  3  0  0  0  0  0  0
  -16.5360  -29.5010   23.6760 C   0  0  0  0  0  3  0  0  0  0  0  0
  -16.7630  -28.2800   23.0150 C   0  0  0  0  0  3  0  0  0  0  0  0
  -25.7880  -32.4880   23.7100 C   0  0  0  0  0  3  0  0  0  0  0  0
  -25.4400  -33.8640   24.0940 N   0  0  0  0  0  0  0  0  0  0  0  0
  -25.7270  -34.9540   23.3700 C   0  0  0  0  0  0  0  0  0  0  0  0
  -26.3820  -34.9090   22.3260 O   0  0  0  0  0  0  0  0  0  0  0  0
  -24.8530  -33.9700   24.9080 H   0  0  0  0  0  0  0  0  0  0  0  0
  -23.9320  -36.7010   23.1180 C   0  0  0  0  0  1  0  0  0  0  0  0
  -25.2050  -36.3100   23.8860 C   0  0  0  0  0  3  0  0  0  0  0  0
  -27.3280  -37.2380   24.6990 C   0  0  0  0  0  1  0  0  0  0  0  0
  -26.1990  -37.4000   23.7860 N   0  0  0  0  0  0  0  0  0  0  0  0
  -25.7680  -38.3020   23.9730 H   0  0  0  0  0  0  0  0  0  0  0  0
  -26.3460  -31.6920   24.9530 C   0  0  1  0  0  0  0  0  0  0  0  0
  -25.2780  -31.3930   26.0310 C   0  0  0  0  0  1  0  0  0  0  0  0
  -26.9610  -30.3440   24.5130 C   0  0  0  0  0  1  0  0  0  0  0  0
  -27.4860  -32.4980   25.6210 C   0  0  0  0  0  1  0  0  0  0  0  0
  1  3  1  0
  1  4  1  0
  2  5  1  0
  2 19  1  0
  3  2  1  0
  3  6  1  0
  4 54  1  0
  4  5  1  0
  5 51  1  0
  8 13  1  0
  9 10  1  0
  9  8  1  0
 11 10  1  0
 11 24  1  0
 11 12  1  0
 13  7  1  0
 13 12  1  0
 14  7  2  0
 15 17  1  0
 16 18  1  0
 17 20  1  0
 19 15  1  0
 19 16  1  0
 20  7  1  0
 20 18  1  0
 21 22  2  0
 22 41  1  0
 23 22  1  0
 23 26  1  0
 24 21  1  0
 24 25  1  0
 25 23  2  0
 26 27  1  0
 27 28  2  0
 29 32  1  0
 29 28  1  0
 30 29  2  0
 31 30  1  0
 31 26  2  0
 32 33  1  0
 33 34  1  0
 34 35  2  0
 36 35  1  0
 36 40  1  0
 37 36  2  0
 38 33  2  0
 38 37  1  0
 39 38  1  0
 41 42  1  0
 42 45  1  0
 42 44  1  0
 43 41  2  0
 46 47  1  0
 46 21  1  0
 48 46  1  0
 49 52  2  0
 50 49  1  0
 51 49  1  0
 53 51  1  0
 54 55  1  0
 55 57  1  0
 56 67  2  0
 57 62  1  0
 58 66  1  0
 58 68  1  0
 59 65  1  0
 59 61  1  0
 60 66  1  0
 61 60  1  0
 62 61  2  0
 63 64  1  0
 63 57  2  0
 64 59  2  0
 65 58  1  0
 66 56  1  0
 68 70  2  0
 69 68  1  0
 71 69  1  0
 72 81  2  0
 72 77  1  0
 73 69  1  0
 73 77  1  0
 74 73  1  0
 75 76  1  0
 75 74  1  0
 76 72  1  0
 77 78  2  0
 78 79  1  0
 80 79  2  0
 81 80  1  0
 82 56  1  0
 82 83  1  0
 82 92  1  0
 83 86  1  0
 84 88  1  0
 84 83  1  0
 85 84  2  0
 88 87  1  0
 90 88  1  0
 90 91  1  0
 90 89  1  0
 92 95  1  1
 92 93  1  0
 94 92  1  0
M  ISO  4   7 100  20 100  54 101  55 101
M  END
>  <TORSDO>  (64) 
F 18

>  <SCORE>  (64) 
-14.184

>  <name>  (64) 
63

>  <ligand_id>  (64) 
63

>  <original_smiles>  (64) 
[H]c1c([H])c([H])c2c(c1[H])C([H])([H])C([H])([H])C([H])([H])C2([H])N([H])C(=O)C1([H])N(C(=O)C([H])(N([H])C(=O)C([H])(N([H])C([H])([H])[H])C([H])([H])[H])C(C([H])([H])[H])(C([H])([H])[H])C([H])([H])[H])C([H])([H])c2c([H])c(OC([H])([H])C3([H])C([H])([H])C([H])(C([H])([H])[H])C([H])(C4([H])C([H])([H])C([H])([H])N(C(=O)N5C([H])([H])C([H])([H])C([H])([H])C([H])(n6nc(-c7c([H])c([H])c(Oc8c([H])c([H])c(F)c([H])c8F)c([H])c7[H])c(C(=O)N([H])[H])c6N([H])[H])C5([H])[H])C([H])([H])C4([H])[H])C3([H])N([H])C(=O)C([H])([H])[H])c([H])c([H])c2C1([H])[H]

>  <smiles>  (64) 
[H]c1c([H])c([H])c2c(c1[H])C([H])([H])C([H])([H])C([H])([H])C2([H])N([H])C(=O)C1([H])N(C(=O)C([H])(N([H])C(=O)C([H])(N([H])C([H])([H])[H])C([H])([H])[H])C(C([H])([H])[H])(C([H])([H])[H])C([H])([H])[H])C([H])([H])c2c([H])c(OC([H])([H])C3([H])C([H])([H])C([H])(C([H])([H])[H])C([H])(C4([H])C([H])([H])C([H])([H])N(C(=O)N5C([H])([H])C([H])([H])C([H])([H])C([H])(n6nc(-c7c([H])c([H])c(Oc8c([H])c([H])c(F)c([H])c8F)c([H])c7[H])c(C(=O)N([H])[H])c6N([H])[H])C5([H])[H])C([H])([H])C4([H])[H])C3([H])N([H])C(=O)C([H])([H])[H])c([H])c([H])c2C1([H])[H]

$$$$
64:0:0
     RDKit          3D

 92101  0  0  1  0  0  0  0  0999 V2000
  -29.4740  -23.0420   21.5500 C   0  0  0  0  0  3  0  0  0  0  0  0
  -28.6640  -23.6500   20.5540 C   0  0  0  0  0  0  0  0  0  0  0  0
  -29.8380  -21.6610   21.5000 C   0  0  0  0  0  0  0  0  0  0  0  0
  -29.3960  -20.8210   20.4390 C   0  0  0  0  0  0  0  0  0  0  0  0
  -28.3080  -22.7450   19.5020 C   0  0  0  0  0  0  0  0  0  0  0  0
  -27.4500  -23.2190   18.3460 C   0  0  0  0  0  1  0  0  0  0  0  0
  -28.6470  -21.4030   19.4510 N   0  0  0  0  0  0  0  0  0  0  0  0
  -30.5840  -21.1440   22.5070 F   0  0  0  0  0  0  0  0  0  0  0  0
  -30.7370  -14.8320   19.9820 C   0  0  0  0  0  0  0  0  0  0  0  0
  -30.3900  -12.5840   18.9460 C   0  0  0  0  0  2  0  0  0  0  0  0
  -29.3840  -12.6600   17.7810 C   0  0  0  0  0  2  0  0  0  0  0  0
  -27.9460  -12.4790   18.3040 C   0  0  0  0  0  2  0  0  0  0  0  0
  -27.6490  -13.3450   19.5590 C   0  0  0  0  0  3  0  0  0  0  0  0
  -28.7840  -13.2690   20.6030 C   0  0  0  0  0  2  0  0  0  0  0  0
  -30.0160  -13.6550   19.9060 N   0  0  0  0  0  0  0  0  0  0  0  0
  -31.9270  -14.7770   19.6540 O   0  0  0  0  0  0  0  0  0  0  0  0
  -28.7160  -18.1920   20.8790 C   0  0  0  0  0  2  0  0  0  0  0  0
  -30.2690  -18.6410   19.0930 C   0  0  0  0  0  2  0  0  0  0  0  0
  -29.2240  -16.6780   21.0080 C   0  0  0  0  0  2  0  0  0  0  0  0
  -30.8810  -17.1950   19.2410 C   0  0  0  0  0  2  0  0  0  0  0  0
  -29.7620  -19.2520   20.4160 C   0  0  0  0  0  3  0  0  0  0  0  0
  -30.1250  -16.1040   19.9550 N   0  0  0  0  0  0  0  0  0  0  0  0
  -25.3160  -13.8950   20.4570 C   0  0  0  0  0  0  0  0  0  0  0  0
  -24.2770  -13.1050   20.8680 C   0  0  0  0  0  0  0  0  0  0  0  0
  -24.7420  -11.7570   20.7700 C   0  0  0  0  0  0  0  0  0  0  0  0
  -26.3450  -13.0300   20.1320 N   0  0  0  0  0  0  0  0  0  0  0  0
  -26.0120  -11.7370   20.3820 N   0  0  0  0  0  0  0  0  0  0  0  0
  -24.0300  -10.4870   20.9630 C   0  0  0  0  0  0  0  0  0  0  0  0
  -24.4850   -9.5160   21.8850 C   0  0  0  0  0  3  0  0  0  0  0  0
  -23.7690   -8.3140   22.0690 C   0  0  0  0  0  3  0  0  0  0  0  0
  -22.5850   -8.0730   21.3330 C   0  0  0  0  0  0  0  0  0  0  0  0
  -22.1500   -9.0310   20.4010 C   0  0  0  0  0  3  0  0  0  0  0  0
  -22.8660  -10.2250   20.2140 C   0  0  0  0  0  3  0  0  0  0  0  0
  -21.8390   -6.9230   21.4300 O   0  0  0  0  0  0  0  0  0  0  0  0
  -21.7690   -6.2050   22.5970 C   0  0  0  0  0  0  0  0  0  0  0  0
  -21.2920   -6.7780   23.7960 C   0  0  0  0  0  3  0  0  0  0  0  0
  -21.1720   -5.9840   24.9560 C   0  0  0  0  0  3  0  0  0  0  0  0
  -21.5200   -4.6210   24.9160 C   0  0  0  0  0  0  0  0  0  0  0  0
  -21.9890   -4.0490   23.7210 C   0  0  0  0  0  3  0  0  0  0  0  0
  -22.1110   -4.8380   22.5640 C   0  0  0  0  0  0  0  0  0  0  0  0
  -22.5450   -4.2760   21.4100 F   0  0  0  0  0  0  0  0  0  0  0  0
  -21.3970   -3.8580   26.0280 F   0  0  0  0  0  0  0  0  0  0  0  0
  -22.8980  -13.5690   21.2360 C   0  0  0  0  0  0  0  0  0  0  0  0
  -22.2230  -12.8460   22.1220 N   0  0  0  0  0  0  0  0  0  0  0  0
  -22.4300  -14.6090   20.7730 O   0  0  0  0  0  0  0  0  0  0  0  0
  -22.6160  -12.0060   22.5190 H   0  0  0  0  0  0  0  0  0  0  0  0
  -21.2990  -13.1390   22.4070 H   0  0  0  0  0  0  0  0  0  0  0  0
  -25.4600  -15.2720   20.3090 N   0  0  0  0  0  0  0  0  0  0  0  0
  -24.6960  -15.9140   20.4890 H   0  0  0  0  0  0  0  0  0  0  0  0
  -26.2840  -15.7280   19.9380 H   0  0  0  0  0  0  0  0  0  0  0  0
  -27.9570  -25.0620   20.8350 C   0  0  0  0  0  2  0  0  0  0  0  0
  -28.3270  -26.3950   20.2440 O   0  0  0  0  0  0  0  0  0  0  0  0
  -24.6240  -31.8990   23.2370 C   0  0  0  0  0  0  0  0  0  0  0  0
  -27.2630  -27.3260   20.1900 C   0  0  0  0  0  0  0  0  0  0  0  0
  -23.4340  -30.4910   21.5970 C   0  0  0  0  0  3  0  0  0  0  0  0
  -24.8990  -28.9550   20.1670 C   0  0  0  0  0  0  0  0  0  0  0  0
  -25.9750  -30.8220   21.4170 C   0  0  0  0  0  2  0  0  0  0  0  0
  -26.0680  -29.4420   20.7690 C   0  0  0  0  0  0  0  0  0  0  0  0
  -27.2570  -28.6400   20.7690 C   0  0  0  0  0  3  0  0  0  0  0  0
  -26.0760  -26.9180   19.5430 C   0  0  0  0  0  3  0  0  0  0  0  0
  -24.9080  -27.7000   19.5430 C   0  0  0  0  0  3  0  0  0  0  0  0
  -23.6540  -29.8200   20.2170 C   0  0  0  0  0  2  0  0  0  0  0  0
  -24.6960  -31.0900   22.1400 N   0  0  0  0  0  0  0  0  0  0  0  0
  -23.5370  -32.1680   23.7710 O   0  0  0  0  0  0  0  0  0  0  0  0
  -22.7790  -29.4690   22.5590 C   0  0  0  0  0  0  0  0  0  0  0  0
  -21.4520  -29.2840   22.4350 N   0  0  0  0  0  0  0  0  0  0  0  0
  -23.4620  -28.8460   23.3750 O   0  0  0  0  0  0  0  0  0  0  0  0
  -20.9590  -29.8380   21.7490 H   0  0  0  0  0  0  0  0  0  0  0  0
  -18.0830  -28.0680   22.9570 C   0  0  0  0  0  0  0  0  0  0  0  0
  -20.6420  -28.3400   23.2090 C   0  0  0  0  0  3  0  0  0  0  0  0
  -20.7470  -26.9100   22.6290 C   0  0  0  0  0  2  0  0  0  0  0  0
  -19.6410  -26.5850   21.6220 C   0  0  0  0  0  2  0  0  0  0  0  0
  -18.2620  -26.7220   22.2750 C   0  0  0  0  0  2  0  0  0  0  0  0
  -19.2000  -28.8340   23.3810 C   0  0  0  0  0  0  0  0  0  0  0  0
  -18.9800  -30.0940   23.9790 C   0  0  0  0  0  3  0  0  0  0  0  0
  -17.6740  -30.5880   24.1570 C   0  0  0  0  0  3  0  0  0  0  0  0
  -16.5690  -29.8180   23.7490 C   0  0  0  0  0  3  0  0  0  0  0  0
  -16.7750  -28.5600   23.1550 C   0  0  0  0  0  3  0  0  0  0  0  0
  -25.9000  -32.5470   23.8580 C   0  0  0  0  0  3  0  0  0  0  0  0
  -25.5770  -33.9450   24.1830 N   0  0  0  0  0  0  0  0  0  0  0  0
  -25.9040  -34.9990   23.4240 C   0  0  0  0  0  0  0  0  0  0  0  0
  -26.5790  -34.9000   22.3960 O   0  0  0  0  0  0  0  0  0  0  0  0
  -24.9810  -34.0960   24.9830 H   0  0  0  0  0  0  0  0  0  0  0  0
  -24.1720  -36.7870   23.0500 C   0  0  0  0  0  1  0  0  0  0  0  0
  -25.4030  -36.3850   23.8780 C   0  0  0  0  0  3  0  0  0  0  0  0
  -27.5230  -37.2770   24.7420 C   0  0  0  0  0  1  0  0  0  0  0  0
  -26.4320  -37.4440   23.7850 N   0  0  0  0  0  0  0  0  0  0  0  0
  -26.0180  -38.3590   23.9340 H   0  0  0  0  0  0  0  0  0  0  0  0
  -26.4210  -31.7870   25.1390 C   0  0  1  0  0  0  0  0  0  0  0  0
  -25.3280  -31.5410   26.2040 C   0  0  0  0  0  1  0  0  0  0  0  0
  -27.0200  -30.4130   24.7570 C   0  0  0  0  0  1  0  0  0  0  0  0
  -27.5610  -32.5960   25.8000 C   0  0  0  0  0  1  0  0  0  0  0  0
  2 51  1  0
  2  1  2  0
  3  1  1  0
  3  8  1  0
  4  3  2  0
  5  2  1  0
  6  5  1  0
  7  5  2  0
  7  4  1  0
 10 15  1  0
 11 12  1  0
 11 10  1  0
 13 12  1  0
 13 26  1  0
 13 14  1  0
 15  9  1  0
 15 14  1  0
 16  9  2  0
 17 19  1  0
 18 20  1  0
 18 21  1  0
 20 22  1  0
 21  4  1  0
 21 17  1  0
 22  9  1  0
 22 19  1  0
 23 24  2  0
 24 43  1  0
 25 24  1  0
 25 28  1  0
 26 27  1  0
 26 23  1  0
 27 25  2  0
 28 29  1  0
 29 30  2  0
 31 34  1  0
 31 30  1  0
 32 31  2  0
 33 32  1  0
 33 28  2  0
 34 35  1  0
 35 36  1  0
 36 37  2  0
 38 37  1  0
 38 42  1  0
 39 38  2  0
 40 35  2  0
 40 39  1  0
 41 40  1  0
 43 44  1  0
 44 47  1  0
 44 46  1  0
 45 43  2  0
 48 23  1  0
 48 49  1  0
 50 48  1  0
 52 51  1  0
 53 64  2  0
 54 52  1  0
 54 59  1  0
 55 63  1  0
 55 65  1  0
 56 62  1  0
 56 58  1  0
 57 63  1  0
 58 59  2  0
 58 57  1  0
 60 61  1  0
 60 54  2  0
 61 56  2  0
 62 55  1  0
 63 53  1  0
 65 67  2  0
 66 65  1  0
 68 66  1  0
 69 78  2  0
 69 74  1  0
 70 66  1  0
 70 74  1  0
 71 70  1  0
 72 73  1  0
 72 71  1  0
 73 69  1  0
 74 75  2  0
 75 76  1  0
 77 76  2  0
 78 77  1  0
 79 53  1  0
 79 80  1  0
 79 89  1  0
 80 83  1  0
 81 85  1  0
 81 80  1  0
 82 81  2  0
 85 84  1  0
 87 85  1  0
 87 88  1  0
 87 86  1  0
 89 92  1  1
 89 90  1  0
 91 89  1  0
M  ISO  4   9 100  22 100  51 101  52 101
M  END
>  <TORSDO>  (65) 
F 17

>  <SCORE>  (65) 
-15.145

>  <name>  (65) 
64

>  <ligand_id>  (65) 
64

>  <original_smiles>  (65) 
[H]c1c([H])c([H])c2c(c1[H])C([H])([H])C([H])([H])C([H])([H])C2([H])N([H])C(=O)C1([H])N(C(=O)C([H])(N([H])C(=O)C([H])(N([H])C([H])([H])[H])C([H])([H])[H])C(C([H])([H])[H])(C([H])([H])[H])C([H])([H])[H])C([H])([H])c2c([H])c(OC([H])([H])c3c(C([H])([H])[H])nc(C4([H])C([H])([H])C([H])([H])N(C(=O)N5C([H])([H])C([H])([H])C([H])([H])C([H])(n6nc(-c7c([H])c([H])c(Oc8c([H])c([H])c(F)c([H])c8F)c([H])c7[H])c(C(=O)N([H])[H])c6N([H])[H])C5([H])[H])C([H])([H])C4([H])[H])c(F)c3[H])c([H])c([H])c2C1([H])[H]

>  <smiles>  (65) 
[H]c1c([H])c([H])c2c(c1[H])C([H])([H])C([H])([H])C([H])([H])C2([H])N([H])C(=O)C1([H])N(C(=O)C([H])(N([H])C(=O)C([H])(N([H])C([H])([H])[H])C([H])([H])[H])C(C([H])([H])[H])(C([H])([H])[H])C([H])([H])[H])C([H])([H])c2c([H])c(OC([H])([H])c3c(C([H])([H])[H])nc(C4([H])C([H])([H])C([H])([H])N(C(=O)N5C([H])([H])C([H])([H])C([H])([H])C([H])(n6nc(-c7c([H])c([H])c(Oc8c([H])c([H])c(F)c([H])c8F)c([H])c7[H])c(C(=O)N([H])[H])c6N([H])[H])C5([H])[H])C([H])([H])C4([H])[H])c(F)c3[H])c([H])c([H])c2C1([H])[H]

$$$$
65:0:0
     RDKit          3D

 97107  0  0  1  0  0  0  0  0999 V2000
  -28.6700  -18.7450   19.4760 C   0  0  0  0  0  3  0  0  0  0  0  0
  -29.9060  -19.3080   19.0830 C   0  0  0  0  0  0  0  0  0  0  0  0
  -29.9040  -20.6950   18.6900 C   0  0  0  0  0  0  0  0  0  0  0  0
  -28.6560  -21.3730   18.7490 C   0  0  0  0  0  0  0  0  0  0  0  0
  -27.5030  -19.5150   19.4930 C   0  0  0  0  0  0  0  0  0  0  0  0
  -31.1490  -21.4780   18.1770 C   0  0  0  0  0  2  0  0  0  0  0  0
  -28.5320  -22.8370   18.3880 C   0  0  0  0  0  2  0  0  0  0  0  0
  -29.6160  -23.2800   17.4130 C   0  0  0  0  0  2  0  0  0  0  0  0
  -26.1750  -18.9210   19.9130 C   0  0  0  0  0  1  0  0  0  0  0  0
  -27.4970  -20.8090   19.1430 N   0  0  0  0  0  0  0  0  0  0  0  0
  -30.9560  -22.9650   17.9540 N   0  0  2  0  0  4  0  0  0  0  0  0
  -30.9430  -23.3660   18.8820 H   0  0  0  0  0  0  0  0  0  0  0  0
  -32.7580  -14.4110   20.2120 C   0  0  0  0  0  0  0  0  0  0  0  0
  -32.4070  -11.9790   19.9970 C   0  0  0  0  0  2  0  0  0  0  0  0
  -31.5710  -11.7090   18.7290 C   0  0  0  0  0  2  0  0  0  0  0  0
  -30.0650  -11.7830   19.0500 C   0  0  0  0  0  2  0  0  0  0  0  0
  -29.6800  -13.0550   19.8530 C   0  0  0  0  0  3  0  0  0  0  0  0
  -30.6460  -13.2960   21.0350 C   0  0  0  0  0  2  0  0  0  0  0  0
  -32.0140  -13.3050   20.5000 N   0  0  0  0  0  0  0  0  0  0  0  0
  -33.9600  -14.3390   19.9360 O   0  0  0  0  0  0  0  0  0  0  0  0
  -31.5480  -17.9740   20.5570 C   0  0  0  0  0  2  0  0  0  0  0  0
  -30.8010  -17.0220   18.3540 C   0  0  0  0  0  2  0  0  0  0  0  0
  -32.5570  -16.7970   20.6550 C   0  0  0  0  0  2  0  0  0  0  0  0
  -31.8640  -15.9120   18.5560 C   0  0  0  0  0  2  0  0  0  0  0  0
  -31.1180  -18.3420   19.1050 C   0  0  0  0  0  3  0  0  0  0  0  0
  -32.0810  -15.5750   19.9780 N   0  0  0  0  0  0  0  0  0  0  0  0
  -27.4030  -14.0630   20.4910 C   0  0  0  0  0  0  0  0  0  0  0  0
  -26.2050  -13.4880   20.8130 C   0  0  0  0  0  0  0  0  0  0  0  0
  -26.4240  -12.0770   20.7840 C   0  0  0  0  0  0  0  0  0  0  0  0
  -28.2860  -13.0140   20.2880 N   0  0  0  0  0  0  0  0  0  0  0  0
  -27.6990  -11.8130   20.5240 N   0  0  0  0  0  0  0  0  0  0  0  0
  -25.4810  -10.9600   20.9330 C   0  0  0  0  0  0  0  0  0  0  0  0
  -25.6470   -9.9830   21.9380 C   0  0  0  0  0  3  0  0  0  0  0  0
  -24.7170   -8.9290   22.0730 C   0  0  0  0  0  3  0  0  0  0  0  0
  -23.6050   -8.8490   21.2010 C   0  0  0  0  0  0  0  0  0  0  0  0
  -23.4570   -9.8120   20.1890 C   0  0  0  0  0  3  0  0  0  0  0  0
  -24.3860  -10.8560   20.0520 C   0  0  0  0  0  3  0  0  0  0  0  0
  -22.6640   -7.8490   21.2420 O   0  0  0  0  0  0  0  0  0  0  0  0
  -22.3080   -7.2420   22.4210 C   0  0  0  0  0  0  0  0  0  0  0  0
  -21.7180   -7.9640   23.4810 C   0  0  0  0  0  3  0  0  0  0  0  0
  -21.3050   -7.2890   24.6470 C   0  0  0  0  0  3  0  0  0  0  0  0
  -21.4700   -5.8960   24.7510 C   0  0  0  0  0  0  0  0  0  0  0  0
  -22.0530   -5.1750   23.6940 C   0  0  0  0  0  3  0  0  0  0  0  0
  -22.4680   -5.8460   22.5310 C   0  0  0  0  0  0  0  0  0  0  0  0
  -23.0090   -5.1440   21.5060 F   0  0  0  0  0  0  0  0  0  0  0  0
  -21.0660   -5.2450   25.8680 F   0  0  0  0  0  0  0  0  0  0  0  0
  -24.9040  -14.2030   21.0390 C   0  0  0  0  0  0  0  0  0  0  0  0
  -24.0380  -13.6480   21.8790 N   0  0  0  0  0  0  0  0  0  0  0  0
  -24.6680  -15.2860   20.5060 O   0  0  0  0  0  0  0  0  0  0  0  0
  -24.2400  -12.7690   22.3330 H   0  0  0  0  0  0  0  0  0  0  0  0
  -23.1610  -14.1100   22.0730 H   0  0  0  0  0  0  0  0  0  0  0  0
  -27.8100  -15.3840   20.3320 N   0  0  0  0  0  0  0  0  0  0  0  0
  -27.1610  -16.1590   20.3970 H   0  0  0  0  0  0  0  0  0  0  0  0
  -28.7360  -15.6600   20.0340 H   0  0  0  0  0  0  0  0  0  0  0  0
  -32.1080  -23.6750   17.2820 C   0  0  0  0  0  2  0  0  0  0  0  0
  -31.8850  -25.0970   16.6390 C   0  0  0  0  0  2  0  0  0  0  0  0
  -31.3420  -26.1400   17.4980 O   0  0  0  0  0  0  0  0  0  0  0  0
  -25.3480  -27.7500   21.0400 C   0  0  0  0  0  0  0  0  0  0  0  0
  -30.0290  -26.5910   17.3840 C   0  0  0  0  0  0  0  0  0  0  0  0
  -25.1240  -27.5200   18.5900 C   0  0  0  0  0  3  0  0  0  0  0  0
  -27.3100  -27.4340   17.2770 C   0  0  0  0  0  0  0  0  0  0  0  0
  -27.3440  -28.2660   19.6290 C   0  0  0  0  0  2  0  0  0  0  0  0
  -28.0500  -27.6210   18.4490 C   0  0  0  0  0  0  0  0  0  0  0  0
  -29.4040  -27.2020   18.5050 C   0  0  0  0  0  3  0  0  0  0  0  0
  -29.2520  -26.4310   16.2100 C   0  0  0  0  0  3  0  0  0  0  0  0
  -27.9070  -26.8420   16.1560 C   0  0  0  0  0  3  0  0  0  0  0  0
  -25.8670  -27.8910   17.2810 C   0  0  0  0  0  2  0  0  0  0  0  0
  -25.9370  -27.8250   19.8120 N   0  0  0  0  0  0  0  0  0  0  0  0
  -24.1470  -27.4710   21.1600 O   0  0  0  0  0  0  0  0  0  0  0  0
  -24.6760  -26.0420   18.5070 C   0  0  0  0  0  0  0  0  0  0  0  0
  -23.6500  -25.7710   17.6830 N   0  0  0  0  0  0  0  0  0  0  0  0
  -25.2600  -25.1670   19.1520 O   0  0  0  0  0  0  0  0  0  0  0  0
  -23.2180  -26.5440   17.1950 H   0  0  0  0  0  0  0  0  0  0  0  0
  -21.1410  -24.0020   15.7740 C   0  0  0  0  0  0  0  0  0  0  0  0
  -23.0840  -24.4470   17.4190 C   0  0  0  0  0  3  0  0  0  0  0  0
  -23.9680  -23.6510   16.4310 C   0  0  0  0  0  2  0  0  0  0  0  0
  -23.5330  -23.8090   14.9710 C   0  0  0  0  0  2  0  0  0  0  0  0
  -22.0870  -23.3400   14.7870 C   0  0  0  0  0  2  0  0  0  0  0  0
  -21.6120  -24.5350   17.0030 C   0  0  0  0  0  0  0  0  0  0  0  0
  -20.6950  -25.1720   17.8690 C   0  0  0  0  0  3  0  0  0  0  0  0
  -19.3350  -25.2760   17.5260 C   0  0  0  0  0  3  0  0  0  0  0  0
  -18.8710  -24.7320   16.3160 C   0  0  0  0  0  3  0  0  0  0  0  0
  -19.7720  -24.0930   15.4460 C   0  0  0  0  0  3  0  0  0  0  0  0
  -26.1480  -28.0380   22.3470 C   0  0  0  0  0  3  0  0  0  0  0  0
  -25.3170  -28.9040   23.1940 N   0  0  0  0  0  0  0  0  0  0  0  0
  -25.4920  -30.2240   23.3360 C   0  0  0  0  0  0  0  0  0  0  0  0
  -26.4290  -30.8340   22.8130 O   0  0  0  0  0  0  0  0  0  0  0  0
  -24.4980  -28.4810   23.6080 H   0  0  0  0  0  0  0  0  0  0  0  0
  -23.4620  -31.7070   23.2760 C   0  0  0  0  0  1  0  0  0  0  0  0
  -24.4660  -30.9900   24.1920 C   0  0  0  0  0  3  0  0  0  0  0  0
  -25.8260  -31.3400   26.2060 C   0  0  0  0  0  1  0  0  0  0  0  0
  -25.0830  -31.9660   25.1170 N   0  0  0  0  0  0  0  0  0  0  0  0
  -24.3750  -32.5740   25.5230 H   0  0  0  0  0  0  0  0  0  0  0  0
  -26.5580  -26.7270   23.1250 C   0  0  1  0  0  0  0  0  0  0  0  0
  -25.3780  -25.7630   23.3850 C   0  0  0  0  0  1  0  0  0  0  0  0
  -27.6410  -25.9450   22.3450 C   0  0  0  0  0  1  0  0  0  0  0  0
  -27.1820  -27.1010   24.4910 C   0  0  0  0  0  1  0  0  0  0  0  0
  1  5  1  0
  2  1  2  0
  3  4  2  0
  3  2  1  0
  4 10  1  0
  5  9  1  0
  6  3  1  0
  7  4  1  0
  8 11  1  0
  8  7  1  0
 10  5  2  0
 11  6  1  0
 11 12  1  1
 13 19  1  0
 14 19  1  0
 15 16  1  0
 15 14  1  0
 17 16  1  0
 17 30  1  0
 17 18  1  0
 19 18  1  0
 20 13  2  0
 21 23  1  0
 22 24  1  0
 22 25  1  0
 24 26  1  0
 25  2  1  0
 25 21  1  0
 26 13  1  0
 26 23  1  0
 27 28  2  0
 28 47  1  0
 29 28  1  0
 29 32  1  0
 30 27  1  0
 30 31  1  0
 31 29  2  0
 32 33  1  0
 33 34  2  0
 35 38  1  0
 35 34  1  0
 36 35  2  0
 37 36  1  0
 37 32  2  0
 38 39  1  0
 39 44  2  0
 39 40  1  0
 40 41  2  0
 41 42  1  0
 42 46  1  0
 43 42  2  0
 44 43  1  0
 45 44  1  0
 47 48  1  0
 48 51  1  0
 48 50  1  0
 49 47  2  0
 52 53  1  0
 52 27  1  0
 54 52  1  0
 55 11  1  0
 56 55  1  0
 56 57  1  0
 58 69  2  0
 59 57  1  0
 59 64  1  0
 60 70  1  0
 60 68  1  0
 61 67  1  0
 61 63  1  0
 62 68  1  0
 63 64  2  0
 63 62  1  0
 65 59  2  0
 66 65  1  0
 66 61  2  0
 67 60  1  0
 68 58  1  0
 70 72  2  0
 71 70  1  0
 73 71  1  0
 74 79  1  0
 75 71  1  0
 76 75  1  0
 77 76  1  0
 78 77  1  0
 78 74  1  0
 79 75  1  0
 79 80  2  0
 81 80  1  0
 82 81  2  0
 83 74  2  0
 83 82  1  0
 84 58  1  0
 84 94  1  0
 84 85  1  0
 85 86  1  0
 85 88  1  0
 86 90  1  0
 87 86  2  0
 90 89  1  0
 90 92  1  0
 92 93  1  0
 92 91  1  0
 94 95  1  1
 94 97  1  0
 96 94  1  0
M  ISO  4  13 100  26 100  56 101  57 101
M  END
>  <TORSDO>  (66) 
F 18

>  <SCORE>  (66) 
-8.645

>  <name>  (66) 
65

>  <ligand_id>  (66) 
65

>  <original_smiles>  (66) 
[H]c1c([H])c([H])c2c(c1[H])C([H])([H])C([H])([H])C([H])([H])C2([H])N([H])C(=O)C1([H])N(C(=O)C([H])(N([H])C(=O)C([H])(N([H])C([H])([H])[H])C([H])([H])[H])C(C([H])([H])[H])(C([H])([H])[H])C([H])([H])[H])C([H])([H])c2c([H])c(OC([H])([H])C([H])([H])[N+]3([H])C([H])([H])c4c(nc(C([H])([H])[H])c([H])c4C4([H])C([H])([H])C([H])([H])N(C(=O)N5C([H])([H])C([H])([H])C([H])([H])C([H])(n6nc(-c7c([H])c([H])c(Oc8c([H])c([H])c(F)c([H])c8F)c([H])c7[H])c(C(=O)N([H])[H])c6N([H])[H])C5([H])[H])C([H])([H])C4([H])[H])C([H])([H])C3([H])[H])c([H])c([H])c2C1([H])[H]

>  <smiles>  (66) 
[H]c1c([H])c([H])c2c(c1[H])C([H])([H])C([H])([H])C([H])([H])C2([H])N([H])C(=O)C1([H])N(C(=O)C([H])(N([H])C(=O)C([H])(N([H])C([H])([H])[H])C([H])([H])[H])C(C([H])([H])[H])(C([H])([H])[H])C([H])([H])[H])C([H])([H])c2c([H])c(OC([H])([H])C([H])([H])[N+]3([H])C([H])([H])c4c(nc(C([H])([H])[H])c([H])c4C4([H])C([H])([H])C([H])([H])N(C(=O)N5C([H])([H])C([H])([H])C([H])([H])C([H])(n6nc(-c7c([H])c([H])c(Oc8c([H])c([H])c(F)c([H])c8F)c([H])c7[H])c(C(=O)N([H])[H])c6N([H])[H])C5([H])[H])C([H])([H])C4([H])[H])C([H])([H])C3([H])[H])c([H])c([H])c2C1([H])[H]

$$$$
66:0:0
     RDKit          3D

 92101  0  0  1  0  0  0  0  0999 V2000
  -29.0570  -23.1780   21.6000 C   0  0  0  0  0  0  0  0  0  0  0  0
  -28.6220  -23.4510   20.2640 C   0  0  0  0  0  0  0  0  0  0  0  0
  -29.4200  -21.8460   21.7280 C   0  0  0  0  0  0  0  0  0  0  0  0
  -28.7690  -22.1750   19.6460 C   0  0  0  0  0  0  0  0  0  0  0  0
  -29.0840  -24.1770   22.7310 C   0  0  0  0  0  1  0  0  0  0  0  0
  -29.9390  -21.1640   22.9620 C   0  0  0  0  0  1  0  0  0  0  0  0
  -28.4600  -21.8130   18.2290 C   0  0  0  0  0  1  0  0  0  0  0  0
  -29.2630  -21.1400   20.5270 N   0  0  0  0  0  0  0  0  0  0  0  0
  -30.6920  -15.0600   19.9220 C   0  0  0  0  0  0  0  0  0  0  0  0
  -30.4200  -12.7490   18.9430 C   0  0  0  0  0  2  0  0  0  0  0  0
  -29.4160  -12.7280   17.7720 C   0  0  0  0  0  2  0  0  0  0  0  0
  -27.9860  -12.5170   18.3000 C   0  0  0  0  0  2  0  0  0  0  0  0
  -27.6580  -13.4250   19.5160 C   0  0  0  0  0  3  0  0  0  0  0  0
  -28.7880  -13.4330   20.5670 C   0  0  0  0  0  2  0  0  0  0  0  0
  -30.0080  -13.8480   19.8650 N   0  0  0  0  0  0  0  0  0  0  0  0
  -31.8810  -15.0170   19.5830 O   0  0  0  0  0  0  0  0  0  0  0  0
  -30.0810  -18.9450   19.0440 C   0  0  0  0  0  2  0  0  0  0  0  0
  -28.6740  -18.4700   20.9110 C   0  0  0  0  0  2  0  0  0  0  0  0
  -30.7320  -17.4790   19.1710 C   0  0  0  0  0  2  0  0  0  0  0  0
  -29.2330  -16.9520   21.0260 C   0  0  0  0  0  2  0  0  0  0  0  0
  -29.6450  -19.5990   20.3880 C   0  0  0  0  0  3  0  0  0  0  0  0
  -30.0530  -16.3430   19.9170 N   0  0  0  0  0  0  0  0  0  0  0  0
  -25.3380  -13.9720   20.4400 C   0  0  0  0  0  0  0  0  0  0  0  0
  -24.3010  -13.1830   20.8510 C   0  0  0  0  0  0  0  0  0  0  0  0
  -24.7600  -11.8340   20.7410 C   0  0  0  0  0  0  0  0  0  0  0  0
  -26.3610  -13.1050   20.0990 N   0  0  0  0  0  0  0  0  0  0  0  0
  -26.0280  -11.8120   20.3440 N   0  0  0  0  0  0  0  0  0  0  0  0
  -24.0450  -10.5650   20.9300 C   0  0  0  0  0  0  0  0  0  0  0  0
  -24.4830   -9.6030   21.8660 C   0  0  0  0  0  3  0  0  0  0  0  0
  -23.7660   -8.4000   22.0460 C   0  0  0  0  0  3  0  0  0  0  0  0
  -22.5960   -8.1510   21.2890 C   0  0  0  0  0  0  0  0  0  0  0  0
  -22.1780   -9.1020   20.3420 C   0  0  0  0  0  3  0  0  0  0  0  0
  -22.8960  -10.2960   20.1610 C   0  0  0  0  0  3  0  0  0  0  0  0
  -21.8500   -7.0010   21.3780 O   0  0  0  0  0  0  0  0  0  0  0  0
  -21.7250   -6.3130   22.5590 C   0  0  0  0  0  0  0  0  0  0  0  0
  -21.1870   -6.9140   23.7180 C   0  0  0  0  0  3  0  0  0  0  0  0
  -21.0110   -6.1510   24.8890 C   0  0  0  0  0  3  0  0  0  0  0  0
  -21.3620   -4.7880   24.9020 C   0  0  0  0  0  0  0  0  0  0  0  0
  -21.8940   -4.1870   23.7490 C   0  0  0  0  0  3  0  0  0  0  0  0
  -22.0710   -4.9470   22.5790 C   0  0  0  0  0  0  0  0  0  0  0  0
  -22.5640   -4.3570   21.4630 F   0  0  0  0  0  0  0  0  0  0  0  0
  -21.1870   -4.0540   26.0250 F   0  0  0  0  0  0  0  0  0  0  0  0
  -22.9260  -13.6490   21.2300 C   0  0  0  0  0  0  0  0  0  0  0  0
  -22.2560  -12.9230   22.1190 N   0  0  0  0  0  0  0  0  0  0  0  0
  -22.4560  -14.6900   20.7740 O   0  0  0  0  0  0  0  0  0  0  0  0
  -22.6510  -12.0800   22.5070 H   0  0  0  0  0  0  0  0  0  0  0  0
  -21.3350  -13.2160   22.4150 H   0  0  0  0  0  0  0  0  0  0  0  0
  -25.4920  -15.3490   20.3020 N   0  0  0  0  0  0  0  0  0  0  0  0
  -24.7360  -15.9980   20.4850 H   0  0  0  0  0  0  0  0  0  0  0  0
  -26.3190  -15.7980   19.9300 H   0  0  0  0  0  0  0  0  0  0  0  0
  -27.9470  -24.8490   19.7080 C   0  0  0  0  0  2  0  0  0  0  0  0
  -28.1660  -26.3010   20.2010 O   0  0  0  0  0  0  0  0  0  0  0  0
  -24.5520  -31.9350   23.2250 C   0  0  0  0  0  0  0  0  0  0  0  0
  -27.1230  -27.2910   20.1060 C   0  0  0  0  0  0  0  0  0  0  0  0
  -23.3420  -30.5490   21.5880 C   0  0  0  0  0  3  0  0  0  0  0  0
  -24.7830  -29.0140   20.1210 C   0  0  0  0  0  0  0  0  0  0  0  0
  -25.8920  -30.8390   21.3960 C   0  0  0  0  0  2  0  0  0  0  0  0
  -25.9650  -29.4580   20.7260 C   0  0  0  0  0  0  0  0  0  0  0  0
  -27.1330  -28.6090   20.7130 C   0  0  0  0  0  3  0  0  0  0  0  0
  -25.9230  -26.9680   19.4290 C   0  0  0  0  0  3  0  0  0  0  0  0
  -24.7730  -27.7820   19.4580 C   0  0  0  0  0  3  0  0  0  0  0  0
  -23.5490  -29.8960   20.1960 C   0  0  0  0  0  2  0  0  0  0  0  0
  -24.6160  -31.1290   22.1230 N   0  0  0  0  0  0  0  0  0  0  0  0
  -23.4700  -32.2050   23.7690 O   0  0  0  0  0  0  0  0  0  0  0  0
  -22.6870  -29.5210   22.5460 C   0  0  0  0  0  0  0  0  0  0  0  0
  -21.3670  -29.3070   22.4050 N   0  0  0  0  0  0  0  0  0  0  0  0
  -23.3680  -28.9190   23.3790 O   0  0  0  0  0  0  0  0  0  0  0  0
  -20.8730  -29.8440   21.7050 H   0  0  0  0  0  0  0  0  0  0  0  0
  -18.0240  -27.9810   22.8430 C   0  0  0  0  0  0  0  0  0  0  0  0
  -20.5640  -28.3500   23.1700 C   0  0  0  0  0  3  0  0  0  0  0  0
  -20.7370  -26.9150   22.6230 C   0  0  0  0  0  2  0  0  0  0  0  0
  -19.6750  -26.5310   21.5890 C   0  0  0  0  0  2  0  0  0  0  0  0
  -18.2720  -26.6310   22.1940 C   0  0  0  0  0  2  0  0  0  0  0  0
  -19.1010  -28.7960   23.2860 C   0  0  0  0  0  0  0  0  0  0  0  0
  -18.8150  -30.0590   23.8510 C   0  0  0  0  0  3  0  0  0  0  0  0
  -17.4870  -30.5070   23.9780 C   0  0  0  0  0  3  0  0  0  0  0  0
  -16.4260  -29.6900   23.5520 C   0  0  0  0  0  3  0  0  0  0  0  0
  -16.6940  -28.4290   22.9910 C   0  0  0  0  0  3  0  0  0  0  0  0
  -25.8320  -32.5750   23.8420 C   0  0  0  0  0  3  0  0  0  0  0  0
  -25.5240  -33.9780   24.1600 N   0  0  0  0  0  0  0  0  0  0  0  0
  -25.8250  -35.0230   23.3780 C   0  0  0  0  0  0  0  0  0  0  0  0
  -26.4620  -34.9080   22.3280 O   0  0  0  0  0  0  0  0  0  0  0  0
  -24.9570  -34.1400   24.9810 H   0  0  0  0  0  0  0  0  0  0  0  0
  -24.0680  -36.7980   23.0740 C   0  0  0  0  0  1  0  0  0  0  0  0
  -25.3480  -36.4170   23.8340 C   0  0  0  0  0  3  0  0  0  0  0  0
  -27.5060  -37.3360   24.5610 C   0  0  0  0  0  1  0  0  0  0  0  0
  -26.3650  -37.4770   23.6580 N   0  0  0  0  0  0  0  0  0  0  0  0
  -25.9580  -38.3970   23.8010 H   0  0  0  0  0  0  0  0  0  0  0  0
  -26.3420  -31.8200   25.1300 C   0  0  1  0  0  0  0  0  0  0  0  0
  -25.2410  -31.5880   26.1920 C   0  0  0  0  0  1  0  0  0  0  0  0
  -26.9330  -30.4400   24.7600 C   0  0  0  0  0  1  0  0  0  0  0  0
  -27.4870  -32.6250   25.7910 C   0  0  0  0  0  1  0  0  0  0  0  0
  1  3  2  0
  1  5  1  0
  2  1  1  0
  3  6  1  0
  4  2  2  0
  4  8  1  0
  7  4  1  0
  8  3  1  0
 10 15  1  0
 11 12  1  0
 11 10  1  0
 13 12  1  0
 13 26  1  0
 13 14  1  0
 15  9  1  0
 15 14  1  0
 16  9  2  0
 17 19  1  0
 18 20  1  0
 19 22  1  0
 21 17  1  0
 21  8  1  0
 21 18  1  0
 22  9  1  0
 22 20  1  0
 23 24  2  0
 24 43  1  0
 25 24  1  0
 25 28  1  0
 26 27  1  0
 26 23  1  0
 27 25  2  0
 28 29  1  0
 29 30  2  0
 31 34  1  0
 31 30  1  0
 32 31  2  0
 33 32  1  0
 33 28  2  0
 34 35  1  0
 35 40  2  0
 35 36  1  0
 36 37  2  0
 37 38  1  0
 38 42  1  0
 39 38  2  0
 40 39  1  0
 41 40  1  0
 43 44  1  0
 44 47  1  0
 44 46  1  0
 45 43  2  0
 48 23  1  0
 48 49  1  0
 50 48  1  0
 51 52  1  0
 51  2  1  0
 53 64  2  0
 54 52  1  0
 54 59  1  0
 55 63  1  0
 55 65  1  0
 56 62  1  0
 56 58  1  0
 57 63  1  0
 58 57  1  0
 59 58  2  0
 60 61  1  0
 60 54  2  0
 61 56  2  0
 62 55  1  0
 63 53  1  0
 65 67  2  0
 66 65  1  0
 68 66  1  0
 69 78  2  0
 69 74  1  0
 70 66  1  0
 70 74  1  0
 71 70  1  0
 72 73  1  0
 72 71  1  0
 73 69  1  0
 74 75  2  0
 75 76  1  0
 77 76  2  0
 78 77  1  0
 79 53  1  0
 79 80  1  0
 79 89  1  0
 80 83  1  0
 81 85  1  0
 81 80  1  0
 82 81  2  0
 85 84  1  0
 87 88  1  0
 87 85  1  0
 87 86  1  0
 89 92  1  1
 89 90  1  0
 91 89  1  0
M  ISO  4   9 100  22 100  51 101  52 101
M  END
>  <TORSDO>  (67) 
F 17

>  <SCORE>  (67) 
-14.866

>  <name>  (67) 
66

>  <ligand_id>  (67) 
66

>  <original_smiles>  (67) 
[H]c1c([H])c([H])c2c(c1[H])C([H])([H])C([H])([H])C([H])([H])C2([H])N([H])C(=O)C1([H])N(C(=O)C([H])(N([H])C(=O)C([H])(N([H])C([H])([H])[H])C([H])([H])[H])C(C([H])([H])[H])(C([H])([H])[H])C([H])([H])[H])C([H])([H])c2c([H])c(OC([H])([H])c3c(C([H])([H])[H])c(C([H])([H])[H])n(C4([H])C([H])([H])C([H])([H])N(C(=O)N5C([H])([H])C([H])([H])C([H])([H])C([H])(n6nc(-c7c([H])c([H])c(Oc8c([H])c([H])c(F)c([H])c8F)c([H])c7[H])c(C(=O)N([H])[H])c6N([H])[H])C5([H])[H])C([H])([H])C4([H])[H])c3C([H])([H])[H])c([H])c([H])c2C1([H])[H]

>  <smiles>  (67) 
[H]c1c([H])c([H])c2c(c1[H])C([H])([H])C([H])([H])C([H])([H])C2([H])N([H])C(=O)C1([H])N(C(=O)C([H])(N([H])C(=O)C([H])(N([H])C([H])([H])[H])C([H])([H])[H])C(C([H])([H])[H])(C([H])([H])[H])C([H])([H])[H])C([H])([H])c2c([H])c(OC([H])([H])c3c(C([H])([H])[H])c(C([H])([H])[H])n(C4([H])C([H])([H])C([H])([H])N(C(=O)N5C([H])([H])C([H])([H])C([H])([H])C([H])(n6nc(-c7c([H])c([H])c(Oc8c([H])c([H])c(F)c([H])c8F)c([H])c7[H])c(C(=O)N([H])[H])c6N([H])[H])C5([H])[H])C([H])([H])C4([H])[H])c3C([H])([H])[H])c([H])c([H])c2C1([H])[H]

$$$$
67:0:0
     RDKit          3D

102112  0  0  1  0  0  0  0  0999 V2000
  -29.8420  -20.4820   21.3080 C   0  0  0  0  0  3  0  0  0  0  0  0
  -29.8480  -21.8210   20.8420 C   0  0  0  0  0  0  0  0  0  0  0  0
  -30.7990  -22.2750   19.9190 C   0  0  0  0  0  0  0  0  0  0  0  0
  -31.8480  -21.3950   19.5030 C   0  0  0  0  0  0  0  0  0  0  0  0
  -30.8020  -19.5470   20.8410 C   0  0  0  0  0  0  0  0  0  0  0  0
  -31.8240  -20.0290   19.9630 C   0  0  0  0  0  0  0  0  0  0  0  0
  -30.3880  -23.6870   19.3870 C   0  0  2  0  0  0  0  0  0  0  0  0
  -28.7440  -22.8540   21.0640 C   0  0  2  0  0  0  0  0  0  0  0  0
  -28.8350  -23.7270   19.7390 C   0  0  2  0  0  0  0  0  0  0  0  0
  -32.8920  -19.0430   19.5030 C   0  0  0  0  0  1  0  0  0  0  0  0
  -30.6520  -23.9500   17.8790 C   0  0  0  0  0  1  0  0  0  0  0  0
  -31.1790  -24.8000   20.1240 C   0  0  0  0  0  1  0  0  0  0  0  0
  -28.9220  -23.5970   22.4030 C   0  0  0  0  0  1  0  0  0  0  0  0
  -34.4040  -21.6390   18.6750 C   0  0  0  0  0  2  0  0  0  0  0  0
  -33.8310  -23.0050   18.9000 C   0  0  0  0  0  2  0  0  0  0  0  0
  -32.9060  -21.8680   18.5260 C   0  0  0  0  0  3  0  0  0  0  0  0
  -28.2880  -21.4840   18.2080 C   0  0  0  0  0  1  0  0  0  0  0  0
  -27.9980  -22.9550   18.6040 C   0  0  0  0  0  2  0  0  0  0  0  0
  -27.4700  -22.2670   21.2270 O   0  0  0  0  0  0  0  0  0  0  0  0
  -27.2310  -21.9420   20.3710 H   0  0  0  0  0  0  0  0  0  0  0  0
  -30.7360  -18.0600   21.3230 C   0  0  0  0  0  3  0  0  0  0  0  0
  -30.0290  -17.0330   20.3700 C   0  0  0  0  0  3  0  0  0  0  0  0
  -30.6570  -14.5680   20.4630 C   0  0  0  0  0  0  0  0  0  0  0  0
  -30.3840  -12.3750   19.3610 C   0  0  0  0  0  2  0  0  0  0  0  0
  -29.4450  -12.5480   18.1480 C   0  0  0  0  0  2  0  0  0  0  0  0
  -27.9730  -12.4000   18.5710 C   0  0  0  0  0  2  0  0  0  0  0  0
  -27.6210  -13.2670   19.8100 C   0  0  0  0  0  3  0  0  0  0  0  0
  -28.6700  -13.0740   20.9320 C   0  0  0  0  0  2  0  0  0  0  0  0
  -30.0000  -13.3760   20.3720 N   0  0  0  0  0  0  0  0  0  0  0  0
  -31.7970  -14.7330   20.0180 O   0  0  0  0  0  0  0  0  0  0  0  0
  -29.9080  -15.6260   20.8510 N   0  0  0  0  0  0  0  0  0  0  0  0
  -29.0140  -15.3740   21.2490 H   0  0  0  0  0  0  0  0  0  0  0  0
  -25.2160  -13.8930   20.4790 C   0  0  0  0  0  0  0  0  0  0  0  0
  -24.1400  -13.1330   20.8410 C   0  0  0  0  0  0  0  0  0  0  0  0
  -24.5920  -11.7770   20.8340 C   0  0  0  0  0  0  0  0  0  0  0  0
  -26.2610  -13.0050   20.2760 N   0  0  0  0  0  0  0  0  0  0  0  0
  -25.8870  -11.7270   20.5490 N   0  0  0  0  0  0  0  0  0  0  0  0
  -23.8560  -10.5200   21.0290 C   0  0  0  0  0  0  0  0  0  0  0  0
  -24.2840   -9.5530   21.9660 C   0  0  0  0  0  3  0  0  0  0  0  0
  -23.5510   -8.3600   22.1480 C   0  0  0  0  0  3  0  0  0  0  0  0
  -22.3770   -8.1270   21.3930 C   0  0  0  0  0  0  0  0  0  0  0  0
  -21.9700   -9.0820   20.4450 C   0  0  0  0  0  3  0  0  0  0  0  0
  -22.7040  -10.2660   20.2620 C   0  0  0  0  0  3  0  0  0  0  0  0
  -21.6150   -6.9870   21.4860 O   0  0  0  0  0  0  0  0  0  0  0  0
  -21.5700   -6.2410   22.6370 C   0  0  0  0  0  0  0  0  0  0  0  0
  -21.1690   -6.8000   23.8700 C   0  0  0  0  0  3  0  0  0  0  0  0
  -21.0710   -5.9820   25.0140 C   0  0  0  0  0  3  0  0  0  0  0  0
  -21.3650   -4.6080   24.9260 C   0  0  0  0  0  0  0  0  0  0  0  0
  -21.7590   -4.0490   23.6980 C   0  0  0  0  0  3  0  0  0  0  0  0
  -21.8590   -4.8640   22.5560 C   0  0  0  0  0  0  0  0  0  0  0  0
  -22.2180   -4.3160   21.3690 F   0  0  0  0  0  0  0  0  0  0  0  0
  -21.2630   -3.8210   26.0230 F   0  0  0  0  0  0  0  0  0  0  0  0
  -22.7400  -13.6180   21.0900 C   0  0  0  0  0  0  0  0  0  0  0  0
  -21.9960  -12.9360   21.9520 N   0  0  0  0  0  0  0  0  0  0  0  0
  -22.3140  -14.6410   20.5510 O   0  0  0  0  0  0  0  0  0  0  0  0
  -22.3500  -12.1070   22.4060 H   0  0  0  0  0  0  0  0  0  0  0  0
  -21.0600  -13.2500   22.1660 H   0  0  0  0  0  0  0  0  0  0  0  0
  -25.3980  -15.2620   20.2820 N   0  0  0  0  0  0  0  0  0  0  0  0
  -24.6430  -15.9350   20.3500 H   0  0  0  0  0  0  0  0  0  0  0  0
  -26.2660  -15.6740   19.9650 H   0  0  0  0  0  0  0  0  0  0  0  0
  -28.0550  -25.1300   19.7200 C   0  0  0  0  0  2  0  0  0  0  0  0
  -28.3260  -26.4860   20.2190 O   0  0  0  0  0  0  0  0  0  0  0  0
  -24.6140  -31.8820   23.2410 C   0  0  0  0  0  0  0  0  0  0  0  0
  -27.2140  -27.3580   20.1550 C   0  0  0  0  0  0  0  0  0  0  0  0
  -23.4020  -30.4890   21.6060 C   0  0  0  0  0  3  0  0  0  0  0  0
  -24.8500  -28.9740   20.1540 C   0  0  0  0  0  0  0  0  0  0  0  0
  -25.9380  -30.8210   21.4050 C   0  0  0  0  0  2  0  0  0  0  0  0
  -26.0180  -29.4460   20.7660 C   0  0  0  0  0  0  0  0  0  0  0  0
  -27.2020  -28.6460   20.7690 C   0  0  0  0  0  3  0  0  0  0  0  0
  -26.0140  -26.9640   19.4960 C   0  0  0  0  0  3  0  0  0  0  0  0
  -24.8510  -27.7410   19.5040 C   0  0  0  0  0  3  0  0  0  0  0  0
  -23.6040  -29.8300   20.2190 C   0  0  0  0  0  2  0  0  0  0  0  0
  -24.6710  -31.0780   22.1420 N   0  0  0  0  0  0  0  0  0  0  0  0
  -23.5330  -32.1600   23.7780 O   0  0  0  0  0  0  0  0  0  0  0  0
  -22.7420  -29.4670   22.5600 C   0  0  0  0  0  0  0  0  0  0  0  0
  -21.4150  -29.2890   22.4310 N   0  0  0  0  0  0  0  0  0  0  0  0
  -23.4210  -28.8360   23.3750 O   0  0  0  0  0  0  0  0  0  0  0  0
  -20.9260  -29.8540   21.7520 H   0  0  0  0  0  0  0  0  0  0  0  0
  -18.0380  -28.0840   22.9170 C   0  0  0  0  0  0  0  0  0  0  0  0
  -20.5960  -28.3510   23.1960 C   0  0  0  0  0  3  0  0  0  0  0  0
  -20.7040  -26.9170   22.6240 C   0  0  0  0  0  2  0  0  0  0  0  0
  -19.6050  -26.5890   21.6090 C   0  0  0  0  0  2  0  0  0  0  0  0
  -18.2190  -26.7360   22.2430 C   0  0  0  0  0  2  0  0  0  0  0  0
  -19.1520  -28.8510   23.3480 C   0  0  0  0  0  0  0  0  0  0  0  0
  -18.9290  -30.1170   23.9320 C   0  0  0  0  0  3  0  0  0  0  0  0
  -17.6210  -30.6140   24.0920 C   0  0  0  0  0  3  0  0  0  0  0  0
  -16.5210  -29.8440   23.6750 C   0  0  0  0  0  3  0  0  0  0  0  0
  -16.7300  -28.5820   23.0940 C   0  0  0  0  0  3  0  0  0  0  0  0
  -25.9000  -32.5080   23.8610 C   0  0  0  0  0  3  0  0  0  0  0  0
  -25.5940  -33.9040   24.1990 N   0  0  0  0  0  0  0  0  0  0  0  0
  -25.9130  -34.9570   23.4340 C   0  0  0  0  0  0  0  0  0  0  0  0
  -26.5670  -34.8520   22.3920 O   0  0  0  0  0  0  0  0  0  0  0  0
  -25.0230  -34.0590   25.0180 H   0  0  0  0  0  0  0  0  0  0  0  0
  -24.1800  -36.7530   23.1030 C   0  0  0  0  0  1  0  0  0  0  0  0
  -25.4310  -36.3440   23.8980 C   0  0  0  0  0  3  0  0  0  0  0  0
  -27.5740  -37.2290   24.7010 C   0  0  0  0  0  1  0  0  0  0  0  0
  -26.4610  -37.3980   23.7720 N   0  0  0  0  0  0  0  0  0  0  0  0
  -26.0550  -38.3150   23.9310 H   0  0  0  0  0  0  0  0  0  0  0  0
  -26.4090  -31.7290   25.1340 C   0  0  1  0  0  0  0  0  0  0  0  0
  -25.3110  -31.4970   26.2000 C   0  0  0  0  0  1  0  0  0  0  0  0
  -26.9860  -30.3500   24.7290 C   0  0  0  0  0  1  0  0  0  0  0  0
  -27.5600  -32.5190   25.7960 C   0  0  0  0  0  1  0  0  0  0  0  0
  2  8  1  0
  2  1  1  0
  3  2  2  0
  4  3  1  0
  4  6  2  0
  5  1  2  0
  5 21  1  0
  6  5  1  0
  7  9  1  0
  7  3  1  0
  7 12  1  1
  8 19  1  0
  8 13  1  1
  9 18  1  6
  9  8  1  0
 10  6  1  0
 11  7  1  0
 14 15  1  0
 16 14  1  0
 16 15  1  0
 16  4  1  0
 17 18  1  0
 20 19  1  0
 22 31  1  0
 22 21  2  0
 23 31  1  0
 24 29  1  0
 25 26  1  0
 25 24  1  0
 27 26  1  0
 27 36  1  0
 27 28  1  0
 29 23  1  0
 29 28  1  0
 30 23  2  0
 31 32  1  0
 33 34  2  0
 34 53  1  0
 35 34  1  0
 35 38  1  0
 36 33  1  0
 36 37  1  0
 37 35  2  0
 38 39  1  0
 39 40  2  0
 41 44  1  0
 41 40  1  0
 42 41  2  0
 43 42  1  0
 43 38  2  0
 44 45  1  0
 45 46  1  0
 46 47  2  0
 48 47  1  0
 48 52  1  0
 49 48  2  0
 50 45  2  0
 50 49  1  0
 51 50  1  0
 53 54  1  0
 54 57  1  0
 54 56  1  0
 55 53  2  0
 58 59  1  0
 58 33  1  0
 60 58  1  0
 61  9  1  0
 61 62  1  0
 63 74  2  0
 64 62  1  0
 64 69  1  0
 65 73  1  0
 65 75  1  0
 66 72  1  0
 66 68  1  0
 67 73  1  0
 68 69  2  0
 68 67  1  0
 70 71  1  0
 70 64  2  0
 71 66  2  0
 72 65  1  0
 73 63  1  0
 75 77  2  0
 76 75  1  0
 78 76  1  0
 79 88  2  0
 79 84  1  0
 80 76  1  0
 80 84  1  0
 81 80  1  0
 82 83  1  0
 82 81  1  0
 83 79  1  0
 84 85  2  0
 85 86  1  0
 87 86  2  0
 88 87  1  0
 89 63  1  0
 89 90  1  0
 89 99  1  0
 90 93  1  0
 91 95  1  0
 91 90  1  0
 92 91  2  0
 95 94  1  0
 97 95  1  0
 97 98  1  0
 97 96  1  0
 99102  1  1
 99100  1  0
101 99  1  0
M  ISO  4  23 100  31 100  61 101  62 101
M  END
>  <TORSDO>  (68) 
F 22

>  <SCORE>  (68) 
-13.827

>  <name>  (68) 
67

>  <ligand_id>  (68) 
67

>  <original_smiles>  (68) 
[H]OC1(C([H])([H])[H])c2c([H])c(C([H])([H])C([H])([H])N([H])C(=O)N3C([H])([H])C([H])([H])C([H])([H])C([H])(n4nc(-c5c([H])c([H])c(Oc6c([H])c([H])c(F)c([H])c6F)c([H])c5[H])c(C(=O)N([H])[H])c4N([H])[H])C3([H])[H])c(C([H])([H])[H])c(C3([H])C([H])([H])C3([H])[H])c2C(C([H])([H])[H])(C([H])([H])[H])C1(C([H])([H])Oc1c([H])c([H])c2c(c1[H])C([H])([H])N(C(=O)C([H])(N([H])C(=O)C([H])(N([H])C([H])([H])[H])C([H])([H])[H])C(C([H])([H])[H])(C([H])([H])[H])C([H])([H])[H])C([H])(C(=O)N([H])C1([H])c3c([H])c([H])c([H])c([H])c3C([H])([H])C([H])([H])C1([H])[H])C2([H])[H])C([H])([H])C([H])([H])[H]

>  <smiles>  (68) 
[H]OC1(C([H])([H])[H])c2c([H])c(C([H])([H])C([H])([H])N([H])C(=O)N3C([H])([H])C([H])([H])C([H])([H])C([H])(n4nc(-c5c([H])c([H])c(Oc6c([H])c([H])c(F)c([H])c6F)c([H])c5[H])c(C(=O)N([H])[H])c4N([H])[H])C3([H])[H])c(C([H])([H])[H])c(C3([H])C([H])([H])C3([H])[H])c2C(C([H])([H])[H])(C([H])([H])[H])C1(C([H])([H])Oc1c([H])c([H])c2c(c1[H])C([H])([H])N(C(=O)C([H])(N([H])C(=O)C([H])(N([H])C([H])([H])[H])C([H])([H])[H])C(C([H])([H])[H])(C([H])([H])[H])C([H])([H])[H])C([H])(C(=O)N([H])C1([H])c3c([H])c([H])c([H])c([H])c3C([H])([H])C([H])([H])C1([H])[H])C2([H])[H])C([H])([H])C([H])([H])[H]

$$$$
68:0:0
     RDKit          3D

 91 99  0  0  1  0  0  0  0  0999 V2000
  -29.3200  -21.2450   18.7220 C   0  0  0  0  0  3  0  0  0  0  0  0
  -29.0530  -22.6640   18.6680 C   0  0  0  0  0  0  0  0  0  0  0  0
  -28.6310  -23.4170   19.8190 C   0  0  0  0  0  0  0  0  0  0  0  0
  -29.2020  -20.4730   19.9130 C   0  0  0  0  0  0  0  0  0  0  0  0
  -28.6080  -22.5770   20.9910 C   0  0  0  0  0  0  0  0  0  0  0  0
  -29.1180  -23.3430   17.3110 C   0  0  0  0  0  1  0  0  0  0  0  0
  -28.1490  -23.1190   22.3330 C   0  0  0  0  0  1  0  0  0  0  0  0
  -28.8910  -21.2150   21.0290 N   0  0  0  0  0  0  0  0  0  0  0  0
  -29.0800  -18.8330   19.9400 C   0  0  0  0  0  3  0  0  0  0  0  0
  -28.1740  -18.5130   20.8690 F   0  0  0  0  0  0  0  0  0  0  0  0
  -30.2720  -17.6980   20.1000 C   0  0  0  0  0  2  0  0  0  0  0  0
  -30.6910  -15.0170   19.9570 C   0  0  0  0  0  0  0  0  0  0  0  0
  -30.4830  -12.7080   18.9840 C   0  0  0  0  0  2  0  0  0  0  0  0
  -29.4790  -12.7130   17.8110 C   0  0  0  0  0  2  0  0  0  0  0  0
  -28.0410  -12.5090   18.3240 C   0  0  0  0  0  2  0  0  0  0  0  0
  -27.7110  -13.4210   19.5330 C   0  0  0  0  0  3  0  0  0  0  0  0
  -28.8260  -13.3950   20.5990 C   0  0  0  0  0  2  0  0  0  0  0  0
  -30.0760  -13.7770   19.9300 N   0  0  0  0  0  0  0  0  0  0  0  0
  -31.8660  -15.1050   19.5930 O   0  0  0  0  0  0  0  0  0  0  0  0
  -29.9260  -16.1730   20.1870 N   0  0  0  0  0  0  0  0  0  0  0  0
  -28.9670  -15.9820   20.4430 H   0  0  0  0  0  0  0  0  0  0  0  0
  -25.3770  -13.9980   20.4190 C   0  0  0  0  0  0  0  0  0  0  0  0
  -24.3310  -13.2190   20.8320 C   0  0  0  0  0  0  0  0  0  0  0  0
  -24.7880  -11.8670   20.7460 C   0  0  0  0  0  0  0  0  0  0  0  0
  -26.4000  -13.1220   20.1010 N   0  0  0  0  0  0  0  0  0  0  0  0
  -26.0590  -11.8340   20.3640 N   0  0  0  0  0  0  0  0  0  0  0  0
  -24.0670  -10.6030   20.9480 C   0  0  0  0  0  0  0  0  0  0  0  0
  -24.5100   -9.6410   21.8810 C   0  0  0  0  0  3  0  0  0  0  0  0
  -23.7880   -8.4430   22.0710 C   0  0  0  0  0  3  0  0  0  0  0  0
  -22.6090   -8.1990   21.3270 C   0  0  0  0  0  0  0  0  0  0  0  0
  -22.1850   -9.1500   20.3820 C   0  0  0  0  0  3  0  0  0  0  0  0
  -22.9080  -10.3400   20.1910 C   0  0  0  0  0  3  0  0  0  0  0  0
  -21.8570   -7.0530   21.4270 O   0  0  0  0  0  0  0  0  0  0  0  0
  -21.7870   -6.3380   22.5960 C   0  0  0  0  0  0  0  0  0  0  0  0
  -21.2450   -6.8920   23.7760 C   0  0  0  0  0  3  0  0  0  0  0  0
  -21.1260   -6.0990   24.9350 C   0  0  0  0  0  3  0  0  0  0  0  0
  -21.5410   -4.7540   24.9140 C   0  0  0  0  0  0  0  0  0  0  0  0
  -22.0760   -4.2010   23.7380 C   0  0  0  0  0  3  0  0  0  0  0  0
  -22.1970   -4.9900   22.5810 C   0  0  0  0  0  0  0  0  0  0  0  0
  -22.6930   -4.4450   21.4440 F   0  0  0  0  0  0  0  0  0  0  0  0
  -21.4230   -3.9900   26.0250 F   0  0  0  0  0  0  0  0  0  0  0  0
  -22.9530  -13.6950   21.1900 C   0  0  0  0  0  0  0  0  0  0  0  0
  -22.2770  -12.9920   22.0910 N   0  0  0  0  0  0  0  0  0  0  0  0
  -22.4870  -14.7260   20.7070 O   0  0  0  0  0  0  0  0  0  0  0  0
  -22.6680  -12.1570   22.5030 H   0  0  0  0  0  0  0  0  0  0  0  0
  -21.3550  -13.2930   22.3730 H   0  0  0  0  0  0  0  0  0  0  0  0
  -25.5350  -15.3710   20.2620 N   0  0  0  0  0  0  0  0  0  0  0  0
  -24.7790  -16.0230   20.4380 H   0  0  0  0  0  0  0  0  0  0  0  0
  -26.3550  -15.8180   19.8730 H   0  0  0  0  0  0  0  0  0  0  0  0
  -27.8510  -24.8550   19.6800 C   0  0  0  0  0  2  0  0  0  0  0  0
  -28.2870  -26.3040   19.9680 O   0  0  0  0  0  0  0  0  0  0  0  0
  -24.6490  -31.7420   23.3240 C   0  0  0  0  0  0  0  0  0  0  0  0
  -27.2500  -27.3040   19.9530 C   0  0  0  0  0  0  0  0  0  0  0  0
  -23.4530  -30.4490   21.6030 C   0  0  0  0  0  3  0  0  0  0  0  0
  -24.9080  -29.0150   20.0590 C   0  0  0  0  0  0  0  0  0  0  0  0
  -26.0040  -30.7620   21.4420 C   0  0  0  0  0  2  0  0  0  0  0  0
  -26.0870  -29.4250   20.6930 C   0  0  0  0  0  0  0  0  0  0  0  0
  -27.2600  -28.5840   20.6340 C   0  0  0  0  0  3  0  0  0  0  0  0
  -26.0410  -27.0130   19.2680 C   0  0  0  0  0  3  0  0  0  0  0  0
  -24.8940  -27.8200   19.3370 C   0  0  0  0  0  3  0  0  0  0  0  0
  -23.6710  -29.8870   20.1770 C   0  0  0  0  0  2  0  0  0  0  0  0
  -24.7220  -31.0000   22.1780 N   0  0  0  0  0  0  0  0  0  0  0  0
  -23.5630  -31.9770   23.8750 O   0  0  0  0  0  0  0  0  0  0  0  0
  -22.8000  -29.3620   22.4900 C   0  0  0  0  0  0  0  0  0  0  0  0
  -21.4860  -29.1380   22.3160 N   0  0  0  0  0  0  0  0  0  0  0  0
  -23.4800  -28.7280   23.3010 O   0  0  0  0  0  0  0  0  0  0  0  0
  -20.9920  -29.7070   21.6410 H   0  0  0  0  0  0  0  0  0  0  0  0
  -18.1570  -27.7500   22.6410 C   0  0  0  0  0  0  0  0  0  0  0  0
  -20.6870  -28.1330   23.0190 C   0  0  0  0  0  3  0  0  0  0  0  0
  -20.8850  -26.7290   22.4010 C   0  0  0  0  0  2  0  0  0  0  0  0
  -19.8420  -26.3870   21.3330 C   0  0  0  0  0  2  0  0  0  0  0  0
  -18.4300  -26.4370   21.9260 C   0  0  0  0  0  2  0  0  0  0  0  0
  -19.2170  -28.5520   23.1410 C   0  0  0  0  0  0  0  0  0  0  0  0
  -18.9100  -29.7780   23.7700 C   0  0  0  0  0  3  0  0  0  0  0  0
  -17.5750  -30.2040   23.9030 C   0  0  0  0  0  3  0  0  0  0  0  0
  -16.5290  -29.4000   23.4190 C   0  0  0  0  0  3  0  0  0  0  0  0
  -16.8210  -28.1730   22.7950 C   0  0  0  0  0  3  0  0  0  0  0  0
  -25.9250  -32.3490   23.9810 C   0  0  0  0  0  3  0  0  0  0  0  0
  -26.3830  -31.5730   25.2770 C   0  0  1  0  0  0  0  0  0  0  0  0
  -25.2500  -31.3610   26.3090 C   0  0  0  0  0  1  0  0  0  0  0  0
  -26.9540  -30.1830   24.9140 C   0  0  0  0  0  1  0  0  0  0  0  0
  -27.5230  -32.3500   25.9740 C   0  0  0  0  0  1  0  0  0  0  0  0
  -25.6360  -33.7570   24.2980 N   0  0  0  0  0  0  0  0  0  0  0  0
  -25.9440  -34.7960   23.5130 C   0  0  0  0  0  0  0  0  0  0  0  0
  -26.5720  -34.6720   22.4580 O   0  0  0  0  0  0  0  0  0  0  0  0
  -25.0730  -33.9280   25.1200 H   0  0  0  0  0  0  0  0  0  0  0  0
  -24.1900  -36.5800   23.2340 C   0  0  0  0  0  1  0  0  0  0  0  0
  -25.4850  -36.1960   23.9680 C   0  0  0  0  0  3  0  0  0  0  0  0
  -27.6580  -37.1200   24.6470 C   0  0  0  0  0  1  0  0  0  0  0  0
  -26.5060  -37.2460   23.7580 N   0  0  0  0  0  0  0  0  0  0  0  0
  -26.1020  -38.1700   23.8910 H   0  0  0  0  0  0  0  0  0  0  0  0
  1  4  1  0
  2  1  2  0
  2  3  1  0
  3  5  2  0
  4  9  1  0
  4  8  2  0
  5  8  1  0
  5  7  1  0
  6  2  1  0
  9 11  1  0
  9 10  1  0
 11 20  1  0
 12 20  1  0
 13 18  1  0
 14 15  1  0
 14 13  1  0
 16 15  1  0
 16 25  1  0
 16 17  1  0
 18 12  1  0
 18 17  1  0
 19 12  2  0
 20 21  1  0
 22 23  2  0
 23 42  1  0
 24 23  1  0
 24 27  1  0
 25 26  1  0
 25 22  1  0
 26 24  2  0
 27 28  1  0
 28 29  2  0
 30 33  1  0
 30 29  1  0
 31 30  2  0
 32 31  1  0
 32 27  2  0
 33 34  1  0
 34 35  1  0
 35 36  2  0
 37 36  1  0
 37 41  1  0
 38 37  2  0
 39 34  2  0
 39 38  1  0
 40 39  1  0
 42 43  1  0
 43 46  1  0
 43 45  1  0
 44 42  2  0
 47 22  1  0
 47 48  1  0
 49 47  1  0
 50  3  1  0
 50 51  1  0
 52 63  2  0
 53 51  1  0
 53 58  1  0
 54 62  1  0
 54 64  1  0
 55 61  1  0
 55 57  1  0
 56 62  1  0
 57 56  1  0
 58 57  2  0
 59 60  1  0
 59 53  2  0
 60 55  2  0
 61 54  1  0
 62 52  1  0
 64 66  2  0
 65 64  1  0
 67 65  1  0
 68 77  2  0
 68 73  1  0
 69 65  1  0
 69 73  1  0
 70 69  1  0
 71 72  1  0
 71 70  1  0
 72 68  1  0
 73 74  2  0
 74 75  1  0
 76 75  2  0
 77 76  1  0
 78 52  1  0
 78 83  1  0
 78 79  1  0
 79 82  1  1
 79 80  1  0
 81 79  1  0
 83 86  1  0
 84 88  1  0
 84 83  1  0
 85 84  2  0
 88 87  1  0
 90 91  1  0
 90 88  1  0
 90 89  1  0
M  ISO  4  12 100  20 100  50 101  51 101
M  END
>  <TORSDO>  (69) 
F 19

>  <SCORE>  (69) 
-13.754

>  <name>  (69) 
68

>  <ligand_id>  (69) 
68

>  <original_smiles>  (69) 
[H]c1c([H])c([H])c2c(c1[H])C([H])([H])C([H])([H])C([H])([H])C2([H])N([H])C(=O)C1([H])N(C(=O)C([H])(N([H])C(=O)C([H])(N([H])C([H])([H])[H])C([H])([H])[H])C(C([H])([H])[H])(C([H])([H])[H])C([H])([H])[H])C([H])([H])c2c([H])c(OC([H])([H])c3c(C([H])([H])[H])nc(C([H])(F)C([H])([H])N([H])C(=O)N4C([H])([H])C([H])([H])C([H])([H])C([H])(n5nc(-c6c([H])c([H])c(Oc7c([H])c([H])c(F)c([H])c7F)c([H])c6[H])c(C(=O)N([H])[H])c5N([H])[H])C4([H])[H])c([H])c3C([H])([H])[H])c([H])c([H])c2C1([H])[H]

>  <smiles>  (69) 
[H]c1c([H])c([H])c2c(c1[H])C([H])([H])C([H])([H])C([H])([H])C2([H])N([H])C(=O)C1([H])N(C(=O)C([H])(N([H])C(=O)C([H])(N([H])C([H])([H])[H])C([H])([H])[H])C(C([H])([H])[H])(C([H])([H])[H])C([H])([H])[H])C([H])([H])c2c([H])c(OC([H])([H])c3c(C([H])([H])[H])nc(C([H])(F)C([H])([H])N([H])C(=O)N4C([H])([H])C([H])([H])C([H])([H])C([H])(n5nc(-c6c([H])c([H])c(Oc7c([H])c([H])c(F)c([H])c7F)c([H])c6[H])c(C(=O)N([H])[H])c5N([H])[H])C4([H])[H])c([H])c3C([H])([H])[H])c([H])c([H])c2C1([H])[H]

$$$$
69:0:0
     RDKit          3D

 98108  0  0  1  0  0  0  0  0999 V2000
  -30.6590  -21.5340   18.7200 C   0  0  0  0  0  3  0  0  0  0  0  0
  -29.7870  -21.1420   19.7560 C   0  0  0  0  0  0  0  0  0  0  0  0
  -30.5280  -22.7980   18.1010 C   0  0  0  0  0  0  0  0  0  0  0  0
  -29.4970  -23.6940   18.5280 C   0  0  0  0  0  0  0  0  0  0  0  0
  -28.7750  -22.0750   20.0990 C   0  0  0  0  0  0  0  0  0  0  0  0
  -31.5160  -23.1360   16.9900 C   0  0  0  0  0  1  0  0  0  0  0  0
  -28.6500  -23.2890   19.5080 N   0  0  0  0  0  0  0  0  0  0  0  0
  -27.8250  -21.7660   21.0820 N   0  0  0  0  0  0  0  0  0  0  0  0
  -27.9150  -20.8980   21.5950 H   0  0  0  0  0  0  0  0  0  0  0  0
  -31.1660  -15.6680   20.2540 C   0  0  0  0  0  0  0  0  0  0  0  0
  -30.9990  -13.3220   19.4430 C   0  0  0  0  0  2  0  0  0  0  0  0
  -30.1250  -13.2220   18.1780 C   0  0  0  0  0  2  0  0  0  0  0  0
  -28.6480  -13.0200   18.5650 C   0  0  0  0  0  2  0  0  0  0  0  0
  -28.1830  -14.0470   19.6250 C   0  0  0  0  0  3  0  0  0  0  0  0
  -29.1840  -14.1360   20.8070 C   0  0  0  0  0  2  0  0  0  0  0  0
  -30.5070  -14.4600   20.2560 N   0  0  0  0  0  0  0  0  0  0  0  0
  -32.3110  -15.7330   19.7980 O   0  0  0  0  0  0  0  0  0  0  0  0
  -29.0930  -18.6330   19.8700 C   0  0  0  0  0  2  0  0  0  0  0  0
  -31.4000  -19.2110   20.5500 C   0  0  0  0  0  2  0  0  0  0  0  0
  -29.2180  -17.3090   20.6780 C   0  0  0  0  0  2  0  0  0  0  0  0
  -31.4630  -17.8810   21.3590 C   0  0  0  0  0  2  0  0  0  0  0  0
  -29.9560  -19.7620   20.4640 C   0  0  0  0  0  3  0  0  0  0  0  0
  -30.6070  -16.8040   20.8030 N   0  0  0  0  0  0  0  0  0  0  0  0
  -25.7860  -14.6810   20.3090 C   0  0  0  0  0  0  0  0  0  0  0  0
  -24.7050  -13.9170   20.6560 C   0  0  0  0  0  0  0  0  0  0  0  0
  -25.1570  -12.5630   20.6260 C   0  0  0  0  0  0  0  0  0  0  0  0
  -26.8240  -13.7900   20.0860 N   0  0  0  0  0  0  0  0  0  0  0  0
  -26.4500  -12.5110   20.3420 N   0  0  0  0  0  0  0  0  0  0  0  0
  -24.4190  -11.3050   20.7920 C   0  0  0  0  0  0  0  0  0  0  0  0
  -24.8070  -10.3440   21.7500 C   0  0  0  0  0  3  0  0  0  0  0  0
  -24.0720   -9.1490   21.9020 C   0  0  0  0  0  3  0  0  0  0  0  0
  -22.9340   -8.9090   21.0940 C   0  0  0  0  0  0  0  0  0  0  0  0
  -22.5670   -9.8590   20.1260 C   0  0  0  0  0  3  0  0  0  0  0  0
  -23.3030  -11.0460   19.9730 C   0  0  0  0  0  3  0  0  0  0  0  0
  -22.1740   -7.7660   21.1550 O   0  0  0  0  0  0  0  0  0  0  0  0
  -21.9960   -7.0830   22.3300 C   0  0  0  0  0  0  0  0  0  0  0  0
  -21.4230   -7.6910   23.4680 C   0  0  0  0  0  3  0  0  0  0  0  0
  -21.1950   -6.9330   24.6330 C   0  0  0  0  0  3  0  0  0  0  0  0
  -21.5290   -5.5650   24.6600 C   0  0  0  0  0  0  0  0  0  0  0  0
  -22.0960   -4.9560   23.5270 C   0  0  0  0  0  3  0  0  0  0  0  0
  -22.3260   -5.7130   22.3640 C   0  0  0  0  0  0  0  0  0  0  0  0
  -22.8520   -5.1160   21.2670 F   0  0  0  0  0  0  0  0  0  0  0  0
  -21.3030   -4.8340   25.7760 F   0  0  0  0  0  0  0  0  0  0  0  0
  -23.3070  -14.4050   20.9030 C   0  0  0  0  0  0  0  0  0  0  0  0
  -22.5660  -13.7270   21.7720 N   0  0  0  0  0  0  0  0  0  0  0  0
  -22.8790  -15.4210   20.3590 O   0  0  0  0  0  0  0  0  0  0  0  0
  -22.9250  -12.9040   22.2350 H   0  0  0  0  0  0  0  0  0  0  0  0
  -21.6280  -14.0360   21.9800 H   0  0  0  0  0  0  0  0  0  0  0  0
  -25.9630  -16.0520   20.1380 N   0  0  0  0  0  0  0  0  0  0  0  0
  -25.1950  -16.7070   20.2380 H   0  0  0  0  0  0  0  0  0  0  0  0
  -26.8130  -16.4860   19.8050 H   0  0  0  0  0  0  0  0  0  0  0  0
  -26.4330  -23.8780   20.6480 C   0  0  0  0  0  2  0  0  0  0  0  0
  -25.4740  -22.7840   21.0580 C   0  0  0  0  0  2  0  0  0  0  0  0
  -26.8940  -22.7750   21.5700 C   0  0  0  0  0  3  0  0  0  0  0  0
  -29.3060  -25.1050   17.9530 C   0  0  0  0  0  0  0  0  0  0  0  0
  -29.8960  -25.5130   16.9440 O   0  0  0  0  0  0  0  0  0  0  0  0
  -28.3270  -26.0920   18.6480 C   0  0  0  0  0  2  0  0  0  0  0  0
  -27.7380  -27.0520   17.7160 O   0  0  0  0  0  0  0  0  0  0  0  0
  -25.0780  -31.1210   22.9680 C   0  0  0  0  0  0  0  0  0  0  0  0
  -26.6830  -27.8250   18.1740 C   0  0  0  0  0  0  0  0  0  0  0  0
  -23.4830  -30.4370   21.2070 C   0  0  0  0  0  3  0  0  0  0  0  0
  -24.5140  -29.3980   19.1150 C   0  0  0  0  0  0  0  0  0  0  0  0
  -25.9750  -30.6910   20.6780 C   0  0  0  0  0  2  0  0  0  0  0  0
  -25.8040  -29.6170   19.6170 C   0  0  0  0  0  0  0  0  0  0  0  0
  -26.8910  -28.8430   19.1400 C   0  0  0  0  0  3  0  0  0  0  0  0
  -25.3770  -27.6400   17.6690 C   0  0  0  0  0  3  0  0  0  0  0  0
  -24.2980  -28.4140   18.1360 C   0  0  0  0  0  3  0  0  0  0  0  0
  -23.4000  -30.2610   19.6680 C   0  0  0  0  0  2  0  0  0  0  0  0
  -24.8740  -30.7430   21.6720 N   0  0  0  0  0  0  0  0  0  0  0  0
  -24.1310  -31.2520   23.7560 O   0  0  0  0  0  0  0  0  0  0  0  0
  -22.8720  -29.1880   21.8830 C   0  0  0  0  0  0  0  0  0  0  0  0
  -21.5350  -29.0690   21.8310 N   0  0  0  0  0  0  0  0  0  0  0  0
  -23.5960  -28.3400   22.4130 O   0  0  0  0  0  0  0  0  0  0  0  0
  -21.0120  -29.8100   21.3850 H   0  0  0  0  0  0  0  0  0  0  0  0
  -18.1690  -27.8310   22.2720 C   0  0  0  0  0  0  0  0  0  0  0  0
  -20.7490  -27.9570   22.3640 C   0  0  0  0  0  3  0  0  0  0  0  0
  -20.7400  -26.7610   21.3840 C   0  0  0  0  0  2  0  0  0  0  0  0
  -19.5430  -26.7720   20.4290 C   0  0  0  0  0  2  0  0  0  0  0  0
  -18.2280  -26.7410   21.2150 C   0  0  0  0  0  2  0  0  0  0  0  0
  -19.3520  -28.4120   22.8000 C   0  0  0  0  0  0  0  0  0  0  0  0
  -19.2390  -29.4460   23.7560 C   0  0  0  0  0  3  0  0  0  0  0  0
  -17.9760  -29.8950   24.1840 C   0  0  0  0  0  3  0  0  0  0  0  0
  -16.8080  -29.3050   23.6700 C   0  0  0  0  0  3  0  0  0  0  0  0
  -16.9070  -28.2730   22.7200 C   0  0  0  0  0  3  0  0  0  0  0  0
  -26.5080  -31.4290   23.5140 C   0  0  0  0  0  3  0  0  0  0  0  0
  -27.1380  -30.2270   24.3190 C   0  0  1  0  0  0  0  0  0  0  0  0
  -26.2150  -29.6690   25.4270 C   0  0  0  0  0  1  0  0  0  0  0  0
  -27.4930  -29.0600   23.3680 C   0  0  0  0  0  1  0  0  0  0  0  0
  -28.4630  -30.6760   24.9810 C   0  0  0  0  0  1  0  0  0  0  0  0
  -26.4090  -32.6260   24.3610 N   0  0  0  0  0  0  0  0  0  0  0  0
  -26.8080  -33.8510   23.9940 C   0  0  0  0  0  0  0  0  0  0  0  0
  -27.3680  -34.0800   22.9190 O   0  0  0  0  0  0  0  0  0  0  0  0
  -25.9100  -32.5230   25.2330 H   0  0  0  0  0  0  0  0  0  0  0  0
  -25.3480  -35.8390   24.4850 C   0  0  0  0  0  1  0  0  0  0  0  0
  -26.5420  -35.0070   24.9780 C   0  0  0  0  0  3  0  0  0  0  0  0
  -28.8020  -35.2440   25.9070 C   0  0  0  0  0  1  0  0  0  0  0  0
  -27.7120  -35.8890   25.1790 N   0  0  0  0  0  0  0  0  0  0  0  0
  -27.4470  -36.7300   25.6850 H   0  0  0  0  0  0  0  0  0  0  0  0
  1  2  1  0
  2  5  2  0
  3  4  1  0
  3  1  2  0
  4  7  2  0
  5  8  1  0
  6  3  1  0
  7  5  1  0
  8 54  1  0
  8  9  1  0
 10 16  1  0
 10 23  1  0
 11 16  1  0
 12 13  1  0
 12 11  1  0
 14 13  1  0
 14 27  1  0
 14 15  1  0
 16 15  1  0
 17 10  2  0
 18 22  1  0
 18 20  1  0
 19 21  1  0
 20 23  1  0
 22  2  1  0
 22 19  1  0
 23 21  1  0
 24 25  2  0
 25 44  1  0
 26 25  1  0
 26 29  1  0
 27 24  1  0
 27 28  1  0
 28 26  2  0
 29 30  1  0
 30 31  2  0
 32 35  1  0
 32 31  1  0
 33 32  2  0
 34 33  1  0
 34 29  2  0
 35 36  1  0
 36 41  2  0
 36 37  1  0
 37 38  2  0
 38 39  1  0
 39 43  1  0
 40 39  2  0
 41 40  1  0
 42 41  1  0
 44 45  1  0
 45 48  1  0
 45 47  1  0
 46 44  2  0
 49 50  1  0
 49 24  1  0
 51 49  1  0
 52 53  1  0
 52 54  1  0
 53 54  1  0
 55  4  1  0
 55 57  1  0
 56 55  2  0
 58 60  1  0
 58 57  1  0
 59 70  2  0
 60 65  1  0
 61 69  1  0
 61 71  1  0
 62 64  1  0
 62 68  1  0
 63 69  1  0
 64 63  1  0
 65 64  2  0
 66 67  1  0
 66 60  2  0
 67 62  2  0
 68 61  1  0
 69 59  1  0
 71 73  2  0
 72 71  1  0
 74 72  1  0
 75 84  2  0
 75 80  1  0
 76 72  1  0
 76 80  1  0
 77 76  1  0
 78 79  1  0
 78 77  1  0
 79 75  1  0
 80 81  2  0
 81 82  1  0
 83 82  2  0
 84 83  1  0
 85 59  1  0
 85 86  1  0
 85 90  1  0
 86 89  1  1
 86 87  1  0
 88 86  1  0
 90 93  1  0
 91 90  1  0
 91 95  1  0
 92 91  2  0
 95 94  1  0
 95 97  1  0
 97 98  1  0
 97 96  1  0
M  ISO  4  10 100  23 100  57 101  58 101
M  END
>  <TORSDO>  (70) 
F 19

>  <SCORE>  (70) 
-10.015

>  <name>  (70) 
69

>  <ligand_id>  (70) 
69

>  <original_smiles>  (70) 
[H]c1c([H])c([H])c2c(c1[H])C([H])([H])C([H])([H])C([H])([H])C2([H])N([H])C(=O)C1([H])N(C(=O)C([H])(N([H])C(=O)C([H])(N([H])C([H])([H])[H])C([H])([H])[H])C(C([H])([H])[H])(C([H])([H])[H])C([H])([H])[H])C([H])([H])c2c([H])c(OC([H])([H])C(=O)c3nc(N([H])C4([H])C([H])([H])C4([H])[H])c(C4([H])C([H])([H])C([H])([H])N(C(=O)N5C([H])([H])C([H])([H])C([H])([H])C([H])(n6nc(-c7c([H])c([H])c(Oc8c([H])c([H])c(F)c([H])c8F)c([H])c7[H])c(C(=O)N([H])[H])c6N([H])[H])C5([H])[H])C([H])([H])C4([H])[H])c([H])c3C([H])([H])[H])c([H])c([H])c2C1([H])[H]

>  <smiles>  (70) 
[H]c1c([H])c([H])c2c(c1[H])C([H])([H])C([H])([H])C([H])([H])C2([H])N([H])C(=O)C1([H])N(C(=O)C([H])(N([H])C(=O)C([H])(N([H])C([H])([H])[H])C([H])([H])[H])C(C([H])([H])[H])(C([H])([H])[H])C([H])([H])[H])C([H])([H])c2c([H])c(OC([H])([H])C(=O)c3nc(N([H])C4([H])C([H])([H])C4([H])[H])c(C4([H])C([H])([H])C([H])([H])N(C(=O)N5C([H])([H])C([H])([H])C([H])([H])C([H])(n6nc(-c7c([H])c([H])c(Oc8c([H])c([H])c(F)c([H])c8F)c([H])c7[H])c(C(=O)N([H])[H])c6N([H])[H])C5([H])[H])C([H])([H])C4([H])[H])c([H])c3C([H])([H])[H])c([H])c([H])c2C1([H])[H]

$$$$
70:0:0
     RDKit          3D

 97106  0  0  1  0  0  0  0  0999 V2000
  -33.6170  -28.4010   12.7220 C   0  0  0  0  0  0  0  0  0  0  0  0
  -32.3270  -28.1570   15.6680 C   0  0  0  0  0  2  0  0  0  0  0  0
  -32.9340  -26.9240   14.9500 C   0  0  0  0  0  3  0  0  0  0  0  0
  -31.7620  -28.7770   14.3260 C   0  0  0  0  0  3  0  0  0  0  0  0
  -35.0920  -28.8710   12.7290 C   0  0  0  0  0  1  0  0  0  0  0  0
  -32.7880  -27.8630   13.7560 N   0  0  0  0  0  0  0  0  0  0  0  0
  -33.0280  -28.6380   11.6540 O   0  0  0  0  0  0  0  0  0  0  0  0
  -32.2330  -24.3440   16.7950 C   0  0  0  0  0  3  0  0  0  0  0  0
  -34.0150  -25.7030   15.2370 C   0  0  0  0  0  3  0  0  0  0  0  0
  -32.0500  -24.3590   15.4280 C   0  0  0  0  0  0  0  0  0  0  0  0
  -33.4460  -24.6940   17.3850 C   0  0  0  0  0  0  0  0  0  0  0  0
  -33.2590  -24.5970   14.7320 C   0  0  0  0  0  3  0  0  0  0  0  0
  -34.5380  -25.3160   16.6130 C   0  0  0  0  0  0  0  0  0  0  0  0
  -30.6330  -24.0330   14.9090 C   0  0  0  0  0  1  0  0  0  0  0  0
  -33.4420  -24.3790   18.9090 C   0  0  0  0  0  1  0  0  0  0  0  0
  -33.9570  -23.3830   14.1570 C   0  0  0  0  0  1  0  0  0  0  0  0
  -35.9150  -25.5830   17.5710 C   0  0  0  0  0  2  0  0  0  0  0  0
  -37.4980  -26.4930   19.7910 C   0  0  0  0  0  0  0  0  0  0  0  0
  -38.1800  -28.2670   21.5200 C   0  0  0  0  0  2  0  0  0  0  0  0
  -36.9540  -29.1180   21.9330 C   0  0  0  0  0  2  0  0  0  0  0  0
  -36.6970  -30.2170   20.8820 C   0  0  0  0  0  2  0  0  0  0  0  0
  -36.7310  -29.6590   19.4340 C   0  0  0  0  0  3  0  0  0  0  0  0
  -38.0230  -28.8710   19.1940 C   0  0  0  0  0  2  0  0  0  0  0  0
  -37.9500  -27.7730   20.1320 N   0  0  0  0  0  0  0  0  0  0  0  0
  -37.8670  -25.6040   20.5470 O   0  0  0  0  0  0  0  0  0  0  0  0
  -36.3230  -26.3670   18.9360 N   0  0  0  0  0  0  0  0  0  0  0  0
  -35.5270  -26.1760   19.5430 H   0  0  0  0  0  0  0  0  0  0  0  0
  -35.3610  -31.1910   17.9190 C   0  0  0  0  0  0  0  0  0  0  0  0
  -35.7220  -32.1730   17.0490 C   0  0  0  0  0  0  0  0  0  0  0  0
  -37.1540  -32.2110   17.0800 C   0  0  0  0  0  0  0  0  0  0  0  0
  -36.5400  -30.6730   18.4180 N   0  0  0  0  0  0  0  0  0  0  0  0
  -37.6270  -31.2500   17.8550 N   0  0  0  0  0  0  0  0  0  0  0  0
  -38.0990  -33.1330   16.4510 C   0  0  0  0  0  0  0  0  0  0  0  0
  -38.2500  -34.4570   16.9180 C   0  0  0  0  0  3  0  0  0  0  0  0
  -39.1700  -35.3290   16.3000 C   0  0  0  0  0  3  0  0  0  0  0  0
  -39.9590  -34.8750   15.2140 C   0  0  0  0  0  0  0  0  0  0  0  0
  -39.7830  -33.5630   14.7410 C   0  0  0  0  0  3  0  0  0  0  0  0
  -38.8650  -32.6980   15.3520 C   0  0  0  0  0  3  0  0  0  0  0  0
  -40.8610  -35.6570   14.5320 O   0  0  0  0  0  0  0  0  0  0  0  0
  -40.4450  -36.6040   13.6240 C   0  0  0  0  0  0  0  0  0  0  0  0
  -40.2780  -37.9580   13.9880 C   0  0  0  0  0  3  0  0  0  0  0  0
  -39.9230  -38.9090   13.0090 C   0  0  0  0  0  3  0  0  0  0  0  0
  -39.7390  -38.5080   11.6720 C   0  0  0  0  0  0  0  0  0  0  0  0
  -39.9140  -37.1610   11.3090 C   0  0  0  0  0  3  0  0  0  0  0  0
  -40.2660  -36.2110   12.2840 C   0  0  0  0  0  0  0  0  0  0  0  0
  -40.4550  -34.9190   11.9290 F   0  0  0  0  0  0  0  0  0  0  0  0
  -39.4060  -39.4200   10.7300 F   0  0  0  0  0  0  0  0  0  0  0  0
  -34.8060  -33.1280   16.3360 C   0  0  0  0  0  0  0  0  0  0  0  0
  -35.1260  -33.4650   15.1000 N   0  0  0  0  0  0  0  0  0  0  0  0
  -33.7650  -33.5290   16.8610 O   0  0  0  0  0  0  0  0  0  0  0  0
  -35.9700  -33.1250   14.6600 H   0  0  0  0  0  0  0  0  0  0  0  0
  -34.5240  -34.0830   14.5820 H   0  0  0  0  0  0  0  0  0  0  0  0
  -34.1300  -30.6720   18.3340 N   0  0  0  0  0  0  0  0  0  0  0  0
  -33.2500  -31.0080   17.9560 H   0  0  0  0  0  0  0  0  0  0  0  0
  -34.0160  -29.9220   19.0090 H   0  0  0  0  0  0  0  0  0  0  0  0
  -30.2480  -28.6880   13.6220 C   0  0  0  0  0  2  0  0  0  0  0  0
  -29.5900  -27.5490   12.7760 O   0  0  0  0  0  0  0  0  0  0  0  0
  -22.5990  -26.2630   10.5840 C   0  0  0  0  0  0  0  0  0  0  0  0
  -28.4200  -27.8150   11.9970 C   0  0  0  0  0  0  0  0  0  0  0  0
  -24.1330  -27.3940    9.0470 C   0  0  0  0  0  3  0  0  0  0  0  0
  -26.3090  -28.3240   10.1060 C   0  0  0  0  0  0  0  0  0  0  0  0
  -24.4570  -27.6340   11.6060 C   0  0  0  0  0  2  0  0  0  0  0  0
  -25.9640  -27.8550   11.3820 C   0  0  0  0  0  0  0  0  0  0  0  0
  -27.0160  -27.6340   12.3520 C   0  0  0  0  0  3  0  0  0  0  0  0
  -28.6670  -28.3370   10.7140 C   0  0  0  0  0  3  0  0  0  0  0  0
  -27.6510  -28.5630    9.7820 C   0  0  0  0  0  3  0  0  0  0  0  0
  -25.2100  -28.5130    9.0640 C   0  0  0  0  0  2  0  0  0  0  0  0
  -23.7050  -27.0470   10.4460 N   0  0  0  0  0  0  0  0  0  0  0  0
  -21.9810  -25.8600    9.5860 O   0  0  0  0  0  0  0  0  0  0  0  0
  -24.6980  -26.1950    8.2270 C   0  0  0  0  0  0  0  0  0  0  0  0
  -25.5640  -25.3880    8.8620 N   0  0  0  0  0  0  0  0  0  0  0  0
  -24.3220  -25.9900    7.0680 O   0  0  0  0  0  0  0  0  0  0  0  0
  -25.9340  -25.7060    9.7490 H   0  0  0  0  0  0  0  0  0  0  0  0
  -28.4820  -23.2580    9.0090 C   0  0  0  0  0  0  0  0  0  0  0  0
  -26.1830  -24.1740    8.2870 C   0  0  0  0  0  3  0  0  0  0  0  0
  -25.6540  -22.8600    8.9180 C   0  0  0  0  0  2  0  0  0  0  0  0
  -26.4320  -22.5380   10.2530 C   0  0  0  0  0  2  0  0  0  0  0  0
  -27.8860  -22.1810    9.9180 C   0  0  0  0  0  2  0  0  0  0  0  0
  -27.6900  -24.2310    8.3730 C   0  0  0  0  0  0  0  0  0  0  0  0
  -28.3460  -25.3330    7.7850 C   0  0  0  0  0  3  0  0  0  0  0  0
  -29.7520  -25.4600    7.8070 C   0  0  0  0  0  3  0  0  0  0  0  0
  -30.5130  -24.4440    8.4090 C   0  0  0  0  0  3  0  0  0  0  0  0
  -29.8700  -23.3730    9.0300 C   0  0  0  0  0  3  0  0  0  0  0  0
  -22.0450  -25.8650   11.9710 C   0  0  0  0  0  3  0  0  0  0  0  0
  -22.6090  -24.4840   12.4730 C   0  0  1  0  0  0  0  0  0  0  0  0
  -21.5620  -23.5980   13.1930 C   0  0  0  0  0  1  0  0  0  0  0  0
  -23.1780  -23.6690   11.2930 C   0  0  0  0  0  1  0  0  0  0  0  0
  -23.7820  -24.7130   13.4600 C   0  0  0  0  0  1  0  0  0  0  0  0
  -20.5720  -25.8100   11.8880 N   0  0  0  0  0  0  0  0  0  0  0  0
  -19.7580  -26.8410   12.1340 C   0  0  0  0  0  0  0  0  0  0  0  0
  -20.1630  -27.9360   12.5170 O   0  0  0  0  0  0  0  0  0  0  0  0
  -20.1660  -24.9510   11.5480 H   0  0  0  0  0  0  0  0  0  0  0  0
  -18.0180  -25.3780   11.0460 C   0  0  0  0  0  1  0  0  0  0  0  0
  -18.2420  -26.6290   11.9130 C   0  0  0  0  0  3  0  0  0  0  0  0
  -17.3410  -27.6240    9.8600 C   0  0  0  0  0  1  0  0  0  0  0  0
  -17.5620  -27.7860   11.2940 N   0  0  0  0  0  0  0  0  0  0  0  0
  -18.0930  -28.6420   11.4380 H   0  0  0  0  0  0  0  0  0  0  0  0
  1  5  1  0
  1  6  1  0
  3  9  1  0
  3  2  1  0
  4 56  1  0
  4  2  1  0
  6  4  1  0
  6  3  1  0
  7  1  2  0
  8 11  1  0
  9 13  1  0
 10  8  2  0
 11 15  1  0
 12 16  1  0
 12  9  1  0
 12 10  1  0
 13 11  2  0
 13 17  1  0
 14 10  1  0
 17 26  1  0
 18 24  1  0
 18 25  2  0
 19 20  1  0
 21 20  1  0
 22 31  1  0
 22 21  1  0
 23 22  1  0
 23 24  1  0
 24 19  1  0
 26 27  1  0
 26 18  1  0
 28 53  1  0
 28 31  1  0
 29 30  1  0
 29 28  2  0
 30 32  2  0
 32 31  1  0
 33 34  1  0
 33 30  1  0
 35 34  2  0
 36 35  1  0
 37 36  2  0
 37 38  1  0
 38 33  2  0
 39 36  1  0
 40 41  1  0
 40 39  1  0
 42 41  2  0
 43 42  1  0
 44 43  2  0
 44 45  1  0
 45 40  2  0
 46 45  1  0
 47 43  1  0
 48 50  2  0
 48 29  1  0
 49 48  1  0
 51 49  1  0
 52 49  1  0
 53 55  1  0
 54 53  1  0
 57 56  1  0
 59 64  1  0
 59 57  1  0
 60 70  1  0
 60 67  1  0
 60 68  1  0
 61 63  1  0
 63 62  1  0
 63 64  2  0
 65 59  2  0
 66 61  2  0
 66 65  1  0
 67 61  1  0
 68 58  1  0
 68 62  1  0
 69 58  2  0
 70 71  1  0
 71 73  1  0
 72 70  2  0
 74 83  1  0
 74 78  1  0
 75 79  1  0
 75 71  1  0
 75 76  1  0
 76 77  1  0
 78 77  1  0
 79 74  2  0
 80 81  2  0
 80 79  1  0
 81 82  1  0
 82 83  2  0
 84 58  1  0
 84 85  1  0
 85 86  1  1
 85 88  1  0
 87 85  1  0
 89 84  1  0
 89 90  1  0
 90 91  2  0
 92 89  1  0
 94 93  1  0
 94 90  1  0
 95 96  1  0
 96 97  1  0
 96 94  1  0
M  ISO  4  18 100  26 100  56 101  57 101
M  END
>  <TORSDO>  (71) 
F 19

>  <SCORE>  (71) 
-4.708

>  <name>  (71) 
70

>  <ligand_id>  (71) 
70

>  <original_smiles>  (71) 
[H]c1c([H])c([H])c2c(c1[H])C([H])([H])C([H])([H])C([H])([H])C2([H])N([H])C(=O)C1([H])N(C(=O)C([H])(N([H])C(=O)C([H])(N([H])C([H])([H])[H])C([H])([H])[H])C(C([H])([H])[H])(C([H])([H])[H])C([H])([H])[H])C([H])([H])c2c([H])c(OC([H])([H])C3([H])N(C(=O)C([H])([H])[H])C([H])(c4c(C([H])([H])[H])c(C([H])([H])[H])c([H])c(C([H])([H])[H])c4C([H])([H])N([H])C(=O)N4C([H])([H])C([H])([H])C([H])([H])C([H])(n5nc(-c6c([H])c([H])c(Oc7c([H])c([H])c(F)c([H])c7F)c([H])c6[H])c(C(=O)N([H])[H])c5N([H])[H])C4([H])[H])C3([H])[H])c([H])c([H])c2C1([H])[H]

>  <smiles>  (71) 
[H]c1c([H])c([H])c2c(c1[H])C([H])([H])C([H])([H])C([H])([H])C2([H])N([H])C(=O)C1([H])N(C(=O)C([H])(N([H])C(=O)C([H])(N([H])C([H])([H])[H])C([H])([H])[H])C(C([H])([H])[H])(C([H])([H])[H])C([H])([H])[H])C([H])([H])c2c([H])c(OC([H])([H])C3([H])N(C(=O)C([H])([H])[H])C([H])(c4c(C([H])([H])[H])c(C([H])([H])[H])c([H])c(C([H])([H])[H])c4C([H])([H])N([H])C(=O)N4C([H])([H])C([H])([H])C([H])([H])C([H])(n5nc(-c6c([H])c([H])c(Oc7c([H])c([H])c(F)c([H])c7F)c([H])c6[H])c(C(=O)N([H])[H])c5N([H])[H])C4([H])[H])C3([H])[H])c([H])c([H])c2C1([H])[H]

$$$$
71:0:0
     RDKit          3D

 92100  0  0  1  0  0  0  0  0999 V2000
  -30.5390  -21.7720   20.4940 C   0  0  0  0  0  0  0  0  0  0  0  0
  -29.3310  -22.5220   20.3210 C   0  0  0  0  0  0  0  0  0  0  0  0
  -28.2670  -20.4750   19.8520 C   0  0  0  0  0  0  0  0  0  0  0  0
  -29.4780  -19.7210   20.0240 C   0  0  0  0  0  0  0  0  0  0  0  0
  -31.8310  -22.4420   20.9250 C   0  0  0  0  0  1  0  0  0  0  0  0
  -30.6130  -20.4110   20.3320 N   0  0  0  0  0  0  0  0  0  0  0  0
  -28.1980  -21.8370   20.0140 N   0  0  0  0  0  0  0  0  0  0  0  0
  -26.9050  -19.7100   17.8500 C   0  0  0  0  0  1  0  0  0  0  0  0
  -26.9680  -19.8330   19.3810 C   0  0  0  0  0  2  0  0  0  0  0  0
  -29.6060  -18.1840   19.6710 C   0  0  0  0  0  2  0  0  0  0  0  0
  -30.3750  -17.1660   20.6180 C   0  0  0  0  0  2  0  0  0  0  0  0
  -30.7460  -14.6340   20.0470 C   0  0  0  0  0  0  0  0  0  0  0  0
  -30.4200  -12.4260   18.9470 C   0  0  0  0  0  2  0  0  0  0  0  0
  -29.4240  -12.6000   17.7800 C   0  0  0  0  0  2  0  0  0  0  0  0
  -27.9710  -12.4630   18.2750 C   0  0  0  0  0  2  0  0  0  0  0  0
  -27.6930  -13.3080   19.5490 C   0  0  0  0  0  3  0  0  0  0  0  0
  -28.8040  -13.1140   20.6090 C   0  0  0  0  0  2  0  0  0  0  0  0
  -30.0860  -13.4360   19.9690 N   0  0  0  0  0  0  0  0  0  0  0  0
  -31.8880  -14.7730   19.6050 O   0  0  0  0  0  0  0  0  0  0  0  0
  -30.0110  -15.7070   20.4720 N   0  0  0  0  0  0  0  0  0  0  0  0
  -29.0760  -15.4720   20.7690 H   0  0  0  0  0  0  0  0  0  0  0  0
  -25.3490  -13.9440   20.3810 C   0  0  0  0  0  0  0  0  0  0  0  0
  -24.2890  -13.1860   20.7990 C   0  0  0  0  0  0  0  0  0  0  0  0
  -24.7250  -11.8270   20.7350 C   0  0  0  0  0  0  0  0  0  0  0  0
  -26.3660  -13.0470   20.0930 N   0  0  0  0  0  0  0  0  0  0  0  0
  -25.9980  -11.7690   20.3640 N   0  0  0  0  0  0  0  0  0  0  0  0
  -23.9850  -10.5760   20.9510 C   0  0  0  0  0  0  0  0  0  0  0  0
  -24.4390   -9.5970   21.8630 C   0  0  0  0  0  3  0  0  0  0  0  0
  -23.7000   -8.4120   22.0680 C   0  0  0  0  0  3  0  0  0  0  0  0
  -22.4940   -8.1960   21.3600 C   0  0  0  0  0  0  0  0  0  0  0  0
  -22.0580   -9.1620   20.4360 C   0  0  0  0  0  3  0  0  0  0  0  0
  -22.7960  -10.3390   20.2310 C   0  0  0  0  0  3  0  0  0  0  0  0
  -21.7270   -7.0610   21.4730 O   0  0  0  0  0  0  0  0  0  0  0  0
  -21.7070   -6.3170   22.6240 C   0  0  0  0  0  0  0  0  0  0  0  0
  -21.3290   -6.8750   23.8640 C   0  0  0  0  0  3  0  0  0  0  0  0
  -21.2570   -6.0580   25.0110 C   0  0  0  0  0  3  0  0  0  0  0  0
  -21.5510   -4.6850   24.9170 C   0  0  0  0  0  0  0  0  0  0  0  0
  -21.9190   -4.1260   23.6810 C   0  0  0  0  0  3  0  0  0  0  0  0
  -21.9930   -4.9400   22.5370 C   0  0  0  0  0  0  0  0  0  0  0  0
  -22.3300   -4.3930   21.3440 F   0  0  0  0  0  0  0  0  0  0  0  0
  -21.4730   -3.8990   26.0160 F   0  0  0  0  0  0  0  0  0  0  0  0
  -22.9150  -13.6840   21.1420 C   0  0  0  0  0  0  0  0  0  0  0  0
  -22.2180  -12.9940   22.0390 N   0  0  0  0  0  0  0  0  0  0  0  0
  -22.4690  -14.7190   20.6500 O   0  0  0  0  0  0  0  0  0  0  0  0
  -22.5950  -12.1550   22.4570 H   0  0  0  0  0  0  0  0  0  0  0  0
  -21.2990  -13.3100   22.3120 H   0  0  0  0  0  0  0  0  0  0  0  0
  -25.5250  -15.3130   20.2040 N   0  0  0  0  0  0  0  0  0  0  0  0
  -24.7680  -15.9720   20.3420 H   0  0  0  0  0  0  0  0  0  0  0  0
  -26.3520  -15.7370   19.8040 H   0  0  0  0  0  0  0  0  0  0  0  0
  -29.2210  -24.0620   20.6550 C   0  0  0  0  0  3  0  0  0  0  0  0
  -28.2630  -25.0230   19.8380 C   0  0  0  0  0  3  0  0  0  0  0  0
  -28.3940  -26.4750   20.1060 O   0  0  0  0  0  0  0  0  0  0  0  0
  -24.5980  -31.7840   23.1440 C   0  0  0  0  0  0  0  0  0  0  0  0
  -27.2610  -27.2980   20.0390 C   0  0  0  0  0  0  0  0  0  0  0  0
  -23.4150  -30.4050   21.4730 C   0  0  0  0  0  3  0  0  0  0  0  0
  -24.8850  -28.8890   20.0340 C   0  0  0  0  0  0  0  0  0  0  0  0
  -25.9530  -30.7430   21.3160 C   0  0  0  0  0  2  0  0  0  0  0  0
  -26.0450  -29.3760   20.6510 C   0  0  0  0  0  0  0  0  0  0  0  0
  -27.2340  -28.5900   20.6480 C   0  0  0  0  0  3  0  0  0  0  0  0
  -26.0830  -26.8670   19.3860 C   0  0  0  0  0  3  0  0  0  0  0  0
  -24.9070  -27.6410   19.3920 C   0  0  0  0  0  3  0  0  0  0  0  0
  -23.6430  -29.7520   20.0840 C   0  0  0  0  0  2  0  0  0  0  0  0
  -24.6730  -30.9930   22.0350 N   0  0  0  0  0  0  0  0  0  0  0  0
  -23.5080  -32.0460   23.6740 O   0  0  0  0  0  0  0  0  0  0  0  0
  -22.7530  -29.3670   22.4100 C   0  0  0  0  0  0  0  0  0  0  0  0
  -21.4260  -29.2010   22.2820 N   0  0  0  0  0  0  0  0  0  0  0  0
  -23.4310  -28.7170   23.2100 O   0  0  0  0  0  0  0  0  0  0  0  0
  -20.9390  -29.7760   21.6090 H   0  0  0  0  0  0  0  0  0  0  0  0
  -18.0370  -28.0420   22.7870 C   0  0  0  0  0  0  0  0  0  0  0  0
  -20.6020  -28.2530   23.0340 C   0  0  0  0  0  3  0  0  0  0  0  0
  -20.6760  -26.8380   22.4120 C   0  0  0  0  0  2  0  0  0  0  0  0
  -19.5580  -26.5650   21.4020 C   0  0  0  0  0  2  0  0  0  0  0  0
  -18.1860  -26.7110   22.0670 C   0  0  0  0  0  2  0  0  0  0  0  0
  -19.1730  -28.7720   23.2270 C   0  0  0  0  0  0  0  0  0  0  0  0
  -18.9810  -30.0200   23.8600 C   0  0  0  0  0  3  0  0  0  0  0  0
  -17.6870  -30.5350   24.0590 C   0  0  0  0  0  3  0  0  0  0  0  0
  -16.5660  -29.8000   23.6360 C   0  0  0  0  0  3  0  0  0  0  0  0
  -16.7430  -28.5550   23.0060 C   0  0  0  0  0  3  0  0  0  0  0  0
  -25.8720  -32.4140   23.7870 C   0  0  0  0  0  3  0  0  0  0  0  0
  -25.5540  -33.8090   24.1250 N   0  0  0  0  0  0  0  0  0  0  0  0
  -25.8970  -34.8700   23.3830 C   0  0  0  0  0  0  0  0  0  0  0  0
  -26.5830  -34.7780   22.3610 O   0  0  0  0  0  0  0  0  0  0  0  0
  -24.9490  -33.9560   24.9200 H   0  0  0  0  0  0  0  0  0  0  0  0
  -24.1720  -36.6650   23.0210 C   0  0  0  0  0  1  0  0  0  0  0  0
  -25.4030  -36.2530   23.8460 C   0  0  0  0  0  3  0  0  0  0  0  0
  -27.5220  -37.1330   24.7220 C   0  0  0  0  0  1  0  0  0  0  0  0
  -26.4360  -37.3080   23.7600 N   0  0  0  0  0  0  0  0  0  0  0  0
  -26.0260  -38.2260   23.9110 H   0  0  0  0  0  0  0  0  0  0  0  0
  -26.3760  -31.6330   25.0630 C   0  0  1  0  0  0  0  0  0  0  0  0
  -25.2680  -31.3840   26.1140 C   0  0  0  0  0  1  0  0  0  0  0  0
  -26.9680  -30.2600   24.6660 C   0  0  0  0  0  1  0  0  0  0  0  0
  -27.5160  -32.4240   25.7460 C   0  0  0  0  0  1  0  0  0  0  0  0
  1  5  1  0
  2  1  2  0
  2 50  1  0
  3  7  2  0
  3  4  1  0
  4  6  2  0
  6  1  1  0
  7  2  1  0
  8  9  1  0
  9  3  1  0
 10  4  1  0
 10 11  1  0
 12 20  1  0
 13 18  1  0
 14 15  1  0
 14 13  1  0
 16 15  1  0
 16 25  1  0
 16 17  1  0
 18 12  1  0
 18 17  1  0
 19 12  2  0
 20 11  1  0
 20 21  1  0
 22 23  2  0
 23 42  1  0
 24 23  1  0
 24 27  1  0
 25 26  1  0
 25 22  1  0
 26 24  2  0
 27 28  1  0
 28 29  2  0
 30 33  1  0
 30 29  1  0
 31 30  2  0
 32 31  1  0
 32 27  2  0
 33 34  1  0
 34 35  1  0
 35 36  2  0
 37 36  1  0
 37 41  1  0
 38 37  2  0
 39 34  2  0
 39 38  1  0
 40 39  1  0
 42 43  1  0
 43 46  1  0
 43 45  1  0
 44 42  2  0
 47 48  1  0
 47 22  1  0
 49 47  1  0
 51 52  1  0
 51 50  2  0
 53 64  2  0
 54 52  1  0
 54 59  1  0
 55 63  1  0
 55 65  1  0
 56 62  1  0
 56 58  1  0
 57 63  1  0
 58 57  1  0
 59 58  2  0
 60 61  1  0
 60 54  2  0
 61 56  2  0
 62 55  1  0
 63 53  1  0
 65 67  2  0
 66 65  1  0
 68 66  1  0
 69 78  2  0
 69 74  1  0
 70 66  1  0
 70 74  1  0
 71 70  1  0
 72 73  1  0
 72 71  1  0
 73 69  1  0
 74 75  2  0
 75 76  1  0
 77 76  2  0
 78 77  1  0
 79 53  1  0
 79 80  1  0
 79 89  1  0
 80 83  1  0
 81 85  1  0
 81 80  1  0
 82 81  2  0
 85 84  1  0
 87 85  1  0
 87 88  1  0
 87 86  1  0
 89 92  1  1
 89 90  1  0
 91 89  1  0
M  ISO  4  12 100  20 100  51 101  52 101
M  END
>  <TORSDO>  (72) 
F 21

>  <SCORE>  (72) 
-13.097

>  <name>  (72) 
71

>  <ligand_id>  (72) 
71

>  <original_smiles>  (72) 
[H]c1c([H])c([H])c2c(c1[H])C([H])([H])C([H])([H])C([H])([H])C2([H])N([H])C(=O)C1([H])N(C(=O)C([H])(N([H])C(=O)C([H])(N([H])C([H])([H])[H])C([H])([H])[H])C(C([H])([H])[H])(C([H])([H])[H])C([H])([H])[H])C([H])([H])c2c([H])c(OC([H])([H])C([H])([H])c3nc(C([H])([H])C([H])([H])[H])c(C([H])([H])C([H])([H])N([H])C(=O)N4C([H])([H])C([H])([H])C([H])([H])C([H])(n5nc(-c6c([H])c([H])c(Oc7c([H])c([H])c(F)c([H])c7F)c([H])c6[H])c(C(=O)N([H])[H])c5N([H])[H])C4([H])[H])nc3C([H])([H])[H])c([H])c([H])c2C1([H])[H]

>  <smiles>  (72) 
[H]c1c([H])c([H])c2c(c1[H])C([H])([H])C([H])([H])C([H])([H])C2([H])N([H])C(=O)C1([H])N(C(=O)C([H])(N([H])C(=O)C([H])(N([H])C([H])([H])[H])C([H])([H])[H])C(C([H])([H])[H])(C([H])([H])[H])C([H])([H])[H])C([H])([H])c2c([H])c(OC([H])([H])C([H])([H])c3nc(C([H])([H])C([H])([H])[H])c(C([H])([H])C([H])([H])N([H])C(=O)N4C([H])([H])C([H])([H])C([H])([H])C([H])(n5nc(-c6c([H])c([H])c(Oc7c([H])c([H])c(F)c([H])c7F)c([H])c6[H])c(C(=O)N([H])[H])c5N([H])[H])C4([H])[H])nc3C([H])([H])[H])c([H])c([H])c2C1([H])[H]

$$$$
72:0:0
     RDKit          3D

 96106  0  0  1  0  0  0  0  0999 V2000
  -29.0880  -23.4260   20.1250 C   0  0  0  0  0  0  0  0  0  0  0  0
  -28.3130  -24.3370   19.3580 C   0  0  0  0  0  0  0  0  0  0  0  0
  -28.6840  -22.0700   20.0960 C   0  0  0  0  0  0  0  0  0  0  0  0
  -26.9590  -22.6040   18.6780 C   0  0  0  0  0  0  0  0  0  0  0  0
  -25.8330  -22.1280   17.7700 C   0  0  0  0  0  1  0  0  0  0  0  0
  -27.2590  -23.9010   18.6340 N   0  0  0  0  0  0  0  0  0  0  0  0
  -27.6070  -21.6810   19.3790 N   0  0  0  0  0  0  0  0  0  0  0  0
  -29.4200  -21.0680   20.7670 N   0  0  0  0  0  0  0  0  0  0  0  0
  -30.1890  -23.8250   20.8090 F   0  0  0  0  0  0  0  0  0  0  0  0
  -30.2580  -21.3770   21.2470 H   0  0  0  0  0  0  0  0  0  0  0  0
  -30.7700  -14.5240   20.0530 C   0  0  0  0  0  0  0  0  0  0  0  0
  -30.3590  -12.3550   18.9340 C   0  0  0  0  0  2  0  0  0  0  0  0
  -29.3670  -12.5650   17.7740 C   0  0  0  0  0  2  0  0  0  0  0  0
  -27.9180  -12.4440   18.2830 C   0  0  0  0  0  2  0  0  0  0  0  0
  -27.6560  -13.2720   19.5690 C   0  0  0  0  0  3  0  0  0  0  0  0
  -28.7720  -13.0890   20.6190 C   0  0  0  0  0  2  0  0  0  0  0  0
  -30.0630  -13.3610   19.9660 N   0  0  0  0  0  0  0  0  0  0  0  0
  -31.8800  -14.6670   19.5310 O   0  0  0  0  0  0  0  0  0  0  0  0
  -29.8600  -17.5760   22.1720 C   0  0  0  0  0  2  0  0  0  0  0  0
  -29.6900  -19.2190   19.0930 C   0  0  0  0  0  2  0  0  0  0  0  0
  -30.4300  -16.1520   21.8670 C   0  0  0  0  0  2  0  0  0  0  0  0
  -29.5950  -16.6010   19.5480 C   0  0  0  0  0  2  0  0  0  0  0  0
  -30.2280  -18.5990   21.0840 C   0  0  0  0  0  3  0  0  0  0  0  0
  -30.3080  -17.9530   19.6950 C   0  0  0  0  0  3  0  0  0  0  0  0
  -29.2060  -19.6320   20.4920 C   0  0  0  0  0  3  0  0  0  0  0  0
  -30.0940  -15.6080   20.5250 N   0  0  0  0  0  0  0  0  0  0  0  0
  -25.3200  -13.8670   20.4630 C   0  0  0  0  0  0  0  0  0  0  0  0
  -24.2710  -13.0900   20.8760 C   0  0  0  0  0  0  0  0  0  0  0  0
  -24.7150  -11.7350   20.7720 C   0  0  0  0  0  0  0  0  0  0  0  0
  -26.3360  -12.9880   20.1300 N   0  0  0  0  0  0  0  0  0  0  0  0
  -25.9820  -11.7000   20.3780 N   0  0  0  0  0  0  0  0  0  0  0  0
  -23.9920  -10.4730   20.9750 C   0  0  0  0  0  0  0  0  0  0  0  0
  -24.4440   -9.5020   21.8950 C   0  0  0  0  0  3  0  0  0  0  0  0
  -23.7220   -8.3040   22.0860 C   0  0  0  0  0  3  0  0  0  0  0  0
  -22.5330   -8.0660   21.3530 C   0  0  0  0  0  0  0  0  0  0  0  0
  -22.0950   -9.0300   20.4270 C   0  0  0  0  0  3  0  0  0  0  0  0
  -22.8200  -10.2200   20.2350 C   0  0  0  0  0  3  0  0  0  0  0  0
  -21.7840   -6.9170   21.4480 O   0  0  0  0  0  0  0  0  0  0  0  0
  -21.7170   -6.1980   22.6160 C   0  0  0  0  0  0  0  0  0  0  0  0
  -21.2680   -6.7800   23.8220 C   0  0  0  0  0  3  0  0  0  0  0  0
  -21.1450   -5.9880   24.9820 C   0  0  0  0  0  3  0  0  0  0  0  0
  -21.4640   -4.6180   24.9380 C   0  0  0  0  0  0  0  0  0  0  0  0
  -21.9060   -4.0380   23.7370 C   0  0  0  0  0  3  0  0  0  0  0  0
  -22.0320   -4.8260   22.5790 C   0  0  0  0  0  0  0  0  0  0  0  0
  -22.4390   -4.2580   21.4190 F   0  0  0  0  0  0  0  0  0  0  0  0
  -21.3380   -3.8550   26.0490 F   0  0  0  0  0  0  0  0  0  0  0  0
  -22.8990  -13.5730   21.2520 C   0  0  0  0  0  0  0  0  0  0  0  0
  -22.2300  -12.8750   22.1610 N   0  0  0  0  0  0  0  0  0  0  0  0
  -22.4270  -14.6050   20.7750 O   0  0  0  0  0  0  0  0  0  0  0  0
  -22.6110  -12.0340   22.5630 H   0  0  0  0  0  0  0  0  0  0  0  0
  -21.3220  -13.1950   22.4730 H   0  0  0  0  0  0  0  0  0  0  0  0
  -25.4920  -15.2410   20.3280 N   0  0  0  0  0  0  0  0  0  0  0  0
  -24.7470  -15.9030   20.5280 H   0  0  0  0  0  0  0  0  0  0  0  0
  -26.3400  -15.6820   19.9970 H   0  0  0  0  0  0  0  0  0  0  0  0
  -28.7140  -25.8130   19.1510 C   0  0  0  0  0  2  0  0  0  0  0  0
  -28.3860  -26.7540   20.1910 O   0  0  0  0  0  0  0  0  0  0  0  0
  -24.5660  -31.9210   23.2660 C   0  0  0  0  0  0  0  0  0  0  0  0
  -27.1990  -27.4660   20.1540 C   0  0  0  0  0  0  0  0  0  0  0  0
  -23.3510  -30.5230   21.6280 C   0  0  0  0  0  3  0  0  0  0  0  0
  -24.7970  -28.9800   20.1910 C   0  0  0  0  0  0  0  0  0  0  0  0
  -25.8840  -30.8630   21.4340 C   0  0  0  0  0  2  0  0  0  0  0  0
  -25.9590  -29.4950   20.7810 C   0  0  0  0  0  0  0  0  0  0  0  0
  -27.1500  -28.7390   20.7750 C   0  0  0  0  0  3  0  0  0  0  0  0
  -26.0200  -26.9690   19.5580 C   0  0  0  0  0  3  0  0  0  0  0  0
  -24.8240  -27.7150   19.5810 C   0  0  0  0  0  3  0  0  0  0  0  0
  -23.5550  -29.8400   20.2460 C   0  0  0  0  0  2  0  0  0  0  0  0
  -24.6180  -31.1190   22.1640 N   0  0  0  0  0  0  0  0  0  0  0  0
  -23.4880  -32.1950   23.8100 O   0  0  0  0  0  0  0  0  0  0  0  0
  -22.7020  -29.5010   22.5890 C   0  0  0  0  0  0  0  0  0  0  0  0
  -21.3830  -29.3070   22.4560 N   0  0  0  0  0  0  0  0  0  0  0  0
  -23.3870  -28.8860   23.4130 O   0  0  0  0  0  0  0  0  0  0  0  0
  -20.8910  -29.8530   21.7590 H   0  0  0  0  0  0  0  0  0  0  0  0
  -18.0190  -28.0680   22.9300 C   0  0  0  0  0  0  0  0  0  0  0  0
  -20.5700  -28.3690   23.2290 C   0  0  0  0  0  3  0  0  0  0  0  0
  -20.7000  -26.9310   22.6740 C   0  0  0  0  0  2  0  0  0  0  0  0
  -19.6170  -26.5780   21.6500 C   0  0  0  0  0  2  0  0  0  0  0  0
  -18.2240  -26.7130   22.2730 C   0  0  0  0  0  2  0  0  0  0  0  0
  -19.1210  -28.8520   23.3650 C   0  0  0  0  0  0  0  0  0  0  0  0
  -18.8750  -30.1190   23.9400 C   0  0  0  0  0  3  0  0  0  0  0  0
  -17.5610  -30.6020   24.0820 C   0  0  0  0  0  3  0  0  0  0  0  0
  -16.4750  -29.8140   23.6650 C   0  0  0  0  0  3  0  0  0  0  0  0
  -16.7040  -28.5500   23.0940 C   0  0  0  0  0  3  0  0  0  0  0  0
  -25.8540  -32.5530   23.8790 C   0  0  0  0  0  3  0  0  0  0  0  0
  -25.5440  -33.9490   24.2140 N   0  0  0  0  0  0  0  0  0  0  0  0
  -25.8670  -35.0050   23.4510 C   0  0  0  0  0  0  0  0  0  0  0  0
  -26.5240  -34.9050   22.4140 O   0  0  0  0  0  0  0  0  0  0  0  0
  -24.9470  -34.0990   25.0130 H   0  0  0  0  0  0  0  0  0  0  0  0
  -24.1220  -36.7960   23.1390 C   0  0  0  0  0  1  0  0  0  0  0  0
  -25.3800  -36.3900   23.9200 C   0  0  0  0  0  3  0  0  0  0  0  0
  -27.5260  -37.2890   24.7060 C   0  0  0  0  0  1  0  0  0  0  0  0
  -26.4030  -37.4490   23.7870 N   0  0  0  0  0  0  0  0  0  0  0  0
  -25.9930  -38.3650   23.9410 H   0  0  0  0  0  0  0  0  0  0  0  0
  -26.3820  -31.7840   25.1520 C   0  0  1  0  0  0  0  0  0  0  0  0
  -25.2960  -31.5400   26.2270 C   0  0  0  0  0  1  0  0  0  0  0  0
  -26.9710  -30.4100   24.7590 C   0  0  0  0  0  1  0  0  0  0  0  0
  -27.5370  -32.5840   25.8040 C   0  0  0  0  0  1  0  0  0  0  0  0
  1  9  1  0
  2  1  2  0
  3  1  1  0
  3  8  1  0
  4  7  1  0
  5  4  1  0
  6  4  2  0
  6  2  1  0
  7  3  2  0
  8 10  1  0
 11 26  1  0
 12 17  1  0
 13 14  1  0
 13 12  1  0
 15 14  1  0
 15 30  1  0
 15 16  1  0
 17 11  1  0
 17 16  1  0
 18 11  2  0
 20 25  1  0
 21 19  1  0
 22 24  1  0
 22 26  1  0
 23 19  1  0
 24 20  1  0
 24 23  1  0
 25  8  1  0
 25 23  1  0
 26 21  1  0
 27 28  2  0
 28 47  1  0
 29 28  1  0
 29 32  1  0
 30 31  1  0
 30 27  1  0
 31 29  2  0
 32 33  1  0
 33 34  2  0
 35 38  1  0
 35 34  1  0
 36 35  2  0
 37 36  1  0
 37 32  2  0
 38 39  1  0
 39 40  1  0
 40 41  2  0
 42 41  1  0
 42 46  1  0
 43 42  2  0
 44 39  2  0
 44 43  1  0
 45 44  1  0
 47 48  1  0
 48 51  1  0
 48 50  1  0
 49 47  2  0
 52 27  1  0
 52 53  1  0
 54 52  1  0
 55  2  1  0
 55 56  1  0
 57 68  2  0
 58 56  1  0
 58 63  1  0
 59 67  1  0
 59 69  1  0
 60 66  1  0
 60 62  1  0
 61 67  1  0
 62 61  1  0
 63 62  2  0
 64 65  1  0
 64 58  2  0
 65 60  2  0
 66 59  1  0
 67 57  1  0
 69 71  2  0
 70 69  1  0
 72 70  1  0
 73 82  2  0
 73 78  1  0
 74 70  1  0
 74 78  1  0
 75 74  1  0
 76 77  1  0
 76 75  1  0
 77 73  1  0
 78 79  2  0
 79 80  1  0
 81 80  2  0
 82 81  1  0
 83 57  1  0
 83 84  1  0
 83 93  1  0
 84 87  1  0
 85 89  1  0
 85 84  1  0
 86 85  2  0
 89 88  1  0
 91 89  1  0
 91 92  1  0
 91 90  1  0
 93 96  1  1
 93 94  1  0
 95 93  1  0
M  ISO  4  11 100  26 100  55 101  56 101
M  END
>  <TORSDO>  (73) 
F 17

>  <SCORE>  (73) 
-14.948

>  <name>  (73) 
72

>  <ligand_id>  (73) 
72

>  <original_smiles>  (73) 
[H]c1c([H])c([H])c2c(c1[H])C([H])([H])C([H])([H])C([H])([H])C2([H])N([H])C(=O)C1([H])N(C(=O)C([H])(N([H])C(=O)C([H])(N([H])C([H])([H])[H])C([H])([H])[H])C(C([H])([H])[H])(C([H])([H])[H])C([H])([H])[H])C([H])([H])c2c([H])c(OC([H])([H])c3nc(C([H])([H])[H])nc(N([H])C4([H])C([H])([H])C5([H])C([H])([H])N(C(=O)N6C([H])([H])C([H])([H])C([H])([H])C([H])(n7nc(-c8c([H])c([H])c(Oc9c([H])c([H])c(F)c([H])c9F)c([H])c8[H])c(C(=O)N([H])[H])c7N([H])[H])C6([H])[H])C([H])([H])C([H])([H])C45[H])c3F)c([H])c([H])c2C1([H])[H]

>  <smiles>  (73) 
[H]c1c([H])c([H])c2c(c1[H])C([H])([H])C([H])([H])C([H])([H])C2([H])N([H])C(=O)C1([H])N(C(=O)C([H])(N([H])C(=O)C([H])(N([H])C([H])([H])[H])C([H])([H])[H])C(C([H])([H])[H])(C([H])([H])[H])C([H])([H])[H])C([H])([H])c2c([H])c(OC([H])([H])c3nc(C([H])([H])[H])nc(N([H])C4([H])C([H])([H])C5([H])C([H])([H])N(C(=O)N6C([H])([H])C([H])([H])C([H])([H])C([H])(n7nc(-c8c([H])c([H])c(Oc9c([H])c([H])c(F)c([H])c9F)c([H])c8[H])c(C(=O)N([H])[H])c7N([H])[H])C6([H])[H])C([H])([H])C([H])([H])C45[H])c3F)c([H])c([H])c2C1([H])[H]

$$$$
73:0:0
     RDKit          3D

 94103  0  0  1  0  0  0  0  0999 V2000
  -28.1490  -20.3490   20.0550 C   0  0  0  0  0  3  0  0  0  0  0  0
  -30.4320  -20.6290   20.3710 C   0  0  0  0  0  0  0  0  0  0  0  0
  -29.1660  -21.3680   20.1790 C   0  0  0  0  0  0  0  0  0  0  0  0
  -28.3200  -18.8800   20.1060 C   0  0  0  0  0  0  0  0  0  0  0  0
  -30.5940  -19.1350   20.5160 C   0  0  0  0  0  0  0  0  0  0  0  0
  -29.5540  -18.1240   20.3090 C   0  0  0  0  0  0  0  0  0  0  0  0
  -27.0540  -18.0680   19.9400 C   0  0  0  0  0  1  0  0  0  0  0  0
  -30.3900  -15.2900   20.2150 C   0  0  0  0  0  0  0  0  0  0  0  0
  -30.3490  -12.8670   19.3100 C   0  0  0  0  0  2  0  0  0  0  0  0
  -29.4080  -12.7060   18.0920 C   0  0  0  0  0  2  0  0  0  0  0  0
  -27.9620  -12.4390   18.5470 C   0  0  0  0  0  2  0  0  0  0  0  0
  -27.5340  -13.3790   19.7020 C   0  0  0  0  0  3  0  0  0  0  0  0
  -28.6020  -13.4900   20.8120 C   0  0  0  0  0  2  0  0  0  0  0  0
  -29.8320  -13.9860   20.1740 N   0  0  0  0  0  0  0  0  0  0  0  0
  -31.5960  -15.3140   19.9330 O   0  0  0  0  0  0  0  0  0  0  0  0
  -29.5690  -16.5050   20.3770 N   0  0  0  0  0  0  0  0  0  0  0  0
  -28.6280  -16.1750   20.5220 H   0  0  0  0  0  0  0  0  0  0  0  0
  -25.1680  -13.9200   20.4930 C   0  0  0  0  0  0  0  0  0  0  0  0
  -24.1170  -13.1390   20.8790 C   0  0  0  0  0  0  0  0  0  0  0  0
  -24.5900  -11.7920   20.8290 C   0  0  0  0  0  0  0  0  0  0  0  0
  -26.2130  -13.0540   20.2270 N   0  0  0  0  0  0  0  0  0  0  0  0
  -25.8780  -11.7660   20.4960 N   0  0  0  0  0  0  0  0  0  0  0  0
  -23.8700  -10.5270   21.0170 C   0  0  0  0  0  0  0  0  0  0  0  0
  -24.3070   -9.5600   21.9480 C   0  0  0  0  0  3  0  0  0  0  0  0
  -23.5840   -8.3610   22.1260 C   0  0  0  0  0  3  0  0  0  0  0  0
  -22.4100   -8.1200   21.3750 C   0  0  0  0  0  0  0  0  0  0  0  0
  -21.9920   -9.0770   20.4320 C   0  0  0  0  0  3  0  0  0  0  0  0
  -22.7160  -10.2670   20.2520 C   0  0  0  0  0  3  0  0  0  0  0  0
  -21.6590   -6.9730   21.4620 O   0  0  0  0  0  0  0  0  0  0  0  0
  -21.5980   -6.2400   22.6210 C   0  0  0  0  0  0  0  0  0  0  0  0
  -21.1270   -6.7960   23.8300 C   0  0  0  0  0  3  0  0  0  0  0  0
  -21.0150   -5.9880   24.9800 C   0  0  0  0  0  3  0  0  0  0  0  0
  -21.3640   -4.6260   24.9200 C   0  0  0  0  0  0  0  0  0  0  0  0
  -21.8260   -4.0690   23.7150 C   0  0  0  0  0  3  0  0  0  0  0  0
  -21.9410   -4.8740   22.5680 C   0  0  0  0  0  0  0  0  0  0  0  0
  -22.3670   -4.3280   21.4030 F   0  0  0  0  0  0  0  0  0  0  0  0
  -21.2500   -3.8470   26.0210 F   0  0  0  0  0  0  0  0  0  0  0  0
  -22.7230  -13.6100   21.1700 C   0  0  0  0  0  0  0  0  0  0  0  0
  -22.0080  -12.9090   22.0430 N   0  0  0  0  0  0  0  0  0  0  0  0
  -22.2750  -14.6370   20.6570 O   0  0  0  0  0  0  0  0  0  0  0  0
  -22.3820  -12.0810   22.4810 H   0  0  0  0  0  0  0  0  0  0  0  0
  -21.0720  -13.2070   22.2780 H   0  0  0  0  0  0  0  0  0  0  0  0
  -25.3100  -15.2900   20.3100 N   0  0  0  0  0  0  0  0  0  0  0  0
  -24.5170  -15.9160   20.3930 H   0  0  0  0  0  0  0  0  0  0  0  0
  -26.0970  -15.7060   19.8340 H   0  0  0  0  0  0  0  0  0  0  0  0
  -32.1180  -22.3990   19.2850 C   0  0  0  0  0  2  0  0  0  0  0  0
  -32.9430  -21.2020   19.6260 C   0  0  0  0  0  2  0  0  0  0  0  0
  -31.6830  -21.4940   20.4290 C   0  0  0  0  0  3  0  0  0  0  0  0
  -32.2720  -18.9750   22.4550 C   0  0  0  0  0  1  0  0  0  0  0  0
  -31.9360  -18.5820   21.0080 C   0  0  0  0  0  2  0  0  0  0  0  0
  -28.7610  -23.1740   18.3390 C   0  0  0  0  0  1  0  0  0  0  0  0
  -28.9970  -23.0770   19.8550 C   0  0  0  0  0  3  0  0  0  0  0  0
  -28.0640  -24.4380   20.4840 C   0  0  0  0  0  2  0  0  0  0  0  0
  -28.2380  -26.0430   20.2610 O   0  0  0  0  0  0  0  0  0  0  0  0
  -24.6160  -31.9200   23.2360 C   0  0  0  0  0  0  0  0  0  0  0  0
  -27.1870  -27.0800   20.2490 C   0  0  0  0  0  0  0  0  0  0  0  0
  -23.4210  -30.5120   21.6080 C   0  0  0  0  0  3  0  0  0  0  0  0
  -24.8690  -28.9060   20.1980 C   0  0  0  0  0  0  0  0  0  0  0  0
  -25.9810  -30.7460   21.4490 C   0  0  0  0  0  2  0  0  0  0  0  0
  -26.0550  -29.3360   20.8060 C   0  0  0  0  0  0  0  0  0  0  0  0
  -27.2120  -28.4450   20.8010 C   0  0  0  0  0  3  0  0  0  0  0  0
  -25.9680  -26.7810   19.6030 C   0  0  0  0  0  3  0  0  0  0  0  0
  -24.8460  -27.6470   19.5770 C   0  0  0  0  0  3  0  0  0  0  0  0
  -23.6460  -29.8190   20.2370 C   0  0  0  0  0  2  0  0  0  0  0  0
  -24.6940  -31.0860   22.1510 N   0  0  0  0  0  0  0  0  0  0  0  0
  -23.5280  -32.2100   23.7600 O   0  0  0  0  0  0  0  0  0  0  0  0
  -22.7330  -29.5200   22.5800 C   0  0  0  0  0  0  0  0  0  0  0  0
  -21.4030  -29.3470   22.4540 N   0  0  0  0  0  0  0  0  0  0  0  0
  -23.4010  -28.9040   23.4150 O   0  0  0  0  0  0  0  0  0  0  0  0
  -20.9190  -29.8950   21.7580 H   0  0  0  0  0  0  0  0  0  0  0  0
  -18.0260  -28.1300   22.9660 C   0  0  0  0  0  0  0  0  0  0  0  0
  -20.5840  -28.4130   23.2320 C   0  0  0  0  0  3  0  0  0  0  0  0
  -20.6930  -26.9760   22.6700 C   0  0  0  0  0  2  0  0  0  0  0  0
  -19.5950  -26.6370   21.6570 C   0  0  0  0  0  2  0  0  0  0  0  0
  -18.2110  -26.7790   22.2980 C   0  0  0  0  0  2  0  0  0  0  0  0
  -19.1390  -28.9050   23.3890 C   0  0  0  0  0  0  0  0  0  0  0  0
  -18.9090  -30.1680   23.9770 C   0  0  0  0  0  3  0  0  0  0  0  0
  -17.5990  -30.6580   24.1410 C   0  0  0  0  0  3  0  0  0  0  0  0
  -16.5010  -29.8820   23.7320 C   0  0  0  0  0  3  0  0  0  0  0  0
  -16.7150  -28.6200   23.1500 C   0  0  0  0  0  3  0  0  0  0  0  0
  -25.8890  -32.5660   23.8630 C   0  0  0  0  0  3  0  0  0  0  0  0
  -26.3950  -31.8120   25.1550 C   0  0  1  0  0  0  0  0  0  0  0  0
  -25.2940  -31.5930   26.2190 C   0  0  0  0  0  1  0  0  0  0  0  0
  -26.9770  -30.4270   24.7930 C   0  0  0  0  0  1  0  0  0  0  0  0
  -27.5430  -32.6130   25.8120 C   0  0  0  0  0  1  0  0  0  0  0  0
  -25.5730  -33.9690   24.1840 N   0  0  0  0  0  0  0  0  0  0  0  0
  -25.9110  -35.0240   23.4300 C   0  0  0  0  0  0  0  0  0  0  0  0
  -26.5840  -34.9180   22.4010 O   0  0  0  0  0  0  0  0  0  0  0  0
  -24.9750  -34.1250   24.9820 H   0  0  0  0  0  0  0  0  0  0  0  0
  -24.1960  -36.8310   23.0670 C   0  0  0  0  0  1  0  0  0  0  0  0
  -25.4280  -36.4160   23.8870 C   0  0  0  0  0  3  0  0  0  0  0  0
  -27.5600  -37.2940   24.7370 C   0  0  0  0  0  1  0  0  0  0  0  0
  -26.4680  -37.4640   23.7820 N   0  0  0  0  0  0  0  0  0  0  0  0
  -26.0650  -38.3870   23.9220 H   0  0  0  0  0  0  0  0  0  0  0  0
  1  4  2  0
  1  3  1  0
  2 48  1  0
  2  5  1  0
  3  2  2  0
  4  6  1  0
  5 50  1  0
  6 16  1  0
  6  5  2  0
  7  4  1  0
  8 16  1  0
  9 14  1  0
 10 11  1  0
 10  9  1  0
 12 11  1  0
 12 21  1  0
 12 13  1  0
 14  8  1  0
 14 13  1  0
 15  8  2  0
 16 17  1  0
 18 19  2  0
 19 38  1  0
 20 19  1  0
 20 23  1  0
 21 18  1  0
 21 22  1  0
 22 20  2  0
 23 24  1  0
 24 25  2  0
 26 29  1  0
 26 25  1  0
 27 26  2  0
 28 27  1  0
 28 23  2  0
 29 30  1  0
 30 31  1  0
 31 32  2  0
 33 32  1  0
 33 37  1  0
 34 33  2  0
 35 30  2  0
 35 34  1  0
 36 35  1  0
 38 39  1  0
 39 42  1  0
 39 41  1  0
 40 38  2  0
 43 44  1  0
 43 18  1  0
 45 43  1  0
 46 47  1  0
 46 48  1  0
 47 48  1  0
 50 49  1  0
 52 51  1  0
 52  3  1  0
 52 53  1  0
 54 53  1  0
 55 66  2  0
 56 54  1  0
 56 61  1  0
 57 65  1  0
 57 67  1  0
 58 64  1  0
 58 60  1  0
 59 65  1  0
 60 59  1  0
 61 60  2  0
 62 56  2  0
 63 62  1  0
 63 58  2  0
 64 57  1  0
 65 55  1  0
 67 69  2  0
 68 67  1  0
 70 68  1  0
 71 80  2  0
 71 76  1  0
 72 68  1  0
 72 76  1  0
 73 72  1  0
 74 75  1  0
 74 73  1  0
 75 71  1  0
 76 77  2  0
 77 78  1  0
 79 78  2  0
 80 79  1  0
 81 55  1  0
 81 86  1  0
 81 82  1  0
 82 85  1  1
 82 83  1  0
 84 82  1  0
 86 89  1  0
 87 91  1  0
 87 86  1  0
 88 87  2  0
 91 90  1  0
 93 91  1  0
 93 94  1  0
 93 92  1  0
M  ISO  4   8 100  16 100  53 101  54 101
M  END
>  <TORSDO>  (74) 
F 20

>  <SCORE>  (74) 
-15.093

>  <name>  (74) 
73

>  <ligand_id>  (74) 
73

>  <original_smiles>  (74) 
[H]c1c([H])c([H])c2c(c1[H])C([H])([H])C([H])([H])C([H])([H])C2([H])N([H])C(=O)C1([H])N(C(=O)C([H])(N([H])C(=O)C([H])(N([H])C([H])([H])[H])C([H])([H])[H])C(C([H])([H])[H])(C([H])([H])[H])C([H])([H])[H])C([H])([H])c2c([H])c(OC([H])([H])C([H])(c3c([H])c(C([H])([H])[H])c(N([H])C(=O)N4C([H])([H])C([H])([H])C([H])([H])C([H])(n5nc(-c6c([H])c([H])c(Oc7c([H])c([H])c(F)c([H])c7F)c([H])c6[H])c(C(=O)N([H])[H])c5N([H])[H])C4([H])[H])c(C([H])([H])C([H])([H])[H])c3C3([H])C([H])([H])C3([H])[H])C([H])([H])[H])c([H])c([H])c2C1([H])[H]

>  <smiles>  (74) 
[H]c1c([H])c([H])c2c(c1[H])C([H])([H])C([H])([H])C([H])([H])C2([H])N([H])C(=O)C1([H])N(C(=O)C([H])(N([H])C(=O)C([H])(N([H])C([H])([H])[H])C([H])([H])[H])C(C([H])([H])[H])(C([H])([H])[H])C([H])([H])[H])C([H])([H])c2c([H])c(OC([H])([H])C([H])(c3c([H])c(C([H])([H])[H])c(N([H])C(=O)N4C([H])([H])C([H])([H])C([H])([H])C([H])(n5nc(-c6c([H])c([H])c(Oc7c([H])c([H])c(F)c([H])c7F)c([H])c6[H])c(C(=O)N([H])[H])c5N([H])[H])C4([H])[H])c(C([H])([H])C([H])([H])[H])c3C3([H])C([H])([H])C3([H])[H])C([H])([H])[H])c([H])c([H])c2C1([H])[H]

$$$$
74:0:0
     RDKit          3D

 94103  0  0  1  0  0  0  0  0999 V2000
  -29.7910  -21.2860   19.8390 C   0  0  0  0  0  0  0  0  0  0  0  0
  -29.0460  -22.4380   20.4050 C   0  0  0  0  0  0  0  0  0  0  0  0
  -29.1610  -23.8300   19.9040 C   0  0  0  0  0  0  0  0  0  0  0  0
  -30.6460  -21.6770   18.7660 C   0  0  0  0  0  0  0  0  0  0  0  0
  -30.0460  -23.9660   18.8180 C   0  0  0  0  0  0  0  0  0  0  0  0
  -31.5870  -20.7430   18.0230 C   0  0  0  0  0  1  0  0  0  0  0  0
  -30.2780  -25.2890   18.1130 C   0  0  0  0  0  1  0  0  0  0  0  0
  -30.7500  -22.9410   18.3000 N   0  0  0  0  0  0  0  0  0  0  0  0
  -30.9010  -15.1860   20.0870 C   0  0  0  0  0  0  0  0  0  0  0  0
  -30.6140  -12.8880   19.1010 C   0  0  0  0  0  2  0  0  0  0  0  0
  -29.6440  -12.8920   17.9010 C   0  0  0  0  0  2  0  0  0  0  0  0
  -28.1980  -12.6950   18.3870 C   0  0  0  0  0  2  0  0  0  0  0  0
  -27.8440  -13.6130   19.5850 C   0  0  0  0  0  3  0  0  0  0  0  0
  -28.9420  -13.6270   20.6720 C   0  0  0  0  0  2  0  0  0  0  0  0
  -30.2000  -13.9910   20.0100 N   0  0  0  0  0  0  0  0  0  0  0  0
  -32.1040  -15.1500   19.8060 O   0  0  0  0  0  0  0  0  0  0  0  0
  -29.0380  -18.6200   19.4270 C   0  0  0  0  0  2  0  0  0  0  0  0
  -31.0870  -18.9820   20.6740 C   0  0  0  0  0  2  0  0  0  0  0  0
  -29.0590  -17.0640   19.8570 C   0  0  0  0  0  2  0  0  0  0  0  0
  -31.0150  -17.4880   21.2170 C   0  0  0  0  0  2  0  0  0  0  0  0
  -29.7350  -19.7110   20.3380 C   0  0  0  0  0  3  0  0  0  0  0  0
  -30.3120  -16.4410   20.4010 N   0  0  0  0  0  0  0  0  0  0  0  0
  -25.5120  -14.2150   20.4460 C   0  0  0  0  0  0  0  0  0  0  0  0
  -24.4460  -13.4460   20.8220 C   0  0  0  0  0  0  0  0  0  0  0  0
  -24.8810  -12.0890   20.7190 C   0  0  0  0  0  0  0  0  0  0  0  0
  -26.5250  -13.3260   20.1300 N   0  0  0  0  0  0  0  0  0  0  0  0
  -26.1580  -12.0390   20.3610 N   0  0  0  0  0  0  0  0  0  0  0  0
  -24.1360  -10.8350   20.8810 C   0  0  0  0  0  0  0  0  0  0  0  0
  -24.5520   -9.8400   21.7930 C   0  0  0  0  0  3  0  0  0  0  0  0
  -23.8070   -8.6520   21.9450 C   0  0  0  0  0  3  0  0  0  0  0  0
  -22.6320   -8.4490   21.1840 C   0  0  0  0  0  0  0  0  0  0  0  0
  -22.2350   -9.4300   20.2590 C   0  0  0  0  0  3  0  0  0  0  0  0
  -22.9810  -10.6120   20.1050 C   0  0  0  0  0  3  0  0  0  0  0  0
  -21.8590   -7.3140   21.2470 O   0  0  0  0  0  0  0  0  0  0  0  0
  -21.7820   -6.5600   22.3900 C   0  0  0  0  0  0  0  0  0  0  0  0
  -21.2860   -7.0890   23.6010 C   0  0  0  0  0  3  0  0  0  0  0  0
  -21.1590   -6.2600   24.7320 C   0  0  0  0  0  3  0  0  0  0  0  0
  -21.5170   -4.9010   24.6540 C   0  0  0  0  0  0  0  0  0  0  0  0
  -22.0050   -4.3700   23.4470 C   0  0  0  0  0  3  0  0  0  0  0  0
  -22.1340   -5.1970   22.3170 C   0  0  0  0  0  0  0  0  0  0  0  0
  -22.5860   -4.6750   21.1510 F   0  0  0  0  0  0  0  0  0  0  0  0
  -21.3860   -4.1010   25.7380 F   0  0  0  0  0  0  0  0  0  0  0  0
  -23.0700  -13.9400   21.1620 C   0  0  0  0  0  0  0  0  0  0  0  0
  -22.3620  -13.2280   22.0310 N   0  0  0  0  0  0  0  0  0  0  0  0
  -22.6330  -14.9890   20.6910 O   0  0  0  0  0  0  0  0  0  0  0  0
  -22.7300  -12.3780   22.4330 H   0  0  0  0  0  0  0  0  0  0  0  0
  -21.4390  -13.5390   22.3020 H   0  0  0  0  0  0  0  0  0  0  0  0
  -25.6950  -15.5880   20.3170 N   0  0  0  0  0  0  0  0  0  0  0  0
  -24.9450  -16.2490   20.4870 H   0  0  0  0  0  0  0  0  0  0  0  0
  -26.5370  -16.0250   19.9680 H   0  0  0  0  0  0  0  0  0  0  0  0
  -26.6430  -21.9940   21.0930 C   0  0  0  0  0  1  0  0  0  0  0  0
  -28.0920  -22.1730   21.5630 C   0  0  0  0  0  2  0  0  0  0  0  0
  -28.3220  -25.1280   20.4340 C   0  0  0  0  0  2  0  0  0  0  0  0
  -28.5100  -26.5760   19.9600 O   0  0  0  0  0  0  0  0  0  0  0  0
  -24.6500  -31.9220   23.1720 C   0  0  0  0  0  0  0  0  0  0  0  0
  -27.4030  -27.4770   19.9740 C   0  0  0  0  0  0  0  0  0  0  0  0
  -23.4980  -30.5350   21.4920 C   0  0  0  0  0  3  0  0  0  0  0  0
  -25.0000  -29.0800   20.0090 C   0  0  0  0  0  0  0  0  0  0  0  0
  -26.0310  -30.9280   21.3210 C   0  0  0  0  0  2  0  0  0  0  0  0
  -26.1610  -29.5680   20.6250 C   0  0  0  0  0  0  0  0  0  0  0  0
  -27.3660  -28.7820   20.5920 C   0  0  0  0  0  3  0  0  0  0  0  0
  -26.2200  -27.0800   19.3170 C   0  0  0  0  0  3  0  0  0  0  0  0
  -25.0380  -27.8470   19.3410 C   0  0  0  0  0  3  0  0  0  0  0  0
  -23.7360  -29.9170   20.0900 C   0  0  0  0  0  2  0  0  0  0  0  0
  -24.7460  -31.1480   22.0510 N   0  0  0  0  0  0  0  0  0  0  0  0
  -23.5570  -32.1430   23.7160 O   0  0  0  0  0  0  0  0  0  0  0  0
  -22.8720  -29.4650   22.4200 C   0  0  0  0  0  0  0  0  0  0  0  0
  -21.5520  -29.2410   22.2910 N   0  0  0  0  0  0  0  0  0  0  0  0
  -23.5750  -28.8390   23.2180 O   0  0  0  0  0  0  0  0  0  0  0  0
  -21.0390  -29.8020   21.6230 H   0  0  0  0  0  0  0  0  0  0  0  0
  -18.2190  -27.9170   22.7910 C   0  0  0  0  0  0  0  0  0  0  0  0
  -20.7730  -28.2470   23.0330 C   0  0  0  0  0  3  0  0  0  0  0  0
  -20.9090  -26.8450   22.3960 C   0  0  0  0  0  2  0  0  0  0  0  0
  -19.8020  -26.5300   21.3840 C   0  0  0  0  0  2  0  0  0  0  0  0
  -18.4270  -26.6040   22.0540 C   0  0  0  0  0  2  0  0  0  0  0  0
  -19.3200  -28.6960   23.2350 C   0  0  0  0  0  0  0  0  0  0  0  0
  -19.0720  -29.9230   23.8860 C   0  0  0  0  0  3  0  0  0  0  0  0
  -17.7540  -30.3740   24.0940 C   0  0  0  0  0  3  0  0  0  0  0  0
  -16.6670  -29.5920   23.6640 C   0  0  0  0  0  3  0  0  0  0  0  0
  -16.9010  -28.3650   23.0180 C   0  0  0  0  0  3  0  0  0  0  0  0
  -25.9060  -32.5870   23.8140 C   0  0  0  0  0  3  0  0  0  0  0  0
  -25.5520  -33.9730   24.1560 N   0  0  0  0  0  0  0  0  0  0  0  0
  -25.8260  -35.0420   23.3960 C   0  0  0  0  0  0  0  0  0  0  0  0
  -26.4710  -34.9670   22.3480 O   0  0  0  0  0  0  0  0  0  0  0  0
  -24.9710  -34.1010   24.9720 H   0  0  0  0  0  0  0  0  0  0  0  0
  -24.0140  -36.7670   23.1150 C   0  0  0  0  0  1  0  0  0  0  0  0
  -25.3010  -36.4100   23.8760 C   0  0  0  0  0  3  0  0  0  0  0  0
  -27.4200  -37.3910   24.6350 C   0  0  0  0  0  1  0  0  0  0  0  0
  -26.2850  -37.5040   23.7230 N   0  0  0  0  0  0  0  0  0  0  0  0
  -25.8450  -38.4080   23.8770 H   0  0  0  0  0  0  0  0  0  0  0  0
  -26.4300  -31.8200   25.0900 C   0  0  1  0  0  0  0  0  0  0  0  0
  -25.3320  -31.5400   26.1430 C   0  0  0  0  0  1  0  0  0  0  0  0
  -27.0600  -30.4650   24.6960 C   0  0  0  0  0  1  0  0  0  0  0  0
  -27.5470  -32.6450   25.7740 C   0  0  0  0  0  1  0  0  0  0  0  0
  1  2  1  0
  2 52  1  0
  3  2  2  0
  3 53  1  0
  4  1  2  0
  5  3  1  0
  6  4  1  0
  7  5  1  0
  8  4  1  0
  8  5  2  0
  9 22  1  0
 10 15  1  0
 11 12  1  0
 11 10  1  0
 13 12  1  0
 13 26  1  0
 13 14  1  0
 15  9  1  0
 15 14  1  0
 16  9  2  0
 17 19  1  0
 17 21  1  0
 18 20  1  0
 19 22  1  0
 21  1  1  0
 21 18  1  0
 22 20  1  0
 23 24  2  0
 24 43  1  0
 25 24  1  0
 25 28  1  0
 26 27  1  0
 26 23  1  0
 27 25  2  0
 28 29  1  0
 29 30  2  0
 31 34  1  0
 31 30  1  0
 32 31  2  0
 33 32  1  0
 33 28  2  0
 34 35  1  0
 35 36  1  0
 36 37  2  0
 38 37  1  0
 38 42  1  0
 39 38  2  0
 40 35  2  0
 40 39  1  0
 41 40  1  0
 43 44  1  0
 44 47  1  0
 44 46  1  0
 45 43  2  0
 48 23  1  0
 48 49  1  0
 50 48  1  0
 51 52  1  0
 54 56  1  0
 54 53  1  0
 55 66  2  0
 56 61  1  0
 57 65  1  0
 57 67  1  0
 58 64  1  0
 58 60  1  0
 59 65  1  0
 60 59  1  0
 61 60  2  0
 62 63  1  0
 62 56  2  0
 63 58  2  0
 64 57  1  0
 65 55  1  0
 67 69  2  0
 68 67  1  0
 70 68  1  0
 71 80  2  0
 71 76  1  0
 72 68  1  0
 72 76  1  0
 73 72  1  0
 74 75  1  0
 74 73  1  0
 75 71  1  0
 76 77  2  0
 77 78  1  0
 79 78  2  0
 80 79  1  0
 81 55  1  0
 81 82  1  0
 81 91  1  0
 82 85  1  0
 83 87  1  0
 83 82  1  0
 84 83  2  0
 87 86  1  0
 89 87  1  0
 89 90  1  0
 89 88  1  0
 91 94  1  1
 91 92  1  0
 93 91  1  0
M  ISO  4   9 100  22 100  53 101  54 101
M  END
>  <TORSDO>  (75) 
F 18

>  <SCORE>  (75) 
-13.696

>  <name>  (75) 
74

>  <ligand_id>  (75) 
74

>  <original_smiles>  (75) 
[H]c1c([H])c([H])c2c(c1[H])C([H])([H])C([H])([H])C([H])([H])C2([H])N([H])C(=O)C1([H])N(C(=O)C([H])(N([H])C(=O)C([H])(N([H])C([H])([H])[H])C([H])([H])[H])C(C([H])([H])[H])(C([H])([H])[H])C([H])([H])[H])C([H])([H])c2c([H])c(OC([H])([H])c3c(C([H])([H])[H])nc(C([H])([H])[H])c(C4([H])C([H])([H])C([H])([H])N(C(=O)N5C([H])([H])C([H])([H])C([H])([H])C([H])(n6nc(-c7c([H])c([H])c(Oc8c([H])c([H])c(F)c([H])c8F)c([H])c7[H])c(C(=O)N([H])[H])c6N([H])[H])C5([H])[H])C([H])([H])C4([H])[H])c3C([H])([H])C([H])([H])[H])c([H])c([H])c2C1([H])[H]

>  <smiles>  (75) 
[H]c1c([H])c([H])c2c(c1[H])C([H])([H])C([H])([H])C([H])([H])C2([H])N([H])C(=O)C1([H])N(C(=O)C([H])(N([H])C(=O)C([H])(N([H])C([H])([H])[H])C([H])([H])[H])C(C([H])([H])[H])(C([H])([H])[H])C([H])([H])[H])C([H])([H])c2c([H])c(OC([H])([H])c3c(C([H])([H])[H])nc(C([H])([H])[H])c(C4([H])C([H])([H])C([H])([H])N(C(=O)N5C([H])([H])C([H])([H])C([H])([H])C([H])(n6nc(-c7c([H])c([H])c(Oc8c([H])c([H])c(F)c([H])c8F)c([H])c7[H])c(C(=O)N([H])[H])c6N([H])[H])C5([H])[H])C([H])([H])C4([H])[H])c3C([H])([H])C([H])([H])[H])c([H])c([H])c2C1([H])[H]

$$$$
75:0:0
     RDKit          3D

 91100  0  0  1  0  0  0  0  0999 V2000
  -28.6390  -20.4220   19.1030 C   0  0  0  0  0  3  0  0  0  0  0  0
  -29.3960  -19.7120   20.1060 C   0  0  0  0  0  0  0  0  0  0  0  0
  -28.2850  -21.8620   19.1840 C   0  0  0  0  0  0  0  0  0  0  0  0
  -28.6730  -22.7840   20.2540 C   0  0  0  0  0  0  0  0  0  0  0  0
  -29.7470  -20.6680   21.0930 C   0  0  0  0  0  0  0  0  0  0  0  0
  -30.8290  -18.5790   21.6370 C   0  0  0  0  0  2  0  0  0  0  0  0
  -30.1880  -18.2090   20.2600 C   0  0  0  0  0  3  0  0  0  0  0  0
  -27.4150  -22.4090   18.0640 C   0  0  0  0  0  1  0  0  0  0  0  0
  -29.4180  -22.0500   21.2000 N   0  0  0  0  0  0  0  0  0  0  0  0
  -30.5750  -20.0060   22.0000 N   0  0  0  0  0  0  0  0  0  0  0  0
  -31.0740  -20.4750   22.7470 H   0  0  0  0  0  0  0  0  0  0  0  0
  -30.5560  -15.3210   20.1030 C   0  0  0  0  0  0  0  0  0  0  0  0
  -30.4860  -12.8850   19.2260 C   0  0  0  0  0  2  0  0  0  0  0  0
  -29.5230  -12.6780   18.0320 C   0  0  0  0  0  2  0  0  0  0  0  0
  -28.0900  -12.4100   18.5270 C   0  0  0  0  0  2  0  0  0  0  0  0
  -27.6780  -13.3800   19.6630 C   0  0  0  0  0  3  0  0  0  0  0  0
  -28.7660  -13.5340   20.7470 C   0  0  0  0  0  2  0  0  0  0  0  0
  -29.9720  -14.0270   20.0650 N   0  0  0  0  0  0  0  0  0  0  0  0
  -31.7710  -15.3130   19.8620 O   0  0  0  0  0  0  0  0  0  0  0  0
  -29.8100  -16.5940   20.2070 N   0  0  0  0  0  0  0  0  0  0  0  0
  -28.8210  -16.4290   20.3180 H   0  0  0  0  0  0  0  0  0  0  0  0
  -25.3450  -13.9370   20.5270 C   0  0  0  0  0  0  0  0  0  0  0  0
  -24.2940  -13.1580   20.9210 C   0  0  0  0  0  0  0  0  0  0  0  0
  -24.7500  -11.8060   20.8410 C   0  0  0  0  0  0  0  0  0  0  0  0
  -26.3710  -13.0610   20.2220 N   0  0  0  0  0  0  0  0  0  0  0  0
  -26.0280  -11.7720   20.4790 N   0  0  0  0  0  0  0  0  0  0  0  0
  -24.0220  -10.5440   21.0290 C   0  0  0  0  0  0  0  0  0  0  0  0
  -24.4650   -9.5620   21.9420 C   0  0  0  0  0  3  0  0  0  0  0  0
  -23.7340   -8.3680   22.1210 C   0  0  0  0  0  3  0  0  0  0  0  0
  -22.5460   -8.1470   21.3850 C   0  0  0  0  0  0  0  0  0  0  0  0
  -22.1200   -9.1170   20.4610 C   0  0  0  0  0  3  0  0  0  0  0  0
  -22.8520  -10.3020   20.2810 C   0  0  0  0  0  3  0  0  0  0  0  0
  -21.7840   -7.0060   21.4740 O   0  0  0  0  0  0  0  0  0  0  0  0
  -21.7280   -6.2670   22.6290 C   0  0  0  0  0  0  0  0  0  0  0  0
  -21.2560   -6.8140   23.8410 C   0  0  0  0  0  3  0  0  0  0  0  0
  -21.1490   -6.0000   24.9870 C   0  0  0  0  0  3  0  0  0  0  0  0
  -21.5030   -4.6400   24.9200 C   0  0  0  0  0  0  0  0  0  0  0  0
  -21.9680   -4.0910   23.7110 C   0  0  0  0  0  3  0  0  0  0  0  0
  -22.0770   -4.9030   22.5690 C   0  0  0  0  0  0  0  0  0  0  0  0
  -22.5050   -4.3650   21.4000 F   0  0  0  0  0  0  0  0  0  0  0  0
  -21.3940   -3.8550   26.0170 F   0  0  0  0  0  0  0  0  0  0  0  0
  -22.9100  -13.6380   21.2520 C   0  0  0  0  0  0  0  0  0  0  0  0
  -22.2120  -12.9320   22.1340 N   0  0  0  0  0  0  0  0  0  0  0  0
  -22.4610  -14.6740   20.7640 O   0  0  0  0  0  0  0  0  0  0  0  0
  -22.5900  -12.0920   22.5470 H   0  0  0  0  0  0  0  0  0  0  0  0
  -21.2860  -13.2350   22.3990 H   0  0  0  0  0  0  0  0  0  0  0  0
  -25.5070  -15.3100   20.3720 N   0  0  0  0  0  0  0  0  0  0  0  0
  -24.7430  -15.9610   20.5210 H   0  0  0  0  0  0  0  0  0  0  0  0
  -26.3290  -15.7510   19.9820 H   0  0  0  0  0  0  0  0  0  0  0  0
  -27.9450  -24.3520   20.5550 C   0  0  0  0  0  2  0  0  0  0  0  0
  -28.3190  -25.9340   20.3330 O   0  0  0  0  0  0  0  0  0  0  0  0
  -24.6850  -31.8840   23.2620 C   0  0  0  0  0  0  0  0  0  0  0  0
  -27.3100  -27.0300   20.2930 C   0  0  0  0  0  0  0  0  0  0  0  0
  -23.5210  -30.4750   21.6160 C   0  0  0  0  0  3  0  0  0  0  0  0
  -24.9980  -28.8840   20.2150 C   0  0  0  0  0  0  0  0  0  0  0  0
  -26.0880  -30.7100   21.4970 C   0  0  0  0  0  2  0  0  0  0  0  0
  -26.1760  -29.3000   20.8480 C   0  0  0  0  0  0  0  0  0  0  0  0
  -27.3300  -28.3950   20.8620 C   0  0  0  0  0  3  0  0  0  0  0  0
  -26.1030  -26.7700   19.6030 C   0  0  0  0  0  3  0  0  0  0  0  0
  -24.9850  -27.6380   19.5730 C   0  0  0  0  0  3  0  0  0  0  0  0
  -23.7710  -29.7930   20.2440 C   0  0  0  0  0  2  0  0  0  0  0  0
  -24.7850  -31.0500   22.1780 N   0  0  0  0  0  0  0  0  0  0  0  0
  -23.5880  -32.1660   23.7710 O   0  0  0  0  0  0  0  0  0  0  0  0
  -22.8260  -29.4740   22.5750 C   0  0  0  0  0  0  0  0  0  0  0  0
  -21.4980  -29.2960   22.4350 N   0  0  0  0  0  0  0  0  0  0  0  0
  -23.4870  -28.8570   23.4140 O   0  0  0  0  0  0  0  0  0  0  0  0
  -21.0180  -29.8440   21.7360 H   0  0  0  0  0  0  0  0  0  0  0  0
  -18.1170  -28.0770   22.9270 C   0  0  0  0  0  0  0  0  0  0  0  0
  -20.6750  -28.3540   23.2010 C   0  0  0  0  0  3  0  0  0  0  0  0
  -20.7860  -26.9240   22.6240 C   0  0  0  0  0  2  0  0  0  0  0  0
  -19.6880  -26.5980   21.6060 C   0  0  0  0  0  2  0  0  0  0  0  0
  -18.3030  -26.7330   22.2440 C   0  0  0  0  0  2  0  0  0  0  0  0
  -19.2300  -28.8460   23.3620 C   0  0  0  0  0  0  0  0  0  0  0  0
  -19.0000  -30.1010   23.9630 C   0  0  0  0  0  3  0  0  0  0  0  0
  -17.6900  -30.5920   24.1290 C   0  0  0  0  0  3  0  0  0  0  0  0
  -16.5920  -29.8210   23.7080 C   0  0  0  0  0  3  0  0  0  0  0  0
  -16.8070  -28.5650   23.1140 C   0  0  0  0  0  3  0  0  0  0  0  0
  -25.9430  -32.5400   23.9060 C   0  0  0  0  0  3  0  0  0  0  0  0
  -25.6140  -33.9400   24.2250 N   0  0  0  0  0  0  0  0  0  0  0  0
  -25.9250  -34.9960   23.4610 C   0  0  0  0  0  0  0  0  0  0  0  0
  -26.5830  -34.8930   22.4220 O   0  0  0  0  0  0  0  0  0  0  0  0
  -25.0290  -34.0910   25.0330 H   0  0  0  0  0  0  0  0  0  0  0  0
  -24.1670  -36.7680   23.1300 C   0  0  0  0  0  1  0  0  0  0  0  0
  -25.4300  -36.3830   23.9190 C   0  0  0  0  0  3  0  0  0  0  0  0
  -27.5630  -37.3110   24.7090 C   0  0  0  0  0  1  0  0  0  0  0  0
  -26.4470  -37.4480   23.7750 N   0  0  0  0  0  0  0  0  0  0  0  0
  -26.0310  -38.3650   23.9120 H   0  0  0  0  0  0  0  0  0  0  0  0
  -26.4350  -31.7890   25.2050 C   0  0  1  0  0  0  0  0  0  0  0  0
  -25.3190  -31.5590   26.2510 C   0  0  0  0  0  1  0  0  0  0  0  0
  -27.0370  -30.4110   24.8530 C   0  0  0  0  0  1  0  0  0  0  0  0
  -27.5650  -32.6000   25.8820 C   0  0  0  0  0  1  0  0  0  0  0  0
  1  3  2  0
  1  2  1  0
  2  7  1  0
  2  5  2  0
  3  4  1  0
  4 50  1  0
  4  9  2  0
  5  9  1  0
  5 10  1  0
  6 10  1  0
  7 20  1  0
  7  6  1  0
  8  3  1  0
 10 11  1  0
 12 20  1  0
 13 18  1  0
 14 15  1  0
 14 13  1  0
 16 15  1  0
 16 25  1  0
 16 17  1  0
 18 12  1  0
 18 17  1  0
 19 12  2  0
 20 21  1  0
 22 23  2  0
 23 42  1  0
 24 23  1  0
 24 27  1  0
 25 26  1  0
 25 22  1  0
 26 24  2  0
 27 28  1  0
 28 29  2  0
 30 33  1  0
 30 29  1  0
 31 30  2  0
 32 31  1  0
 32 27  2  0
 33 34  1  0
 34 35  1  0
 35 36  2  0
 37 36  1  0
 37 41  1  0
 38 37  2  0
 39 34  2  0
 39 38  1  0
 40 39  1  0
 42 43  1  0
 43 46  1  0
 43 45  1  0
 44 42  2  0
 47 48  1  0
 47 22  1  0
 49 47  1  0
 51 50  1  0
 52 63  2  0
 53 51  1  0
 53 58  1  0
 54 62  1  0
 54 64  1  0
 55 61  1  0
 55 57  1  0
 56 62  1  0
 57 58  2  0
 57 56  1  0
 59 53  2  0
 60 59  1  0
 60 55  2  0
 61 54  1  0
 62 52  1  0
 64 66  2  0
 65 64  1  0
 67 65  1  0
 68 77  2  0
 68 73  1  0
 69 65  1  0
 69 73  1  0
 70 69  1  0
 71 72  1  0
 71 70  1  0
 72 68  1  0
 73 74  2  0
 74 75  1  0
 76 75  2  0
 77 76  1  0
 78 52  1  0
 78 79  1  0
 78 88  1  0
 79 82  1  0
 80 84  1  0
 80 79  1  0
 81 80  2  0
 84 83  1  0
 86 87  1  0
 86 84  1  0
 86 85  1  0
 88 91  1  1
 88 89  1  0
 90 88  1  0
M  ISO  4  12 100  20 100  50 101  51 101
M  END
>  <TORSDO>  (76) 
F 17

>  <SCORE>  (76) 
-15.979

>  <name>  (76) 
75

>  <ligand_id>  (76) 
75

>  <original_smiles>  (76) 
[H]c1c([H])c([H])c2c(c1[H])C([H])([H])C([H])([H])C([H])([H])C2([H])N([H])C(=O)C1([H])N(C(=O)C([H])(N([H])C(=O)C([H])(N([H])C([H])([H])[H])C([H])([H])[H])C(C([H])([H])[H])(C([H])([H])[H])C([H])([H])[H])C([H])([H])c2c([H])c(OC([H])([H])c3nc4c(c([H])c3C([H])([H])[H])C([H])(N([H])C(=O)N3C([H])([H])C([H])([H])C([H])([H])C([H])(n5nc(-c6c([H])c([H])c(Oc7c([H])c([H])c(F)c([H])c7F)c([H])c6[H])c(C(=O)N([H])[H])c5N([H])[H])C3([H])[H])C([H])([H])N4[H])c([H])c([H])c2C1([H])[H]

>  <smiles>  (76) 
[H]c1c([H])c([H])c2c(c1[H])C([H])([H])C([H])([H])C([H])([H])C2([H])N([H])C(=O)C1([H])N(C(=O)C([H])(N([H])C(=O)C([H])(N([H])C([H])([H])[H])C([H])([H])[H])C(C([H])([H])[H])(C([H])([H])[H])C([H])([H])[H])C([H])([H])c2c([H])c(OC([H])([H])c3nc4c(c([H])c3C([H])([H])[H])C([H])(N([H])C(=O)N3C([H])([H])C([H])([H])C([H])([H])C([H])(n5nc(-c6c([H])c([H])c(Oc7c([H])c([H])c(F)c([H])c7F)c([H])c6[H])c(C(=O)N([H])[H])c5N([H])[H])C3([H])[H])C([H])([H])N4[H])c([H])c([H])c2C1([H])[H]

$$$$
76:0:0
     RDKit          3D

 94104  0  0  1  0  0  0  0  0999 V2000
  -28.8070  -21.8040   20.7470 C   0  0  0  0  0  0  0  0  0  0  0  0
  -28.7640  -23.1310   20.0200 C   0  0  0  0  0  0  0  0  0  0  0  0
  -29.2540  -20.6660   19.9880 C   0  0  0  0  0  0  0  0  0  0  0  0
  -29.2580  -22.6970   18.8080 C   0  0  0  0  0  0  0  0  0  0  0  0
  -29.7430  -21.9910   16.5730 C   0  0  0  0  0  2  0  0  0  0  0  0
  -30.0090  -20.8190   17.5380 C   0  0  0  0  0  2  0  0  0  0  0  0
  -29.4800  -23.2550   17.4400 C   0  0  2  0  0  0  0  0  0  0  0  0
  -28.3100  -21.6580   22.1610 C   0  0  0  0  0  1  0  0  0  0  0  0
  -30.7110  -24.1740   17.4100 C   0  0  0  0  0  1  0  0  0  0  0  0
  -28.2500  -24.0250   16.9320 C   0  0  0  0  0  1  0  0  0  0  0  0
  -29.5470  -21.3290   18.8020 N   0  0  0  0  0  0  0  0  0  0  0  0
  -30.7480  -15.1330   19.8240 C   0  0  0  0  0  0  0  0  0  0  0  0
  -30.5340  -12.7820   18.8450 C   0  0  0  0  0  2  0  0  0  0  0  0
  -29.5020  -12.7310   17.6930 C   0  0  0  0  0  2  0  0  0  0  0  0
  -28.0830  -12.4980   18.2490 C   0  0  0  0  0  2  0  0  0  0  0  0
  -27.7760  -13.3970   19.4750 C   0  0  0  0  0  3  0  0  0  0  0  0
  -28.9280  -13.4020   20.5030 C   0  0  0  0  0  2  0  0  0  0  0  0
  -30.1270  -13.8720   19.7920 N   0  0  0  0  0  0  0  0  0  0  0  0
  -31.8970  -15.1580   19.3640 O   0  0  0  0  0  0  0  0  0  0  0  0
  -29.1570  -18.2830   21.4740 C   0  0  0  0  0  2  0  0  0  0  0  0
  -29.2380  -16.7160   21.2410 C   0  0  0  0  0  2  0  0  0  0  0  0
  -30.2920  -17.8350   19.4930 C   0  0  0  0  0  2  0  0  0  0  0  0
  -29.2710  -18.9830   20.1080 C   0  0  0  0  0  3  0  0  0  0  0  0
  -30.0500  -16.3860   20.0480 N   0  0  0  0  0  0  0  0  0  0  0  0
  -25.4830  -13.9420   20.4630 C   0  0  0  0  0  0  0  0  0  0  0  0
  -24.4510  -13.1540   20.8870 C   0  0  0  0  0  0  0  0  0  0  0  0
  -24.8970  -11.8060   20.7400 C   0  0  0  0  0  0  0  0  0  0  0  0
  -26.4900  -13.0750   20.0800 N   0  0  0  0  0  0  0  0  0  0  0  0
  -26.1540  -11.7790   20.3100 N   0  0  0  0  0  0  0  0  0  0  0  0
  -24.1770  -10.5380   20.9260 C   0  0  0  0  0  0  0  0  0  0  0  0
  -24.6030   -9.5740   21.8660 C   0  0  0  0  0  3  0  0  0  0  0  0
  -23.8760   -8.3770   22.0400 C   0  0  0  0  0  3  0  0  0  0  0  0
  -22.7080   -8.1340   21.2780 C   0  0  0  0  0  0  0  0  0  0  0  0
  -22.3030   -9.0860   20.3260 C   0  0  0  0  0  3  0  0  0  0  0  0
  -23.0310  -10.2740   20.1490 C   0  0  0  0  0  3  0  0  0  0  0  0
  -21.9560   -6.9890   21.3640 O   0  0  0  0  0  0  0  0  0  0  0  0
  -21.7930   -6.3220   22.5520 C   0  0  0  0  0  0  0  0  0  0  0  0
  -21.2360   -6.9450   23.6890 C   0  0  0  0  0  3  0  0  0  0  0  0
  -21.0200   -6.2000   24.8660 C   0  0  0  0  0  3  0  0  0  0  0  0
  -21.3550   -4.8340   24.9080 C   0  0  0  0  0  0  0  0  0  0  0  0
  -21.9070   -4.2100   23.7740 C   0  0  0  0  0  3  0  0  0  0  0  0
  -22.1210   -4.9510   22.5990 C   0  0  0  0  0  0  0  0  0  0  0  0
  -22.6300   -4.3390   21.5030 F   0  0  0  0  0  0  0  0  0  0  0  0
  -21.1450   -4.1160   26.0360 F   0  0  0  0  0  0  0  0  0  0  0  0
  -23.0920  -13.6240   21.3120 C   0  0  0  0  0  0  0  0  0  0  0  0
  -22.4460  -12.8890   22.2090 N   0  0  0  0  0  0  0  0  0  0  0  0
  -22.6180  -14.6760   20.8850 O   0  0  0  0  0  0  0  0  0  0  0  0
  -22.8500  -12.0410   22.5770 H   0  0  0  0  0  0  0  0  0  0  0  0
  -21.5360  -13.1830   22.5380 H   0  0  0  0  0  0  0  0  0  0  0  0
  -25.6410  -15.3200   20.3470 N   0  0  0  0  0  0  0  0  0  0  0  0
  -24.8980  -15.9710   20.5790 H   0  0  0  0  0  0  0  0  0  0  0  0
  -26.4610  -15.7730   19.9700 H   0  0  0  0  0  0  0  0  0  0  0  0
  -28.0800  -24.6300   20.4490 C   0  0  0  0  0  2  0  0  0  0  0  0
  -28.4060  -26.1280   20.0470 O   0  0  0  0  0  0  0  0  0  0  0  0
  -24.7070  -31.8480   23.0910 C   0  0  0  0  0  0  0  0  0  0  0  0
  -27.3640  -27.1480   20.0400 C   0  0  0  0  0  0  0  0  0  0  0  0
  -23.5370  -30.4410   21.4420 C   0  0  0  0  0  3  0  0  0  0  0  0
  -25.0150  -28.8940   20.0130 C   0  0  0  0  0  0  0  0  0  0  0  0
  -26.0910  -30.7360   21.2890 C   0  0  0  0  0  2  0  0  0  0  0  0
  -26.1910  -29.3440   20.6280 C   0  0  0  0  0  0  0  0  0  0  0  0
  -27.3680  -28.4900   20.6190 C   0  0  0  0  0  3  0  0  0  0  0  0
  -26.1610  -26.8210   19.3780 C   0  0  0  0  0  3  0  0  0  0  0  0
  -25.0150  -27.6470   19.3700 C   0  0  0  0  0  3  0  0  0  0  0  0
  -23.7750  -29.7770   20.0600 C   0  0  0  0  0  2  0  0  0  0  0  0
  -24.7980  -31.0330   21.9950 N   0  0  0  0  0  0  0  0  0  0  0  0
  -23.6150  -32.1130   23.6150 O   0  0  0  0  0  0  0  0  0  0  0  0
  -22.8710  -29.4180   22.3970 C   0  0  0  0  0  0  0  0  0  0  0  0
  -21.5470  -29.2190   22.2610 N   0  0  0  0  0  0  0  0  0  0  0  0
  -23.5490  -28.8070   23.2280 O   0  0  0  0  0  0  0  0  0  0  0  0
  -21.0540  -29.7660   21.5690 H   0  0  0  0  0  0  0  0  0  0  0  0
  -18.1910  -27.9380   22.7440 C   0  0  0  0  0  0  0  0  0  0  0  0
  -20.7420  -28.2600   23.0240 C   0  0  0  0  0  3  0  0  0  0  0  0
  -20.8780  -26.8310   22.4470 C   0  0  0  0  0  2  0  0  0  0  0  0
  -19.7890  -26.4870   21.4250 C   0  0  0  0  0  2  0  0  0  0  0  0
  -18.4010  -26.5960   22.0630 C   0  0  0  0  0  2  0  0  0  0  0  0
  -19.2880  -28.7270   23.1800 C   0  0  0  0  0  0  0  0  0  0  0  0
  -19.0340  -29.9790   23.7790 C   0  0  0  0  0  3  0  0  0  0  0  0
  -17.7170  -30.4460   23.9460 C   0  0  0  0  0  3  0  0  0  0  0  0
  -16.6350  -29.6550   23.5240 C   0  0  0  0  0  3  0  0  0  0  0  0
  -16.8720  -28.4040   22.9280 C   0  0  0  0  0  3  0  0  0  0  0  0
  -25.9690  -32.5070   23.7260 C   0  0  0  0  0  3  0  0  0  0  0  0
  -25.6210  -33.8910   24.0860 N   0  0  0  0  0  0  0  0  0  0  0  0
  -25.9320  -34.9720   23.3590 C   0  0  0  0  0  0  0  0  0  0  0  0
  -26.6060  -34.9120   22.3280 O   0  0  0  0  0  0  0  0  0  0  0  0
  -25.0240  -34.0120   24.8920 H   0  0  0  0  0  0  0  0  0  0  0  0
  -24.1720  -36.7440   23.0460 C   0  0  0  0  0  1  0  0  0  0  0  0
  -25.4150  -36.3380   23.8540 C   0  0  0  0  0  3  0  0  0  0  0  0
  -27.5220  -37.2410   24.7330 C   0  0  0  0  0  1  0  0  0  0  0  0
  -26.4270  -37.4140   23.7810 N   0  0  0  0  0  0  0  0  0  0  0  0
  -26.0010  -38.3200   23.9520 H   0  0  0  0  0  0  0  0  0  0  0  0
  -26.5040  -31.7290   24.9920 C   0  0  1  0  0  0  0  0  0  0  0  0
  -25.4170  -31.4440   26.0540 C   0  0  0  0  0  1  0  0  0  0  0  0
  -27.1240  -30.3730   24.5860 C   0  0  0  0  0  1  0  0  0  0  0  0
  -27.6330  -32.5430   25.6660 C   0  0  0  0  0  1  0  0  0  0  0  0
  1  8  1  0
  2 53  1  0
  2  1  1  0
  3  1  2  0
  4  2  2  0
  5  7  1  0
  5  6  1  0
  6 11  1  0
  7  4  1  0
  7  9  1  1
 10  7  1  0
 11  4  1  0
 11  3  1  0
 12 24  1  0
 13 18  1  0
 14 15  1  0
 14 13  1  0
 16 15  1  0
 16 28  1  0
 16 17  1  0
 18 12  1  0
 18 17  1  0
 19 12  2  0
 21 20  1  0
 22 24  1  0
 22 23  1  0
 23  3  1  0
 23 20  1  0
 24 21  1  0
 25 26  2  0
 26 45  1  0
 27 26  1  0
 27 30  1  0
 28 29  1  0
 28 25  1  0
 29 27  2  0
 30 31  1  0
 31 32  2  0
 33 36  1  0
 33 32  1  0
 34 33  2  0
 35 34  1  0
 35 30  2  0
 36 37  1  0
 37 42  2  0
 37 38  1  0
 38 39  2  0
 39 40  1  0
 40 44  1  0
 41 40  2  0
 42 41  1  0
 43 42  1  0
 45 46  1  0
 46 49  1  0
 46 48  1  0
 47 45  2  0
 50 25  1  0
 50 51  1  0
 52 50  1  0
 54 53  1  0
 55 66  2  0
 56 54  1  0
 56 61  1  0
 57 65  1  0
 57 67  1  0
 58 64  1  0
 58 60  1  0
 59 65  1  0
 60 59  1  0
 61 60  2  0
 62 56  2  0
 63 62  1  0
 63 58  2  0
 64 57  1  0
 65 55  1  0
 67 69  2  0
 68 67  1  0
 70 68  1  0
 71 80  2  0
 71 76  1  0
 72 68  1  0
 72 76  1  0
 73 72  1  0
 74 75  1  0
 74 73  1  0
 75 71  1  0
 76 77  2  0
 77 78  1  0
 79 78  2  0
 80 79  1  0
 81 55  1  0
 81 82  1  0
 81 91  1  0
 82 85  1  0
 83 87  1  0
 83 82  1  0
 84 83  2  0
 87 86  1  0
 89 87  1  0
 89 90  1  0
 89 88  1  0
 91 94  1  1
 91 92  1  0
 93 91  1  0
M  ISO  4  12 100  24 100  53 101  54 101
M  END
>  <TORSDO>  (77) 
F 17

>  <SCORE>  (77) 
-14.227

>  <name>  (77) 
76

>  <ligand_id>  (77) 
76

>  <original_smiles>  (77) 
[H]c1c([H])c([H])c2c(c1[H])C([H])([H])C([H])([H])C([H])([H])C2([H])N([H])C(=O)C1([H])N(C(=O)C([H])(N([H])C(=O)C([H])(N([H])C([H])([H])[H])C([H])([H])[H])C(C([H])([H])[H])(C([H])([H])[H])C([H])([H])[H])C([H])([H])c2c([H])c(OC([H])([H])c3c(C([H])([H])[H])c(C4([H])C([H])([H])N(C(=O)N5C([H])([H])C([H])([H])C([H])([H])C([H])(n6nc(-c7c([H])c([H])c(Oc8c([H])c([H])c(F)c([H])c8F)c([H])c7[H])c(C(=O)N([H])[H])c6N([H])[H])C5([H])[H])C([H])([H])C4([H])[H])n4c3C(C([H])([H])[H])(C([H])([H])[H])C([H])([H])C4([H])[H])c([H])c([H])c2C1([H])[H]

>  <smiles>  (77) 
[H]c1c([H])c([H])c2c(c1[H])C([H])([H])C([H])([H])C([H])([H])C2([H])N([H])C(=O)C1([H])N(C(=O)C([H])(N([H])C(=O)C([H])(N([H])C([H])([H])[H])C([H])([H])[H])C(C([H])([H])[H])(C([H])([H])[H])C([H])([H])[H])C([H])([H])c2c([H])c(OC([H])([H])c3c(C([H])([H])[H])c(C4([H])C([H])([H])N(C(=O)N5C([H])([H])C([H])([H])C([H])([H])C([H])(n6nc(-c7c([H])c([H])c(Oc8c([H])c([H])c(F)c([H])c8F)c([H])c7[H])c(C(=O)N([H])[H])c6N([H])[H])C5([H])[H])C([H])([H])C4([H])[H])n4c3C(C([H])([H])[H])(C([H])([H])[H])C([H])([H])C4([H])[H])c([H])c([H])c2C1([H])[H]

$$$$
77:0:0
     RDKit          3D

 92101  0  0  1  0  0  0  0  0999 V2000
  -28.3330  -21.3150   21.4280 C   0  0  0  0  0  3  0  0  0  0  0  0
  -29.0580  -21.1990   20.2270 C   0  0  0  0  0  0  0  0  0  0  0  0
  -29.1390  -22.4770   19.4890 C   0  0  0  0  0  0  0  0  0  0  0  0
  -28.5610  -23.7460   19.9830 C   0  0  0  0  0  0  0  0  0  0  0  0
  -27.8790  -23.6180   21.2140 C   0  0  0  0  0  0  0  0  0  0  0  0
  -29.8210  -22.5050   18.1320 C   0  0  0  0  0  1  0  0  0  0  0  0
  -27.1540  -24.7880   21.8570 C   0  0  0  0  0  1  0  0  0  0  0  0
  -27.7730  -22.4540   21.8950 N   0  0  0  0  0  0  0  0  0  0  0  0
  -30.8540  -15.1700   19.8670 C   0  0  0  0  0  0  0  0  0  0  0  0
  -30.6010  -12.8280   18.9850 C   0  0  0  0  0  2  0  0  0  0  0  0
  -29.6090  -12.7850   17.8050 C   0  0  0  0  0  2  0  0  0  0  0  0
  -28.1730  -12.5920   18.3230 C   0  0  0  0  0  2  0  0  0  0  0  0
  -27.8330  -13.5430   19.5040 C   0  0  0  0  0  3  0  0  0  0  0  0
  -28.9490  -13.5920   20.5660 C   0  0  0  0  0  2  0  0  0  0  0  0
  -30.1900  -13.9510   19.8690 N   0  0  0  0  0  0  0  0  0  0  0  0
  -32.0440  -15.1620   19.5330 O   0  0  0  0  0  0  0  0  0  0  0  0
  -30.2590  -18.8890   21.1090 C   0  0  0  0  0  2  0  0  0  0  0  0
  -28.8690  -18.6080   19.1910 C   0  0  0  0  0  2  0  0  0  0  0  0
  -30.9700  -17.4940   20.7940 C   0  0  0  0  0  2  0  0  0  0  0  0
  -29.5630  -17.1670   18.9350 C   0  0  0  0  0  2  0  0  0  0  0  0
  -29.7240  -19.7340   19.8900 C   0  0  0  0  0  3  0  0  0  0  0  0
  -30.2030  -16.4170   20.0770 N   0  0  0  0  0  0  0  0  0  0  0  0
  -25.5110  -14.1200   20.4100 C   0  0  0  0  0  0  0  0  0  0  0  0
  -24.4650  -13.3440   20.8230 C   0  0  0  0  0  0  0  0  0  0  0  0
  -24.9140  -11.9910   20.7300 C   0  0  0  0  0  0  0  0  0  0  0  0
  -26.5300  -13.2420   20.0830 N   0  0  0  0  0  0  0  0  0  0  0  0
  -26.1840  -11.9540   20.3420 N   0  0  0  0  0  0  0  0  0  0  0  0
  -24.1910  -10.7290   20.9330 C   0  0  0  0  0  0  0  0  0  0  0  0
  -24.6240   -9.7700   21.8750 C   0  0  0  0  0  3  0  0  0  0  0  0
  -23.8980   -8.5740   22.0650 C   0  0  0  0  0  3  0  0  0  0  0  0
  -22.7240   -8.3290   21.3140 C   0  0  0  0  0  0  0  0  0  0  0  0
  -22.3120   -9.2760   20.3590 C   0  0  0  0  0  3  0  0  0  0  0  0
  -23.0370  -10.4630   20.1680 C   0  0  0  0  0  3  0  0  0  0  0  0
  -21.9690   -7.1850   21.4130 O   0  0  0  0  0  0  0  0  0  0  0  0
  -21.8650   -6.4930   22.5930 C   0  0  0  0  0  0  0  0  0  0  0  0
  -21.3130   -7.0780   23.7520 C   0  0  0  0  0  3  0  0  0  0  0  0
  -21.1600   -6.3110   24.9250 C   0  0  0  0  0  3  0  0  0  0  0  0
  -21.5480   -4.9570   24.9360 C   0  0  0  0  0  0  0  0  0  0  0  0
  -22.0920   -4.3700   23.7800 C   0  0  0  0  0  3  0  0  0  0  0  0
  -22.2480   -5.1370   22.6100 C   0  0  0  0  0  0  0  0  0  0  0  0
  -22.7530   -4.5610   21.4930 F   0  0  0  0  0  0  0  0  0  0  0  0
  -21.3940   -4.2160   26.0580 F   0  0  0  0  0  0  0  0  0  0  0  0
  -23.0910  -13.8230   21.1900 C   0  0  0  0  0  0  0  0  0  0  0  0
  -22.4190  -13.1200   22.0940 N   0  0  0  0  0  0  0  0  0  0  0  0
  -22.6250  -14.8570   20.7110 O   0  0  0  0  0  0  0  0  0  0  0  0
  -22.8110  -12.2830   22.5020 H   0  0  0  0  0  0  0  0  0  0  0  0
  -21.5000  -13.4220   22.3840 H   0  0  0  0  0  0  0  0  0  0  0  0
  -25.6760  -15.4940   20.2580 N   0  0  0  0  0  0  0  0  0  0  0  0
  -24.9310  -16.1540   20.4510 H   0  0  0  0  0  0  0  0  0  0  0  0
  -26.5220  -15.9370   19.9240 H   0  0  0  0  0  0  0  0  0  0  0  0
  -28.5350  -25.1610   19.1690 C   0  0  0  0  0  2  0  0  0  0  0  0
  -28.4750  -26.5700   19.7730 O   0  0  0  0  0  0  0  0  0  0  0  0
  -24.6560  -31.8520   23.0570 C   0  0  0  0  0  0  0  0  0  0  0  0
  -27.3580  -27.4610   19.7220 C   0  0  0  0  0  0  0  0  0  0  0  0
  -23.4820  -30.5120   21.3530 C   0  0  0  0  0  3  0  0  0  0  0  0
  -24.9620  -29.0860   19.8180 C   0  0  0  0  0  0  0  0  0  0  0  0
  -26.0170  -30.8900   21.1740 C   0  0  0  0  0  2  0  0  0  0  0  0
  -26.1280  -29.5460   20.4430 C   0  0  0  0  0  0  0  0  0  0  0  0
  -27.3200  -28.7440   20.3890 C   0  0  0  0  0  3  0  0  0  0  0  0
  -26.1650  -27.0910   19.0620 C   0  0  0  0  0  3  0  0  0  0  0  0
  -24.9910  -27.8710   19.1160 C   0  0  0  0  0  3  0  0  0  0  0  0
  -23.7040  -29.9270   19.9320 C   0  0  0  0  0  2  0  0  0  0  0  0
  -24.7380  -31.1030   21.9170 N   0  0  0  0  0  0  0  0  0  0  0  0
  -23.5680  -32.0670   23.6130 O   0  0  0  0  0  0  0  0  0  0  0  0
  -22.8580  -29.4230   22.2620 C   0  0  0  0  0  0  0  0  0  0  0  0
  -21.5300  -29.2380   22.1660 N   0  0  0  0  0  0  0  0  0  0  0  0
  -23.5670  -28.7540   23.0170 O   0  0  0  0  0  0  0  0  0  0  0  0
  -21.0150  -29.8340   21.5320 H   0  0  0  0  0  0  0  0  0  0  0  0
  -18.1790  -27.9870   22.7220 C   0  0  0  0  0  0  0  0  0  0  0  0
  -20.7470  -28.2370   22.8950 C   0  0  0  0  0  3  0  0  0  0  0  0
  -20.8250  -26.8590   22.1960 C   0  0  0  0  0  2  0  0  0  0  0  0
  -19.6770  -26.6160   21.2120 C   0  0  0  0  0  2  0  0  0  0  0  0
  -18.3260  -26.6990   21.9290 C   0  0  0  0  0  2  0  0  0  0  0  0
  -19.3160  -28.7160   23.1610 C   0  0  0  0  0  0  0  0  0  0  0  0
  -19.1230  -29.9230   23.8680 C   0  0  0  0  0  3  0  0  0  0  0  0
  -17.8270  -30.4010   24.1370 C   0  0  0  0  0  3  0  0  0  0  0  0
  -16.7050  -29.6680   23.7130 C   0  0  0  0  0  3  0  0  0  0  0  0
  -16.8830  -28.4620   23.0130 C   0  0  0  0  0  3  0  0  0  0  0  0
  -25.9190  -32.4920   23.7060 C   0  0  0  0  0  3  0  0  0  0  0  0
  -25.5810  -33.8770   24.0690 N   0  0  0  0  0  0  0  0  0  0  0  0
  -25.9050  -34.9570   23.3450 C   0  0  0  0  0  0  0  0  0  0  0  0
  -26.5860  -34.8920   22.3180 O   0  0  0  0  0  0  0  0  0  0  0  0
  -24.9710  -33.9980   24.8640 H   0  0  0  0  0  0  0  0  0  0  0  0
  -24.1590  -36.7420   23.0290 C   0  0  0  0  0  1  0  0  0  0  0  0
  -25.3960  -36.3250   23.8400 C   0  0  0  0  0  3  0  0  0  0  0  0
  -27.5020  -37.2190   24.7350 C   0  0  0  0  0  1  0  0  0  0  0  0
  -26.4180  -37.3940   23.7710 N   0  0  0  0  0  0  0  0  0  0  0  0
  -25.9970  -38.3070   23.9280 H   0  0  0  0  0  0  0  0  0  0  0  0
  -26.4370  -31.7000   24.9680 C   0  0  1  0  0  0  0  0  0  0  0  0
  -25.3370  -31.4220   26.0190 C   0  0  0  0  0  1  0  0  0  0  0  0
  -27.0470  -30.3430   24.5530 C   0  0  0  0  0  1  0  0  0  0  0  0
  -27.5730  -32.4960   25.6510 C   0  0  0  0  0  1  0  0  0  0  0  0
  1  8  1  0
  2  1  2  0
  3  4  2  0
  3  2  1  0
  4  5  1  0
  5  7  1  0
  5  8  2  0
  6  3  1  0
  9 15  1  0
  9 22  1  0
 10 15  1  0
 11 12  1  0
 11 10  1  0
 13 12  1  0
 13 26  1  0
 13 14  1  0
 15 14  1  0
 16  9  2  0
 18 21  1  0
 19 17  1  0
 20 18  1  0
 20 22  1  0
 21  2  1  0
 21 17  1  0
 22 19  1  0
 23 24  2  0
 24 43  1  0
 25 24  1  0
 25 28  1  0
 26 27  1  0
 26 23  1  0
 27 25  2  0
 28 29  1  0
 29 30  2  0
 31 34  1  0
 31 30  1  0
 32 31  2  0
 33 32  1  0
 33 28  2  0
 34 35  1  0
 35 40  2  0
 35 36  1  0
 36 37  2  0
 37 38  1  0
 38 42  1  0
 39 38  2  0
 40 39  1  0
 41 40  1  0
 43 44  1  0
 44 47  1  0
 44 46  1  0
 45 43  2  0
 48 23  1  0
 48 49  1  0
 50 48  1  0
 51 52  1  0
 51  4  1  0
 53 64  2  0
 54 52  1  0
 54 59  1  0
 55 63  1  0
 55 65  1  0
 56 62  1  0
 56 58  1  0
 57 63  1  0
 58 57  1  0
 59 58  2  0
 60 61  1  0
 60 54  2  0
 61 56  2  0
 62 55  1  0
 63 53  1  0
 65 67  2  0
 66 65  1  0
 68 66  1  0
 69 78  2  0
 69 74  1  0
 70 66  1  0
 70 74  1  0
 71 70  1  0
 72 73  1  0
 72 71  1  0
 73 69  1  0
 74 75  2  0
 75 76  1  0
 77 76  2  0
 78 77  1  0
 79 53  1  0
 79 80  1  0
 79 89  1  0
 80 83  1  0
 81 85  1  0
 81 80  1  0
 82 81  2  0
 85 84  1  0
 87 85  1  0
 87 88  1  0
 87 86  1  0
 89 92  1  1
 89 90  1  0
 91 89  1  0
M  ISO  4   9 100  22 100  51 101  52 101
M  END
>  <TORSDO>  (78) 
F 17

>  <SCORE>  (78) 
-14.571

>  <name>  (78) 
77

>  <ligand_id>  (78) 
77

>  <original_smiles>  (78) 
[H]c1nc(C([H])([H])[H])c(C([H])([H])Oc2c([H])c([H])c3c(c2[H])C([H])([H])N(C(=O)C([H])(N([H])C(=O)C([H])(N([H])C([H])([H])[H])C([H])([H])[H])C(C([H])([H])[H])(C([H])([H])[H])C([H])([H])[H])C([H])(C(=O)N([H])C2([H])c4c([H])c([H])c([H])c([H])c4C([H])([H])C([H])([H])C2([H])[H])C3([H])[H])c(C([H])([H])[H])c1C1([H])C([H])([H])C([H])([H])N(C(=O)N2C([H])([H])C([H])([H])C([H])([H])C([H])(n3nc(-c4c([H])c([H])c(Oc5c([H])c([H])c(F)c([H])c5F)c([H])c4[H])c(C(=O)N([H])[H])c3N([H])[H])C2([H])[H])C([H])([H])C1([H])[H]

>  <smiles>  (78) 
[H]c1nc(C([H])([H])[H])c(C([H])([H])Oc2c([H])c([H])c3c(c2[H])C([H])([H])N(C(=O)C([H])(N([H])C(=O)C([H])(N([H])C([H])([H])[H])C([H])([H])[H])C(C([H])([H])[H])(C([H])([H])[H])C([H])([H])[H])C([H])(C(=O)N([H])C2([H])c4c([H])c([H])c([H])c([H])c4C([H])([H])C([H])([H])C2([H])[H])C3([H])[H])c(C([H])([H])[H])c1C1([H])C([H])([H])C([H])([H])N(C(=O)N2C([H])([H])C([H])([H])C([H])([H])C([H])(n3nc(-c4c([H])c([H])c(Oc5c([H])c([H])c(F)c([H])c5F)c([H])c4[H])c(C(=O)N([H])[H])c3N([H])[H])C2([H])[H])C([H])([H])C1([H])[H]

$$$$
78:0:0
     RDKit          3D

 94103  0  0  1  0  0  0  0  0999 V2000
  -28.6320  -20.2480   19.4170 C   0  0  0  0  0  3  0  0  0  0  0  0
  -30.2280  -19.4440   20.9960 C   0  0  0  0  0  3  0  0  0  0  0  0
  -28.8760  -21.6760   19.7950 C   0  0  0  0  0  0  0  0  0  0  0  0
  -29.3820  -19.0600   19.9430 C   0  0  0  0  0  0  0  0  0  0  0  0
  -30.0120  -21.7820   20.6230 C   0  0  0  0  0  0  0  0  0  0  0  0
  -29.4860  -23.7820   18.4500 C   0  0  0  0  0  3  0  0  0  0  0  0
  -30.8360  -23.7390   19.1990 C   0  0  0  0  0  3  0  0  0  0  0  0
  -28.2860  -23.0950   19.1450 C   0  0  1  0  0  0  0  0  0  0  0  0
  -30.8850  -23.0640   20.6040 C   0  0  1  0  0  0  0  0  0  0  0  0
  -27.2640  -22.6940   18.0680 C   0  0  0  0  0  1  0  0  0  0  0  0
  -30.5140  -24.0650   21.7190 C   0  0  0  0  0  1  0  0  0  0  0  0
  -32.3780  -22.7100   20.8180 C   0  0  0  0  0  1  0  0  0  0  0  0
  -30.5300  -20.7270   21.3100 N   0  0  0  0  0  0  0  0  0  0  0  0
  -29.4920  -17.5070   19.3260 C   0  0  0  0  0  2  0  0  0  0  0  0
  -30.3310  -14.8800   19.7400 C   0  0  0  0  0  0  0  0  0  0  0  0
  -30.2230  -12.4770   18.9140 C   0  0  0  0  0  2  0  0  0  0  0  0
  -29.1900  -12.3210   17.7670 C   0  0  0  0  0  2  0  0  0  0  0  0
  -27.7780  -12.0810   18.3270 C   0  0  0  0  0  2  0  0  0  0  0  0
  -27.4370  -13.0480   19.4880 C   0  0  0  0  0  3  0  0  0  0  0  0
  -28.5790  -13.1550   20.5240 C   0  0  0  0  0  2  0  0  0  0  0  0
  -29.7820  -13.5910   19.8070 N   0  0  0  0  0  0  0  0  0  0  0  0
  -31.4720  -14.9620   19.2690 O   0  0  0  0  0  0  0  0  0  0  0  0
  -29.5530  -16.0560   20.0010 N   0  0  0  0  0  0  0  0  0  0  0  0
  -28.7020  -15.8300   20.4920 H   0  0  0  0  0  0  0  0  0  0  0  0
  -25.1580  -13.6110   20.4990 C   0  0  0  0  0  0  0  0  0  0  0  0
  -24.1320  -12.8310   20.9550 C   0  0  0  0  0  0  0  0  0  0  0  0
  -24.5750  -11.4790   20.8250 C   0  0  0  0  0  0  0  0  0  0  0  0
  -26.1570  -12.7350   20.1140 N   0  0  0  0  0  0  0  0  0  0  0  0
  -25.8250  -11.4440   20.3770 N   0  0  0  0  0  0  0  0  0  0  0  0
  -23.8620  -10.2160   21.0420 C   0  0  0  0  0  0  0  0  0  0  0  0
  -24.3290   -9.2500   21.9590 C   0  0  0  0  0  3  0  0  0  0  0  0
  -23.6100   -8.0540   22.1640 C   0  0  0  0  0  3  0  0  0  0  0  0
  -22.4120   -7.8100   21.4520 C   0  0  0  0  0  0  0  0  0  0  0  0
  -21.9650   -8.7650   20.5210 C   0  0  0  0  0  3  0  0  0  0  0  0
  -22.6850   -9.9550   20.3130 C   0  0  0  0  0  3  0  0  0  0  0  0
  -21.6600   -6.6650   21.5650 O   0  0  0  0  0  0  0  0  0  0  0  0
  -21.5990   -5.9610   22.7390 C   0  0  0  0  0  0  0  0  0  0  0  0
  -21.0450   -6.5150   23.9150 C   0  0  0  0  0  3  0  0  0  0  0  0
  -20.9380   -5.7300   25.0830 C   0  0  0  0  0  3  0  0  0  0  0  0
  -21.3740   -4.3920   25.0730 C   0  0  0  0  0  0  0  0  0  0  0  0
  -21.9190   -3.8360   23.9030 C   0  0  0  0  0  3  0  0  0  0  0  0
  -22.0280   -4.6180   22.7400 C   0  0  0  0  0  0  0  0  0  0  0  0
  -22.5340   -4.0700   21.6070 F   0  0  0  0  0  0  0  0  0  0  0  0
  -21.2670   -3.6340   26.1900 F   0  0  0  0  0  0  0  0  0  0  0  0
  -22.7740  -13.3080   21.3800 C   0  0  0  0  0  0  0  0  0  0  0  0
  -22.1150  -12.5820   22.2760 N   0  0  0  0  0  0  0  0  0  0  0  0
  -22.3090  -14.3670   20.9600 O   0  0  0  0  0  0  0  0  0  0  0  0
  -22.5040  -11.7290   22.6510 H   0  0  0  0  0  0  0  0  0  0  0  0
  -21.2070  -12.8900   22.5910 H   0  0  0  0  0  0  0  0  0  0  0  0
  -25.3180  -14.9870   20.3550 N   0  0  0  0  0  0  0  0  0  0  0  0
  -24.5710  -15.6410   20.5630 H   0  0  0  0  0  0  0  0  0  0  0  0
  -26.1110  -15.4230   19.9030 H   0  0  0  0  0  0  0  0  0  0  0  0
  -27.5360  -24.3760   19.9750 C   0  0  0  0  0  2  0  0  0  0  0  0
  -27.8120  -25.9060   19.7740 O   0  0  0  0  0  0  0  0  0  0  0  0
  -24.5030  -31.5890   23.1190 C   0  0  0  0  0  0  0  0  0  0  0  0
  -26.7850  -26.9130   19.8190 C   0  0  0  0  0  0  0  0  0  0  0  0
  -23.1900  -30.2880   21.4880 C   0  0  0  0  0  3  0  0  0  0  0  0
  -24.5220  -28.7250   19.9430 C   0  0  0  0  0  0  0  0  0  0  0  0
  -25.7400  -30.4800   21.2230 C   0  0  0  0  0  2  0  0  0  0  0  0
  -25.7380  -29.1130   20.5190 C   0  0  0  0  0  0  0  0  0  0  0  0
  -26.8730  -28.2220   20.4390 C   0  0  0  0  0  3  0  0  0  0  0  0
  -25.5530  -26.6330   19.1920 C   0  0  0  0  0  3  0  0  0  0  0  0
  -24.4430  -27.4990   19.2640 C   0  0  0  0  0  3  0  0  0  0  0  0
  -23.3260  -29.6540   20.0780 C   0  0  0  0  0  2  0  0  0  0  0  0
  -24.5010  -30.8070   21.9960 N   0  0  0  0  0  0  0  0  0  0  0  0
  -23.4490  -31.8850   23.7030 O   0  0  0  0  0  0  0  0  0  0  0  0
  -22.5240  -29.2660   22.4430 C   0  0  0  0  0  0  0  0  0  0  0  0
  -21.1970  -29.0800   22.3100 N   0  0  0  0  0  0  0  0  0  0  0  0
  -23.2020  -28.6430   23.2620 O   0  0  0  0  0  0  0  0  0  0  0  0
  -20.7080  -29.6370   21.6210 H   0  0  0  0  0  0  0  0  0  0  0  0
  -17.8360  -27.8090   22.7550 C   0  0  0  0  0  0  0  0  0  0  0  0
  -20.3830  -28.1290   23.0700 C   0  0  0  0  0  3  0  0  0  0  0  0
  -20.5290  -26.6970   22.5030 C   0  0  0  0  0  2  0  0  0  0  0  0
  -19.4540  -26.3440   21.4710 C   0  0  0  0  0  2  0  0  0  0  0  0
  -18.0570  -26.4620   22.0870 C   0  0  0  0  0  2  0  0  0  0  0  0
  -18.9290  -28.6000   23.1990 C   0  0  0  0  0  0  0  0  0  0  0  0
  -18.6700  -29.8620   23.7780 C   0  0  0  0  0  3  0  0  0  0  0  0
  -17.3510  -30.3300   23.9220 C   0  0  0  0  0  3  0  0  0  0  0  0
  -16.2720  -29.5340   23.5000 C   0  0  0  0  0  3  0  0  0  0  0  0
  -16.5160  -28.2770   22.9180 C   0  0  0  0  0  3  0  0  0  0  0  0
  -25.8230  -32.1640   23.7100 C   0  0  0  0  0  3  0  0  0  0  0  0
  -25.5800  -33.5690   24.0730 N   0  0  0  0  0  0  0  0  0  0  0  0
  -25.9540  -34.6280   23.3390 C   0  0  0  0  0  0  0  0  0  0  0  0
  -26.6090  -34.5160   22.2980 O   0  0  0  0  0  0  0  0  0  0  0  0
  -25.0010  -33.7290   24.8830 H   0  0  0  0  0  0  0  0  0  0  0  0
  -24.3310  -36.5260   23.0220 C   0  0  0  0  0  1  0  0  0  0  0  0
  -25.5390  -36.0270   23.8330 C   0  0  0  0  0  3  0  0  0  0  0  0
  -27.6950  -36.7860   24.7310 C   0  0  0  0  0  1  0  0  0  0  0  0
  -26.6280  -37.0270   23.7620 N   0  0  0  0  0  0  0  0  0  0  0  0
  -26.2700  -37.9660   23.9130 H   0  0  0  0  0  0  0  0  0  0  0  0
  -26.3420  -31.3560   24.9640 C   0  0  1  0  0  0  0  0  0  0  0  0
  -25.2700  -31.1410   26.0590 C   0  0  0  0  0  1  0  0  0  0  0  0
  -26.8650  -29.9640   24.5430 C   0  0  0  0  0  1  0  0  0  0  0  0
  -27.5420  -32.0950   25.6040 C   0  0  0  0  0  1  0  0  0  0  0  0
  1  3  2  0
  1  4  1  0
  2 13  1  0
  3  5  1  0
  4  2  2  0
  5 13  2  0
  6  8  1  0
  6  7  2  0
  7  9  1  0
  8 10  1  6
  8  3  1  0
  8 53  1  0
  9  5  1  0
  9 12  1  1
  9 11  1  0
 14  4  1  0
 14 23  1  0
 15 21  1  0
 15 23  1  0
 16 21  1  0
 17 18  1  0
 17 16  1  0
 19 18  1  0
 19 28  1  0
 19 20  1  0
 21 20  1  0
 22 15  2  0
 23 24  1  0
 25 26  2  0
 26 45  1  0
 27 26  1  0
 27 30  1  0
 28 29  1  0
 28 25  1  0
 29 27  2  0
 30 31  1  0
 31 32  2  0
 33 36  1  0
 33 32  1  0
 34 33  2  0
 35 34  1  0
 35 30  2  0
 36 37  1  0
 37 42  2  0
 37 38  1  0
 38 39  2  0
 40 39  1  0
 40 44  1  0
 41 40  2  0
 42 41  1  0
 43 42  1  0
 45 46  1  0
 46 49  1  0
 46 48  1  0
 47 45  2  0
 50 25  1  0
 50 51  1  0
 52 50  1  0
 54 56  1  0
 54 53  1  0
 55 66  2  0
 56 61  1  0
 57 65  1  0
 57 67  1  0
 58 64  1  0
 58 60  1  0
 59 65  1  0
 60 59  1  0
 61 60  2  0
 62 63  1  0
 62 56  2  0
 63 58  2  0
 64 57  1  0
 65 55  1  0
 67 69  2  0
 68 67  1  0
 70 68  1  0
 71 80  2  0
 71 76  1  0
 72 68  1  0
 72 76  1  0
 73 72  1  0
 74 75  1  0
 74 73  1  0
 75 71  1  0
 76 77  2  0
 77 78  1  0
 79 78  2  0
 80 79  1  0
 81 55  1  0
 81 82  1  0
 81 91  1  0
 82 85  1  0
 83 87  1  0
 83 82  1  0
 84 83  2  0
 87 86  1  0
 89 87  1  0
 89 90  1  0
 89 88  1  0
 91 94  1  1
 91 92  1  0
 93 91  1  0
M  ISO  4  15 100  23 100  53 101  54 101
M  END
>  <TORSDO>  (79) 
F 18

>  <SCORE>  (79) 
-14.266

>  <name>  (79) 
78

>  <ligand_id>  (79) 
78

>  <original_smiles>  (79) 
[H]c1nc2c(c([H])c1C([H])([H])N([H])C(=O)N1C([H])([H])C([H])([H])C([H])([H])C([H])(n3nc(-c4c([H])c([H])c(Oc5c([H])c([H])c(F)c([H])c5F)c([H])c4[H])c(C(=O)N([H])[H])c3N([H])[H])C1([H])[H])C(C([H])([H])[H])(C([H])([H])Oc1c([H])c([H])c3c(c1[H])C([H])([H])N(C(=O)C([H])(N([H])C(=O)C([H])(N([H])C([H])([H])[H])C([H])([H])[H])C(C([H])([H])[H])(C([H])([H])[H])C([H])([H])[H])C([H])(C(=O)N([H])C1([H])c4c([H])c([H])c([H])c([H])c4C([H])([H])C([H])([H])C1([H])[H])C3([H])[H])C([H])([H])C([H])([H])C2(C([H])([H])[H])C([H])([H])[H]

>  <smiles>  (79) 
[H]c1nc2c(c([H])c1C([H])([H])N([H])C(=O)N1C([H])([H])C([H])([H])C([H])([H])C([H])(n3nc(-c4c([H])c([H])c(Oc5c([H])c([H])c(F)c([H])c5F)c([H])c4[H])c(C(=O)N([H])[H])c3N([H])[H])C1([H])[H])C(C([H])([H])[H])(C([H])([H])Oc1c([H])c([H])c3c(c1[H])C([H])([H])N(C(=O)C([H])(N([H])C(=O)C([H])(N([H])C([H])([H])[H])C([H])([H])[H])C(C([H])([H])[H])(C([H])([H])[H])C([H])([H])[H])C([H])(C(=O)N([H])C1([H])c4c([H])c([H])c([H])c([H])c4C([H])([H])C([H])([H])C1([H])[H])C3([H])[H])C([H])([H])C([H])([H])C2(C([H])([H])[H])C([H])([H])[H]

$$$$
79:0:0
     RDKit          3D

101111  0  0  1  0  0  0  0  0999 V2000
  -29.2190  -17.7220   19.5780 C   0  0  0  0  0  3  0  0  0  0  0  0
  -28.8460  -20.4750   19.8780 C   0  0  0  0  0  0  0  0  0  0  0  0
  -28.5150  -19.8440   18.6800 C   0  0  0  0  0  0  0  0  0  0  0  0
  -29.4480  -19.7600   20.9470 C   0  0  0  0  0  0  0  0  0  0  0  0
  -28.7010  -18.4650   18.5010 C   0  0  0  0  0  0  0  0  0  0  0  0
  -29.5990  -18.3490   20.7910 C   0  0  0  0  0  0  0  0  0  0  0  0
  -27.9660  -20.8090   17.6640 C   0  0  0  0  0  2  0  0  0  0  0  0
  -27.7240  -22.0980   18.4690 C   0  0  0  0  0  2  0  0  0  0  0  0
  -28.4600  -21.9460   19.8310 C   0  0  0  0  0  3  0  0  0  0  0  0
  -28.3430  -17.7790   17.1970 C   0  0  0  0  0  1  0  0  0  0  0  0
  -27.6030  -22.3040   20.9830 N   0  0  0  0  0  4  0  0  0  0  0  0
  -28.1270  -22.1080   21.8200 H   0  0  0  0  0  0  0  0  0  0  0  0
  -26.8220  -21.6660   20.9740 H   0  0  0  0  0  0  0  0  0  0  0  0
  -25.9280  -23.7520   22.0810 C   0  0  0  0  0  1  0  0  0  0  0  0
  -27.0730  -23.6910   21.0530 C   0  0  0  0  0  3  0  0  0  0  0  0
  -28.1600  -24.7480   21.3840 C   0  0  0  0  0  2  0  0  0  0  0  0
  -28.7540  -25.4770   20.1520 C   0  0  0  0  0  2  0  0  0  0  0  0
  -28.7360  -26.8980   20.3120 O   0  0  0  0  0  0  0  0  0  0  0  0
  -24.5760  -31.8220   23.2770 C   0  0  0  0  0  0  0  0  0  0  0  0
  -27.5230  -27.5530   20.2380 C   0  0  0  0  0  0  0  0  0  0  0  0
  -23.4990  -30.4150   21.5530 C   0  0  0  0  0  3  0  0  0  0  0  0
  -25.0710  -28.9600   20.1740 C   0  0  0  0  0  0  0  0  0  0  0  0
  -26.0160  -30.8660   21.4850 C   0  0  0  0  0  2  0  0  0  0  0  0
  -26.1790  -29.5150   20.8240 C   0  0  0  0  0  0  0  0  0  0  0  0
  -27.4070  -28.8180   20.8540 C   0  0  0  0  0  3  0  0  0  0  0  0
  -26.3910  -27.0130   19.5800 C   0  0  0  0  0  3  0  0  0  0  0  0
  -25.1700  -27.7060   19.5510 C   0  0  0  0  0  3  0  0  0  0  0  0
  -23.7970  -29.7710   20.1730 C   0  0  0  0  0  2  0  0  0  0  0  0
  -24.7120  -31.0470   22.1650 N   0  0  0  0  0  0  0  0  0  0  0  0
  -23.4600  -32.0480   23.7670 O   0  0  0  0  0  0  0  0  0  0  0  0
  -22.8390  -29.3520   22.4590 C   0  0  0  0  0  0  0  0  0  0  0  0
  -21.5220  -29.1530   22.2850 N   0  0  0  0  0  0  0  0  0  0  0  0
  -23.5100  -28.7100   23.2720 O   0  0  0  0  0  0  0  0  0  0  0  0
  -21.0450  -29.7250   21.6020 H   0  0  0  0  0  0  0  0  0  0  0  0
  -18.1480  -27.9180   22.6590 C   0  0  0  0  0  0  0  0  0  0  0  0
  -20.6960  -28.1780   22.9970 C   0  0  0  0  0  3  0  0  0  0  0  0
  -20.8210  -26.7720   22.3630 C   0  0  0  0  0  2  0  0  0  0  0  0
  -19.7430  -26.4860   21.3130 C   0  0  0  0  0  2  0  0  0  0  0  0
  -18.3480  -26.5980   21.9340 C   0  0  0  0  0  2  0  0  0  0  0  0
  -19.2520  -28.6680   23.1440 C   0  0  0  0  0  0  0  0  0  0  0  0
  -19.0140  -29.9060   23.7790 C   0  0  0  0  0  3  0  0  0  0  0  0
  -17.7030  -30.3940   23.9360 C   0  0  0  0  0  3  0  0  0  0  0  0
  -16.6120  -29.6400   23.4680 C   0  0  0  0  0  3  0  0  0  0  0  0
  -16.8360  -28.4030   22.8370 C   0  0  0  0  0  3  0  0  0  0  0  0
  -25.8090  -32.4800   23.9720 C   0  0  0  0  0  3  0  0  0  0  0  0
  -25.4620  -33.8810   24.2470 N   0  0  0  0  0  0  0  0  0  0  0  0
  -25.8350  -34.9190   23.4850 C   0  0  0  0  0  0  0  0  0  0  0  0
  -26.5770  -34.7980   22.5050 O   0  0  0  0  0  0  0  0  0  0  0  0
  -24.8090  -34.0470   24.9990 H   0  0  0  0  0  0  0  0  0  0  0  0
  -24.1140  -36.6770   22.9690 C   0  0  0  0  0  1  0  0  0  0  0  0
  -25.3030  -36.3110   23.8720 C   0  0  0  0  0  3  0  0  0  0  0  0
  -27.3680  -37.2440   24.8170 C   0  0  0  0  0  1  0  0  0  0  0  0
  -26.3280  -37.3750   23.7990 N   0  0  0  0  0  0  0  0  0  0  0  0
  -25.9030  -38.2930   23.8960 H   0  0  0  0  0  0  0  0  0  0  0  0
  -26.2450  -31.7410   25.2960 C   0  0  1  0  0  0  0  0  0  0  0  0
  -25.0830  -31.5090   26.2910 C   0  0  0  0  0  1  0  0  0  0  0  0
  -26.8700  -30.3660   24.9680 C   0  0  0  0  0  1  0  0  0  0  0  0
  -27.3380  -32.5640   26.0170 C   0  0  0  0  0  1  0  0  0  0  0  0
  -30.7220  -21.7190   22.2100 C   0  0  0  0  0  2  0  0  0  0  0  0
  -31.3260  -20.4210   22.6730 C   0  0  0  0  0  2  0  0  0  0  0  0
  -29.8820  -20.4560   22.2160 C   0  0  0  0  0  3  0  0  0  0  0  0
  -30.1190  -17.4580   21.9210 C   0  0  0  0  0  2  0  0  0  0  0  0
  -31.3120  -16.5610   21.5250 C   0  0  0  0  0  2  0  0  0  0  0  0
  -31.2510  -14.4370   20.1970 C   0  0  0  0  0  0  0  0  0  0  0  0
  -30.7810  -12.3610   18.9520 C   0  0  0  0  0  2  0  0  0  0  0  0
  -29.7900  -12.6160   17.8010 C   0  0  0  0  0  2  0  0  0  0  0  0
  -28.3340  -12.5250   18.2960 C   0  0  0  0  0  2  0  0  0  0  0  0
  -28.0890  -13.3710   19.5710 C   0  0  0  0  0  3  0  0  0  0  0  0
  -29.1720  -13.0780   20.6310 C   0  0  0  0  0  2  0  0  0  0  0  0
  -30.4990  -13.3200   20.0280 N   0  0  0  0  0  0  0  0  0  0  0  0
  -32.2270  -14.7220   19.4990 O   0  0  0  0  0  0  0  0  0  0  0  0
  -30.8520  -15.2130   21.2080 N   0  0  0  0  0  0  0  0  0  0  0  0
  -30.0960  -14.8470   21.7690 H   0  0  0  0  0  0  0  0  0  0  0  0
  -25.7530  -14.0780   20.4020 C   0  0  0  0  0  0  0  0  0  0  0  0
  -24.6660  -13.3470   20.8020 C   0  0  0  0  0  0  0  0  0  0  0  0
  -25.0570  -11.9760   20.7130 C   0  0  0  0  0  0  0  0  0  0  0  0
  -26.7420  -13.1540   20.1000 N   0  0  0  0  0  0  0  0  0  0  0  0
  -26.3270  -11.8830   20.3400 N   0  0  0  0  0  0  0  0  0  0  0  0
  -24.2790  -10.7450   20.9060 C   0  0  0  0  0  0  0  0  0  0  0  0
  -24.6770   -9.7580   21.8360 C   0  0  0  0  0  3  0  0  0  0  0  0
  -23.9050   -8.5910   22.0170 C   0  0  0  0  0  3  0  0  0  0  0  0
  -22.7200   -8.4010   21.2650 C   0  0  0  0  0  0  0  0  0  0  0  0
  -22.3410   -9.3750   20.3240 C   0  0  0  0  0  3  0  0  0  0  0  0
  -23.1140  -10.5350   20.1430 C   0  0  0  0  0  3  0  0  0  0  0  0
  -21.9210   -7.2880   21.3540 O   0  0  0  0  0  0  0  0  0  0  0  0
  -21.7870   -6.5900   22.5280 C   0  0  0  0  0  0  0  0  0  0  0  0
  -21.3170   -7.2030   23.7100 C   0  0  0  0  0  3  0  0  0  0  0  0
  -21.1280   -6.4320   24.8750 C   0  0  0  0  0  3  0  0  0  0  0  0
  -21.4000   -5.0520   24.8580 C   0  0  0  0  0  0  0  0  0  0  0  0
  -21.8620   -4.4370   23.6800 C   0  0  0  0  0  3  0  0  0  0  0  0
  -22.0520   -5.2050   22.5180 C   0  0  0  0  0  0  0  0  0  0  0  0
  -22.4780   -4.6060   21.3800 F   0  0  0  0  0  0  0  0  0  0  0  0
  -21.2110   -4.3090   25.9740 F   0  0  0  0  0  0  0  0  0  0  0  0
  -23.3070  -13.8820   21.1570 C   0  0  0  0  0  0  0  0  0  0  0  0
  -22.5950  -13.2020   22.0480 N   0  0  0  0  0  0  0  0  0  0  0  0
  -22.8900  -14.9360   20.6800 O   0  0  0  0  0  0  0  0  0  0  0  0
  -22.9450  -12.3460   22.4540 H   0  0  0  0  0  0  0  0  0  0  0  0
  -21.6850  -13.5400   22.3290 H   0  0  0  0  0  0  0  0  0  0  0  0
  -25.9770  -15.4430   20.2550 N   0  0  0  0  0  0  0  0  0  0  0  0
  -25.2540  -16.1330   20.4230 H   0  0  0  0  0  0  0  0  0  0  0  0
  -26.8390  -15.8490   19.9140 H   0  0  0  0  0  0  0  0  0  0  0  0
  1  6  1  0
  2  4  1  0
  3  2  2  0
  4 61  1  0
  5  3  1  0
  5  1  2  0
  6  4  2  0
  6 62  1  0
  7  8  1  0
  7  3  1  0
  8  9  1  0
  9  2  1  0
  9 11  1  0
 10  5  1  0
 11 15  1  0
 11 12  1  0
 13 11  1  0
 15 16  1  0
 15 14  1  0
 17 18  1  0
 17 16  1  0
 19 30  2  0
 20 18  1  0
 20 25  1  0
 21 29  1  0
 21 31  1  0
 22 24  1  0
 23 29  1  0
 24 25  2  0
 24 23  1  0
 26 20  2  0
 27 26  1  0
 27 22  2  0
 28 22  1  0
 28 21  1  0
 29 19  1  0
 31 33  2  0
 32 31  1  0
 34 32  1  0
 35 44  2  0
 35 40  1  0
 36 32  1  0
 36 40  1  0
 37 36  1  0
 38 39  1  0
 38 37  1  0
 39 35  1  0
 40 41  2  0
 41 42  1  0
 43 42  2  0
 44 43  1  0
 45 19  1  0
 45 46  1  0
 45 55  1  0
 46 49  1  0
 47 51  1  0
 47 46  1  0
 48 47  2  0
 51 50  1  0
 53 51  1  0
 53 54  1  0
 53 52  1  0
 55 58  1  1
 55 56  1  0
 57 55  1  0
 59 61  1  0
 59 60  1  0
 61 60  1  0
 63 62  1  0
 64 72  1  0
 65 70  1  0
 66 67  1  0
 66 65  1  0
 68 67  1  0
 68 77  1  0
 68 69  1  0
 70 64  1  0
 70 69  1  0
 71 64  2  0
 72 63  1  0
 72 73  1  0
 74 75  2  0
 75 94  1  0
 76 75  1  0
 76 79  1  0
 77 78  1  0
 77 74  1  0
 78 76  2  0
 79 80  1  0
 80 81  2  0
 82 85  1  0
 82 81  1  0
 83 82  2  0
 84 83  1  0
 84 79  2  0
 85 86  1  0
 86 87  1  0
 87 88  2  0
 89 88  1  0
 89 93  1  0
 90 89  2  0
 91 86  2  0
 91 90  1  0
 92 91  1  0
 94 95  1  0
 95 98  1  0
 95 97  1  0
 96 94  2  0
 99 74  1  0
 99100  1  0
101 99  1  0
M  ISO  4  17 101  18 101  64 100  72 100
M  END
>  <TORSDO>  (80) 
F 23

>  <SCORE>  (80) 
-12.549

>  <name>  (80) 
79

>  <ligand_id>  (80) 
79

>  <original_smiles>  (80) 
[H]c1c([H])c([H])c2c(c1[H])C([H])([H])C([H])([H])C([H])([H])C2([H])N([H])C(=O)C1([H])N(C(=O)C([H])(N([H])C(=O)C([H])(N([H])C([H])([H])[H])C([H])([H])[H])C(C([H])([H])[H])(C([H])([H])[H])C([H])([H])[H])C([H])([H])c2c([H])c(OC([H])([H])C([H])([H])C([H])(C([H])([H])[H])[N+]([H])([H])C3([H])c4c(c(C([H])([H])[H])c([H])c(C([H])([H])C([H])([H])N([H])C(=O)N5C([H])([H])C([H])([H])C([H])([H])C([H])(n6nc(-c7c([H])c([H])c(Oc8c([H])c([H])c(F)c([H])c8F)c([H])c7[H])c(C(=O)N([H])[H])c6N([H])[H])C5([H])[H])c4C4([H])C([H])([H])C4([H])[H])C([H])([H])C3([H])[H])c([H])c([H])c2C1([H])[H]

>  <smiles>  (80) 
[H]c1c([H])c([H])c2c(c1[H])C([H])([H])C([H])([H])C([H])([H])C2([H])N([H])C(=O)C1([H])N(C(=O)C([H])(N([H])C(=O)C([H])(N([H])C([H])([H])[H])C([H])([H])[H])C(C([H])([H])[H])(C([H])([H])[H])C([H])([H])[H])C([H])([H])c2c([H])c(OC([H])([H])C([H])([H])C([H])(C([H])([H])[H])[N+]([H])([H])C3([H])c4c(c(C([H])([H])[H])c([H])c(C([H])([H])C([H])([H])N([H])C(=O)N5C([H])([H])C([H])([H])C([H])([H])C([H])(n6nc(-c7c([H])c([H])c(Oc8c([H])c([H])c(F)c([H])c8F)c([H])c7[H])c(C(=O)N([H])[H])c6N([H])[H])C5([H])[H])c4C4([H])C([H])([H])C4([H])[H])C([H])([H])C3([H])[H])c([H])c([H])c2C1([H])[H]

$$$$
80:0:0
     RDKit          3D

 98107  0  0  1  0  0  0  0  0999 V2000
  -31.1190  -18.9630   22.0170 C   0  0  0  0  0  0  0  0  0  0  0  0
  -32.1490  -19.8930   21.7220 C   0  0  0  0  0  0  0  0  0  0  0  0
  -30.6370  -18.1260   20.9820 C   0  0  0  0  0  0  0  0  0  0  0  0
  -32.4320  -20.2050   20.3670 C   0  0  0  0  0  0  0  0  0  0  0  0
  -31.1950  -18.2470   19.6870 C   0  0  0  0  0  0  0  0  0  0  0  0
  -31.6490  -19.6020   19.3460 C   0  0  0  0  0  0  0  0  0  0  0  0
  -30.6110  -18.7920   23.4470 C   0  0  0  0  0  1  0  0  0  0  0  0
  -32.8780  -20.6240   22.8500 C   0  0  0  0  0  1  0  0  0  0  0  0
  -29.5990  -17.0580   21.2690 C   0  0  0  0  0  1  0  0  0  0  0  0
  -33.4600  -21.2800   20.0260 C   0  0  0  0  0  1  0  0  0  0  0  0
  -31.7430  -16.8840   19.0260 C   0  0  0  0  0  2  0  0  0  0  0  0
  -32.1440  -14.2940   19.5530 C   0  0  0  0  0  0  0  0  0  0  0  0
  -31.7920  -11.8840   18.9730 C   0  0  0  0  0  2  0  0  0  0  0  0
  -30.7980  -11.7950   17.7930 C   0  0  0  0  0  2  0  0  0  0  0  0
  -29.3470  -11.7700   18.3100 C   0  0  0  0  0  2  0  0  0  0  0  0
  -29.0730  -12.8700   19.3700 C   0  0  0  0  0  3  0  0  0  0  0  0
  -30.1840  -12.9270   20.4430 C   0  0  0  0  0  2  0  0  0  0  0  0
  -31.4630  -13.1070   19.7440 N   0  0  0  0  0  0  0  0  0  0  0  0
  -33.3030  -14.2680   19.1330 O   0  0  0  0  0  0  0  0  0  0  0  0
  -31.4360  -15.4880   19.6140 N   0  0  0  0  0  0  0  0  0  0  0  0
  -30.5010  -15.3910   19.9760 H   0  0  0  0  0  0  0  0  0  0  0  0
  -26.8200  -13.7210   20.2520 C   0  0  0  0  0  0  0  0  0  0  0  0
  -25.7110  -13.0770   20.7230 C   0  0  0  0  0  0  0  0  0  0  0  0
  -26.0180  -11.6850   20.6780 C   0  0  0  0  0  0  0  0  0  0  0  0
  -27.7450  -12.7330   19.9610 N   0  0  0  0  0  0  0  0  0  0  0  0
  -27.2710  -11.4990   20.2780 N   0  0  0  0  0  0  0  0  0  0  0  0
  -25.1670  -10.5150   20.9350 C   0  0  0  0  0  0  0  0  0  0  0  0
  -25.3480   -9.7100   22.0810 C   0  0  0  0  0  3  0  0  0  0  0  0
  -24.5040   -8.6030   22.3180 C   0  0  0  0  0  3  0  0  0  0  0  0
  -23.4670   -8.2960   21.4050 C   0  0  0  0  0  0  0  0  0  0  0  0
  -23.3060   -9.0880   20.2560 C   0  0  0  0  0  3  0  0  0  0  0  0
  -24.1490  -10.1850   20.0190 C   0  0  0  0  0  3  0  0  0  0  0  0
  -22.6150   -7.2250   21.5400 O   0  0  0  0  0  0  0  0  0  0  0  0
  -22.0060   -6.9370   22.7350 C   0  0  0  0  0  0  0  0  0  0  0  0
  -21.1170   -7.8420   23.3540 C   0  0  0  0  0  3  0  0  0  0  0  0
  -20.4570   -7.4780   24.5450 C   0  0  0  0  0  3  0  0  0  0  0  0
  -20.6780   -6.2090   25.1130 C   0  0  0  0  0  0  0  0  0  0  0  0
  -21.5590   -5.3050   24.4950 C   0  0  0  0  0  3  0  0  0  0  0  0
  -22.2180   -5.6670   23.3070 C   0  0  0  0  0  0  0  0  0  0  0  0
  -23.0500   -4.7850   22.7040 F   0  0  0  0  0  0  0  0  0  0  0  0
  -20.0400   -5.8550   26.2530 F   0  0  0  0  0  0  0  0  0  0  0  0
  -24.4020  -13.7150   21.0860 C   0  0  0  0  0  0  0  0  0  0  0  0
  -23.6790  -13.1290   22.0340 N   0  0  0  0  0  0  0  0  0  0  0  0
  -24.0370  -14.7690   20.5660 O   0  0  0  0  0  0  0  0  0  0  0  0
  -23.9910  -12.2760   22.4750 H   0  0  0  0  0  0  0  0  0  0  0  0
  -22.8020  -13.5400   22.3230 H   0  0  0  0  0  0  0  0  0  0  0  0
  -27.0990  -15.0600   20.0150 N   0  0  0  0  0  0  0  0  0  0  0  0
  -26.3830  -15.7690   20.1290 H   0  0  0  0  0  0  0  0  0  0  0  0
  -27.8920  -15.3790   19.4770 H   0  0  0  0  0  0  0  0  0  0  0  0
  -30.7100  -20.7020   18.6170 C   0  0  0  0  0  2  0  0  0  0  0  0
  -31.0860  -22.4850   15.9380 C   0  0  0  0  0  2  0  0  0  0  0  0
  -30.0110  -23.3330   16.6410 C   0  0  0  0  0  2  0  0  0  0  0  0
  -32.0460  -21.9980   17.0460 C   0  0  0  0  0  2  0  0  0  0  0  0
  -30.5140  -23.4250   18.0800 C   0  0  0  0  0  3  0  0  0  0  0  0
  -31.2950  -22.0990   18.3230 N   0  0  1  0  0  4  0  0  0  0  0  0
  -31.9550  -22.2600   19.0690 H   0  0  0  0  0  0  0  0  0  0  0  0
  -29.5900  -24.2590   19.1100 C   0  0  0  0  0  2  0  0  0  0  0  0
  -29.6050  -25.7700   18.9870 O   0  0  0  0  0  0  0  0  0  0  0  0
  -25.5370  -30.0600   23.2280 C   0  0  0  0  0  0  0  0  0  0  0  0
  -28.4360  -26.5480   19.1670 C   0  0  0  0  0  0  0  0  0  0  0  0
  -24.4330  -29.0790   21.2490 C   0  0  0  0  0  3  0  0  0  0  0  0
  -25.9880  -28.0180   19.5100 C   0  0  0  0  0  0  0  0  0  0  0  0
  -26.9550  -29.5520   21.2210 C   0  0  0  0  0  2  0  0  0  0  0  0
  -27.1220  -28.3870   20.2440 C   0  0  0  0  0  0  0  0  0  0  0  0
  -28.3490  -27.6700   20.0610 C   0  0  0  0  0  3  0  0  0  0  0  0
  -27.2770  -26.2520   18.4170 C   0  0  0  0  0  3  0  0  0  0  0  0
  -26.0700  -26.9620   18.5880 C   0  0  0  0  0  3  0  0  0  0  0  0
  -24.7060  -28.7930   19.7480 C   0  0  0  0  0  2  0  0  0  0  0  0
  -25.6590  -29.5680   21.9590 N   0  0  0  0  0  0  0  0  0  0  0  0
  -24.4340  -30.1330   23.7890 O   0  0  0  0  0  0  0  0  0  0  0  0
  -23.8130  -27.8170   21.8980 C   0  0  0  0  0  0  0  0  0  0  0  0
  -22.5220  -27.5640   21.6220 N   0  0  0  0  0  0  0  0  0  0  0  0
  -24.4960  -27.0770   22.6100 O   0  0  0  0  0  0  0  0  0  0  0  0
  -22.0230  -28.2210   21.0380 H   0  0  0  0  0  0  0  0  0  0  0  0
  -19.2640  -25.9950   21.5340 C   0  0  0  0  0  0  0  0  0  0  0  0
  -21.7550  -26.4070   22.0880 C   0  0  0  0  0  3  0  0  0  0  0  0
  -22.0480  -25.1590   21.2220 C   0  0  0  0  0  2  0  0  0  0  0  0
  -21.0580  -24.9840   20.0650 C   0  0  0  0  0  2  0  0  0  0  0  0
  -19.6280  -24.8580   20.5960 C   0  0  0  0  0  2  0  0  0  0  0  0
  -20.2640  -26.7320   22.2240 C   0  0  0  0  0  0  0  0  0  0  0  0
  -19.8710  -27.8010   23.0580 C   0  0  0  0  0  3  0  0  0  0  0  0
  -18.5130  -28.1350   23.2110 C   0  0  0  0  0  3  0  0  0  0  0  0
  -17.5260  -27.3930   22.5390 C   0  0  0  0  0  3  0  0  0  0  0  0
  -17.9030  -26.3230   21.7070 C   0  0  0  0  0  3  0  0  0  0  0  0
  -26.7730  -30.5720   24.0280 C   0  0  0  0  0  3  0  0  0  0  0  0
  -27.1890  -29.6130   25.2100 C   0  0  1  0  0  0  0  0  0  0  0  0
  -26.0160  -29.2290   26.1420 C   0  0  0  0  0  1  0  0  0  0  0  0
  -27.8030  -28.3030   24.6620 C   0  0  0  0  0  1  0  0  0  0  0  0
  -28.2830  -30.2850   26.0730 C   0  0  0  0  0  1  0  0  0  0  0  0
  -26.4470  -31.9110   24.5420 N   0  0  0  0  0  0  0  0  0  0  0  0
  -26.8350  -33.0610   23.9750 C   0  0  0  0  0  0  0  0  0  0  0  0
  -27.5740  -33.1020   22.9850 O   0  0  0  0  0  0  0  0  0  0  0  0
  -25.8040  -31.9530   25.3190 H   0  0  0  0  0  0  0  0  0  0  0  0
  -25.1420  -34.9100   23.7830 C   0  0  0  0  0  1  0  0  0  0  0  0
  -26.3270  -34.3730   24.6020 C   0  0  0  0  0  3  0  0  0  0  0  0
  -28.3940  -35.1090   25.7050 C   0  0  0  0  0  1  0  0  0  0  0  0
  -27.3690  -35.4170   24.7120 N   0  0  0  0  0  0  0  0  0  0  0  0
  -26.9570  -36.3150   24.9470 H   0  0  0  0  0  0  0  0  0  0  0  0
  1  7  1  0
  2  1  1  0
  2  8  1  0
  3  9  1  0
  3  1  2  0
  4  2  2  0
  5  3  1  0
  6  5  2  0
  6  4  1  0
 10  4  1  0
 11 20  1  0
 11  5  1  0
 12 20  1  0
 12 18  1  0
 13 18  1  0
 14 15  1  0
 14 13  1  0
 16 15  1  0
 16 25  1  0
 16 17  1  0
 18 17  1  0
 19 12  2  0
 20 21  1  0
 22 23  2  0
 23 42  1  0
 24 23  1  0
 24 27  1  0
 25 22  1  0
 25 26  1  0
 26 24  2  0
 27 28  1  0
 28 29  2  0
 30 33  1  0
 30 29  1  0
 31 30  2  0
 32 31  1  0
 32 27  2  0
 33 34  1  0
 34 39  2  0
 34 35  1  0
 35 36  2  0
 36 37  1  0
 37 41  1  0
 38 37  2  0
 39 38  1  0
 40 39  1  0
 42 43  1  0
 43 46  1  0
 43 45  1  0
 44 42  2  0
 47 48  1  0
 47 22  1  0
 49 47  1  0
 50  6  1  0
 51 52  1  0
 51 53  1  0
 52 54  1  0
 53 55  1  0
 54 55  1  0
 54 57  1  0
 55 50  1  0
 55 56  1  1
 58 57  1  0
 58 60  1  0
 59 70  2  0
 60 65  1  0
 61 71  1  0
 61 69  1  0
 62 68  1  0
 62 64  1  0
 63 69  1  0
 64 63  1  0
 65 64  2  0
 66 67  1  0
 66 60  2  0
 67 62  2  0
 68 61  1  0
 69 59  1  0
 71 73  2  0
 72 71  1  0
 74 72  1  0
 75 84  2  0
 75 80  1  0
 76 72  1  0
 76 80  1  0
 77 76  1  0
 78 79  1  0
 78 77  1  0
 79 75  1  0
 80 81  2  0
 81 82  1  0
 83 82  2  0
 84 83  1  0
 85 59  1  0
 85 90  1  0
 85 86  1  0
 86 89  1  1
 86 87  1  0
 88 86  1  0
 90 93  1  0
 91 90  1  0
 91 95  1  0
 92 91  2  0
 95 94  1  0
 95 97  1  0
 97 98  1  0
 97 96  1  0
M  ISO  4  12 100  20 100  57 101  58 101
M  END
>  <TORSDO>  (81) 
F 20

>  <SCORE>  (81) 
-8.393

>  <name>  (81) 
80

>  <ligand_id>  (81) 
80

>  <original_smiles>  (81) 
[H]c1c([H])c([H])c2c(c1[H])C([H])([H])C([H])([H])C([H])([H])C2([H])N([H])C(=O)C1([H])N(C(=O)C([H])(N([H])C(=O)C([H])(N([H])C([H])([H])[H])C([H])([H])[H])C(C([H])([H])[H])(C([H])([H])[H])C([H])([H])[H])C([H])([H])c2c([H])c(OC([H])([H])C3([H])C([H])([H])C([H])([H])C([H])([H])[N+]3([H])C([H])([H])c3c(C([H])([H])[H])c(C([H])([H])[H])c(C([H])([H])[H])c(C([H])([H])[H])c3C([H])([H])N([H])C(=O)N3C([H])([H])C([H])([H])C([H])([H])C([H])(n4nc(-c5c([H])c([H])c(Oc6c([H])c([H])c(F)c([H])c6F)c([H])c5[H])c(C(=O)N([H])[H])c4N([H])[H])C3([H])[H])c([H])c([H])c2C1([H])[H]

>  <smiles>  (81) 
[H]c1c([H])c([H])c2c(c1[H])C([H])([H])C([H])([H])C([H])([H])C2([H])N([H])C(=O)C1([H])N(C(=O)C([H])(N([H])C(=O)C([H])(N([H])C([H])([H])[H])C([H])([H])[H])C(C([H])([H])[H])(C([H])([H])[H])C([H])([H])[H])C([H])([H])c2c([H])c(OC([H])([H])C3([H])C([H])([H])C([H])([H])C([H])([H])[N+]3([H])C([H])([H])c3c(C([H])([H])[H])c(C([H])([H])[H])c(C([H])([H])[H])c(C([H])([H])[H])c3C([H])([H])N([H])C(=O)N3C([H])([H])C([H])([H])C([H])([H])C([H])(n4nc(-c5c([H])c([H])c(Oc6c([H])c([H])c(F)c([H])c6F)c([H])c5[H])c(C(=O)N([H])[H])c4N([H])[H])C3([H])[H])c([H])c([H])c2C1([H])[H]

$$$$
81:0:0
     RDKit          3D

 95104  0  0  1  0  0  0  0  0999 V2000
  -29.7740  -23.3380   21.5920 C   0  0  0  0  0  3  0  0  0  0  0  0
  -28.8710  -23.7650   20.5950 C   0  0  0  0  0  0  0  0  0  0  0  0
  -30.3430  -22.0320   21.5440 C   0  0  0  0  0  0  0  0  0  0  0  0
  -28.6210  -22.8360   19.5450 C   0  0  0  0  0  0  0  0  0  0  0  0
  -29.9960  -21.1760   20.4720 C   0  0  0  0  0  0  0  0  0  0  0  0
  -27.6660  -23.1700   18.4170 C   0  0  0  0  0  1  0  0  0  0  0  0
  -29.1660  -21.5830   19.4870 N   0  0  0  0  0  0  0  0  0  0  0  0
  -31.0730  -22.0150   23.8350 C   0  0  0  0  0  1  0  0  0  0  0  0
  -31.1980  -21.5270   22.5040 O   0  0  0  0  0  0  0  0  0  0  0  0
  -30.5710  -19.8790   20.4640 N   0  0  0  0  0  0  0  0  0  0  0  0
  -31.4400  -19.8600   20.9880 H   0  0  0  0  0  0  0  0  0  0  0  0
  -30.8700  -14.3930   19.9190 C   0  0  0  0  0  0  0  0  0  0  0  0
  -30.5340  -12.1610   18.9050 C   0  0  0  0  0  2  0  0  0  0  0  0
  -29.4920  -12.2900   17.7740 C   0  0  0  0  0  2  0  0  0  0  0  0
  -28.0650  -12.1280   18.3330 C   0  0  0  0  0  2  0  0  0  0  0  0
  -27.8110  -13.0000   19.5930 C   0  0  0  0  0  3  0  0  0  0  0  0
  -28.9650  -12.8730   20.6120 C   0  0  0  0  0  2  0  0  0  0  0  0
  -30.2150  -13.1920   19.9100 N   0  0  0  0  0  0  0  0  0  0  0  0
  -32.0010  -14.5060   19.4360 O   0  0  0  0  0  0  0  0  0  0  0  0
  -30.2060  -17.6050   21.4620 C   0  0  0  0  0  2  0  0  0  0  0  0
  -30.4110  -17.8380   19.0110 C   0  0  0  0  0  2  0  0  0  0  0  0
  -29.6680  -16.1480   21.2850 C   0  0  0  0  0  2  0  0  0  0  0  0
  -29.8440  -16.3980   18.8560 C   0  0  0  0  0  2  0  0  0  0  0  0
  -29.9060  -18.5680   20.2780 C   0  0  0  0  0  3  0  0  0  0  0  0
  -30.0800  -15.5110   20.0180 N   0  0  0  0  0  0  0  0  0  0  0  0
  -25.5060  -13.5870   20.5650 C   0  0  0  0  0  0  0  0  0  0  0  0
  -24.4720  -12.8070   21.0090 C   0  0  0  0  0  0  0  0  0  0  0  0
  -24.9160  -11.4550   20.8830 C   0  0  0  0  0  0  0  0  0  0  0  0
  -26.5140  -12.7090   20.1980 N   0  0  0  0  0  0  0  0  0  0  0  0
  -26.1700  -11.4190   20.4470 N   0  0  0  0  0  0  0  0  0  0  0  0
  -24.2000  -10.1900   21.0950 C   0  0  0  0  0  0  0  0  0  0  0  0
  -24.6070   -9.2690   22.0850 C   0  0  0  0  0  3  0  0  0  0  0  0
  -23.8900   -8.0690   22.2840 C   0  0  0  0  0  3  0  0  0  0  0  0
  -22.7530   -7.7810   21.4910 C   0  0  0  0  0  0  0  0  0  0  0  0
  -22.3660   -8.6920   20.4920 C   0  0  0  0  0  3  0  0  0  0  0  0
  -23.0830   -9.8840   20.2920 C   0  0  0  0  0  3  0  0  0  0  0  0
  -22.0120   -6.6290   21.5950 O   0  0  0  0  0  0  0  0  0  0  0  0
  -21.8100   -6.0090   22.8010 C   0  0  0  0  0  0  0  0  0  0  0  0
  -21.1410   -6.6520   23.8660 C   0  0  0  0  0  3  0  0  0  0  0  0
  -20.8920   -5.9550   25.0650 C   0  0  0  0  0  3  0  0  0  0  0  0
  -21.3040   -4.6150   25.1990 C   0  0  0  0  0  0  0  0  0  0  0  0
  -21.9650   -3.9720   24.1390 C   0  0  0  0  0  3  0  0  0  0  0  0
  -22.2150   -4.6670   22.9420 C   0  0  0  0  0  0  0  0  0  0  0  0
  -22.8340   -4.0360   21.9160 F   0  0  0  0  0  0  0  0  0  0  0  0
  -21.0590   -3.9420   26.3480 F   0  0  0  0  0  0  0  0  0  0  0  0
  -23.1120  -13.2820   21.4330 C   0  0  0  0  0  0  0  0  0  0  0  0
  -22.4690  -12.5600   22.3440 N   0  0  0  0  0  0  0  0  0  0  0  0
  -22.6340  -14.3260   20.9950 O   0  0  0  0  0  0  0  0  0  0  0  0
  -22.8710  -11.7160   22.7220 H   0  0  0  0  0  0  0  0  0  0  0  0
  -21.5600  -12.8580   22.6700 H   0  0  0  0  0  0  0  0  0  0  0  0
  -25.6650  -14.9620   20.4210 N   0  0  0  0  0  0  0  0  0  0  0  0
  -24.9150  -15.6150   20.6180 H   0  0  0  0  0  0  0  0  0  0  0  0
  -26.4840  -15.4050   20.0260 H   0  0  0  0  0  0  0  0  0  0  0  0
  -28.0300  -25.0570   20.8220 C   0  0  0  0  0  2  0  0  0  0  0  0
  -28.3850  -26.3140   20.1680 O   0  0  0  0  0  0  0  0  0  0  0  0
  -24.5780  -31.6020   23.1760 C   0  0  0  0  0  0  0  0  0  0  0  0
  -27.2970  -27.1770   20.0880 C   0  0  0  0  0  0  0  0  0  0  0  0
  -23.4210  -30.2300   21.4760 C   0  0  0  0  0  3  0  0  0  0  0  0
  -24.9190  -28.7300   20.0490 C   0  0  0  0  0  0  0  0  0  0  0  0
  -25.9570  -30.5850   21.3570 C   0  0  0  0  0  2  0  0  0  0  0  0
  -26.0650  -29.2250   20.6860 C   0  0  0  0  0  0  0  0  0  0  0  0
  -27.2610  -28.4580   20.7040 C   0  0  0  0  0  3  0  0  0  0  0  0
  -26.1410  -26.7280   19.4160 C   0  0  0  0  0  3  0  0  0  0  0  0
  -24.9550  -27.4830   19.4050 C   0  0  0  0  0  3  0  0  0  0  0  0
  -23.6720  -29.5880   20.0860 C   0  0  0  0  0  2  0  0  0  0  0  0
  -24.6680  -30.8210   22.0610 N   0  0  0  0  0  0  0  0  0  0  0  0
  -23.4820  -31.8600   23.6920 O   0  0  0  0  0  0  0  0  0  0  0  0
  -22.7470  -29.1860   22.3980 C   0  0  0  0  0  0  0  0  0  0  0  0
  -21.4240  -29.0090   22.2400 N   0  0  0  0  0  0  0  0  0  0  0  0
  -23.4120  -28.5420   23.2130 O   0  0  0  0  0  0  0  0  0  0  0  0
  -20.9470  -29.5830   21.5590 H   0  0  0  0  0  0  0  0  0  0  0  0
  -18.0340  -27.8310   22.6730 C   0  0  0  0  0  0  0  0  0  0  0  0
  -20.5910  -28.0550   22.9730 C   0  0  0  0  0  3  0  0  0  0  0  0
  -20.6850  -26.6420   22.3520 C   0  0  0  0  0  2  0  0  0  0  0  0
  -19.5900  -26.3640   21.3180 C   0  0  0  0  0  2  0  0  0  0  0  0
  -18.2040  -26.5030   21.9530 C   0  0  0  0  0  2  0  0  0  0  0  0
  -19.1560  -28.5660   23.1380 C   0  0  0  0  0  0  0  0  0  0  0  0
  -18.9450  -29.8120   23.7690 C   0  0  0  0  0  3  0  0  0  0  0  0
  -17.6430  -30.3200   23.9410 C   0  0  0  0  0  3  0  0  0  0  0  0
  -16.5350  -29.5800   23.4920 C   0  0  0  0  0  3  0  0  0  0  0  0
  -16.7320  -28.3370   22.8640 C   0  0  0  0  0  3  0  0  0  0  0  0
  -25.8440  -32.2260   23.8400 C   0  0  0  0  0  3  0  0  0  0  0  0
  -26.3230  -31.4420   25.1230 C   0  0  1  0  0  0  0  0  0  0  0  0
  -25.1960  -31.1860   26.1510 C   0  0  0  0  0  1  0  0  0  0  0  0
  -26.9260  -30.0720   24.7350 C   0  0  0  0  0  1  0  0  0  0  0  0
  -27.4460  -32.2340   25.8320 C   0  0  0  0  0  1  0  0  0  0  0  0
  -25.5270  -33.6210   24.1730 N   0  0  0  0  0  0  0  0  0  0  0  0
  -25.8760  -34.6790   23.4270 C   0  0  0  0  0  0  0  0  0  0  0  0
  -26.5700  -34.5820   22.4100 O   0  0  0  0  0  0  0  0  0  0  0  0
  -24.9160  -33.7710   24.9620 H   0  0  0  0  0  0  0  0  0  0  0  0
  -24.1610  -36.4760   23.0370 C   0  0  0  0  0  1  0  0  0  0  0  0
  -25.3780  -36.0640   23.8800 C   0  0  0  0  0  3  0  0  0  0  0  0
  -27.4790  -36.9520   24.7900 C   0  0  0  0  0  1  0  0  0  0  0  0
  -26.4140  -37.1170   23.8040 N   0  0  0  0  0  0  0  0  0  0  0  0
  -26.0020  -38.0370   23.9340 H   0  0  0  0  0  0  0  0  0  0  0  0
  2 54  1  0
  2  1  2  0
  3  1  1  0
  3  9  1  0
  4  2  1  0
  5  3  2  0
  6  4  1  0
  7  4  2  0
  7  5  1  0
  9  8  1  0
 10  5  1  0
 10 11  1  0
 12 25  1  0
 13 18  1  0
 14 15  1  0
 14 13  1  0
 16 15  1  0
 16 29  1  0
 16 17  1  0
 18 12  1  0
 18 17  1  0
 19 12  2  0
 21 24  1  0
 22 20  1  0
 23 21  1  0
 23 25  1  0
 24 10  1  0
 24 20  1  0
 25 22  1  0
 26 27  2  0
 27 46  1  0
 28 27  1  0
 28 31  1  0
 29 30  1  0
 29 26  1  0
 30 28  2  0
 31 32  1  0
 32 33  2  0
 34 37  1  0
 34 33  1  0
 35 34  2  0
 36 35  1  0
 36 31  2  0
 37 38  1  0
 38 43  2  0
 38 39  1  0
 39 40  2  0
 40 41  1  0
 41 45  1  0
 42 41  2  0
 43 42  1  0
 44 43  1  0
 46 47  1  0
 47 50  1  0
 47 49  1  0
 48 46  2  0
 51 26  1  0
 51 52  1  0
 53 51  1  0
 55 54  1  0
 56 67  2  0
 57 55  1  0
 57 62  1  0
 58 66  1  0
 58 68  1  0
 59 65  1  0
 59 61  1  0
 60 66  1  0
 61 62  2  0
 61 60  1  0
 63 57  2  0
 64 63  1  0
 64 59  2  0
 65 58  1  0
 66 56  1  0
 68 70  2  0
 69 68  1  0
 71 69  1  0
 72 81  2  0
 72 77  1  0
 73 69  1  0
 73 77  1  0
 74 73  1  0
 75 76  1  0
 75 74  1  0
 76 72  1  0
 77 78  2  0
 78 79  1  0
 80 79  2  0
 81 80  1  0
 82 56  1  0
 82 87  1  0
 82 83  1  0
 83 86  1  1
 83 84  1  0
 85 83  1  0
 87 90  1  0
 88 92  1  0
 88 87  1  0
 89 88  2  0
 92 91  1  0
 94 92  1  0
 94 95  1  0
 94 93  1  0
M  ISO  4  12 100  25 100  54 101  55 101
M  END
>  <TORSDO>  (82) 
F 19

>  <SCORE>  (82) 
-13.351

>  <name>  (82) 
81

>  <ligand_id>  (82) 
81

>  <original_smiles>  (82) 
[H]c1c([H])c([H])c2c(c1[H])C([H])([H])C([H])([H])C([H])([H])C2([H])N([H])C(=O)C1([H])N(C(=O)C([H])(N([H])C(=O)C([H])(N([H])C([H])([H])[H])C([H])([H])[H])C(C([H])([H])[H])(C([H])([H])[H])C([H])([H])[H])C([H])([H])c2c([H])c(OC([H])([H])c3c(C([H])([H])[H])nc(N([H])C4([H])C([H])([H])C([H])([H])N(C(=O)N5C([H])([H])C([H])([H])C([H])([H])C([H])(n6nc(-c7c([H])c([H])c(Oc8c([H])c([H])c(F)c([H])c8F)c([H])c7[H])c(C(=O)N([H])[H])c6N([H])[H])C5([H])[H])C([H])([H])C4([H])[H])c(OC([H])([H])[H])c3[H])c([H])c([H])c2C1([H])[H]

>  <smiles>  (82) 
[H]c1c([H])c([H])c2c(c1[H])C([H])([H])C([H])([H])C([H])([H])C2([H])N([H])C(=O)C1([H])N(C(=O)C([H])(N([H])C(=O)C([H])(N([H])C([H])([H])[H])C([H])([H])[H])C(C([H])([H])[H])(C([H])([H])[H])C([H])([H])[H])C([H])([H])c2c([H])c(OC([H])([H])c3c(C([H])([H])[H])nc(N([H])C4([H])C([H])([H])C([H])([H])N(C(=O)N5C([H])([H])C([H])([H])C([H])([H])C([H])(n6nc(-c7c([H])c([H])c(Oc8c([H])c([H])c(F)c([H])c8F)c([H])c7[H])c(C(=O)N([H])[H])c6N([H])[H])C5([H])[H])C([H])([H])C4([H])[H])c(OC([H])([H])[H])c3[H])c([H])c([H])c2C1([H])[H]

$$$$
82:0:0
     RDKit          3D

 95105  0  0  1  0  0  0  0  0999 V2000
  -27.2270  -20.8820   21.5610 C   0  0  0  0  0  3  0  0  0  0  0  0
  -27.7950  -19.6130   21.2800 C   0  0  0  0  0  3  0  0  0  0  0  0
  -27.6280  -21.9780   20.7750 C   0  0  0  0  0  0  0  0  0  0  0  0
  -28.7730  -19.4690   20.2550 C   0  0  0  0  0  0  0  0  0  0  0  0
  -28.5410  -21.8100   19.7500 C   0  0  0  0  0  0  0  0  0  0  0  0
  -29.1430  -20.5880   19.4630 C   0  0  0  0  0  0  0  0  0  0  0  0
  -27.2380  -23.4330   20.9120 C   0  0  0  0  0  2  0  0  0  0  0  0
  -28.8340  -23.0780   19.0420 C   0  0  0  0  0  2  0  0  0  0  0  0
  -28.1770  -24.1690   19.9050 C   0  0  0  0  0  3  0  0  0  0  0  0
  -30.2120  -20.5560   18.3650 C   0  0  0  0  0  1  0  0  0  0  0  0
  -31.6390  -14.7620   18.8670 C   0  0  0  0  0  0  0  0  0  0  0  0
  -31.3390  -12.4580   18.0690 C   0  0  0  0  0  2  0  0  0  0  0  0
  -30.1150  -12.4100   17.1270 C   0  0  0  0  0  2  0  0  0  0  0  0
  -28.7930  -12.2720   17.9120 C   0  0  0  0  0  2  0  0  0  0  0  0
  -28.6920  -13.2680   19.0970 C   0  0  0  0  0  3  0  0  0  0  0  0
  -29.9840  -13.2050   19.9360 C   0  0  0  0  0  2  0  0  0  0  0  0
  -31.1140  -13.5260   19.0500 N   0  0  0  0  0  0  0  0  0  0  0  0
  -32.5720  -14.9950   18.0830 O   0  0  0  0  0  0  0  0  0  0  0  0
  -29.7230  -17.1500   21.1150 C   0  0  0  0  0  2  0  0  0  0  0  0
  -29.1070  -17.4440   18.7290 C   0  0  0  0  0  2  0  0  0  0  0  0
  -30.9230  -16.2610   20.6850 C   0  0  0  0  0  2  0  0  0  0  0  0
  -30.3520  -16.6850   18.2650 C   0  0  0  0  0  2  0  0  0  0  0  0
  -29.5220  -18.1780   20.0030 C   0  0  0  0  0  3  0  0  0  0  0  0
  -30.8200  -15.7460   19.2960 N   0  0  0  0  0  0  0  0  0  0  0  0
  -26.8080  -13.8780   20.7510 C   0  0  0  0  0  0  0  0  0  0  0  0
  -25.7650  -13.1490   21.2470 C   0  0  0  0  0  0  0  0  0  0  0  0
  -25.8920  -11.8440   20.6750 C   0  0  0  0  0  0  0  0  0  0  0  0
  -27.5180  -13.0170   19.9250 N   0  0  0  0  0  0  0  0  0  0  0  0
  -26.9840  -11.7710   19.9290 N   0  0  0  0  0  0  0  0  0  0  0  0
  -25.0040  -10.6800   20.7460 C   0  0  0  0  0  0  0  0  0  0  0  0
  -25.3580   -9.5290   21.4840 C   0  0  0  0  0  3  0  0  0  0  0  0
  -24.4790   -8.4270   21.5510 C   0  0  0  0  0  3  0  0  0  0  0  0
  -23.2320   -8.4720   20.8810 C   0  0  0  0  0  0  0  0  0  0  0  0
  -22.8980   -9.6100   20.1270 C   0  0  0  0  0  3  0  0  0  0  0  0
  -23.7740  -10.7040   20.0570 C   0  0  0  0  0  3  0  0  0  0  0  0
  -22.3270   -7.4400   20.8690 O   0  0  0  0  0  0  0  0  0  0  0  0
  -22.0130   -6.7470   22.0100 C   0  0  0  0  0  0  0  0  0  0  0  0
  -21.4960   -7.3910   23.1550 C   0  0  0  0  0  3  0  0  0  0  0  0
  -21.1190   -6.6310   24.2810 C   0  0  0  0  0  3  0  0  0  0  0  0
  -21.2490   -5.2290   24.2590 C   0  0  0  0  0  0  0  0  0  0  0  0
  -21.7600   -4.5860   23.1180 C   0  0  0  0  0  3  0  0  0  0  0  0
  -22.1360   -5.3430   21.9940 C   0  0  0  0  0  0  0  0  0  0  0  0
  -22.6060   -4.7170   20.8880 F   0  0  0  0  0  0  0  0  0  0  0  0
  -20.8810   -4.4990   25.3380 F   0  0  0  0  0  0  0  0  0  0  0  0
  -24.6540  -13.6500   22.1250 C   0  0  0  0  0  0  0  0  0  0  0  0
  -24.1140  -12.7880   22.9770 N   0  0  0  0  0  0  0  0  0  0  0  0
  -24.2910  -14.8270   22.0870 O   0  0  0  0  0  0  0  0  0  0  0  0
  -24.4220  -11.8260   23.0090 H   0  0  0  0  0  0  0  0  0  0  0  0
  -23.3800  -13.0900   23.6020 H   0  0  0  0  0  0  0  0  0  0  0  0
  -27.1920  -15.2040   20.9180 N   0  0  0  0  0  0  0  0  0  0  0  0
  -26.6450  -15.8620   21.4620 H   0  0  0  0  0  0  0  0  0  0  0  0
  -27.9720  -15.6360   20.4450 H   0  0  0  0  0  0  0  0  0  0  0  0
  -27.5640  -25.3220   19.0850 C   0  0  0  0  0  2  0  0  0  0  0  0
  -28.4020  -25.6870   17.8210 C   0  0  0  0  0  2  0  0  0  0  0  0
  -28.2950  -27.0230   17.3500 O   0  0  0  0  0  0  0  0  0  0  0  0
  -24.9720  -30.6640   22.3520 C   0  0  0  0  0  0  0  0  0  0  0  0
  -27.1360  -27.6730   17.6600 C   0  0  0  0  0  0  0  0  0  0  0  0
  -23.5480  -29.8780   20.4890 C   0  0  0  0  0  3  0  0  0  0  0  0
  -24.7820  -28.9860   18.4510 C   0  0  0  0  0  0  0  0  0  0  0  0
  -26.0240  -30.3880   20.1130 C   0  0  0  0  0  2  0  0  0  0  0  0
  -26.0080  -29.3250   19.0400 C   0  0  0  0  0  0  0  0  0  0  0  0
  -27.1910  -28.6820   18.6370 C   0  0  0  0  0  3  0  0  0  0  0  0
  -25.9020  -27.3420   17.0640 C   0  0  0  0  0  3  0  0  0  0  0  0
  -24.7220  -27.9930   17.4580 C   0  0  0  0  0  3  0  0  0  0  0  0
  -23.5640  -29.7270   18.9460 C   0  0  0  0  0  2  0  0  0  0  0  0
  -24.8760  -30.2970   21.0430 N   0  0  0  0  0  0  0  0  0  0  0  0
  -23.9730  -30.7040   23.0800 O   0  0  0  0  0  0  0  0  0  0  0  0
  -23.0170  -28.5660   21.1100 C   0  0  0  0  0  0  0  0  0  0  0  0
  -21.6910  -28.3630   21.0260 N   0  0  0  0  0  0  0  0  0  0  0  0
  -23.7860  -27.7530   21.6280 O   0  0  0  0  0  0  0  0  0  0  0  0
  -21.1390  -29.0820   20.5810 H   0  0  0  0  0  0  0  0  0  0  0  0
  -18.4080  -26.8830   21.2890 C   0  0  0  0  0  0  0  0  0  0  0  0
  -20.9640  -27.1900   21.5110 C   0  0  0  0  0  3  0  0  0  0  0  0
  -21.0920  -26.0170   20.5130 C   0  0  0  0  0  2  0  0  0  0  0  0
  -19.9390  -25.9550   19.5070 C   0  0  0  0  0  2  0  0  0  0  0  0
  -18.5940  -25.8190   20.2230 C   0  0  0  0  0  2  0  0  0  0  0  0
  -19.5190  -27.5380   21.8810 C   0  0  0  0  0  0  0  0  0  0  0  0
  -19.2900  -28.5450   22.8440 C   0  0  0  0  0  3  0  0  0  0  0  0
  -17.9810  -28.8910   23.2270 C   0  0  0  0  0  3  0  0  0  0  0  0
  -16.8840  -28.2280   22.6480 C   0  0  0  0  0  3  0  0  0  0  0  0
  -17.0980  -27.2260   21.6840 C   0  0  0  0  0  3  0  0  0  0  0  0
  -26.3370  -31.0800   22.9860 C   0  0  0  0  0  3  0  0  0  0  0  0
  -26.0890  -32.2670   23.8170 N   0  0  0  0  0  0  0  0  0  0  0  0
  -26.4050  -33.5210   23.4650 C   0  0  0  0  0  0  0  0  0  0  0  0
  -27.0080  -33.7900   22.4220 O   0  0  0  0  0  0  0  0  0  0  0  0
  -25.5410  -32.1260   24.6520 H   0  0  0  0  0  0  0  0  0  0  0  0
  -24.7330  -35.3570   23.8750 C   0  0  0  0  0  1  0  0  0  0  0  0
  -25.9890  -34.6570   24.4180 C   0  0  0  0  0  3  0  0  0  0  0  0
  -28.1880  -35.1280   25.4040 C   0  0  0  0  0  1  0  0  0  0  0  0
  -27.0560  -35.6570   24.6460 N   0  0  0  0  0  0  0  0  0  0  0  0
  -26.6900  -36.4580   25.1520 H   0  0  0  0  0  0  0  0  0  0  0  0
  -27.0030  -29.9300   23.8380 C   0  0  1  0  0  0  0  0  0  0  0  0
  -26.0560  -29.3050   24.8900 C   0  0  0  0  0  1  0  0  0  0  0  0
  -27.5140  -28.7910   22.9210 C   0  0  0  0  0  1  0  0  0  0  0  0
  -28.2450  -30.4840   24.5760 C   0  0  0  0  0  1  0  0  0  0  0  0
  2  1  1  0
  3  7  1  0
  3  1  2  0
  4  2  2  0
  5  3  1  0
  6  5  2  0
  6  4  1  0
  8  5  1  0
  8  9  1  0
  9 53  1  0
  9  7  1  0
 10  6  1  0
 11 17  1  0
 11 24  1  0
 12 17  1  0
 13 14  1  0
 13 12  1  0
 15 14  1  0
 15 28  1  0
 15 16  1  0
 17 16  1  0
 18 11  2  0
 20 23  1  0
 21 19  1  0
 22 20  1  0
 22 24  1  0
 23  4  1  0
 23 19  1  0
 24 21  1  0
 25 50  1  0
 25 26  2  0
 26 45  1  0
 27 30  1  0
 27 26  1  0
 28 29  1  0
 28 25  1  0
 29 27  2  0
 30 31  1  0
 31 32  2  0
 33 32  1  0
 34 33  2  0
 35 34  1  0
 35 30  2  0
 36 33  1  0
 36 37  1  0
 37 38  1  0
 38 39  2  0
 40 39  1  0
 40 44  1  0
 41 40  2  0
 42 37  2  0
 42 41  1  0
 43 42  1  0
 45 46  1  0
 46 48  1  0
 46 49  1  0
 47 45  2  0
 50 51  1  0
 52 50  1  0
 54 53  1  0
 55 57  1  0
 55 54  1  0
 56 67  2  0
 57 62  1  0
 58 66  1  0
 58 68  1  0
 59 65  1  0
 59 61  1  0
 60 66  1  0
 61 60  1  0
 62 61  2  0
 63 64  1  0
 63 57  2  0
 64 59  2  0
 65 58  1  0
 66 56  1  0
 68 70  2  0
 69 68  1  0
 71 69  1  0
 72 81  2  0
 72 77  1  0
 73 69  1  0
 73 77  1  0
 74 73  1  0
 75 76  1  0
 75 74  1  0
 76 72  1  0
 77 78  2  0
 78 79  1  0
 80 79  2  0
 81 80  1  0
 82 56  1  0
 82 83  1  0
 82 92  1  0
 83 86  1  0
 84 83  1  0
 84 88  1  0
 85 84  2  0
 88 87  1  0
 88 90  1  0
 90 91  1  0
 90 89  1  0
 92 95  1  1
 92 93  1  0
 94 92  1  0
M  ISO  4  11 100  24 100  54 101  55 101
M  END
>  <TORSDO>  (83) 
F 18

>  <SCORE>  (83) 
-1.813

>  <name>  (83) 
82

>  <ligand_id>  (83) 
82

>  <original_smiles>  (83) 
[H]c1c([H])c([H])c2c(c1[H])C([H])([H])C([H])([H])C([H])([H])C2([H])N([H])C(=O)C1([H])N(C(=O)C([H])(N([H])C(=O)C([H])(N([H])C([H])([H])[H])C([H])([H])[H])C(C([H])([H])[H])(C([H])([H])[H])C([H])([H])[H])C([H])([H])c2c([H])c(OC([H])([H])C([H])([H])C3([H])C([H])([H])c4c([H])c([H])c(C5([H])C([H])([H])C([H])([H])N(C(=O)N6C([H])([H])C([H])([H])C([H])([H])C([H])(n7nc(-c8c([H])c([H])c(Oc9c([H])c([H])c(F)c([H])c9F)c([H])c8[H])c(C(=O)N([H])[H])c7N([H])[H])C6([H])[H])C([H])([H])C5([H])[H])c(C([H])([H])[H])c4C3([H])[H])c([H])c([H])c2C1([H])[H]

>  <smiles>  (83) 
[H]c1c([H])c([H])c2c(c1[H])C([H])([H])C([H])([H])C([H])([H])C2([H])N([H])C(=O)C1([H])N(C(=O)C([H])(N([H])C(=O)C([H])(N([H])C([H])([H])[H])C([H])([H])[H])C(C([H])([H])[H])(C([H])([H])[H])C([H])([H])[H])C([H])([H])c2c([H])c(OC([H])([H])C([H])([H])C3([H])C([H])([H])c4c([H])c([H])c(C5([H])C([H])([H])C([H])([H])N(C(=O)N6C([H])([H])C([H])([H])C([H])([H])C([H])(n7nc(-c8c([H])c([H])c(Oc9c([H])c([H])c(F)c([H])c9F)c([H])c8[H])c(C(=O)N([H])[H])c7N([H])[H])C6([H])[H])C([H])([H])C5([H])[H])c(C([H])([H])[H])c4C3([H])[H])c([H])c([H])c2C1([H])[H]

$$$$
83:0:0
     RDKit          3D

101113  0  0  1  0  0  0  0  0999 V2000
  -30.4910  -21.6750   16.7410 C   0  0  0  0  0  3  0  0  0  0  0  0
  -29.8040  -22.3370   17.7720 C   0  0  0  0  0  0  0  0  0  0  0  0
  -29.6740  -21.7030   19.0500 C   0  0  0  0  0  0  0  0  0  0  0  0
  -30.9690  -20.3810   16.9440 C   0  0  0  0  0  0  0  0  0  0  0  0
  -30.0340  -20.2850   19.0850 C   0  0  0  0  0  0  0  0  0  0  0  0
  -30.7550  -19.7230   18.0900 N   0  0  0  0  0  0  0  0  0  0  0  0
  -30.8360  -14.5460   20.1240 C   0  0  0  0  0  0  0  0  0  0  0  0
  -30.4260  -12.3920   18.9540 C   0  0  0  0  0  2  0  0  0  0  0  0
  -29.4450  -12.6210   17.7870 C   0  0  0  0  0  2  0  0  0  0  0  0
  -27.9910  -12.4880   18.2750 C   0  0  0  0  0  2  0  0  0  0  0  0
  -27.7170  -13.2930   19.5720 C   0  0  0  0  0  3  0  0  0  0  0  0
  -28.8200  -13.0750   20.6310 C   0  0  0  0  0  2  0  0  0  0  0  0
  -30.1120  -13.3840   20.0080 N   0  0  0  0  0  0  0  0  0  0  0  0
  -31.9360  -14.6450   19.5770 O   0  0  0  0  0  0  0  0  0  0  0  0
  -30.4770  -18.9550   21.3580 C   0  0  0  0  0  2  0  0  0  0  0  0
  -29.4710  -17.6830   19.5400 C   0  0  0  0  0  2  0  0  0  0  0  0
  -31.3480  -16.4430   21.6260 C   0  0  0  0  0  2  0  0  0  0  0  0
  -29.5960  -19.1740   20.1080 C   0  0  0  0  0  3  0  0  0  0  0  0
  -30.2470  -17.4900   21.8070 C   0  0  0  0  0  3  0  0  0  0  0  0
  -29.4440  -16.7340   20.7670 C   0  0  0  0  0  3  0  0  0  0  0  0
  -30.3910  -15.5660   20.9360 N   0  0  0  0  0  0  0  0  0  0  0  0
  -25.3600  -13.9010   20.3850 C   0  0  0  0  0  0  0  0  0  0  0  0
  -24.3000  -13.1310   20.7790 C   0  0  0  0  0  0  0  0  0  0  0  0
  -24.7470  -11.7750   20.7130 C   0  0  0  0  0  0  0  0  0  0  0  0
  -26.3860  -13.0160   20.1040 N   0  0  0  0  0  0  0  0  0  0  0  0
  -26.0280  -11.7320   20.3640 N   0  0  0  0  0  0  0  0  0  0  0  0
  -24.0150  -10.5170   20.9080 C   0  0  0  0  0  0  0  0  0  0  0  0
  -24.4250   -9.5610   21.8650 C   0  0  0  0  0  3  0  0  0  0  0  0
  -23.6900   -8.3700   22.0490 C   0  0  0  0  0  3  0  0  0  0  0  0
  -22.5300   -8.1260   21.2750 C   0  0  0  0  0  0  0  0  0  0  0  0
  -22.1420   -9.0680   20.3040 C   0  0  0  0  0  3  0  0  0  0  0  0
  -22.8780  -10.2490   20.1200 C   0  0  0  0  0  3  0  0  0  0  0  0
  -21.7660   -6.9890   21.3670 O   0  0  0  0  0  0  0  0  0  0  0  0
  -21.6500   -6.2940   22.5450 C   0  0  0  0  0  0  0  0  0  0  0  0
  -21.1240   -6.8890   23.7130 C   0  0  0  0  0  3  0  0  0  0  0  0
  -20.9570   -6.1190   24.8800 C   0  0  0  0  0  3  0  0  0  0  0  0
  -21.3060   -4.7550   24.8820 C   0  0  0  0  0  0  0  0  0  0  0  0
  -21.8240   -4.1600   23.7170 C   0  0  0  0  0  3  0  0  0  0  0  0
  -21.9920   -4.9270   22.5510 C   0  0  0  0  0  0  0  0  0  0  0  0
  -22.4710   -4.3440   21.4260 F   0  0  0  0  0  0  0  0  0  0  0  0
  -21.1390   -4.0120   26.0000 F   0  0  0  0  0  0  0  0  0  0  0  0
  -22.9160  -13.6140   21.1050 C   0  0  0  0  0  0  0  0  0  0  0  0
  -22.2150  -12.9160   21.9930 N   0  0  0  0  0  0  0  0  0  0  0  0
  -22.4670  -14.6450   20.6080 O   0  0  0  0  0  0  0  0  0  0  0  0
  -22.5900  -12.0790   22.4160 H   0  0  0  0  0  0  0  0  0  0  0  0
  -21.2880  -13.2230   22.2530 H   0  0  0  0  0  0  0  0  0  0  0  0
  -25.5330  -15.2720   20.2120 N   0  0  0  0  0  0  0  0  0  0  0  0
  -24.7890  -15.9440   20.3680 H   0  0  0  0  0  0  0  0  0  0  0  0
  -26.3820  -15.6940   19.8590 H   0  0  0  0  0  0  0  0  0  0  0  0
  -27.6190  -23.7030   17.2650 C   0  0  0  0  0  2  0  0  0  0  0  0
  -28.4830  -23.8160   16.0400 C   0  0  0  0  0  2  0  0  0  0  0  0
  -29.1310  -23.6360   17.4020 C   0  0  0  0  0  3  0  0  0  0  0  0
  -31.0310  -19.5760   14.4640 C   0  0  0  0  0  2  0  0  0  0  0  0
  -30.9920  -18.3320   15.3130 C   0  0  0  0  0  2  0  0  0  0  0  0
  -31.6340  -19.5940   15.8540 C   0  0  0  0  0  3  0  0  0  0  0  0
  -29.1820  -22.4770   20.1530 N   0  0  0  0  0  0  0  0  0  0  0  0
  -29.0940  -21.9630   21.0240 H   0  0  0  0  0  0  0  0  0  0  0  0
  -30.3180  -24.0480   21.6920 C   0  0  0  0  0  1  0  0  0  0  0  0
  -29.5900  -23.9190   20.3530 C   0  0  0  0  0  3  0  0  0  0  0  0
  -28.4090  -24.9870   20.3010 C   0  0  0  0  0  2  0  0  0  0  0  0
  -28.6470  -26.4400   20.4820 O   0  0  0  0  0  0  0  0  0  0  0  0
  -24.7180  -31.8390   23.2790 C   0  0  0  0  0  0  0  0  0  0  0  0
  -27.5190  -27.2770   20.3910 C   0  0  0  0  0  0  0  0  0  0  0  0
  -23.5960  -30.3740   21.6420 C   0  0  0  0  0  3  0  0  0  0  0  0
  -25.1220  -28.8360   20.2930 C   0  0  0  0  0  0  0  0  0  0  0  0
  -26.1350  -30.7490   21.5250 C   0  0  0  0  0  2  0  0  0  0  0  0
  -26.2650  -29.3590   20.9120 C   0  0  0  0  0  0  0  0  0  0  0  0
  -27.4680  -28.5920   20.9550 C   0  0  0  0  0  3  0  0  0  0  0  0
  -26.3480  -26.8180   19.7440 C   0  0  0  0  0  3  0  0  0  0  0  0
  -25.1650  -27.5690   19.7020 C   0  0  0  0  0  3  0  0  0  0  0  0
  -23.8660  -29.6790   20.2830 C   0  0  0  0  0  2  0  0  0  0  0  0
  -24.8340  -31.0050   22.2050 N   0  0  0  0  0  0  0  0  0  0  0  0
  -23.6120  -32.1020   23.7730 O   0  0  0  0  0  0  0  0  0  0  0  0
  -22.9320  -29.3610   22.6040 C   0  0  0  0  0  0  0  0  0  0  0  0
  -21.6090  -29.1680   22.4600 N   0  0  0  0  0  0  0  0  0  0  0  0
  -23.6050  -28.7510   23.4400 O   0  0  0  0  0  0  0  0  0  0  0  0
  -21.1260  -29.7140   21.7610 H   0  0  0  0  0  0  0  0  0  0  0  0
  -18.2290  -27.9850   22.9590 C   0  0  0  0  0  0  0  0  0  0  0  0
  -20.7860  -28.2340   23.2310 C   0  0  0  0  0  3  0  0  0  0  0  0
  -20.8840  -26.8010   22.6590 C   0  0  0  0  0  2  0  0  0  0  0  0
  -19.7820  -26.4790   21.6450 C   0  0  0  0  0  2  0  0  0  0  0  0
  -18.3990  -26.6330   22.2880 C   0  0  0  0  0  2  0  0  0  0  0  0
  -19.3490  -28.7440   23.3880 C   0  0  0  0  0  0  0  0  0  0  0  0
  -19.1350  -30.0090   23.9760 C   0  0  0  0  0  3  0  0  0  0  0  0
  -17.8320  -30.5150   24.1410 C   0  0  0  0  0  3  0  0  0  0  0  0
  -16.7250  -29.7540   23.7280 C   0  0  0  0  0  3  0  0  0  0  0  0
  -16.9250  -28.4900   23.1430 C   0  0  0  0  0  3  0  0  0  0  0  0
  -25.9660  -32.5170   23.9210 C   0  0  0  0  0  3  0  0  0  0  0  0
  -25.6070  -33.9100   24.2240 N   0  0  0  0  0  0  0  0  0  0  0  0
  -25.9020  -34.9590   23.4460 C   0  0  0  0  0  0  0  0  0  0  0  0
  -26.5770  -34.8610   22.4170 O   0  0  0  0  0  0  0  0  0  0  0  0
  -25.0050  -34.0560   25.0220 H   0  0  0  0  0  0  0  0  0  0  0  0
  -24.1060  -36.6800   23.0600 C   0  0  0  0  0  1  0  0  0  0  0  0
  -25.3650  -36.3390   23.8760 C   0  0  0  0  0  3  0  0  0  0  0  0
  -27.4620  -37.3250   24.6870 C   0  0  0  0  0  1  0  0  0  0  0  0
  -26.3570  -37.4270   23.7360 N   0  0  0  0  0  0  0  0  0  0  0  0
  -25.9160  -38.3350   23.8610 H   0  0  0  0  0  0  0  0  0  0  0  0
  -26.4720  -31.7780   25.2200 C   0  0  1  0  0  0  0  0  0  0  0  0
  -25.3590  -31.5180   26.2610 C   0  0  0  0  0  1  0  0  0  0  0  0
  -27.1080  -30.4150   24.8610 C   0  0  0  0  0  1  0  0  0  0  0  0
  -27.5800  -32.6150   25.9010 C   0  0  0  0  0  1  0  0  0  0  0  0
  1  4  2  0
  1  2  1  0
  2  3  2  0
  3  5  1  0
  3 56  1  0
  4  6  1  0
  6  5  2  0
  7 21  1  0
  8 13  1  0
  9 10  1  0
  9  8  1  0
 11 10  1  0
 11 25  1  0
 11 12  1  0
 13  7  1  0
 13 12  1  0
 14  7  2  0
 16 18  1  0
 17 19  1  0
 18  5  1  0
 18 15  1  0
 19 15  1  0
 20 16  1  0
 20 21  1  0
 20 19  1  0
 21 17  1  0
 22 23  2  0
 23 42  1  0
 24 23  1  0
 24 27  1  0
 25 26  1  0
 25 22  1  0
 26 24  2  0
 27 28  1  0
 28 29  2  0
 30 33  1  0
 30 29  1  0
 31 30  2  0
 32 31  1  0
 32 27  2  0
 33 34  1  0
 34 39  2  0
 34 35  1  0
 35 36  2  0
 36 37  1  0
 37 41  1  0
 38 37  2  0
 39 38  1  0
 40 39  1  0
 42 43  1  0
 43 46  1  0
 43 45  1  0
 44 42  2  0
 47 48  1  0
 47 22  1  0
 49 47  1  0
 50 52  1  0
 51 50  1  0
 51 52  1  0
 52  2  1  0
 53 54  1  0
 53 55  1  0
 54 55  1  0
 55  4  1  0
 56 59  1  0
 56 57  1  0
 59 58  1  0
 60 59  1  0
 60 61  1  0
 62 73  2  0
 63 61  1  0
 63 68  1  0
 64 72  1  0
 64 74  1  0
 65 67  1  0
 66 72  1  0
 67 68  2  0
 67 66  1  0
 69 63  2  0
 70 69  1  0
 70 65  2  0
 71 65  1  0
 71 64  1  0
 72 62  1  0
 74 76  2  0
 75 74  1  0
 77 75  1  0
 78 87  2  0
 78 83  1  0
 79 75  1  0
 79 83  1  0
 80 79  1  0
 81 82  1  0
 81 80  1  0
 82 78  1  0
 83 84  2  0
 84 85  1  0
 86 85  2  0
 87 86  1  0
 88 62  1  0
 88 89  1  0
 88 98  1  0
 89 92  1  0
 90 94  1  0
 90 89  1  0
 91 90  2  0
 94 93  1  0
 96 97  1  0
 96 94  1  0
 96 95  1  0
 98101  1  1
 98 99  1  0
100 98  1  0
M  ISO  4   7 100  21 100  60 101  61 101
M  END
>  <TORSDO>  (84) 
F 21

>  <SCORE>  (84) 
-13.109

>  <name>  (84) 
83

>  <ligand_id>  (84) 
83

>  <original_smiles>  (84) 
[H]c1c([H])c([H])c2c(c1[H])C([H])([H])C([H])([H])C([H])([H])C2([H])N([H])C(=O)C1([H])N(C(=O)C([H])(N([H])C(=O)C([H])(N([H])C([H])([H])[H])C([H])([H])[H])C(C([H])([H])[H])(C([H])([H])[H])C([H])([H])[H])C([H])([H])c2c([H])c(OC([H])([H])C([H])(N([H])c3c(C4([H])C([H])([H])C5([H])N(C(=O)N6C([H])([H])C([H])([H])C([H])([H])C([H])(n7nc(-c8c([H])c([H])c(Oc9c([H])c([H])c(F)c([H])c9F)c([H])c8[H])c(C(=O)N([H])[H])c7N([H])[H])C6([H])[H])C([H])([H])C5([H])C4([H])[H])nc(C4([H])C([H])([H])C4([H])[H])c([H])c3C3([H])C([H])([H])C3([H])[H])C([H])([H])[H])c([H])c([H])c2C1([H])[H]

>  <smiles>  (84) 
[H]c1c([H])c([H])c2c(c1[H])C([H])([H])C([H])([H])C([H])([H])C2([H])N([H])C(=O)C1([H])N(C(=O)C([H])(N([H])C(=O)C([H])(N([H])C([H])([H])[H])C([H])([H])[H])C(C([H])([H])[H])(C([H])([H])[H])C([H])([H])[H])C([H])([H])c2c([H])c(OC([H])([H])C([H])(N([H])c3c(C4([H])C([H])([H])C5([H])N(C(=O)N6C([H])([H])C([H])([H])C([H])([H])C([H])(n7nc(-c8c([H])c([H])c(Oc9c([H])c([H])c(F)c([H])c9F)c([H])c8[H])c(C(=O)N([H])[H])c7N([H])[H])C6([H])[H])C([H])([H])C5([H])C4([H])[H])nc(C4([H])C([H])([H])C4([H])[H])c([H])c3C3([H])C([H])([H])C3([H])[H])C([H])([H])[H])c([H])c([H])c2C1([H])[H]

$$$$
84:0:0
     RDKit          3D

 93101  0  0  1  0  0  0  0  0999 V2000
  -29.3580  -21.9930   19.2560 N   0  0  0  0  0  4  0  0  0  0  0  0
  -28.8890  -21.8570   20.1370 H   0  0  0  0  0  0  0  0  0  0  0  0
  -28.6350  -21.9640   18.5520 H   0  0  0  0  0  0  0  0  0  0  0  0
  -31.1220  -23.6350   20.1890 C   0  0  0  0  0  1  0  0  0  0  0  0
  -29.9130  -23.5020   19.2430 C   0  0  0  0  0  3  0  0  0  0  0  0
  -28.9070  -24.8540   19.4910 C   0  0  0  0  0  2  0  0  0  0  0  0
  -29.2940  -26.3670   19.6830 O   0  0  0  0  0  0  0  0  0  0  0  0
  -26.1130  -31.5170   23.9590 C   0  0  0  0  0  0  0  0  0  0  0  0
  -28.3090  -27.4110   19.8870 C   0  0  0  0  0  0  0  0  0  0  0  0
  -24.8010  -30.6060   22.0820 C   0  0  0  0  0  3  0  0  0  0  0  0
  -26.1170  -29.2880   20.3120 C   0  0  0  0  0  0  0  0  0  0  0  0
  -27.3690  -30.7170   21.9180 C   0  0  0  0  0  2  0  0  0  0  0  0
  -27.3350  -29.5010   20.9710 C   0  0  0  0  0  0  0  0  0  0  0  0
  -28.4330  -28.5850   20.7430 C   0  0  0  0  0  3  0  0  0  0  0  0
  -27.0650  -27.3100   19.2230 C   0  0  0  0  0  3  0  0  0  0  0  0
  -25.9980  -28.2070   19.4270 C   0  0  0  0  0  3  0  0  0  0  0  0
  -24.9630  -30.2400   20.5840 C   0  0  0  0  0  2  0  0  0  0  0  0
  -26.1170  -30.9540   22.7120 N   0  0  0  0  0  0  0  0  0  0  0  0
  -25.0550  -31.7530   24.5630 O   0  0  0  0  0  0  0  0  0  0  0  0
  -24.0550  -29.4610   22.8140 C   0  0  0  0  0  0  0  0  0  0  0  0
  -22.7350  -29.3380   22.5840 N   0  0  0  0  0  0  0  0  0  0  0  0
  -24.6690  -28.6910   23.5570 O   0  0  0  0  0  0  0  0  0  0  0  0
  -22.3010  -30.0040   21.9610 H   0  0  0  0  0  0  0  0  0  0  0  0
  -19.3390  -28.0800   22.6090 C   0  0  0  0  0  0  0  0  0  0  0  0
  -21.8610  -28.3000   23.1410 C   0  0  0  0  0  3  0  0  0  0  0  0
  -22.0270  -26.9580   22.3920 C   0  0  0  0  0  2  0  0  0  0  0  0
  -21.0310  -26.7820   21.2400 C   0  0  0  0  0  2  0  0  0  0  0  0
  -19.5920  -26.8450   21.7630 C   0  0  0  0  0  2  0  0  0  0  0  0
  -20.4070  -28.7720   23.2450 C   0  0  0  0  0  0  0  0  0  0  0  0
  -20.1160  -29.9290   23.9990 C   0  0  0  0  0  3  0  0  0  0  0  0
  -18.7960  -30.3980   24.1250 C   0  0  0  0  0  3  0  0  0  0  0  0
  -17.7430  -29.7030   23.5060 C   0  0  0  0  0  3  0  0  0  0  0  0
  -18.0150  -28.5460   22.7540 C   0  0  0  0  0  3  0  0  0  0  0  0
  -27.4380  -31.9100   24.6800 C   0  0  0  0  0  3  0  0  0  0  0  0
  -27.2570  -33.2530   25.2570 N   0  0  0  0  0  0  0  0  0  0  0  0
  -27.6720  -34.3920   24.6840 C   0  0  0  0  0  0  0  0  0  0  0  0
  -28.3150  -34.4130   23.6320 O   0  0  0  0  0  0  0  0  0  0  0  0
  -26.6940  -33.3120   26.0930 H   0  0  0  0  0  0  0  0  0  0  0  0
  -26.0990  -36.3560   24.7120 C   0  0  0  0  0  1  0  0  0  0  0  0
  -27.3210  -35.7170   25.3910 C   0  0  0  0  0  3  0  0  0  0  0  0
  -29.5450  -36.2690   26.2750 C   0  0  0  0  0  1  0  0  0  0  0  0
  -28.4410  -36.6850   25.4160 N   0  0  0  0  0  0  0  0  0  0  0  0
  -28.1210  -37.5980   25.7280 H   0  0  0  0  0  0  0  0  0  0  0  0
  -27.8580  -30.8850   25.8050 C   0  0  1  0  0  0  0  0  0  0  0  0
  -26.7340  -30.5730   26.8210 C   0  0  0  0  0  1  0  0  0  0  0  0
  -28.3100  -29.5430   25.1840 C   0  0  0  0  0  1  0  0  0  0  0  0
  -29.0740  -31.4340   26.5890 C   0  0  0  0  0  1  0  0  0  0  0  0
  -30.2090  -20.6560   19.0070 C   0  0  0  0  0  2  0  0  0  0  0  0
  -29.4940  -16.6000   20.7640 C   0  0  0  0  0  3  0  0  0  0  0  0
  -30.5160  -16.6320   19.7950 C   0  0  0  0  0  0  0  0  0  0  0  0
  -29.8650  -19.0870   19.4990 C   0  0  0  0  0  0  0  0  0  0  0  0
  -28.7950  -18.8180   20.4150 C   0  0  0  0  0  0  0  0  0  0  0  0
  -28.6490  -17.6160   21.0230 N   0  0  0  0  0  0  0  0  0  0  0  0
  -30.6960  -17.9390   19.2050 N   0  0  0  0  0  0  0  0  0  0  0  0
  -31.4040  -15.2770   19.5920 C   0  0  0  0  0  0  0  0  0  0  0  0
  -31.5060  -12.8020   18.9890 C   0  0  0  0  0  2  0  0  0  0  0  0
  -30.5160  -12.4890   17.8360 C   0  0  0  0  0  2  0  0  0  0  0  0
  -29.0900  -12.2250   18.3660 C   0  0  0  0  0  2  0  0  0  0  0  0
  -28.6660  -13.2600   19.4430 C   0  0  0  0  0  3  0  0  0  0  0  0
  -29.7810  -13.4290   20.4880 C   0  0  0  0  0  2  0  0  0  0  0  0
  -30.9650  -13.9530   19.7800 N   0  0  0  0  0  0  0  0  0  0  0  0
  -32.5460  -15.3930   19.1220 O   0  0  0  0  0  0  0  0  0  0  0  0
  -26.4220  -13.8050   20.5480 C   0  0  0  0  0  0  0  0  0  0  0  0
  -25.3770  -13.0210   20.9480 C   0  0  0  0  0  0  0  0  0  0  0  0
  -25.7730  -11.6720   20.6850 C   0  0  0  0  0  0  0  0  0  0  0  0
  -27.3850  -12.9390   20.0590 N   0  0  0  0  0  0  0  0  0  0  0  0
  -27.0120  -11.6400   20.2040 N   0  0  0  0  0  0  0  0  0  0  0  0
  -25.0220  -10.4170   20.8060 C   0  0  0  0  0  0  0  0  0  0  0  0
  -25.4140   -9.4010   21.7060 C   0  0  0  0  0  3  0  0  0  0  0  0
  -24.6600   -8.2130   21.8140 C   0  0  0  0  0  3  0  0  0  0  0  0
  -23.5030   -8.0300   21.0220 C   0  0  0  0  0  0  0  0  0  0  0  0
  -23.1290   -9.0350   20.1110 C   0  0  0  0  0  3  0  0  0  0  0  0
  -23.8830  -10.2150   20.0000 C   0  0  0  0  0  3  0  0  0  0  0  0
  -22.7260   -6.8980   21.0390 O   0  0  0  0  0  0  0  0  0  0  0  0
  -22.4580   -6.2290   22.2070 C   0  0  0  0  0  0  0  0  0  0  0  0
  -21.8550   -6.8690   23.3130 C   0  0  0  0  0  3  0  0  0  0  0  0
  -21.5360   -6.1280   24.4670 C   0  0  0  0  0  3  0  0  0  0  0  0
  -21.8090   -4.7470   24.5170 C   0  0  0  0  0  0  0  0  0  0  0  0
  -22.4050   -4.1080   23.4160 C   0  0  0  0  0  3  0  0  0  0  0  0
  -22.7260   -4.8460   22.2640 C   0  0  0  0  0  0  0  0  0  0  0  0
  -23.2820   -4.2210   21.1980 F   0  0  0  0  0  0  0  0  0  0  0  0
  -21.4930   -4.0330   25.6230 F   0  0  0  0  0  0  0  0  0  0  0  0
  -24.0480  -13.4980   21.4590 C   0  0  0  0  0  0  0  0  0  0  0  0
  -23.4090  -12.7220   22.3250 N   0  0  0  0  0  0  0  0  0  0  0  0
  -23.5930  -14.5930   21.1260 O   0  0  0  0  0  0  0  0  0  0  0  0
  -23.7940  -11.8340   22.6110 H   0  0  0  0  0  0  0  0  0  0  0  0
  -22.5230  -13.0170   22.7120 H   0  0  0  0  0  0  0  0  0  0  0  0
  -26.6270  -15.1820   20.5360 N   0  0  0  0  0  0  0  0  0  0  0  0
  -25.9310  -15.8340   20.8760 H   0  0  0  0  0  0  0  0  0  0  0  0
  -27.4760  -15.6380   20.2290 H   0  0  0  0  0  0  0  0  0  0  0  0
  -26.6080  -20.1210   19.9270 C   0  0  0  0  0  1  0  0  0  0  0  0
  -28.3320  -20.9900   21.7180 C   0  0  0  0  0  1  0  0  0  0  0  0
  -27.7460  -19.8160   20.9180 C   0  0  0  0  0  3  0  0  0  0  0  0
  1  2  1  0
  3  1  1  0
  5  1  1  0
  5  6  1  0
  5  4  1  0
  6  7  1  0
  7  9  1  0
  8 19  2  0
  9 14  1  0
 10 18  1  0
 10 20  1  0
 11 17  1  0
 11 13  1  0
 12 18  1  0
 13 12  1  0
 14 13  2  0
 15 16  1  0
 15  9  2  0
 16 11  2  0
 17 10  1  0
 18  8  1  0
 20 22  2  0
 21 20  1  0
 23 21  1  0
 24 33  2  0
 24 29  1  0
 25 21  1  0
 25 29  1  0
 26 25  1  0
 27 28  1  0
 27 26  1  0
 28 24  1  0
 29 30  2  0
 30 31  1  0
 32 31  2  0
 33 32  1  0
 34  8  1  0
 34 35  1  0
 34 44  1  0
 35 38  1  0
 36 35  1  0
 36 40  1  0
 37 36  2  0
 40 39  1  0
 40 42  1  0
 42 43  1  0
 42 41  1  0
 44 47  1  1
 44 45  1  0
 46 44  1  0
 48  1  1  0
 48 51  1  0
 49 53  1  0
 50 49  2  0
 51 52  1  0
 52 93  1  0
 52 53  2  0
 54 51  2  0
 54 50  1  0
 55 61  1  0
 55 50  1  0
 56 61  1  0
 57 58  1  0
 57 56  1  0
 59 58  1  0
 59 66  1  0
 59 60  1  0
 61 60  1  0
 62 55  2  0
 63 64  2  0
 64 83  1  0
 65 68  1  0
 65 64  1  0
 66 67  1  0
 66 63  1  0
 67 65  2  0
 68 69  1  0
 69 70  2  0
 71 74  1  0
 71 70  1  0
 72 71  2  0
 73 72  1  0
 73 68  2  0
 74 75  1  0
 75 80  2  0
 75 76  1  0
 76 77  2  0
 77 78  1  0
 78 82  1  0
 79 78  2  0
 80 79  1  0
 81 80  1  0
 83 84  1  0
 84 86  1  0
 84 87  1  0
 85 83  2  0
 88 63  1  0
 88 89  1  0
 90 88  1  0
 91 93  1  0
 93 92  1  0
M  ISO  4   6 101   7 101  50 100  55 100
M  END
>  <TORSDO>  (85) 
F 21

>  <SCORE>  (85) 
-6.761

>  <name>  (85) 
84

>  <ligand_id>  (85) 
84

>  <original_smiles>  (85) 
[H]c1nc(C([H])(C([H])([H])[H])C([H])([H])[H])c(C([H])([H])[N+]([H])([H])C([H])(C([H])([H])[H])C([H])([H])Oc2c([H])c([H])c3c(c2[H])C([H])([H])N(C(=O)C([H])(N([H])C(=O)C([H])(N([H])C([H])([H])[H])C([H])([H])[H])C(C([H])([H])[H])(C([H])([H])[H])C([H])([H])[H])C([H])(C(=O)N([H])C2([H])c4c([H])c([H])c([H])c([H])c4C([H])([H])C([H])([H])C2([H])[H])C3([H])[H])nc1C(=O)N1C([H])([H])C([H])([H])C([H])([H])C([H])(n2nc(-c3c([H])c([H])c(Oc4c([H])c([H])c(F)c([H])c4F)c([H])c3[H])c(C(=O)N([H])[H])c2N([H])[H])C1([H])[H]

>  <smiles>  (85) 
[H]c1nc(C([H])(C([H])([H])[H])C([H])([H])[H])c(C([H])([H])[N+]([H])([H])C([H])(C([H])([H])[H])C([H])([H])Oc2c([H])c([H])c3c(c2[H])C([H])([H])N(C(=O)C([H])(N([H])C(=O)C([H])(N([H])C([H])([H])[H])C([H])([H])[H])C(C([H])([H])[H])(C([H])([H])[H])C([H])([H])[H])C([H])(C(=O)N([H])C2([H])c4c([H])c([H])c([H])c([H])c4C([H])([H])C([H])([H])C2([H])[H])C3([H])[H])nc1C(=O)N1C([H])([H])C([H])([H])C([H])([H])C([H])(n2nc(-c3c([H])c([H])c(Oc4c([H])c([H])c(F)c([H])c4F)c([H])c3[H])c(C(=O)N([H])[H])c2N([H])[H])C1([H])[H]

$$$$
85:0:0
     RDKit          3D

 96106  0  0  1  0  0  0  0  0999 V2000
  -29.5110  -21.7550   21.7120 C   0  0  0  0  0  0  0  0  0  0  0  0
  -29.0960  -23.1210   21.4420 C   0  0  0  0  0  0  0  0  0  0  0  0
  -28.6040  -23.4980   20.1570 C   0  0  0  0  0  0  0  0  0  0  0  0
  -29.3200  -20.7300   20.7210 C   0  0  0  0  0  0  0  0  0  0  0  0
  -28.5400  -22.4080   19.2290 C   0  0  0  0  0  0  0  0  0  0  0  0
  -28.0060  -22.5940   17.8190 C   0  0  0  0  0  1  0  0  0  0  0  0
  -28.8700  -21.1080   19.5020 N   0  0  0  0  0  0  0  0  0  0  0  0
  -30.7370  -14.7280   20.4730 C   0  0  0  0  0  0  0  0  0  0  0  0
  -30.4000  -12.4680   19.4650 C   0  0  0  0  0  2  0  0  0  0  0  0
  -29.4870  -12.4950   18.2260 C   0  0  0  0  0  2  0  0  0  0  0  0
  -28.0210  -12.3160   18.6530 C   0  0  0  0  0  2  0  0  0  0  0  0
  -27.6290  -13.2380   19.8380 C   0  0  0  0  0  3  0  0  0  0  0  0
  -28.6850  -13.2350   20.9680 C   0  0  0  0  0  2  0  0  0  0  0  0
  -29.9700  -13.5840   20.3510 N   0  0  0  0  0  0  0  0  0  0  0  0
  -31.9390  -14.6060   20.2260 O   0  0  0  0  0  0  0  0  0  0  0  0
  -28.5330  -18.0890   20.7250 C   0  0  0  0  0  2  0  0  0  0  0  0
  -30.8000  -18.6110   20.0880 C   0  0  0  0  0  2  0  0  0  0  0  0
  -28.9330  -16.5750   21.0650 C   0  0  0  0  0  2  0  0  0  0  0  0
  -31.2540  -17.1600   20.4770 C   0  0  0  0  0  2  0  0  0  0  0  0
  -29.6440  -19.1680   20.9340 C   0  0  0  0  0  3  0  0  0  0  0  0
  -30.2390  -16.0490   20.5540 N   0  0  0  0  0  0  0  0  0  0  0  0
  -25.2460  -13.8210   20.5720 C   0  0  0  0  0  0  0  0  0  0  0  0
  -24.1770  -13.0440   20.9240 C   0  0  0  0  0  0  0  0  0  0  0  0
  -24.6380  -11.6930   20.8780 C   0  0  0  0  0  0  0  0  0  0  0  0
  -26.2890  -12.9430   20.3300 N   0  0  0  0  0  0  0  0  0  0  0  0
  -25.9310  -11.6570   20.5800 N   0  0  0  0  0  0  0  0  0  0  0  0
  -23.9070  -10.4290   21.0420 C   0  0  0  0  0  0  0  0  0  0  0  0
  -24.3620   -9.4200   21.9190 C   0  0  0  0  0  3  0  0  0  0  0  0
  -23.6290   -8.2240   22.0760 C   0  0  0  0  0  3  0  0  0  0  0  0
  -22.4280   -8.0280   21.3540 C   0  0  0  0  0  0  0  0  0  0  0  0
  -21.9910   -9.0250   20.4650 C   0  0  0  0  0  3  0  0  0  0  0  0
  -22.7240  -10.2130   20.3060 C   0  0  0  0  0  3  0  0  0  0  0  0
  -21.6640   -6.8880   21.4240 O   0  0  0  0  0  0  0  0  0  0  0  0
  -21.6850   -6.0730   22.5280 C   0  0  0  0  0  0  0  0  0  0  0  0
  -21.4010   -6.5640   23.8210 C   0  0  0  0  0  3  0  0  0  0  0  0
  -21.3660   -5.6790   24.9170 C   0  0  0  0  0  3  0  0  0  0  0  0
  -21.6040   -4.3050   24.7230 C   0  0  0  0  0  0  0  0  0  0  0  0
  -21.8820   -3.8150   23.4350 C   0  0  0  0  0  3  0  0  0  0  0  0
  -21.9190   -4.6960   22.3400 C   0  0  0  0  0  0  0  0  0  0  0  0
  -22.1660   -4.2150   21.0980 F   0  0  0  0  0  0  0  0  0  0  0  0
  -21.5630   -3.4540   25.7740 F   0  0  0  0  0  0  0  0  0  0  0  0
  -22.7790  -13.5210   21.1880 C   0  0  0  0  0  0  0  0  0  0  0  0
  -22.0440  -12.8200   22.0440 N   0  0  0  0  0  0  0  0  0  0  0  0
  -22.3470  -14.5520   20.6720 O   0  0  0  0  0  0  0  0  0  0  0  0
  -22.4060  -11.9870   22.4830 H   0  0  0  0  0  0  0  0  0  0  0  0
  -21.1050  -13.1220   22.2640 H   0  0  0  0  0  0  0  0  0  0  0  0
  -25.4100  -15.1930   20.4100 N   0  0  0  0  0  0  0  0  0  0  0  0
  -24.6400  -15.8430   20.5230 H   0  0  0  0  0  0  0  0  0  0  0  0
  -26.2560  -15.6360   20.0760 H   0  0  0  0  0  0  0  0  0  0  0  0
  -31.3410  -22.0760   23.6120 C   0  0  0  0  0  2  0  0  0  0  0  0
  -31.4090  -20.6370   23.2020 C   0  0  0  0  0  2  0  0  0  0  0  0
  -30.0980  -21.3950   23.0620 C   0  0  0  0  0  3  0  0  0  0  0  0
  -27.7350  -24.1760   23.3070 C   0  0  0  0  0  1  0  0  0  0  0  0
  -29.0680  -24.1740   22.5490 C   0  0  0  0  0  2  0  0  0  0  0  0
  -27.8710  -24.8830   19.8080 C   0  0  0  0  0  2  0  0  0  0  0  0
  -28.2430  -26.2900   20.2000 O   0  0  0  0  0  0  0  0  0  0  0  0
  -24.6330  -31.8580   23.2040 C   0  0  0  0  0  0  0  0  0  0  0  0
  -27.1960  -27.2520   20.1120 C   0  0  0  0  0  0  0  0  0  0  0  0
  -23.4280  -30.4880   21.5490 C   0  0  0  0  0  3  0  0  0  0  0  0
  -24.8700  -28.9510   20.1060 C   0  0  0  0  0  0  0  0  0  0  0  0
  -25.9800  -30.7640   21.3920 C   0  0  0  0  0  2  0  0  0  0  0  0
  -26.0470  -29.3910   20.7260 C   0  0  0  0  0  0  0  0  0  0  0  0
  -27.2120  -28.5520   20.7280 C   0  0  0  0  0  3  0  0  0  0  0  0
  -25.9990  -26.9160   19.4290 C   0  0  0  0  0  3  0  0  0  0  0  0
  -24.8530  -27.7200   19.4470 C   0  0  0  0  0  3  0  0  0  0  0  0
  -23.6450  -29.8390   20.1600 C   0  0  0  0  0  2  0  0  0  0  0  0
  -24.7000  -31.0540   22.1030 N   0  0  0  0  0  0  0  0  0  0  0  0
  -23.5480  -32.1410   23.7320 O   0  0  0  0  0  0  0  0  0  0  0  0
  -22.7510  -29.4620   22.4910 C   0  0  0  0  0  0  0  0  0  0  0  0
  -21.4220  -29.3050   22.3650 N   0  0  0  0  0  0  0  0  0  0  0  0
  -23.4210  -28.8140   23.2990 O   0  0  0  0  0  0  0  0  0  0  0  0
  -20.9400  -29.8800   21.6880 H   0  0  0  0  0  0  0  0  0  0  0  0
  -18.0300  -28.1390   22.8480 C   0  0  0  0  0  0  0  0  0  0  0  0
  -20.5900  -28.3700   23.1260 C   0  0  0  0  0  3  0  0  0  0  0  0
  -20.6790  -26.9420   22.5400 C   0  0  0  0  0  2  0  0  0  0  0  0
  -19.5760  -26.6380   21.5210 C   0  0  0  0  0  2  0  0  0  0  0  0
  -18.1940  -26.7930   22.1620 C   0  0  0  0  0  2  0  0  0  0  0  0
  -19.1550  -28.8860   23.2870 C   0  0  0  0  0  0  0  0  0  0  0  0
  -18.9470  -30.1460   23.8890 C   0  0  0  0  0  3  0  0  0  0  0  0
  -17.6470  -30.6590   24.0560 C   0  0  0  0  0  3  0  0  0  0  0  0
  -16.5360  -29.9080   23.6330 C   0  0  0  0  0  3  0  0  0  0  0  0
  -16.7280  -28.6500   23.0350 C   0  0  0  0  0  3  0  0  0  0  0  0
  -25.9160  -32.4760   23.8370 C   0  0  0  0  0  3  0  0  0  0  0  0
  -26.4520  -31.6580   25.0760 C   0  0  1  0  0  0  0  0  0  0  0  0
  -25.3730  -31.3740   26.1470 C   0  0  0  0  0  1  0  0  0  0  0  0
  -27.0360  -30.2990   24.6270 C   0  0  0  0  0  1  0  0  0  0  0  0
  -27.6070  -32.4320   25.7530 C   0  0  0  0  0  1  0  0  0  0  0  0
  -25.5960  -33.8570   24.2280 N   0  0  0  0  0  0  0  0  0  0  0  0
  -25.9060  -34.9440   23.5100 C   0  0  0  0  0  0  0  0  0  0  0  0
  -26.5620  -34.8910   22.4660 O   0  0  0  0  0  0  0  0  0  0  0  0
  -25.0110  -33.9710   25.0430 H   0  0  0  0  0  0  0  0  0  0  0  0
  -24.1490  -36.7280   23.2640 C   0  0  0  0  0  1  0  0  0  0  0  0
  -25.4120  -36.3070   24.0330 C   0  0  0  0  0  3  0  0  0  0  0  0
  -27.5580  -37.1800   24.8460 C   0  0  0  0  0  1  0  0  0  0  0  0
  -26.4290  -37.3770   23.9410 N   0  0  0  0  0  0  0  0  0  0  0  0
  -26.0170  -38.2850   24.1400 H   0  0  0  0  0  0  0  0  0  0  0  0
  1 52  1  0
  2  1  1  0
  2 54  1  0
  3  2  2  0
  4  1  2  0
  5  7  2  0
  5  3  1  0
  6  5  1  0
  7  4  1  0
  8 21  1  0
  9 14  1  0
 10 11  1  0
 10  9  1  0
 12 11  1  0
 12 25  1  0
 12 13  1  0
 14  8  1  0
 14 13  1  0
 15  8  2  0
 16 20  1  0
 16 18  1  0
 17 19  1  0
 17 20  1  0
 19 21  1  0
 20  4  1  0
 21 18  1  0
 22 23  2  0
 23 42  1  0
 24 23  1  0
 24 27  1  0
 25 22  1  0
 25 26  1  0
 26 24  2  0
 27 28  1  0
 28 29  2  0
 30 33  1  0
 30 29  1  0
 31 30  2  0
 32 31  1  0
 32 27  2  0
 33 34  1  0
 34 35  1  0
 35 36  2  0
 37 36  1  0
 37 41  1  0
 38 37  2  0
 39 34  2  0
 39 38  1  0
 40 39  1  0
 42 43  1  0
 43 46  1  0
 43 45  1  0
 44 42  2  0
 47 48  1  0
 47 22  1  0
 49 47  1  0
 51 50  1  0
 52 51  1  0
 52 50  1  0
 54 53  1  0
 55  3  1  0
 55 56  1  0
 57 68  2  0
 58 56  1  0
 58 63  1  0
 59 67  1  0
 59 69  1  0
 60 66  1  0
 60 62  1  0
 61 67  1  0
 62 63  2  0
 62 61  1  0
 64 65  1  0
 64 58  2  0
 65 60  2  0
 66 59  1  0
 67 57  1  0
 69 71  2  0
 70 69  1  0
 72 70  1  0
 73 82  2  0
 73 78  1  0
 74 70  1  0
 74 78  1  0
 75 74  1  0
 76 77  1  0
 76 75  1  0
 77 73  1  0
 78 79  2  0
 79 80  1  0
 81 80  2  0
 82 81  1  0
 83 57  1  0
 83 88  1  0
 83 84  1  0
 84 87  1  1
 84 85  1  0
 86 84  1  0
 88 91  1  0
 89 93  1  0
 89 88  1  0
 90 89  2  0
 93 92  1  0
 95 93  1  0
 95 96  1  0
 95 94  1  0
M  ISO  4   8 100  21 100  55 101  56 101
M  END
>  <TORSDO>  (86) 
F 19

>  <SCORE>  (86) 
-13.097

>  <name>  (86) 
85

>  <ligand_id>  (86) 
85

>  <original_smiles>  (86) 
[H]c1c([H])c([H])c2c(c1[H])C([H])([H])C([H])([H])C([H])([H])C2([H])N([H])C(=O)C1([H])N(C(=O)C([H])(N([H])C(=O)C([H])(N([H])C([H])([H])[H])C([H])([H])[H])C(C([H])([H])[H])(C([H])([H])[H])C([H])([H])[H])C([H])([H])c2c([H])c(OC([H])([H])c3c(C([H])([H])[H])nc(C4([H])C([H])([H])C([H])([H])N(C(=O)N5C([H])([H])C([H])([H])C([H])([H])C([H])(n6nc(-c7c([H])c([H])c(Oc8c([H])c([H])c(F)c([H])c8F)c([H])c7[H])c(C(=O)N([H])[H])c6N([H])[H])C5([H])[H])C([H])([H])C4([H])[H])c(C4([H])C([H])([H])C4([H])[H])c3C([H])([H])C([H])([H])[H])c([H])c([H])c2C1([H])[H]

>  <smiles>  (86) 
[H]c1c([H])c([H])c2c(c1[H])C([H])([H])C([H])([H])C([H])([H])C2([H])N([H])C(=O)C1([H])N(C(=O)C([H])(N([H])C(=O)C([H])(N([H])C([H])([H])[H])C([H])([H])[H])C(C([H])([H])[H])(C([H])([H])[H])C([H])([H])[H])C([H])([H])c2c([H])c(OC([H])([H])c3c(C([H])([H])[H])nc(C4([H])C([H])([H])C([H])([H])N(C(=O)N5C([H])([H])C([H])([H])C([H])([H])C([H])(n6nc(-c7c([H])c([H])c(Oc8c([H])c([H])c(F)c([H])c8F)c([H])c7[H])c(C(=O)N([H])[H])c6N([H])[H])C5([H])[H])C([H])([H])C4([H])[H])c(C4([H])C([H])([H])C4([H])[H])c3C([H])([H])C([H])([H])[H])c([H])c([H])c2C1([H])[H]

$$$$
86:0:0
     RDKit          3D

 93102  0  0  1  0  0  0  0  0999 V2000
  -29.1350  -21.4470   21.9190 C   0  0  0  0  0  3  0  0  0  0  0  0
  -28.7500  -22.6510   21.2560 C   0  0  0  0  0  3  0  0  0  0  0  0
  -29.1140  -21.4350   19.2020 C   0  0  0  0  0  3  0  0  0  0  0  0
  -29.5040  -20.2320   21.2650 C   0  0  0  0  0  0  0  0  0  0  0  0
  -29.5040  -20.0690   19.8540 C   0  0  0  0  0  0  0  0  0  0  0  0
  -28.7180  -22.8040   19.8520 C   0  0  0  0  0  0  0  0  0  0  0  0
  -30.0010  -19.0530   22.1060 C   0  0  0  0  0  2  0  0  0  0  0  0
  -30.2660  -18.5440   19.3310 C   0  0  0  0  0  3  0  0  0  0  0  0
  -31.5890  -18.5990   20.1620 C   0  0  0  0  0  3  0  0  0  0  0  0
  -32.4970  -19.8230   19.8790 C   0  0  0  0  0  1  0  0  0  0  0  0
  -31.2940  -18.4920   21.6240 N   0  0  0  0  0  4  0  0  0  0  0  0
  -31.2660  -17.5140   21.8630 H   0  0  0  0  0  0  0  0  0  0  0  0
  -32.0540  -18.8870   22.1540 H   0  0  0  0  0  0  0  0  0  0  0  0
  -30.6780  -15.5920   19.2780 C   0  0  0  0  0  0  0  0  0  0  0  0
  -30.6630  -13.0620   18.5980 C   0  0  0  0  0  2  0  0  0  0  0  0
  -29.6460  -12.6930   17.4840 C   0  0  0  0  0  2  0  0  0  0  0  0
  -28.2470  -12.4340   18.0700 C   0  0  0  0  0  2  0  0  0  0  0  0
  -27.8810  -13.4760   19.1550 C   0  0  0  0  0  3  0  0  0  0  0  0
  -29.0200  -13.7480   20.1600 C   0  0  0  0  0  2  0  0  0  0  0  0
  -30.1510  -14.2620   19.3710 N   0  0  0  0  0  0  0  0  0  0  0  0
  -31.8620  -15.5810   18.9030 O   0  0  0  0  0  0  0  0  0  0  0  0
  -29.9290  -16.8840   19.4350 N   0  0  0  0  0  0  0  0  0  0  0  0
  -28.9680  -16.7130   19.6920 H   0  0  0  0  0  0  0  0  0  0  0  0
  -25.6740  -14.0740   20.2790 C   0  0  0  0  0  0  0  0  0  0  0  0
  -24.6310  -13.3210   20.7330 C   0  0  0  0  0  0  0  0  0  0  0  0
  -25.0040  -11.9570   20.5160 C   0  0  0  0  0  0  0  0  0  0  0  0
  -26.6190  -13.1770   19.8170 N   0  0  0  0  0  0  0  0  0  0  0  0
  -26.2320  -11.8890   20.0150 N   0  0  0  0  0  0  0  0  0  0  0  0
  -24.2320  -10.7220   20.6920 C   0  0  0  0  0  0  0  0  0  0  0  0
  -24.6440   -9.7210   21.6000 C   0  0  0  0  0  3  0  0  0  0  0  0
  -23.8700   -8.5510   21.7800 C   0  0  0  0  0  3  0  0  0  0  0  0
  -22.6770   -8.3710   21.0410 C   0  0  0  0  0  0  0  0  0  0  0  0
  -22.2860   -9.3600   20.1220 C   0  0  0  0  0  3  0  0  0  0  0  0
  -23.0570  -10.5190   19.9390 C   0  0  0  0  0  3  0  0  0  0  0  0
  -21.8830   -7.2510   21.1230 O   0  0  0  0  0  0  0  0  0  0  0  0
  -21.6690   -6.6050   22.3130 C   0  0  0  0  0  0  0  0  0  0  0  0
  -21.0870   -7.2610   23.4200 C   0  0  0  0  0  3  0  0  0  0  0  0
  -20.8150   -6.5400   24.6020 C   0  0  0  0  0  3  0  0  0  0  0  0
  -21.1160   -5.1680   24.6730 C   0  0  0  0  0  0  0  0  0  0  0  0
  -21.6920   -4.5130   23.5700 C   0  0  0  0  0  3  0  0  0  0  0  0
  -21.9650   -5.2300   22.3900 C   0  0  0  0  0  0  0  0  0  0  0  0
  -22.4960   -4.5880   21.3230 F   0  0  0  0  0  0  0  0  0  0  0  0
  -20.8530   -4.4720   25.8060 F   0  0  0  0  0  0  0  0  0  0  0  0
  -23.3200  -13.8310   21.2490 C   0  0  0  0  0  0  0  0  0  0  0  0
  -22.6910  -13.1090   22.1690 N   0  0  0  0  0  0  0  0  0  0  0  0
  -22.8650  -14.9120   20.8730 O   0  0  0  0  0  0  0  0  0  0  0  0
  -23.0690  -12.2330   22.4980 H   0  0  0  0  0  0  0  0  0  0  0  0
  -21.8100  -13.4340   22.5410 H   0  0  0  0  0  0  0  0  0  0  0  0
  -25.8930  -15.4500   20.1890 N   0  0  0  0  0  0  0  0  0  0  0  0
  -25.1290  -16.1020   20.3260 H   0  0  0  0  0  0  0  0  0  0  0  0
  -26.6720  -15.8610   19.6930 H   0  0  0  0  0  0  0  0  0  0  0  0
  -28.0520  -24.3450   19.2640 C   0  0  0  0  0  2  0  0  0  0  0  0
  -28.1720  -25.9720   19.6690 O   0  0  0  0  0  0  0  0  0  0  0  0
  -24.7410  -31.7680   23.0950 C   0  0  0  0  0  0  0  0  0  0  0  0
  -27.1610  -27.0940   19.6410 C   0  0  0  0  0  0  0  0  0  0  0  0
  -23.4540  -30.4400   21.4660 C   0  0  0  0  0  3  0  0  0  0  0  0
  -24.8290  -28.9610   19.8320 C   0  0  0  0  0  0  0  0  0  0  0  0
  -25.9990  -30.7170   21.1450 C   0  0  0  0  0  2  0  0  0  0  0  0
  -26.0470  -29.3430   20.4080 C   0  0  0  0  0  0  0  0  0  0  0  0
  -27.1950  -28.4300   20.2990 C   0  0  0  0  0  3  0  0  0  0  0  0
  -25.9170  -26.8960   18.9940 C   0  0  0  0  0  3  0  0  0  0  0  0
  -24.7940  -27.7630   19.0960 C   0  0  0  0  0  3  0  0  0  0  0  0
  -23.5970  -29.8490   20.0330 C   0  0  0  0  0  2  0  0  0  0  0  0
  -24.7550  -31.0050   21.9540 N   0  0  0  0  0  0  0  0  0  0  0  0
  -23.6910  -32.0020   23.7150 O   0  0  0  0  0  0  0  0  0  0  0  0
  -22.8580  -29.3720   22.4210 C   0  0  0  0  0  0  0  0  0  0  0  0
  -21.5400  -29.1100   22.3280 N   0  0  0  0  0  0  0  0  0  0  0  0
  -23.5880  -28.7850   23.2220 O   0  0  0  0  0  0  0  0  0  0  0  0
  -20.9970  -29.6390   21.6590 H   0  0  0  0  0  0  0  0  0  0  0  0
  -18.2990  -27.5450   22.7960 C   0  0  0  0  0  0  0  0  0  0  0  0
  -20.8120  -28.0890   23.0910 C   0  0  0  0  0  3  0  0  0  0  0  0
  -21.0750  -26.6760   22.5230 C   0  0  0  0  0  2  0  0  0  0  0  0
  -20.0300  -26.2340   21.4960 C   0  0  0  0  0  2  0  0  0  0  0  0
  -18.6320  -26.2240   22.1200 C   0  0  0  0  0  2  0  0  0  0  0  0
  -19.3210  -28.4280   23.2360 C   0  0  0  0  0  0  0  0  0  0  0  0
  -18.9550  -29.6550   23.8280 C   0  0  0  0  0  3  0  0  0  0  0  0
  -17.6000  -30.0060   23.9830 C   0  0  0  0  0  3  0  0  0  0  0  0
  -16.5930  -29.1230   23.5570 C   0  0  0  0  0  3  0  0  0  0  0  0
  -16.9420  -27.8940   22.9710 C   0  0  0  0  0  3  0  0  0  0  0  0
  -26.0430  -32.4070   23.6690 C   0  0  0  0  0  3  0  0  0  0  0  0
  -25.7340  -33.7870   24.0890 N   0  0  0  0  0  0  0  0  0  0  0  0
  -26.0240  -34.8870   23.3810 C   0  0  0  0  0  0  0  0  0  0  0  0
  -26.6450  -34.8480   22.3150 O   0  0  0  0  0  0  0  0  0  0  0  0
  -25.1830  -33.8890   24.9280 H   0  0  0  0  0  0  0  0  0  0  0  0
  -24.2740  -36.6870   23.2160 C   0  0  0  0  0  1  0  0  0  0  0  0
  -25.5560  -36.2460   23.9410 C   0  0  0  0  0  3  0  0  0  0  0  0
  -27.7190  -37.1100   24.7230 C   0  0  0  0  0  1  0  0  0  0  0  0
  -26.5780  -37.3140   23.8320 N   0  0  0  0  0  0  0  0  0  0  0  0
  -26.1720  -38.2250   24.0320 H   0  0  0  0  0  0  0  0  0  0  0  0
  -26.6480  -31.5930   24.8810 C   0  0  1  0  0  0  0  0  0  0  0  0
  -25.6220  -31.2880   26.0000 C   0  0  0  0  0  1  0  0  0  0  0  0
  -27.2350  -30.2440   24.4110 C   0  0  0  0  0  1  0  0  0  0  0  0
  -27.8180  -32.3830   25.5090 C   0  0  0  0  0  1  0  0  0  0  0  0
  2  1  2  0
  3  6  2  0
  3  5  1  0
  4  1  1  0
  4  7  1  0
  5  4  2  0
  6  2  1  0
  8 22  1  0
  8  5  1  0
  8  9  1  0
  9 10  1  0
  9 11  1  0
 11 12  1  0
 11  7  1  0
 11 13  1  0
 14 20  1  0
 14 22  1  0
 15 20  1  0
 16 17  1  0
 16 15  1  0
 18 17  1  0
 18 27  1  0
 18 19  1  0
 20 19  1  0
 21 14  2  0
 22 23  1  0
 24 25  2  0
 25 44  1  0
 26 29  1  0
 26 25  1  0
 27 28  1  0
 27 24  1  0
 28 26  2  0
 29 30  1  0
 30 31  2  0
 32 35  1  0
 32 31  1  0
 33 32  2  0
 34 33  1  0
 34 29  2  0
 35 36  1  0
 36 41  2  0
 36 37  1  0
 37 38  2  0
 38 39  1  0
 39 43  1  0
 40 39  2  0
 41 40  1  0
 42 41  1  0
 44 45  1  0
 45 47  1  0
 45 48  1  0
 46 44  2  0
 49 24  1  0
 49 50  1  0
 51 49  1  0
 52 53  1  0
 52  6  1  0
 54 65  2  0
 55 53  1  0
 55 60  1  0
 56 64  1  0
 56 66  1  0
 57 63  1  0
 57 59  1  0
 58 64  1  0
 59 58  1  0
 60 59  2  0
 61 62  1  0
 61 55  2  0
 62 57  2  0
 63 56  1  0
 64 54  1  0
 66 68  2  0
 67 66  1  0
 69 67  1  0
 70 79  2  0
 70 75  1  0
 71 67  1  0
 71 75  1  0
 72 71  1  0
 73 74  1  0
 73 72  1  0
 74 70  1  0
 75 76  2  0
 76 77  1  0
 78 77  2  0
 79 78  1  0
 80 54  1  0
 80 81  1  0
 80 90  1  0
 81 84  1  0
 82 86  1  0
 82 81  1  0
 83 82  2  0
 86 85  1  0
 88 86  1  0
 88 89  1  0
 88 87  1  0
 90 93  1  1
 90 91  1  0
 92 90  1  0
M  ISO  4  14 100  22 100  52 101  53 101
M  END
>  <TORSDO>  (87) 
F 17

>  <SCORE>  (87) 
-14.552

>  <name>  (87) 
86

>  <ligand_id>  (87) 
86

>  <original_smiles>  (87) 
[H]c1c([H])c([H])c2c(c1[H])C([H])([H])C([H])([H])C([H])([H])C2([H])N([H])C(=O)C1([H])N(C(=O)C([H])(N([H])C(=O)C([H])(N([H])C([H])([H])[H])C([H])([H])[H])C(C([H])([H])[H])(C([H])([H])[H])C([H])([H])[H])C([H])([H])c2c([H])c(OC([H])([H])c3c([H])c([H])c4c(c3[H])C([H])(N([H])C(=O)N3C([H])([H])C([H])([H])C([H])([H])C([H])(n5nc(-c6c([H])c([H])c(Oc7c([H])c([H])c(F)c([H])c7F)c([H])c6[H])c(C(=O)N([H])[H])c5N([H])[H])C3([H])[H])C([H])(C([H])([H])[H])[N+]([H])([H])C4([H])[H])c([H])c([H])c2C1([H])[H]

>  <smiles>  (87) 
[H]c1c([H])c([H])c2c(c1[H])C([H])([H])C([H])([H])C([H])([H])C2([H])N([H])C(=O)C1([H])N(C(=O)C([H])(N([H])C(=O)C([H])(N([H])C([H])([H])[H])C([H])([H])[H])C(C([H])([H])[H])(C([H])([H])[H])C([H])([H])[H])C([H])([H])c2c([H])c(OC([H])([H])c3c([H])c([H])c4c(c3[H])C([H])(N([H])C(=O)N3C([H])([H])C([H])([H])C([H])([H])C([H])(n5nc(-c6c([H])c([H])c(Oc7c([H])c([H])c(F)c([H])c7F)c([H])c6[H])c(C(=O)N([H])[H])c5N([H])[H])C3([H])[H])C([H])(C([H])([H])[H])[N+]([H])([H])C4([H])[H])c([H])c([H])c2C1([H])[H]

$$$$
87:0:0
     RDKit          3D

 97105  0  0  1  0  0  0  0  0999 V2000
  -20.7120  -25.4750   22.0050 C   0  0  0  0  0  1  0  0  0  0  0  0
  -19.6040  -25.5150   20.0540 C   0  0  0  0  0  3  0  0  0  0  0  0
  -22.4030  -25.0050   21.5860 C   0  0  0  0  0  0  0  0  0  0  0  0
  -21.9720  -24.9650   19.0520 C   0  0  0  0  0  0  0  0  0  0  0  0
  -18.1750  -25.5290   19.3700 C   0  0  0  0  0  1  0  0  0  0  0  0
  -20.5490  -25.2340   18.8760 N   0  0  0  0  0  0  0  0  0  0  0  0
  -22.6630  -24.7780   20.2300 N   0  0  0  0  0  0  0  0  0  0  0  0
  -23.9840  -24.7730   22.0290 N   0  0  0  0  0  0  0  0  0  0  0  0
  -23.9670  -25.3170   22.8930 H   0  0  0  0  0  0  0  0  0  0  0  0
  -26.4140  -24.7680   22.9120 C   0  0  0  0  0  2  0  0  0  0  0  0
  -26.7260  -23.2740   20.8870 C   0  0  0  0  0  2  0  0  0  0  0  0
  -27.3310  -25.0400   21.7300 C   0  0  0  0  0  3  0  0  0  0  0  0
  -28.4240  -23.9200   20.9360 C   0  0  0  0  0  2  0  0  0  0  0  0
  -25.7310  -24.4770   21.6020 C   0  0  1  0  0  0  0  0  0  0  0  0
  -30.5450  -23.6850   20.9360 C   0  0  0  0  0  1  0  0  0  0  0  0
  -33.8610  -22.8130   20.3090 C   0  0  0  0  0  0  0  0  0  0  0  0
  -36.0940  -21.4000   19.4400 C   0  0  0  0  0  2  0  0  0  0  0  0
  -35.9940  -20.6110   18.0850 C   0  0  0  0  0  2  0  0  0  0  0  0
  -35.0540  -19.4010   18.2110 C   0  0  0  0  0  2  0  0  0  0  0  0
  -33.8690  -19.7780   19.1180 C   0  0  0  0  0  3  0  0  0  0  0  0
  -34.3050  -20.3120   20.4690 C   0  0  0  0  0  2  0  0  0  0  0  0
  -34.7000  -21.6320   20.1020 N   0  0  0  0  0  0  0  0  0  0  0  0
  -34.7580  -23.7130   20.3230 O   0  0  0  0  0  0  0  0  0  0  0  0
  -32.2070  -22.9030   20.3840 N   0  0  0  0  0  0  0  0  0  0  0  0
  -31.9310  -21.9510   20.1660 H   0  0  0  0  0  0  0  0  0  0  0  0
  -31.5440  -18.9560   19.4690 C   0  0  0  0  0  0  0  0  0  0  0  0
  -31.0500  -17.7090   19.6920 C   0  0  0  0  0  0  0  0  0  0  0  0
  -32.1820  -16.8380   19.7510 C   0  0  0  0  0  0  0  0  0  0  0  0
  -32.9050  -18.7700   19.3570 N   0  0  0  0  0  0  0  0  0  0  0  0
  -33.3080  -17.5150   19.6260 N   0  0  0  0  0  0  0  0  0  0  0  0
  -32.2630  -15.3840   19.8370 C   0  0  0  0  0  0  0  0  0  0  0  0
  -33.3760  -14.7430   20.4210 C   0  0  0  0  0  3  0  0  0  0  0  0
  -33.4180  -13.3370   20.5060 C   0  0  0  0  0  3  0  0  0  0  0  0
  -32.3420  -12.5660   20.0050 C   0  0  0  0  0  0  0  0  0  0  0  0
  -31.2510  -13.2130   19.3990 C   0  0  0  0  0  3  0  0  0  0  0  0
  -31.2120  -14.6120   19.3090 C   0  0  0  0  0  3  0  0  0  0  0  0
  -32.3030  -11.1940   20.0230 O   0  0  0  0  0  0  0  0  0  0  0  0
  -33.3100  -10.4580   20.5910 C   0  0  0  0  0  0  0  0  0  0  0  0
  -33.8600  -10.7870   21.8490 C   0  0  0  0  0  3  0  0  0  0  0  0
  -34.8420   -9.9600   22.4250 C   0  0  0  0  0  3  0  0  0  0  0  0
  -35.2720   -8.8020   21.7510 C   0  0  0  0  0  0  0  0  0  0  0  0
  -34.7250   -8.4710   20.4980 C   0  0  0  0  0  3  0  0  0  0  0  0
  -33.7430   -9.2970   19.9210 C   0  0  0  0  0  0  0  0  0  0  0  0
  -33.2020   -8.9640   18.7250 F   0  0  0  0  0  0  0  0  0  0  0  0
  -36.2110   -8.0010   22.3060 F   0  0  0  0  0  0  0  0  0  0  0  0
  -29.6040  -17.3360   19.7200 C   0  0  0  0  0  0  0  0  0  0  0  0
  -29.2560  -16.3020   20.4740 N   0  0  0  0  0  0  0  0  0  0  0  0
  -28.7680  -17.9950   19.1010 O   0  0  0  0  0  0  0  0  0  0  0  0
  -29.9490  -15.7780   20.9870 H   0  0  0  0  0  0  0  0  0  0  0  0
  -28.2840  -16.0320   20.5360 H   0  0  0  0  0  0  0  0  0  0  0  0
  -30.9630  -20.2170   19.3160 N   0  0  0  0  0  0  0  0  0  0  0  0
  -29.9470  -20.2070   19.2630 H   0  0  0  0  0  0  0  0  0  0  0  0
  -31.3490  -20.8000   18.5860 H   0  0  0  0  0  0  0  0  0  0  0  0
  -22.5210  -25.5450   16.6580 C   0  0  0  0  0  1  0  0  0  0  0  0
  -23.1800  -25.1960   18.0120 C   0  0  0  0  0  3  0  0  0  0  0  0
  -24.8480  -25.3090   18.4740 C   0  0  0  0  0  2  0  0  0  0  0  0
  -26.2030  -25.4790   17.6780 O   0  0  0  0  0  0  0  0  0  0  0  0
  -24.6660  -30.2980   22.2180 C   0  0  0  0  0  0  0  0  0  0  0  0
  -26.5800  -26.7790   17.6870 C   0  0  0  0  0  0  0  0  0  0  0  0
  -23.4710  -29.8890   20.1290 C   0  0  0  0  0  3  0  0  0  0  0  0
  -24.8130  -28.8180   18.2240 C   0  0  0  0  0  0  0  0  0  0  0  0
  -26.0120  -29.5970   20.2500 C   0  0  0  0  0  2  0  0  0  0  0  0
  -25.8850  -28.6200   19.1020 C   0  0  0  0  0  0  0  0  0  0  0  0
  -26.7690  -27.5280   18.8880 C   0  0  0  0  0  3  0  0  0  0  0  0
  -25.8530  -27.3280   16.6420 C   0  0  0  0  0  3  0  0  0  0  0  0
  -24.8190  -28.1930   16.9820 C   0  0  0  0  0  3  0  0  0  0  0  0
  -23.7150  -29.7800   18.5990 C   0  0  0  0  0  2  0  0  0  0  0  0
  -24.7370  -29.9710   20.9080 N   0  0  0  0  0  0  0  0  0  0  0  0
  -23.5960  -30.6100   22.7580 O   0  0  0  0  0  0  0  0  0  0  0  0
  -22.6450  -28.7260   20.7050 C   0  0  0  0  0  0  0  0  0  0  0  0
  -21.4080  -28.9330   21.0960 N   0  0  0  0  0  0  0  0  0  0  0  0
  -23.1540  -27.6150   20.8630 O   0  0  0  0  0  0  0  0  0  0  0  0
  -21.0540  -29.8760   21.2190 H   0  0  0  0  0  0  0  0  0  0  0  0
  -17.7130  -28.8580   21.9030 C   0  0  0  0  0  0  0  0  0  0  0  0
  -20.4720  -27.7940   21.2540 C   0  0  0  0  0  3  0  0  0  0  0  0
  -20.3800  -27.0830   19.5080 C   0  0  0  0  0  2  0  0  0  0  0  0
  -17.2730  -28.0510   18.6510 C   0  0  0  0  0  1  0  0  0  0  0  0
  -16.7350  -28.6700   20.4280 C   0  0  0  0  0  2  0  0  0  0  0  0
  -19.2010  -28.5330   22.2110 C   0  0  0  0  0  0  0  0  0  0  0  0
  -19.7520  -29.1260   23.4210 C   0  0  0  0  0  3  0  0  0  0  0  0
  -19.0440  -29.9110   24.3590 C   0  0  0  0  0  3  0  0  0  0  0  0
  -17.6770  -30.1390   24.1480 C   0  0  0  0  0  3  0  0  0  0  0  0
  -17.0610  -29.6250   22.9590 C   0  0  0  0  0  3  0  0  0  0  0  0
  -25.9450  -30.2990   23.1060 C   0  0  0  0  0  3  0  0  0  0  0  0
  -25.9250  -29.1910   24.2250 C   0  0  1  0  0  0  0  0  0  0  0  0
  -24.6050  -29.1360   25.0270 C   0  0  0  0  0  1  0  0  0  0  0  0
  -26.1650  -27.7870   23.6200 C   0  0  0  0  0  1  0  0  0  0  0  0
  -27.0840  -29.4450   25.2150 C   0  0  0  0  0  1  0  0  0  0  0  0
  -26.0280  -31.6440   23.6880 N   0  0  0  0  0  0  0  0  0  0  0  0
  -26.8650  -32.5900   23.2610 C   0  0  0  0  0  0  0  0  0  0  0  0
  -27.7200  -32.3930   22.3950 O   0  0  0  0  0  0  0  0  0  0  0  0
  -25.3230  -31.8870   24.3640 H   0  0  0  0  0  0  0  0  0  0  0  0
  -26.0670  -34.9530   22.9240 C   0  0  0  0  0  1  0  0  0  0  0  0
  -26.7380  -33.9850   23.9090 C   0  0  0  0  0  3  0  0  0  0  0  0
  -28.6290  -33.7860   25.4580 C   0  0  0  0  0  1  0  0  0  0  0  0
  -28.0300  -34.5380   24.3600 N   0  0  0  0  0  0  0  0  0  0  0  0
  -27.9210  -35.5030   24.6600 H   0  0  0  0  0  0  0  0  0  0  0  0
  2  5  1  0
  3  1  1  0
  3  8  1  0
  4  7  1  0
  6  4  2  0
  6  2  1  0
  7  3  2  0
  8  9  1  0
 11 13  1  0
 11 14  1  0
 12 13  1  0
 12 10  1  0
 14 12  1  0
 14  8  1  1
 14 10  1  0
 16 23  2  0
 16 24  1  0
 17 22  1  0
 18 19  1  0
 18 17  1  0
 20 19  1  0
 20 29  1  0
 20 21  1  0
 22 16  1  0
 22 21  1  0
 24 15  1  0
 25 24  1  0
 26 27  2  0
 27 46  1  0
 27 28  1  0
 28 31  1  0
 29 26  1  0
 29 30  1  0
 30 28  2  0
 31 32  1  0
 32 33  2  0
 34 37  1  0
 34 33  1  0
 35 34  2  0
 36 35  1  0
 36 31  2  0
 37 38  1  0
 38 39  1  0
 39 40  2  0
 41 45  1  0
 41 40  1  0
 42 41  2  0
 43 42  1  0
 43 38  2  0
 44 43  1  0
 46 47  1  0
 47 50  1  0
 47 49  1  0
 48 46  2  0
 51 26  1  0
 52 51  1  0
 53 51  1  0
 55 54  1  0
 55 56  1  0
 55  4  1  0
 57 59  1  0
 57 56  1  0
 58 69  2  0
 59 64  1  0
 60 67  1  0
 60 70  1  0
 60 68  1  0
 61 67  1  0
 61 63  1  0
 62 68  1  0
 63 62  1  0
 64 63  2  0
 65 66  1  0
 65 59  2  0
 66 61  2  0
 68 58  1  0
 70 72  2  0
 70 71  1  0
 71 73  1  0
 71 75  1  0
 74 79  2  0
 74 83  1  0
 75 79  1  0
 76  2  1  0
 76 75  1  0
 77 78  1  0
 78 74  1  0
 79 80  1  0
 80 81  2  0
 82 81  1  0
 83 82  2  0
 84 58  1  0
 84 89  1  0
 84 85  1  0
 85 86  1  1
 85 88  1  0
 87 85  1  0
 89 92  1  0
 90 89  1  0
 90 94  1  0
 91 90  2  0
 94 93  1  0
 94 96  1  0
 96 97  1  0
 96 95  1  0
M  ISO  4  16 100  24 100  56 101  57 101
M  END
>  <TORSDO>  (88) 
F 20

>  <SCORE>  (88) 
-3.573

>  <name>  (88) 
87

>  <ligand_id>  (88) 
87

>  <original_smiles>  (88) 
[H]c1c(N([H])C23C([H])([H])C([H])(C([H])([H])N([H])C(=O)N4C([H])([H])C([H])([H])C([H])([H])C([H])(n5nc(-c6c([H])c([H])c(Oc7c([H])c([H])c(F)c([H])c7F)c([H])c6[H])c(C(=O)N([H])[H])c5N([H])[H])C4([H])[H])C2([H])C3([H])[H])nc(C([H])(C([H])([H])[H])C([H])([H])Oc2c([H])c([H])c3c(c2[H])C([H])([H])N(C(=O)C([H])(N([H])C(=O)C([H])(N([H])C([H])([H])[H])C([H])([H])[H])C(C([H])([H])[H])(C([H])([H])[H])C([H])([H])[H])C([H])(C(=O)N([H])C2([H])c4c([H])c([H])c([H])c([H])c4C([H])([H])C([H])([H])C2([H])[H])C3([H])[H])nc1C([H])([H])[H]

>  <smiles>  (88) 
[H]c1c(N([H])C23C([H])([H])C([H])(C([H])([H])N([H])C(=O)N4C([H])([H])C([H])([H])C([H])([H])C([H])(n5nc(-c6c([H])c([H])c(Oc7c([H])c([H])c(F)c([H])c7F)c([H])c6[H])c(C(=O)N([H])[H])c5N([H])[H])C4([H])[H])C2([H])C3([H])[H])nc(C([H])(C([H])([H])[H])C([H])([H])Oc2c([H])c([H])c3c(c2[H])C([H])([H])N(C(=O)C([H])(N([H])C(=O)C([H])(N([H])C([H])([H])[H])C([H])([H])[H])C(C([H])([H])[H])(C([H])([H])[H])C([H])([H])[H])C([H])(C(=O)N([H])C2([H])c4c([H])c([H])c([H])c([H])c4C([H])([H])C([H])([H])C2([H])[H])C3([H])[H])nc1C([H])([H])[H]

$$$$
88:0:0
     RDKit          3D

 94 93  0  0  1  0  0  0  0  0999 V2000
  -21.3480  -29.0590   22.2680 C   0  0  0  0  0  2  0  0  0  0  0  0
  -20.7290  -26.7550   20.2920 C   0  0  0  0  0  3  0  0  0  0  0  0
  -20.9880  -28.4360   20.6400 C   0  0  0  0  0  0  0  0  0  0  0  0
  -21.4670  -27.9130   23.6070 C   0  0  0  0  0  3  0  0  0  0  0  0
  -21.0630  -25.4210   21.2780 C   0  0  0  0  0  1  0  0  0  0  0  0
  -20.6210  -29.4290   19.5530 C   0  0  0  0  0  1  0  0  0  0  0  0
  -20.8830  -26.4570   23.1050 N   0  0  0  0  0  1  0  0  0  0  0  0
  -22.8640  -26.6360   25.6180 C   0  0  0  0  0  1  0  0  0  0  0  0
  -23.1210  -27.4130   24.2810 C   0  0  0  0  0  2  0  0  0  0  0  0
  -24.9280  -27.0200   23.4800 C   0  0  0  0  0  1  0  0  0  0  0  0
  -26.0130  -26.6580   22.1200 O   0  0  0  0  0  0  0  0  0  0  0  0
  -24.7520  -32.0720   23.0670 C   0  0  0  0  0  0  0  0  0  0  0  0
  -26.5130  -27.3570   20.9790 C   0  0  0  0  0  3  0  0  0  0  0  0
  -23.7590  -30.6230   21.3310 C   0  0  0  0  0  3  0  0  0  0  0  0
  -25.1530  -29.2710   19.7300 C   0  0  0  0  0  3  0  0  0  0  0  0
  -26.1820  -31.0390   21.2360 C   0  0  0  0  0  2  0  0  0  0  0  0
  -26.2160  -29.6590   20.5700 C   0  0  0  0  0  3  0  0  0  0  0  0
  -27.0210  -28.6570   21.1170 C   0  0  0  0  0  2  0  0  0  0  0  0
  -25.9050  -26.9780   19.7650 C   0  0  0  0  0  2  0  0  0  0  0  0
  -25.0660  -27.9550   19.2120 C   0  0  0  0  0  2  0  0  0  0  0  0
  -23.9450  -30.1730   19.8410 C   0  0  0  0  0  2  0  0  0  0  0  0
  -24.8960  -31.3650   21.8920 N   0  0  0  0  0  0  0  0  0  0  0  0
  -23.6370  -32.2870   23.5830 O   0  0  0  0  0  0  0  0  0  0  0  0
  -23.8340  -29.3950   22.2100 C   0  0  0  0  0  0  0  0  0  0  0  0
  -23.5110  -28.2120   21.6300 N   0  0  0  0  0  0  0  0  0  0  0  0
  -23.8930  -29.5540   23.3970 O   0  0  0  0  0  0  0  0  0  0  0  0
  -23.8410  -28.2210   20.6740 H   0  0  0  0  0  0  0  0  0  0  0  0
  -18.3870  -26.9520   22.7160 C   0  0  0  0  0  0  0  0  0  0  0  0
  -22.4890  -27.0880   21.8110 C   0  0  0  0  0  1  0  0  0  0  0  0
  -22.6530  -25.1620   22.9230 C   0  0  0  0  0 15  0  0  0  0  0  0
  -20.5840  -24.2550   23.2410 C   0  0  0  0  0 15  0  0  0  0  0  0
  -18.8260  -25.2490   22.8170 C   0  0  0  0  0  1  0  0  0  0  0  0
  -19.4330  -27.8670   22.2560 C   0  0  0  0  0  3  0  0  0  0  0  0
  -18.9360  -29.2900   22.8010 C   0  0  0  0  0  3  0  0  0  0  0  0
  -17.7760  -29.8190   23.4240 C   0  0  0  0  0  3  0  0  0  0  0  0
  -16.7480  -28.9130   23.4800 C   0  0  0  0  0  3  0  0  0  0  0  0
  -17.0760  -27.5460   23.1380 C   0  0  0  0  0  3  0  0  0  0  0  0
  -26.0000  -32.5700   23.8330 C   0  0  0  0  0  3  0  0  0  0  0  0
  -26.4600  -31.6900   25.0620 C   0  0  1  0  0  0  0  0  0  0  0  0
  -25.3500  -31.3900   26.0950 C   0  0  0  0  0  1  0  0  0  0  0  0
  -27.0530  -30.3500   24.5780 C   0  0  0  0  0  1  0  0  0  0  0  0
  -27.6050  -32.4230   25.7970 C   0  0  0  0  0  1  0  0  0  0  0  0
  -25.6700  -33.9230   24.2640 N   0  0  0  0  0  0  0  0  0  0  0  0
  -25.9190  -34.9980   23.5140 C   0  0  0  0  0  0  0  0  0  0  0  0
  -26.5400  -34.9400   22.4490 O   0  0  0  0  0  0  0  0  0  0  0  0
  -25.1240  -34.0230   25.1060 H   0  0  0  0  0  0  0  0  0  0  0  0
  -24.1490  -36.7560   23.2590 C   0  0  0  0  0  1  0  0  0  0  0  0
  -25.4110  -36.3490   24.0350 C   0  0  0  0  0  3  0  0  0  0  0  0
  -27.5620  -37.2030   24.8470 C   0  0  0  0  0  1  0  0  0  0  0  0
  -26.4280  -37.4160   23.9490 N   0  0  0  0  0  0  0  0  0  0  0  0
  -26.0190  -38.3210   24.1650 H   0  0  0  0  0  0  0  0  0  0  0  0
  -22.2590  -23.6970   20.8320 N   0  0  0  0  0  1  0  0  0  0  0  0
  -21.9360  -23.5440   19.8820 H   0  0  0  0  0  0  0  0  0  0  0  0
  -28.1000  -17.0610   20.4530 C   0  0  0  0  0  2  0  0  0  0  0  0
  -29.6670  -14.4860   19.5690 C   0  0  0  0  0  2  0  0  0  0  0  0
  -29.3840  -13.2430   18.5600 C   0  0  0  0  0  2  0  0  0  0  0  0
  -28.2120  -12.3780   19.0150 C   0  0  0  0  0  2  0  0  0  0  0  0
  -27.3640  -13.3400   19.8330 C   0  0  0  0  0  3  0  0  0  0  0  0
  -28.0440  -14.1510   20.9580 C   0  0  0  0  0  2  0  0  0  0  0  0
  -28.4360  -15.4240   20.2510 N   0  0  0  0  0  0  0  0  0  0  0  0
  -29.4310  -17.0790   20.3800 O   0  0  0  0  0  1  0  0  0  0  0  0
  -25.5440  -21.6790   20.3270 C   0  0  0  0  0  2  0  0  0  0  0  0
  -26.7860  -20.2620   20.5180 C   0  0  0  0  0  3  0  0  0  0  0  0
  -24.9260  -19.7740   20.7990 C   0  0  0  0  0  1  0  0  0  0  0  0
  -23.8760  -21.9760   20.8870 C   0  0  0  0  0  1  0  0  0  0  0  0
  -26.7320  -18.5860   20.5520 N   0  0  0  0  0  1  0  0  0  0  0  0
  -25.0990  -13.8030   20.5640 C   0  0  0  0  0  0  0  0  0  0  0  0
  -24.0770  -13.0110   20.9480 C   0  0  0  0  0  0  0  0  0  0  0  0
  -24.5700  -11.6690   20.8950 C   0  0  0  0  0  0  0  0  0  0  0  0
  -26.1210  -12.9240   20.3030 N   0  0  0  0  0  0  0  0  0  0  0  0
  -25.8530  -11.6360   20.5670 N   0  0  0  0  0  0  0  0  0  0  0  0
  -23.8670  -10.4090   21.0550 C   0  0  0  0  0  0  0  0  0  0  0  0
  -24.3390   -9.4070   21.9280 C   0  0  0  0  0  3  0  0  0  0  0  0
  -23.6160   -8.2070   22.0770 C   0  0  0  0  0  3  0  0  0  0  0  0
  -22.4160   -8.0100   21.3540 C   0  0  0  0  0  0  0  0  0  0  0  0
  -21.9720   -9.0030   20.4650 C   0  0  0  0  0  3  0  0  0  0  0  0
  -22.6940  -10.1940   20.3110 C   0  0  0  0  0  3  0  0  0  0  0  0
  -21.6550   -6.8720   21.4230 O   0  0  0  0  0  0  0  0  0  0  0  0
  -21.6800   -6.0640   22.5300 C   0  0  0  0  0  0  0  0  0  0  0  0
  -21.3970   -6.5580   23.8210 C   0  0  0  0  0  3  0  0  0  0  0  0
  -21.3640   -5.6760   24.9190 C   0  0  0  0  0  3  0  0  0  0  0  0
  -21.6040   -4.3020   24.7260 C   0  0  0  0  0  0  0  0  0  0  0  0
  -21.8820   -3.8090   23.4390 C   0  0  0  0  0  3  0  0  0  0  0  0
  -21.9180   -4.6880   22.3430 C   0  0  0  0  0  0  0  0  0  0  0  0
  -22.1660   -4.2070   21.1010 F   0  0  0  0  0  0  0  0  0  0  0  0
  -21.5640   -3.4520   25.7780 F   0  0  0  0  0  0  0  0  0  0  0  0
  -22.6920  -13.4920   21.2150 C   0  0  0  0  0  0  0  0  0  0  0  0
  -21.9660  -12.7970   22.0780 N   0  0  0  0  0  0  0  0  0  0  0  0
  -22.2730  -14.5270   20.6980 O   0  0  0  0  0  0  0  0  0  0  0  0
  -22.3280  -11.9630   22.5160 H   0  0  0  0  0  0  0  0  0  0  0  0
  -21.0300  -13.1040   22.3050 H   0  0  0  0  0  0  0  0  0  0  0  0
  -25.2340  -15.1810   20.3750 N   0  0  0  0  0  0  0  0  0  0  0  0
  -24.3840  -15.7360   20.3700 H   0  0  0  0  0  0  0  0  0  0  0  0
  -25.9050  -15.5000   19.6910 H   0  0  0  0  0  0  0  0  0  0  0  0
  1  4  1  0
  2  3  2  0
  2  5  1  0
  3  1  1  0
  4  7  1  0
  4  9  1  0
  6  3  1  0
  9  8  1  0
 11 10  1  0
 12 23  2  0
 13 18  1  0
 13 11  1  0
 14 22  1  0
 14 24  1  0
 15 20  1  0
 15 21  1  0
 15 17  1  0
 16 22  1  0
 17 18  1  0
 17 16  1  0
 19 13  1  0
 20 19  1  0
 21 14  1  0
 22 12  1  0
 24 26  2  0
 25 29  1  0
 25 24  1  0
 27 25  1  0
 28 32  1  0
 28 37  1  0
 33 28  2  0
 33 34  1  0
 34 35  2  0
 35 36  1  0
 37 36  2  0
 38 12  1  0
 38 43  1  0
 38 39  1  0
 39 42  1  1
 39 40  1  0
 41 39  1  0
 43 46  1  0
 44 48  1  0
 44 43  1  0
 45 44  2  0
 48 47  1  0
 50 48  1  0
 50 51  1  0
 50 49  1  0
 53 52  1  0
 55 60  1  0
 56 57  1  0
 56 55  1  0
 58 57  1  0
 58 70  1  0
 58 59  1  0
 60 54  1  0
 60 59  1  0
 61 54  1  0
 62 63  1  0
 62 65  1  0
 63 66  1  0
 63 64  1  0
 67 68  2  0
 68 87  1  0
 69 68  1  0
 69 72  1  0
 70 67  1  0
 70 71  1  0
 71 69  2  0
 72 73  1  0
 73 74  2  0
 75 78  1  0
 75 74  1  0
 76 75  2  0
 77 76  1  0
 77 72  2  0
 78 79  1  0
 79 80  1  0
 80 81  2  0
 82 81  1  0
 82 86  1  0
 83 82  2  0
 84 79  2  0
 84 83  1  0
 85 84  1  0
 87 88  1  0
 88 91  1  0
 88 90  1  0
 89 87  2  0
 92 67  1  0
 93 92  1  0
 94 92  1  0
M  ISO  4  10 101  11 101  54 100  66 100
M  END
>  <TORSDO>  (89) 
F 19

>  <SCORE>  (89) 
7.338

>  <name>  (89) 
88

>  <ligand_id>  (89) 
88

>  <original_smiles>  (89) 
[H]c1c([H])c([H])c2c(c1[H])C([H])([H])C([H])([H])C([H])([H])C2([H])N([H])C(=O)C1([H])N(C(=O)C([H])(N([H])C(=O)C([H])(N([H])C([H])([H])[H])C([H])([H])[H])C(C([H])([H])[H])(C([H])([H])[H])C([H])([H])[H])C([H])([H])c2c([H])c(OC([H])([H])C([H])(c3nc(N([H])C4([H])C([H])([H])N(C(=O)N5C([H])([H])C([H])([H])C([H])([H])C([H])(n6nc(-c7c([H])c([H])c(Oc8c([H])c([H])c(F)c([H])c8F)c([H])c7[H])c(C(=O)N([H])[H])c6N([H])[H])C5([H])[H])C([H])([H])C4([H])[H])c([H])c(C([H])([H])[H])c3[H])C([H])([H])[H])c([H])c([H])c2C1([H])[H]

>  <smiles>  (89) 
[H]c1c([H])c([H])c2c(c1[H])C([H])([H])C([H])([H])C([H])([H])C2([H])N([H])C(=O)C1([H])N(C(=O)C([H])(N([H])C(=O)C([H])(N([H])C([H])([H])[H])C([H])([H])[H])C(C([H])([H])[H])(C([H])([H])[H])C([H])([H])[H])C([H])([H])c2c([H])c(OC([H])([H])C([H])(c3nc(N([H])C4([H])C([H])([H])N(C(=O)N5C([H])([H])C([H])([H])C([H])([H])C([H])(n6nc(-c7c([H])c([H])c(Oc8c([H])c([H])c(F)c([H])c8F)c([H])c7[H])c(C(=O)N([H])[H])c6N([H])[H])C5([H])[H])C([H])([H])C4([H])[H])c([H])c(C([H])([H])[H])c3[H])C([H])([H])[H])c([H])c([H])c2C1([H])[H]

$$$$
89:0:0
     RDKit          3D

 97107  0  0  1  0  0  0  0  0999 V2000
  -29.7440  -23.3440   22.8050 C   0  0  0  0  0  3  0  0  0  0  0  0
  -29.7840  -21.9210   22.8880 C   0  0  0  0  0  0  0  0  0  0  0  0
  -29.1610  -23.7170   21.6240 C   0  0  0  0  0  0  0  0  0  0  0  0
  -29.2570  -21.4380   21.7130 C   0  0  0  0  0  0  0  0  0  0  0  0
  -28.9970  -22.5430   20.8850 N   0  0  0  0  0  0  0  0  0  0  0  0
  -28.2250  -26.0800   22.2130 C   0  0  0  0  0  2  0  0  0  0  0  0
  -28.6250  -25.0640   21.1590 C   0  0  0  0  0  3  0  0  0  0  0  0
  -29.3080  -26.4270   21.2030 C   0  0  0  0  0  3  0  0  0  0  0  0
  -28.9570  -27.2070   20.0370 O   0  0  0  0  0  0  0  0  0  0  0  0
  -24.6860  -31.8620   23.3560 C   0  0  0  0  0  0  0  0  0  0  0  0
  -27.7540  -27.8780   20.0610 C   0  0  0  0  0  0  0  0  0  0  0  0
  -23.6350  -30.4890   21.5840 C   0  0  0  0  0  3  0  0  0  0  0  0
  -25.2430  -29.1720   20.0990 C   0  0  0  0  0  0  0  0  0  0  0  0
  -26.1210  -31.0600   21.4790 C   0  0  0  0  0  2  0  0  0  0  0  0
  -26.3340  -29.7450   20.7640 C   0  0  0  0  0  0  0  0  0  0  0  0
  -27.5910  -29.0970   20.7530 C   0  0  0  0  0  3  0  0  0  0  0  0
  -26.6550  -27.3240   19.3740 C   0  0  0  0  0  3  0  0  0  0  0  0
  -25.3960  -27.9580   19.4040 C   0  0  0  0  0  3  0  0  0  0  0  0
  -23.9320  -29.9230   20.1670 C   0  0  0  0  0  2  0  0  0  0  0  0
  -24.8300  -31.1480   22.2030 N   0  0  0  0  0  0  0  0  0  0  0  0
  -23.5760  -32.0070   23.8870 O   0  0  0  0  0  0  0  0  0  0  0  0
  -23.0390  -29.3580   22.4490 C   0  0  0  0  0  0  0  0  0  0  0  0
  -21.7350  -29.0910   22.2800 N   0  0  0  0  0  0  0  0  0  0  0  0
  -23.7500  -28.7260   23.2370 O   0  0  0  0  0  0  0  0  0  0  0  0
  -21.2180  -29.6590   21.6200 H   0  0  0  0  0  0  0  0  0  0  0  0
  -18.4530  -27.6170   22.6120 C   0  0  0  0  0  0  0  0  0  0  0  0
  -20.9740  -28.0500   22.9740 C   0  0  0  0  0  3  0  0  0  0  0  0
  -21.1960  -26.6660   22.3190 C   0  0  0  0  0  2  0  0  0  0  0  0
  -20.1600  -26.3470   21.2430 C   0  0  0  0  0  2  0  0  0  0  0  0
  -18.7570  -26.3330   21.8550 C   0  0  0  0  0  2  0  0  0  0  0  0
  -19.4980  -28.4340   23.1220 C   0  0  0  0  0  0  0  0  0  0  0  0
  -19.1690  -29.6420   23.7730 C   0  0  0  0  0  3  0  0  0  0  0  0
  -17.8250  -30.0290   23.9310 C   0  0  0  0  0  3  0  0  0  0  0  0
  -16.7940  -29.2040   23.4500 C   0  0  0  0  0  3  0  0  0  0  0  0
  -17.1110  -28.0020   22.7950 C   0  0  0  0  0  3  0  0  0  0  0  0
  -25.9040  -32.5450   24.0520 C   0  0  0  0  0  3  0  0  0  0  0  0
  -26.3720  -31.7960   25.3600 C   0  0  1  0  0  0  0  0  0  0  0  0
  -25.2280  -31.5100   26.3610 C   0  0  0  0  0  1  0  0  0  0  0  0
  -27.0330  -30.4460   25.0020 C   0  0  0  0  0  1  0  0  0  0  0  0
  -27.4500  -32.6310   26.0850 C   0  0  0  0  0  1  0  0  0  0  0  0
  -25.5260  -33.9330   24.3480 N   0  0  0  0  0  0  0  0  0  0  0  0
  -25.8660  -34.9900   23.5960 C   0  0  0  0  0  0  0  0  0  0  0  0
  -26.5950  -34.9000   22.6040 O   0  0  0  0  0  0  0  0  0  0  0  0
  -24.8730  -34.0690   25.1050 H   0  0  0  0  0  0  0  0  0  0  0  0
  -24.0950  -36.7120   23.1210 C   0  0  0  0  0  1  0  0  0  0  0  0
  -25.3050  -36.3640   24.0050 C   0  0  0  0  0  3  0  0  0  0  0  0
  -27.3560  -37.3410   24.9370 C   0  0  0  0  0  1  0  0  0  0  0  0
  -26.3040  -37.4520   23.9300 N   0  0  0  0  0  0  0  0  0  0  0  0
  -25.8600  -38.3600   24.0350 H   0  0  0  0  0  0  0  0  0  0  0  0
  -27.0300  -22.6230   19.3100 C   0  0  0  0  0  1  0  0  0  0  0  0
  -28.5520  -22.4990   19.4920 C   0  0  0  0  0  2  0  0  0  0  0  0
  -30.2030  -21.1260   24.1100 C   0  0  0  0  0  2  0  0  0  0  0  0
  -30.7510  -21.9280   25.0290 F   0  0  0  0  0  0  0  0  0  0  0  0
  -28.7280  -20.0470   21.3870 C   0  0  0  0  0  2  0  0  0  0  0  0
  -31.0330  -14.9140   19.9740 C   0  0  0  0  0  0  0  0  0  0  0  0
  -30.7370  -12.6600   18.9700 C   0  0  0  0  0  2  0  0  0  0  0  0
  -29.7610  -12.7090   17.7790 C   0  0  0  0  0  2  0  0  0  0  0  0
  -28.3140  -12.4920   18.2640 C   0  0  0  0  0  2  0  0  0  0  0  0
  -27.9570  -13.4400   19.4290 C   0  0  0  0  0  3  0  0  0  0  0  0
  -29.0490  -13.4150   20.5340 C   0  0  0  0  0  2  0  0  0  0  0  0
  -30.3450  -13.7290   19.9120 N   0  0  0  0  0  0  0  0  0  0  0  0
  -32.1820  -14.9910   19.5200 O   0  0  0  0  0  0  0  0  0  0  0  0
  -29.2120  -16.5520   19.8340 C   0  0  0  0  0  2  0  0  0  0  0  0
  -31.2880  -17.1060   21.0470 C   0  0  0  0  0  2  0  0  0  0  0  0
  -28.6650  -17.9650   20.1660 C   0  0  0  0  0  2  0  0  0  0  0  0
  -30.5530  -18.3320   21.6690 C   0  0  0  0  0  2  0  0  0  0  0  0
  -30.4300  -16.0380   20.4880 N   0  0  0  0  0  0  0  0  0  0  0  0
  -29.5810  -18.9800   20.7500 N   0  0  2  0  0  4  0  0  0  0  0  0
  -30.1010  -19.4060   19.9960 H   0  0  0  0  0  0  0  0  0  0  0  0
  -25.6210  -14.0830   20.2960 C   0  0  0  0  0  0  0  0  0  0  0  0
  -24.5630  -13.3160   20.7060 C   0  0  0  0  0  0  0  0  0  0  0  0
  -25.0070  -11.9600   20.6250 C   0  0  0  0  0  0  0  0  0  0  0  0
  -26.6330  -13.1880   19.9820 N   0  0  0  0  0  0  0  0  0  0  0  0
  -26.2760  -11.9090   20.2480 N   0  0  0  0  0  0  0  0  0  0  0  0
  -24.2810  -10.7000   20.8170 C   0  0  0  0  0  0  0  0  0  0  0  0
  -24.6870   -9.7560   21.7860 C   0  0  0  0  0  3  0  0  0  0  0  0
  -23.9580   -8.5610   21.9670 C   0  0  0  0  0  3  0  0  0  0  0  0
  -22.8100   -8.3050   21.1780 C   0  0  0  0  0  0  0  0  0  0  0  0
  -22.4250   -9.2400   20.2010 C   0  0  0  0  0  3  0  0  0  0  0  0
  -23.1550  -10.4230   20.0180 C   0  0  0  0  0  3  0  0  0  0  0  0
  -22.0480   -7.1650   21.2690 O   0  0  0  0  0  0  0  0  0  0  0  0
  -21.8640   -6.5150   22.4620 C   0  0  0  0  0  0  0  0  0  0  0  0
  -21.2890   -7.1590   23.5820 C   0  0  0  0  0  3  0  0  0  0  0  0
  -21.0590   -6.4350   24.7670 C   0  0  0  0  0  3  0  0  0  0  0  0
  -21.3950   -5.0720   24.8360 C   0  0  0  0  0  0  0  0  0  0  0  0
  -21.9590   -4.4250   23.7210 C   0  0  0  0  0  3  0  0  0  0  0  0
  -22.1910   -5.1470   22.5370 C   0  0  0  0  0  0  0  0  0  0  0  0
  -22.7210   -4.5190   21.4590 F   0  0  0  0  0  0  0  0  0  0  0  0
  -21.1590   -4.3700   25.9690 F   0  0  0  0  0  0  0  0  0  0  0  0
  -23.1870  -13.7980   21.0590 C   0  0  0  0  0  0  0  0  0  0  0  0
  -22.5150  -13.0940   21.9620 N   0  0  0  0  0  0  0  0  0  0  0  0
  -22.7200  -14.8270   20.5710 O   0  0  0  0  0  0  0  0  0  0  0  0
  -22.9150  -12.2540   22.3580 H   0  0  0  0  0  0  0  0  0  0  0  0
  -21.5970  -13.3860   22.2630 H   0  0  0  0  0  0  0  0  0  0  0  0
  -25.7890  -15.4560   20.1310 N   0  0  0  0  0  0  0  0  0  0  0  0
  -25.0090  -16.0970   20.2360 H   0  0  0  0  0  0  0  0  0  0  0  0
  -26.5780  -15.8620   19.6470 H   0  0  0  0  0  0  0  0  0  0  0  0
  1  2  1  0
  2 52  1  0
  3  1  2  0
  4  2  2  0
  5  3  1  0
  5  4  1  0
  7  8  1  0
  7  3  1  0
  7  6  1  0
  8  9  1  0
  8  6  1  0
  9 11  1  0
 10 21  2  0
 11 16  1  0
 12 20  1  0
 12 22  1  0
 13 19  1  0
 13 15  1  0
 14 20  1  0
 15 14  1  0
 16 15  2  0
 17 18  1  0
 17 11  2  0
 18 13  2  0
 19 12  1  0
 20 10  1  0
 22 24  2  0
 23 22  1  0
 25 23  1  0
 26 35  2  0
 26 31  1  0
 27 23  1  0
 27 31  1  0
 28 27  1  0
 29 30  1  0
 29 28  1  0
 30 26  1  0
 31 32  2  0
 32 33  1  0
 34 33  2  0
 35 34  1  0
 36 10  1  0
 36 41  1  0
 36 37  1  0
 37 40  1  1
 37 38  1  0
 39 37  1  0
 41 44  1  0
 42 46  1  0
 42 41  1  0
 43 42  2  0
 46 45  1  0
 48 46  1  0
 48 49  1  0
 48 47  1  0
 50 51  1  0
 51  5  1  0
 52 53  1  0
 54  4  1  0
 55 67  1  0
 56 61  1  0
 57 58  1  0
 57 56  1  0
 59 58  1  0
 59 73  1  0
 59 60  1  0
 61 55  1  0
 61 60  1  0
 62 55  2  0
 63 65  1  0
 63 67  1  0
 64 66  1  0
 65 68  1  0
 67 64  1  0
 68 54  1  0
 68 66  1  0
 68 69  1  6
 70 71  2  0
 71 90  1  0
 72 71  1  0
 72 75  1  0
 73 74  1  0
 73 70  1  0
 74 72  2  0
 75 76  1  0
 76 77  2  0
 78 81  1  0
 78 77  1  0
 79 78  2  0
 80 79  1  0
 80 75  2  0
 81 82  1  0
 82 87  2  0
 82 83  1  0
 83 84  2  0
 84 85  1  0
 85 89  1  0
 86 85  2  0
 87 86  1  0
 88 87  1  0
 90 91  1  0
 91 94  1  0
 91 93  1  0
 92 90  2  0
 95 96  1  0
 95 70  1  0
 97 95  1  0
M  ISO  4   8 101   9 101  55 100  67 100
M  END
>  <TORSDO>  (90) 
F 20

>  <SCORE>  (90) 
-13.445

>  <name>  (90) 
89

>  <ligand_id>  (90) 
89

>  <original_smiles>  (90) 
[H]c1c([H])c([H])c2c(c1[H])C([H])([H])C([H])([H])C([H])([H])C2([H])N([H])C(=O)C1([H])N(C(=O)C([H])(N([H])C(=O)C([H])(N([H])C([H])([H])[H])C([H])([H])[H])C(C([H])([H])[H])(C([H])([H])[H])C([H])([H])[H])C([H])([H])c2c([H])c(OC3([H])C([H])([H])C3([H])c3c([H])c(C([H])([H])F)c(C([H])([H])[N+]4([H])C([H])([H])C([H])([H])N(C(=O)N5C([H])([H])C([H])([H])C([H])([H])C([H])(n6nc(-c7c([H])c([H])c(Oc8c([H])c([H])c(F)c([H])c8F)c([H])c7[H])c(C(=O)N([H])[H])c6N([H])[H])C5([H])[H])C([H])([H])C4([H])[H])n3C([H])([H])C([H])([H])[H])c([H])c([H])c2C1([H])[H]

>  <smiles>  (90) 
[H]c1c([H])c([H])c2c(c1[H])C([H])([H])C([H])([H])C([H])([H])C2([H])N([H])C(=O)C1([H])N(C(=O)C([H])(N([H])C(=O)C([H])(N([H])C([H])([H])[H])C([H])([H])[H])C(C([H])([H])[H])(C([H])([H])[H])C([H])([H])[H])C([H])([H])c2c([H])c(OC3([H])C([H])([H])C3([H])c3c([H])c(C([H])([H])F)c(C([H])([H])[N+]4([H])C([H])([H])C([H])([H])N(C(=O)N5C([H])([H])C([H])([H])C([H])([H])C([H])(n6nc(-c7c([H])c([H])c(Oc8c([H])c([H])c(F)c([H])c8F)c([H])c7[H])c(C(=O)N([H])[H])c6N([H])[H])C5([H])[H])C([H])([H])C4([H])[H])n3C([H])([H])C([H])([H])[H])c([H])c([H])c2C1([H])[H]

$$$$
90:0:0
     RDKit          3D

 95106  0  0  1  0  0  0  0  0999 V2000
  -29.0110  -22.0390   19.4840 C   0  0  0  0  0  0  0  0  0  0  0  0
  -28.9070  -21.5640   18.1280 C   0  0  0  0  0  0  0  0  0  0  0  0
  -29.1940  -20.9360   20.4470 C   0  0  0  0  0  0  0  0  0  0  0  0
  -29.1980  -19.5220   20.0440 C   0  0  0  0  0  0  0  0  0  0  0  0
  -28.7470  -20.1800   17.8640 C   0  0  0  0  0  0  0  0  0  0  0  0
  -29.4390  -21.2610   21.9090 C   0  0  0  0  0  1  0  0  0  0  0  0
  -28.3530  -19.6410   16.4950 C   0  0  0  0  0  1  0  0  0  0  0  0
  -28.9280  -19.2140   18.7710 N   0  0  0  0  0  0  0  0  0  0  0  0
  -30.7820  -14.8550   20.6940 C   0  0  0  0  0  0  0  0  0  0  0  0
  -30.5660  -12.5550   19.7310 C   0  0  0  0  0  2  0  0  0  0  0  0
  -29.7080  -12.5890   18.4490 C   0  0  0  0  0  2  0  0  0  0  0  0
  -28.2200  -12.4180   18.8040 C   0  0  0  0  0  2  0  0  0  0  0  0
  -27.7810  -13.3520   19.9630 C   0  0  0  0  0  3  0  0  0  0  0  0
  -28.7730  -13.3330   21.1460 C   0  0  0  0  0  2  0  0  0  0  0  0
  -30.0980  -13.6560   20.6140 N   0  0  0  0  0  0  0  0  0  0  0  0
  -31.9820  -14.8630   20.4110 O   0  0  0  0  0  0  0  0  0  0  0  0
  -28.9320  -16.7490   20.5150 C   0  0  0  0  0  2  0  0  0  0  0  0
  -30.8610  -17.4060   20.9200 C   0  0  0  0  0  2  0  0  0  0  0  0
  -29.5080  -18.1770   20.8760 C   0  0  0  0  0  3  0  0  0  0  0  0
  -30.1680  -16.0760   21.0100 N   0  0  0  0  0  0  0  0  0  0  0  0
  -25.3620  -13.9640   20.5380 C   0  0  0  0  0  0  0  0  0  0  0  0
  -24.2750  -13.2030   20.8700 C   0  0  0  0  0  0  0  0  0  0  0  0
  -24.7360  -11.8520   20.9070 C   0  0  0  0  0  0  0  0  0  0  0  0
  -26.4140  -13.0780   20.3890 N   0  0  0  0  0  0  0  0  0  0  0  0
  -26.0410  -11.8030   20.6730 N   0  0  0  0  0  0  0  0  0  0  0  0
  -23.9940  -10.5970   21.0900 C   0  0  0  0  0  0  0  0  0  0  0  0
  -24.3910   -9.6370   22.0460 C   0  0  0  0  0  3  0  0  0  0  0  0
  -23.6510   -8.4480   22.2170 C   0  0  0  0  0  3  0  0  0  0  0  0
  -22.4980   -8.2100   21.4320 C   0  0  0  0  0  0  0  0  0  0  0  0
  -22.1190   -9.1580   20.4660 C   0  0  0  0  0  3  0  0  0  0  0  0
  -22.8590  -10.3400   20.2940 C   0  0  0  0  0  3  0  0  0  0  0  0
  -21.7320   -7.0710   21.5100 O   0  0  0  0  0  0  0  0  0  0  0  0
  -21.6710   -6.3240   22.6590 C   0  0  0  0  0  0  0  0  0  0  0  0
  -21.2180   -6.8700   23.8800 C   0  0  0  0  0  3  0  0  0  0  0  0
  -21.1070   -6.0490   25.0190 C   0  0  0  0  0  3  0  0  0  0  0  0
  -21.4360   -4.6820   24.9390 C   0  0  0  0  0  0  0  0  0  0  0  0
  -21.8800   -4.1360   23.7220 C   0  0  0  0  0  3  0  0  0  0  0  0
  -21.9940   -4.9540   22.5850 C   0  0  0  0  0  0  0  0  0  0  0  0
  -22.4030   -4.4190   21.4100 F   0  0  0  0  0  0  0  0  0  0  0  0
  -21.3200   -3.8910   26.0310 F   0  0  0  0  0  0  0  0  0  0  0  0
  -22.8670  -13.6920   21.0450 C   0  0  0  0  0  0  0  0  0  0  0  0
  -22.0870  -13.0230   21.8860 N   0  0  0  0  0  0  0  0  0  0  0  0
  -22.4650  -14.7020   20.4680 O   0  0  0  0  0  0  0  0  0  0  0  0
  -22.4240  -12.2050   22.3710 H   0  0  0  0  0  0  0  0  0  0  0  0
  -21.1410  -13.3350   22.0480 H   0  0  0  0  0  0  0  0  0  0  0  0
  -25.5360  -15.3260   20.3210 N   0  0  0  0  0  0  0  0  0  0  0  0
  -24.7590  -15.9770   20.3480 H   0  0  0  0  0  0  0  0  0  0  0  0
  -26.3870  -15.7400   19.9670 H   0  0  0  0  0  0  0  0  0  0  0  0
  -30.0450  -22.2010   15.8250 C   0  0  0  0  0  2  0  0  0  0  0  0
  -30.1820  -23.4060   16.7080 C   0  0  0  0  0  2  0  0  0  0  0  0
  -29.0130  -22.4590   16.9100 C   0  0  0  0  0  3  0  0  0  0  0  0
  -28.1850  -24.4990   18.8540 C   0  0  0  0  0  2  0  0  0  0  0  0
  -29.0990  -23.6550   19.7370 C   0  0  0  0  0  3  0  0  0  0  0  0
  -28.1260  -24.8640   20.2800 C   0  0  0  0  0  3  0  0  0  0  0  0
  -28.3850  -26.3680   20.2890 O   0  0  0  0  0  0  0  0  0  0  0  0
  -24.6320  -31.8920   23.2130 C   0  0  0  0  0  0  0  0  0  0  0  0
  -27.2920  -27.2750   20.2150 C   0  0  0  0  0  0  0  0  0  0  0  0
  -23.4540  -30.4650   21.5830 C   0  0  0  0  0  3  0  0  0  0  0  0
  -24.9280  -28.9210   20.1680 C   0  0  0  0  0  0  0  0  0  0  0  0
  -25.9960  -30.7980   21.4040 C   0  0  0  0  0  2  0  0  0  0  0  0
  -26.0960  -29.4110   20.7650 C   0  0  0  0  0  0  0  0  0  0  0  0
  -27.2840  -28.6040   20.7710 C   0  0  0  0  0  3  0  0  0  0  0  0
  -26.0970  -26.8620   19.5880 C   0  0  0  0  0  3  0  0  0  0  0  0
  -24.9360  -27.6560   19.5630 C   0  0  0  0  0  3  0  0  0  0  0  0
  -23.6820  -29.7860   20.2060 C   0  0  0  0  0  2  0  0  0  0  0  0
  -24.7140  -31.0700   22.1220 N   0  0  0  0  0  0  0  0  0  0  0  0
  -23.5430  -32.1580   23.7430 O   0  0  0  0  0  0  0  0  0  0  0  0
  -22.8020  -29.4450   22.5480 C   0  0  0  0  0  0  0  0  0  0  0  0
  -21.4750  -29.2600   22.4340 N   0  0  0  0  0  0  0  0  0  0  0  0
  -23.4890  -28.8250   23.3640 O   0  0  0  0  0  0  0  0  0  0  0  0
  -20.9770  -29.8170   21.7540 H   0  0  0  0  0  0  0  0  0  0  0  0
  -18.1110  -28.0280   22.9580 C   0  0  0  0  0  0  0  0  0  0  0  0
  -20.6680  -28.3150   23.2100 C   0  0  0  0  0  3  0  0  0  0  0  0
  -20.7810  -26.8820   22.6400 C   0  0  0  0  0  2  0  0  0  0  0  0
  -19.6760  -26.5450   21.6330 C   0  0  0  0  0  2  0  0  0  0  0  0
  -18.2970  -26.6790   22.2850 C   0  0  0  0  0  2  0  0  0  0  0  0
  -19.2240  -28.8040   23.3780 C   0  0  0  0  0  0  0  0  0  0  0  0
  -18.9960  -30.0660   23.9680 C   0  0  0  0  0  3  0  0  0  0  0  0
  -17.6880  -30.5550   24.1400 C   0  0  0  0  0  3  0  0  0  0  0  0
  -16.5890  -29.7770   23.7350 C   0  0  0  0  0  3  0  0  0  0  0  0
  -16.8010  -28.5160   23.1510 C   0  0  0  0  0  3  0  0  0  0  0  0
  -25.9010  -32.5510   23.8350 C   0  0  0  0  0  3  0  0  0  0  0  0
  -25.5610  -33.9420   24.1680 N   0  0  0  0  0  0  0  0  0  0  0  0
  -25.8910  -35.0080   23.4260 C   0  0  0  0  0  0  0  0  0  0  0  0
  -26.5820  -34.9230   22.4080 O   0  0  0  0  0  0  0  0  0  0  0  0
  -24.9540  -34.0810   24.9640 H   0  0  0  0  0  0  0  0  0  0  0  0
  -24.1730  -36.8010   23.0210 C   0  0  0  0  0  1  0  0  0  0  0  0
  -25.3730  -36.3840   23.8860 C   0  0  0  0  0  3  0  0  0  0  0  0
  -27.4530  -37.2660   24.8480 C   0  0  0  0  0  1  0  0  0  0  0  0
  -26.4040  -37.4450   23.8480 N   0  0  0  0  0  0  0  0  0  0  0  0
  -25.9830  -38.3590   23.9900 H   0  0  0  0  0  0  0  0  0  0  0  0
  -26.4330  -31.7930   25.1130 C   0  0  1  0  0  0  0  0  0  0  0  0
  -25.3450  -31.5300   26.1800 C   0  0  0  0  0  1  0  0  0  0  0  0
  -27.0490  -30.4290   24.7240 C   0  0  0  0  0  1  0  0  0  0  0  0
  -27.5640  -32.6150   25.7760 C   0  0  0  0  0  1  0  0  0  0  0  0
  1  3  1  0
  2  1  2  0
  3  6  1  0
  4  3  2  0
  5  2  1  0
  5  8  2  0
  7  5  1  0
  8  4  1  0
  9 20  1  0
 10 15  1  0
 11 12  1  0
 11 10  1  0
 13 12  1  0
 13 24  1  0
 13 14  1  0
 15  9  1  0
 15 14  1  0
 16  9  2  0
 17 19  1  0
 17 20  1  0
 18 20  1  0
 19  4  1  0
 19 18  1  0
 21 22  2  0
 22 23  1  0
 22 41  1  0
 23 26  1  0
 24 21  1  0
 24 25  1  0
 25 23  2  0
 26 27  1  0
 27 28  2  0
 29 32  1  0
 29 28  1  0
 30 29  2  0
 31 30  1  0
 31 26  2  0
 32 33  1  0
 33 34  1  0
 34 35  2  0
 36 35  1  0
 36 40  1  0
 37 36  2  0
 38 33  2  0
 38 37  1  0
 39 38  1  0
 41 42  1  0
 42 45  1  0
 42 44  1  0
 43 41  2  0
 46 47  1  0
 46 21  1  0
 48 46  1  0
 49 50  1  0
 49 51  1  0
 50 51  1  0
 51  2  1  0
 52 53  1  0
 52 54  1  0
 53  1  1  0
 53 54  1  0
 54 55  1  0
 56 67  2  0
 57 55  1  0
 57 62  1  0
 58 66  1  0
 58 68  1  0
 59 65  1  0
 59 61  1  0
 60 66  1  0
 61 62  2  0
 61 60  1  0
 63 57  2  0
 64 63  1  0
 64 59  2  0
 65 58  1  0
 66 56  1  0
 68 70  2  0
 69 68  1  0
 71 69  1  0
 72 81  2  0
 72 77  1  0
 73 69  1  0
 73 77  1  0
 74 73  1  0
 75 76  1  0
 75 74  1  0
 76 72  1  0
 77 78  2  0
 78 79  1  0
 80 79  2  0
 81 80  1  0
 82 56  1  0
 82 83  1  0
 82 92  1  0
 83 86  1  0
 84 88  1  0
 84 83  1  0
 85 84  2  0
 88 87  1  0
 90 88  1  0
 90 91  1  0
 90 89  1  0
 92 95  1  1
 92 93  1  0
 94 92  1  0
M  ISO  4   9 100  20 100  54 101  55 101
M  END
>  <TORSDO>  (91) 
F 18

>  <SCORE>  (91) 
-14.867

>  <name>  (91) 
90

>  <ligand_id>  (91) 
90

>  <original_smiles>  (91) 
[H]c1c([H])c([H])c2c(c1[H])C([H])([H])C([H])([H])C([H])([H])C2([H])N([H])C(=O)C1([H])N(C(=O)C([H])(N([H])C(=O)C([H])(N([H])C([H])([H])[H])C([H])([H])[H])C(C([H])([H])[H])(C([H])([H])[H])C([H])([H])[H])C([H])([H])c2c([H])c(OC3([H])C([H])([H])C3([H])c3c(C([H])([H])[H])c(C4([H])C([H])([H])N(C(=O)N5C([H])([H])C([H])([H])C([H])([H])C([H])(n6nc(-c7c([H])c([H])c(Oc8c([H])c([H])c(F)c([H])c8F)c([H])c7[H])c(C(=O)N([H])[H])c6N([H])[H])C5([H])[H])C4([H])[H])nc(C([H])([H])[H])c3C3([H])C([H])([H])C3([H])[H])c([H])c([H])c2C1([H])[H]

>  <smiles>  (91) 
[H]c1c([H])c([H])c2c(c1[H])C([H])([H])C([H])([H])C([H])([H])C2([H])N([H])C(=O)C1([H])N(C(=O)C([H])(N([H])C(=O)C([H])(N([H])C([H])([H])[H])C([H])([H])[H])C(C([H])([H])[H])(C([H])([H])[H])C([H])([H])[H])C([H])([H])c2c([H])c(OC3([H])C([H])([H])C3([H])c3c(C([H])([H])[H])c(C4([H])C([H])([H])N(C(=O)N5C([H])([H])C([H])([H])C([H])([H])C([H])(n6nc(-c7c([H])c([H])c(Oc8c([H])c([H])c(F)c([H])c8F)c([H])c7[H])c(C(=O)N([H])[H])c6N([H])[H])C5([H])[H])C4([H])[H])nc(C([H])([H])[H])c3C3([H])C([H])([H])C3([H])[H])c([H])c([H])c2C1([H])[H]

$$$$
91:0:0
     RDKit          3D

 93102  0  0  1  0  0  0  0  0999 V2000
  -29.2660  -20.6270   20.1840 C   0  0  0  0  0  0  0  0  0  0  0  0
  -30.3550  -21.4890   19.7960 C   0  0  0  0  0  0  0  0  0  0  0  0
  -28.1200  -21.4140   20.6000 C   0  0  0  0  0  0  0  0  0  0  0  0
  -30.2490  -22.9390   19.6600 C   0  0  0  0  0  0  0  0  0  0  0  0
  -27.9960  -22.8600   20.4370 C   0  0  0  0  0  0  0  0  0  0  0  0
  -29.0360  -23.6760   19.8880 C   0  0  0  0  0  0  0  0  0  0  0  0
  -31.7130  -20.8650   19.5100 C   0  0  0  0  0  1  0  0  0  0  0  0
  -26.9550  -20.6600   21.2360 C   0  0  0  0  0  1  0  0  0  0  0  0
  -31.4880  -23.7170   19.2230 C   0  0  0  0  0  1  0  0  0  0  0  0
  -26.6820  -23.5580   20.8090 C   0  0  0  0  0  1  0  0  0  0  0  0
  -29.5860  -18.3000   18.8150 C   0  0  0  0  0  2  0  0  0  0  0  0
  -29.1990  -18.9650   20.1160 C   0  0  0  0  0  3  0  0  0  0  0  0
  -30.2110  -17.6620   20.0370 C   0  0  0  0  0  3  0  0  0  0  0  0
  -30.6680  -15.0240   19.9920 C   0  0  0  0  0  0  0  0  0  0  0  0
  -30.4310  -12.7430   18.9580 C   0  0  0  0  0  2  0  0  0  0  0  0
  -29.4360  -12.8270   17.7750 C   0  0  0  0  0  2  0  0  0  0  0  0
  -27.9840  -12.6560   18.2670 C   0  0  0  0  0  2  0  0  0  0  0  0
  -27.6740  -13.5310   19.5120 C   0  0  0  0  0  3  0  0  0  0  0  0
  -28.7810  -13.4160   20.5800 C   0  0  0  0  0  2  0  0  0  0  0  0
  -30.0420  -13.7930   19.9310 N   0  0  0  0  0  0  0  0  0  0  0  0
  -31.8590  -15.1010   19.6710 O   0  0  0  0  0  0  0  0  0  0  0  0
  -29.8820  -16.1730   20.1690 N   0  0  0  0  0  0  0  0  0  0  0  0
  -28.9030  -15.9700   20.3110 H   0  0  0  0  0  0  0  0  0  0  0  0
  -25.3360  -14.1540   20.3590 C   0  0  0  0  0  0  0  0  0  0  0  0
  -24.2770  -13.3960   20.7650 C   0  0  0  0  0  0  0  0  0  0  0  0
  -24.7160  -12.0370   20.7070 C   0  0  0  0  0  0  0  0  0  0  0  0
  -26.3520  -13.2590   20.0640 N   0  0  0  0  0  0  0  0  0  0  0  0
  -25.9910  -11.9790   20.3430 N   0  0  0  0  0  0  0  0  0  0  0  0
  -23.9770  -10.7860   20.9190 C   0  0  0  0  0  0  0  0  0  0  0  0
  -24.4170   -9.8120   21.8440 C   0  0  0  0  0  3  0  0  0  0  0  0
  -23.6750   -8.6280   22.0420 C   0  0  0  0  0  3  0  0  0  0  0  0
  -22.4800   -8.4080   21.3120 C   0  0  0  0  0  0  0  0  0  0  0  0
  -22.0620   -9.3690   20.3750 C   0  0  0  0  0  3  0  0  0  0  0  0
  -22.8050  -10.5450   20.1750 C   0  0  0  0  0  3  0  0  0  0  0  0
  -21.7070   -7.2770   21.4210 O   0  0  0  0  0  0  0  0  0  0  0  0
  -21.6690   -6.5420   22.5780 C   0  0  0  0  0  0  0  0  0  0  0  0
  -21.2560   -7.1060   23.8050 C   0  0  0  0  0  3  0  0  0  0  0  0
  -21.1630   -6.2970   24.9550 C   0  0  0  0  0  3  0  0  0  0  0  0
  -21.4730   -4.9260   24.8790 C   0  0  0  0  0  0  0  0  0  0  0  0
  -21.8790   -4.3620   23.6580 C   0  0  0  0  0  3  0  0  0  0  0  0
  -21.9740   -5.1680   22.5090 C   0  0  0  0  0  0  0  0  0  0  0  0
  -22.3450   -4.6140   21.3280 F   0  0  0  0  0  0  0  0  0  0  0  0
  -21.3750   -4.1470   25.9820 F   0  0  0  0  0  0  0  0  0  0  0  0
  -22.8970  -13.8940   21.0900 C   0  0  0  0  0  0  0  0  0  0  0  0
  -22.1910  -13.2090   21.9810 N   0  0  0  0  0  0  0  0  0  0  0  0
  -22.4560  -14.9280   20.5880 O   0  0  0  0  0  0  0  0  0  0  0  0
  -22.5600  -12.3710   22.4080 H   0  0  0  0  0  0  0  0  0  0  0  0
  -21.2700  -13.5290   22.2440 H   0  0  0  0  0  0  0  0  0  0  0  0
  -25.5130  -15.5260   20.1920 N   0  0  0  0  0  0  0  0  0  0  0  0
  -24.7620  -16.1840   20.3610 H   0  0  0  0  0  0  0  0  0  0  0  0
  -26.3330  -15.9640   19.7970 H   0  0  0  0  0  0  0  0  0  0  0  0
  -28.7600  -25.1640   19.2760 C   0  0  0  0  0  2  0  0  0  0  0  0
  -28.6700  -26.4900   20.0250 O   0  0  0  0  0  0  0  0  0  0  0  0
  -24.6190  -31.7590   23.0570 C   0  0  0  0  0  0  0  0  0  0  0  0
  -27.5390  -27.3630   19.9230 C   0  0  0  0  0  0  0  0  0  0  0  0
  -23.5380  -30.3450   21.3550 C   0  0  0  0  0  3  0  0  0  0  0  0
  -25.1030  -28.9280   19.9100 C   0  0  0  0  0  0  0  0  0  0  0  0
  -26.0690  -30.7840   21.2500 C   0  0  0  0  0  2  0  0  0  0  0  0
  -26.2370  -29.4270   20.5580 C   0  0  0  0  0  0  0  0  0  0  0  0
  -27.4520  -28.6560   20.5600 C   0  0  0  0  0  3  0  0  0  0  0  0
  -26.3660  -26.9580   19.2390 C   0  0  0  0  0  3  0  0  0  0  0  0
  -25.1760  -27.7030   19.2400 C   0  0  0  0  0  3  0  0  0  0  0  0
  -23.8210  -29.7360   19.9590 C   0  0  0  0  0  2  0  0  0  0  0  0
  -24.7600  -30.9820   21.9420 N   0  0  0  0  0  0  0  0  0  0  0  0
  -23.5080  -31.9570   23.5710 O   0  0  0  0  0  0  0  0  0  0  0  0
  -22.9120  -29.2590   22.2660 C   0  0  0  0  0  0  0  0  0  0  0  0
  -21.5910  -29.0430   22.1380 N   0  0  0  0  0  0  0  0  0  0  0  0
  -23.6150  -28.6190   23.0520 O   0  0  0  0  0  0  0  0  0  0  0  0
  -21.0770  -29.6170   21.4850 H   0  0  0  0  0  0  0  0  0  0  0  0
  -18.2520  -27.7410   22.6580 C   0  0  0  0  0  0  0  0  0  0  0  0
  -20.8120  -28.0420   22.8720 C   0  0  0  0  0  3  0  0  0  0  0  0
  -20.9260  -26.6490   22.2080 C   0  0  0  0  0  2  0  0  0  0  0  0
  -19.8020  -26.3650   21.2060 C   0  0  0  0  0  2  0  0  0  0  0  0
  -18.4360  -26.4410   21.8930 C   0  0  0  0  0  2  0  0  0  0  0  0
  -19.3670  -28.5010   23.1020 C   0  0  0  0  0  0  0  0  0  0  0  0
  -19.1370  -29.7200   23.7780 C   0  0  0  0  0  3  0  0  0  0  0  0
  -17.8280  -30.1790   24.0100 C   0  0  0  0  0  3  0  0  0  0  0  0
  -16.7290  -29.4170   23.5770 C   0  0  0  0  0  3  0  0  0  0  0  0
  -16.9420  -28.1980   22.9080 C   0  0  0  0  0  3  0  0  0  0  0  0
  -25.8440  -32.4520   23.7260 C   0  0  0  0  0  3  0  0  0  0  0  0
  -25.4480  -33.8260   24.0670 N   0  0  0  0  0  0  0  0  0  0  0  0
  -25.7290  -34.9080   23.3280 C   0  0  0  0  0  0  0  0  0  0  0  0
  -26.4180  -34.8570   22.3050 O   0  0  0  0  0  0  0  0  0  0  0  0
  -24.8390  -33.9360   24.8630 H   0  0  0  0  0  0  0  0  0  0  0  0
  -23.8940  -36.5960   22.9840 C   0  0  0  0  0  1  0  0  0  0  0  0
  -25.1540  -36.2600   23.7970 C   0  0  0  0  0  3  0  0  0  0  0  0
  -27.2220  -37.2680   24.6550 C   0  0  0  0  0  1  0  0  0  0  0  0
  -26.1200  -37.3770   23.7030 N   0  0  0  0  0  0  0  0  0  0  0  0
  -25.6560  -38.2670   23.8630 H   0  0  0  0  0  0  0  0  0  0  0  0
  -26.3620  -31.6930   25.0110 C   0  0  1  0  0  0  0  0  0  0  0  0
  -25.2490  -31.3810   26.0390 C   0  0  0  0  0  1  0  0  0  0  0  0
  -27.0350  -30.3550   24.6250 C   0  0  0  0  0  1  0  0  0  0  0  0
  -27.4400  -32.5420   25.7250 C   0  0  0  0  0  1  0  0  0  0  0  0
  1  3  1  0
  2  1  2  0
  3  8  1  0
  4  2  1  0
  4  6  2  0
  5  3  2  0
  5 10  1  0
  6  5  1  0
  7  2  1  0
  9  4  1  0
 11 13  1  0
 11 12  1  0
 12  1  1  0
 13 12  1  0
 13 22  1  0
 14 22  1  0
 15 20  1  0
 16 17  1  0
 16 15  1  0
 18 17  1  0
 18 27  1  0
 18 19  1  0
 20 14  1  0
 20 19  1  0
 21 14  2  0
 22 23  1  0
 24 25  2  0
 25 44  1  0
 26 25  1  0
 26 29  1  0
 27 28  1  0
 27 24  1  0
 28 26  2  0
 29 30  1  0
 30 31  2  0
 32 35  1  0
 32 31  1  0
 33 32  2  0
 34 33  1  0
 34 29  2  0
 35 36  1  0
 36 37  1  0
 37 38  2  0
 39 38  1  0
 39 43  1  0
 40 39  2  0
 41 36  2  0
 41 40  1  0
 42 41  1  0
 44 45  1  0
 45 48  1  0
 45 47  1  0
 46 44  2  0
 49 24  1  0
 49 50  1  0
 51 49  1  0
 52  6  1  0
 52 53  1  0
 54 65  2  0
 55 53  1  0
 55 60  1  0
 56 64  1  0
 56 66  1  0
 57 63  1  0
 57 59  1  0
 58 64  1  0
 59 60  2  0
 59 58  1  0
 61 62  1  0
 61 55  2  0
 62 57  2  0
 63 56  1  0
 64 54  1  0
 66 68  2  0
 67 66  1  0
 69 67  1  0
 70 79  2  0
 70 75  1  0
 71 67  1  0
 71 75  1  0
 72 71  1  0
 73 74  1  0
 73 72  1  0
 74 70  1  0
 75 76  2  0
 76 77  1  0
 78 77  2  0
 79 78  1  0
 80 54  1  0
 80 81  1  0
 80 90  1  0
 81 84  1  0
 82 86  1  0
 82 81  1  0
 83 82  2  0
 86 85  1  0
 88 86  1  0
 88 89  1  0
 88 87  1  0
 90 93  1  1
 90 91  1  0
 92 90  1  0
M  ISO  4  14 100  22 100  52 101  53 101
M  END
>  <TORSDO>  (92) 
F 18

>  <SCORE>  (92) 
-12.006

>  <name>  (92) 
91

>  <ligand_id>  (92) 
91

>  <original_smiles>  (92) 
[H]c1c([H])c([H])c2c(c1[H])C([H])([H])C([H])([H])C([H])([H])C2([H])N([H])C(=O)C1([H])N(C(=O)C([H])(N([H])C(=O)C([H])(N([H])C([H])([H])[H])C([H])([H])[H])C(C([H])([H])[H])(C([H])([H])[H])C([H])([H])[H])C([H])([H])c2c([H])c(OC([H])([H])c3c(C([H])([H])[H])c(C([H])([H])[H])c(C4([H])C([H])([H])C4([H])N([H])C(=O)N4C([H])([H])C([H])([H])C([H])([H])C([H])(n5nc(-c6c([H])c([H])c(Oc7c([H])c([H])c(F)c([H])c7F)c([H])c6[H])c(C(=O)N([H])[H])c5N([H])[H])C4([H])[H])c(C([H])([H])[H])c3C([H])([H])[H])c([H])c([H])c2C1([H])[H]

>  <smiles>  (92) 
[H]c1c([H])c([H])c2c(c1[H])C([H])([H])C([H])([H])C([H])([H])C2([H])N([H])C(=O)C1([H])N(C(=O)C([H])(N([H])C(=O)C([H])(N([H])C([H])([H])[H])C([H])([H])[H])C(C([H])([H])[H])(C([H])([H])[H])C([H])([H])[H])C([H])([H])c2c([H])c(OC([H])([H])c3c(C([H])([H])[H])c(C([H])([H])[H])c(C4([H])C([H])([H])C4([H])N([H])C(=O)N4C([H])([H])C([H])([H])C([H])([H])C([H])(n5nc(-c6c([H])c([H])c(Oc7c([H])c([H])c(F)c([H])c7F)c([H])c6[H])c(C(=O)N([H])[H])c5N([H])[H])C4([H])[H])c(C([H])([H])[H])c3C([H])([H])[H])c([H])c([H])c2C1([H])[H]

$$$$
92:0:0
     RDKit          3D

 95104  0  0  1  0  0  0  0  0999 V2000
  -30.1010  -20.4410   21.2060 C   0  0  0  0  0  0  0  0  0  0  0  0
  -29.2980  -21.3760   22.0980 C   0  0  0  0  0  2  0  0  0  0  0  0
  -30.6420  -21.0980   19.9280 C   0  0  0  0  0  2  0  0  0  0  0  0
  -29.4090  -22.8760   21.7360 C   0  0  0  0  0  3  0  0  0  0  0  0
  -29.0150  -23.1270   20.2540 C   0  0  0  0  0  3  0  0  0  0  0  0
  -29.6900  -22.1180   19.2390 C   0  0  1  0  0  0  0  0  0  0  0  0
  -30.7470  -23.5170   22.1690 C   0  0  0  0  0  1  0  0  0  0  0  0
  -30.5360  -22.8210   18.1480 C   0  0  0  0  0  1  0  0  0  0  0  0
  -28.5780  -21.3330   18.5020 C   0  0  0  0  0  1  0  0  0  0  0  0
  -30.2820  -19.2240   21.5680 N   0  0  0  0  0  0  0  0  0  0  0  0
  -30.6470  -14.5450   20.0910 C   0  0  0  0  0  0  0  0  0  0  0  0
  -30.2490  -12.4350   18.8810 C   0  0  0  0  0  2  0  0  0  0  0  0
  -29.2260  -12.6590   17.7500 C   0  0  0  0  0  2  0  0  0  0  0  0
  -27.7870  -12.4910   18.2750 C   0  0  0  0  0  2  0  0  0  0  0  0
  -27.5270  -13.2970   19.5740 C   0  0  0  0  0  3  0  0  0  0  0  0
  -28.6580  -13.0770   20.6060 C   0  0  0  0  0  2  0  0  0  0  0  0
  -29.9410  -13.3900   19.9550 N   0  0  0  0  0  0  0  0  0  0  0  0
  -31.7140  -14.7530   19.5060 O   0  0  0  0  0  0  0  0  0  0  0  0
  -30.2340  -17.6790   19.6330 C   0  0  0  0  0  2  0  0  0  0  0  0
  -31.7000  -17.2050   21.6640 C   0  0  0  0  0  2  0  0  0  0  0  0
  -29.3000  -16.5620   20.1400 C   0  0  0  0  0  2  0  0  0  0  0  0
  -30.7230  -16.0610   22.0240 C   0  0  0  0  0  2  0  0  0  0  0  0
  -31.0810  -18.3040   20.7670 C   0  0  0  0  0  3  0  0  0  0  0  0
  -30.0620  -15.5140   20.8300 N   0  0  0  0  0  0  0  0  0  0  0  0
  -25.1790  -13.8640   20.4600 C   0  0  0  0  0  0  0  0  0  0  0  0
  -24.1450  -13.0700   20.8770 C   0  0  0  0  0  0  0  0  0  0  0  0
  -24.6160  -11.7250   20.7810 C   0  0  0  0  0  0  0  0  0  0  0  0
  -26.2140  -12.9990   20.1370 N   0  0  0  0  0  0  0  0  0  0  0  0
  -25.8820  -11.7070   20.3860 N   0  0  0  0  0  0  0  0  0  0  0  0
  -23.9180  -10.4510   20.9820 C   0  0  0  0  0  0  0  0  0  0  0  0
  -24.3860   -9.4910   21.9080 C   0  0  0  0  0  3  0  0  0  0  0  0
  -23.6860   -8.2790   22.0980 C   0  0  0  0  0  3  0  0  0  0  0  0
  -22.5060   -8.0190   21.3630 C   0  0  0  0  0  0  0  0  0  0  0  0
  -22.0580   -8.9670   20.4270 C   0  0  0  0  0  3  0  0  0  0  0  0
  -22.7580  -10.1710   20.2340 C   0  0  0  0  0  3  0  0  0  0  0  0
  -21.7740   -6.8600   21.4630 O   0  0  0  0  0  0  0  0  0  0  0  0
  -21.7300   -6.1370   22.6280 C   0  0  0  0  0  0  0  0  0  0  0  0
  -21.2360   -6.6900   23.8310 C   0  0  0  0  0  3  0  0  0  0  0  0
  -21.1440   -5.8890   24.9870 C   0  0  0  0  0  3  0  0  0  0  0  0
  -21.5340   -4.5370   24.9420 C   0  0  0  0  0  0  0  0  0  0  0  0
  -22.0220   -3.9860   23.7440 C   0  0  0  0  0  3  0  0  0  0  0  0
  -22.1170   -4.7820   22.5910 C   0  0  0  0  0  0  0  0  0  0  0  0
  -22.5680   -4.2390   21.4340 F   0  0  0  0  0  0  0  0  0  0  0  0
  -21.4390   -3.7660   26.0500 F   0  0  0  0  0  0  0  0  0  0  0  0
  -22.7640  -13.5230   21.2550 C   0  0  0  0  0  0  0  0  0  0  0  0
  -22.0980  -12.7850   22.1350 N   0  0  0  0  0  0  0  0  0  0  0  0
  -22.2890  -14.5640   20.8060 O   0  0  0  0  0  0  0  0  0  0  0  0
  -22.4960  -11.9390   22.5160 H   0  0  0  0  0  0  0  0  0  0  0  0
  -21.1740  -13.0690   22.4330 H   0  0  0  0  0  0  0  0  0  0  0  0
  -25.3180  -15.2400   20.3100 N   0  0  0  0  0  0  0  0  0  0  0  0
  -24.5580  -15.8860   20.4960 H   0  0  0  0  0  0  0  0  0  0  0  0
  -26.1480  -15.7010   19.9590 H   0  0  0  0  0  0  0  0  0  0  0  0
  -29.0650  -24.6240   19.8270 C   0  0  0  0  0  2  0  0  0  0  0  0
  -28.1830  -25.5780   20.6500 C   0  0  0  0  0  2  0  0  0  0  0  0
  -28.2510  -26.8900   20.0800 O   0  0  0  0  0  0  0  0  0  0  0  0
  -24.5450  -31.9920   23.3440 C   0  0  0  0  0  0  0  0  0  0  0  0
  -27.0820  -27.6100   20.1240 C   0  0  0  0  0  0  0  0  0  0  0  0
  -23.2840  -30.6170   21.7180 C   0  0  0  0  0  3  0  0  0  0  0  0
  -24.6890  -29.1010   20.2240 C   0  0  0  0  0  0  0  0  0  0  0  0
  -25.7990  -30.9850   21.4390 C   0  0  0  0  0  2  0  0  0  0  0  0
  -25.8630  -29.6250   20.7790 C   0  0  0  0  0  0  0  0  0  0  0  0
  -27.0660  -28.8860   20.7230 C   0  0  0  0  0  3  0  0  0  0  0  0
  -25.8950  -27.0970   19.5560 C   0  0  0  0  0  3  0  0  0  0  0  0
  -24.6990  -27.8360   19.6090 C   0  0  0  0  0  3  0  0  0  0  0  0
  -23.4450  -29.9560   20.3230 C   0  0  0  0  0  2  0  0  0  0  0  0
  -24.5630  -31.2110   22.2260 N   0  0  0  0  0  0  0  0  0  0  0  0
  -23.4820  -32.2560   23.9220 O   0  0  0  0  0  0  0  0  0  0  0  0
  -22.6600  -29.5850   22.6830 C   0  0  0  0  0  0  0  0  0  0  0  0
  -21.3460  -29.3520   22.5420 N   0  0  0  0  0  0  0  0  0  0  0  0
  -23.3580  -28.9930   23.5130 O   0  0  0  0  0  0  0  0  0  0  0  0
  -20.8430  -29.8810   21.8430 H   0  0  0  0  0  0  0  0  0  0  0  0
  -18.0240  -27.9980   22.9720 C   0  0  0  0  0  0  0  0  0  0  0  0
  -20.5550  -28.3940   23.3140 C   0  0  0  0  0  3  0  0  0  0  0  0
  -20.7490  -26.9560   22.7790 C   0  0  0  0  0  2  0  0  0  0  0  0
  -19.6960  -26.5510   21.7410 C   0  0  0  0  0  2  0  0  0  0  0  0
  -18.2890  -26.6430   22.3380 C   0  0  0  0  0  2  0  0  0  0  0  0
  -19.0890  -28.8270   23.4150 C   0  0  0  0  0  0  0  0  0  0  0  0
  -18.7880  -30.0940   23.9630 C   0  0  0  0  0  3  0  0  0  0  0  0
  -17.4550  -30.5310   24.0750 C   0  0  0  0  0  3  0  0  0  0  0  0
  -16.4040  -29.7010   23.6490 C   0  0  0  0  0  3  0  0  0  0  0  0
  -16.6900  -28.4360   23.1030 C   0  0  0  0  0  3  0  0  0  0  0  0
  -25.8520  -32.6100   23.9330 C   0  0  0  0  0  3  0  0  0  0  0  0
  -25.5770  -34.0200   24.2370 N   0  0  0  0  0  0  0  0  0  0  0  0
  -25.9390  -35.0500   23.4590 C   0  0  0  0  0  0  0  0  0  0  0  0
  -26.6090  -34.9110   22.4320 O   0  0  0  0  0  0  0  0  0  0  0  0
  -24.9830  -34.2030   25.0320 H   0  0  0  0  0  0  0  0  0  0  0  0
  -24.2660  -36.8820   23.0480 C   0  0  0  0  0  1  0  0  0  0  0  0
  -25.4810  -36.4570   23.8890 C   0  0  0  0  0  3  0  0  0  0  0  0
  -27.6220  -37.2940   24.7480 C   0  0  0  0  0  1  0  0  0  0  0  0
  -26.5440  -37.4790   23.7810 N   0  0  0  0  0  0  0  0  0  0  0  0
  -26.1600  -38.4120   23.9100 H   0  0  0  0  0  0  0  0  0  0  0  0
  -26.3750  -31.8530   25.2150 C   0  0  1  0  0  0  0  0  0  0  0  0
  -25.2890  -31.6360   26.2950 C   0  0  0  0  0  1  0  0  0  0  0  0
  -26.9450  -30.4680   24.8330 C   0  0  0  0  0  1  0  0  0  0  0  0
  -27.5370  -32.6480   25.8560 C   0  0  0  0  0  1  0  0  0  0  0  0
  1 10  2  0
  1  2  1  0
  3  1  1  0
  4  2  1  0
  4  7  1  0
  5 53  1  0
  5  4  1  0
  6  3  1  0
  6  5  1  0
  6  8  1  6
  9  6  1  0
 11 24  1  0
 12 17  1  0
 13 14  1  0
 13 12  1  0
 15 14  1  0
 15 28  1  0
 15 16  1  0
 17 11  1  0
 17 16  1  0
 18 11  2  0
 19 21  1  0
 19 23  1  0
 20 22  1  0
 21 24  1  0
 23 10  1  0
 23 20  1  0
 24 22  1  0
 25 26  2  0
 26 45  1  0
 27 26  1  0
 27 30  1  0
 28 29  1  0
 28 25  1  0
 29 27  2  0
 30 31  1  0
 31 32  2  0
 33 36  1  0
 33 32  1  0
 34 33  2  0
 35 34  1  0
 35 30  2  0
 36 37  1  0
 37 38  1  0
 38 39  2  0
 40 39  1  0
 40 44  1  0
 41 40  2  0
 42 37  2  0
 42 41  1  0
 43 42  1  0
 45 46  1  0
 46 49  1  0
 46 48  1  0
 47 45  2  0
 50 25  1  0
 50 51  1  0
 52 50  1  0
 53 54  1  0
 55 57  1  0
 55 54  1  0
 56 67  2  0
 57 62  1  0
 58 66  1  0
 58 68  1  0
 59 65  1  0
 59 61  1  0
 60 66  1  0
 61 60  1  0
 62 61  2  0
 63 64  1  0
 63 57  2  0
 64 59  2  0
 65 58  1  0
 66 56  1  0
 68 70  2  0
 69 68  1  0
 71 69  1  0
 72 81  2  0
 72 77  1  0
 73 69  1  0
 73 77  1  0
 74 73  1  0
 75 76  1  0
 75 74  1  0
 76 72  1  0
 77 78  2  0
 78 79  1  0
 80 79  2  0
 81 80  1  0
 82 56  1  0
 82 83  1  0
 82 92  1  0
 83 86  1  0
 84 88  1  0
 84 83  1  0
 85 84  2  0
 88 87  1  0
 90 88  1  0
 90 91  1  0
 90 89  1  0
 92 95  1  1
 92 93  1  0
 94 92  1  0
M  ISO  4  11 100  24 100  54 101  55 101
M  END
>  <TORSDO>  (93) 
F 18

>  <SCORE>  (93) 
-14.063

>  <name>  (93) 
92

>  <ligand_id>  (93) 
92

>  <original_smiles>  (93) 
[H]c1c([H])c([H])c2c(c1[H])C([H])([H])C([H])([H])C([H])([H])C2([H])N([H])C(=O)C1([H])N(C(=O)C([H])(N([H])C(=O)C([H])(N([H])C([H])([H])[H])C([H])([H])[H])C(C([H])([H])[H])(C([H])([H])[H])C([H])([H])[H])C([H])([H])c2c([H])c(OC([H])([H])C([H])([H])C3([H])C([H])(C([H])([H])[H])C([H])([H])C(=NC4([H])C([H])([H])C([H])([H])N(C(=O)N5C([H])([H])C([H])([H])C([H])([H])C([H])(n6nc(-c7c([H])c([H])c(Oc8c([H])c([H])c(F)c([H])c8F)c([H])c7[H])c(C(=O)N([H])[H])c6N([H])[H])C5([H])[H])C([H])([H])C4([H])[H])C([H])([H])C3(C([H])([H])[H])C([H])([H])[H])c([H])c([H])c2C1([H])[H]

>  <smiles>  (93) 
[H]c1c([H])c([H])c2c(c1[H])C([H])([H])C([H])([H])C([H])([H])C2([H])N([H])C(=O)C1([H])N(C(=O)C([H])(N([H])C(=O)C([H])(N([H])C([H])([H])[H])C([H])([H])[H])C(C([H])([H])[H])(C([H])([H])[H])C([H])([H])[H])C([H])([H])c2c([H])c(OC([H])([H])C([H])([H])C3([H])C([H])(C([H])([H])[H])C([H])([H])C(=NC4([H])C([H])([H])C([H])([H])N(C(=O)N5C([H])([H])C([H])([H])C([H])([H])C([H])(n6nc(-c7c([H])c([H])c(Oc8c([H])c([H])c(F)c([H])c8F)c([H])c7[H])c(C(=O)N([H])[H])c6N([H])[H])C5([H])[H])C([H])([H])C4([H])[H])C([H])([H])C3(C([H])([H])[H])C([H])([H])[H])c([H])c([H])c2C1([H])[H]

$$$$
93:0:0
     RDKit          3D

 94103  0  0  1  0  0  0  0  0999 V2000
  -30.8250  -20.8650   20.0670 C   0  0  0  0  0  0  0  0  0  0  0  0
  -31.4090  -19.5660   20.2690 C   0  0  0  0  0  0  0  0  0  0  0  0
  -29.4160  -21.0060   19.9340 C   0  0  0  0  0  0  0  0  0  0  0  0
  -30.5930  -18.3860   20.2780 C   0  0  0  0  0  0  0  0  0  0  0  0
  -28.6960  -19.7680   19.9650 C   0  0  0  0  0  0  0  0  0  0  0  0
  -31.6970  -22.1130   19.9820 C   0  0  0  0  0  1  0  0  0  0  0  0
  -32.9200  -19.4900   20.5140 C   0  0  0  0  0  1  0  0  0  0  0  0
  -27.1880  -19.7220   19.7800 C   0  0  0  0  0  1  0  0  0  0  0  0
  -29.2550  -18.5310   20.1340 N   0  0  0  0  0  0  0  0  0  0  0  0
  -30.6910  -14.6460   19.7400 C   0  0  0  0  0  0  0  0  0  0  0  0
  -30.1370  -12.5310   18.5190 C   0  0  0  0  0  2  0  0  0  0  0  0
  -29.0960  -12.7620   17.4050 C   0  0  0  0  0  2  0  0  0  0  0  0
  -27.6720  -12.6050   17.9640 C   0  0  0  0  0  2  0  0  0  0  0  0
  -27.4690  -13.4190   19.2660 C   0  0  0  0  0  3  0  0  0  0  0  0
  -28.6190  -13.2000   20.2670 C   0  0  0  0  0  2  0  0  0  0  0  0
  -29.9000  -13.5180   19.6060 N   0  0  0  0  0  0  0  0  0  0  0  0
  -31.6580  -14.7830   18.9840 O   0  0  0  0  0  0  0  0  0  0  0  0
  -31.4410  -15.7640   22.8280 C   0  0  0  0  0  2  0  0  0  0  0  0
  -31.6370  -17.1150   22.1840 C   0  0  0  0  0  2  0  0  0  0  0  0
  -30.2450  -15.2140   22.0670 C   0  0  0  0  0  2  0  0  0  0  0  0
  -31.1570  -16.9710   20.7230 C   0  0  0  0  0  3  0  0  0  0  0  0
  -30.3960  -15.6410   20.6620 N   0  0  0  0  0  0  0  0  0  0  0  0
  -25.1760  -14.0480   20.2460 C   0  0  0  0  0  0  0  0  0  0  0  0
  -24.1360  -13.2910   20.7080 C   0  0  0  0  0  0  0  0  0  0  0  0
  -24.5600  -11.9290   20.5990 C   0  0  0  0  0  0  0  0  0  0  0  0
  -26.1690  -13.1510   19.8790 N   0  0  0  0  0  0  0  0  0  0  0  0
  -25.8080  -11.8710   20.1530 N   0  0  0  0  0  0  0  0  0  0  0  0
  -23.8240  -10.6800   20.8350 C   0  0  0  0  0  0  0  0  0  0  0  0
  -24.3040   -9.6960   21.7270 C   0  0  0  0  0  3  0  0  0  0  0  0
  -23.5700   -8.5120   21.9500 C   0  0  0  0  0  3  0  0  0  0  0  0
  -22.3390   -8.3040   21.2820 C   0  0  0  0  0  0  0  0  0  0  0  0
  -21.8750   -9.2770   20.3790 C   0  0  0  0  0  3  0  0  0  0  0  0
  -22.6110  -10.4520   20.1540 C   0  0  0  0  0  3  0  0  0  0  0  0
  -21.5690   -7.1740   21.4180 O   0  0  0  0  0  0  0  0  0  0  0  0
  -21.5670   -6.4380   22.5760 C   0  0  0  0  0  0  0  0  0  0  0  0
  -21.2320   -7.0120   23.8230 C   0  0  0  0  0  3  0  0  0  0  0  0
  -21.1760   -6.2040   24.9770 C   0  0  0  0  0  3  0  0  0  0  0  0
  -21.4440   -4.8250   24.8850 C   0  0  0  0  0  0  0  0  0  0  0  0
  -21.7710   -4.2520   23.6440 C   0  0  0  0  0  3  0  0  0  0  0  0
  -21.8310   -5.0560   22.4940 C   0  0  0  0  0  0  0  0  0  0  0  0
  -22.1260   -4.4940   21.2960 F   0  0  0  0  0  0  0  0  0  0  0  0
  -21.3820   -4.0480   25.9930 F   0  0  0  0  0  0  0  0  0  0  0  0
  -22.7860  -13.7910   21.1320 C   0  0  0  0  0  0  0  0  0  0  0  0
  -22.1340  -13.0970   22.0570 N   0  0  0  0  0  0  0  0  0  0  0  0
  -22.3230  -14.8370   20.6770 O   0  0  0  0  0  0  0  0  0  0  0  0
  -22.5210  -12.2510   22.4480 H   0  0  0  0  0  0  0  0  0  0  0  0
  -21.2330  -13.4180   22.3800 H   0  0  0  0  0  0  0  0  0  0  0  0
  -25.3600  -15.4190   20.0900 N   0  0  0  0  0  0  0  0  0  0  0  0
  -24.6320  -16.0910   20.3090 H   0  0  0  0  0  0  0  0  0  0  0  0
  -26.1940  -15.8490   19.7100 H   0  0  0  0  0  0  0  0  0  0  0  0
  -28.6720  -22.3850   19.6220 C   0  0  0  0  0  2  0  0  0  0  0  0
  -29.0380  -23.8270   20.2350 C   0  0  0  0  0  2  0  0  0  0  0  0
  -28.0000  -24.9910   19.8820 C   0  0  0  0  0  2  0  0  0  0  0  0
  -28.2290  -26.4260   20.2140 O   0  0  0  0  0  0  0  0  0  0  0  0
  -24.5380  -31.8720   23.2250 C   0  0  0  0  0  0  0  0  0  0  0  0
  -27.1210  -27.2960   20.1570 C   0  0  0  0  0  0  0  0  0  0  0  0
  -23.3210  -30.4700   21.6020 C   0  0  0  0  0  3  0  0  0  0  0  0
  -24.7590  -28.9210   20.1640 C   0  0  0  0  0  0  0  0  0  0  0  0
  -25.8590  -30.7860   21.3960 C   0  0  0  0  0  2  0  0  0  0  0  0
  -25.9360  -29.4070   20.7490 C   0  0  0  0  0  0  0  0  0  0  0  0
  -27.1200  -28.6050   20.7370 C   0  0  0  0  0  3  0  0  0  0  0  0
  -25.9180  -26.8730   19.5440 C   0  0  0  0  0  3  0  0  0  0  0  0
  -24.7530  -27.6600   19.5540 C   0  0  0  0  0  3  0  0  0  0  0  0
  -23.5210  -29.7940   20.2210 C   0  0  0  0  0  2  0  0  0  0  0  0
  -24.5930  -31.0600   22.1310 N   0  0  0  0  0  0  0  0  0  0  0  0
  -23.4580  -32.1530   23.7650 O   0  0  0  0  0  0  0  0  0  0  0  0
  -22.6670  -29.4550   22.5680 C   0  0  0  0  0  0  0  0  0  0  0  0
  -21.3410  -29.2700   22.4430 N   0  0  0  0  0  0  0  0  0  0  0  0
  -23.3500  -28.8390   23.3910 O   0  0  0  0  0  0  0  0  0  0  0  0
  -20.8500  -29.8130   21.7470 H   0  0  0  0  0  0  0  0  0  0  0  0
  -17.9700  -28.0650   22.9680 C   0  0  0  0  0  0  0  0  0  0  0  0
  -20.5280  -28.3360   23.2220 C   0  0  0  0  0  3  0  0  0  0  0  0
  -20.6330  -26.9010   22.6570 C   0  0  0  0  0  2  0  0  0  0  0  0
  -19.5270  -26.5680   21.6510 C   0  0  0  0  0  2  0  0  0  0  0  0
  -18.1480  -26.7140   22.2980 C   0  0  0  0  0  2  0  0  0  0  0  0
  -19.0880  -28.8340   23.3870 C   0  0  0  0  0  0  0  0  0  0  0  0
  -18.8680  -30.0990   23.9720 C   0  0  0  0  0  3  0  0  0  0  0  0
  -17.5620  -30.5980   24.1420 C   0  0  0  0  0  3  0  0  0  0  0  0
  -16.4580  -29.8250   23.7380 C   0  0  0  0  0  3  0  0  0  0  0  0
  -16.6630  -28.5600   23.1580 C   0  0  0  0  0  3  0  0  0  0  0  0
  -25.8250  -32.5070   23.8350 C   0  0  0  0  0  3  0  0  0  0  0  0
  -26.3420  -31.7490   25.1200 C   0  0  1  0  0  0  0  0  0  0  0  0
  -25.2470  -31.5210   26.1880 C   0  0  0  0  0  1  0  0  0  0  0  0
  -26.9260  -30.3680   24.7440 C   0  0  0  0  0  1  0  0  0  0  0  0
  -27.4930  -32.5490   25.7710 C   0  0  0  0  0  1  0  0  0  0  0  0
  -25.5210  -33.9100   24.1500 N   0  0  0  0  0  0  0  0  0  0  0  0
  -25.8440  -34.9520   23.3720 C   0  0  0  0  0  0  0  0  0  0  0  0
  -26.5010  -34.8330   22.3340 O   0  0  0  0  0  0  0  0  0  0  0  0
  -24.9320  -34.0760   24.9530 H   0  0  0  0  0  0  0  0  0  0  0  0
  -24.1130  -36.7410   23.0180 C   0  0  0  0  0  1  0  0  0  0  0  0
  -25.3670  -36.3480   23.8140 C   0  0  0  0  0  3  0  0  0  0  0  0
  -27.5190  -37.2410   24.5920 C   0  0  0  0  0  1  0  0  0  0  0  0
  -26.4010  -37.3960   23.6640 N   0  0  0  0  0  0  0  0  0  0  0  0
  -26.0000  -38.3200   23.8050 H   0  0  0  0  0  0  0  0  0  0  0  0
  1  2  1  0
  2  4  2  0
  2  7  1  0
  3  5  1  0
  3  1  2  0
  5  9  2  0
  6  1  1  0
  8  5  1  0
  9  4  1  0
 10 22  1  0
 11 16  1  0
 12 13  1  0
 12 11  1  0
 14 13  1  0
 14 26  1  0
 14 15  1  0
 16 10  1  0
 16 15  1  0
 17 10  2  0
 19 18  1  0
 20 18  1  0
 21  4  1  0
 21 19  1  0
 22 21  1  0
 22 20  1  0
 23 24  2  0
 24 43  1  0
 25 24  1  0
 25 28  1  0
 26 27  1  0
 26 23  1  0
 27 25  2  0
 28 29  1  0
 29 30  2  0
 31 34  1  0
 31 30  1  0
 32 31  2  0
 33 32  1  0
 33 28  2  0
 34 35  1  0
 35 36  1  0
 36 37  2  0
 38 37  1  0
 38 42  1  0
 39 38  2  0
 40 35  2  0
 40 39  1  0
 41 40  1  0
 43 44  1  0
 44 47  1  0
 44 46  1  0
 45 43  2  0
 48 23  1  0
 48 49  1  0
 50 48  1  0
 51  3  1  0
 51 52  1  0
 53 54  1  0
 53 52  1  0
 55 66  2  0
 56 54  1  0
 56 61  1  0
 57 65  1  0
 57 67  1  0
 58 64  1  0
 58 60  1  0
 59 65  1  0
 60 59  1  0
 61 60  2  0
 62 63  1  0
 62 56  2  0
 63 58  2  0
 64 57  1  0
 65 55  1  0
 67 69  2  0
 68 67  1  0
 70 68  1  0
 71 80  2  0
 71 76  1  0
 72 68  1  0
 72 76  1  0
 73 72  1  0
 74 75  1  0
 74 73  1  0
 75 71  1  0
 76 77  2  0
 77 78  1  0
 79 78  2  0
 80 79  1  0
 81 55  1  0
 81 86  1  0
 81 82  1  0
 82 85  1  1
 82 83  1  0
 84 82  1  0
 86 89  1  0
 87 91  1  0
 87 86  1  0
 88 87  2  0
 91 90  1  0
 93 94  1  0
 93 91  1  0
 93 92  1  0
M  ISO  4  10 100  22 100  53 101  54 101
M  END
>  <TORSDO>  (94) 
F 19

>  <SCORE>  (94) 
-10.815

>  <name>  (94) 
93

>  <ligand_id>  (94) 
93

>  <original_smiles>  (94) 
[H]c1c([H])c([H])c2c(c1[H])C([H])([H])C([H])([H])C([H])([H])C2([H])N([H])C(=O)C1([H])N(C(=O)C([H])(N([H])C(=O)C([H])(N([H])C([H])([H])[H])C([H])([H])[H])C(C([H])([H])[H])(C([H])([H])[H])C([H])([H])[H])C([H])([H])c2c([H])c(OC([H])([H])C([H])([H])C([H])([H])c3c(C([H])([H])[H])nc(C4([H])N(C(=O)N5C([H])([H])C([H])([H])C([H])([H])C([H])(n6nc(-c7c([H])c([H])c(Oc8c([H])c([H])c(F)c([H])c8F)c([H])c7[H])c(C(=O)N([H])[H])c6N([H])[H])C5([H])[H])C([H])([H])C([H])([H])C4([H])[H])c(C([H])([H])[H])c3C([H])([H])[H])c([H])c([H])c2C1([H])[H]

>  <smiles>  (94) 
[H]c1c([H])c([H])c2c(c1[H])C([H])([H])C([H])([H])C([H])([H])C2([H])N([H])C(=O)C1([H])N(C(=O)C([H])(N([H])C(=O)C([H])(N([H])C([H])([H])[H])C([H])([H])[H])C(C([H])([H])[H])(C([H])([H])[H])C([H])([H])[H])C([H])([H])c2c([H])c(OC([H])([H])C([H])([H])C([H])([H])c3c(C([H])([H])[H])nc(C4([H])N(C(=O)N5C([H])([H])C([H])([H])C([H])([H])C([H])(n6nc(-c7c([H])c([H])c(Oc8c([H])c([H])c(F)c([H])c8F)c([H])c7[H])c(C(=O)N([H])[H])c6N([H])[H])C5([H])[H])C([H])([H])C([H])([H])C4([H])[H])c(C([H])([H])[H])c3C([H])([H])[H])c([H])c([H])c2C1([H])[H]

$$$$
94:0:0
     RDKit          3D

103112  0  0  1  0  0  0  0  0999 V2000
  -29.7550  -20.7640   20.8110 C   0  0  0  0  0  3  0  0  0  0  0  0
  -27.7460  -20.3150   18.9840 C   0  0  0  0  0  0  0  0  0  0  0  0
  -29.6310  -19.3740   20.2740 C   0  0  0  0  0  0  0  0  0  0  0  0
  -28.9490  -21.9620   20.4310 C   0  0  0  0  0  0  0  0  0  0  0  0
  -28.6620  -19.2540   19.2560 C   0  0  0  0  0  0  0  0  0  0  0  0
  -27.9070  -21.6300   19.5240 C   0  0  0  0  0  0  0  0  0  0  0  0
  -28.6580  -17.9950   18.3880 C   0  0  0  0  0  1  0  0  0  0  0  0
  -26.1550  -21.1690   17.1590 C   0  0  0  0  0  2  0  0  0  0  0  0
  -26.5450  -20.0130   18.0770 C   0  0  0  0  0  3  0  0  0  0  0  0
  -24.1680  -20.1060   17.9930 C   0  0  0  0  0  3  0  0  0  0  0  0
  -24.7440  -20.7820   16.7140 C   0  0  1  0  0  0  0  0  0  0  0  0
  -23.1160  -19.0090   17.7570 C   0  0  0  0  0  1  0  0  0  0  0  0
  -23.9360  -22.0310   16.3300 C   0  0  0  0  0  1  0  0  0  0  0  0
  -24.8500  -19.8320   15.4950 C   0  0  0  0  0  1  0  0  0  0  0  0
  -25.3190  -19.6300   18.7900 N   0  0  0  0  0  4  0  0  0  0  0  0
  -25.3410  -20.1450   19.6630 H   0  0  0  0  0  0  0  0  0  0  0  0
  -25.3040  -18.6420   18.9770 H   0  0  0  0  0  0  0  0  0  0  0  0
  -30.5630  -23.7730   21.3960 C   0  0  0  0  0  1  0  0  0  0  0  0
  -29.0960  -23.5270   21.0190 C   0  0  0  0  0  3  0  0  0  0  0  0
  -28.4270  -24.9560   20.3630 C   0  0  0  0  0  2  0  0  0  0  0  0
  -28.4440  -26.4200   20.9230 O   0  0  0  0  0  0  0  0  0  0  0  0
  -24.6170  -32.1340   23.5460 C   0  0  0  0  0  0  0  0  0  0  0  0
  -27.3760  -27.3850   20.7450 C   0  0  0  0  0  0  0  0  0  0  0  0
  -23.5010  -30.6810   21.9010 C   0  0  0  0  0  3  0  0  0  0  0  0
  -25.0270  -29.1020   20.5620 C   0  0  0  0  0  0  0  0  0  0  0  0
  -26.0530  -30.9890   21.8220 C   0  0  0  0  0  2  0  0  0  0  0  0
  -26.1740  -29.5840   21.2030 C   0  0  0  0  0  0  0  0  0  0  0  0
  -27.3450  -28.7410   21.2780 C   0  0  0  0  0  3  0  0  0  0  0  0
  -26.2020  -27.0080   20.0540 C   0  0  0  0  0  3  0  0  0  0  0  0
  -25.0490  -27.8270   19.9790 C   0  0  0  0  0  3  0  0  0  0  0  0
  -23.7880  -29.9830   20.5470 C   0  0  0  0  0  2  0  0  0  0  0  0
  -24.7410  -31.2920   22.4780 N   0  0  0  0  0  0  0  0  0  0  0  0
  -23.5080  -32.4150   24.0250 O   0  0  0  0  0  0  0  0  0  0  0  0
  -22.8010  -29.6860   22.8610 C   0  0  0  0  0  0  0  0  0  0  0  0
  -21.5040  -29.4110   22.6330 N   0  0  0  0  0  0  0  0  0  0  0  0
  -23.4340  -29.1560   23.7790 O   0  0  0  0  0  0  0  0  0  0  0  0
  -21.0480  -29.8930   21.8700 H   0  0  0  0  0  0  0  0  0  0  0  0
  -18.1770  -28.0020   22.9150 C   0  0  0  0  0  0  0  0  0  0  0  0
  -20.6750  -28.4710   23.3930 C   0  0  0  0  0  3  0  0  0  0  0  0
  -20.9290  -27.0170   22.9370 C   0  0  0  0  0  2  0  0  0  0  0  0
  -19.9540  -26.5490   21.8520 C   0  0  0  0  0  2  0  0  0  0  0  0
  -18.5100  -26.6300   22.3550 C   0  0  0  0  0  2  0  0  0  0  0  0
  -19.1940  -28.8730   23.3870 C   0  0  0  0  0  0  0  0  0  0  0  0
  -18.8310  -30.1490   23.8710 C   0  0  0  0  0  3  0  0  0  0  0  0
  -17.4850  -30.5590   23.8830 C   0  0  0  0  0  3  0  0  0  0  0  0
  -16.4810  -29.6890   23.4190 C   0  0  0  0  0  3  0  0  0  0  0  0
  -16.8280  -28.4120   22.9460 C   0  0  0  0  0  3  0  0  0  0  0  0
  -25.8600  -32.8070   24.2030 C   0  0  0  0  0  3  0  0  0  0  0  0
  -25.5450  -34.2300   24.4050 N   0  0  0  0  0  0  0  0  0  0  0  0
  -25.8920  -35.2140   23.5620 C   0  0  0  0  0  0  0  0  0  0  0  0
  -26.5720  -35.0210   22.5510 O   0  0  0  0  0  0  0  0  0  0  0  0
  -24.9380  -34.4550   25.1820 H   0  0  0  0  0  0  0  0  0  0  0  0
  -24.1670  -36.9710   23.0420 C   0  0  0  0  0  1  0  0  0  0  0  0
  -25.4060  -36.6400   23.8910 C   0  0  0  0  0  3  0  0  0  0  0  0
  -27.5270  -37.6100   24.6610 C   0  0  0  0  0  1  0  0  0  0  0  0
  -26.4420  -37.6770   23.6850 N   0  0  0  0  0  0  0  0  0  0  0  0
  -26.0340  -38.6070   23.7290 H   0  0  0  0  0  0  0  0  0  0  0  0
  -26.2840  -32.1330   25.5670 C   0  0  1  0  0  0  0  0  0  0  0  0
  -25.1080  -31.9270   26.5510 C   0  0  0  0  0  1  0  0  0  0  0  0
  -26.9410  -30.7530   25.3240 C   0  0  0  0  0  1  0  0  0  0  0  0
  -27.3560  -33.0040   26.2640 C   0  0  0  0  0  1  0  0  0  0  0  0
  -31.9800  -18.2900   20.3300 C   0  0  0  0  0  1  0  0  0  0  0  0
  -30.5150  -18.0360   20.7180 C   0  0  0  0  0  0  0  0  0  0  0  0
  -30.7820  -15.2800   20.1930 C   0  0  0  0  0  0  0  0  0  0  0  0
  -30.5120  -12.9980   19.1100 C   0  0  0  0  0  2  0  0  0  0  0  0
  -29.5310  -13.0140   17.9180 C   0  0  0  0  0  2  0  0  0  0  0  0
  -28.0840  -12.7930   18.4000 C   0  0  0  0  0  2  0  0  0  0  0  0
  -27.7350  -13.6700   19.6340 C   0  0  0  0  0  3  0  0  0  0  0  0
  -28.8480  -13.6590   20.7110 C   0  0  0  0  0  2  0  0  0  0  0  0
  -30.1020  -14.0640   20.0720 N   0  0  0  0  0  0  0  0  0  0  0  0
  -31.9610  -15.2870   19.8390 O   0  0  0  0  0  0  0  0  0  0  0  0
  -30.1120  -16.4940   20.5360 N   0  0  0  0  0  4  0  0  0  0  0  0
  -29.1570  -16.3210   20.8030 H   0  0  0  0  0  0  0  0  0  0  0  0
  -25.3880  -14.2120   20.5010 C   0  0  0  0  0  0  0  0  0  0  0  0
  -24.3330  -13.4240   20.8770 C   0  0  0  0  0  0  0  0  0  0  0  0
  -24.7940  -12.0770   20.7810 C   0  0  0  0  0  0  0  0  0  0  0  0
  -26.4210  -13.3440   20.1870 N   0  0  0  0  0  0  0  0  0  0  0  0
  -26.0750  -12.0520   20.4250 N   0  0  0  0  0  0  0  0  0  0  0  0
  -24.0650  -10.8090   20.9530 C   0  0  0  0  0  0  0  0  0  0  0  0
  -24.4300   -9.8780   21.9530 C   0  0  0  0  0  3  0  0  0  0  0  0
  -23.7030   -8.6780   22.1150 C   0  0  0  0  0  3  0  0  0  0  0  0
  -22.5870   -8.4010   21.2890 C   0  0  0  0  0  0  0  0  0  0  0  0
  -22.2370   -9.3210   20.2870 C   0  0  0  0  0  3  0  0  0  0  0  0
  -22.9720  -10.5040   20.1150 C   0  0  0  0  0  3  0  0  0  0  0  0
  -21.8440   -7.2460   21.3550 O   0  0  0  0  0  0  0  0  0  0  0  0
  -21.6100   -6.6040   22.5450 C   0  0  0  0  0  0  0  0  0  0  0  0
  -20.9270   -7.2330   23.6120 C   0  0  0  0  0  3  0  0  0  0  0  0
  -20.6640   -6.5130   24.7930 C   0  0  0  0  0  3  0  0  0  0  0  0
  -21.0580   -5.1660   24.9030 C   0  0  0  0  0  0  0  0  0  0  0  0
  -21.7270   -4.5360   23.8380 C   0  0  0  0  0  3  0  0  0  0  0  0
  -22.0030   -5.2550   22.6620 C   0  0  0  0  0  0  0  0  0  0  0  0
  -22.6400   -4.6420   21.6350 F   0  0  0  0  0  0  0  0  0  0  0  0
  -20.7940   -4.4740   26.0340 F   0  0  0  0  0  0  0  0  0  0  0  0
  -22.9420  -13.8890   21.2140 C   0  0  0  0  0  0  0  0  0  0  0  0
  -22.2430  -13.1550   22.0740 N   0  0  0  0  0  0  0  0  0  0  0  0
  -22.5000  -14.9440   20.7610 O   0  0  0  0  0  0  0  0  0  0  0  0
  -22.6230  -12.2990   22.4490 H   0  0  0  0  0  0  0  0  0  0  0  0
  -21.3240  -13.4580   22.3700 H   0  0  0  0  0  0  0  0  0  0  0  0
  -25.5570  -15.5890   20.3880 N   0  0  0  0  0  0  0  0  0  0  0  0
  -24.8120  -16.2360   20.6090 H   0  0  0  0  0  0  0  0  0  0  0  0
  -26.3990  -16.0460   20.0710 H   0  0  0  0  0  0  0  0  0  0  0  0
  -27.0100  -22.5900   19.1520 O   0  0  0  0  0  0  0  0  0  0  0  0
  -27.3850  -23.4610   19.1310 H   0  0  0  0  0  0  0  0  0  0  0  0
  2  5  2  0
  2  6  1  0
  3 63  1  0
  3  1  2  0
  4  1  1  0
  4 19  1  0
  5  3  1  0
  6  4  2  0
  7  5  1  0
  8  9  1  0
  9 15  1  0
  9  2  1  0
 10 12  1  0
 10 15  1  0
 11  8  1  0
 11 10  1  0
 11 13  1  6
 14 11  1  0
 15 17  1  0
 15 16  1  0
 19 18  1  0
 20 21  1  0
 20 19  1  0
 22 33  2  0
 23 21  1  0
 23 28  1  0
 24 32  1  0
 24 34  1  0
 25 27  1  0
 26 32  1  0
 27 28  2  0
 27 26  1  0
 29 23  2  0
 30 29  1  0
 30 25  2  0
 31 25  1  0
 31 24  1  0
 32 22  1  0
 34 36  2  0
 35 34  1  0
 37 35  1  0
 38 47  2  0
 38 43  1  0
 39 35  1  0
 40 39  1  0
 41 42  1  0
 41 40  1  0
 42 38  1  0
 43 39  1  0
 43 44  2  0
 44 45  1  0
 46 45  2  0
 47 46  1  0
 48 22  1  0
 48 49  1  0
 48 58  1  0
 49 52  1  0
 50 54  1  0
 50 49  1  0
 51 50  2  0
 54 53  1  0
 56 57  1  0
 56 54  1  0
 56 55  1  0
 58 61  1  1
 58 59  1  0
 60 58  1  0
 62 63  1  0
 64 72  1  0
 65 70  1  0
 66 67  1  0
 66 65  1  0
 68 67  1  0
 68 77  1  0
 68 69  1  0
 70 64  1  0
 70 69  1  0
 71 64  2  0
 72 63  2  0
 72 73  1  0
 74 75  2  0
 75 94  1  0
 76 75  1  0
 76 79  1  0
 77 78  1  0
 77 74  1  0
 78 76  2  0
 79 80  1  0
 80 81  2  0
 82 85  1  0
 82 81  1  0
 83 82  2  0
 84 83  1  0
 84 79  2  0
 85 86  1  0
 86 91  2  0
 86 87  1  0
 87 88  2  0
 88 89  1  0
 89 93  1  0
 90 89  2  0
 91 90  1  0
 92 91  1  0
 94 95  1  0
 95 98  1  0
 95 97  1  0
 96 94  2  0
 99 74  1  0
 99100  1  0
101 99  1  0
102  6  1  0
103102  1  0
M  ISO  4  20 101  21 101  64 100  72 100
M  END
>  <TORSDO>  (95) 
F 21

>  <SCORE>  (95) 
-7.673

>  <name>  (95) 
94

>  <ligand_id>  (95) 
94

>  <original_smiles>  (95) 
[H]Oc1c(C([H])(C([H])([H])[H])C([H])([H])Oc2c([H])c([H])c3c(c2[H])C([H])([H])N(C(=O)C([H])(N([H])C(=O)C([H])(N([H])C([H])([H])[H])C([H])([H])[H])C(C([H])([H])[H])(C([H])([H])[H])C([H])([H])[H])C([H])(C(=O)N([H])C2([H])c4c([H])c([H])c([H])c([H])c4C([H])([H])C([H])([H])C2([H])[H])C3([H])[H])c([H])c(C([H])(N([H])C(=O)N2C([H])([H])C([H])([H])C([H])([H])C([H])(n3nc(-c4c([H])c([H])c(Oc5c([H])c([H])c(F)c([H])c5F)c([H])c4[H])c(C(=O)N([H])[H])c3N([H])[H])C2([H])[H])C([H])([H])[H])c(C([H])([H])[H])c1C1([H])C([H])([H])C(C([H])([H])[H])(C([H])([H])[H])C([H])(C([H])([H])[H])[N+]1([H])[H]

>  <smiles>  (95) 
[H]Oc1c(C([H])(C([H])([H])[H])C([H])([H])Oc2c([H])c([H])c3c(c2[H])C([H])([H])N(C(=O)C([H])(N([H])C(=O)C([H])(N([H])C([H])([H])[H])C([H])([H])[H])C(C([H])([H])[H])(C([H])([H])[H])C([H])([H])[H])C([H])(C(=O)N([H])C2([H])c4c([H])c([H])c([H])c([H])c4C([H])([H])C([H])([H])C2([H])[H])C3([H])[H])c([H])c(C([H])(N([H])C(=O)N2C([H])([H])C([H])([H])C([H])([H])C([H])(n3nc(-c4c([H])c([H])c(Oc5c([H])c([H])c(F)c([H])c5F)c([H])c4[H])c(C(=O)N([H])[H])c3N([H])[H])C2([H])[H])C([H])([H])[H])c(C([H])([H])[H])c1C1([H])C([H])([H])C(C([H])([H])[H])(C([H])([H])[H])C([H])(C([H])([H])[H])[N+]1([H])[H]

$$$$
