0:0:0
     RDKit          3D

 93102  0  0  1  0  0  0  0  0999 V2000
  -28.6210  -22.4520   19.7870 C   0  0  0  0  0  3  0  0  0  0  0  0
  -29.2290  -21.3360   20.4210 C   0  0  0  0  0  0  0  0  0  0  0  0
  -28.6460  -23.7260   20.4210 C   0  0  0  0  0  0  0  0  0  0  0  0
  -29.7710  -22.7370   22.1670 C   0  0  0  0  0  0  0  0  0  0  0  0
  -30.4360  -22.9000   23.5180 C   0  0  0  0  0  1  0  0  0  0  0  0
  -29.7880  -21.5110   21.6360 N   0  0  0  0  0  0  0  0  0  0  0  0
  -29.2380  -23.8380   21.6280 N   0  0  0  0  0  0  0  0  0  0  0  0
  -29.4180  -19.9520   19.7200 C   0  0  0  0  0  2  0  0  0  0  0  0
  -30.4400  -14.4420   20.0630 C   0  0  0  0  0  0  0  0  0  0  0  0
  -30.0650  -12.2760   18.9150 C   0  0  0  0  0  2  0  0  0  0  0  0
  -29.0360  -12.4570   17.7810 C   0  0  0  0  0  2  0  0  0  0  0  0
  -27.6060  -12.2620   18.3180 C   0  0  0  0  0  2  0  0  0  0  0  0
  -27.3350  -13.0670   19.6170 C   0  0  0  0  0  3  0  0  0  0  0  0
  -28.4850  -12.9230   20.6410 C   0  0  0  0  0  2  0  0  0  0  0  0
  -29.7410  -13.2670   19.9590 N   0  0  0  0  0  0  0  0  0  0  0  0
  -31.5970  -14.5350   19.6480 O   0  0  0  0  0  0  0  0  0  0  0  0
  -30.3320  -16.5100   21.4450 C   0  0  0  0  0  2  0  0  0  0  0  0
  -29.1550  -16.3830   19.3240 C   0  0  0  0  0  2  0  0  0  0  0  0
  -30.4760  -18.0330   21.0410 C   0  0  0  0  0  2  0  0  0  0  0  0
  -28.3780  -17.6460   19.8190 C   0  0  0  0  0  2  0  0  0  0  0  0
  -29.7650  -15.5890   20.4160 N   0  0  0  0  0  0  0  0  0  0  0  0
  -29.2280  -18.6690   20.5080 N   0  0  2  0  0  4  0  0  0  0  0  0
  -28.6890  -18.9730   21.3070 H   0  0  0  0  0  0  0  0  0  0  0  0
  -24.9820  -13.6020   20.4890 C   0  0  0  0  0  0  0  0  0  0  0  0
  -23.9620  -12.8020   20.9240 C   0  0  0  0  0  0  0  0  0  0  0  0
  -24.4600  -11.4630   20.8680 C   0  0  0  0  0  0  0  0  0  0  0  0
  -26.0330  -12.7500   20.1940 N   0  0  0  0  0  0  0  0  0  0  0  0
  -25.7300  -11.4590   20.4820 N   0  0  0  0  0  0  0  0  0  0  0  0
  -23.7820  -10.1820   21.1030 C   0  0  0  0  0  0  0  0  0  0  0  0
  -24.2500   -9.2670   22.0710 C   0  0  0  0  0  3  0  0  0  0  0  0
  -23.5710   -8.0500   22.2920 C   0  0  0  0  0  3  0  0  0  0  0  0
  -22.4100   -7.7390   21.5450 C   0  0  0  0  0  0  0  0  0  0  0  0
  -21.9620   -8.6430   20.5660 C   0  0  0  0  0  3  0  0  0  0  0  0
  -22.6420   -9.8510   20.3430 C   0  0  0  0  0  3  0  0  0  0  0  0
  -21.7000   -6.5700   21.6750 O   0  0  0  0  0  0  0  0  0  0  0  0
  -21.6440   -5.8910   22.8650 C   0  0  0  0  0  0  0  0  0  0  0  0
  -21.0930   -6.4710   24.0280 C   0  0  0  0  0  3  0  0  0  0  0  0
  -20.9900   -5.7120   25.2120 C   0  0  0  0  0  3  0  0  0  0  0  0
  -21.4290   -4.3750   25.2330 C   0  0  0  0  0  0  0  0  0  0  0  0
  -21.9750   -3.7950   24.0740 C   0  0  0  0  0  3  0  0  0  0  0  0
  -22.0800   -4.5510   22.8930 C   0  0  0  0  0  0  0  0  0  0  0  0
  -22.5850   -3.9790   21.7730 F   0  0  0  0  0  0  0  0  0  0  0  0
  -21.3250   -3.6450   26.3690 F   0  0  0  0  0  0  0  0  0  0  0  0
  -22.5710  -13.2420   21.2760 C   0  0  0  0  0  0  0  0  0  0  0  0
  -21.9190  -12.5370   22.1950 N   0  0  0  0  0  0  0  0  0  0  0  0
  -22.0700  -14.2470   20.7720 O   0  0  0  0  0  0  0  0  0  0  0  0
  -22.3380  -11.7270   22.6250 H   0  0  0  0  0  0  0  0  0  0  0  0
  -20.9890  -12.8160   22.4740 H   0  0  0  0  0  0  0  0  0  0  0  0
  -25.0980  -14.9760   20.2980 N   0  0  0  0  0  0  0  0  0  0  0  0
  -24.3210  -15.6090   20.4500 H   0  0  0  0  0  0  0  0  0  0  0  0
  -25.9150  -15.4290   19.9140 H   0  0  0  0  0  0  0  0  0  0  0  0
  -27.9100  -24.9560   19.7980 C   0  0  0  0  0  2  0  0  0  0  0  0
  -28.1760  -26.3480   20.2210 O   0  0  0  0  0  0  0  0  0  0  0  0
  -24.5650  -31.8150   23.2190 C   0  0  0  0  0  0  0  0  0  0  0  0
  -27.0910  -27.2390   20.1320 C   0  0  0  0  0  0  0  0  0  0  0  0
  -23.3440  -30.4750   21.5450 C   0  0  0  0  0  3  0  0  0  0  0  0
  -24.7700  -28.9140   20.1130 C   0  0  0  0  0  0  0  0  0  0  0  0
  -25.8940  -30.7260   21.4020 C   0  0  0  0  0  2  0  0  0  0  0  0
  -25.9430  -29.3580   20.7360 C   0  0  0  0  0  0  0  0  0  0  0  0
  -27.1060  -28.5310   20.7400 C   0  0  0  0  0  3  0  0  0  0  0  0
  -25.8970  -26.8630   19.4650 C   0  0  0  0  0  3  0  0  0  0  0  0
  -24.7480  -27.6710   19.4690 C   0  0  0  0  0  3  0  0  0  0  0  0
  -23.5570  -29.8180   20.1570 C   0  0  0  0  0  2  0  0  0  0  0  0
  -24.6200  -31.0200   22.1120 N   0  0  0  0  0  0  0  0  0  0  0  0
  -23.4820  -32.1180   23.7420 O   0  0  0  0  0  0  0  0  0  0  0  0
  -22.6410  -29.4610   22.4790 C   0  0  0  0  0  0  0  0  0  0  0  0
  -21.3100  -29.3390   22.3450 N   0  0  0  0  0  0  0  0  0  0  0  0
  -23.2930  -28.7910   23.2860 O   0  0  0  0  0  0  0  0  0  0  0  0
  -20.8480  -29.9300   21.6680 H   0  0  0  0  0  0  0  0  0  0  0  0
  -17.8770  -28.3260   22.8650 C   0  0  0  0  0  0  0  0  0  0  0  0
  -20.4510  -28.4220   23.0950 C   0  0  0  0  0  3  0  0  0  0  0  0
  -20.4560  -27.0110   22.4620 C   0  0  0  0  0  2  0  0  0  0  0  0
  -19.3190  -26.7950   21.4570 C   0  0  0  0  0  2  0  0  0  0  0  0
  -17.9600  -26.9970   22.1340 C   0  0  0  0  0  2  0  0  0  0  0  0
  -19.0470  -29.0030   23.3020 C   0  0  0  0  0  0  0  0  0  0  0  0
  -18.9140  -30.2520   23.9470 C   0  0  0  0  0  3  0  0  0  0  0  0
  -17.6450  -30.8230   24.1580 C   0  0  0  0  0  3  0  0  0  0  0  0
  -16.4900  -30.1410   23.7370 C   0  0  0  0  0  3  0  0  0  0  0  0
  -16.6060  -28.8950   23.0970 C   0  0  0  0  0  3  0  0  0  0  0  0
  -25.8570  -32.4010   23.8650 C   0  0  0  0  0  3  0  0  0  0  0  0
  -25.5910  -33.8100   24.1900 N   0  0  0  0  0  0  0  0  0  0  0  0
  -25.9620  -34.8500   23.4310 C   0  0  0  0  0  0  0  0  0  0  0  0
  -26.6350  -34.7220   22.4050 O   0  0  0  0  0  0  0  0  0  0  0  0
  -24.9960  -33.9850   24.9870 H   0  0  0  0  0  0  0  0  0  0  0  0
  -24.2970  -36.6980   23.0600 C   0  0  0  0  0  1  0  0  0  0  0  0
  -25.5170  -36.2540   23.8830 C   0  0  0  0  0  3  0  0  0  0  0  0
  -27.6630  -37.0800   24.7450 C   0  0  0  0  0  1  0  0  0  0  0  0
  -26.5850  -37.2730   23.7790 N   0  0  0  0  0  0  0  0  0  0  0  0
  -26.2050  -38.2060   23.9070 H   0  0  0  0  0  0  0  0  0  0  0  0
  -26.3210  -31.6130   25.1500 C   0  0  1  0  0  0  0  0  0  0  0  0
  -25.1970  -31.4050   26.1930 C   0  0  0  0  0  1  0  0  0  0  0  0
  -26.8710  -30.2190   24.7690 C   0  0  0  0  0  1  0  0  0  0  0  0
  -27.4780  -32.3710   25.8410 C   0  0  0  0  0  1  0  0  0  0  0  0
  1  2  2  0
  1  3  1  0
  2  6  1  0
  3  7  2  0
  4  5  1  0
  6  4  2  0
  7  4  1  0
  8  2  1  0
  8 22  1  0
  9 21  1  0
 10 15  1  0
 11 12  1  0
 11 10  1  0
 13 12  1  0
 13 27  1  0
 13 14  1  0
 15  9  1  0
 15 14  1  0
 16  9  2  0
 18 20  1  0
 18 21  1  0
 19 17  1  0
 20 22  1  0
 21 17  1  0
 22 19  1  0
 22 23  1  1
 24 25  2  0
 25 44  1  0
 26 25  1  0
 26 29  1  0
 27 28  1  0
 27 24  1  0
 28 26  2  0
 29 30  1  0
 30 31  2  0
 32 35  1  0
 32 31  1  0
 33 32  2  0
 34 33  1  0
 34 29  2  0
 35 36  1  0
 36 41  2  0
 36 37  1  0
 37 38  2  0
 38 39  1  0
 39 43  1  0
 40 39  2  0
 41 40  1  0
 42 41  1  0
 44 45  1  0
 45 48  1  0
 45 47  1  0
 46 44  2  0
 49 50  1  0
 49 24  1  0
 51 49  1  0
 52 53  1  0
 52  3  1  0
 54 65  2  0
 55 53  1  0
 55 60  1  0
 56 64  1  0
 56 66  1  0
 57 63  1  0
 57 59  1  0
 58 64  1  0
 59 60  2  0
 59 58  1  0
 61 62  1  0
 61 55  2  0
 62 57  2  0
 63 56  1  0
 64 54  1  0
 66 68  2  0
 67 66  1  0
 69 67  1  0
 70 79  2  0
 70 75  1  0
 71 67  1  0
 71 75  1  0
 72 71  1  0
 73 74  1  0
 73 72  1  0
 74 70  1  0
 75 76  2  0
 76 77  1  0
 78 77  2  0
 79 78  1  0
 80 54  1  0
 80 81  1  0
 80 90  1  0
 81 84  1  0
 82 86  1  0
 82 81  1  0
 83 82  2  0
 86 85  1  0
 88 86  1  0
 88 89  1  0
 88 87  1  0
 90 93  1  1
 90 91  1  0
 92 90  1  0
M  ISO  4   9 100  21 100  52 101  53 101
M  END
>  <TORSDO>  (1) 
F 18

>  <SCORE>  (1) 
-14.317

>  <name>  (1) 
0

>  <ligand_id>  (1) 
0

>  <original_smiles>  (1) 
[H]c1c(C([H])([H])Oc2c([H])c([H])c3c(c2[H])C([H])([H])N(C(=O)C([H])(N([H])C(=O)C([H])(N([H])C([H])([H])[H])C([H])([H])[H])C(C([H])([H])[H])(C([H])([H])[H])C([H])([H])[H])C([H])(C(=O)N([H])C2([H])c4c([H])c([H])c([H])c([H])c4C([H])([H])C([H])([H])C2([H])[H])C3([H])[H])nc(C([H])([H])[H])nc1C([H])([H])[N+]1([H])C([H])([H])C([H])([H])N(C(=O)N2C([H])([H])C([H])([H])C([H])([H])C([H])(n3nc(-c4c([H])c([H])c(Oc5c([H])c([H])c(F)c([H])c5F)c([H])c4[H])c(C(=O)N([H])[H])c3N([H])[H])C2([H])[H])C([H])([H])C1([H])[H]

>  <smiles>  (1) 
[H]c1c(C([H])([H])Oc2c([H])c([H])c3c(c2[H])C([H])([H])N(C(=O)C([H])(N([H])C(=O)C([H])(N([H])C([H])([H])[H])C([H])([H])[H])C(C([H])([H])[H])(C([H])([H])[H])C([H])([H])[H])C([H])(C(=O)N([H])C2([H])c4c([H])c([H])c([H])c([H])c4C([H])([H])C([H])([H])C2([H])[H])C3([H])[H])nc(C([H])([H])[H])nc1C([H])([H])[N+]1([H])C([H])([H])C([H])([H])N(C(=O)N2C([H])([H])C([H])([H])C([H])([H])C([H])(n3nc(-c4c([H])c([H])c(Oc5c([H])c([H])c(F)c([H])c5F)c([H])c4[H])c(C(=O)N([H])[H])c3N([H])[H])C2([H])[H])C([H])([H])C1([H])[H]

$$$$
1:0:0
     RDKit          3D

 91100  0  0  1  0  0  0  0  0999 V2000
  -30.3760  -15.3840   20.3710 C   0  0  0  0  0  0  0  0  0  0  0  0
  -30.3780  -12.9230   19.4850 C   0  0  0  0  0  2  0  0  0  0  0  0
  -29.4750  -12.6800   18.2480 C   0  0  0  0  0  2  0  0  0  0  0  0
  -28.0260  -12.3930   18.6790 C   0  0  0  0  0  2  0  0  0  0  0  0
  -27.5520  -13.3660   19.7860 C   0  0  0  0  0  3  0  0  0  0  0  0
  -28.5850  -13.5420   20.9180 C   0  0  0  0  0  2  0  0  0  0  0  0
  -29.8080  -14.0710   20.2870 N   0  0  0  0  0  0  0  0  0  0  0  0
  -31.6080  -15.3440   20.2070 O   0  0  0  0  0  0  0  0  0  0  0  0
  -28.9790  -19.5460   20.2560 C   0  0  0  0  0  3  0  0  0  0  0  0
  -29.3470  -21.0430   20.4520 C   0  0  0  0  0  0  0  0  0  0  0  0
  -30.6800  -21.0890   20.8750 C   0  0  0  0  0  0  0  0  0  0  0  0
  -31.4670  -19.9370   21.1600 C   0  0  0  0  0  0  0  0  0  0  0  0
  -29.8520  -18.2840   20.5340 C   0  0  0  0  0  0  0  0  0  0  0  0
  -31.2330  -22.4910   20.7650 C   0  0  0  0  0  2  0  0  0  0  0  0
  -30.3390  -23.1850   19.7200 C   0  0  0  0  0  2  0  0  0  0  0  0
  -28.8890  -22.6850   19.9390 C   0  0  1  0  0  0  0  0  0  0  0  0
  -32.9130  -20.0900   21.5960 C   0  0  0  0  0  1  0  0  0  0  0  0
  -28.1400  -22.5140   18.6090 C   0  0  0  0  0  1  0  0  0  0  0  0
  -31.0650  -18.6440   21.0160 N   0  0  0  0  0  0  0  0  0  0  0  0
  -29.6060  -16.6750   20.3890 N   0  0  0  0  0  0  0  0  0  0  0  0
  -28.6220  -16.4700   20.3150 H   0  0  0  0  0  0  0  0  0  0  0  0
  -25.1760  -13.9230   20.5110 C   0  0  0  0  0  0  0  0  0  0  0  0
  -24.1110  -13.1490   20.8720 C   0  0  0  0  0  0  0  0  0  0  0  0
  -24.5800  -11.7980   20.8540 C   0  0  0  0  0  0  0  0  0  0  0  0
  -26.2220  -13.0490   20.2840 N   0  0  0  0  0  0  0  0  0  0  0  0
  -25.8760  -11.7640   20.5590 N   0  0  0  0  0  0  0  0  0  0  0  0
  -23.8500  -10.5370   21.0370 C   0  0  0  0  0  0  0  0  0  0  0  0
  -24.2670   -9.5720   21.9790 C   0  0  0  0  0  3  0  0  0  0  0  0
  -23.5360   -8.3780   22.1530 C   0  0  0  0  0  3  0  0  0  0  0  0
  -22.3740   -8.1380   21.3830 C   0  0  0  0  0  0  0  0  0  0  0  0
  -21.9760   -9.0910   20.4290 C   0  0  0  0  0  3  0  0  0  0  0  0
  -22.7070  -10.2770   20.2540 C   0  0  0  0  0  3  0  0  0  0  0  0
  -21.6140   -6.9970   21.4660 O   0  0  0  0  0  0  0  0  0  0  0  0
  -21.5440   -6.2610   22.6230 C   0  0  0  0  0  0  0  0  0  0  0  0
  -21.0960   -6.8260   23.8370 C   0  0  0  0  0  3  0  0  0  0  0  0
  -20.9730   -6.0180   24.9850 C   0  0  0  0  0  3  0  0  0  0  0  0
  -21.2850   -4.6460   24.9190 C   0  0  0  0  0  0  0  0  0  0  0  0
  -21.7240   -4.0820   23.7090 C   0  0  0  0  0  3  0  0  0  0  0  0
  -21.8500   -4.8870   22.5630 C   0  0  0  0  0  0  0  0  0  0  0  0
  -22.2530   -4.3330   21.3940 F   0  0  0  0  0  0  0  0  0  0  0  0
  -21.1580   -3.8680   26.0190 F   0  0  0  0  0  0  0  0  0  0  0  0
  -22.7100  -13.6260   21.1150 C   0  0  0  0  0  0  0  0  0  0  0  0
  -21.9670  -12.9380   21.9760 N   0  0  0  0  0  0  0  0  0  0  0  0
  -22.2820  -14.6450   20.5760 O   0  0  0  0  0  0  0  0  0  0  0  0
  -22.3270  -12.1140   22.4340 H   0  0  0  0  0  0  0  0  0  0  0  0
  -21.0260  -13.2400   22.1800 H   0  0  0  0  0  0  0  0  0  0  0  0
  -25.3370  -15.2940   20.3240 N   0  0  0  0  0  0  0  0  0  0  0  0
  -24.5570  -15.9390   20.4050 H   0  0  0  0  0  0  0  0  0  0  0  0
  -26.1660  -15.7260   19.9370 H   0  0  0  0  0  0  0  0  0  0  0  0
  -28.1730  -24.2070   20.6600 C   0  0  0  0  0  2  0  0  0  0  0  0
  -28.2880  -25.8510   20.3400 O   0  0  0  0  0  0  0  0  0  0  0  0
  -24.6340  -31.8710   23.2300 C   0  0  0  0  0  0  0  0  0  0  0  0
  -27.2490  -26.9370   20.3250 C   0  0  0  0  0  0  0  0  0  0  0  0
  -23.4680  -30.4420   21.6010 C   0  0  0  0  0  3  0  0  0  0  0  0
  -24.9410  -28.8200   20.2210 C   0  0  0  0  0  0  0  0  0  0  0  0
  -26.0360  -30.6640   21.4760 C   0  0  0  0  0  2  0  0  0  0  0  0
  -26.1230  -29.2400   20.8460 C   0  0  0  0  0  0  0  0  0  0  0  0
  -27.2720  -28.3230   20.8630 C   0  0  0  0  0  3  0  0  0  0  0  0
  -26.0340  -26.6720   19.6550 C   0  0  0  0  0  3  0  0  0  0  0  0
  -24.9240  -27.5580   19.6040 C   0  0  0  0  0  3  0  0  0  0  0  0
  -23.7180  -29.7380   20.2390 C   0  0  0  0  0  2  0  0  0  0  0  0
  -24.7340  -31.0220   22.1550 N   0  0  0  0  0  0  0  0  0  0  0  0
  -23.5380  -32.1580   23.7360 O   0  0  0  0  0  0  0  0  0  0  0  0
  -22.7700  -29.4580   22.5750 C   0  0  0  0  0  0  0  0  0  0  0  0
  -21.4400  -29.2870   22.4450 N   0  0  0  0  0  0  0  0  0  0  0  0
  -23.4330  -28.8450   23.4160 O   0  0  0  0  0  0  0  0  0  0  0  0
  -20.9590  -29.8310   21.7420 H   0  0  0  0  0  0  0  0  0  0  0  0
  -18.0600  -28.0710   22.9540 C   0  0  0  0  0  0  0  0  0  0  0  0
  -20.6170  -28.3550   23.2230 C   0  0  0  0  0  3  0  0  0  0  0  0
  -20.7280  -26.9160   22.6630 C   0  0  0  0  0  2  0  0  0  0  0  0
  -19.6310  -26.5790   21.6480 C   0  0  0  0  0  2  0  0  0  0  0  0
  -18.2470  -26.7190   22.2880 C   0  0  0  0  0  2  0  0  0  0  0  0
  -19.1720  -28.8460   23.3800 C   0  0  0  0  0  0  0  0  0  0  0  0
  -18.9410  -30.1100   23.9660 C   0  0  0  0  0  3  0  0  0  0  0  0
  -17.6310  -30.5970   24.1310 C   0  0  0  0  0  3  0  0  0  0  0  0
  -16.5330  -29.8210   23.7200 C   0  0  0  0  0  3  0  0  0  0  0  0
  -16.7490  -28.5590   23.1360 C   0  0  0  0  0  3  0  0  0  0  0  0
  -25.8920  -32.5360   23.8670 C   0  0  0  0  0  3  0  0  0  0  0  0
  -25.5570  -33.9360   24.1810 N   0  0  0  0  0  0  0  0  0  0  0  0
  -25.8880  -34.9940   23.4280 C   0  0  0  0  0  0  0  0  0  0  0  0
  -26.5700  -34.8940   22.4040 O   0  0  0  0  0  0  0  0  0  0  0  0
  -24.9520  -34.0840   24.9750 H   0  0  0  0  0  0  0  0  0  0  0  0
  -24.1510  -36.7820   23.0590 C   0  0  0  0  0  1  0  0  0  0  0  0
  -25.3900  -36.3830   23.8790 C   0  0  0  0  0  3  0  0  0  0  0  0
  -27.5100  -37.2900   24.7250 C   0  0  0  0  0  1  0  0  0  0  0  0
  -26.4160  -37.4440   23.7710 N   0  0  0  0  0  0  0  0  0  0  0  0
  -26.0010  -38.3620   23.9090 H   0  0  0  0  0  0  0  0  0  0  0  0
  -26.3890  -31.7940   25.1700 C   0  0  1  0  0  0  0  0  0  0  0  0
  -25.2800  -31.5720   26.2250 C   0  0  0  0  0  1  0  0  0  0  0  0
  -26.9880  -30.4120   24.8250 C   0  0  0  0  0  1  0  0  0  0  0  0
  -27.5240  -32.6100   25.8350 C   0  0  0  0  0  1  0  0  0  0  0  0
  1 20  1  0
  2  7  1  0
  3  4  1  0
  3  2  1  0
  5  4  1  0
  5 25  1  0
  5  6  1  0
  7  1  1  0
  7  6  1  0
  8  1  2  0
  9 10  2  0
  9 13  1  0
 10 11  1  0
 11 12  2  0
 12 17  1  0
 13 19  2  0
 14 11  1  0
 15 16  1  0
 15 14  1  0
 16 18  1  6
 16 10  1  0
 16 50  1  0
 19 12  1  0
 20 13  1  0
 21 20  1  0
 22 23  2  0
 23 42  1  0
 24 23  1  0
 24 27  1  0
 25 22  1  0
 25 26  1  0
 26 24  2  0
 27 28  1  0
 28 29  2  0
 30 33  1  0
 30 29  1  0
 31 30  2  0
 32 31  1  0
 32 27  2  0
 33 34  1  0
 34 35  1  0
 35 36  2  0
 37 36  1  0
 37 41  1  0
 38 37  2  0
 39 34  2  0
 39 38  1  0
 40 39  1  0
 42 43  1  0
 43 46  1  0
 43 45  1  0
 44 42  2  0
 47 48  1  0
 47 22  1  0
 49 47  1  0
 51 50  1  0
 52 63  2  0
 53 51  1  0
 53 58  1  0
 54 62  1  0
 54 64  1  0
 55 61  1  0
 55 57  1  0
 56 62  1  0
 57 58  2  0
 57 56  1  0
 59 53  2  0
 60 59  1  0
 60 55  2  0
 61 54  1  0
 62 52  1  0
 64 66  2  0
 65 64  1  0
 67 65  1  0
 68 77  2  0
 68 73  1  0
 69 65  1  0
 69 73  1  0
 70 69  1  0
 71 72  1  0
 71 70  1  0
 72 68  1  0
 73 74  2  0
 74 75  1  0
 76 75  2  0
 77 76  1  0
 78 52  1  0
 78 79  1  0
 78 88  1  0
 79 82  1  0
 80 84  1  0
 80 79  1  0
 81 80  2  0
 84 83  1  0
 86 84  1  0
 86 87  1  0
 86 85  1  0
 88 91  1  1
 88 89  1  0
 90 88  1  0
M  ISO  4   1 100  20 100  50 101  51 101
M  END
>  <TORSDO>  (2) 
F 16

>  <SCORE>  (2) 
-17.000

>  <name>  (2) 
1

>  <ligand_id>  (2) 
1

>  <original_smiles>  (2) 
[H]c1c([H])c([H])c2c(c1[H])C([H])([H])C([H])([H])C([H])([H])C2([H])N([H])C(=O)C1([H])N(C(=O)C([H])(N([H])C(=O)C([H])(N([H])C([H])([H])[H])C([H])([H])[H])C(C([H])([H])[H])(C([H])([H])[H])C([H])([H])[H])C([H])([H])c2c([H])c(OC([H])([H])C3(C([H])([H])[H])c4c([H])c(N([H])C(=O)N5C([H])([H])C([H])([H])C([H])([H])C([H])(n6nc(-c7c([H])c([H])c(Oc8c([H])c([H])c(F)c([H])c8F)c([H])c7[H])c(C(=O)N([H])[H])c6N([H])[H])C5([H])[H])nc(C([H])([H])[H])c4C([H])([H])C3([H])[H])c([H])c([H])c2C1([H])[H]

>  <smiles>  (2) 
[H]c1c([H])c([H])c2c(c1[H])C([H])([H])C([H])([H])C([H])([H])C2([H])N([H])C(=O)C1([H])N(C(=O)C([H])(N([H])C(=O)C([H])(N([H])C([H])([H])[H])C([H])([H])[H])C(C([H])([H])[H])(C([H])([H])[H])C([H])([H])[H])C([H])([H])c2c([H])c(OC([H])([H])C3(C([H])([H])[H])c4c([H])c(N([H])C(=O)N5C([H])([H])C([H])([H])C([H])([H])C([H])(n6nc(-c7c([H])c([H])c(Oc8c([H])c([H])c(F)c([H])c8F)c([H])c7[H])c(C(=O)N([H])[H])c6N([H])[H])C5([H])[H])nc(C([H])([H])[H])c4C([H])([H])C3([H])[H])c([H])c([H])c2C1([H])[H]

$$$$
2:0:0
     RDKit          3D

 91100  0  0  1  0  0  0  0  0999 V2000
  -27.2050  -21.5070   19.5490 C   0  0  0  0  0  2  0  0  0  0  0  0
  -28.2500  -21.6760   18.4830 C   0  0  0  0  0  2  0  0  0  0  0  0
  -28.6520  -21.7450   19.9400 C   0  0  2  0  0  0  0  0  0  0  0  0
  -30.5620  -15.0930   20.4570 C   0  0  0  0  0  0  0  0  0  0  0  0
  -30.4460  -12.7150   19.5480 C   0  0  0  0  0  2  0  0  0  0  0  0
  -29.5420  -12.6280   18.2980 C   0  0  0  0  0  2  0  0  0  0  0  0
  -28.0760  -12.4000   18.7090 C   0  0  0  0  0  2  0  0  0  0  0  0
  -27.6330  -13.3510   19.8510 C   0  0  0  0  0  3  0  0  0  0  0  0
  -28.6650  -13.4260   20.9980 C   0  0  0  0  0  2  0  0  0  0  0  0
  -29.9450  -13.8370   20.4000 N   0  0  0  0  0  0  0  0  0  0  0  0
  -31.7820  -15.0950   20.2390 O   0  0  0  0  0  0  0  0  0  0  0  0
  -29.1500  -18.9470   20.3490 C   0  0  0  0  0  3  0  0  0  0  0  0
  -29.5170  -20.3900   20.3890 C   0  0  0  0  0  0  0  0  0  0  0  0
  -30.1030  -17.8260   20.5450 C   0  0  0  0  0  0  0  0  0  0  0  0
  -31.6490  -19.5790   20.8210 C   0  0  0  0  0  0  0  0  0  0  0  0
  -33.0880  -19.9220   21.1480 C   0  0  0  0  0  1  0  0  0  0  0  0
  -30.8260  -20.6120   20.6100 N   0  0  0  0  0  0  0  0  0  0  0  0
  -31.3560  -18.2690   20.7950 N   0  0  0  0  0  0  0  0  0  0  0  0
  -29.7960  -16.3090   20.5090 N   0  0  0  0  0  0  0  0  0  0  0  0
  -28.8080  -16.1170   20.5090 H   0  0  0  0  0  0  0  0  0  0  0  0
  -25.2400  -13.9200   20.5520 C   0  0  0  0  0  0  0  0  0  0  0  0
  -24.1700  -13.1430   20.8970 C   0  0  0  0  0  0  0  0  0  0  0  0
  -24.6380  -11.7940   20.8810 C   0  0  0  0  0  0  0  0  0  0  0  0
  -26.2900  -13.0450   20.3300 N   0  0  0  0  0  0  0  0  0  0  0  0
  -25.9370  -11.7600   20.5990 N   0  0  0  0  0  0  0  0  0  0  0  0
  -23.9100  -10.5310   21.0600 C   0  0  0  0  0  0  0  0  0  0  0  0
  -24.3230   -9.5670   22.0050 C   0  0  0  0  0  3  0  0  0  0  0  0
  -23.5970   -8.3680   22.1710 C   0  0  0  0  0  3  0  0  0  0  0  0
  -22.4400   -8.1260   21.3920 C   0  0  0  0  0  0  0  0  0  0  0  0
  -22.0470   -9.0790   20.4360 C   0  0  0  0  0  3  0  0  0  0  0  0
  -22.7720  -10.2690   20.2680 C   0  0  0  0  0  3  0  0  0  0  0  0
  -21.6820   -6.9830   21.4680 O   0  0  0  0  0  0  0  0  0  0  0  0
  -21.6030   -6.2500   22.6240 C   0  0  0  0  0  0  0  0  0  0  0  0
  -21.1140   -6.8040   23.8270 C   0  0  0  0  0  3  0  0  0  0  0  0
  -20.9830   -5.9920   24.9730 C   0  0  0  0  0  3  0  0  0  0  0  0
  -21.3320   -4.6300   24.9160 C   0  0  0  0  0  0  0  0  0  0  0  0
  -21.8130   -4.0750   23.7160 C   0  0  0  0  0  3  0  0  0  0  0  0
  -21.9450   -4.8830   22.5740 C   0  0  0  0  0  0  0  0  0  0  0  0
  -22.3910   -4.3390   21.4150 F   0  0  0  0  0  0  0  0  0  0  0  0
  -21.1990   -3.8490   26.0140 F   0  0  0  0  0  0  0  0  0  0  0  0
  -22.7650  -13.6210   21.1330 C   0  0  0  0  0  0  0  0  0  0  0  0
  -22.0150  -12.9240   21.9790 N   0  0  0  0  0  0  0  0  0  0  0  0
  -22.3420  -14.6470   20.6040 O   0  0  0  0  0  0  0  0  0  0  0  0
  -22.3690  -12.0950   22.4330 H   0  0  0  0  0  0  0  0  0  0  0  0
  -21.0720  -13.2260   22.1790 H   0  0  0  0  0  0  0  0  0  0  0  0
  -25.4020  -15.2930   20.3820 N   0  0  0  0  0  0  0  0  0  0  0  0
  -24.6290  -15.9400   20.4960 H   0  0  0  0  0  0  0  0  0  0  0  0
  -26.2550  -15.7470   20.0830 H   0  0  0  0  0  0  0  0  0  0  0  0
  -28.9680  -23.3070   20.4740 C   0  0  0  0  0  3  0  0  0  0  0  0
  -28.0320  -24.6760   20.0630 C   0  0  0  0  0  3  0  0  0  0  0  0
  -28.2670  -26.2070   20.3190 O   0  0  0  0  0  0  0  0  0  0  0  0
  -24.6250  -31.9320   23.2390 C   0  0  0  0  0  0  0  0  0  0  0  0
  -27.2110  -27.1960   20.2280 C   0  0  0  0  0  0  0  0  0  0  0  0
  -23.4240  -30.5280   21.6060 C   0  0  0  0  0  3  0  0  0  0  0  0
  -24.8750  -28.9430   20.1850 C   0  0  0  0  0  0  0  0  0  0  0  0
  -25.9770  -30.7910   21.4390 C   0  0  0  0  0  2  0  0  0  0  0  0
  -26.0520  -29.3950   20.7950 C   0  0  0  0  0  0  0  0  0  0  0  0
  -27.2180  -28.5350   20.8050 C   0  0  0  0  0  3  0  0  0  0  0  0
  -26.0070  -26.8570   19.5680 C   0  0  0  0  0  3  0  0  0  0  0  0
  -24.8650  -27.6890   19.5570 C   0  0  0  0  0  3  0  0  0  0  0  0
  -23.6460  -29.8400   20.2300 C   0  0  0  0  0  2  0  0  0  0  0  0
  -24.6960  -31.1050   22.1510 N   0  0  0  0  0  0  0  0  0  0  0  0
  -23.5370  -32.2190   23.7630 O   0  0  0  0  0  0  0  0  0  0  0  0
  -22.7420  -29.5310   22.5740 C   0  0  0  0  0  0  0  0  0  0  0  0
  -21.4130  -29.3550   22.4440 N   0  0  0  0  0  0  0  0  0  0  0  0
  -23.4100  -28.9130   23.4070 O   0  0  0  0  0  0  0  0  0  0  0  0
  -20.9250  -29.9080   21.7530 H   0  0  0  0  0  0  0  0  0  0  0  0
  -18.0320  -28.1580   22.9560 C   0  0  0  0  0  0  0  0  0  0  0  0
  -20.5910  -28.4210   23.2180 C   0  0  0  0  0  3  0  0  0  0  0  0
  -20.6940  -26.9870   22.6500 C   0  0  0  0  0  2  0  0  0  0  0  0
  -19.5920  -26.6600   21.6370 C   0  0  0  0  0  2  0  0  0  0  0  0
  -18.2090  -26.8060   22.2820 C   0  0  0  0  0  2  0  0  0  0  0  0
  -19.1510  -28.9220   23.3810 C   0  0  0  0  0  0  0  0  0  0  0  0
  -18.9330  -30.1850   23.9740 C   0  0  0  0  0  3  0  0  0  0  0  0
  -17.6280  -30.6850   24.1440 C   0  0  0  0  0  3  0  0  0  0  0  0
  -16.5240  -29.9200   23.7330 C   0  0  0  0  0  3  0  0  0  0  0  0
  -16.7250  -28.6570   23.1460 C   0  0  0  0  0  3  0  0  0  0  0  0
  -25.9010  -32.5720   23.8650 C   0  0  0  0  0  3  0  0  0  0  0  0
  -25.5900  -33.9750   24.1870 N   0  0  0  0  0  0  0  0  0  0  0  0
  -25.9210  -35.0250   23.4240 C   0  0  0  0  0  0  0  0  0  0  0  0
  -26.5850  -34.9140   22.3900 O   0  0  0  0  0  0  0  0  0  0  0  0
  -25.0100  -34.1340   24.9980 H   0  0  0  0  0  0  0  0  0  0  0  0
  -24.2030  -36.8280   23.0620 C   0  0  0  0  0  1  0  0  0  0  0  0
  -25.4400  -36.4190   23.8770 C   0  0  0  0  0  3  0  0  0  0  0  0
  -27.5730  -37.3010   24.7150 C   0  0  0  0  0  1  0  0  0  0  0  0
  -26.4770  -37.4680   23.7640 N   0  0  0  0  0  0  0  0  0  0  0  0
  -26.0730  -38.3910   23.9020 H   0  0  0  0  0  0  0  0  0  0  0  0
  -26.4060  -31.8140   25.1570 C   0  0  1  0  0  0  0  0  0  0  0  0
  -25.3060  -31.5940   26.2220 C   0  0  0  0  0  1  0  0  0  0  0  0
  -26.9880  -30.4300   24.7930 C   0  0  0  0  0  1  0  0  0  0  0  0
  -27.5550  -32.6120   25.8180 C   0  0  0  0  0  1  0  0  0  0  0  0
  1  3  1  0
  2  1  1  0
  2  3  1  0
  3 13  1  0
  3 49  1  6
  4 19  1  0
  5 10  1  0
  6  7  1  0
  6  5  1  0
  8  7  1  0
  8 24  1  0
  8  9  1  0
 10  4  1  0
 10  9  1  0
 11  4  2  0
 12 13  2  0
 12 14  1  0
 13 17  1  0
 14 18  2  0
 15 16  1  0
 17 15  2  0
 18 15  1  0
 19 14  1  0
 20 19  1  0
 21 22  2  0
 22 41  1  0
 23 22  1  0
 23 26  1  0
 24 21  1  0
 24 25  1  0
 25 23  2  0
 26 27  1  0
 27 28  2  0
 29 32  1  0
 29 28  1  0
 30 29  2  0
 31 30  1  0
 31 26  2  0
 32 33  1  0
 33 34  1  0
 34 35  2  0
 36 35  1  0
 36 40  1  0
 37 36  2  0
 38 33  2  0
 38 37  1  0
 39 38  1  0
 41 42  1  0
 42 45  1  0
 42 44  1  0
 43 41  2  0
 46 47  1  0
 46 21  1  0
 48 46  1  0
 50 51  1  0
 50 49  2  0
 52 63  2  0
 53 51  1  0
 53 58  1  0
 54 62  1  0
 54 64  1  0
 55 61  1  0
 55 57  1  0
 56 62  1  0
 57 58  2  0
 57 56  1  0
 59 53  2  0
 60 59  1  0
 60 55  2  0
 61 54  1  0
 62 52  1  0
 64 66  2  0
 65 64  1  0
 67 65  1  0
 68 77  2  0
 68 73  1  0
 69 65  1  0
 69 73  1  0
 70 69  1  0
 71 72  1  0
 71 70  1  0
 72 68  1  0
 73 74  2  0
 74 75  1  0
 76 75  2  0
 77 76  1  0
 78 52  1  0
 78 79  1  0
 78 88  1  0
 79 82  1  0
 80 84  1  0
 80 79  1  0
 81 80  2  0
 84 83  1  0
 86 84  1  0
 86 87  1  0
 86 85  1  0
 88 91  1  1
 88 89  1  0
 90 88  1  0
M  ISO  4   4 100  19 100  50 101  51 101
M  END
>  <TORSDO>  (3) 
F 18

>  <SCORE>  (3) 
-15.607

>  <name>  (3) 
2

>  <ligand_id>  (3) 
2

>  <original_smiles>  (3) 
[H]c1c(N([H])C(=O)N2C([H])([H])C([H])([H])C([H])([H])C([H])(n3nc(-c4c([H])c([H])c(Oc5c([H])c([H])c(F)c([H])c5F)c([H])c4[H])c(C(=O)N([H])[H])c3N([H])[H])C2([H])[H])nc(C([H])([H])[H])nc1C1(C([H])([H])C([H])([H])Oc2c([H])c([H])c3c(c2[H])C([H])([H])N(C(=O)C([H])(N([H])C(=O)C([H])(N([H])C([H])([H])[H])C([H])([H])[H])C(C([H])([H])[H])(C([H])([H])[H])C([H])([H])[H])C([H])(C(=O)N([H])C2([H])c4c([H])c([H])c([H])c([H])c4C([H])([H])C([H])([H])C2([H])[H])C3([H])[H])C([H])([H])C1([H])[H]

>  <smiles>  (3) 
[H]c1c(N([H])C(=O)N2C([H])([H])C([H])([H])C([H])([H])C([H])(n3nc(-c4c([H])c([H])c(Oc5c([H])c([H])c(F)c([H])c5F)c([H])c4[H])c(C(=O)N([H])[H])c3N([H])[H])C2([H])[H])nc(C([H])([H])[H])nc1C1(C([H])([H])C([H])([H])Oc2c([H])c([H])c3c(c2[H])C([H])([H])N(C(=O)C([H])(N([H])C(=O)C([H])(N([H])C([H])([H])[H])C([H])([H])[H])C(C([H])([H])[H])(C([H])([H])[H])C([H])([H])[H])C([H])(C(=O)N([H])C2([H])c4c([H])c([H])c([H])c([H])c4C([H])([H])C([H])([H])C2([H])[H])C3([H])[H])C([H])([H])C1([H])[H]

$$$$
3:0:0
     RDKit          3D

 92101  0  0  1  0  0  0  0  0999 V2000
  -28.9730  -21.4250   21.3580 C   0  0  0  0  0  3  0  0  0  0  0  0
  -27.9320  -20.5090   21.1380 C   0  0  0  0  0  3  0  0  0  0  0  0
  -30.0090  -21.5450   20.4060 C   0  0  0  0  0  0  0  0  0  0  0  0
  -27.9200  -19.7120   19.9710 C   0  0  0  0  0  0  0  0  0  0  0  0
  -30.2840  -20.1750   19.6800 C   0  0  0  0  0  0  0  0  0  0  0  0
  -29.0750  -19.6710   19.1600 C   0  0  0  0  0  0  0  0  0  0  0  0
  -26.7010  -18.8520   19.6750 C   0  0  0  0  0  1  0  0  0  0  0  0
  -29.0900  -18.9940   17.8010 C   0  0  0  0  0  1  0  0  0  0  0  0
  -31.3100  -23.5620   19.1160 C   0  0  0  0  0  2  0  0  0  0  0  0
  -31.6820  -23.7070   20.5570 C   0  0  0  0  0  2  0  0  0  0  0  0
  -30.2770  -23.2640   20.1830 C   0  0  2  0  0  0  0  0  0  0  0  0
  -29.0890  -24.6000   20.2870 C   0  0  0  0  0  2  0  0  0  0  0  0
  -29.1460  -26.2460   20.4610 O   0  0  0  0  0  0  0  0  0  0  0  0
  -24.9210  -31.8890   23.2780 C   0  0  0  0  0  0  0  0  0  0  0  0
  -28.0320  -27.2370   20.4010 C   0  0  0  0  0  0  0  0  0  0  0  0
  -23.9490  -30.4380   21.5400 C   0  0  0  0  0  3  0  0  0  0  0  0
  -25.6020  -28.9510   20.2170 C   0  0  0  0  0  0  0  0  0  0  0  0
  -26.5000  -30.8140   21.5860 C   0  0  0  0  0  2  0  0  0  0  0  0
  -26.7120  -29.4220   20.9270 C   0  0  0  0  0  0  0  0  0  0  0  0
  -27.9230  -28.5940   20.9860 C   0  0  0  0  0  3  0  0  0  0  0  0
  -26.8720  -26.9020   19.6630 C   0  0  0  0  0  3  0  0  0  0  0  0
  -25.7100  -27.7130   19.5650 C   0  0  0  0  0  3  0  0  0  0  0  0
  -24.3260  -29.7880   20.1800 C   0  0  0  0  0  2  0  0  0  0  0  0
  -25.1410  -31.0750   22.1890 N   0  0  0  0  0  0  0  0  0  0  0  0
  -23.7750  -32.1050   23.7180 O   0  0  0  0  0  0  0  0  0  0  0  0
  -23.2450  -29.3860   22.4470 C   0  0  0  0  0  0  0  0  0  0  0  0
  -21.9290  -29.1850   22.2670 N   0  0  0  0  0  0  0  0  0  0  0  0
  -23.8960  -28.7590   23.2850 O   0  0  0  0  0  0  0  0  0  0  0  0
  -21.4630  -29.7300   21.5520 H   0  0  0  0  0  0  0  0  0  0  0  0
  -18.5550  -27.9330   22.6990 C   0  0  0  0  0  0  0  0  0  0  0  0
  -21.1130  -28.1850   22.9700 C   0  0  0  0  0  3  0  0  0  0  0  0
  -21.2130  -26.7950   22.2930 C   0  0  0  0  0  2  0  0  0  0  0  0
  -20.1040  -26.5460   21.2630 C   0  0  0  0  0  2  0  0  0  0  0  0
  -18.7270  -26.6350   21.9260 C   0  0  0  0  0  2  0  0  0  0  0  0
  -19.6740  -28.6670   23.1730 C   0  0  0  0  0  0  0  0  0  0  0  0
  -19.4570  -29.8820   23.8480 C   0  0  0  0  0  3  0  0  0  0  0  0
  -18.1500  -30.3620   24.0770 C   0  0  0  0  0  3  0  0  0  0  0  0
  -17.0440  -29.6240   23.6260 C   0  0  0  0  0  3  0  0  0  0  0  0
  -17.2500  -28.4090   22.9370 C   0  0  0  0  0  3  0  0  0  0  0  0
  -26.1000  -32.5990   24.0100 C   0  0  0  0  0  3  0  0  0  0  0  0
  -26.5100  -31.8920   25.3620 C   0  0  1  0  0  0  0  0  0  0  0  0
  -25.3190  -31.6240   26.3100 C   0  0  0  0  0  1  0  0  0  0  0  0
  -27.2080  -30.5400   25.0910 C   0  0  0  0  0  1  0  0  0  0  0  0
  -27.5260  -32.7690   26.1210 C   0  0  0  0  0  1  0  0  0  0  0  0
  -25.6930  -33.9930   24.2720 N   0  0  0  0  0  0  0  0  0  0  0  0
  -26.0150  -35.0460   23.5080 C   0  0  0  0  0  0  0  0  0  0  0  0
  -26.7490  -34.9510   22.5220 O   0  0  0  0  0  0  0  0  0  0  0  0
  -25.0330  -34.1290   25.0240 H   0  0  0  0  0  0  0  0  0  0  0  0
  -24.2090  -36.7370   23.0300 C   0  0  0  0  0  1  0  0  0  0  0  0
  -25.4370  -36.4210   23.8990 C   0  0  0  0  0  3  0  0  0  0  0  0
  -27.4810  -37.4560   24.7840 C   0  0  0  0  0  1  0  0  0  0  0  0
  -26.4120  -37.5270   23.7900 N   0  0  0  0  0  0  0  0  0  0  0  0
  -25.9500  -38.4270   23.8880 H   0  0  0  0  0  0  0  0  0  0  0  0
  -31.3160  -18.7730   19.9430 C   0  0  0  0  0  2  0  0  0  0  0  0
  -31.6630  -15.8040   20.1530 C   0  0  0  0  0  0  0  0  0  0  0  0
  -31.5940  -13.2980   19.4660 C   0  0  0  0  0  2  0  0  0  0  0  0
  -30.7050  -13.0230   18.2290 C   0  0  0  0  0  2  0  0  0  0  0  0
  -29.2420  -12.7780   18.6450 C   0  0  0  0  0  2  0  0  0  0  0  0
  -28.7700  -13.8170   19.7020 C   0  0  0  0  0  3  0  0  0  0  0  0
  -29.8020  -14.0490   20.8310 C   0  0  0  0  0  2  0  0  0  0  0  0
  -31.0500  -14.5120   20.1850 N   0  0  0  0  0  0  0  0  0  0  0  0
  -32.8910  -15.7270   19.9780 O   0  0  0  0  0  0  0  0  0  0  0  0
  -30.9710  -17.1270   20.1010 N   0  0  0  0  0  0  0  0  0  0  0  0
  -29.9780  -17.0040   20.0730 H   0  0  0  0  0  0  0  0  0  0  0  0
  -26.4280  -14.4430   20.4980 C   0  0  0  0  0  0  0  0  0  0  0  0
  -25.3310  -13.7060   20.8300 C   0  0  0  0  0  0  0  0  0  0  0  0
  -25.7300  -12.3360   20.7290 C   0  0  0  0  0  0  0  0  0  0  0  0
  -27.4290  -13.5350   20.2050 N   0  0  0  0  0  0  0  0  0  0  0  0
  -27.0210  -12.2580   20.4160 N   0  0  0  0  0  0  0  0  0  0  0  0
  -24.9370  -11.1110   20.8550 C   0  0  0  0  0  0  0  0  0  0  0  0
  -25.2630  -10.1160   21.8020 C   0  0  0  0  0  3  0  0  0  0  0  0
  -24.4710   -8.9530   21.9200 C   0  0  0  0  0  3  0  0  0  0  0  0
  -23.3440   -8.7740   21.0820 C   0  0  0  0  0  0  0  0  0  0  0  0
  -23.0380   -9.7570   20.1260 C   0  0  0  0  0  3  0  0  0  0  0  0
  -23.8310  -10.9120   20.0060 C   0  0  0  0  0  3  0  0  0  0  0  0
  -22.5340   -7.6660   21.1060 O   0  0  0  0  0  0  0  0  0  0  0  0
  -22.2350   -7.0160   22.2810 C   0  0  0  0  0  0  0  0  0  0  0  0
  -21.6240   -7.6840   23.3620 C   0  0  0  0  0  3  0  0  0  0  0  0
  -21.2700   -6.9650   24.5230 C   0  0  0  0  0  3  0  0  0  0  0  0
  -21.5190   -5.5790   24.5960 C   0  0  0  0  0  0  0  0  0  0  0  0
  -22.1190   -4.9130   23.5110 C   0  0  0  0  0  3  0  0  0  0  0  0
  -22.4740   -5.6320   22.3550 C   0  0  0  0  0  0  0  0  0  0  0  0
  -23.0360   -4.9790   21.3080 F   0  0  0  0  0  0  0  0  0  0  0  0
  -21.1720   -4.8850   25.7040 F   0  0  0  0  0  0  0  0  0  0  0  0
  -23.9580  -14.2420   21.1100 C   0  0  0  0  0  0  0  0  0  0  0  0
  -23.1990  -13.5680   21.9670 N   0  0  0  0  0  0  0  0  0  0  0  0
  -23.5630  -15.2940   20.6060 O   0  0  0  0  0  0  0  0  0  0  0  0
  -23.5290  -12.7190   22.4040 H   0  0  0  0  0  0  0  0  0  0  0  0
  -22.2750  -13.9080   22.1970 H   0  0  0  0  0  0  0  0  0  0  0  0
  -26.6420  -15.8120   20.3880 N   0  0  0  0  0  0  0  0  0  0  0  0
  -25.8800  -16.4650   20.5280 H   0  0  0  0  0  0  0  0  0  0  0  0
  -27.4810  -16.2440   20.0380 H   0  0  0  0  0  0  0  0  0  0  0  0
  2  1  1  0
  3  1  2  0
  4  2  2  0
  5 54  1  0
  5  3  1  0
  6  5  2  0
  6  4  1  0
  7  4  1  0
  8  6  1  0
  9 11  1  0
  9 10  1  0
 11 12  1  6
 11  3  1  0
 11 10  1  0
 12 13  1  0
 14 25  2  0
 15 13  1  0
 15 20  1  0
 16 24  1  0
 16 26  1  0
 17 19  1  0
 18 24  1  0
 19 20  2  0
 19 18  1  0
 21 15  2  0
 22 21  1  0
 22 17  2  0
 23 17  1  0
 23 16  1  0
 24 14  1  0
 26 28  2  0
 27 26  1  0
 29 27  1  0
 30 39  2  0
 30 35  1  0
 31 27  1  0
 31 35  1  0
 32 31  1  0
 33 34  1  0
 33 32  1  0
 34 30  1  0
 35 36  2  0
 36 37  1  0
 38 37  2  0
 39 38  1  0
 40 14  1  0
 40 45  1  0
 40 41  1  0
 41 44  1  1
 41 42  1  0
 43 41  1  0
 45 48  1  0
 46 50  1  0
 46 45  1  0
 47 46  2  0
 50 49  1  0
 52 53  1  0
 52 50  1  0
 52 51  1  0
 54 63  1  0
 55 61  1  0
 56 61  1  0
 57 58  1  0
 57 56  1  0
 59 58  1  0
 59 68  1  0
 59 60  1  0
 61 60  1  0
 62 55  2  0
 63 55  1  0
 64 63  1  0
 65 66  2  0
 66 85  1  0
 67 66  1  0
 67 70  1  0
 68 69  1  0
 68 65  1  0
 69 67  2  0
 70 71  1  0
 71 72  2  0
 73 76  1  0
 73 72  1  0
 74 73  2  0
 75 74  1  0
 75 70  2  0
 76 77  1  0
 77 82  2  0
 77 78  1  0
 78 79  2  0
 79 80  1  0
 80 84  1  0
 81 80  2  0
 82 81  1  0
 83 82  1  0
 85 86  1  0
 86 89  1  0
 86 88  1  0
 87 85  2  0
 90 65  1  0
 90 91  1  0
 92 90  1  0
M  ISO  4  12 101  13 101  55 100  63 100
M  END
>  <TORSDO>  (4) 
F 19

>  <SCORE>  (4) 
-13.749

>  <name>  (4) 
3

>  <ligand_id>  (4) 
3

>  <original_smiles>  (4) 
[H]c1c([H])c([H])c2c(c1[H])C([H])([H])C([H])([H])C([H])([H])C2([H])N([H])C(=O)C1([H])N(C(=O)C([H])(N([H])C(=O)C([H])(N([H])C([H])([H])[H])C([H])([H])[H])C(C([H])([H])[H])(C([H])([H])[H])C([H])([H])[H])C([H])([H])c2c([H])c(OC([H])([H])C3(c4c([H])c([H])c(C([H])([H])[H])c(C([H])([H])[H])c4C([H])([H])N([H])C(=O)N4C([H])([H])C([H])([H])C([H])([H])C([H])(n5nc(-c6c([H])c([H])c(Oc7c([H])c([H])c(F)c([H])c7F)c([H])c6[H])c(C(=O)N([H])[H])c5N([H])[H])C4([H])[H])C([H])([H])C3([H])[H])c([H])c([H])c2C1([H])[H]

>  <smiles>  (4) 
[H]c1c([H])c([H])c2c(c1[H])C([H])([H])C([H])([H])C([H])([H])C2([H])N([H])C(=O)C1([H])N(C(=O)C([H])(N([H])C(=O)C([H])(N([H])C([H])([H])[H])C([H])([H])[H])C(C([H])([H])[H])(C([H])([H])[H])C([H])([H])[H])C([H])([H])c2c([H])c(OC([H])([H])C3(c4c([H])c([H])c(C([H])([H])[H])c(C([H])([H])[H])c4C([H])([H])N([H])C(=O)N4C([H])([H])C([H])([H])C([H])([H])C([H])(n5nc(-c6c([H])c([H])c(Oc7c([H])c([H])c(F)c([H])c7F)c([H])c6[H])c(C(=O)N([H])[H])c5N([H])[H])C4([H])[H])C([H])([H])C3([H])[H])c([H])c([H])c2C1([H])[H]

$$$$
4:0:0
     RDKit          3D

 95104  0  0  1  0  0  0  0  0999 V2000
  -28.4930  -25.1190   18.1800 C   0  0  0  0  0  3  0  0  0  0  0  0
  -28.9280  -22.8320   18.3070 C   0  0  0  0  0  0  0  0  0  0  0  0
  -28.8680  -22.8450   19.7340 C   0  0  0  0  0  0  0  0  0  0  0  0
  -28.4650  -25.2330   19.5860 C   0  0  0  0  0  0  0  0  0  0  0  0
  -29.2280  -21.5780   17.5030 C   0  0  0  0  0  1  0  0  0  0  0  0
  -28.7350  -23.9440   17.5520 N   0  0  0  0  0  0  0  0  0  0  0  0
  -28.6570  -24.0830   20.3580 N   0  0  0  0  0  0  0  0  0  0  0  0
  -28.3870  -26.5260   20.1750 O   0  0  0  0  0  0  0  0  0  0  0  0
  -24.6160  -31.9040   23.2230 C   0  0  0  0  0  0  0  0  0  0  0  0
  -27.2700  -27.3860   20.0920 C   0  0  0  0  0  0  0  0  0  0  0  0
  -23.4280  -30.5120   21.5670 C   0  0  0  0  0  3  0  0  0  0  0  0
  -24.8910  -28.9910   20.1170 C   0  0  0  0  0  0  0  0  0  0  0  0
  -25.9650  -30.8520   21.3820 C   0  0  0  0  0  2  0  0  0  0  0  0
  -26.0560  -29.4790   20.7190 C   0  0  0  0  0  0  0  0  0  0  0  0
  -27.2450  -28.6840   20.7000 C   0  0  0  0  0  3  0  0  0  0  0  0
  -26.0740  -26.9510   19.4790 C   0  0  0  0  0  3  0  0  0  0  0  0
  -24.9020  -27.7350   19.4920 C   0  0  0  0  0  3  0  0  0  0  0  0
  -23.6470  -29.8540   20.1780 C   0  0  0  0  0  2  0  0  0  0  0  0
  -24.6900  -31.1100   22.1130 N   0  0  0  0  0  0  0  0  0  0  0  0
  -23.5300  -32.1590   23.7620 O   0  0  0  0  0  0  0  0  0  0  0  0
  -22.7780  -29.4780   22.5170 C   0  0  0  0  0  0  0  0  0  0  0  0
  -21.4510  -29.2970   22.4050 N   0  0  0  0  0  0  0  0  0  0  0  0
  -23.4690  -28.8440   23.3190 O   0  0  0  0  0  0  0  0  0  0  0  0
  -20.9520  -29.8600   21.7290 H   0  0  0  0  0  0  0  0  0  0  0  0
  -18.0850  -28.0680   22.9120 C   0  0  0  0  0  0  0  0  0  0  0  0
  -20.6440  -28.3420   23.1680 C   0  0  0  0  0  3  0  0  0  0  0  0
  -20.7530  -26.9180   22.5710 C   0  0  0  0  0  2  0  0  0  0  0  0
  -19.6450  -26.6050   21.5610 C   0  0  0  0  0  2  0  0  0  0  0  0
  -18.2670  -26.7300   22.2170 C   0  0  0  0  0  2  0  0  0  0  0  0
  -19.2020  -28.8310   23.3460 C   0  0  0  0  0  0  0  0  0  0  0  0
  -18.9770  -30.0850   23.9570 C   0  0  0  0  0  3  0  0  0  0  0  0
  -17.6690  -30.5700   24.1450 C   0  0  0  0  0  3  0  0  0  0  0  0
  -16.5670  -29.8030   23.7260 C   0  0  0  0  0  3  0  0  0  0  0  0
  -16.7780  -28.5550   23.1130 C   0  0  0  0  0  3  0  0  0  0  0  0
  -25.8900  -32.5480   23.8500 C   0  0  0  0  0  3  0  0  0  0  0  0
  -26.4210  -31.7680   25.1150 C   0  0  1  0  0  0  0  0  0  0  0  0
  -25.3390  -31.5050   26.1880 C   0  0  0  0  0  1  0  0  0  0  0  0
  -27.0140  -30.4000   24.7030 C   0  0  0  0  0  1  0  0  0  0  0  0
  -27.5640  -32.5680   25.7840 C   0  0  0  0  0  1  0  0  0  0  0  0
  -25.5590  -33.9370   24.2050 N   0  0  0  0  0  0  0  0  0  0  0  0
  -25.8940  -35.0120   23.4770 C   0  0  0  0  0  0  0  0  0  0  0  0
  -26.5800  -34.9380   22.4550 O   0  0  0  0  0  0  0  0  0  0  0  0
  -24.9520  -34.0650   25.0010 H   0  0  0  0  0  0  0  0  0  0  0  0
  -24.1680  -36.8080   23.1240 C   0  0  0  0  0  1  0  0  0  0  0  0
  -25.3860  -36.3850   23.9610 C   0  0  0  0  0  3  0  0  0  0  0  0
  -27.4940  -37.2510   24.8750 C   0  0  0  0  0  1  0  0  0  0  0  0
  -26.4150  -37.4450   23.9080 N   0  0  0  0  0  0  0  0  0  0  0  0
  -26.0000  -38.3570   24.0770 H   0  0  0  0  0  0  0  0  0  0  0  0
  -28.7860  -21.4780   20.5730 C   0  0  0  0  0  2  0  0  0  0  0  0
  -29.7690  -20.2960   20.4010 N   0  0  0  0  0  4  0  0  0  0  0  0
  -30.5830  -20.5390   20.9460 H   0  0  0  0  0  0  0  0  0  0  0  0
  -30.0720  -20.2860   19.4420 H   0  0  0  0  0  0  0  0  0  0  0  0
  -27.9540  -18.4820   20.2880 C   0  0  0  0  0  1  0  0  0  0  0  0
  -29.3730  -18.8380   20.7770 C   0  0  0  0  0  3  0  0  0  0  0  0
  -30.7350  -15.0110   20.8000 C   0  0  0  0  0  0  0  0  0  0  0  0
  -30.6490  -12.6330   20.0260 C   0  0  0  0  0  2  0  0  0  0  0  0
  -29.8300  -12.4770   18.7220 C   0  0  0  0  0  2  0  0  0  0  0  0
  -28.3090  -12.4250   19.0000 C   0  0  0  0  0  2  0  0  0  0  0  0
  -27.8120  -13.3820   20.1200 C   0  0  0  0  0  3  0  0  0  0  0  0
  -28.7770  -13.4520   21.3190 C   0  0  0  0  0  2  0  0  0  0  0  0
  -30.1020  -13.7820   20.7800 N   0  0  0  0  0  0  0  0  0  0  0  0
  -31.9650  -15.0450   20.8920 O   0  0  0  0  0  0  0  0  0  0  0  0
  -30.3650  -17.2510   18.1430 C   0  0  0  0  0  2  0  0  0  0  0  0
  -31.2240  -17.9290   19.1840 C   0  0  0  0  0  2  0  0  0  0  0  0
  -29.6870  -16.1030   18.9060 C   0  0  0  0  0  2  0  0  0  0  0  0
  -30.4750  -17.6470   20.4910 C   0  0  0  0  0  3  0  0  0  0  0  0
  -30.0410  -16.1620   20.3520 N   0  0  0  0  0  0  0  0  0  0  0  0
  -25.3670  -13.9620   20.6260 C   0  0  0  0  0  0  0  0  0  0  0  0
  -24.2820  -13.1820   20.9090 C   0  0  0  0  0  0  0  0  0  0  0  0
  -24.7640  -11.8370   20.9720 C   0  0  0  0  0  0  0  0  0  0  0  0
  -26.4400  -13.0900   20.5170 N   0  0  0  0  0  0  0  0  0  0  0  0
  -26.0800  -11.8130   20.7990 N   0  0  0  0  0  0  0  0  0  0  0  0
  -24.0410  -10.5710   21.1330 C   0  0  0  0  0  0  0  0  0  0  0  0
  -24.4130   -9.6280   22.1160 C   0  0  0  0  0  3  0  0  0  0  0  0
  -23.6880   -8.4260   22.2640 C   0  0  0  0  0  3  0  0  0  0  0  0
  -22.5800   -8.1570   21.4270 C   0  0  0  0  0  0  0  0  0  0  0  0
  -22.2280   -9.0880   20.4340 C   0  0  0  0  0  3  0  0  0  0  0  0
  -22.9550  -10.2810   20.2840 C   0  0  0  0  0  3  0  0  0  0  0  0
  -21.8360   -7.0020   21.4790 O   0  0  0  0  0  0  0  0  0  0  0  0
  -21.7220   -6.2720   22.6350 C   0  0  0  0  0  0  0  0  0  0  0  0
  -21.2200   -6.8410   23.8250 C   0  0  0  0  0  3  0  0  0  0  0  0
  -21.0470   -6.0390   24.9700 C   0  0  0  0  0  3  0  0  0  0  0  0
  -21.3700   -4.6690   24.9260 C   0  0  0  0  0  0  0  0  0  0  0  0
  -21.8690   -4.1000   23.7410 C   0  0  0  0  0  3  0  0  0  0  0  0
  -22.0410   -4.8990   22.5970 C   0  0  0  0  0  0  0  0  0  0  0  0
  -22.4970   -4.3400   21.4500 F   0  0  0  0  0  0  0  0  0  0  0  0
  -21.1970   -3.8990   26.0240 F   0  0  0  0  0  0  0  0  0  0  0  0
  -22.8580  -13.6410   21.0230 C   0  0  0  0  0  0  0  0  0  0  0  0
  -22.0610  -12.9720   21.8470 N   0  0  0  0  0  0  0  0  0  0  0  0
  -22.4580  -14.6360   20.4160 O   0  0  0  0  0  0  0  0  0  0  0  0
  -22.3960  -12.1680   22.3580 H   0  0  0  0  0  0  0  0  0  0  0  0
  -21.1030  -13.2660   21.9730 H   0  0  0  0  0  0  0  0  0  0  0  0
  -25.5350  -15.3300   20.4290 N   0  0  0  0  0  0  0  0  0  0  0  0
  -24.7720  -15.9950   20.4990 H   0  0  0  0  0  0  0  0  0  0  0  0
  -26.4210  -15.7690   20.2140 H   0  0  0  0  0  0  0  0  0  0  0  0
  1  4  1  0
  2  3  2  0
  3  7  1  0
  3 49  1  0
  4  8  1  0
  4  7  2  0
  5  2  1  0
  6  1  2  0
  6  2  1  0
  9 20  2  0
 10  8  1  0
 10 15  1  0
 11 19  1  0
 11 21  1  0
 12 18  1  0
 12 14  1  0
 13 19  1  0
 14 13  1  0
 15 14  2  0
 16 17  1  0
 16 10  2  0
 17 12  2  0
 18 11  1  0
 19  9  1  0
 21 23  2  0
 22 21  1  0
 24 22  1  0
 25 34  2  0
 25 30  1  0
 26 22  1  0
 26 30  1  0
 27 26  1  0
 28 29  1  0
 28 27  1  0
 29 25  1  0
 30 31  2  0
 31 32  1  0
 33 32  2  0
 34 33  1  0
 35  9  1  0
 35 40  1  0
 35 36  1  0
 36 39  1  1
 36 37  1  0
 38 36  1  0
 40 43  1  0
 41 45  1  0
 41 40  1  0
 42 41  2  0
 45 44  1  0
 47 45  1  0
 47 48  1  0
 47 46  1  0
 50 49  1  0
 50 54  1  0
 50 51  1  0
 52 50  1  0
 54 53  1  0
 55 62  2  0
 56 61  1  0
 57 58  1  0
 57 56  1  0
 59 58  1  0
 59 71  1  0
 59 60  1  0
 61 55  1  0
 61 60  1  0
 63 65  1  0
 63 64  1  0
 64 66  1  0
 65 67  1  0
 66 54  1  0
 67 66  1  0
 67 55  1  0
 68 69  2  0
 69 70  1  0
 69 88  1  0
 70 73  1  0
 71 68  1  0
 71 72  1  0
 72 70  2  0
 73 74  1  0
 74 75  2  0
 76 79  1  0
 76 75  1  0
 77 76  2  0
 78 77  1  0
 78 73  2  0
 79 80  1  0
 80 81  1  0
 81 82  2  0
 83 82  1  0
 83 87  1  0
 84 83  2  0
 85 80  2  0
 85 84  1  0
 86 85  1  0
 88 89  1  0
 89 92  1  0
 89 91  1  0
 90 88  2  0
 93 94  1  0
 93 68  1  0
 95 93  1  0
M  ISO  4   4 101   8 101  55 100  67 100
M  END
>  <TORSDO>  (5) 
F 19

>  <SCORE>  (5) 
-13.916

>  <name>  (5) 
4

>  <ligand_id>  (5) 
4

>  <original_smiles>  (5) 
[H]c1nc(C([H])([H])[H])c(C([H])([H])[N+]([H])([H])C([H])(C([H])([H])[H])C2([H])N(C(=O)N3C([H])([H])C([H])([H])C([H])([H])C([H])(n4nc(-c5c([H])c([H])c(Oc6c([H])c([H])c(F)c([H])c6F)c([H])c5[H])c(C(=O)N([H])[H])c4N([H])[H])C3([H])[H])C([H])([H])C([H])([H])C2([H])[H])nc1Oc1c([H])c([H])c2c(c1[H])C([H])([H])N(C(=O)C([H])(N([H])C(=O)C([H])(N([H])C([H])([H])[H])C([H])([H])[H])C(C([H])([H])[H])(C([H])([H])[H])C([H])([H])[H])C([H])(C(=O)N([H])C1([H])c3c([H])c([H])c([H])c([H])c3C([H])([H])C([H])([H])C1([H])[H])C2([H])[H]

>  <smiles>  (5) 
[H]c1nc(C([H])([H])[H])c(C([H])([H])[N+]([H])([H])C([H])(C([H])([H])[H])C2([H])N(C(=O)N3C([H])([H])C([H])([H])C([H])([H])C([H])(n4nc(-c5c([H])c([H])c(Oc6c([H])c([H])c(F)c([H])c6F)c([H])c5[H])c(C(=O)N([H])[H])c4N([H])[H])C3([H])[H])C([H])([H])C([H])([H])C2([H])[H])nc1Oc1c([H])c([H])c2c(c1[H])C([H])([H])N(C(=O)C([H])(N([H])C(=O)C([H])(N([H])C([H])([H])[H])C([H])([H])[H])C(C([H])([H])[H])(C([H])([H])[H])C([H])([H])[H])C([H])(C(=O)N([H])C1([H])c3c([H])c([H])c([H])c([H])c3C([H])([H])C([H])([H])C1([H])[H])C2([H])[H]

$$$$
5:0:0
     RDKit          3D

 95104  0  0  1  0  0  0  0  0999 V2000
  -27.9720  -21.7090   19.7890 C   0  0  0  0  0  3  0  0  0  0  0  0
  -30.4600  -22.6650   20.2280 C   0  0  0  0  0  0  0  0  0  0  0  0
  -29.4840  -23.4540   19.5470 C   0  0  0  0  0  0  0  0  0  0  0  0
  -28.9390  -20.9280   20.4740 C   0  0  0  0  0  0  0  0  0  0  0  0
  -31.8960  -23.1220   20.4210 C   0  0  0  0  0  1  0  0  0  0  0  0
  -28.2460  -22.9480   19.3100 N   0  0  0  0  0  0  0  0  0  0  0  0
  -30.1850  -21.4140   20.6920 N   0  0  0  0  0  0  0  0  0  0  0  0
  -30.4550  -24.4320   17.4560 C   0  0  0  0  0  1  0  0  0  0  0  0
  -29.8410  -24.7720   18.8260 C   0  0  0  0  0  3  0  0  0  0  0  0
  -28.6920  -25.8150   18.6540 C   0  0  0  0  0  2  0  0  0  0  0  0
  -28.4120  -26.6380   19.8020 O   0  0  0  0  0  0  0  0  0  0  0  0
  -24.6660  -31.7160   23.1400 C   0  0  0  0  0  0  0  0  0  0  0  0
  -27.2420  -27.3800   19.8170 C   0  0  0  0  0  0  0  0  0  0  0  0
  -23.4260  -30.3810   21.4710 C   0  0  0  0  0  3  0  0  0  0  0  0
  -24.8470  -28.9070   19.9480 C   0  0  0  0  0  0  0  0  0  0  0  0
  -25.9520  -30.7340   21.2440 C   0  0  0  0  0  2  0  0  0  0  0  0
  -26.0200  -29.3910   20.5400 C   0  0  0  0  0  0  0  0  0  0  0  0
  -27.2130  -28.6330   20.4800 C   0  0  0  0  0  3  0  0  0  0  0  0
  -26.0380  -26.9090   19.2360 C   0  0  0  0  0  3  0  0  0  0  0  0
  -24.8530  -27.6640   19.2950 C   0  0  0  0  0  3  0  0  0  0  0  0
  -23.6050  -29.7650   20.0600 C   0  0  0  0  0  2  0  0  0  0  0  0
  -24.7010  -30.9570   22.0080 N   0  0  0  0  0  0  0  0  0  0  0  0
  -23.5950  -31.9700   23.7100 O   0  0  0  0  0  0  0  0  0  0  0  0
  -22.7940  -29.3200   22.4020 C   0  0  0  0  0  0  0  0  0  0  0  0
  -21.4690  -29.1240   22.2770 N   0  0  0  0  0  0  0  0  0  0  0  0
  -23.4910  -28.6800   23.1940 O   0  0  0  0  0  0  0  0  0  0  0  0
  -20.9660  -29.7000   21.6150 H   0  0  0  0  0  0  0  0  0  0  0  0
  -18.1190  -27.8530   22.7370 C   0  0  0  0  0  0  0  0  0  0  0  0
  -20.6710  -28.1530   23.0240 C   0  0  0  0  0  3  0  0  0  0  0  0
  -20.8030  -26.7380   22.4170 C   0  0  0  0  0  2  0  0  0  0  0  0
  -19.7110  -26.4160   21.3920 C   0  0  0  0  0  2  0  0  0  0  0  0
  -18.3240  -26.5220   22.0330 C   0  0  0  0  0  2  0  0  0  0  0  0
  -19.2200  -28.6260   23.1880 C   0  0  0  0  0  0  0  0  0  0  0  0
  -18.9760  -29.8730   23.8030 C   0  0  0  0  0  3  0  0  0  0  0  0
  -17.6610  -30.3460   23.9710 C   0  0  0  0  0  3  0  0  0  0  0  0
  -16.5730  -29.5680   23.5370 C   0  0  0  0  0  3  0  0  0  0  0  0
  -16.8030  -28.3230   22.9260 C   0  0  0  0  0  3  0  0  0  0  0  0
  -25.9640  -32.3240   23.7570 C   0  0  0  0  0  3  0  0  0  0  0  0
  -26.5080  -31.5050   24.9900 C   0  0  1  0  0  0  0  0  0  0  0  0
  -25.4400  -31.2230   26.0720 C   0  0  0  0  0  1  0  0  0  0  0  0
  -27.0840  -30.1440   24.5320 C   0  0  0  0  0  1  0  0  0  0  0  0
  -27.6720  -32.2750   25.6580 C   0  0  0  0  0  1  0  0  0  0  0  0
  -25.6630  -33.7080   24.1440 N   0  0  0  0  0  0  0  0  0  0  0  0
  -25.9820  -34.7880   23.4180 C   0  0  0  0  0  0  0  0  0  0  0  0
  -26.6320  -34.7210   22.3710 O   0  0  0  0  0  0  0  0  0  0  0  0
  -25.0730  -33.8340   24.9550 H   0  0  0  0  0  0  0  0  0  0  0  0
  -24.2500  -36.5950   23.1590 C   0  0  0  0  0  1  0  0  0  0  0  0
  -25.5040  -36.1580   23.9350 C   0  0  0  0  0  3  0  0  0  0  0  0
  -27.6510  -37.0080   24.7690 C   0  0  0  0  0  1  0  0  0  0  0  0
  -26.5390  -37.2120   23.8460 N   0  0  0  0  0  0  0  0  0  0  0  0
  -26.1360  -38.1280   24.0320 H   0  0  0  0  0  0  0  0  0  0  0  0
  -28.6160  -19.6490   20.9670 N   0  0  0  0  0  0  0  0  0  0  0  0
  -27.6340  -19.4180   20.8470 H   0  0  0  0  0  0  0  0  0  0  0  0
  -30.9120  -14.5250   19.8580 C   0  0  0  0  0  0  0  0  0  0  0  0
  -30.5030  -12.3610   18.7560 C   0  0  0  0  0  2  0  0  0  0  0  0
  -29.4690  -12.5610   17.6320 C   0  0  0  0  0  2  0  0  0  0  0  0
  -28.0410  -12.4080   18.1870 C   0  0  0  0  0  2  0  0  0  0  0  0
  -27.8010  -13.2470   19.4720 C   0  0  0  0  0  3  0  0  0  0  0  0
  -28.9490  -13.0700   20.4900 C   0  0  0  0  0  2  0  0  0  0  0  0
  -30.2100  -13.3590   19.7950 N   0  0  0  0  0  0  0  0  0  0  0  0
  -32.0390  -14.6360   19.3640 O   0  0  0  0  0  0  0  0  0  0  0  0
  -29.2280  -17.8620   19.3510 C   0  0  0  0  0  2  0  0  0  0  0  0
  -29.4300  -17.4230   21.7760 C   0  0  0  0  0  2  0  0  0  0  0  0
  -30.1830  -16.6760   19.0830 C   0  0  0  0  0  2  0  0  0  0  0  0
  -30.4020  -16.2540   21.4790 C   0  0  0  0  0  2  0  0  0  0  0  0
  -29.5260  -18.5270   20.7030 C   0  0  0  0  0  3  0  0  0  0  0  0
  -30.1980  -15.6480   20.1500 N   0  0  0  0  0  0  0  0  0  0  0  0
  -25.4820  -13.8360   20.4130 C   0  0  0  0  0  0  0  0  0  0  0  0
  -24.4450  -13.0550   20.8480 C   0  0  0  0  0  0  0  0  0  0  0  0
  -24.8930  -11.7030   20.7340 C   0  0  0  0  0  0  0  0  0  0  0  0
  -26.4960  -12.9590   20.0650 N   0  0  0  0  0  0  0  0  0  0  0  0
  -26.1530  -11.6700   20.3160 N   0  0  0  0  0  0  0  0  0  0  0  0
  -24.1780  -10.4380   20.9490 C   0  0  0  0  0  0  0  0  0  0  0  0
  -24.6230   -9.4900   21.8980 C   0  0  0  0  0  3  0  0  0  0  0  0
  -23.9100   -8.2870   22.0980 C   0  0  0  0  0  3  0  0  0  0  0  0
  -22.7390   -8.0250   21.3480 C   0  0  0  0  0  0  0  0  0  0  0  0
  -22.3120   -8.9620   20.3900 C   0  0  0  0  0  3  0  0  0  0  0  0
  -23.0250  -10.1560   20.1890 C   0  0  0  0  0  3  0  0  0  0  0  0
  -21.9970   -6.8740   21.4570 O   0  0  0  0  0  0  0  0  0  0  0  0
  -21.8770   -6.2030   22.6480 C   0  0  0  0  0  0  0  0  0  0  0  0
  -21.3440   -6.8190   23.8000 C   0  0  0  0  0  3  0  0  0  0  0  0
  -21.1750   -6.0730   24.9840 C   0  0  0  0  0  3  0  0  0  0  0  0
  -21.5290   -4.7120   25.0160 C   0  0  0  0  0  0  0  0  0  0  0  0
  -22.0540   -4.0940   23.8680 C   0  0  0  0  0  3  0  0  0  0  0  0
  -22.2250   -4.8370   22.6870 C   0  0  0  0  0  0  0  0  0  0  0  0
  -22.7120   -4.2300   21.5770 F   0  0  0  0  0  0  0  0  0  0  0  0
  -21.3600   -3.9930   26.1510 F   0  0  0  0  0  0  0  0  0  0  0  0
  -23.0800  -13.5300   21.2580 C   0  0  0  0  0  0  0  0  0  0  0  0
  -22.4400  -12.8330   22.1910 N   0  0  0  0  0  0  0  0  0  0  0  0
  -22.5900  -14.5530   20.7840 O   0  0  0  0  0  0  0  0  0  0  0  0
  -22.8450  -12.0030   22.5950 H   0  0  0  0  0  0  0  0  0  0  0  0
  -21.5280  -13.1350   22.5010 H   0  0  0  0  0  0  0  0  0  0  0  0
  -25.6430  -15.2120   20.2630 N   0  0  0  0  0  0  0  0  0  0  0  0
  -24.9070  -15.8770   20.4710 H   0  0  0  0  0  0  0  0  0  0  0  0
  -26.4880  -15.6470   19.9170 H   0  0  0  0  0  0  0  0  0  0  0  0
  1  4  1  0
  2  5  1  0
  2  7  1  0
  3  2  2  0
  4  7  2  0
  4 52  1  0
  6  3  1  0
  6  1  2  0
  9  8  1  0
  9  3  1  0
 10  9  1  0
 10 11  1  0
 11 13  1  0
 12 23  2  0
 13 18  1  0
 14 22  1  0
 14 24  1  0
 15 21  1  0
 15 17  1  0
 16 22  1  0
 17 16  1  0
 18 17  2  0
 19 20  1  0
 19 13  2  0
 20 15  2  0
 21 14  1  0
 22 12  1  0
 24 26  2  0
 25 24  1  0
 27 25  1  0
 28 37  2  0
 28 33  1  0
 29 25  1  0
 29 33  1  0
 30 29  1  0
 31 32  1  0
 31 30  1  0
 32 28  1  0
 33 34  2  0
 34 35  1  0
 36 35  2  0
 37 36  1  0
 38 12  1  0
 38 43  1  0
 38 39  1  0
 39 42  1  1
 39 40  1  0
 41 39  1  0
 43 46  1  0
 44 48  1  0
 44 43  1  0
 45 44  2  0
 48 47  1  0
 50 48  1  0
 50 51  1  0
 50 49  1  0
 53 52  1  0
 54 67  1  0
 55 60  1  0
 56 57  1  0
 56 55  1  0
 58 57  1  0
 58 71  1  0
 58 59  1  0
 60 54  1  0
 60 59  1  0
 61 54  2  0
 62 66  1  0
 64 62  1  0
 64 67  1  0
 65 63  1  0
 66 52  1  0
 66 63  1  0
 67 65  1  0
 68 69  2  0
 69 88  1  0
 70 69  1  0
 70 73  1  0
 71 72  1  0
 71 68  1  0
 72 70  2  0
 73 74  1  0
 74 75  2  0
 76 79  1  0
 76 75  1  0
 77 76  2  0
 78 77  1  0
 78 73  2  0
 79 80  1  0
 80 85  2  0
 80 81  1  0
 81 82  2  0
 82 83  1  0
 83 87  1  0
 84 83  2  0
 85 84  1  0
 86 85  1  0
 88 89  1  0
 89 92  1  0
 89 91  1  0
 90 88  2  0
 93 68  1  0
 93 94  1  0
 95 93  1  0
M  ISO  4  10 101  11 101  54 100  67 100
M  END
>  <TORSDO>  (6) 
F 19

>  <SCORE>  (6) 
-13.432

>  <name>  (6) 
5

>  <ligand_id>  (6) 
5

>  <original_smiles>  (6) 
[H]c1nc(C([H])(C([H])([H])[H])C([H])([H])Oc2c([H])c([H])c3c(c2[H])C([H])([H])N(C(=O)C([H])(N([H])C(=O)C([H])(N([H])C([H])([H])[H])C([H])([H])[H])C(C([H])([H])[H])(C([H])([H])[H])C([H])([H])[H])C([H])(C(=O)N([H])C2([H])c4c([H])c([H])c([H])c([H])c4C([H])([H])C([H])([H])C2([H])[H])C3([H])[H])c(C([H])([H])[H])nc1N([H])C1([H])C([H])([H])C([H])([H])N(C(=O)N2C([H])([H])C([H])([H])C([H])([H])C([H])(n3nc(-c4c([H])c([H])c(Oc5c([H])c([H])c(F)c([H])c5F)c([H])c4[H])c(C(=O)N([H])[H])c3N([H])[H])C2([H])[H])C([H])([H])C1([H])[H]

>  <smiles>  (6) 
[H]c1nc(C([H])(C([H])([H])[H])C([H])([H])Oc2c([H])c([H])c3c(c2[H])C([H])([H])N(C(=O)C([H])(N([H])C(=O)C([H])(N([H])C([H])([H])[H])C([H])([H])[H])C(C([H])([H])[H])(C([H])([H])[H])C([H])([H])[H])C([H])(C(=O)N([H])C2([H])c4c([H])c([H])c([H])c([H])c4C([H])([H])C([H])([H])C2([H])[H])C3([H])[H])c(C([H])([H])[H])nc1N([H])C1([H])C([H])([H])C([H])([H])N(C(=O)N2C([H])([H])C([H])([H])C([H])([H])C([H])(n3nc(-c4c([H])c([H])c(Oc5c([H])c([H])c(F)c([H])c5F)c([H])c4[H])c(C(=O)N([H])[H])c3N([H])[H])C2([H])[H])C([H])([H])C1([H])[H]

$$$$
6:0:0
     RDKit          3D

 95104  0  0  1  0  0  0  0  0999 V2000
  -29.5010  -22.9370   19.2580 C   0  0  0  0  0  0  0  0  0  0  0  0
  -30.0180  -23.6020   18.1090 C   0  0  0  0  0  0  0  0  0  0  0  0
  -29.5840  -21.4830   19.2110 C   0  0  0  0  0  0  0  0  0  0  0  0
  -30.4290  -21.6230   17.0550 C   0  0  0  0  0  0  0  0  0  0  0  0
  -30.2080  -25.1120   17.9800 C   0  0  0  0  0  1  0  0  0  0  0  0
  -30.9420  -20.8820   15.8410 C   0  0  0  0  0  1  0  0  0  0  0  0
  -30.4560  -22.9400   17.0250 N   0  0  0  0  0  0  0  0  0  0  0  0
  -30.0300  -20.8950   18.0780 N   0  0  0  0  0  0  0  0  0  0  0  0
  -29.0030  -23.8300   20.3920 C   0  0  0  0  0  0  0  0  0  0  0  0
  -29.3400  -23.6470   21.5640 O   0  0  0  0  0  0  0  0  0  0  0  0
  -27.9550  -24.9680   20.0590 C   0  0  0  0  0  2  0  0  0  0  0  0
  -28.3100  -26.3980   20.2820 O   0  0  0  0  0  0  0  0  0  0  0  0
  -24.5880  -31.8600   23.2310 C   0  0  0  0  0  0  0  0  0  0  0  0
  -27.2290  -27.2990   20.1950 C   0  0  0  0  0  0  0  0  0  0  0  0
  -23.4090  -30.4690   21.5690 C   0  0  0  0  0  3  0  0  0  0  0  0
  -24.8790  -28.9340   20.1540 C   0  0  0  0  0  0  0  0  0  0  0  0
  -25.9530  -30.7820   21.4290 C   0  0  0  0  0  2  0  0  0  0  0  0
  -26.0420  -29.4070   20.7770 C   0  0  0  0  0  0  0  0  0  0  0  0
  -27.2220  -28.6010   20.7910 C   0  0  0  0  0  3  0  0  0  0  0  0
  -26.0440  -26.9010   19.5280 C   0  0  0  0  0  3  0  0  0  0  0  0
  -24.8830  -27.6860   19.5220 C   0  0  0  0  0  3  0  0  0  0  0  0
  -23.6450  -29.8090   20.1890 C   0  0  0  0  0  2  0  0  0  0  0  0
  -24.6690  -31.0530   22.1330 N   0  0  0  0  0  0  0  0  0  0  0  0
  -23.4960  -32.1360   23.7500 O   0  0  0  0  0  0  0  0  0  0  0  0
  -22.7320  -29.4440   22.5130 C   0  0  0  0  0  0  0  0  0  0  0  0
  -21.4080  -29.2710   22.3710 N   0  0  0  0  0  0  0  0  0  0  0  0
  -23.4000  -28.8100   23.3340 O   0  0  0  0  0  0  0  0  0  0  0  0
  -20.9250  -29.8390   21.6880 H   0  0  0  0  0  0  0  0  0  0  0  0
  -18.0200  -28.0910   22.8330 C   0  0  0  0  0  0  0  0  0  0  0  0
  -20.5770  -28.3330   23.1290 C   0  0  0  0  0  3  0  0  0  0  0  0
  -20.6760  -26.9040   22.5460 C   0  0  0  0  0  2  0  0  0  0  0  0
  -19.5820  -26.5950   21.5180 C   0  0  0  0  0  2  0  0  0  0  0  0
  -18.1950  -26.7460   22.1500 C   0  0  0  0  0  2  0  0  0  0  0  0
  -19.1380  -28.8440   23.2780 C   0  0  0  0  0  0  0  0  0  0  0  0
  -18.9210  -30.1040   23.8760 C   0  0  0  0  0  3  0  0  0  0  0  0
  -17.6190  -30.6120   24.0340 C   0  0  0  0  0  3  0  0  0  0  0  0
  -16.5130  -29.8560   23.6040 C   0  0  0  0  0  3  0  0  0  0  0  0
  -16.7150  -28.5980   23.0090 C   0  0  0  0  0  3  0  0  0  0  0  0
  -25.8610  -32.4910   23.8730 C   0  0  0  0  0  3  0  0  0  0  0  0
  -26.3580  -31.7150   25.1540 C   0  0  1  0  0  0  0  0  0  0  0  0
  -25.2520  -31.4740   26.2060 C   0  0  0  0  0  1  0  0  0  0  0  0
  -26.9480  -30.3390   24.7680 C   0  0  0  0  0  1  0  0  0  0  0  0
  -27.4980  -32.5080   25.8380 C   0  0  0  0  0  1  0  0  0  0  0  0
  -25.5450  -33.8880   24.2030 N   0  0  0  0  0  0  0  0  0  0  0  0
  -25.8820  -34.9430   23.4500 C   0  0  0  0  0  0  0  0  0  0  0  0
  -26.5610  -34.8440   22.4250 O   0  0  0  0  0  0  0  0  0  0  0  0
  -24.9430  -34.0400   24.9990 H   0  0  0  0  0  0  0  0  0  0  0  0
  -24.1570  -36.7390   23.0790 C   0  0  0  0  0  1  0  0  0  0  0  0
  -25.3870  -36.3310   23.9070 C   0  0  0  0  0  3  0  0  0  0  0  0
  -27.5070  -37.2160   24.7770 C   0  0  0  0  0  1  0  0  0  0  0  0
  -26.4200  -37.3850   23.8140 N   0  0  0  0  0  0  0  0  0  0  0  0
  -26.0110  -38.3040   23.9580 H   0  0  0  0  0  0  0  0  0  0  0  0
  -29.2580  -20.5340   20.2160 O   0  0  0  0  0  0  0  0  0  0  0  0
  -30.7210  -14.7000   20.0290 C   0  0  0  0  0  0  0  0  0  0  0  0
  -30.2980  -12.5010   18.9430 C   0  0  0  0  0  2  0  0  0  0  0  0
  -29.3000  -12.6000   17.7760 C   0  0  0  0  0  2  0  0  0  0  0  0
  -27.8630  -12.4270   18.2920 C   0  0  0  0  0  2  0  0  0  0  0  0
  -27.5690  -13.2980   19.5430 C   0  0  0  0  0  3  0  0  0  0  0  0
  -28.6940  -13.2030   20.5960 C   0  0  0  0  0  2  0  0  0  0  0  0
  -29.9400  -13.5680   19.9140 N   0  0  0  0  0  0  0  0  0  0  0  0
  -31.9080  -14.5820   19.7150 O   0  0  0  0  0  0  0  0  0  0  0  0
  -30.8820  -18.5850   20.0320 C   0  0  0  0  0  2  0  0  0  0  0  0
  -28.7180  -18.0570   20.9050 C   0  0  0  0  0  2  0  0  0  0  0  0
  -31.1010  -17.1070   19.5780 C   0  0  0  0  0  2  0  0  0  0  0  0
  -28.8640  -16.5260   20.5030 C   0  0  0  0  0  2  0  0  0  0  0  0
  -29.4240  -19.0660   19.9530 C   0  0  0  0  0  3  0  0  0  0  0  0
  -30.2170  -16.0130   20.1160 N   0  0  0  0  0  0  0  0  0  0  0  0
  -25.2270  -13.8930   20.3920 C   0  0  0  0  0  0  0  0  0  0  0  0
  -24.1770  -13.1190   20.8010 C   0  0  0  0  0  0  0  0  0  0  0  0
  -24.6320  -11.7670   20.7370 C   0  0  0  0  0  0  0  0  0  0  0  0
  -26.2540  -13.0120   20.1020 N   0  0  0  0  0  0  0  0  0  0  0  0
  -25.9070  -11.7280   20.3720 N   0  0  0  0  0  0  0  0  0  0  0  0
  -23.9110  -10.5040   20.9430 C   0  0  0  0  0  0  0  0  0  0  0  0
  -24.3600   -9.5420   21.8740 C   0  0  0  0  0  3  0  0  0  0  0  0
  -23.6380   -8.3460   22.0710 C   0  0  0  0  0  3  0  0  0  0  0  0
  -22.4510   -8.1040   21.3370 C   0  0  0  0  0  0  0  0  0  0  0  0
  -22.0230   -9.0530   20.3950 C   0  0  0  0  0  3  0  0  0  0  0  0
  -22.7460  -10.2400   20.1960 C   0  0  0  0  0  3  0  0  0  0  0  0
  -21.7000   -6.9570   21.4450 O   0  0  0  0  0  0  0  0  0  0  0  0
  -21.6460   -6.2370   22.6110 C   0  0  0  0  0  0  0  0  0  0  0  0
  -21.1910   -6.8100   23.8190 C   0  0  0  0  0  3  0  0  0  0  0  0
  -21.0860   -6.0150   24.9790 C   0  0  0  0  0  3  0  0  0  0  0  0
  -21.4250   -4.6490   24.9310 C   0  0  0  0  0  0  0  0  0  0  0  0
  -21.8730   -4.0780   23.7270 C   0  0  0  0  0  3  0  0  0  0  0  0
  -21.9800   -4.8680   22.5690 C   0  0  0  0  0  0  0  0  0  0  0  0
  -22.3910   -4.3070   21.4070 F   0  0  0  0  0  0  0  0  0  0  0  0
  -21.3170   -3.8850   26.0410 F   0  0  0  0  0  0  0  0  0  0  0  0
  -22.7940  -13.5980   21.1370 C   0  0  0  0  0  0  0  0  0  0  0  0
  -22.1040  -12.8940   22.0270 N   0  0  0  0  0  0  0  0  0  0  0  0
  -22.3390  -14.6290   20.6450 O   0  0  0  0  0  0  0  0  0  0  0  0
  -22.4870  -12.0600   22.4460 H   0  0  0  0  0  0  0  0  0  0  0  0
  -21.1800  -13.1990   22.2980 H   0  0  0  0  0  0  0  0  0  0  0  0
  -25.3870  -15.2640   20.2160 N   0  0  0  0  0  0  0  0  0  0  0  0
  -24.6320  -15.9220   20.3740 H   0  0  0  0  0  0  0  0  0  0  0  0
  -26.2240  -15.7020   19.8560 H   0  0  0  0  0  0  0  0  0  0  0  0
  1  9  1  0
  2  1  2  0
  3  1  1  0
  3 53  1  0
  4  8  1  0
  5  2  1  0
  6  4  1  0
  7  4  2  0
  7  2  1  0
  8  3  2  0
  9 10  2  0
 11 12  1  0
 11  9  1  0
 13 24  2  0
 14 12  1  0
 14 19  1  0
 15 23  1  0
 15 25  1  0
 16 22  1  0
 16 18  1  0
 17 23  1  0
 18 19  2  0
 18 17  1  0
 20 14  2  0
 21 20  1  0
 21 16  2  0
 22 15  1  0
 23 13  1  0
 25 27  2  0
 26 25  1  0
 28 26  1  0
 29 38  2  0
 29 34  1  0
 30 26  1  0
 30 34  1  0
 31 30  1  0
 32 33  1  0
 32 31  1  0
 33 29  1  0
 34 35  2  0
 35 36  1  0
 37 36  2  0
 38 37  1  0
 39 13  1  0
 39 44  1  0
 39 40  1  0
 40 43  1  1
 40 41  1  0
 42 40  1  0
 44 47  1  0
 45 49  1  0
 45 44  1  0
 46 45  2  0
 49 48  1  0
 51 49  1  0
 51 52  1  0
 51 50  1  0
 54 67  1  0
 55 60  1  0
 56 57  1  0
 56 55  1  0
 58 57  1  0
 58 71  1  0
 58 59  1  0
 60 54  1  0
 60 59  1  0
 61 54  2  0
 64 62  1  0
 64 67  1  0
 65 63  1  0
 66 62  1  0
 66 53  1  0
 66 63  1  0
 67 65  1  0
 68 69  2  0
 69 88  1  0
 70 69  1  0
 70 73  1  0
 71 72  1  0
 71 68  1  0
 72 70  2  0
 73 74  1  0
 74 75  2  0
 76 79  1  0
 76 75  1  0
 77 76  2  0
 78 77  1  0
 78 73  2  0
 79 80  1  0
 80 81  1  0
 81 82  2  0
 83 82  1  0
 83 87  1  0
 84 83  2  0
 85 80  2  0
 85 84  1  0
 86 85  1  0
 88 89  1  0
 89 92  1  0
 89 91  1  0
 90 88  2  0
 93 94  1  0
 93 68  1  0
 95 93  1  0
M  ISO  4  11 101  12 101  54 100  67 100
M  END
>  <TORSDO>  (7) 
F 19

>  <SCORE>  (7) 
-14.206

>  <name>  (7) 
6

>  <ligand_id>  (7) 
6

>  <original_smiles>  (7) 
[H]c1c([H])c([H])c2c(c1[H])C([H])([H])C([H])([H])C([H])([H])C2([H])N([H])C(=O)C1([H])N(C(=O)C([H])(N([H])C(=O)C([H])(N([H])C([H])([H])[H])C([H])([H])[H])C(C([H])([H])[H])(C([H])([H])[H])C([H])([H])[H])C([H])([H])c2c([H])c(OC([H])([H])C(=O)c3c(OC4([H])C([H])([H])C([H])([H])N(C(=O)N5C([H])([H])C([H])([H])C([H])([H])C([H])(n6nc(-c7c([H])c([H])c(Oc8c([H])c([H])c(F)c([H])c8F)c([H])c7[H])c(C(=O)N([H])[H])c6N([H])[H])C5([H])[H])C([H])([H])C4([H])[H])nc(C([H])([H])[H])nc3C([H])([H])[H])c([H])c([H])c2C1([H])[H]

>  <smiles>  (7) 
[H]c1c([H])c([H])c2c(c1[H])C([H])([H])C([H])([H])C([H])([H])C2([H])N([H])C(=O)C1([H])N(C(=O)C([H])(N([H])C(=O)C([H])(N([H])C([H])([H])[H])C([H])([H])[H])C(C([H])([H])[H])(C([H])([H])[H])C([H])([H])[H])C([H])([H])c2c([H])c(OC([H])([H])C(=O)c3c(OC4([H])C([H])([H])C([H])([H])N(C(=O)N5C([H])([H])C([H])([H])C([H])([H])C([H])(n6nc(-c7c([H])c([H])c(Oc8c([H])c([H])c(F)c([H])c8F)c([H])c7[H])c(C(=O)N([H])[H])c6N([H])[H])C5([H])[H])C([H])([H])C4([H])[H])nc(C([H])([H])[H])nc3C([H])([H])[H])c([H])c([H])c2C1([H])[H]

$$$$
7:0:0
     RDKit          3D

 89 98  0  0  1  0  0  0  0  0999 V2000
  -30.0210  -19.8260   21.5000 C   0  0  0  0  0  2  0  0  0  0  0  0
  -29.4800  -21.3980   21.5700 C   0  0  0  0  0  2  0  0  0  0  0  0
  -28.5960  -20.3610   19.7800 C   0  0  0  0  0  3  0  0  0  0  0  0
  -29.6540  -18.9490   20.2160 C   0  0  0  0  0  3  0  0  0  0  0  0
  -28.9580  -22.0970   20.2300 C   0  0  2  0  0  0  0  0  0  0  0  0
  -30.1890  -22.4640   19.3850 C   0  0  0  0  0  1  0  0  0  0  0  0
  -30.2980  -15.7880   20.1600 C   0  0  0  0  0  0  0  0  0  0  0  0
  -30.3930  -13.2510   19.3020 C   0  0  0  0  0  2  0  0  0  0  0  0
  -29.4720  -12.8490   18.1140 C   0  0  0  0  0  2  0  0  0  0  0  0
  -28.0670  -12.4730   18.6080 C   0  0  0  0  0  2  0  0  0  0  0  0
  -27.5790  -13.4550   19.6970 C   0  0  0  0  0  3  0  0  0  0  0  0
  -28.6380  -13.7690   20.7800 C   0  0  0  0  0  2  0  0  0  0  0  0
  -29.7820  -14.4160   20.0930 N   0  0  0  0  0  0  0  0  0  0  0  0
  -31.5240  -15.7300   19.9440 O   0  0  0  0  0  0  0  0  0  0  0  0
  -29.5360  -17.1550   20.2790 N   0  0  0  0  0  0  0  0  0  0  0  0
  -28.5640  -16.9160   20.4150 H   0  0  0  0  0  0  0  0  0  0  0  0
  -25.2410  -13.9470   20.5510 C   0  0  0  0  0  0  0  0  0  0  0  0
  -24.2000  -13.1490   20.9340 C   0  0  0  0  0  0  0  0  0  0  0  0
  -24.6820  -11.8060   20.8570 C   0  0  0  0  0  0  0  0  0  0  0  0
  -26.2840  -13.0910   20.2530 N   0  0  0  0  0  0  0  0  0  0  0  0
  -25.9640  -11.7940   20.5050 N   0  0  0  0  0  0  0  0  0  0  0  0
  -23.9700  -10.5320   21.0400 C   0  0  0  0  0  0  0  0  0  0  0  0
  -24.4160   -9.5600   21.9610 C   0  0  0  0  0  3  0  0  0  0  0  0
  -23.6990   -8.3560   22.1360 C   0  0  0  0  0  3  0  0  0  0  0  0
  -22.5220   -8.1150   21.3880 C   0  0  0  0  0  0  0  0  0  0  0  0
  -22.0950   -9.0760   20.4560 C   0  0  0  0  0  3  0  0  0  0  0  0
  -22.8130  -10.2710   20.2790 C   0  0  0  0  0  3  0  0  0  0  0  0
  -21.7770   -6.9640   21.4710 O   0  0  0  0  0  0  0  0  0  0  0  0
  -21.7160   -6.2280   22.6280 C   0  0  0  0  0  0  0  0  0  0  0  0
  -21.2450   -6.7800   23.8390 C   0  0  0  0  0  3  0  0  0  0  0  0
  -21.1330   -5.9690   24.9860 C   0  0  0  0  0  3  0  0  0  0  0  0
  -21.4820   -4.6080   24.9230 C   0  0  0  0  0  0  0  0  0  0  0  0
  -21.9470   -4.0540   23.7170 C   0  0  0  0  0  3  0  0  0  0  0  0
  -22.0600   -4.8620   22.5720 C   0  0  0  0  0  0  0  0  0  0  0  0
  -22.4870   -4.3180   21.4070 F   0  0  0  0  0  0  0  0  0  0  0  0
  -21.3690   -3.8270   26.0240 F   0  0  0  0  0  0  0  0  0  0  0  0
  -22.8070  -13.6070   21.2490 C   0  0  0  0  0  0  0  0  0  0  0  0
  -22.1130  -12.8960   22.1300 N   0  0  0  0  0  0  0  0  0  0  0  0
  -22.3460  -14.6330   20.7510 O   0  0  0  0  0  0  0  0  0  0  0  0
  -22.5020  -12.0670   22.5540 H   0  0  0  0  0  0  0  0  0  0  0  0
  -21.1800  -13.1860   22.3850 H   0  0  0  0  0  0  0  0  0  0  0  0
  -25.3800  -15.3230   20.3970 N   0  0  0  0  0  0  0  0  0  0  0  0
  -24.6040  -15.9610   20.5380 H   0  0  0  0  0  0  0  0  0  0  0  0
  -26.2020  -15.7760   20.0190 H   0  0  0  0  0  0  0  0  0  0  0  0
  -27.1650  -19.3170   17.8250 C   0  0  0  0  0  2  0  0  0  0  0  0
  -26.9080  -20.8080   17.8060 C   0  0  0  0  0  2  0  0  0  0  0  0
  -28.2270  -20.2750   18.3110 C   0  0  0  0  0  3  0  0  0  0  0  0
  -27.9960  -23.8150   20.2480 C   0  0  0  0  0  2  0  0  0  0  0  0
  -28.1800  -25.5790   20.3630 O   0  0  0  0  0  0  0  0  0  0  0  0
  -24.7050  -31.9300   23.2500 C   0  0  0  0  0  0  0  0  0  0  0  0
  -27.2100  -26.8020   20.3030 C   0  0  0  0  0  0  0  0  0  0  0  0
  -23.5120  -30.5240   21.6260 C   0  0  0  0  0  3  0  0  0  0  0  0
  -24.9520  -28.8560   20.2280 C   0  0  0  0  0  0  0  0  0  0  0  0
  -26.0920  -30.6500   21.5040 C   0  0  0  0  0  2  0  0  0  0  0  0
  -26.1500  -29.2100   20.8590 C   0  0  0  0  0  0  0  0  0  0  0  0
  -27.2630  -28.2120   20.8620 C   0  0  0  0  0  3  0  0  0  0  0  0
  -25.9770  -26.6620   19.6150 C   0  0  0  0  0  3  0  0  0  0  0  0
  -24.9060  -27.6080   19.5810 C   0  0  0  0  0  3  0  0  0  0  0  0
  -23.7490  -29.8140   20.2610 C   0  0  0  0  0  2  0  0  0  0  0  0
  -24.7940  -31.0690   22.1790 N   0  0  0  0  0  0  0  0  0  0  0  0
  -23.6130  -32.2400   23.7580 O   0  0  0  0  0  0  0  0  0  0  0  0
  -22.7900  -29.5600   22.6050 C   0  0  0  0  0  0  0  0  0  0  0  0
  -21.4570  -29.4020   22.4740 N   0  0  0  0  0  0  0  0  0  0  0  0
  -23.4400  -28.9500   23.4570 O   0  0  0  0  0  0  0  0  0  0  0  0
  -20.9830  -29.9460   21.7660 H   0  0  0  0  0  0  0  0  0  0  0  0
  -18.0710  -28.1810   22.9730 C   0  0  0  0  0  0  0  0  0  0  0  0
  -20.6280  -28.4750   23.2540 C   0  0  0  0  0  3  0  0  0  0  0  0
  -20.7440  -27.0330   22.7070 C   0  0  0  0  0  2  0  0  0  0  0  0
  -19.6540  -26.6850   21.6870 C   0  0  0  0  0  2  0  0  0  0  0  0
  -18.2660  -26.8260   22.3150 C   0  0  0  0  0  2  0  0  0  0  0  0
  -19.1790  -28.9630   23.3990 C   0  0  0  0  0  0  0  0  0  0  0  0
  -18.9410  -30.2270   23.9800 C   0  0  0  0  0  3  0  0  0  0  0  0
  -17.6280  -30.7120   24.1350 C   0  0  0  0  0  3  0  0  0  0  0  0
  -16.5360  -29.9310   23.7220 C   0  0  0  0  0  3  0  0  0  0  0  0
  -16.7570  -28.6670   23.1470 C   0  0  0  0  0  3  0  0  0  0  0  0
  -25.9700  -32.5820   23.8880 C   0  0  0  0  0  3  0  0  0  0  0  0
  -25.6490  -33.9830   24.2220 N   0  0  0  0  0  0  0  0  0  0  0  0
  -25.9510  -35.0490   23.4660 C   0  0  0  0  0  0  0  0  0  0  0  0
  -26.5860  -34.9540   22.4130 O   0  0  0  0  0  0  0  0  0  0  0  0
  -25.0780  -34.1300   25.0420 H   0  0  0  0  0  0  0  0  0  0  0  0
  -24.1850  -36.8320   23.2180 C   0  0  0  0  0  1  0  0  0  0  0  0
  -25.4790  -36.4360   23.9510 C   0  0  0  0  0  3  0  0  0  0  0  0
  -27.6460  -37.3580   24.6530 C   0  0  0  0  0  1  0  0  0  0  0  0
  -26.4900  -37.5020   23.7710 N   0  0  0  0  0  0  0  0  0  0  0  0
  -26.0810  -38.4180   23.9330 H   0  0  0  0  0  0  0  0  0  0  0  0
  -26.4680  -31.8270   25.1820 C   0  0  1  0  0  0  0  0  0  0  0  0
  -25.3680  -31.6340   26.2540 C   0  0  0  0  0  1  0  0  0  0  0  0
  -27.0240  -30.4290   24.8320 C   0  0  0  0  0  1  0  0  0  0  0  0
  -27.6340  -32.6100   25.8310 C   0  0  0  0  0  1  0  0  0  0  0  0
  1  2  1  0
  3 47  1  0
  3  4  1  0
  3  5  1  0
  4 15  1  0
  4  1  1  0
  5  6  1  6
  5 48  1  0
  5  2  1  0
  7 15  1  0
  8 13  1  0
  9 10  1  0
  9  8  1  0
 11 10  1  0
 11 20  1  0
 11 12  1  0
 13  7  1  0
 13 12  1  0
 14  7  2  0
 15 16  1  0
 17 18  2  0
 18 37  1  0
 19 18  1  0
 19 22  1  0
 20 21  1  0
 20 17  1  0
 21 19  2  0
 22 23  1  0
 23 24  2  0
 25 28  1  0
 25 24  1  0
 26 25  2  0
 27 26  1  0
 27 22  2  0
 28 29  1  0
 29 30  1  0
 30 31  2  0
 32 31  1  0
 32 36  1  0
 33 32  2  0
 34 29  2  0
 34 33  1  0
 35 34  1  0
 37 38  1  0
 38 41  1  0
 38 40  1  0
 39 37  2  0
 42 43  1  0
 42 17  1  0
 44 42  1  0
 45 47  1  0
 46 45  1  0
 46 47  1  0
 48 49  1  0
 50 61  2  0
 51 49  1  0
 51 56  1  0
 52 60  1  0
 52 62  1  0
 53 59  1  0
 53 55  1  0
 54 60  1  0
 55 56  2  0
 55 54  1  0
 57 51  2  0
 58 57  1  0
 58 53  2  0
 59 52  1  0
 60 50  1  0
 62 64  2  0
 63 62  1  0
 65 63  1  0
 66 75  2  0
 66 71  1  0
 67 63  1  0
 67 71  1  0
 68 67  1  0
 69 70  1  0
 69 68  1  0
 70 66  1  0
 71 72  2  0
 72 73  1  0
 74 73  2  0
 75 74  1  0
 76 50  1  0
 76 77  1  0
 76 86  1  0
 77 80  1  0
 78 82  1  0
 78 77  1  0
 79 78  2  0
 82 81  1  0
 84 85  1  0
 84 82  1  0
 84 83  1  0
 86 89  1  1
 86 87  1  0
 88 86  1  0
M  ISO  4   7 100  15 100  48 101  49 101
M  END
>  <TORSDO>  (8) 
F 18

>  <SCORE>  (8) 
-16.356

>  <name>  (8) 
7

>  <ligand_id>  (8) 
7

>  <original_smiles>  (8) 
[H]c1c([H])c([H])c2c(c1[H])C([H])([H])C([H])([H])C([H])([H])C2([H])N([H])C(=O)C1([H])N(C(=O)C([H])(N([H])C(=O)C([H])(N([H])C([H])([H])[H])C([H])([H])[H])C(C([H])([H])[H])(C([H])([H])[H])C([H])([H])[H])C([H])([H])c2c([H])c(OC([H])([H])C3(C([H])([H])[H])C([H])([H])C([H])([H])C([H])(N([H])C(=O)N4C([H])([H])C([H])([H])C([H])([H])C([H])(n5nc(-c6c([H])c([H])c(Oc7c([H])c([H])c(F)c([H])c7F)c([H])c6[H])c(C(=O)N([H])[H])c5N([H])[H])C4([H])[H])C3([H])C3([H])C([H])([H])C3([H])[H])c([H])c([H])c2C1([H])[H]

>  <smiles>  (8) 
[H]c1c([H])c([H])c2c(c1[H])C([H])([H])C([H])([H])C([H])([H])C2([H])N([H])C(=O)C1([H])N(C(=O)C([H])(N([H])C(=O)C([H])(N([H])C([H])([H])[H])C([H])([H])[H])C(C([H])([H])[H])(C([H])([H])[H])C([H])([H])[H])C([H])([H])c2c([H])c(OC([H])([H])C3(C([H])([H])[H])C([H])([H])C([H])([H])C([H])(N([H])C(=O)N4C([H])([H])C([H])([H])C([H])([H])C([H])(n5nc(-c6c([H])c([H])c(Oc7c([H])c([H])c(F)c([H])c7F)c([H])c6[H])c(C(=O)N([H])[H])c5N([H])[H])C4([H])[H])C3([H])C3([H])C([H])([H])C3([H])[H])c([H])c([H])c2C1([H])[H]

$$$$
8:0:0
     RDKit          3D

 90 99  0  0  1  0  0  0  0  0999 V2000
  -30.4760  -15.1120   20.3770 C   0  0  0  0  0  0  0  0  0  0  0  0
  -30.4220  -12.7080   19.4960 C   0  0  0  0  0  2  0  0  0  0  0  0
  -29.5230  -12.5940   18.2410 C   0  0  0  0  0  2  0  0  0  0  0  0
  -28.0540  -12.3680   18.6430 C   0  0  0  0  0  2  0  0  0  0  0  0
  -27.6040  -13.3170   19.7830 C   0  0  0  0  0  3  0  0  0  0  0  0
  -28.6300  -13.3850   20.9340 C   0  0  0  0  0  2  0  0  0  0  0  0
  -29.9030  -13.8270   20.3470 N   0  0  0  0  0  0  0  0  0  0  0  0
  -31.6890  -15.1450   20.1220 O   0  0  0  0  0  0  0  0  0  0  0  0
  -28.7620  -18.8550   20.6650 C   0  0  0  0  0  3  0  0  0  0  0  0
  -28.8910  -20.3190   20.4530 C   0  0  0  0  0  0  0  0  0  0  0  0
  -30.0620  -20.7980   19.9120 C   0  0  0  0  0  0  0  0  0  0  0  0
  -31.0670  -19.8250   19.6210 C   0  0  0  0  0  0  0  0  0  0  0  0
  -29.8170  -17.8580   20.3470 C   0  0  0  0  0  0  0  0  0  0  0  0
  -27.9660  -21.6060   20.6800 C   0  0  0  0  0  2  0  0  0  0  0  0
  -30.0330  -22.3710   19.7110 C   0  0  0  0  0  2  0  0  0  0  0  0
  -28.7780  -23.0330   20.4660 C   0  0  0  0  0  3  0  0  0  0  0  0
  -32.3880  -20.2730   19.0310 C   0  0  0  0  0  1  0  0  0  0  0  0
  -30.9400  -18.4600   19.8320 N   0  0  0  0  0  0  0  0  0  0  0  0
  -29.6740  -16.3070   20.5320 N   0  0  0  0  0  0  0  0  0  0  0  0
  -28.7330  -16.0530   20.7860 H   0  0  0  0  0  0  0  0  0  0  0  0
  -25.2060  -13.8910   20.4550 C   0  0  0  0  0  0  0  0  0  0  0  0
  -24.1370  -13.1170   20.8110 C   0  0  0  0  0  0  0  0  0  0  0  0
  -24.6080  -11.7680   20.8160 C   0  0  0  0  0  0  0  0  0  0  0  0
  -26.2590  -13.0140   20.2550 N   0  0  0  0  0  0  0  0  0  0  0  0
  -25.9070  -11.7320   20.5400 N   0  0  0  0  0  0  0  0  0  0  0  0
  -23.8810  -10.5050   21.0080 C   0  0  0  0  0  0  0  0  0  0  0  0
  -24.2990   -9.5480   21.9570 C   0  0  0  0  0  3  0  0  0  0  0  0
  -23.5700   -8.3520   22.1380 C   0  0  0  0  0  3  0  0  0  0  0  0
  -22.4080   -8.1060   21.3680 C   0  0  0  0  0  0  0  0  0  0  0  0
  -22.0080   -9.0540   20.4090 C   0  0  0  0  0  3  0  0  0  0  0  0
  -22.7380  -10.2410   20.2270 C   0  0  0  0  0  3  0  0  0  0  0  0
  -21.6510   -6.9630   21.4570 O   0  0  0  0  0  0  0  0  0  0  0  0
  -21.5940   -6.2260   22.6130 C   0  0  0  0  0  0  0  0  0  0  0  0
  -21.1690   -6.7890   23.8350 C   0  0  0  0  0  3  0  0  0  0  0  0
  -21.0580   -5.9790   24.9830 C   0  0  0  0  0  3  0  0  0  0  0  0
  -21.3620   -4.6070   24.9090 C   0  0  0  0  0  0  0  0  0  0  0  0
  -21.7810   -4.0430   23.6910 C   0  0  0  0  0  3  0  0  0  0  0  0
  -21.8930   -4.8510   22.5450 C   0  0  0  0  0  0  0  0  0  0  0  0
  -22.2770   -4.2970   21.3700 F   0  0  0  0  0  0  0  0  0  0  0  0
  -21.2490   -3.8270   26.0100 F   0  0  0  0  0  0  0  0  0  0  0  0
  -22.7310  -13.5930   21.0330 C   0  0  0  0  0  0  0  0  0  0  0  0
  -21.9840  -12.9160   21.8980 N   0  0  0  0  0  0  0  0  0  0  0  0
  -22.3030  -14.6020   20.4750 O   0  0  0  0  0  0  0  0  0  0  0  0
  -22.3430  -12.1000   22.3720 H   0  0  0  0  0  0  0  0  0  0  0  0
  -21.0390  -13.2190   22.0910 H   0  0  0  0  0  0  0  0  0  0  0  0
  -25.3670  -15.2590   20.2540 N   0  0  0  0  0  0  0  0  0  0  0  0
  -24.5850  -15.9020   20.3210 H   0  0  0  0  0  0  0  0  0  0  0  0
  -26.1980  -15.6900   19.8760 H   0  0  0  0  0  0  0  0  0  0  0  0
  -28.0030  -24.5160   19.9770 C   0  0  0  0  0  2  0  0  0  0  0  0
  -28.2700  -26.0670   20.2330 O   0  0  0  0  0  0  0  0  0  0  0  0
  -24.6720  -31.8550   23.2220 C   0  0  0  0  0  0  0  0  0  0  0  0
  -27.2380  -27.1010   20.1590 C   0  0  0  0  0  0  0  0  0  0  0  0
  -23.4700  -30.4690   21.5760 C   0  0  0  0  0  3  0  0  0  0  0  0
  -24.9180  -28.8960   20.1350 C   0  0  0  0  0  0  0  0  0  0  0  0
  -26.0290  -30.7180   21.4140 C   0  0  0  0  0  2  0  0  0  0  0  0
  -26.1010  -29.3240   20.7500 C   0  0  0  0  0  0  0  0  0  0  0  0
  -27.2590  -28.4440   20.7420 C   0  0  0  0  0  3  0  0  0  0  0  0
  -26.0270  -26.7990   19.4950 C   0  0  0  0  0  3  0  0  0  0  0  0
  -24.8980  -27.6510   19.4900 C   0  0  0  0  0  3  0  0  0  0  0  0
  -23.6920  -29.8000   20.1920 C   0  0  0  0  0  2  0  0  0  0  0  0
  -24.7450  -31.0380   22.1250 N   0  0  0  0  0  0  0  0  0  0  0  0
  -23.5850  -32.1370   23.7520 O   0  0  0  0  0  0  0  0  0  0  0  0
  -22.7900  -29.4590   22.5340 C   0  0  0  0  0  0  0  0  0  0  0  0
  -21.4590  -29.2960   22.4160 N   0  0  0  0  0  0  0  0  0  0  0  0
  -23.4620  -28.8240   23.3510 O   0  0  0  0  0  0  0  0  0  0  0  0
  -20.9720  -29.8590   21.7340 H   0  0  0  0  0  0  0  0  0  0  0  0
  -18.0780  -28.0940   22.9280 C   0  0  0  0  0  0  0  0  0  0  0  0
  -20.6390  -28.3540   23.1850 C   0  0  0  0  0  3  0  0  0  0  0  0
  -20.7360  -26.9260   22.5990 C   0  0  0  0  0  2  0  0  0  0  0  0
  -19.6300  -26.6110   21.5880 C   0  0  0  0  0  2  0  0  0  0  0  0
  -18.2510  -26.7510   22.2390 C   0  0  0  0  0  2  0  0  0  0  0  0
  -19.1990  -28.8540   23.3580 C   0  0  0  0  0  0  0  0  0  0  0  0
  -18.9820  -30.1090   23.9640 C   0  0  0  0  0  3  0  0  0  0  0  0
  -17.6770  -30.6060   24.1450 C   0  0  0  0  0  3  0  0  0  0  0  0
  -16.5710  -29.8440   23.7290 C   0  0  0  0  0  3  0  0  0  0  0  0
  -16.7730  -28.5890   23.1280 C   0  0  0  0  0  3  0  0  0  0  0  0
  -25.9480  -32.4900   23.8520 C   0  0  0  0  0  3  0  0  0  0  0  0
  -25.6300  -33.8830   24.2060 N   0  0  0  0  0  0  0  0  0  0  0  0
  -25.9400  -34.9530   23.4600 C   0  0  0  0  0  0  0  0  0  0  0  0
  -26.5900  -34.8710   22.4150 O   0  0  0  0  0  0  0  0  0  0  0  0
  -25.0500  -34.0200   25.0200 H   0  0  0  0  0  0  0  0  0  0  0  0
  -24.1840  -36.7360   23.1890 C   0  0  0  0  0  1  0  0  0  0  0  0
  -25.4560  -36.3320   23.9520 C   0  0  0  0  0  3  0  0  0  0  0  0
  -27.6090  -37.2310   24.7190 C   0  0  0  0  0  1  0  0  0  0  0  0
  -26.4740  -37.3980   23.8160 N   0  0  0  0  0  0  0  0  0  0  0  0
  -26.0640  -38.3120   23.9870 H   0  0  0  0  0  0  0  0  0  0  0  0
  -26.4660  -31.7090   25.1230 C   0  0  1  0  0  0  0  0  0  0  0  0
  -25.3750  -31.4640   26.1910 C   0  0  0  0  0  1  0  0  0  0  0  0
  -27.0490  -30.3340   24.7240 C   0  0  0  0  0  1  0  0  0  0  0  0
  -27.6180  -32.4980   25.7880 C   0  0  0  0  0  1  0  0  0  0  0  0
  1 19  1  0
  2  7  1  0
  3  4  1  0
  3  2  1  0
  5  4  1  0
  5 24  1  0
  5  6  1  0
  7  1  1  0
  7  6  1  0
  8  1  2  0
 10  9  1  0
 10 14  1  0
 11 10  2  0
 12 18  2  0
 12 11  1  0
 13 19  1  0
 13  9  2  0
 15 11  1  0
 15 16  1  0
 16 49  1  0
 16 14  1  0
 17 12  1  0
 18 13  1  0
 19 20  1  0
 21 22  2  0
 22 23  1  0
 22 41  1  0
 23 26  1  0
 24 21  1  0
 24 25  1  0
 25 23  2  0
 26 27  1  0
 27 28  2  0
 29 32  1  0
 29 28  1  0
 30 29  2  0
 31 30  1  0
 31 26  2  0
 32 33  1  0
 33 34  1  0
 34 35  2  0
 36 35  1  0
 36 40  1  0
 37 36  2  0
 38 33  2  0
 38 37  1  0
 39 38  1  0
 41 42  1  0
 42 45  1  0
 42 44  1  0
 43 41  2  0
 46 47  1  0
 46 21  1  0
 48 46  1  0
 49 50  1  0
 51 62  2  0
 52 50  1  0
 52 57  1  0
 53 61  1  0
 53 63  1  0
 54 60  1  0
 54 56  1  0
 55 61  1  0
 56 55  1  0
 57 56  2  0
 58 52  2  0
 59 58  1  0
 59 54  2  0
 60 53  1  0
 61 51  1  0
 63 65  2  0
 64 63  1  0
 66 64  1  0
 67 76  2  0
 67 72  1  0
 68 64  1  0
 68 72  1  0
 69 68  1  0
 70 71  1  0
 70 69  1  0
 71 67  1  0
 72 73  2  0
 73 74  1  0
 75 74  2  0
 76 75  1  0
 77 51  1  0
 77 78  1  0
 77 87  1  0
 78 81  1  0
 79 83  1  0
 79 78  1  0
 80 79  2  0
 83 82  1  0
 85 83  1  0
 85 86  1  0
 85 84  1  0
 87 90  1  1
 87 88  1  0
 89 87  1  0
M  ISO  4   1 100  19 100  49 101  50 101
M  END
>  <TORSDO>  (9) 
F 16

>  <SCORE>  (9) 
-16.108

>  <name>  (9) 
8

>  <ligand_id>  (9) 
8

>  <original_smiles>  (9) 
[H]c1c([H])c([H])c2c(c1[H])C([H])([H])C([H])([H])C([H])([H])C2([H])N([H])C(=O)C1([H])N(C(=O)C([H])(N([H])C(=O)C([H])(N([H])C([H])([H])[H])C([H])([H])[H])C(C([H])([H])[H])(C([H])([H])[H])C([H])([H])[H])C([H])([H])c2c([H])c(OC([H])([H])C3([H])C([H])([H])c4c(C([H])([H])[H])nc(N([H])C(=O)N5C([H])([H])C([H])([H])C([H])([H])C([H])(n6nc(-c7c([H])c([H])c(Oc8c([H])c([H])c(F)c([H])c8F)c([H])c7[H])c(C(=O)N([H])[H])c6N([H])[H])C5([H])[H])c([H])c4C3([H])[H])c([H])c([H])c2C1([H])[H]

>  <smiles>  (9) 
[H]c1c([H])c([H])c2c(c1[H])C([H])([H])C([H])([H])C([H])([H])C2([H])N([H])C(=O)C1([H])N(C(=O)C([H])(N([H])C(=O)C([H])(N([H])C([H])([H])[H])C([H])([H])[H])C(C([H])([H])[H])(C([H])([H])[H])C([H])([H])[H])C([H])([H])c2c([H])c(OC([H])([H])C3([H])C([H])([H])c4c(C([H])([H])[H])nc(N([H])C(=O)N5C([H])([H])C([H])([H])C([H])([H])C([H])(n6nc(-c7c([H])c([H])c(Oc8c([H])c([H])c(F)c([H])c8F)c([H])c7[H])c(C(=O)N([H])[H])c6N([H])[H])C5([H])[H])c([H])c4C3([H])[H])c([H])c([H])c2C1([H])[H]

$$$$
9:0:0
     RDKit          3D

 88 96  0  0  1  0  0  0  0  0999 V2000
  -30.3950  -15.2630   20.3830 C   0  0  0  0  0  0  0  0  0  0  0  0
  -30.3860  -12.8400   19.4590 C   0  0  0  0  0  2  0  0  0  0  0  0
  -29.4630  -12.6740   18.2260 C   0  0  0  0  0  2  0  0  0  0  0  0
  -28.0070  -12.4100   18.6570 C   0  0  0  0  0  2  0  0  0  0  0  0
  -27.5610  -13.3520   19.8020 C   0  0  0  0  0  3  0  0  0  0  0  0
  -28.6080  -13.4520   20.9310 C   0  0  0  0  0  2  0  0  0  0  0  0
  -29.8460  -13.9550   20.3130 N   0  0  0  0  0  0  0  0  0  0  0  0
  -31.6180  -15.2980   20.1750 O   0  0  0  0  0  0  0  0  0  0  0  0
  -30.3390  -20.4270   20.8300 C   0  0  0  0  0  3  0  0  0  0  0  0
  -28.3630  -18.8630   20.0860 C   0  0  0  0  0  3  0  0  0  0  0  0
  -29.1490  -21.2010   20.4620 C   0  0  0  0  0  0  0  0  0  0  0  0
  -29.5520  -18.0810   20.4540 C   0  0  0  0  0  0  0  0  0  0  0  0
  -28.1790  -20.2820   20.0590 N   0  0  0  0  0  0  0  0  0  0  0  0
  -30.5280  -19.0090   20.8280 N   0  0  0  0  0  0  0  0  0  0  0  0
  -29.5530  -16.4700   20.4550 N   0  0  0  0  0  0  0  0  0  0  0  0
  -28.5990  -16.1450   20.4720 H   0  0  0  0  0  0  0  0  0  0  0  0
  -25.1820  -13.9110   20.5370 C   0  0  0  0  0  0  0  0  0  0  0  0
  -24.1190  -13.1340   20.9000 C   0  0  0  0  0  0  0  0  0  0  0  0
  -24.5880  -11.7840   20.8710 C   0  0  0  0  0  0  0  0  0  0  0  0
  -26.2280  -13.0370   20.2990 N   0  0  0  0  0  0  0  0  0  0  0  0
  -25.8820  -11.7520   20.5690 N   0  0  0  0  0  0  0  0  0  0  0  0
  -23.8620  -10.5210   21.0530 C   0  0  0  0  0  0  0  0  0  0  0  0
  -24.2840   -9.5520   21.9900 C   0  0  0  0  0  3  0  0  0  0  0  0
  -23.5550   -8.3560   22.1620 C   0  0  0  0  0  3  0  0  0  0  0  0
  -22.3890   -8.1180   21.3950 C   0  0  0  0  0  0  0  0  0  0  0  0
  -21.9860   -9.0760   20.4470 C   0  0  0  0  0  3  0  0  0  0  0  0
  -22.7160  -10.2630   20.2740 C   0  0  0  0  0  3  0  0  0  0  0  0
  -21.6330   -6.9740   21.4750 O   0  0  0  0  0  0  0  0  0  0  0  0
  -21.5640   -6.2370   22.6300 C   0  0  0  0  0  0  0  0  0  0  0  0
  -21.1220   -6.7990   23.8470 C   0  0  0  0  0  3  0  0  0  0  0  0
  -20.9990   -5.9880   24.9940 C   0  0  0  0  0  3  0  0  0  0  0  0
  -21.3090   -4.6160   24.9240 C   0  0  0  0  0  0  0  0  0  0  0  0
  -21.7450   -4.0550   23.7110 C   0  0  0  0  0  3  0  0  0  0  0  0
  -21.8680   -4.8620   22.5660 C   0  0  0  0  0  0  0  0  0  0  0  0
  -22.2680   -4.3110   21.3950 F   0  0  0  0  0  0  0  0  0  0  0  0
  -21.1850   -3.8360   26.0220 F   0  0  0  0  0  0  0  0  0  0  0  0
  -22.7190  -13.6080   21.1540 C   0  0  0  0  0  0  0  0  0  0  0  0
  -21.9830  -12.9160   22.0160 N   0  0  0  0  0  0  0  0  0  0  0  0
  -22.2850  -14.6300   20.6230 O   0  0  0  0  0  0  0  0  0  0  0  0
  -22.3470  -12.0910   22.4700 H   0  0  0  0  0  0  0  0  0  0  0  0
  -21.0440  -13.2180   22.2290 H   0  0  0  0  0  0  0  0  0  0  0  0
  -25.3400  -15.2830   20.3590 N   0  0  0  0  0  0  0  0  0  0  0  0
  -24.5560  -15.9210   20.4500 H   0  0  0  0  0  0  0  0  0  0  0  0
  -26.1560  -15.7190   19.9540 H   0  0  0  0  0  0  0  0  0  0  0  0
  -29.4820  -23.1050   18.7020 C   0  0  0  0  0  1  0  0  0  0  0  0
  -29.1300  -22.9300   20.1860 C   0  0  0  0  0  3  0  0  0  0  0  0
  -28.0770  -24.3190   20.5660 C   0  0  0  0  0  2  0  0  0  0  0  0
  -28.2880  -25.9440   20.4200 O   0  0  0  0  0  0  0  0  0  0  0  0
  -24.6580  -31.9130   23.2660 C   0  0  0  0  0  0  0  0  0  0  0  0
  -27.2510  -27.0070   20.3670 C   0  0  0  0  0  0  0  0  0  0  0  0
  -23.4790  -30.4870   21.6420 C   0  0  0  0  0  3  0  0  0  0  0  0
  -24.9430  -28.8610   20.2660 C   0  0  0  0  0  0  0  0  0  0  0  0
  -26.0460  -30.7080   21.5110 C   0  0  0  0  0  2  0  0  0  0  0  0
  -26.1240  -29.2880   20.8840 C   0  0  0  0  0  0  0  0  0  0  0  0
  -27.2750  -28.3820   20.9070 C   0  0  0  0  0  3  0  0  0  0  0  0
  -26.0380  -26.7220   19.7020 C   0  0  0  0  0  3  0  0  0  0  0  0
  -24.9230  -27.5970   19.6540 C   0  0  0  0  0  3  0  0  0  0  0  0
  -23.7220  -29.7780   20.2810 C   0  0  0  0  0  2  0  0  0  0  0  0
  -24.7490  -31.0630   22.1930 N   0  0  0  0  0  0  0  0  0  0  0  0
  -23.5640  -32.2110   23.7720 O   0  0  0  0  0  0  0  0  0  0  0  0
  -22.7790  -29.5070   22.6190 C   0  0  0  0  0  0  0  0  0  0  0  0
  -21.4510  -29.3360   22.4830 N   0  0  0  0  0  0  0  0  0  0  0  0
  -23.4380  -28.9000   23.4670 O   0  0  0  0  0  0  0  0  0  0  0  0
  -20.9730  -29.8770   21.7740 H   0  0  0  0  0  0  0  0  0  0  0  0
  -18.0680  -28.1230   22.9700 C   0  0  0  0  0  0  0  0  0  0  0  0
  -20.6220  -28.4120   23.2640 C   0  0  0  0  0  3  0  0  0  0  0  0
  -20.7410  -26.9680   22.7230 C   0  0  0  0  0  2  0  0  0  0  0  0
  -19.6550  -26.6150   21.7010 C   0  0  0  0  0  2  0  0  0  0  0  0
  -18.2630  -26.7610   22.3230 C   0  0  0  0  0  2  0  0  0  0  0  0
  -19.1750  -28.9040   23.3970 C   0  0  0  0  0  0  0  0  0  0  0  0
  -18.9360  -30.1740   23.9640 C   0  0  0  0  0  3  0  0  0  0  0  0
  -17.6240  -30.6650   24.1080 C   0  0  0  0  0  3  0  0  0  0  0  0
  -16.5320  -29.8820   23.6950 C   0  0  0  0  0  3  0  0  0  0  0  0
  -16.7550  -28.6130   23.1320 C   0  0  0  0  0  3  0  0  0  0  0  0
  -25.9240  -32.5680   23.8990 C   0  0  0  0  0  3  0  0  0  0  0  0
  -25.5970  -33.9710   24.2160 N   0  0  0  0  0  0  0  0  0  0  0  0
  -25.9230  -35.0250   23.4560 C   0  0  0  0  0  0  0  0  0  0  0  0
  -26.5900  -34.9200   22.4230 O   0  0  0  0  0  0  0  0  0  0  0  0
  -25.0010  -34.1240   25.0160 H   0  0  0  0  0  0  0  0  0  0  0  0
  -24.1790  -36.8100   23.1110 C   0  0  0  0  0  1  0  0  0  0  0  0
  -25.4320  -36.4150   23.9090 C   0  0  0  0  0  3  0  0  0  0  0  0
  -27.5690  -37.3240   24.7110 C   0  0  0  0  0  1  0  0  0  0  0  0
  -26.4560  -37.4750   23.7760 N   0  0  0  0  0  0  0  0  0  0  0  0
  -26.0460  -38.3930   23.9170 H   0  0  0  0  0  0  0  0  0  0  0  0
  -26.4230  -31.8210   25.1970 C   0  0  1  0  0  0  0  0  0  0  0  0
  -25.3170  -31.5990   26.2550 C   0  0  0  0  0  1  0  0  0  0  0  0
  -27.0160  -30.4380   24.8440 C   0  0  0  0  0  1  0  0  0  0  0  0
  -27.5620  -32.6300   25.8600 C   0  0  0  0  0  1  0  0  0  0  0  0
  1 15  1  0
  2  7  1  0
  3  4  1  0
  3  2  1  0
  5  4  1  0
  5 20  1  0
  5  6  1  0
  7  1  1  0
  7  6  1  0
  8  1  2  0
 10 12  1  0
 11  9  2  0
 12 15  1  0
 12 14  2  0
 13 10  2  0
 13 11  1  0
 14  9  1  0
 15 16  1  0
 17 18  2  0
 18 37  1  0
 19 18  1  0
 19 22  1  0
 20 17  1  0
 20 21  1  0
 21 19  2  0
 22 23  1  0
 23 24  2  0
 25 28  1  0
 25 24  1  0
 26 25  2  0
 27 26  1  0
 27 22  2  0
 28 29  1  0
 29 30  1  0
 30 31  2  0
 32 31  1  0
 32 36  1  0
 33 32  2  0
 34 29  2  0
 34 33  1  0
 35 34  1  0
 37 38  1  0
 38 41  1  0
 38 40  1  0
 39 37  2  0
 42 43  1  0
 42 17  1  0
 44 42  1  0
 46 45  1  0
 46 11  1  0
 46 47  1  0
 48 47  1  0
 49 60  2  0
 50 48  1  0
 50 55  1  0
 51 59  1  0
 51 61  1  0
 52 58  1  0
 52 54  1  0
 53 59  1  0
 54 55  2  0
 54 53  1  0
 56 50  2  0
 57 56  1  0
 57 52  2  0
 58 51  1  0
 59 49  1  0
 61 63  2  0
 62 61  1  0
 64 62  1  0
 65 74  2  0
 65 70  1  0
 66 62  1  0
 66 70  1  0
 67 66  1  0
 68 69  1  0
 68 67  1  0
 69 65  1  0
 70 71  2  0
 71 72  1  0
 73 72  2  0
 74 73  1  0
 75 49  1  0
 75 76  1  0
 75 85  1  0
 76 79  1  0
 77 81  1  0
 77 76  1  0
 78 77  2  0
 81 80  1  0
 83 81  1  0
 83 84  1  0
 83 82  1  0
 85 88  1  1
 85 86  1  0
 87 85  1  0
M  ISO  4   1 100  15 100  47 101  48 101
M  END
>  <TORSDO>  (10) 
F 17

>  <SCORE>  (10) 
-16.239

>  <name>  (10) 
9

>  <ligand_id>  (10) 
9

>  <original_smiles>  (10) 
[H]c1nc(C([H])(C([H])([H])[H])C([H])([H])Oc2c([H])c([H])c3c(c2[H])C([H])([H])N(C(=O)C([H])(N([H])C(=O)C([H])(N([H])C([H])([H])[H])C([H])([H])[H])C(C([H])([H])[H])(C([H])([H])[H])C([H])([H])[H])C([H])(C(=O)N([H])C2([H])c4c([H])c([H])c([H])c([H])c4C([H])([H])C([H])([H])C2([H])[H])C3([H])[H])c([H])nc1N([H])C(=O)N1C([H])([H])C([H])([H])C([H])([H])C([H])(n2nc(-c3c([H])c([H])c(Oc4c([H])c([H])c(F)c([H])c4F)c([H])c3[H])c(C(=O)N([H])[H])c2N([H])[H])C1([H])[H]

>  <smiles>  (10) 
[H]c1nc(C([H])(C([H])([H])[H])C([H])([H])Oc2c([H])c([H])c3c(c2[H])C([H])([H])N(C(=O)C([H])(N([H])C(=O)C([H])(N([H])C([H])([H])[H])C([H])([H])[H])C(C([H])([H])[H])(C([H])([H])[H])C([H])([H])[H])C([H])(C(=O)N([H])C2([H])c4c([H])c([H])c([H])c([H])c4C([H])([H])C([H])([H])C2([H])[H])C3([H])[H])c([H])nc1N([H])C(=O)N1C([H])([H])C([H])([H])C([H])([H])C([H])(n2nc(-c3c([H])c([H])c(Oc4c([H])c([H])c(F)c([H])c4F)c([H])c3[H])c(C(=O)N([H])[H])c2N([H])[H])C1([H])[H]

$$$$
10:0:0
     RDKit          3D

 93102  0  0  1  0  0  0  0  0999 V2000
  -29.2400  -20.3740   20.3200 C   0  0  0  0  0  3  0  0  0  0  0  0
  -29.2000  -21.7270   19.6930 C   0  0  0  0  0  0  0  0  0  0  0  0
  -30.0010  -21.7610   18.5220 C   0  0  0  0  0  0  0  0  0  0  0  0
  -29.9910  -19.1900   19.7880 C   0  0  0  0  0  0  0  0  0  0  0  0
  -30.7090  -20.6100   18.0590 C   0  0  0  0  0  0  0  0  0  0  0  0
  -29.9070  -23.0240   17.6780 C   0  0  0  0  0  2  0  0  0  0  0  0
  -28.4310  -23.2100   17.3220 C   0  0  0  0  0  2  0  0  0  0  0  0
  -27.5500  -23.4420   18.5660 C   0  0  0  0  0  2  0  0  0  0  0  0
  -28.2000  -23.0700   19.9270 C   0  0  0  0  0  3  0  0  0  0  0  0
  -31.5280  -20.6420   16.7780 C   0  0  0  0  0  1  0  0  0  0  0  0
  -30.6980  -19.3980   18.6620 N   0  0  0  0  0  0  0  0  0  0  0  0
  -29.8330  -17.7230   21.9210 C   0  0  0  0  0  1  0  0  0  0  0  0
  -30.3470  -17.7100   20.4770 C   0  0  0  0  0  3  0  0  0  0  0  0
  -30.8710  -15.0250   19.8100 C   0  0  0  0  0  0  0  0  0  0  0  0
  -30.6590  -12.6490   18.9050 C   0  0  0  0  0  2  0  0  0  0  0  0
  -29.6620  -12.5770   17.7290 C   0  0  0  0  0  2  0  0  0  0  0  0
  -28.2210  -12.3890   18.2510 C   0  0  0  0  0  2  0  0  0  0  0  0
  -27.8880  -13.3290   19.4420 C   0  0  0  0  0  3  0  0  0  0  0  0
  -29.0190  -13.3940   20.4920 C   0  0  0  0  0  2  0  0  0  0  0  0
  -30.2420  -13.7790   19.7780 N   0  0  0  0  0  0  0  0  0  0  0  0
  -32.0760  -15.0460   19.5370 O   0  0  0  0  0  0  0  0  0  0  0  0
  -30.1060  -16.2260   19.9430 N   0  0  0  0  0  0  0  0  0  0  0  0
  -29.1240  -16.0190   19.9000 H   0  0  0  0  0  0  0  0  0  0  0  0
  -25.6110  -13.9220   20.4360 C   0  0  0  0  0  0  0  0  0  0  0  0
  -24.5570  -13.1610   20.8530 C   0  0  0  0  0  0  0  0  0  0  0  0
  -24.9700  -11.8000   20.7040 C   0  0  0  0  0  0  0  0  0  0  0  0
  -26.5950  -13.0340   20.0440 N   0  0  0  0  0  0  0  0  0  0  0  0
  -26.2290  -11.7470   20.2840 N   0  0  0  0  0  0  0  0  0  0  0  0
  -24.2220  -10.5510   20.8910 C   0  0  0  0  0  0  0  0  0  0  0  0
  -24.6380   -9.5700   21.8200 C   0  0  0  0  0  3  0  0  0  0  0  0
  -23.8870   -8.3870   21.9960 C   0  0  0  0  0  3  0  0  0  0  0  0
  -22.7070   -8.1750   21.2430 C   0  0  0  0  0  0  0  0  0  0  0  0
  -22.3100   -9.1440   20.3040 C   0  0  0  0  0  3  0  0  0  0  0  0
  -23.0610  -10.3190   20.1270 C   0  0  0  0  0  3  0  0  0  0  0  0
  -21.9320   -7.0430   21.3240 O   0  0  0  0  0  0  0  0  0  0  0  0
  -21.7930   -6.3490   22.5000 C   0  0  0  0  0  0  0  0  0  0  0  0
  -21.2360   -6.9420   23.6510 C   0  0  0  0  0  3  0  0  0  0  0  0
  -21.0490   -6.1740   24.8180 C   0  0  0  0  0  3  0  0  0  0  0  0
  -21.4100   -4.8130   24.8340 C   0  0  0  0  0  0  0  0  0  0  0  0
  -21.9580   -4.2200   23.6830 C   0  0  0  0  0  3  0  0  0  0  0  0
  -22.1490   -4.9850   22.5200 C   0  0  0  0  0  0  0  0  0  0  0  0
  -22.6610   -4.4030   21.4090 F   0  0  0  0  0  0  0  0  0  0  0  0
  -21.2210   -4.0740   25.9500 F   0  0  0  0  0  0  0  0  0  0  0  0
  -23.2030  -13.6610   21.2670 C   0  0  0  0  0  0  0  0  0  0  0  0
  -22.5330  -12.9500   22.1660 N   0  0  0  0  0  0  0  0  0  0  0  0
  -22.7550  -14.7220   20.8290 O   0  0  0  0  0  0  0  0  0  0  0  0
  -22.9190  -12.0940   22.5410 H   0  0  0  0  0  0  0  0  0  0  0  0
  -21.6340  -13.2720   22.4960 H   0  0  0  0  0  0  0  0  0  0  0  0
  -25.8150  -15.2960   20.3220 N   0  0  0  0  0  0  0  0  0  0  0  0
  -25.0920  -15.9770   20.5160 H   0  0  0  0  0  0  0  0  0  0  0  0
  -26.6450  -15.7120   19.9250 H   0  0  0  0  0  0  0  0  0  0  0  0
  -28.5140  -24.5630   20.6940 C   0  0  0  0  0  2  0  0  0  0  0  0
  -28.3800  -26.0830   20.2770 O   0  0  0  0  0  0  0  0  0  0  0  0
  -24.6950  -31.8730   23.1710 C   0  0  0  0  0  0  0  0  0  0  0  0
  -27.2580  -26.9990   20.3440 C   0  0  0  0  0  0  0  0  0  0  0  0
  -23.4880  -30.4130   21.5920 C   0  0  0  0  0  3  0  0  0  0  0  0
  -24.9280  -28.7550   20.2450 C   0  0  0  0  0  0  0  0  0  0  0  0
  -26.0420  -30.6520   21.4110 C   0  0  0  0  0  2  0  0  0  0  0  0
  -26.1120  -29.2260   20.8270 C   0  0  0  0  0  0  0  0  0  0  0  0
  -27.2790  -28.3700   20.8390 C   0  0  0  0  0  3  0  0  0  0  0  0
  -26.0380  -26.6180   19.7500 C   0  0  0  0  0  3  0  0  0  0  0  0
  -24.9080  -27.4680   19.6870 C   0  0  0  0  0  3  0  0  0  0  0  0
  -23.7080  -29.6680   20.2450 C   0  0  0  0  0  2  0  0  0  0  0  0
  -24.7630  -31.0080   22.1110 N   0  0  0  0  0  0  0  0  0  0  0  0
  -23.6120  -32.1850   23.6880 O   0  0  0  0  0  0  0  0  0  0  0  0
  -22.8030  -29.4580   22.6040 C   0  0  0  0  0  0  0  0  0  0  0  0
  -21.4830  -29.2480   22.4530 N   0  0  0  0  0  0  0  0  0  0  0  0
  -23.4630  -28.9080   23.4870 O   0  0  0  0  0  0  0  0  0  0  0  0
  -21.0070  -29.7510   21.7170 H   0  0  0  0  0  0  0  0  0  0  0  0
  -18.1280  -27.9490   22.9050 C   0  0  0  0  0  0  0  0  0  0  0  0
  -20.6590  -28.3400   23.2570 C   0  0  0  0  0  3  0  0  0  0  0  0
  -20.8400  -26.8740   22.8000 C   0  0  0  0  0  2  0  0  0  0  0  0
  -19.7990  -26.4290   21.7660 C   0  0  0  0  0  2  0  0  0  0  0  0
  -18.3870  -26.5620   22.3410 C   0  0  0  0  0  2  0  0  0  0  0  0
  -19.1940  -28.7910   23.3200 C   0  0  0  0  0  0  0  0  0  0  0  0
  -18.9010  -30.0810   23.8100 C   0  0  0  0  0  3  0  0  0  0  0  0
  -17.5700  -30.5340   23.8880 C   0  0  0  0  0  3  0  0  0  0  0  0
  -16.5160  -29.6950   23.4850 C   0  0  0  0  0  3  0  0  0  0  0  0
  -16.7960  -28.4040   23.0020 C   0  0  0  0  0  3  0  0  0  0  0  0
  -25.9740  -32.5320   23.7710 C   0  0  0  0  0  3  0  0  0  0  0  0
  -25.6460  -33.9250   24.1190 N   0  0  0  0  0  0  0  0  0  0  0  0
  -25.9560  -34.9950   23.3720 C   0  0  0  0  0  0  0  0  0  0  0  0
  -26.6150  -34.9100   22.3320 O   0  0  0  0  0  0  0  0  0  0  0  0
  -25.0610  -34.0590   24.9300 H   0  0  0  0  0  0  0  0  0  0  0  0
  -24.2170  -36.7870   23.0440 C   0  0  0  0  0  1  0  0  0  0  0  0
  -25.4590  -36.3740   23.8520 C   0  0  0  0  0  3  0  0  0  0  0  0
  -27.5790  -37.2670   24.7110 C   0  0  0  0  0  1  0  0  0  0  0  0
  -26.4860  -37.4350   23.7580 N   0  0  0  0  0  0  0  0  0  0  0  0
  -26.0750  -38.3520   23.9050 H   0  0  0  0  0  0  0  0  0  0  0  0
  -26.5260  -31.7680   25.0380 C   0  0  1  0  0  0  0  0  0  0  0  0
  -25.4570  -31.4860   26.1200 C   0  0  0  0  0  1  0  0  0  0  0  0
  -27.1480  -30.4120   24.6320 C   0  0  0  0  0  1  0  0  0  0  0  0
  -27.6630  -32.5920   25.6910 C   0  0  0  0  0  1  0  0  0  0  0  0
  2  9  1  0
  2  1  2  0
  3  2  1  0
  4  1  1  0
  4 13  1  0
  5  3  2  0
  5 11  1  0
  6  3  1  0
  7  6  1  0
  7  8  1  0
  8  9  1  0
  9 52  1  0
 10  5  1  0
 11  4  2  0
 13 12  1  0
 14 22  1  0
 15 20  1  0
 16 17  1  0
 16 15  1  0
 18 17  1  0
 18 27  1  0
 18 19  1  0
 20 14  1  0
 20 19  1  0
 21 14  2  0
 22 13  1  0
 23 22  1  0
 24 25  2  0
 25 44  1  0
 26 25  1  0
 26 29  1  0
 27 28  1  0
 27 24  1  0
 28 26  2  0
 29 30  1  0
 30 31  2  0
 32 35  1  0
 32 31  1  0
 33 32  2  0
 34 33  1  0
 34 29  2  0
 35 36  1  0
 36 41  2  0
 36 37  1  0
 37 38  2  0
 38 39  1  0
 39 43  1  0
 40 39  2  0
 41 40  1  0
 42 41  1  0
 44 45  1  0
 45 48  1  0
 45 47  1  0
 46 44  2  0
 49 24  1  0
 49 50  1  0
 51 49  1  0
 53 55  1  0
 53 52  1  0
 54 65  2  0
 55 60  1  0
 56 64  1  0
 56 66  1  0
 57 63  1  0
 57 59  1  0
 58 64  1  0
 59 60  2  0
 59 58  1  0
 61 55  2  0
 62 61  1  0
 62 57  2  0
 63 56  1  0
 64 54  1  0
 66 68  2  0
 67 66  1  0
 69 67  1  0
 70 79  2  0
 70 75  1  0
 71 67  1  0
 71 75  1  0
 72 71  1  0
 73 74  1  0
 73 72  1  0
 74 70  1  0
 75 76  2  0
 76 77  1  0
 78 77  2  0
 79 78  1  0
 80 54  1  0
 80 81  1  0
 80 90  1  0
 81 84  1  0
 82 86  1  0
 82 81  1  0
 83 82  2  0
 86 85  1  0
 88 86  1  0
 88 89  1  0
 88 87  1  0
 90 93  1  1
 90 91  1  0
 92 90  1  0
M  ISO  4  14 100  22 100  52 101  53 101
M  END
>  <TORSDO>  (11) 
F 18

>  <SCORE>  (11) 
-14.485

>  <name>  (11) 
10

>  <ligand_id>  (11) 
10

>  <original_smiles>  (11) 
[H]c1c([H])c([H])c2c(c1[H])C([H])([H])C([H])([H])C([H])([H])C2([H])N([H])C(=O)C1([H])N(C(=O)C([H])(N([H])C(=O)C([H])(N([H])C([H])([H])[H])C([H])([H])[H])C(C([H])([H])[H])(C([H])([H])[H])C([H])([H])[H])C([H])([H])c2c([H])c(OC([H])([H])C3([H])c4c([H])c(C([H])(N([H])C(=O)N5C([H])([H])C([H])([H])C([H])([H])C([H])(n6nc(-c7c([H])c([H])c(Oc8c([H])c([H])c(F)c([H])c8F)c([H])c7[H])c(C(=O)N([H])[H])c6N([H])[H])C5([H])[H])C([H])([H])[H])nc(C([H])([H])[H])c4C([H])([H])C([H])([H])C3([H])[H])c([H])c([H])c2C1([H])[H]

>  <smiles>  (11) 
[H]c1c([H])c([H])c2c(c1[H])C([H])([H])C([H])([H])C([H])([H])C2([H])N([H])C(=O)C1([H])N(C(=O)C([H])(N([H])C(=O)C([H])(N([H])C([H])([H])[H])C([H])([H])[H])C(C([H])([H])[H])(C([H])([H])[H])C([H])([H])[H])C([H])([H])c2c([H])c(OC([H])([H])C3([H])c4c([H])c(C([H])(N([H])C(=O)N5C([H])([H])C([H])([H])C([H])([H])C([H])(n6nc(-c7c([H])c([H])c(Oc8c([H])c([H])c(F)c([H])c8F)c([H])c7[H])c(C(=O)N([H])[H])c6N([H])[H])C5([H])[H])C([H])([H])[H])nc(C([H])([H])[H])c4C([H])([H])C([H])([H])C3([H])[H])c([H])c([H])c2C1([H])[H]

$$$$
11:0:0
     RDKit          3D

 92100  0  0  1  0  0  0  0  0999 V2000
  -29.4940  -20.6500   20.3640 C   0  0  0  0  0  0  0  0  0  0  0  0
  -28.7750  -21.8320   20.0030 N   0  0  0  0  0  0  0  0  0  0  0  0
  -30.4770  -20.8200   21.0870 O   0  0  0  0  0  0  0  0  0  0  0  0
  -27.9570  -21.6910   19.4250 H   0  0  0  0  0  0  0  0  0  0  0  0
  -29.0300  -23.3580   20.3770 C   0  0  0  0  0  3  0  0  0  0  0  0
  -28.0460  -24.6800   19.9730 C   0  0  0  0  0  3  0  0  0  0  0  0
  -28.2530  -26.1870   20.3520 O   0  0  0  0  0  0  0  0  0  0  0  0
  -24.6100  -31.9070   23.2800 C   0  0  0  0  0  0  0  0  0  0  0  0
  -27.2040  -27.1780   20.2680 C   0  0  0  0  0  0  0  0  0  0  0  0
  -23.4250  -30.5190   21.6240 C   0  0  0  0  0  3  0  0  0  0  0  0
  -24.8840  -28.9420   20.2070 C   0  0  0  0  0  0  0  0  0  0  0  0
  -25.9850  -30.7610   21.5060 C   0  0  0  0  0  2  0  0  0  0  0  0
  -26.0570  -29.3750   20.8390 C   0  0  0  0  0  0  0  0  0  0  0  0
  -27.2160  -28.5100   20.8530 C   0  0  0  0  0  3  0  0  0  0  0  0
  -26.0070  -26.8500   19.5950 C   0  0  0  0  0  3  0  0  0  0  0  0
  -24.8760  -27.6930   19.5660 C   0  0  0  0  0  3  0  0  0  0  0  0
  -23.6600  -29.8480   20.2450 C   0  0  0  0  0  2  0  0  0  0  0  0
  -24.6910  -31.0860   22.1890 N   0  0  0  0  0  0  0  0  0  0  0  0
  -23.5180  -32.2020   23.7900 O   0  0  0  0  0  0  0  0  0  0  0  0
  -22.7290  -29.5130   22.5760 C   0  0  0  0  0  0  0  0  0  0  0  0
  -21.4000  -29.3570   22.4340 N   0  0  0  0  0  0  0  0  0  0  0  0
  -23.3840  -28.8770   23.4040 O   0  0  0  0  0  0  0  0  0  0  0  0
  -20.9290  -29.9200   21.7390 H   0  0  0  0  0  0  0  0  0  0  0  0
  -17.9950  -28.2140   22.9150 C   0  0  0  0  0  0  0  0  0  0  0  0
  -20.5570  -28.4280   23.1940 C   0  0  0  0  0  3  0  0  0  0  0  0
  -20.6360  -27.0000   22.6060 C   0  0  0  0  0  2  0  0  0  0  0  0
  -19.5320  -26.7060   21.5850 C   0  0  0  0  0  2  0  0  0  0  0  0
  -18.1500  -26.8700   22.2260 C   0  0  0  0  0  2  0  0  0  0  0  0
  -19.1260  -28.9530   23.3550 C   0  0  0  0  0  0  0  0  0  0  0  0
  -18.9250  -30.2140   23.9570 C   0  0  0  0  0  3  0  0  0  0  0  0
  -17.6260  -30.7330   24.1280 C   0  0  0  0  0  3  0  0  0  0  0  0
  -16.5100  -29.9890   23.7040 C   0  0  0  0  0  3  0  0  0  0  0  0
  -16.6970  -28.7320   23.1020 C   0  0  0  0  0  3  0  0  0  0  0  0
  -25.8830  -32.5310   23.9270 C   0  0  0  0  0  3  0  0  0  0  0  0
  -26.3570  -31.7700   25.2280 C   0  0  1  0  0  0  0  0  0  0  0  0
  -25.2340  -31.5620   26.2700 C   0  0  0  0  0  1  0  0  0  0  0  0
  -26.9340  -30.3780   24.8790 C   0  0  0  0  0  1  0  0  0  0  0  0
  -27.5020  -32.5620   25.9030 C   0  0  0  0  0  1  0  0  0  0  0  0
  -25.5840  -33.9380   24.2360 N   0  0  0  0  0  0  0  0  0  0  0  0
  -25.9220  -34.9800   23.4650 C   0  0  0  0  0  0  0  0  0  0  0  0
  -26.5900  -34.8580   22.4340 O   0  0  0  0  0  0  0  0  0  0  0  0
  -24.9910  -34.1070   25.0360 H   0  0  0  0  0  0  0  0  0  0  0  0
  -24.1990  -36.7780   23.1070 C   0  0  0  0  0  1  0  0  0  0  0  0
  -25.4500  -36.3790   23.9060 C   0  0  0  0  0  3  0  0  0  0  0  0
  -27.5990  -37.2710   24.6940 C   0  0  0  0  0  1  0  0  0  0  0  0
  -26.4870  -37.4250   23.7590 N   0  0  0  0  0  0  0  0  0  0  0  0
  -26.0880  -38.3500   23.8880 H   0  0  0  0  0  0  0  0  0  0  0  0
  -29.1970  -19.0600   19.9200 C   0  0  0  0  0  3  0  0  0  0  0  0
  -30.6210  -15.0050   20.0690 C   0  0  0  0  0  0  0  0  0  0  0  0
  -30.4690  -12.6630   19.0990 C   0  0  0  0  0  2  0  0  0  0  0  0
  -29.4900  -12.6580   17.9060 C   0  0  0  0  0  2  0  0  0  0  0  0
  -28.0470  -12.4240   18.3890 C   0  0  0  0  0  2  0  0  0  0  0  0
  -27.6810  -13.3120   19.6100 C   0  0  0  0  0  3  0  0  0  0  0  0
  -28.7880  -13.2990   20.6840 C   0  0  0  0  0  2  0  0  0  0  0  0
  -30.0230  -13.7430   20.0260 N   0  0  0  0  0  0  0  0  0  0  0  0
  -31.7870  -15.0740   19.6660 O   0  0  0  0  0  0  0  0  0  0  0  0
  -30.5920  -17.5520   21.7510 C   0  0  0  0  0  2  0  0  0  0  0  0
  -29.5210  -16.4580   21.7490 C   0  0  0  0  0  2  0  0  0  0  0  0
  -30.2480  -17.7640   20.2840 C   0  0  0  0  0  3  0  0  0  0  0  0
  -29.8730  -16.2050   20.3410 N   0  0  0  0  0  0  0  0  0  0  0  0
  -25.3400  -13.8630   20.4850 C   0  0  0  0  0  0  0  0  0  0  0  0
  -24.2950  -13.0770   20.8860 C   0  0  0  0  0  0  0  0  0  0  0  0
  -24.7580  -11.7280   20.7850 C   0  0  0  0  0  0  0  0  0  0  0  0
  -26.3680  -12.9940   20.1610 N   0  0  0  0  0  0  0  0  0  0  0  0
  -26.0300  -11.7020   20.4090 N   0  0  0  0  0  0  0  0  0  0  0  0
  -24.0380  -10.4630   20.9720 C   0  0  0  0  0  0  0  0  0  0  0  0
  -24.4780   -9.4930   21.9000 C   0  0  0  0  0  3  0  0  0  0  0  0
  -23.7590   -8.2900   22.0760 C   0  0  0  0  0  3  0  0  0  0  0  0
  -22.5860   -8.0480   21.3230 C   0  0  0  0  0  0  0  0  0  0  0  0
  -22.1610   -9.0110   20.3870 C   0  0  0  0  0  3  0  0  0  0  0  0
  -22.8810  -10.2030   20.2120 C   0  0  0  0  0  3  0  0  0  0  0  0
  -21.8360   -6.9000   21.4110 O   0  0  0  0  0  0  0  0  0  0  0  0
  -21.7420   -6.1860   22.5790 C   0  0  0  0  0  0  0  0  0  0  0  0
  -21.2500   -6.7670   23.7690 C   0  0  0  0  0  3  0  0  0  0  0  0
  -21.1020   -5.9800   24.9270 C   0  0  0  0  0  3  0  0  0  0  0  0
  -21.4380   -4.6120   24.8990 C   0  0  0  0  0  0  0  0  0  0  0  0
  -21.9240   -4.0320   23.7160 C   0  0  0  0  0  3  0  0  0  0  0  0
  -22.0720   -4.8160   22.5580 C   0  0  0  0  0  0  0  0  0  0  0  0
  -22.5170   -4.2430   21.4130 F   0  0  0  0  0  0  0  0  0  0  0  0
  -21.2890   -3.8570   26.0120 F   0  0  0  0  0  0  0  0  0  0  0  0
  -22.9150  -13.5460   21.2420 C   0  0  0  0  0  0  0  0  0  0  0  0
  -22.2290  -12.8350   22.1280 N   0  0  0  0  0  0  0  0  0  0  0  0
  -22.4560  -14.5870   20.7730 O   0  0  0  0  0  0  0  0  0  0  0  0
  -22.6050  -11.9910   22.5310 H   0  0  0  0  0  0  0  0  0  0  0  0
  -21.3090  -13.1450   22.4110 H   0  0  0  0  0  0  0  0  0  0  0  0
  -25.4920  -15.2410   20.3490 N   0  0  0  0  0  0  0  0  0  0  0  0
  -24.7230  -15.8830   20.5060 H   0  0  0  0  0  0  0  0  0  0  0  0
  -26.3230  -15.6890   19.9880 H   0  0  0  0  0  0  0  0  0  0  0  0
  -28.8610  -19.0140   18.4900 N   0  0  0  0  0  4  0  0  0  0  0  0
  -29.6680  -19.2590   17.9450 H   0  0  0  0  0  0  0  0  0  0  0  0
  -28.1280  -19.6640   18.2750 H   0  0  0  0  0  0  0  0  0  0  0  0
  -28.5660  -18.0910   18.2290 H   0  0  0  0  0  0  0  0  0  0  0  0
  1  3  2  0
  2  1  1  0
  2  5  1  0
  4  2  1  0
  6  7  1  0
  6  5  2  0
  8 19  2  0
  9  7  1  0
  9 14  1  0
 10 18  1  0
 10 20  1  0
 11 17  1  0
 11 13  1  0
 12 18  1  0
 13 14  2  0
 13 12  1  0
 15  9  2  0
 16 15  1  0
 16 11  2  0
 17 10  1  0
 18  8  1  0
 20 22  2  0
 21 20  1  0
 23 21  1  0
 24 33  2  0
 24 29  1  0
 25 21  1  0
 25 29  1  0
 26 25  1  0
 27 28  1  0
 27 26  1  0
 28 24  1  0
 29 30  2  0
 30 31  1  0
 32 31  2  0
 33 32  1  0
 34  8  1  0
 34 39  1  0
 34 35  1  0
 35 38  1  1
 35 36  1  0
 37 35  1  0
 39 42  1  0
 40 44  1  0
 40 39  1  0
 41 40  2  0
 44 43  1  0
 46 47  1  0
 46 44  1  0
 46 45  1  0
 48  1  1  0
 49 60  1  0
 50 55  1  0
 51 52  1  0
 51 50  1  0
 53 52  1  0
 53 64  1  0
 53 54  1  0
 55 49  1  0
 55 54  1  0
 56 49  2  0
 58 57  1  0
 59 48  1  0
 59 60  1  0
 59 57  1  0
 60 58  1  0
 61 62  2  0
 62 81  1  0
 63 62  1  0
 63 66  1  0
 64 65  1  0
 64 61  1  0
 65 63  2  0
 66 67  1  0
 67 68  2  0
 69 72  1  0
 69 68  1  0
 70 69  2  0
 71 70  1  0
 71 66  2  0
 72 73  1  0
 73 74  1  0
 74 75  2  0
 76 75  1  0
 76 80  1  0
 77 76  2  0
 78 73  2  0
 78 77  1  0
 79 78  1  0
 81 82  1  0
 82 85  1  0
 82 84  1  0
 83 81  2  0
 86 61  1  0
 86 87  1  0
 88 86  1  0
 89 48  1  0
 90 89  1  0
 91 89  1  0
 92 89  1  0
M  ISO  4   6 101   7 101  49 100  60 100
M  END
>  <TORSDO>  (12) 
F 20

>  <SCORE>  (12) 
-14.983

>  <name>  (12) 
11

>  <ligand_id>  (12) 
11

>  <original_smiles>  (12) 
[H]c1c([H])c([H])c2c(c1[H])C([H])([H])C([H])([H])C([H])([H])C2([H])N([H])C(=O)C1([H])N(C(=O)C([H])(N([H])C(=O)C([H])(N([H])C([H])([H])[H])C([H])([H])[H])C(C([H])([H])[H])(C([H])([H])[H])C([H])([H])[H])C([H])([H])c2c([H])c(OC([H])([H])C([H])([H])N([H])C(=O)C([H])(C3([H])N(C(=O)N4C([H])([H])C([H])([H])C([H])([H])C([H])(n5nc(-c6c([H])c([H])c(Oc7c([H])c([H])c(F)c([H])c7F)c([H])c6[H])c(C(=O)N([H])[H])c5N([H])[H])C4([H])[H])C([H])([H])C3([H])[H])[N+]([H])([H])[H])c([H])c([H])c2C1([H])[H]

>  <smiles>  (12) 
[H]c1c([H])c([H])c2c(c1[H])C([H])([H])C([H])([H])C([H])([H])C2([H])N([H])C(=O)C1([H])N(C(=O)C([H])(N([H])C(=O)C([H])(N([H])C([H])([H])[H])C([H])([H])[H])C(C([H])([H])[H])(C([H])([H])[H])C([H])([H])[H])C([H])([H])c2c([H])c(OC([H])([H])C([H])([H])N([H])C(=O)C([H])(C3([H])N(C(=O)N4C([H])([H])C([H])([H])C([H])([H])C([H])(n5nc(-c6c([H])c([H])c(Oc7c([H])c([H])c(F)c([H])c7F)c([H])c6[H])c(C(=O)N([H])[H])c5N([H])[H])C4([H])[H])C([H])([H])C3([H])[H])[N+]([H])([H])[H])c([H])c([H])c2C1([H])[H]

$$$$
12:0:0
     RDKit          3D

 95104  0  0  1  0  0  0  0  0999 V2000
  -28.6500  -24.0670   19.8900 C   0  0  0  0  0  0  0  0  0  0  0  0
  -29.1000  -21.5190   19.7800 C   0  0  0  0  0  2  0  0  0  0  0  0
  -29.4560  -22.6840   21.8260 C   0  0  0  0  0  2  0  0  0  0  0  0
  -29.8440  -20.5070   20.7360 C   0  0  0  0  0  3  0  0  0  0  0  0
  -29.4760  -21.1640   22.0870 C   0  0  0  0  0  3  0  0  0  0  0  0
  -29.0200  -22.8600   20.4450 N   0  0  0  0  0  0  0  0  0  0  0  0
  -28.3570  -24.1470   18.6930 O   0  0  0  0  0  0  0  0  0  0  0  0
  -30.9640  -14.7210   20.0020 C   0  0  0  0  0  0  0  0  0  0  0  0
  -30.6340  -12.4830   18.9820 C   0  0  0  0  0  2  0  0  0  0  0  0
  -29.6390  -12.5970   17.8100 C   0  0  0  0  0  2  0  0  0  0  0  0
  -28.1910  -12.4520   18.3160 C   0  0  0  0  0  2  0  0  0  0  0  0
  -27.8960  -13.3400   19.5550 C   0  0  0  0  0  3  0  0  0  0  0  0
  -29.0100  -13.2280   20.6200 C   0  0  0  0  0  2  0  0  0  0  0  0
  -30.2840  -13.5330   19.9590 N   0  0  0  0  0  0  0  0  0  0  0  0
  -32.1210  -14.8020   19.5770 O   0  0  0  0  0  0  0  0  0  0  0  0
  -30.0850  -18.0340   21.7720 C   0  0  0  0  0  2  0  0  0  0  0  0
  -29.9580  -18.2330   19.2980 C   0  0  0  0  0  2  0  0  0  0  0  0
  -30.8800  -16.7350   21.3920 C   0  0  0  0  0  2  0  0  0  0  0  0
  -29.6480  -16.6900   19.2820 C   0  0  0  0  0  2  0  0  0  0  0  0
  -29.5340  -18.9330   20.6120 C   0  0  0  0  0  3  0  0  0  0  0  0
  -30.2810  -15.8680   20.3540 N   0  0  0  0  0  0  0  0  0  0  0  0
  -25.5670  -13.9600   20.4390 C   0  0  0  0  0  0  0  0  0  0  0  0
  -24.5070  -13.1940   20.8440 C   0  0  0  0  0  0  0  0  0  0  0  0
  -24.9380  -11.8370   20.7430 C   0  0  0  0  0  0  0  0  0  0  0  0
  -26.5750  -13.0670   20.1140 N   0  0  0  0  0  0  0  0  0  0  0  0
  -26.2070  -11.7830   20.3570 N   0  0  0  0  0  0  0  0  0  0  0  0
  -24.1970  -10.5830   20.9330 C   0  0  0  0  0  0  0  0  0  0  0  0
  -24.6140   -9.6130   21.8720 C   0  0  0  0  0  3  0  0  0  0  0  0
  -23.8740   -8.4240   22.0490 C   0  0  0  0  0  3  0  0  0  0  0  0
  -22.7030   -8.1970   21.2880 C   0  0  0  0  0  0  0  0  0  0  0  0
  -22.3060   -9.1540   20.3370 C   0  0  0  0  0  3  0  0  0  0  0  0
  -23.0460  -10.3340   20.1570 C   0  0  0  0  0  3  0  0  0  0  0  0
  -21.9350   -7.0620   21.3750 O   0  0  0  0  0  0  0  0  0  0  0  0
  -21.7920   -6.3780   22.5560 C   0  0  0  0  0  0  0  0  0  0  0  0
  -21.2790   -6.9960   23.7170 C   0  0  0  0  0  3  0  0  0  0  0  0
  -21.0850   -6.2390   24.8890 C   0  0  0  0  0  3  0  0  0  0  0  0
  -21.3930   -4.8640   24.9000 C   0  0  0  0  0  0  0  0  0  0  0  0
  -21.8980   -4.2460   23.7430 C   0  0  0  0  0  3  0  0  0  0  0  0
  -22.0940   -5.0020   22.5730 C   0  0  0  0  0  0  0  0  0  0  0  0
  -22.5620   -4.3960   21.4540 F   0  0  0  0  0  0  0  0  0  0  0  0
  -21.1990   -4.1350   26.0240 F   0  0  0  0  0  0  0  0  0  0  0  0
  -23.1380  -13.6880   21.2140 C   0  0  0  0  0  0  0  0  0  0  0  0
  -22.4530  -12.9860   22.1080 N   0  0  0  0  0  0  0  0  0  0  0  0
  -22.6880  -14.7340   20.7450 O   0  0  0  0  0  0  0  0  0  0  0  0
  -22.8300  -12.1410   22.5100 H   0  0  0  0  0  0  0  0  0  0  0  0
  -21.5350  -13.2960   22.3940 H   0  0  0  0  0  0  0  0  0  0  0  0
  -25.7480  -15.3320   20.2990 N   0  0  0  0  0  0  0  0  0  0  0  0
  -25.0050  -15.9960   20.4890 H   0  0  0  0  0  0  0  0  0  0  0  0
  -26.5940  -15.7700   19.9580 H   0  0  0  0  0  0  0  0  0  0  0  0
  -30.3440  -20.8220   23.2280 N   0  0  0  0  0  4  0  0  0  0  0  0
  -31.3030  -21.0560   23.0410 H   0  0  0  0  0  0  0  0  0  0  0  0
  -30.2870  -19.8410   23.4340 H   0  0  0  0  0  0  0  0  0  0  0  0
  -30.0520  -21.3220   24.0490 H   0  0  0  0  0  0  0  0  0  0  0  0
  -28.5590  -25.3680   20.7790 C   0  0  0  0  0  2  0  0  0  0  0  0
  -28.6200  -26.6570   20.0670 O   0  0  0  0  0  0  0  0  0  0  0  0
  -24.7110  -31.8140   23.2260 C   0  0  0  0  0  0  0  0  0  0  0  0
  -27.4670  -27.4370   20.0860 C   0  0  0  0  0  0  0  0  0  0  0  0
  -23.5480  -30.4090   21.5590 C   0  0  0  0  0  3  0  0  0  0  0  0
  -25.0460  -28.9320   20.1060 C   0  0  0  0  0  0  0  0  0  0  0  0
  -26.0700  -30.8260   21.3720 C   0  0  0  0  0  2  0  0  0  0  0  0
  -26.1960  -29.4640   20.7060 C   0  0  0  0  0  0  0  0  0  0  0  0
  -27.4130  -28.7280   20.6820 C   0  0  0  0  0  3  0  0  0  0  0  0
  -26.2990  -26.9370   19.4760 C   0  0  0  0  0  3  0  0  0  0  0  0
  -25.0970  -27.6730   19.4820 C   0  0  0  0  0  3  0  0  0  0  0  0
  -23.7810  -29.7620   20.1670 C   0  0  0  0  0  2  0  0  0  0  0  0
  -24.7950  -31.0330   22.1100 N   0  0  0  0  0  0  0  0  0  0  0  0
  -23.6210  -32.0450   23.7690 O   0  0  0  0  0  0  0  0  0  0  0  0
  -22.9210  -29.3550   22.5010 C   0  0  0  0  0  0  0  0  0  0  0  0
  -21.6090  -29.1140   22.3470 N   0  0  0  0  0  0  0  0  0  0  0  0
  -23.6150  -28.7560   23.3260 O   0  0  0  0  0  0  0  0  0  0  0  0
  -21.1070  -29.6510   21.6540 H   0  0  0  0  0  0  0  0  0  0  0  0
  -18.2940  -27.7190   22.7360 C   0  0  0  0  0  0  0  0  0  0  0  0
  -20.8210  -28.1320   23.0950 C   0  0  0  0  0  3  0  0  0  0  0  0
  -21.0290  -26.7070   22.5330 C   0  0  0  0  0  2  0  0  0  0  0  0
  -19.9860  -26.3130   21.4830 C   0  0  0  0  0  2  0  0  0  0  0  0
  -18.5760  -26.3790   22.0760 C   0  0  0  0  0  2  0  0  0  0  0  0
  -19.3500  -28.5490   23.1990 C   0  0  0  0  0  0  0  0  0  0  0  0
  -19.0350  -29.8000   23.7730 C   0  0  0  0  0  3  0  0  0  0  0  0
  -17.6970  -30.2220   23.8890 C   0  0  0  0  0  3  0  0  0  0  0  0
  -16.6560  -29.3900   23.4430 C   0  0  0  0  0  3  0  0  0  0  0  0
  -16.9550  -28.1410   22.8720 C   0  0  0  0  0  3  0  0  0  0  0  0
  -25.9760  -32.4720   23.8610 C   0  0  0  0  0  3  0  0  0  0  0  0
  -26.5000  -31.7090   25.1400 C   0  0  1  0  0  0  0  0  0  0  0  0
  -25.4030  -31.4450   26.1980 C   0  0  0  0  0  1  0  0  0  0  0  0
  -27.1140  -30.3460   24.7480 C   0  0  0  0  0  1  0  0  0  0  0  0
  -27.6290  -32.5250   25.8110 C   0  0  0  0  0  1  0  0  0  0  0  0
  -25.6360  -33.8630   24.1910 N   0  0  0  0  0  0  0  0  0  0  0  0
  -25.9470  -34.9240   23.4340 C   0  0  0  0  0  0  0  0  0  0  0  0
  -26.6220  -34.8360   22.4040 O   0  0  0  0  0  0  0  0  0  0  0  0
  -25.0400  -34.0050   24.9940 H   0  0  0  0  0  0  0  0  0  0  0  0
  -24.1780  -36.6750   23.0750 C   0  0  0  0  0  1  0  0  0  0  0  0
  -25.4270  -36.3000   23.8890 C   0  0  0  0  0  3  0  0  0  0  0  0
  -27.5390  -37.2360   24.7240 C   0  0  0  0  0  1  0  0  0  0  0  0
  -26.4350  -37.3780   23.7770 N   0  0  0  0  0  0  0  0  0  0  0  0
  -26.0080  -38.2880   23.9230 H   0  0  0  0  0  0  0  0  0  0  0  0
  1  6  1  0
  1 54  1  0
  2  6  1  0
  3  5  1  0
  4  2  1  0
  4  5  1  0
  5 50  1  0
  6  3  1  0
  7  1  2  0
  8 21  1  0
  9 14  1  0
 10 11  1  0
 10  9  1  0
 12 11  1  0
 12 25  1  0
 12 13  1  0
 14  8  1  0
 14 13  1  0
 15  8  2  0
 18 16  1  0
 19 17  1  0
 19 21  1  0
 20 17  1  0
 20  4  1  0
 20 16  1  0
 21 18  1  0
 22 23  2  0
 23 42  1  0
 24 23  1  0
 24 27  1  0
 25 26  1  0
 25 22  1  0
 26 24  2  0
 27 28  1  0
 28 29  2  0
 30 33  1  0
 30 29  1  0
 31 30  2  0
 32 31  1  0
 32 27  2  0
 33 34  1  0
 34 39  2  0
 34 35  1  0
 35 36  2  0
 36 37  1  0
 37 41  1  0
 38 37  2  0
 39 38  1  0
 40 39  1  0
 42 43  1  0
 43 46  1  0
 43 45  1  0
 44 42  2  0
 47 22  1  0
 47 48  1  0
 49 47  1  0
 50 52  1  0
 50 53  1  0
 51 50  1  0
 55 57  1  0
 55 54  1  0
 56 67  2  0
 57 62  1  0
 58 66  1  0
 58 68  1  0
 59 65  1  0
 59 61  1  0
 60 66  1  0
 61 60  1  0
 62 61  2  0
 63 64  1  0
 63 57  2  0
 64 59  2  0
 65 58  1  0
 66 56  1  0
 68 70  2  0
 69 68  1  0
 71 69  1  0
 72 81  2  0
 72 77  1  0
 73 69  1  0
 73 77  1  0
 74 73  1  0
 75 76  1  0
 75 74  1  0
 76 72  1  0
 77 78  2  0
 78 79  1  0
 80 79  2  0
 81 80  1  0
 82 56  1  0
 82 87  1  0
 82 83  1  0
 83 86  1  1
 83 84  1  0
 85 83  1  0
 87 90  1  0
 88 92  1  0
 88 87  1  0
 89 88  2  0
 92 91  1  0
 94 92  1  0
 94 95  1  0
 94 93  1  0
M  ISO  4   8 100  21 100  54 101  55 101
M  END
>  <TORSDO>  (13) 
F 18

>  <SCORE>  (13) 
-14.639

>  <name>  (13) 
12

>  <ligand_id>  (13) 
12

>  <original_smiles>  (13) 
[H]c1c([H])c([H])c2c(c1[H])C([H])([H])C([H])([H])C([H])([H])C2([H])N([H])C(=O)C1([H])N(C(=O)C([H])(N([H])C(=O)C([H])(N([H])C([H])([H])[H])C([H])([H])[H])C(C([H])([H])[H])(C([H])([H])[H])C([H])([H])[H])C([H])([H])c2c([H])c(OC([H])([H])C(=O)N3C([H])([H])C([H])(C4([H])C([H])([H])C([H])([H])N(C(=O)N5C([H])([H])C([H])([H])C([H])([H])C([H])(n6nc(-c7c([H])c([H])c(Oc8c([H])c([H])c(F)c([H])c8F)c([H])c7[H])c(C(=O)N([H])[H])c6N([H])[H])C5([H])[H])C([H])([H])C4([H])[H])C([H])([N+]([H])([H])[H])C3([H])[H])c([H])c([H])c2C1([H])[H]

>  <smiles>  (13) 
[H]c1c([H])c([H])c2c(c1[H])C([H])([H])C([H])([H])C([H])([H])C2([H])N([H])C(=O)C1([H])N(C(=O)C([H])(N([H])C(=O)C([H])(N([H])C([H])([H])[H])C([H])([H])[H])C(C([H])([H])[H])(C([H])([H])[H])C([H])([H])[H])C([H])([H])c2c([H])c(OC([H])([H])C(=O)N3C([H])([H])C([H])(C4([H])C([H])([H])C([H])([H])N(C(=O)N5C([H])([H])C([H])([H])C([H])([H])C([H])(n6nc(-c7c([H])c([H])c(Oc8c([H])c([H])c(F)c([H])c8F)c([H])c7[H])c(C(=O)N([H])[H])c6N([H])[H])C5([H])[H])C([H])([H])C4([H])[H])C([H])([N+]([H])([H])[H])C3([H])[H])c([H])c([H])c2C1([H])[H]

$$$$
13:0:0
     RDKit          3D

 92100  0  0  1  0  0  0  0  0999 V2000
  -30.1950  -21.2410   21.3650 C   0  0  0  0  0  0  0  0  0  0  0  0
  -29.2150  -21.9700   20.5940 C   0  0  0  0  0  0  0  0  0  0  0  0
  -30.4060  -19.8110   21.2430 C   0  0  0  0  0  0  0  0  0  0  0  0
  -29.6540  -19.0110   20.3360 C   0  0  0  0  0  0  0  0  0  0  0  0
  -28.4800  -21.0790   19.7440 C   0  0  0  0  0  0  0  0  0  0  0  0
  -31.1140  -21.9800   22.3350 C   0  0  0  0  0  1  0  0  0  0  0  0
  -28.7010  -19.7030   19.6170 N   0  0  0  0  0  0  0  0  0  0  0  0
  -31.6660  -19.0450   22.1530 Cl  0  0  0  0  0  0  0  0  0  0  0  0
  -26.7280  -20.7900   18.1210 C   0  0  0  0  0  1  0  0  0  0  0  0
  -27.4860  -21.6420   18.9730 O   0  0  0  0  0  0  0  0  0  0  0  0
  -29.0840  -23.6140   20.7360 C   0  0  0  0  0  3  0  0  0  0  0  0
  -28.0650  -24.7340   20.0590 C   0  0  0  0  0  3  0  0  0  0  0  0
  -28.2450  -26.2510   20.3000 O   0  0  0  0  0  0  0  0  0  0  0  0
  -24.6200  -31.9040   23.2410 C   0  0  0  0  0  0  0  0  0  0  0  0
  -27.1710  -27.1980   20.2180 C   0  0  0  0  0  0  0  0  0  0  0  0
  -23.4070  -30.5050   21.6110 C   0  0  0  0  0  3  0  0  0  0  0  0
  -24.8420  -28.9220   20.1860 C   0  0  0  0  0  0  0  0  0  0  0  0
  -25.9570  -30.7710   21.4320 C   0  0  0  0  0  2  0  0  0  0  0  0
  -26.0220  -29.3780   20.7870 C   0  0  0  0  0  0  0  0  0  0  0  0
  -27.1860  -28.5300   20.7870 C   0  0  0  0  0  3  0  0  0  0  0  0
  -25.9680  -26.8340   19.5760 C   0  0  0  0  0  3  0  0  0  0  0  0
  -24.8250  -27.6630   19.5670 C   0  0  0  0  0  3  0  0  0  0  0  0
  -23.6170  -29.8200   20.2350 C   0  0  0  0  0  2  0  0  0  0  0  0
  -24.6810  -31.0810   22.1500 N   0  0  0  0  0  0  0  0  0  0  0  0
  -23.5380  -32.1940   23.7730 O   0  0  0  0  0  0  0  0  0  0  0  0
  -22.7300  -29.5050   22.5800 C   0  0  0  0  0  0  0  0  0  0  0  0
  -21.4010  -29.3390   22.4600 N   0  0  0  0  0  0  0  0  0  0  0  0
  -23.4020  -28.8780   23.4040 O   0  0  0  0  0  0  0  0  0  0  0  0
  -20.9160  -29.8940   21.7700 H   0  0  0  0  0  0  0  0  0  0  0  0
  -18.0170  -28.1570   22.9750 C   0  0  0  0  0  0  0  0  0  0  0  0
  -20.5780  -28.4110   23.2390 C   0  0  0  0  0  3  0  0  0  0  0  0
  -20.6730  -26.9730   22.6750 C   0  0  0  0  0  2  0  0  0  0  0  0
  -19.5700  -26.6480   21.6640 C   0  0  0  0  0  2  0  0  0  0  0  0
  -18.1890  -26.8020   22.3080 C   0  0  0  0  0  2  0  0  0  0  0  0
  -19.1390  -28.9180   23.3970 C   0  0  0  0  0  0  0  0  0  0  0  0
  -18.9240  -30.1840   23.9830 C   0  0  0  0  0  3  0  0  0  0  0  0
  -17.6210  -30.6900   24.1490 C   0  0  0  0  0  3  0  0  0  0  0  0
  -16.5140  -29.9260   23.7430 C   0  0  0  0  0  3  0  0  0  0  0  0
  -16.7130  -28.6610   23.1610 C   0  0  0  0  0  3  0  0  0  0  0  0
  -25.9040  -32.5360   23.8580 C   0  0  0  0  0  3  0  0  0  0  0  0
  -26.4200  -31.7670   25.1380 C   0  0  1  0  0  0  0  0  0  0  0  0
  -25.3280  -31.5410   26.2090 C   0  0  0  0  0  1  0  0  0  0  0  0
  -26.9950  -30.3850   24.7540 C   0  0  0  0  0  1  0  0  0  0  0  0
  -27.5760  -32.5580   25.7930 C   0  0  0  0  0  1  0  0  0  0  0  0
  -25.5980  -33.9360   24.1900 N   0  0  0  0  0  0  0  0  0  0  0  0
  -25.9270  -34.9900   23.4320 C   0  0  0  0  0  0  0  0  0  0  0  0
  -26.5870  -34.8870   22.3940 O   0  0  0  0  0  0  0  0  0  0  0  0
  -25.0090  -34.0900   24.9950 H   0  0  0  0  0  0  0  0  0  0  0  0
  -24.1980  -36.7900   23.1080 C   0  0  0  0  0  1  0  0  0  0  0  0
  -25.4510  -36.3810   23.8990 C   0  0  0  0  0  3  0  0  0  0  0  0
  -27.6010  -37.2610   24.6950 C   0  0  0  0  0  1  0  0  0  0  0  0
  -26.4840  -37.4320   23.7690 N   0  0  0  0  0  0  0  0  0  0  0  0
  -26.0830  -38.3530   23.9230 H   0  0  0  0  0  0  0  0  0  0  0  0
  -30.1320  -17.5090   19.8740 C   0  0  0  0  0  2  0  0  0  0  0  0
  -30.5510  -14.9090   20.2910 C   0  0  0  0  0  0  0  0  0  0  0  0
  -30.3760  -12.5860   19.3330 C   0  0  0  0  0  2  0  0  0  0  0  0
  -29.4370  -12.5990   18.1060 C   0  0  0  0  0  2  0  0  0  0  0  0
  -27.9730  -12.4040   18.5430 C   0  0  0  0  0  2  0  0  0  0  0  0
  -27.5890  -13.3070   19.7450 C   0  0  0  0  0  3  0  0  0  0  0  0
  -28.6530  -13.2800   20.8650 C   0  0  0  0  0  2  0  0  0  0  0  0
  -29.9310  -13.6660   20.2570 N   0  0  0  0  0  0  0  0  0  0  0  0
  -31.7370  -14.9660   19.9520 O   0  0  0  0  0  0  0  0  0  0  0  0
  -29.8080  -16.0960   20.4540 N   0  0  0  0  0  0  0  0  0  0  0  0
  -28.8580  -15.9770   20.7710 H   0  0  0  0  0  0  0  0  0  0  0  0
  -25.2040  -13.8780   20.4850 C   0  0  0  0  0  0  0  0  0  0  0  0
  -24.1440  -13.0990   20.8600 C   0  0  0  0  0  0  0  0  0  0  0  0
  -24.6160  -11.7510   20.8330 C   0  0  0  0  0  0  0  0  0  0  0  0
  -26.2520  -13.0050   20.2470 N   0  0  0  0  0  0  0  0  0  0  0  0
  -25.9070  -11.7190   20.5220 N   0  0  0  0  0  0  0  0  0  0  0  0
  -23.8950  -10.4840   21.0300 C   0  0  0  0  0  0  0  0  0  0  0  0
  -24.3390   -9.5180   21.9590 C   0  0  0  0  0  3  0  0  0  0  0  0
  -23.6180   -8.3190   22.1450 C   0  0  0  0  0  3  0  0  0  0  0  0
  -22.4390   -8.0760   21.4020 C   0  0  0  0  0  0  0  0  0  0  0  0
  -22.0120   -9.0310   20.4620 C   0  0  0  0  0  3  0  0  0  0  0  0
  -22.7330  -10.2230   20.2740 C   0  0  0  0  0  3  0  0  0  0  0  0
  -21.6900   -6.9290   21.4960 O   0  0  0  0  0  0  0  0  0  0  0  0
  -21.6610   -6.1800   22.6460 C   0  0  0  0  0  0  0  0  0  0  0  0
  -21.2610   -6.7290   23.8830 C   0  0  0  0  0  3  0  0  0  0  0  0
  -21.1810   -5.9080   25.0250 C   0  0  0  0  0  3  0  0  0  0  0  0
  -21.4910   -4.5380   24.9310 C   0  0  0  0  0  0  0  0  0  0  0  0
  -21.8840   -3.9870   23.6980 C   0  0  0  0  0  3  0  0  0  0  0  0
  -21.9660   -4.8060   22.5580 C   0  0  0  0  0  0  0  0  0  0  0  0
  -22.3250   -4.2660   21.3680 F   0  0  0  0  0  0  0  0  0  0  0  0
  -21.4070   -3.7460   26.0250 F   0  0  0  0  0  0  0  0  0  0  0  0
  -22.7450  -13.5690   21.1310 C   0  0  0  0  0  0  0  0  0  0  0  0
  -22.0210  -12.8740   22.0020 N   0  0  0  0  0  0  0  0  0  0  0  0
  -22.3020  -14.5900   20.6060 O   0  0  0  0  0  0  0  0  0  0  0  0
  -22.3940  -12.0490   22.4490 H   0  0  0  0  0  0  0  0  0  0  0  0
  -21.0830  -13.1720   22.2260 H   0  0  0  0  0  0  0  0  0  0  0  0
  -25.3600  -15.2490   20.2990 N   0  0  0  0  0  0  0  0  0  0  0  0
  -24.5870  -15.8980   20.4010 H   0  0  0  0  0  0  0  0  0  0  0  0
  -26.1950  -15.6870   19.9340 H   0  0  0  0  0  0  0  0  0  0  0  0
  1  6  1  0
  2 11  1  0
  2  1  2  0
  3  1  1  0
  3  8  1  0
  4  3  2  0
  5  2  1  0
  7  5  2  0
  7  4  1  0
  9 10  1  0
 10  5  1  0
 12 13  1  0
 12 11  2  0
 14 25  2  0
 15 13  1  0
 15 20  1  0
 16 24  1  0
 16 26  1  0
 17 23  1  0
 17 19  1  0
 18 24  1  0
 19 20  2  0
 19 18  1  0
 21 15  2  0
 22 21  1  0
 22 17  2  0
 23 16  1  0
 24 14  1  0
 26 28  2  0
 27 26  1  0
 29 27  1  0
 30 39  2  0
 30 35  1  0
 31 27  1  0
 31 35  1  0
 32 31  1  0
 33 34  1  0
 33 32  1  0
 34 30  1  0
 35 36  2  0
 36 37  1  0
 38 37  2  0
 39 38  1  0
 40 14  1  0
 40 45  1  0
 40 41  1  0
 41 44  1  1
 41 42  1  0
 43 41  1  0
 45 48  1  0
 46 50  1  0
 46 45  1  0
 47 46  2  0
 50 49  1  0
 52 50  1  0
 52 53  1  0
 52 51  1  0
 54  4  1  0
 54 63  1  0
 55 63  1  0
 56 61  1  0
 57 58  1  0
 57 56  1  0
 59 58  1  0
 59 68  1  0
 59 60  1  0
 61 55  1  0
 61 60  1  0
 62 55  2  0
 63 64  1  0
 65 66  2  0
 66 85  1  0
 67 66  1  0
 67 70  1  0
 68 65  1  0
 68 69  1  0
 69 67  2  0
 70 71  1  0
 71 72  2  0
 73 76  1  0
 73 72  1  0
 74 73  2  0
 75 74  1  0
 75 70  2  0
 76 77  1  0
 77 78  1  0
 78 79  2  0
 80 79  1  0
 80 84  1  0
 81 80  2  0
 82 77  2  0
 82 81  1  0
 83 82  1  0
 85 86  1  0
 86 89  1  0
 86 88  1  0
 87 85  2  0
 90 91  1  0
 90 65  1  0
 92 90  1  0
M  ISO  4  12 101  13 101  55 100  63 100
M  END
>  <TORSDO>  (14) 
F 20

>  <SCORE>  (14) 
-14.152

>  <name>  (14) 
13

>  <ligand_id>  (14) 
13

>  <original_smiles>  (14) 
[H]c1c([H])c([H])c2c(c1[H])C([H])([H])C([H])([H])C([H])([H])C2([H])N([H])C(=O)C1([H])N(C(=O)C([H])(N([H])C(=O)C([H])(N([H])C([H])([H])[H])C([H])([H])[H])C(C([H])([H])[H])(C([H])([H])[H])C([H])([H])[H])C([H])([H])c2c([H])c(OC([H])([H])C([H])([H])c3c(OC([H])([H])[H])nc(C([H])([H])N([H])C(=O)N4C([H])([H])C([H])([H])C([H])([H])C([H])(n5nc(-c6c([H])c([H])c(Oc7c([H])c([H])c(F)c([H])c7F)c([H])c6[H])c(C(=O)N([H])[H])c5N([H])[H])C4([H])[H])c(Cl)c3C([H])([H])[H])c([H])c([H])c2C1([H])[H]

>  <smiles>  (14) 
[H]c1c([H])c([H])c2c(c1[H])C([H])([H])C([H])([H])C([H])([H])C2([H])N([H])C(=O)C1([H])N(C(=O)C([H])(N([H])C(=O)C([H])(N([H])C([H])([H])[H])C([H])([H])[H])C(C([H])([H])[H])(C([H])([H])[H])C([H])([H])[H])C([H])([H])c2c([H])c(OC([H])([H])C([H])([H])c3c(OC([H])([H])[H])nc(C([H])([H])N([H])C(=O)N4C([H])([H])C([H])([H])C([H])([H])C([H])(n5nc(-c6c([H])c([H])c(Oc7c([H])c([H])c(F)c([H])c7F)c([H])c6[H])c(C(=O)N([H])[H])c5N([H])[H])C4([H])[H])c(Cl)c3C([H])([H])[H])c([H])c([H])c2C1([H])[H]

$$$$
14:0:0
     RDKit          3D

 94103  0  0  1  0  0  0  0  0999 V2000
  -29.1230  -23.3830   18.3930 C   0  0  0  0  0  2  0  0  0  0  0  0
  -28.8570  -21.6620   19.7840 C   0  0  0  0  0  3  0  0  0  0  0  0
  -29.0530  -23.3690   19.9250 C   0  0  0  0  0  3  0  0  0  0  0  0
  -29.3630  -21.8800   18.3350 C   0  0  0  0  0  3  0  0  0  0  0  0
  -29.2210  -18.8450   20.1280 C   0  0  0  0  0  3  0  0  0  0  0  0
  -30.7890  -20.3910   21.0650 C   0  0  0  0  0  3  0  0  0  0  0  0
  -31.1990  -18.0670   21.2400 C   0  0  0  0  0  3  0  0  0  0  0  0
  -29.5850  -20.2730   20.3440 C   0  0  0  0  0  0  0  0  0  0  0  0
  -30.0280  -17.6710   20.5570 C   0  0  0  0  0  0  0  0  0  0  0  0
  -31.5520  -19.3530   21.4910 N   0  0  0  0  0  0  0  0  0  0  0  0
  -30.5040  -14.9820   20.4080 C   0  0  0  0  0  0  0  0  0  0  0  0
  -30.3980  -12.6220   19.4760 C   0  0  0  0  0  2  0  0  0  0  0  0
  -29.4750  -12.5400   18.2390 C   0  0  0  0  0  2  0  0  0  0  0  0
  -28.0110  -12.3220   18.6660 C   0  0  0  0  0  2  0  0  0  0  0  0
  -27.5790  -13.2760   19.8100 C   0  0  0  0  0  3  0  0  0  0  0  0
  -28.6220  -13.3220   20.9430 C   0  0  0  0  0  2  0  0  0  0  0  0
  -29.8970  -13.7290   20.3380 N   0  0  0  0  0  0  0  0  0  0  0  0
  -31.7220  -15.0330   20.2090 O   0  0  0  0  0  0  0  0  0  0  0  0
  -29.7160  -16.1700   20.4180 N   0  0  0  0  0  0  0  0  0  0  0  0
  -28.7330  -15.9650   20.3350 H   0  0  0  0  0  0  0  0  0  0  0  0
  -25.1880  -13.8540   20.5270 C   0  0  0  0  0  0  0  0  0  0  0  0
  -24.1220  -13.0780   20.8910 C   0  0  0  0  0  0  0  0  0  0  0  0
  -24.5920  -11.7290   20.8700 C   0  0  0  0  0  0  0  0  0  0  0  0
  -26.2380  -12.9790   20.3020 N   0  0  0  0  0  0  0  0  0  0  0  0
  -25.8890  -11.6960   20.5820 N   0  0  0  0  0  0  0  0  0  0  0  0
  -23.8670  -10.4650   21.0560 C   0  0  0  0  0  0  0  0  0  0  0  0
  -24.2950   -9.4970   21.9920 C   0  0  0  0  0  3  0  0  0  0  0  0
  -23.5680   -8.3000   22.1670 C   0  0  0  0  0  3  0  0  0  0  0  0
  -22.3990   -8.0600   21.4060 C   0  0  0  0  0  0  0  0  0  0  0  0
  -21.9900   -9.0150   20.4590 C   0  0  0  0  0  3  0  0  0  0  0  0
  -22.7170  -10.2040   20.2820 C   0  0  0  0  0  3  0  0  0  0  0  0
  -21.6410   -6.9150   21.4920 O   0  0  0  0  0  0  0  0  0  0  0  0
  -21.5910   -6.1710   22.6430 C   0  0  0  0  0  0  0  0  0  0  0  0
  -21.1620   -6.7230   23.8700 C   0  0  0  0  0  3  0  0  0  0  0  0
  -21.0590   -5.9030   25.0120 C   0  0  0  0  0  3  0  0  0  0  0  0
  -21.3730   -4.5350   24.9270 C   0  0  0  0  0  0  0  0  0  0  0  0
  -21.7920   -3.9830   23.7040 C   0  0  0  0  0  3  0  0  0  0  0  0
  -21.9000   -4.7980   22.5640 C   0  0  0  0  0  0  0  0  0  0  0  0
  -22.2820   -4.2570   21.3810 F   0  0  0  0  0  0  0  0  0  0  0  0
  -21.2670   -3.7430   26.0210 F   0  0  0  0  0  0  0  0  0  0  0  0
  -22.7180  -13.5510   21.1340 C   0  0  0  0  0  0  0  0  0  0  0  0
  -21.9820  -12.8560   21.9940 N   0  0  0  0  0  0  0  0  0  0  0  0
  -22.2820  -14.5680   20.5950 O   0  0  0  0  0  0  0  0  0  0  0  0
  -22.3490  -12.0370   22.4560 H   0  0  0  0  0  0  0  0  0  0  0  0
  -21.0370  -13.1480   22.2020 H   0  0  0  0  0  0  0  0  0  0  0  0
  -25.3500  -15.2220   20.3370 N   0  0  0  0  0  0  0  0  0  0  0  0
  -24.5830  -15.8800   20.4370 H   0  0  0  0  0  0  0  0  0  0  0  0
  -26.1920  -15.6540   19.9800 H   0  0  0  0  0  0  0  0  0  0  0  0
  -28.6200  -21.1840   17.2610 N   0  0  0  0  0  4  0  0  0  0  0  0
  -27.6290  -21.3220   17.3360 H   0  0  0  0  0  0  0  0  0  0  0  0
  -28.8050  -20.1970   17.2680 H   0  0  0  0  0  0  0  0  0  0  0  0
  -28.9100  -21.5270   16.3630 H   0  0  0  0  0  0  0  0  0  0  0  0
  -28.0660  -24.6390   20.4440 C   0  0  0  0  0  2  0  0  0  0  0  0
  -28.2680  -26.1720   20.1830 O   0  0  0  0  0  0  0  0  0  0  0  0
  -24.6280  -31.8610   23.2150 C   0  0  0  0  0  0  0  0  0  0  0  0
  -27.1870  -27.1330   20.1800 C   0  0  0  0  0  0  0  0  0  0  0  0
  -23.4150  -30.4610   21.5890 C   0  0  0  0  0  3  0  0  0  0  0  0
  -24.8500  -28.8740   20.1620 C   0  0  0  0  0  0  0  0  0  0  0  0
  -25.9660  -30.7210   21.4030 C   0  0  0  0  0  2  0  0  0  0  0  0
  -26.0330  -29.3230   20.7620 C   0  0  0  0  0  0  0  0  0  0  0  0
  -27.2010  -28.4690   20.7510 C   0  0  0  0  0  3  0  0  0  0  0  0
  -25.9760  -26.7840   19.5410 C   0  0  0  0  0  3  0  0  0  0  0  0
  -24.8330  -27.6170   19.5380 C   0  0  0  0  0  3  0  0  0  0  0  0
  -23.6250  -29.7750   20.2110 C   0  0  0  0  0  2  0  0  0  0  0  0
  -24.6910  -31.0360   22.1240 N   0  0  0  0  0  0  0  0  0  0  0  0
  -23.5460  -32.1460   23.7510 O   0  0  0  0  0  0  0  0  0  0  0  0
  -22.7420  -29.4600   22.5620 C   0  0  0  0  0  0  0  0  0  0  0  0
  -21.4140  -29.2870   22.4450 N   0  0  0  0  0  0  0  0  0  0  0  0
  -23.4200  -28.8390   23.3860 O   0  0  0  0  0  0  0  0  0  0  0  0
  -20.9190  -29.8410   21.7600 H   0  0  0  0  0  0  0  0  0  0  0  0
  -18.0420  -28.0710   22.9740 C   0  0  0  0  0  0  0  0  0  0  0  0
  -20.6010  -28.3510   23.2280 C   0  0  0  0  0  3  0  0  0  0  0  0
  -20.7090  -26.9140   22.6670 C   0  0  0  0  0  2  0  0  0  0  0  0
  -19.6060  -26.5760   21.6590 C   0  0  0  0  0  2  0  0  0  0  0  0
  -18.2250  -26.7170   22.3080 C   0  0  0  0  0  2  0  0  0  0  0  0
  -19.1580  -28.8440   23.3920 C   0  0  0  0  0  0  0  0  0  0  0  0
  -18.9310  -30.1090   23.9770 C   0  0  0  0  0  3  0  0  0  0  0  0
  -17.6220  -30.6010   24.1460 C   0  0  0  0  0  3  0  0  0  0  0  0
  -16.5220  -29.8240   23.7390 C   0  0  0  0  0  3  0  0  0  0  0  0
  -16.7340  -28.5620   23.1600 C   0  0  0  0  0  3  0  0  0  0  0  0
  -25.9110  -32.4990   23.8290 C   0  0  0  0  0  3  0  0  0  0  0  0
  -26.4370  -31.7310   25.1040 C   0  0  1  0  0  0  0  0  0  0  0  0
  -25.3560  -31.4970   26.1850 C   0  0  0  0  0  1  0  0  0  0  0  0
  -27.0160  -30.3510   24.7170 C   0  0  0  0  0  1  0  0  0  0  0  0
  -27.5930  -32.5280   25.7530 C   0  0  0  0  0  1  0  0  0  0  0  0
  -25.5980  -33.8980   24.1660 N   0  0  0  0  0  0  0  0  0  0  0  0
  -25.9200  -34.9590   23.4150 C   0  0  0  0  0  0  0  0  0  0  0  0
  -26.5790  -34.8630   22.3770 O   0  0  0  0  0  0  0  0  0  0  0  0
  -25.0090  -34.0430   24.9740 H   0  0  0  0  0  0  0  0  0  0  0  0
  -24.1890  -36.7590   23.0960 C   0  0  0  0  0  1  0  0  0  0  0  0
  -25.4380  -36.3460   23.8890 C   0  0  0  0  0  3  0  0  0  0  0  0
  -27.5830  -37.2270   24.6980 C   0  0  0  0  0  1  0  0  0  0  0  0
  -26.4680  -37.4000   23.7730 N   0  0  0  0  0  0  0  0  0  0  0  0
  -26.0610  -38.3180   23.9360 H   0  0  0  0  0  0  0  0  0  0  0  0
  1  3  1  0
  2  3  1  0
  2  8  1  0
  3 53  1  0
  4 49  1  0
  4  1  1  0
  4  2  1  0
  5  8  2  0
  5  9  1  0
  6 10  2  0
  7 10  1  0
  8  6  1  0
  9  7  2  0
 11 19  1  0
 12 17  1  0
 13 14  1  0
 13 12  1  0
 15 14  1  0
 15 24  1  0
 15 16  1  0
 17 11  1  0
 17 16  1  0
 18 11  2  0
 19  9  1  0
 20 19  1  0
 21 22  2  0
 22 41  1  0
 23 22  1  0
 23 26  1  0
 24 21  1  0
 24 25  1  0
 25 23  2  0
 26 27  1  0
 27 28  2  0
 29 32  1  0
 29 28  1  0
 30 29  2  0
 31 30  1  0
 31 26  2  0
 32 33  1  0
 33 34  1  0
 34 35  2  0
 36 35  1  0
 36 40  1  0
 37 36  2  0
 38 33  2  0
 38 37  1  0
 39 38  1  0
 41 42  1  0
 42 45  1  0
 42 44  1  0
 43 41  2  0
 46 47  1  0
 46 21  1  0
 48 46  1  0
 49 51  1  0
 49 50  1  0
 52 49  1  0
 54 53  1  0
 55 66  2  0
 56 54  1  0
 56 61  1  0
 57 65  1  0
 57 67  1  0
 58 64  1  0
 58 60  1  0
 59 65  1  0
 60 59  1  0
 61 60  2  0
 62 56  2  0
 63 62  1  0
 63 58  2  0
 64 57  1  0
 65 55  1  0
 67 69  2  0
 68 67  1  0
 70 68  1  0
 71 80  2  0
 71 76  1  0
 72 68  1  0
 72 76  1  0
 73 72  1  0
 74 75  1  0
 74 73  1  0
 75 71  1  0
 76 77  2  0
 77 78  1  0
 79 78  2  0
 80 79  1  0
 81 55  1  0
 81 86  1  0
 81 82  1  0
 82 85  1  1
 82 83  1  0
 84 82  1  0
 86 89  1  0
 87 91  1  0
 87 86  1  0
 88 87  2  0
 91 90  1  0
 93 91  1  0
 93 94  1  0
 93 92  1  0
M  ISO  4  11 100  19 100  53 101  54 101
M  END
>  <TORSDO>  (15) 
F 19

>  <SCORE>  (15) 
-14.491

>  <name>  (15) 
14

>  <ligand_id>  (15) 
14

>  <original_smiles>  (15) 
[H]c1nc([H])c(C2([H])C([H])(C([H])([H])Oc3c([H])c([H])c4c(c3[H])C([H])([H])N(C(=O)C([H])(N([H])C(=O)C([H])(N([H])C([H])([H])[H])C([H])([H])[H])C(C([H])([H])[H])(C([H])([H])[H])C([H])([H])[H])C([H])(C(=O)N([H])C3([H])c5c([H])c([H])c([H])c([H])c5C([H])([H])C([H])([H])C3([H])[H])C4([H])[H])C([H])([H])C2([H])[N+]([H])([H])[H])c([H])c1N([H])C(=O)N1C([H])([H])C([H])([H])C([H])([H])C([H])(n2nc(-c3c([H])c([H])c(Oc4c([H])c([H])c(F)c([H])c4F)c([H])c3[H])c(C(=O)N([H])[H])c2N([H])[H])C1([H])[H]

>  <smiles>  (15) 
[H]c1nc([H])c(C2([H])C([H])(C([H])([H])Oc3c([H])c([H])c4c(c3[H])C([H])([H])N(C(=O)C([H])(N([H])C(=O)C([H])(N([H])C([H])([H])[H])C([H])([H])[H])C(C([H])([H])[H])(C([H])([H])[H])C([H])([H])[H])C([H])(C(=O)N([H])C3([H])c5c([H])c([H])c([H])c([H])c5C([H])([H])C([H])([H])C3([H])[H])C4([H])[H])C([H])([H])C2([H])[N+]([H])([H])[H])c([H])c1N([H])C(=O)N1C([H])([H])C([H])([H])C([H])([H])C([H])(n2nc(-c3c([H])c([H])c(Oc4c([H])c([H])c(F)c([H])c4F)c([H])c3[H])c(C(=O)N([H])[H])c2N([H])[H])C1([H])[H]

$$$$
15:0:0
     RDKit          3D

 90 99  0  0  1  0  0  0  0  0999 V2000
  -27.9340  -21.0150   18.3040 C   0  0  0  0  0  3  0  0  0  0  0  0
  -28.9380  -21.2080   20.8240 C   0  0  0  0  0  3  0  0  0  0  0  0
  -28.5620  -19.8730   18.8650 C   0  0  0  0  0  0  0  0  0  0  0  0
  -29.0320  -19.7940   20.1780 C   0  0  0  0  0  0  0  0  0  0  0  0
  -27.8190  -22.2820   18.9570 C   0  0  0  0  0  0  0  0  0  0  0  0
  -28.3610  -22.5460   20.2450 C   0  0  0  0  0  0  0  0  0  0  0  0
  -29.0270  -18.6810   18.0600 C   0  0  0  0  0  2  0  0  0  0  0  0
  -30.2810  -18.1940   18.8320 C   0  0  0  0  0  2  0  0  0  0  0  0
  -29.9020  -18.2500   20.3290 C   0  0  0  0  0  3  0  0  0  0  0  0
  -27.0790  -23.3980   18.2450 C   0  0  0  0  0  1  0  0  0  0  0  0
  -30.3530  -15.3210   20.3870 C   0  0  0  0  0  0  0  0  0  0  0  0
  -30.3600  -12.8560   19.5140 C   0  0  0  0  0  2  0  0  0  0  0  0
  -29.4690  -12.6560   18.2610 C   0  0  0  0  0  2  0  0  0  0  0  0
  -28.0200  -12.3710   18.6850 C   0  0  0  0  0  2  0  0  0  0  0  0
  -27.5520  -13.3310   19.8050 C   0  0  0  0  0  3  0  0  0  0  0  0
  -28.5760  -13.4790   20.9500 C   0  0  0  0  0  2  0  0  0  0  0  0
  -29.8080  -14.0000   20.3390 N   0  0  0  0  0  0  0  0  0  0  0  0
  -31.5610  -15.3270   20.0980 O   0  0  0  0  0  0  0  0  0  0  0  0
  -29.5910  -16.6000   20.5550 N   0  0  0  0  0  0  0  0  0  0  0  0
  -28.6460  -16.4270   20.8680 H   0  0  0  0  0  0  0  0  0  0  0  0
  -25.1780  -13.8820   20.5320 C   0  0  0  0  0  0  0  0  0  0  0  0
  -24.1150  -13.1050   20.8860 C   0  0  0  0  0  0  0  0  0  0  0  0
  -24.5840  -11.7540   20.8590 C   0  0  0  0  0  0  0  0  0  0  0  0
  -26.2210  -13.0080   20.2940 N   0  0  0  0  0  0  0  0  0  0  0  0
  -25.8770  -11.7230   20.5610 N   0  0  0  0  0  0  0  0  0  0  0  0
  -23.8580  -10.4890   21.0430 C   0  0  0  0  0  0  0  0  0  0  0  0
  -24.2840   -9.5220   21.9810 C   0  0  0  0  0  3  0  0  0  0  0  0
  -23.5540   -8.3270   22.1530 C   0  0  0  0  0  3  0  0  0  0  0  0
  -22.3900   -8.0850   21.3850 C   0  0  0  0  0  0  0  0  0  0  0  0
  -21.9840   -9.0430   20.4380 C   0  0  0  0  0  3  0  0  0  0  0  0
  -22.7120  -10.2310   20.2630 C   0  0  0  0  0  3  0  0  0  0  0  0
  -21.6360   -6.9400   21.4670 O   0  0  0  0  0  0  0  0  0  0  0  0
  -21.5700   -6.2030   22.6230 C   0  0  0  0  0  0  0  0  0  0  0  0
  -21.1080   -6.7590   23.8370 C   0  0  0  0  0  3  0  0  0  0  0  0
  -20.9870   -5.9490   24.9850 C   0  0  0  0  0  3  0  0  0  0  0  0
  -21.3220   -4.5830   24.9190 C   0  0  0  0  0  0  0  0  0  0  0  0
  -21.7820   -4.0270   23.7110 C   0  0  0  0  0  3  0  0  0  0  0  0
  -21.8990   -4.8340   22.5660 C   0  0  0  0  0  0  0  0  0  0  0  0
  -22.3210   -4.2890   21.3990 F   0  0  0  0  0  0  0  0  0  0  0  0
  -21.2000   -3.8010   26.0170 F   0  0  0  0  0  0  0  0  0  0  0  0
  -22.7130  -13.5750   21.1440 C   0  0  0  0  0  0  0  0  0  0  0  0
  -21.9790  -12.8730   21.9980 N   0  0  0  0  0  0  0  0  0  0  0  0
  -22.2800  -14.6030   20.6190 O   0  0  0  0  0  0  0  0  0  0  0  0
  -22.3470  -12.0430   22.4410 H   0  0  0  0  0  0  0  0  0  0  0  0
  -21.0400  -13.1700   22.2270 H   0  0  0  0  0  0  0  0  0  0  0  0
  -25.3500  -15.2570   20.3650 N   0  0  0  0  0  0  0  0  0  0  0  0
  -24.5920  -15.9210   20.5010 H   0  0  0  0  0  0  0  0  0  0  0  0
  -26.1950  -15.6870   20.0180 H   0  0  0  0  0  0  0  0  0  0  0  0
  -28.0640  -24.1830   20.8840 C   0  0  0  0  0  2  0  0  0  0  0  0
  -28.1690  -25.7570   20.2940 O   0  0  0  0  0  0  0  0  0  0  0  0
  -24.6130  -31.8370   23.2000 C   0  0  0  0  0  0  0  0  0  0  0  0
  -27.1690  -26.8860   20.2860 C   0  0  0  0  0  0  0  0  0  0  0  0
  -23.4360  -30.4400   21.5500 C   0  0  0  0  0  3  0  0  0  0  0  0
  -24.9000  -28.8270   20.1600 C   0  0  0  0  0  0  0  0  0  0  0  0
  -26.0120  -30.6320   21.4450 C   0  0  0  0  0  2  0  0  0  0  0  0
  -26.0850  -29.2140   20.8020 C   0  0  0  0  0  0  0  0  0  0  0  0
  -27.2150  -28.2700   20.8340 C   0  0  0  0  0  3  0  0  0  0  0  0
  -25.9630  -26.6780   19.5760 C   0  0  0  0  0  3  0  0  0  0  0  0
  -24.8710  -27.5820   19.5190 C   0  0  0  0  0  3  0  0  0  0  0  0
  -23.6880  -29.7590   20.1790 C   0  0  0  0  0  2  0  0  0  0  0  0
  -24.7090  -31.0010   22.1160 N   0  0  0  0  0  0  0  0  0  0  0  0
  -23.5180  -32.1310   23.7070 O   0  0  0  0  0  0  0  0  0  0  0  0
  -22.7310  -29.4470   22.5100 C   0  0  0  0  0  0  0  0  0  0  0  0
  -21.4020  -29.2790   22.3720 N   0  0  0  0  0  0  0  0  0  0  0  0
  -23.3890  -28.8270   23.3500 O   0  0  0  0  0  0  0  0  0  0  0  0
  -20.9240  -29.8230   21.6700 H   0  0  0  0  0  0  0  0  0  0  0  0
  -18.0170  -28.0680   22.8670 C   0  0  0  0  0  0  0  0  0  0  0  0
  -20.5770  -28.3430   23.1430 C   0  0  0  0  0  3  0  0  0  0  0  0
  -20.6830  -26.9120   22.5720 C   0  0  0  0  0  2  0  0  0  0  0  0
  -19.5870  -26.5840   21.5510 C   0  0  0  0  0  2  0  0  0  0  0  0
  -18.2020  -26.7220   22.1880 C   0  0  0  0  0  2  0  0  0  0  0  0
  -19.1320  -28.8360   23.3010 C   0  0  0  0  0  0  0  0  0  0  0  0
  -18.9020  -30.0930   23.8990 C   0  0  0  0  0  3  0  0  0  0  0  0
  -17.5930  -30.5840   24.0680 C   0  0  0  0  0  3  0  0  0  0  0  0
  -16.4940  -29.8150   23.6440 C   0  0  0  0  0  3  0  0  0  0  0  0
  -16.7080  -28.5590   23.0480 C   0  0  0  0  0  3  0  0  0  0  0  0
  -25.8790  -32.4820   23.8430 C   0  0  0  0  0  3  0  0  0  0  0  0
  -25.5630  -33.8870   24.1580 N   0  0  0  0  0  0  0  0  0  0  0  0
  -25.9100  -34.9420   23.4080 C   0  0  0  0  0  0  0  0  0  0  0  0
  -26.5980  -34.8360   22.3910 O   0  0  0  0  0  0  0  0  0  0  0  0
  -24.9490  -34.0410   24.9440 H   0  0  0  0  0  0  0  0  0  0  0  0
  -24.2040  -36.7570   23.0220 C   0  0  0  0  0  1  0  0  0  0  0  0
  -25.4210  -36.3360   23.8590 C   0  0  0  0  0  3  0  0  0  0  0  0
  -27.5350  -37.2100   24.7520 C   0  0  0  0  0  1  0  0  0  0  0  0
  -26.4630  -37.3820   23.7760 N   0  0  0  0  0  0  0  0  0  0  0  0
  -26.0560  -38.3050   23.9080 H   0  0  0  0  0  0  0  0  0  0  0  0
  -26.3630  -31.7320   25.1480 C   0  0  1  0  0  0  0  0  0  0  0  0
  -25.2440  -31.5210   26.1950 C   0  0  0  0  0  1  0  0  0  0  0  0
  -26.9460  -30.3400   24.8070 C   0  0  0  0  0  1  0  0  0  0  0  0
  -27.4990  -32.5360   25.8220 C   0  0  0  0  0  1  0  0  0  0  0  0
  1  3  2  0
  1  5  1  0
  3  4  1  0
  4  9  1  0
  4  2  2  0
  5  6  2  0
  6  2  1  0
  6 49  1  0
  7  8  1  0
  7  3  1  0
  8  9  1  0
  9 19  1  0
 10  5  1  0
 11 19  1  0
 12 17  1  0
 13 14  1  0
 13 12  1  0
 15 14  1  0
 15 24  1  0
 15 16  1  0
 17 11  1  0
 17 16  1  0
 18 11  2  0
 19 20  1  0
 21 22  2  0
 22 41  1  0
 23 22  1  0
 23 26  1  0
 24 21  1  0
 24 25  1  0
 25 23  2  0
 26 27  1  0
 27 28  2  0
 29 32  1  0
 29 28  1  0
 30 29  2  0
 31 30  1  0
 31 26  2  0
 32 33  1  0
 33 34  1  0
 34 35  2  0
 36 35  1  0
 36 40  1  0
 37 36  2  0
 38 33  2  0
 38 37  1  0
 39 38  1  0
 41 42  1  0
 42 45  1  0
 42 44  1  0
 43 41  2  0
 46 47  1  0
 46 21  1  0
 48 46  1  0
 50 49  1  0
 51 62  2  0
 52 50  1  0
 52 57  1  0
 53 61  1  0
 53 63  1  0
 54 60  1  0
 54 56  1  0
 55 61  1  0
 56 57  2  0
 56 55  1  0
 58 52  2  0
 59 58  1  0
 59 54  2  0
 60 53  1  0
 61 51  1  0
 63 65  2  0
 64 63  1  0
 66 64  1  0
 67 76  2  0
 67 72  1  0
 68 64  1  0
 68 72  1  0
 69 68  1  0
 70 71  1  0
 70 69  1  0
 71 67  1  0
 72 73  2  0
 73 74  1  0
 75 74  2  0
 76 75  1  0
 77 51  1  0
 77 78  1  0
 77 87  1  0
 78 81  1  0
 79 83  1  0
 79 78  1  0
 80 79  2  0
 83 82  1  0
 85 83  1  0
 85 86  1  0
 85 84  1  0
 87 90  1  1
 87 88  1  0
 89 87  1  0
M  ISO  4  11 100  19 100  49 101  50 101
M  END
>  <TORSDO>  (16) 
F 17

>  <SCORE>  (16) 
-16.969

>  <name>  (16) 
15

>  <ligand_id>  (16) 
15

>  <original_smiles>  (16) 
[H]c1c([H])c([H])c2c(c1[H])C([H])([H])C([H])([H])C([H])([H])C2([H])N([H])C(=O)C1([H])N(C(=O)C([H])(N([H])C(=O)C([H])(N([H])C([H])([H])[H])C([H])([H])[H])C(C([H])([H])[H])(C([H])([H])[H])C([H])([H])[H])C([H])([H])c2c([H])c(OC([H])([H])c3c([H])c4c(c([H])c3C([H])([H])[H])C([H])([H])C([H])([H])C4([H])N([H])C(=O)N3C([H])([H])C([H])([H])C([H])([H])C([H])(n4nc(-c5c([H])c([H])c(Oc6c([H])c([H])c(F)c([H])c6F)c([H])c5[H])c(C(=O)N([H])[H])c4N([H])[H])C3([H])[H])c([H])c([H])c2C1([H])[H]

>  <smiles>  (16) 
[H]c1c([H])c([H])c2c(c1[H])C([H])([H])C([H])([H])C([H])([H])C2([H])N([H])C(=O)C1([H])N(C(=O)C([H])(N([H])C(=O)C([H])(N([H])C([H])([H])[H])C([H])([H])[H])C(C([H])([H])[H])(C([H])([H])[H])C([H])([H])[H])C([H])([H])c2c([H])c(OC([H])([H])c3c([H])c4c(c([H])c3C([H])([H])[H])C([H])([H])C([H])([H])C4([H])N([H])C(=O)N3C([H])([H])C([H])([H])C([H])([H])C([H])(n4nc(-c5c([H])c([H])c(Oc6c([H])c([H])c(F)c([H])c6F)c([H])c5[H])c(C(=O)N([H])[H])c4N([H])[H])C3([H])[H])c([H])c([H])c2C1([H])[H]

$$$$
16:0:0
     RDKit          3D

 96105  0  0  1  0  0  0  0  0999 V2000
  -29.4880  -23.3860   22.0760 C   0  0  0  0  0  3  0  0  0  0  0  0
  -28.9120  -24.0040   20.9430 C   0  0  0  0  0  0  0  0  0  0  0  0
  -29.9880  -22.0580   22.0220 C   0  0  0  0  0  0  0  0  0  0  0  0
  -28.8490  -23.2010   19.7760 C   0  0  0  0  0  0  0  0  0  0  0  0
  -29.9030  -21.3480   20.7970 C   0  0  0  0  0  0  0  0  0  0  0  0
  -28.1810  -23.7180   18.5180 C   0  0  0  0  0  1  0  0  0  0  0  0
  -29.3330  -21.9220   19.7080 N   0  0  0  0  0  0  0  0  0  0  0  0
  -29.4630  -21.3100   24.3840 C   0  0  0  0  0  1  0  0  0  0  0  0
  -31.7870  -22.1710   23.8320 C   0  0  0  0  0  1  0  0  0  0  0  0
  -30.5500  -21.4260   23.3020 C   0  0  0  0  0  3  0  0  0  0  0  0
  -30.5420  -20.0910   20.6310 N   0  0  0  0  0  0  0  0  0  0  0  0
  -31.3020  -19.9820   21.2900 H   0  0  0  0  0  0  0  0  0  0  0  0
  -30.8260  -14.6260   20.0380 C   0  0  0  0  0  0  0  0  0  0  0  0
  -30.5010  -12.4310   18.9440 C   0  0  0  0  0  2  0  0  0  0  0  0
  -29.4930  -12.6100   17.7890 C   0  0  0  0  0  2  0  0  0  0  0  0
  -28.0450  -12.4570   18.3000 C   0  0  0  0  0  2  0  0  0  0  0  0
  -27.7670  -13.2860   19.5820 C   0  0  0  0  0  3  0  0  0  0  0  0
  -28.8910  -13.1010   20.6270 C   0  0  0  0  0  2  0  0  0  0  0  0
  -30.1640  -13.4310   19.9730 N   0  0  0  0  0  0  0  0  0  0  0  0
  -31.9720  -14.7470   19.5940 O   0  0  0  0  0  0  0  0  0  0  0  0
  -30.0860  -17.8220   21.6120 C   0  0  0  0  0  2  0  0  0  0  0  0
  -30.3860  -18.0730   19.1690 C   0  0  0  0  0  2  0  0  0  0  0  0
  -29.5790  -16.3560   21.4000 C   0  0  0  0  0  2  0  0  0  0  0  0
  -29.8190  -16.6390   18.9800 C   0  0  0  0  0  2  0  0  0  0  0  0
  -29.8490  -18.7990   20.4240 C   0  0  0  0  0  3  0  0  0  0  0  0
  -30.0320  -15.7420   20.1370 N   0  0  0  0  0  0  0  0  0  0  0  0
  -25.4250  -13.8690   20.4610 C   0  0  0  0  0  0  0  0  0  0  0  0
  -24.3780  -13.0870   20.8710 C   0  0  0  0  0  0  0  0  0  0  0  0
  -24.8320  -11.7360   20.7740 C   0  0  0  0  0  0  0  0  0  0  0  0
  -26.4500  -12.9940   20.1400 N   0  0  0  0  0  0  0  0  0  0  0  0
  -26.1020  -11.7040   20.3870 N   0  0  0  0  0  0  0  0  0  0  0  0
  -24.1150  -10.4710   20.9710 C   0  0  0  0  0  0  0  0  0  0  0  0
  -24.5620   -9.5070   21.9020 C   0  0  0  0  0  3  0  0  0  0  0  0
  -23.8460   -8.3050   22.0880 C   0  0  0  0  0  3  0  0  0  0  0  0
  -22.6680   -8.0580   21.3430 C   0  0  0  0  0  0  0  0  0  0  0  0
  -22.2400   -9.0120   20.4020 C   0  0  0  0  0  3  0  0  0  0  0  0
  -22.9570  -10.2050   20.2150 C   0  0  0  0  0  3  0  0  0  0  0  0
  -21.9210   -6.9090   21.4390 O   0  0  0  0  0  0  0  0  0  0  0  0
  -21.8290   -6.2050   22.6130 C   0  0  0  0  0  0  0  0  0  0  0  0
  -21.3270   -6.7900   23.7970 C   0  0  0  0  0  3  0  0  0  0  0  0
  -21.1880   -6.0110   24.9620 C   0  0  0  0  0  3  0  0  0  0  0  0
  -21.5390   -4.6480   24.9440 C   0  0  0  0  0  0  0  0  0  0  0  0
  -22.0330   -4.0620   23.7660 C   0  0  0  0  0  3  0  0  0  0  0  0
  -22.1750   -4.8390   22.6030 C   0  0  0  0  0  0  0  0  0  0  0  0
  -22.6340   -4.2650   21.4640 F   0  0  0  0  0  0  0  0  0  0  0  0
  -21.3970   -3.8970   26.0610 F   0  0  0  0  0  0  0  0  0  0  0  0
  -23.0020  -13.5590   21.2420 C   0  0  0  0  0  0  0  0  0  0  0  0
  -22.3260  -12.8430   22.1330 N   0  0  0  0  0  0  0  0  0  0  0  0
  -22.5370  -14.5990   20.7760 O   0  0  0  0  0  0  0  0  0  0  0  0
  -22.7150  -12.0020   22.5320 H   0  0  0  0  0  0  0  0  0  0  0  0
  -21.4060  -13.1460   22.4200 H   0  0  0  0  0  0  0  0  0  0  0  0
  -25.5850  -15.2430   20.3120 N   0  0  0  0  0  0  0  0  0  0  0  0
  -24.8320  -15.9010   20.4810 H   0  0  0  0  0  0  0  0  0  0  0  0
  -26.4280  -15.6830   19.9650 H   0  0  0  0  0  0  0  0  0  0  0  0
  -28.1720  -25.3640   21.1350 C   0  0  0  0  0  2  0  0  0  0  0  0
  -28.5200  -26.5570   20.3590 O   0  0  0  0  0  0  0  0  0  0  0  0
  -24.6960  -31.8600   23.3080 C   0  0  0  0  0  0  0  0  0  0  0  0
  -27.4320  -27.4200   20.2570 C   0  0  0  0  0  0  0  0  0  0  0  0
  -23.5340  -30.4410   21.6530 C   0  0  0  0  0  3  0  0  0  0  0  0
  -25.0320  -28.9420   20.2260 C   0  0  0  0  0  0  0  0  0  0  0  0
  -26.0620  -30.8330   21.4860 C   0  0  0  0  0  2  0  0  0  0  0  0
  -26.1810  -29.4650   20.8350 C   0  0  0  0  0  0  0  0  0  0  0  0
  -27.3900  -28.7140   20.8460 C   0  0  0  0  0  3  0  0  0  0  0  0
  -26.2730  -26.9470   19.6040 C   0  0  0  0  0  3  0  0  0  0  0  0
  -25.0780  -27.6860   19.6000 C   0  0  0  0  0  3  0  0  0  0  0  0
  -23.7710  -29.7780   20.2710 C   0  0  0  0  0  2  0  0  0  0  0  0
  -24.7820  -31.0620   22.2060 N   0  0  0  0  0  0  0  0  0  0  0  0
  -23.6030  -32.1110   23.8370 O   0  0  0  0  0  0  0  0  0  0  0  0
  -22.8920  -29.4050   22.6040 C   0  0  0  0  0  0  0  0  0  0  0  0
  -21.5810  -29.1620   22.4310 N   0  0  0  0  0  0  0  0  0  0  0  0
  -23.5700  -28.8240   23.4550 O   0  0  0  0  0  0  0  0  0  0  0  0
  -21.0940  -29.6830   21.7160 H   0  0  0  0  0  0  0  0  0  0  0  0
  -18.2630  -27.7640   22.7730 C   0  0  0  0  0  0  0  0  0  0  0  0
  -20.7780  -28.1980   23.1860 C   0  0  0  0  0  3  0  0  0  0  0  0
  -21.0060  -26.7580   22.6680 C   0  0  0  0  0  2  0  0  0  0  0  0
  -19.9910  -26.3320   21.6040 C   0  0  0  0  0  2  0  0  0  0  0  0
  -18.5660  -26.4070   22.1600 C   0  0  0  0  0  2  0  0  0  0  0  0
  -19.3030  -28.6110   23.2400 C   0  0  0  0  0  0  0  0  0  0  0  0
  -18.9680  -29.8760   23.7700 C   0  0  0  0  0  3  0  0  0  0  0  0
  -17.6260  -30.2950   23.8410 C   0  0  0  0  0  3  0  0  0  0  0  0
  -16.6000  -29.4460   23.3910 C   0  0  0  0  0  3  0  0  0  0  0  0
  -16.9190  -28.1820   22.8630 C   0  0  0  0  0  3  0  0  0  0  0  0
  -25.9620  -32.5170   23.9420 C   0  0  0  0  0  3  0  0  0  0  0  0
  -26.4620  -31.7740   25.2410 C   0  0  1  0  0  0  0  0  0  0  0  0
  -25.3500  -31.5380   26.2900 C   0  0  0  0  0  1  0  0  0  0  0  0
  -27.0710  -30.3970   24.8860 C   0  0  0  0  0  1  0  0  0  0  0  0
  -27.5870  -32.5950   25.9130 C   0  0  0  0  0  1  0  0  0  0  0  0
  -25.6330  -33.9180   24.2390 N   0  0  0  0  0  0  0  0  0  0  0  0
  -25.9750  -34.9590   23.4680 C   0  0  0  0  0  0  0  0  0  0  0  0
  -26.6700  -34.8420   22.4560 O   0  0  0  0  0  0  0  0  0  0  0  0
  -25.0170  -34.0810   25.0220 H   0  0  0  0  0  0  0  0  0  0  0  0
  -24.2410  -36.7300   23.0400 C   0  0  0  0  0  1  0  0  0  0  0  0
  -25.4650  -36.3510   23.8890 C   0  0  0  0  0  3  0  0  0  0  0  0
  -27.5710  -37.2710   24.7540 C   0  0  0  0  0  1  0  0  0  0  0  0
  -26.4910  -37.4110   23.7800 N   0  0  0  0  0  0  0  0  0  0  0  0
  -26.0740  -38.3310   23.8980 H   0  0  0  0  0  0  0  0  0  0  0  0
  2 55  1  0
  2  1  2  0
  3  1  1  0
  3 10  1  0
  4  2  1  0
  5  3  2  0
  6  4  1  0
  7  4  2  0
  7  5  1  0
 10  9  1  0
 10  8  1  0
 11  5  1  0
 11 12  1  0
 13 26  1  0
 14 19  1  0
 15 16  1  0
 15 14  1  0
 17 16  1  0
 17 30  1  0
 17 18  1  0
 19 13  1  0
 19 18  1  0
 20 13  2  0
 22 25  1  0
 23 21  1  0
 24 22  1  0
 24 26  1  0
 25 11  1  0
 25 21  1  0
 26 23  1  0
 27 28  2  0
 28 47  1  0
 29 28  1  0
 29 32  1  0
 30 31  1  0
 30 27  1  0
 31 29  2  0
 32 33  1  0
 33 34  2  0
 35 38  1  0
 35 34  1  0
 36 35  2  0
 37 36  1  0
 37 32  2  0
 38 39  1  0
 39 40  1  0
 40 41  2  0
 42 41  1  0
 42 46  1  0
 43 42  2  0
 44 39  2  0
 44 43  1  0
 45 44  1  0
 47 48  1  0
 48 51  1  0
 48 50  1  0
 49 47  2  0
 52 27  1  0
 52 53  1  0
 54 52  1  0
 56 55  1  0
 57 68  2  0
 58 56  1  0
 58 63  1  0
 59 67  1  0
 59 69  1  0
 60 66  1  0
 60 62  1  0
 61 67  1  0
 62 63  2  0
 62 61  1  0
 64 58  2  0
 65 64  1  0
 65 60  2  0
 66 59  1  0
 67 57  1  0
 69 71  2  0
 70 69  1  0
 72 70  1  0
 73 82  2  0
 73 78  1  0
 74 70  1  0
 74 78  1  0
 75 74  1  0
 76 77  1  0
 76 75  1  0
 77 73  1  0
 78 79  2  0
 79 80  1  0
 81 80  2  0
 82 81  1  0
 83 57  1  0
 83 88  1  0
 83 84  1  0
 84 87  1  1
 84 85  1  0
 86 84  1  0
 88 91  1  0
 89 93  1  0
 89 88  1  0
 90 89  2  0
 93 92  1  0
 95 93  1  0
 95 96  1  0
 95 94  1  0
M  ISO  4  13 100  26 100  55 101  56 101
M  END
>  <TORSDO>  (17) 
F 19

>  <SCORE>  (17) 
-12.917

>  <name>  (17) 
16

>  <ligand_id>  (17) 
16

>  <original_smiles>  (17) 
[H]c1c([H])c([H])c2c(c1[H])C([H])([H])C([H])([H])C([H])([H])C2([H])N([H])C(=O)C1([H])N(C(=O)C([H])(N([H])C(=O)C([H])(N([H])C([H])([H])[H])C([H])([H])[H])C(C([H])([H])[H])(C([H])([H])[H])C([H])([H])[H])C([H])([H])c2c([H])c(OC([H])([H])c3c(C([H])([H])[H])nc(N([H])C4([H])C([H])([H])C([H])([H])N(C(=O)N5C([H])([H])C([H])([H])C([H])([H])C([H])(n6nc(-c7c([H])c([H])c(Oc8c([H])c([H])c(F)c([H])c8F)c([H])c7[H])c(C(=O)N([H])[H])c6N([H])[H])C5([H])[H])C([H])([H])C4([H])[H])c(C([H])(C([H])([H])[H])C([H])([H])[H])c3[H])c([H])c([H])c2C1([H])[H]

>  <smiles>  (17) 
[H]c1c([H])c([H])c2c(c1[H])C([H])([H])C([H])([H])C([H])([H])C2([H])N([H])C(=O)C1([H])N(C(=O)C([H])(N([H])C(=O)C([H])(N([H])C([H])([H])[H])C([H])([H])[H])C(C([H])([H])[H])(C([H])([H])[H])C([H])([H])[H])C([H])([H])c2c([H])c(OC([H])([H])c3c(C([H])([H])[H])nc(N([H])C4([H])C([H])([H])C([H])([H])N(C(=O)N5C([H])([H])C([H])([H])C([H])([H])C([H])(n6nc(-c7c([H])c([H])c(Oc8c([H])c([H])c(F)c([H])c8F)c([H])c7[H])c(C(=O)N([H])[H])c6N([H])[H])C5([H])[H])C([H])([H])C4([H])[H])c(C([H])(C([H])([H])[H])C([H])([H])[H])c3[H])c([H])c([H])c2C1([H])[H]

$$$$
17:0:0
     RDKit          3D

 91 99  0  0  1  0  0  0  0  0999 V2000
  -29.4240  -20.4690   19.6580 C   0  0  0  0  0  0  0  0  0  0  0  0
  -29.5930  -21.8840   19.5710 N   0  0  0  0  0  0  0  0  0  0  0  0
  -28.3570  -20.0630   20.1220 O   0  0  0  0  0  0  0  0  0  0  0  0
  -30.5280  -22.1330   19.2710 H   0  0  0  0  0  0  0  0  0  0  0  0
  -30.4510  -19.2870   19.0600 C   0  0  0  0  0  2  0  0  0  0  0  0
  -31.2830  -15.1010   19.2530 C   0  0  0  0  0  0  0  0  0  0  0  0
  -30.9870  -12.7930   18.1850 C   0  0  0  0  0  2  0  0  0  0  0  0
  -29.7970  -12.7930   17.1960 C   0  0  0  0  0  2  0  0  0  0  0  0
  -28.4560  -12.5500   17.9260 C   0  0  0  0  0  2  0  0  0  0  0  0
  -28.3400  -13.3860   19.2290 C   0  0  0  0  0  3  0  0  0  0  0  0
  -29.6280  -13.2310   20.0660 C   0  0  0  0  0  2  0  0  0  0  0  0
  -30.6990  -13.8160   19.2410 N   0  0  0  0  0  0  0  0  0  0  0  0
  -32.3930  -15.1610   18.7030 O   0  0  0  0  0  0  0  0  0  0  0  0
  -31.2770  -18.0560   21.2550 C   0  0  0  0  0  2  0  0  0  0  0  0
  -29.6170  -16.4100   20.7230 C   0  0  0  0  0  2  0  0  0  0  0  0
  -31.0930  -17.8500   19.7420 C   0  0  0  0  0  3  0  0  0  0  0  0
  -30.3730  -17.0120   21.9230 C   0  0  2  0  0  0  0  0  0  0  0  0
  -29.3970  -17.6460   22.9290 C   0  0  0  0  0  1  0  0  0  0  0  0
  -31.2310  -15.9510   22.6460 C   0  0  0  0  0  1  0  0  0  0  0  0
  -30.5960  -16.3320   19.6330 N   0  0  0  0  0  0  0  0  0  0  0  0
  -26.2790  -13.9470   20.6390 C   0  0  0  0  0  0  0  0  0  0  0  0
  -25.2560  -13.1750   21.1170 C   0  0  0  0  0  0  0  0  0  0  0  0
  -25.5530  -11.8360   20.7180 C   0  0  0  0  0  0  0  0  0  0  0  0
  -27.1340  -13.0770   19.9850 N   0  0  0  0  0  0  0  0  0  0  0  0
  -26.7200  -11.7880   20.0880 N   0  0  0  0  0  0  0  0  0  0  0  0
  -24.7620  -10.6070   20.8510 C   0  0  0  0  0  0  0  0  0  0  0  0
  -25.1610   -9.5660   21.7170 C   0  0  0  0  0  3  0  0  0  0  0  0
  -24.3730   -8.4030   21.8480 C   0  0  0  0  0  3  0  0  0  0  0  0
  -23.1710   -8.2730   21.1120 C   0  0  0  0  0  0  0  0  0  0  0  0
  -22.7910   -9.3030   20.2340 C   0  0  0  0  0  3  0  0  0  0  0  0
  -23.5790  -10.4580   20.1010 C   0  0  0  0  0  3  0  0  0  0  0  0
  -22.3560   -7.1680   21.1530 O   0  0  0  0  0  0  0  0  0  0  0  0
  -22.1010   -6.5060   22.3270 C   0  0  0  0  0  0  0  0  0  0  0  0
  -21.5450   -7.1610   23.4470 C   0  0  0  0  0  3  0  0  0  0  0  0
  -21.2350   -6.4270   24.6090 C   0  0  0  0  0  3  0  0  0  0  0  0
  -21.4700   -5.0400   24.6500 C   0  0  0  0  0  0  0  0  0  0  0  0
  -22.0160   -4.3840   23.5330 C   0  0  0  0  0  3  0  0  0  0  0  0
  -22.3290   -5.1150   22.3740 C   0  0  0  0  0  0  0  0  0  0  0  0
  -22.8360   -4.4750   21.2930 F   0  0  0  0  0  0  0  0  0  0  0  0
  -21.1650   -4.3330   25.7630 F   0  0  0  0  0  0  0  0  0  0  0  0
  -24.0210  -13.6670   21.8160 C   0  0  0  0  0  0  0  0  0  0  0  0
  -23.4870  -12.8800   22.7420 N   0  0  0  0  0  0  0  0  0  0  0  0
  -23.5520  -14.7790   21.5750 O   0  0  0  0  0  0  0  0  0  0  0  0
  -23.8820  -11.9770   22.9590 H   0  0  0  0  0  0  0  0  0  0  0  0
  -22.6650  -13.1850   23.2460 H   0  0  0  0  0  0  0  0  0  0  0  0
  -26.5350  -15.3150   20.6880 N   0  0  0  0  0  0  0  0  0  0  0  0
  -25.9260  -15.9540   21.1890 H   0  0  0  0  0  0  0  0  0  0  0  0
  -27.3310  -15.7760   20.2690 H   0  0  0  0  0  0  0  0  0  0  0  0
  -28.5960  -23.1310   19.4860 C   0  0  0  0  0  2  0  0  0  0  0  0
  -28.6760  -24.6160   20.3010 C   0  0  0  0  0  2  0  0  0  0  0  0
  -28.5870  -26.0990   19.8020 O   0  0  0  0  0  0  0  0  0  0  0  0
  -24.7090  -31.6620   22.8000 C   0  0  0  0  0  0  0  0  0  0  0  0
  -27.4510  -26.9860   19.8520 C   0  0  0  0  0  0  0  0  0  0  0  0
  -23.5570  -30.2010   21.1820 C   0  0  0  0  0  3  0  0  0  0  0  0
  -25.0580  -28.6430   19.7890 C   0  0  0  0  0  0  0  0  0  0  0  0
  -26.0990  -30.5510   21.0100 C   0  0  0  0  0  2  0  0  0  0  0  0
  -26.2220  -29.1480   20.3860 C   0  0  0  0  0  0  0  0  0  0  0  0
  -27.4200  -28.3380   20.3900 C   0  0  0  0  0  3  0  0  0  0  0  0
  -26.2540  -26.5680   19.2390 C   0  0  0  0  0  3  0  0  0  0  0  0
  -25.0870  -27.3690   19.1990 C   0  0  0  0  0  3  0  0  0  0  0  0
  -23.8010  -29.5030   19.8160 C   0  0  0  0  0  2  0  0  0  0  0  0
  -24.8070  -30.8290   21.7180 N   0  0  0  0  0  0  0  0  0  0  0  0
  -23.6130  -31.9180   23.3240 O   0  0  0  0  0  0  0  0  0  0  0  0
  -22.9120  -29.1880   22.1620 C   0  0  0  0  0  0  0  0  0  0  0  0
  -21.5800  -29.0210   22.0820 N   0  0  0  0  0  0  0  0  0  0  0  0
  -23.6130  -28.5530   22.9540 O   0  0  0  0  0  0  0  0  0  0  0  0
  -21.0690  -29.5830   21.4150 H   0  0  0  0  0  0  0  0  0  0  0  0
  -18.2050  -27.9130   22.7910 C   0  0  0  0  0  0  0  0  0  0  0  0
  -20.7840  -28.0790   22.8750 C   0  0  0  0  0  3  0  0  0  0  0  0
  -20.7920  -26.6710   22.2340 C   0  0  0  0  0  2  0  0  0  0  0  0
  -19.6070  -26.4290   21.2950 C   0  0  0  0  0  2  0  0  0  0  0  0
  -18.2820  -26.5910   22.0470 C   0  0  0  0  0  2  0  0  0  0  0  0
  -19.3790  -28.6200   23.1660 C   0  0  0  0  0  0  0  0  0  0  0  0
  -19.2500  -29.8600   23.8280 C   0  0  0  0  0  3  0  0  0  0  0  0
  -17.9800  -30.3940   24.1150 C   0  0  0  0  0  3  0  0  0  0  0  0
  -16.8210  -29.6840   23.7550 C   0  0  0  0  0  3  0  0  0  0  0  0
  -16.9350  -28.4440   23.0990 C   0  0  0  0  0  3  0  0  0  0  0  0
  -25.9650  -32.3500   23.4170 C   0  0  0  0  0  3  0  0  0  0  0  0
  -26.6410  -31.4950   24.5600 C   0  0  1  0  0  0  0  0  0  0  0  0
  -25.6450  -30.9940   25.6320 C   0  0  0  0  0  1  0  0  0  0  0  0
  -27.3590  -30.2590   23.9700 C   0  0  0  0  0  1  0  0  0  0  0  0
  -27.7280  -32.3350   25.2700 C   0  0  0  0  0  1  0  0  0  0  0  0
  -25.5480  -33.6620   23.9410 N   0  0  0  0  0  0  0  0  0  0  0  0
  -25.7300  -34.8290   23.3090 C   0  0  0  0  0  0  0  0  0  0  0  0
  -26.3340  -34.9200   22.2370 O   0  0  0  0  0  0  0  0  0  0  0  0
  -25.0000  -33.6560   24.7880 H   0  0  0  0  0  0  0  0  0  0  0  0
  -23.8370  -36.4870   23.2730 C   0  0  0  0  0  1  0  0  0  0  0  0
  -25.1510  -36.0950   23.9700 C   0  0  0  0  0  3  0  0  0  0  0  0
  -27.2430  -37.0610   24.8220 C   0  0  0  0  0  1  0  0  0  0  0  0
  -26.0810  -37.2470   23.9540 N   0  0  0  0  0  0  0  0  0  0  0  0
  -25.6060  -38.0980   24.2400 H   0  0  0  0  0  0  0  0  0  0  0  0
  1  3  2  0
  2  1  1  0
  4  2  1  0
  5  1  1  0
  6 20  1  0
  7 12  1  0
  8  9  1  0
  8  7  1  0
 10  9  1  0
 10 24  1  0
 10 11  1  0
 12  6  1  0
 12 11  1  0
 13  6  2  0
 14 17  1  0
 15 17  1  0
 16  5  1  0
 16 14  1  0
 17 19  1  1
 17 18  1  0
 20 16  1  0
 20 15  1  0
 21 46  1  0
 21 22  2  0
 22 41  1  0
 23 26  1  0
 23 22  1  0
 24 25  1  0
 24 21  1  0
 25 23  2  0
 26 27  1  0
 27 28  2  0
 29 32  1  0
 29 28  1  0
 30 29  2  0
 31 30  1  0
 31 26  2  0
 32 33  1  0
 33 38  2  0
 33 34  1  0
 34 35  2  0
 35 36  1  0
 36 40  1  0
 37 36  2  0
 38 37  1  0
 39 38  1  0
 41 42  1  0
 42 44  1  0
 42 45  1  0
 43 41  2  0
 46 47  1  0
 48 46  1  0
 49  2  1  0
 49 50  1  0
 51 53  1  0
 51 50  1  0
 52 63  2  0
 53 58  1  0
 54 62  1  0
 54 64  1  0
 55 61  1  0
 55 57  1  0
 56 62  1  0
 57 58  2  0
 57 56  1  0
 59 53  2  0
 60 59  1  0
 60 55  2  0
 61 54  1  0
 62 52  1  0
 64 66  2  0
 65 64  1  0
 67 65  1  0
 68 77  2  0
 68 73  1  0
 69 65  1  0
 69 73  1  0
 70 69  1  0
 71 72  1  0
 71 70  1  0
 72 68  1  0
 73 74  2  0
 74 75  1  0
 76 75  2  0
 77 76  1  0
 78 52  1  0
 78 83  1  0
 78 79  1  0
 79 82  1  1
 79 80  1  0
 81 79  1  0
 83 86  1  0
 84 83  1  0
 84 88  1  0
 85 84  2  0
 88 87  1  0
 90 88  1  0
 90 91  1  0
 90 89  1  0
M  ISO  4   6 100  20 100  50 101  51 101
M  END
>  <TORSDO>  (18) 
F 19

>  <SCORE>  (18) 
-8.445

>  <name>  (18) 
17

>  <ligand_id>  (18) 
17

>  <original_smiles>  (18) 
[H]c1c([H])c([H])c2c(c1[H])C([H])([H])C([H])([H])C([H])([H])C2([H])N([H])C(=O)C1([H])N(C(=O)C([H])(N([H])C(=O)C([H])(N([H])C([H])([H])[H])C([H])([H])[H])C(C([H])([H])[H])(C([H])([H])[H])C([H])([H])[H])C([H])([H])c2c([H])c(OC([H])([H])C([H])([H])N([H])C(=O)C([H])([H])C3([H])N(C(=O)N4C([H])([H])C([H])([H])C([H])([H])C([H])(n5nc(-c6c([H])c([H])c(Oc7c([H])c([H])c(F)c([H])c7F)c([H])c6[H])c(C(=O)N([H])[H])c5N([H])[H])C4([H])[H])C([H])([H])C(C([H])([H])[H])(C([H])([H])[H])C3([H])[H])c([H])c([H])c2C1([H])[H]

>  <smiles>  (18) 
[H]c1c([H])c([H])c2c(c1[H])C([H])([H])C([H])([H])C([H])([H])C2([H])N([H])C(=O)C1([H])N(C(=O)C([H])(N([H])C(=O)C([H])(N([H])C([H])([H])[H])C([H])([H])[H])C(C([H])([H])[H])(C([H])([H])[H])C([H])([H])[H])C([H])([H])c2c([H])c(OC([H])([H])C([H])([H])N([H])C(=O)C([H])([H])C3([H])N(C(=O)N4C([H])([H])C([H])([H])C([H])([H])C([H])(n5nc(-c6c([H])c([H])c(Oc7c([H])c([H])c(F)c([H])c7F)c([H])c6[H])c(C(=O)N([H])[H])c5N([H])[H])C4([H])[H])C([H])([H])C(C([H])([H])[H])(C([H])([H])[H])C3([H])[H])c([H])c([H])c2C1([H])[H]

$$$$
18:0:0
     RDKit          3D

 89 98  0  0  1  0  0  0  0  0999 V2000
  -30.8280  -15.5590   19.7690 C   0  0  0  0  0  0  0  0  0  0  0  0
  -30.8650  -13.0140   19.1030 C   0  0  0  0  0  2  0  0  0  0  0  0
  -29.9440  -12.6190   17.9140 C   0  0  0  0  0  2  0  0  0  0  0  0
  -28.5150  -12.3340   18.4040 C   0  0  0  0  0  2  0  0  0  0  0  0
  -28.0480  -13.3940   19.4300 C   0  0  0  0  0  3  0  0  0  0  0  0
  -29.1010  -13.6730   20.5240 C   0  0  0  0  0  2  0  0  0  0  0  0
  -30.2900  -14.2190   19.8380 N   0  0  0  0  0  0  0  0  0  0  0  0
  -32.0190  -15.5100   19.4130 O   0  0  0  0  0  0  0  0  0  0  0  0
  -28.8030  -21.1280   21.5620 C   0  0  0  0  0  3  0  0  0  0  0  0
  -29.1940  -19.9080   20.9330 C   0  0  0  0  0  0  0  0  0  0  0  0
  -28.7160  -22.4020   20.9080 C   0  0  0  0  0  0  0  0  0  0  0  0
  -29.5780  -19.9390   19.5960 C   0  0  0  0  0  0  0  0  0  0  0  0
  -28.9740  -22.5790   19.5170 C   0  0  0  0  0  0  0  0  0  0  0  0
  -29.2820  -18.5670   21.7150 C   0  0  0  0  0  3  0  0  0  0  0  0
  -30.1980  -18.3900   19.0910 C   0  0  0  0  0  3  0  0  0  0  0  0
  -29.1440  -17.1800   20.9470 C   0  0  0  0  0  3  0  0  0  0  0  0
  -28.2860  -23.5910   21.7550 C   0  0  0  0  0  1  0  0  0  0  0  0
  -29.4180  -21.2720   18.9320 N   0  0  0  0  0  2  0  0  0  0  0  0
  -30.0920  -16.8950   19.8380 N   0  0  0  0  0  0  0  0  0  0  0  0
  -25.7500  -14.0150   20.3310 C   0  0  0  0  0  0  0  0  0  0  0  0
  -24.6690  -13.2720   20.7110 C   0  0  0  0  0  0  0  0  0  0  0  0
  -25.0660  -11.9050   20.5860 C   0  0  0  0  0  0  0  0  0  0  0  0
  -26.7330  -13.1070   19.9850 N   0  0  0  0  0  0  0  0  0  0  0  0
  -26.3380  -11.8250   20.2060 N   0  0  0  0  0  0  0  0  0  0  0  0
  -24.2870  -10.6700   20.7450 C   0  0  0  0  0  0  0  0  0  0  0  0
  -24.7330   -9.6170   21.5710 C   0  0  0  0  0  3  0  0  0  0  0  0
  -23.9550   -8.4490   21.7260 C   0  0  0  0  0  3  0  0  0  0  0  0
  -22.7150   -8.3300   21.0560 C   0  0  0  0  0  0  0  0  0  0  0  0
  -22.2850   -9.3730   20.2150 C   0  0  0  0  0  3  0  0  0  0  0  0
  -23.0630  -10.5310   20.0590 C   0  0  0  0  0  3  0  0  0  0  0  0
  -21.9030   -7.2240   21.1260 O   0  0  0  0  0  0  0  0  0  0  0  0
  -21.9520   -6.3600   22.1910 C   0  0  0  0  0  0  0  0  0  0  0  0
  -21.7200   -6.7930   23.5150 C   0  0  0  0  0  3  0  0  0  0  0  0
  -21.7130   -5.8600   24.5680 C   0  0  0  0  0  3  0  0  0  0  0  0
  -21.9310   -4.4940   24.3030 C   0  0  0  0  0  0  0  0  0  0  0  0
  -22.1560   -4.0600   22.9850 C   0  0  0  0  0  3  0  0  0  0  0  0
  -22.1670   -4.9910   21.9310 C   0  0  0  0  0  0  0  0  0  0  0  0
  -22.3640   -4.5650   20.6620 F   0  0  0  0  0  0  0  0  0  0  0  0
  -21.9160   -3.5950   25.3150 F   0  0  0  0  0  0  0  0  0  0  0  0
  -23.3130  -13.8010   21.0710 C   0  0  0  0  0  0  0  0  0  0  0  0
  -22.5920  -13.0990   21.9400 N   0  0  0  0  0  0  0  0  0  0  0  0
  -22.9040  -14.8690   20.6160 O   0  0  0  0  0  0  0  0  0  0  0  0
  -22.9380  -12.2370   22.3300 H   0  0  0  0  0  0  0  0  0  0  0  0
  -21.6800  -13.4320   22.2170 H   0  0  0  0  0  0  0  0  0  0  0  0
  -25.9760  -15.3840   20.2150 N   0  0  0  0  0  0  0  0  0  0  0  0
  -25.2510  -16.0720   20.3950 H   0  0  0  0  0  0  0  0  0  0  0  0
  -26.8260  -15.7890   19.8520 H   0  0  0  0  0  0  0  0  0  0  0  0
  -28.4680  -24.1270   18.7410 C   0  0  0  0  0  2  0  0  0  0  0  0
  -28.5640  -25.7860   19.0700 O   0  0  0  0  0  0  0  0  0  0  0  0
  -24.6700  -31.2380   22.6560 C   0  0  0  0  0  0  0  0  0  0  0  0
  -27.4990  -26.8660   19.0820 C   0  0  0  0  0  0  0  0  0  0  0  0
  -23.5390  -29.9280   20.9040 C   0  0  0  0  0  3  0  0  0  0  0  0
  -25.0660  -28.6070   19.2690 C   0  0  0  0  0  0  0  0  0  0  0  0
  -26.0740  -30.3550   20.7160 C   0  0  0  0  0  2  0  0  0  0  0  0
  -26.2370  -29.0230   19.9140 C   0  0  0  0  0  0  0  0  0  0  0  0
  -27.4370  -28.1750   19.8010 C   0  0  0  0  0  3  0  0  0  0  0  0
  -26.2880  -26.6360   18.3880 C   0  0  0  0  0  3  0  0  0  0  0  0
  -25.1210  -27.4440   18.4840 C   0  0  0  0  0  3  0  0  0  0  0  0
  -23.7790  -29.4160   19.4520 C   0  0  0  0  0  2  0  0  0  0  0  0
  -24.7820  -30.5330   21.4810 N   0  0  0  0  0  0  0  0  0  0  0  0
  -23.5800  -31.3750   23.2360 O   0  0  0  0  0  0  0  0  0  0  0  0
  -22.9610  -28.7820   21.7770 C   0  0  0  0  0  0  0  0  0  0  0  0
  -21.6370  -28.5440   21.7020 N   0  0  0  0  0  0  0  0  0  0  0  0
  -23.7110  -28.1130   22.4910 O   0  0  0  0  0  0  0  0  0  0  0  0
  -21.0780  -29.1450   21.1110 H   0  0  0  0  0  0  0  0  0  0  0  0
  -18.3830  -27.0060   22.1820 C   0  0  0  0  0  0  0  0  0  0  0  0
  -20.9210  -27.4650   22.3950 C   0  0  0  0  0  3  0  0  0  0  0  0
  -21.1180  -26.1130   21.6690 C   0  0  0  0  0  2  0  0  0  0  0  0
  -20.0080  -25.8060   20.6580 C   0  0  0  0  0  2  0  0  0  0  0  0
  -18.6430  -25.7600   21.3520 C   0  0  0  0  0  2  0  0  0  0  0  0
  -19.4500  -27.8150   22.6550 C   0  0  0  0  0  0  0  0  0  0  0  0
  -19.1460  -28.9800   23.3940 C   0  0  0  0  0  3  0  0  0  0  0  0
  -17.8120  -29.3400   23.6560 C   0  0  0  0  0  3  0  0  0  0  0  0
  -16.7610  -28.5310   23.1930 C   0  0  0  0  0  3  0  0  0  0  0  0
  -17.0480  -27.3650   22.4630 C   0  0  0  0  0  3  0  0  0  0  0  0
  -25.9030  -31.9200   23.3210 C   0  0  0  0  0  3  0  0  0  0  0  0
  -25.4770  -33.2350   23.8400 N   0  0  0  0  0  0  0  0  0  0  0  0
  -25.7720  -34.4140   23.2770 C   0  0  0  0  0  0  0  0  0  0  0  0
  -26.4920  -34.5130   22.2810 O   0  0  0  0  0  0  0  0  0  0  0  0
  -24.8430  -33.2220   24.6250 H   0  0  0  0  0  0  0  0  0  0  0  0
  -23.9510  -36.1450   23.1080 C   0  0  0  0  0  1  0  0  0  0  0  0
  -25.1750  -35.6850   23.9180 C   0  0  0  0  0  3  0  0  0  0  0  0
  -27.2040  -36.5480   24.9980 C   0  0  0  0  0  1  0  0  0  0  0  0
  -26.1410  -36.8010   24.0290 N   0  0  0  0  0  0  0  0  0  0  0  0
  -25.6670  -37.6610   24.2920 H   0  0  0  0  0  0  0  0  0  0  0  0
  -26.5260  -31.0600   24.4900 C   0  0  1  0  0  0  0  0  0  0  0  0
  -25.4990  -30.6200   25.5600 C   0  0  0  0  0  1  0  0  0  0  0  0
  -27.2030  -29.7840   23.9390 C   0  0  0  0  0  1  0  0  0  0  0  0
  -27.6340  -31.8710   25.2020 C   0  0  0  0  0  1  0  0  0  0  0  0
  1 19  1  0
  1  7  1  0
  2  7  1  0
  3  4  1  0
  3  2  1  0
  5  4  1  0
  5 23  1  0
  5  6  1  0
  7  6  1  0
  8  1  2  0
 10  9  2  0
 10 14  1  0
 11  9  1  0
 11 17  1  0
 12 10  1  0
 13 11  2  0
 15 12  2  0
 15 19  1  0
 16 14  2  0
 18 13  1  0
 18 12  1  0
 19 16  1  0
 20 21  2  0
 21 40  1  0
 22 21  1  0
 22 25  1  0
 23 24  1  0
 23 20  1  0
 24 22  2  0
 25 26  1  0
 26 27  2  0
 28 31  1  0
 28 27  1  0
 29 28  2  0
 30 29  1  0
 30 25  2  0
 31 32  1  0
 32 33  1  0
 33 34  2  0
 35 34  1  0
 35 39  1  0
 36 35  2  0
 37 32  2  0
 37 36  1  0
 38 37  1  0
 40 41  1  0
 41 44  1  0
 41 43  1  0
 42 40  2  0
 45 20  1  0
 45 46  1  0
 47 45  1  0
 48 49  1  0
 48 13  1  0
 49 51  1  0
 50 61  2  0
 51 56  1  0
 52 60  1  0
 52 62  1  0
 53 59  1  0
 53 55  1  0
 54 60  1  0
 55 54  1  0
 56 55  2  0
 57 58  1  0
 57 51  2  0
 58 53  2  0
 59 52  1  0
 60 50  1  0
 62 64  2  0
 63 62  1  0
 65 63  1  0
 66 75  2  0
 66 71  1  0
 67 63  1  0
 67 71  1  0
 68 67  1  0
 69 70  1  0
 69 68  1  0
 70 66  1  0
 71 72  2  0
 72 73  1  0
 74 73  2  0
 75 74  1  0
 76 50  1  0
 76 77  1  0
 76 86  1  0
 77 80  1  0
 78 77  1  0
 78 82  1  0
 79 78  2  0
 82 81  1  0
 82 84  1  0
 84 85  1  0
 84 83  1  0
 86 89  1  1
 86 87  1  0
 88 86  1  0
M  ISO  4   1 100  19 100  48 101  49 101
M  END
>  <TORSDO>  (19) 
F 16

>  <SCORE>  (19) 
-12.840

>  <name>  (19) 
18

>  <ligand_id>  (19) 
18

>  <original_smiles>  (19) 
[H]c1c([H])c([H])c2c(c1[H])C([H])([H])C([H])([H])C([H])([H])C2([H])N([H])C(=O)C1([H])N(C(=O)C([H])(N([H])C(=O)C([H])(N([H])C([H])([H])[H])C([H])([H])[H])C(C([H])([H])[H])(C([H])([H])[H])C([H])([H])[H])C([H])([H])c2c([H])c(OC([H])([H])c3nc4c(c([H])c3C([H])([H])[H])C([H])([H])C([H])([H])N(C(=O)N3C([H])([H])C([H])([H])C([H])([H])C([H])(n5nc(-c6c([H])c([H])c(Oc7c([H])c([H])c(F)c([H])c7F)c([H])c6[H])c(C(=O)N([H])[H])c5N([H])[H])C3([H])[H])C4([H])[H])c([H])c([H])c2C1([H])[H]

>  <smiles>  (19) 
[H]c1c([H])c([H])c2c(c1[H])C([H])([H])C([H])([H])C([H])([H])C2([H])N([H])C(=O)C1([H])N(C(=O)C([H])(N([H])C(=O)C([H])(N([H])C([H])([H])[H])C([H])([H])[H])C(C([H])([H])[H])(C([H])([H])[H])C([H])([H])[H])C([H])([H])c2c([H])c(OC([H])([H])c3nc4c(c([H])c3C([H])([H])[H])C([H])([H])C([H])([H])N(C(=O)N3C([H])([H])C([H])([H])C([H])([H])C([H])(n5nc(-c6c([H])c([H])c(Oc7c([H])c([H])c(F)c([H])c7F)c([H])c6[H])c(C(=O)N([H])[H])c5N([H])[H])C3([H])[H])C4([H])[H])c([H])c([H])c2C1([H])[H]

$$$$
19:0:0
     RDKit          3D

 95103  0  0  1  0  0  0  0  0999 V2000
  -28.1180  -21.9460   19.0280 C   0  0  0  0  0  0  0  0  0  0  0  0
  -29.1630  -20.7100   19.2770 C   0  0  0  0  0  3  0  0  0  0  0  0
  -29.6790  -22.8860   20.3310 C   0  0  0  0  0  3  0  0  0  0  0  0
  -28.5130  -23.2140   19.4920 N   0  0  0  0  0  0  0  0  0  0  0  0
  -29.9260  -21.3870   20.3630 N   0  0  0  0  0  4  0  0  0  0  0  0
  -27.0420  -21.7720   18.4470 O   0  0  0  0  0  0  0  0  0  0  0  0
  -30.9060  -21.1610   20.3490 H   0  0  0  0  0  0  0  0  0  0  0  0
  -29.5490  -21.0690   21.2400 H   0  0  0  0  0  0  0  0  0  0  0  0
  -32.2430  -23.1000   20.5170 C   0  0  0  0  0  1  0  0  0  0  0  0
  -31.1190  -23.7760   18.3610 C   0  0  0  0  0  1  0  0  0  0  0  0
  -30.9540  -23.6630   19.8880 C   0  0  0  0  0  3  0  0  0  0  0  0
  -27.8350  -18.5660   18.3860 C   0  0  0  0  0  1  0  0  0  0  0  0
  -28.1270  -18.7760   20.7970 C   0  0  0  0  0  1  0  0  0  0  0  0
  -28.8550  -18.9990   19.4580 C   0  0  2  0  0  0  0  0  0  0  0  0
  -30.0520  -17.7800   19.4110 C   0  0  0  0  0  2  0  0  0  0  0  0
  -30.6870  -15.0650   19.6500 C   0  0  0  0  0  0  0  0  0  0  0  0
  -30.6790  -12.6190   18.9840 C   0  0  0  0  0  2  0  0  0  0  0  0
  -29.6880  -12.3510   17.8280 C   0  0  0  0  0  2  0  0  0  0  0  0
  -28.2710  -12.0860   18.3700 C   0  0  0  0  0  2  0  0  0  0  0  0
  -27.8550  -13.1260   19.4440 C   0  0  0  0  0  3  0  0  0  0  0  0
  -28.9560  -13.3630   20.4980 C   0  0  0  0  0  2  0  0  0  0  0  0
  -30.1680  -13.7770   19.7760 N   0  0  0  0  0  0  0  0  0  0  0  0
  -31.8610  -15.1550   19.2690 O   0  0  0  0  0  0  0  0  0  0  0  0
  -29.8510  -16.2270   19.7490 N   0  0  0  0  0  0  0  0  0  0  0  0
  -28.9260  -16.0010   20.0840 H   0  0  0  0  0  0  0  0  0  0  0  0
  -25.5730  -13.6860   20.4550 C   0  0  0  0  0  0  0  0  0  0  0  0
  -24.5420  -12.9030   20.8930 C   0  0  0  0  0  0  0  0  0  0  0  0
  -24.9820  -11.5500   20.7420 C   0  0  0  0  0  0  0  0  0  0  0  0
  -26.5700  -12.8120   20.0580 N   0  0  0  0  0  0  0  0  0  0  0  0
  -26.2330  -11.5190   20.2970 N   0  0  0  0  0  0  0  0  0  0  0  0
  -24.2580  -10.2870   20.9320 C   0  0  0  0  0  0  0  0  0  0  0  0
  -24.6260   -9.3670   21.9380 C   0  0  0  0  0  3  0  0  0  0  0  0
  -23.9000   -8.1690   22.1140 C   0  0  0  0  0  3  0  0  0  0  0  0
  -22.7930   -7.8820   21.2800 C   0  0  0  0  0  0  0  0  0  0  0  0
  -22.4480   -8.7880   20.2600 C   0  0  0  0  0  3  0  0  0  0  0  0
  -23.1770   -9.9770   20.0850 C   0  0  0  0  0  3  0  0  0  0  0  0
  -22.0390   -6.7370   21.3630 O   0  0  0  0  0  0  0  0  0  0  0  0
  -21.7020   -6.1810   22.5720 C   0  0  0  0  0  0  0  0  0  0  0  0
  -20.9040   -6.8680   23.5120 C   0  0  0  0  0  3  0  0  0  0  0  0
  -20.5300   -6.2330   24.7140 C   0  0  0  0  0  3  0  0  0  0  0  0
  -20.9410   -4.9110   24.9710 C   0  0  0  0  0  0  0  0  0  0  0  0
  -21.7290   -4.2240   24.0320 C   0  0  0  0  0  3  0  0  0  0  0  0
  -22.1080   -4.8580   22.8360 C   0  0  0  0  0  0  0  0  0  0  0  0
  -22.8500   -4.1820   21.9240 F   0  0  0  0  0  0  0  0  0  0  0  0
  -20.5740   -4.2980   26.1200 F   0  0  0  0  0  0  0  0  0  0  0  0
  -23.1860  -13.3770   21.3240 C   0  0  0  0  0  0  0  0  0  0  0  0
  -22.5380  -12.6470   22.2240 N   0  0  0  0  0  0  0  0  0  0  0  0
  -22.7150  -14.4320   20.9010 O   0  0  0  0  0  0  0  0  0  0  0  0
  -22.9440  -11.7970   22.5890 H   0  0  0  0  0  0  0  0  0  0  0  0
  -21.6260  -12.9320   22.5510 H   0  0  0  0  0  0  0  0  0  0  0  0
  -25.7430  -15.0630   20.3300 N   0  0  0  0  0  0  0  0  0  0  0  0
  -24.9960  -15.7230   20.5230 H   0  0  0  0  0  0  0  0  0  0  0  0
  -26.5310  -15.4860   19.8600 H   0  0  0  0  0  0  0  0  0  0  0  0
  -27.6420  -24.5490   19.4520 C   0  0  0  0  0  2  0  0  0  0  0  0
  -28.0540  -25.9800   19.8810 O   0  0  0  0  0  0  0  0  0  0  0  0
  -24.6080  -31.6830   23.1560 C   0  0  0  0  0  0  0  0  0  0  0  0
  -27.0610  -27.0510   19.8550 C   0  0  0  0  0  0  0  0  0  0  0  0
  -23.3680  -30.3990   21.4600 C   0  0  0  0  0  3  0  0  0  0  0  0
  -24.7750  -28.8790   19.9360 C   0  0  0  0  0  0  0  0  0  0  0  0
  -25.9280  -30.6130   21.2890 C   0  0  0  0  0  2  0  0  0  0  0  0
  -25.9700  -29.2510   20.5630 C   0  0  0  0  0  0  0  0  0  0  0  0
  -27.1110  -28.3550   20.5160 C   0  0  0  0  0  3  0  0  0  0  0  0
  -25.8500  -26.8200   19.1620 C   0  0  0  0  0  3  0  0  0  0  0  0
  -24.7330  -27.6780   19.2150 C   0  0  0  0  0  3  0  0  0  0  0  0
  -23.5660  -29.7960   20.0440 C   0  0  0  0  0  2  0  0  0  0  0  0
  -24.6550  -30.9190   22.0220 N   0  0  0  0  0  0  0  0  0  0  0  0
  -23.5330  -31.9590   23.7100 O   0  0  0  0  0  0  0  0  0  0  0  0
  -22.6810  -29.3520   22.3740 C   0  0  0  0  0  0  0  0  0  0  0  0
  -21.3540  -29.1880   22.2260 N   0  0  0  0  0  0  0  0  0  0  0  0
  -23.3450  -28.6940   23.1800 O   0  0  0  0  0  0  0  0  0  0  0  0
  -20.8790  -29.7700   21.5500 H   0  0  0  0  0  0  0  0  0  0  0  0
  -17.9610  -27.9830   22.6590 C   0  0  0  0  0  0  0  0  0  0  0  0
  -20.5200  -28.2230   22.9510 C   0  0  0  0  0  3  0  0  0  0  0  0
  -20.6190  -26.8160   22.3170 C   0  0  0  0  0  2  0  0  0  0  0  0
  -19.5200  -26.5400   21.2850 C   0  0  0  0  0  2  0  0  0  0  0  0
  -18.1360  -26.6630   21.9270 C   0  0  0  0  0  2  0  0  0  0  0  0
  -19.0800  -28.7220   23.1260 C   0  0  0  0  0  0  0  0  0  0  0  0
  -18.8610  -29.9590   23.7730 C   0  0  0  0  0  3  0  0  0  0  0  0
  -17.5570  -30.4530   23.9590 C   0  0  0  0  0  3  0  0  0  0  0  0
  -16.4530  -29.7100   23.5090 C   0  0  0  0  0  3  0  0  0  0  0  0
  -16.6540  -28.4760   22.8640 C   0  0  0  0  0  3  0  0  0  0  0  0
  -25.9010  -32.2630   23.8020 C   0  0  0  0  0  3  0  0  0  0  0  0
  -26.3690  -31.4600   25.0800 C   0  0  1  0  0  0  0  0  0  0  0  0
  -25.2500  -31.2430   26.1260 C   0  0  0  0  0  1  0  0  0  0  0  0
  -26.9140  -30.0690   24.6860 C   0  0  0  0  0  1  0  0  0  0  0  0
  -27.5370  -32.2070   25.7680 C   0  0  0  0  0  1  0  0  0  0  0  0
  -25.6440  -33.6690   24.1470 N   0  0  0  0  0  0  0  0  0  0  0  0
  -25.9580  -34.7170   23.3720 C   0  0  0  0  0  0  0  0  0  0  0  0
  -26.5650  -34.5980   22.3050 O   0  0  0  0  0  0  0  0  0  0  0  0
  -25.1000  -33.8360   24.9810 H   0  0  0  0  0  0  0  0  0  0  0  0
  -24.2420  -36.5430   23.1390 C   0  0  0  0  0  1  0  0  0  0  0  0
  -25.5310  -36.1170   23.8580 C   0  0  0  0  0  3  0  0  0  0  0  0
  -27.7270  -36.9780   24.5440 C   0  0  0  0  0  1  0  0  0  0  0  0
  -26.5720  -37.1510   23.6650 N   0  0  0  0  0  0  0  0  0  0  0  0
  -26.1910  -38.0790   23.8230 H   0  0  0  0  0  0  0  0  0  0  0  0
  1  2  1  0
  1  4  1  0
  2 14  1  0
  2  5  1  0
  3 11  1  0
  3  5  1  0
  4  3  1  0
  5  8  1  0
  6  1  2  0
  7  5  1  0
 10 11  1  0
 11  9  1  0
 14 12  1  6
 14 13  1  0
 15 14  1  0
 15 24  1  0
 16 24  1  0
 16 22  1  0
 17 22  1  0
 18 19  1  0
 18 17  1  0
 20 19  1  0
 20 29  1  0
 20 21  1  0
 22 21  1  0
 23 16  2  0
 24 25  1  0
 26 27  2  0
 27 46  1  0
 28 27  1  0
 28 31  1  0
 29 30  1  0
 29 26  1  0
 30 28  2  0
 31 32  1  0
 32 33  2  0
 34 37  1  0
 34 33  1  0
 35 34  2  0
 36 35  1  0
 36 31  2  0
 37 38  1  0
 38 43  2  0
 38 39  1  0
 39 40  2  0
 40 41  1  0
 41 45  1  0
 42 41  2  0
 43 42  1  0
 44 43  1  0
 46 47  1  0
 47 50  1  0
 47 49  1  0
 48 46  2  0
 51 26  1  0
 51 52  1  0
 53 51  1  0
 54  4  1  0
 54 55  1  0
 56 67  2  0
 57 55  1  0
 57 62  1  0
 58 66  1  0
 58 68  1  0
 59 65  1  0
 59 61  1  0
 60 66  1  0
 61 60  1  0
 62 61  2  0
 63 64  1  0
 63 57  2  0
 64 59  2  0
 65 58  1  0
 66 56  1  0
 68 70  2  0
 69 68  1  0
 71 69  1  0
 72 81  2  0
 72 77  1  0
 73 69  1  0
 73 77  1  0
 74 73  1  0
 75 76  1  0
 75 74  1  0
 76 72  1  0
 77 78  2  0
 78 79  1  0
 80 79  2  0
 81 80  1  0
 82 56  1  0
 82 87  1  0
 82 83  1  0
 83 86  1  1
 83 84  1  0
 85 83  1  0
 87 90  1  0
 88 92  1  0
 88 87  1  0
 89 88  2  0
 92 91  1  0
 94 95  1  0
 94 92  1  0
 94 93  1  0
M  ISO  4  16 100  24 100  54 101  55 101
M  END
>  <TORSDO>  (20) 
F 20

>  <SCORE>  (20) 
-13.212

>  <name>  (20) 
19

>  <ligand_id>  (20) 
19

>  <original_smiles>  (20) 
[H]c1c([H])c([H])c2c(c1[H])C([H])([H])C([H])([H])C([H])([H])C2([H])N([H])C(=O)C1([H])N(C(=O)C([H])(N([H])C(=O)C([H])(N([H])C([H])([H])[H])C([H])([H])[H])C(C([H])([H])[H])(C([H])([H])[H])C([H])([H])[H])C([H])([H])c2c([H])c(OC([H])([H])N3C(=O)C([H])(C(C([H])([H])[H])(C([H])([H])[H])C([H])([H])N([H])C(=O)N4C([H])([H])C([H])([H])C([H])([H])C([H])(n5nc(-c6c([H])c([H])c(Oc7c([H])c([H])c(F)c([H])c7F)c([H])c6[H])c(C(=O)N([H])[H])c5N([H])[H])C4([H])[H])[N+]([H])([H])C3([H])C([H])(C([H])([H])[H])C([H])([H])[H])c([H])c([H])c2C1([H])[H]

>  <smiles>  (20) 
[H]c1c([H])c([H])c2c(c1[H])C([H])([H])C([H])([H])C([H])([H])C2([H])N([H])C(=O)C1([H])N(C(=O)C([H])(N([H])C(=O)C([H])(N([H])C([H])([H])[H])C([H])([H])[H])C(C([H])([H])[H])(C([H])([H])[H])C([H])([H])[H])C([H])([H])c2c([H])c(OC([H])([H])N3C(=O)C([H])(C(C([H])([H])[H])(C([H])([H])[H])C([H])([H])N([H])C(=O)N4C([H])([H])C([H])([H])C([H])([H])C([H])(n5nc(-c6c([H])c([H])c(Oc7c([H])c([H])c(F)c([H])c7F)c([H])c6[H])c(C(=O)N([H])[H])c5N([H])[H])C4([H])[H])[N+]([H])([H])C3([H])C([H])(C([H])([H])[H])C([H])([H])[H])c([H])c([H])c2C1([H])[H]

$$$$
20:0:0
     RDKit          3D

 89 98  0  0  1  0  0  0  0  0999 V2000
  -35.4690  -22.5340   11.6390 C   0  0  0  0  0  2  0  0  0  0  0  0
  -35.1890  -21.0800   11.3090 C   0  0  0  0  0  3  0  0  0  0  0  0
  -34.4430  -22.0050   12.6280 C   0  0  0  0  0  3  0  0  0  0  0  0
  -38.4540  -17.7810   11.2000 C   0  0  0  0  0  3  0  0  0  0  0  0
  -38.0610  -17.9810    9.8590 C   0  0  0  0  0  0  0  0  0  0  0  0
  -37.0260  -19.1240    9.8360 C   0  0  0  0  0  0  0  0  0  0  0  0
  -36.4640  -19.9080   11.0360 C   0  0  0  0  0  0  0  0  0  0  0  0
  -37.9260  -18.5240   12.2860 C   0  0  0  0  0  0  0  0  0  0  0  0
  -36.4790  -19.5090    8.4740 C   0  0  0  0  0  1  0  0  0  0  0  0
  -38.4170  -18.2370   13.6900 C   0  0  0  0  0  1  0  0  0  0  0  0
  -36.9930  -19.5100   12.2120 N   0  0  0  0  0  0  0  0  0  0  0  0
  -38.8580  -17.0970    8.6610 C   0  0  0  0  0  0  0  0  0  0  0  0
  -39.0070  -15.2370    6.8570 C   0  0  0  0  0  2  0  0  0  0  0  0
  -37.6880  -15.0920    6.0530 C   0  0  0  0  0  2  0  0  0  0  0  0
  -36.7100  -14.1440    6.7680 C   0  0  0  0  0  2  0  0  0  0  0  0
  -36.6380  -14.4380    8.2870 C   0  0  0  0  0  3  0  0  0  0  0  0
  -38.0290  -14.6120    8.9270 C   0  0  0  0  0  2  0  0  0  0  0  0
  -38.6900  -15.7410    8.2480 N   0  0  0  0  0  0  0  0  0  0  0  0
  -39.7010  -17.6880    7.9690 O   0  0  0  0  0  0  0  0  0  0  0  0
  -34.4380  -13.4320    9.0960 C   0  0  0  0  0  0  0  0  0  0  0  0
  -34.1400  -12.2940    9.7920 C   0  0  0  0  0  0  0  0  0  0  0  0
  -35.3930  -11.6870   10.1120 C   0  0  0  0  0  0  0  0  0  0  0  0
  -35.8180  -13.4710    9.0060 N   0  0  0  0  0  0  0  0  0  0  0  0
  -36.3970  -12.4450    9.6840 N   0  0  0  0  0  0  0  0  0  0  0  0
  -35.6880  -10.3960   10.7480 C   0  0  0  0  0  0  0  0  0  0  0  0
  -36.2090   -9.3080   10.0120 C   0  0  0  0  0  3  0  0  0  0  0  0
  -36.5050   -8.0860   10.6520 C   0  0  0  0  0  3  0  0  0  0  0  0
  -36.2870   -7.9410   12.0430 C   0  0  0  0  0  0  0  0  0  0  0  0
  -35.7470   -9.0180   12.7670 C   0  0  0  0  0  3  0  0  0  0  0  0
  -35.4470  -10.2320   12.1270 C   0  0  0  0  0  3  0  0  0  0  0  0
  -36.5200   -6.7830   12.7440 O   0  0  0  0  0  0  0  0  0  0  0  0
  -35.5000   -5.9320   13.0890 C   0  0  0  0  0  0  0  0  0  0  0  0
  -34.8740   -5.0940   12.1400 C   0  0  0  0  0  3  0  0  0  0  0  0
  -33.8790   -4.1860   12.5490 C   0  0  0  0  0  3  0  0  0  0  0  0
  -33.5130   -4.1070   13.9060 C   0  0  0  0  0  0  0  0  0  0  0  0
  -34.1380   -4.9360   14.8540 C   0  0  0  0  0  3  0  0  0  0  0  0
  -35.1310   -5.8440   14.4460 C   0  0  0  0  0  0  0  0  0  0  0  0
  -35.7440   -6.6260   15.3670 F   0  0  0  0  0  0  0  0  0  0  0  0
  -32.5610   -3.2290   14.3020 F   0  0  0  0  0  0  0  0  0  0  0  0
  -32.7670  -11.7520   10.0580 C   0  0  0  0  0  0  0  0  0  0  0  0
  -32.0600  -12.3210   11.0270 N   0  0  0  0  0  0  0  0  0  0  0  0
  -32.2940  -10.8470    9.3700 O   0  0  0  0  0  0  0  0  0  0  0  0
  -32.4410  -13.0760   11.5770 H   0  0  0  0  0  0  0  0  0  0  0  0
  -31.1230  -11.9970   11.2220 H   0  0  0  0  0  0  0  0  0  0  0  0
  -33.6570  -14.4230    8.5080 N   0  0  0  0  0  0  0  0  0  0  0  0
  -32.6440  -14.3910    8.5220 H   0  0  0  0  0  0  0  0  0  0  0  0
  -34.0200  -15.2280    8.0150 H   0  0  0  0  0  0  0  0  0  0  0  0
  -32.9090  -22.8370   12.9560 C   0  0  0  0  0  2  0  0  0  0  0  0
  -32.0230  -24.0550   12.2950 O   0  0  0  0  0  0  0  0  0  0  0  0
  -34.6660  -28.5170    6.8420 C   0  0  0  0  0  0  0  0  0  0  0  0
  -32.0020  -24.5390   10.8860 C   0  0  0  0  0  0  0  0  0  0  0  0
  -32.3170  -27.7920    6.7250 C   0  0  0  0  0  3  0  0  0  0  0  0
  -31.6530  -25.7850    8.2190 C   0  0  0  0  0  0  0  0  0  0  0  0
  -34.0630  -26.2600    7.8410 C   0  0  0  0  0  2  0  0  0  0  0  0
  -32.9460  -25.6580    8.7380 C   0  0  0  0  0  0  0  0  0  0  0  0
  -33.1200  -25.0220   10.0470 C   0  0  0  0  0  3  0  0  0  0  0  0
  -30.7630  -24.6320   10.2140 C   0  0  0  0  0  3  0  0  0  0  0  0
  -30.5800  -25.2420    8.9460 C   0  0  0  0  0  3  0  0  0  0  0  0
  -31.4540  -26.5090    6.8870 C   0  0  0  0  0  2  0  0  0  0  0  0
  -33.7350  -27.5560    7.1450 N   0  0  0  0  0  0  0  0  0  0  0  0
  -34.3590  -29.5550    6.2330 O   0  0  0  0  0  0  0  0  0  0  0  0
  -31.6450  -28.9680    7.4790 C   0  0  0  0  0  0  0  0  0  0  0  0
  -31.0920  -29.9470    6.7390 N   0  0  0  0  0  0  0  0  0  0  0  0
  -31.6100  -28.9760    8.7120 O   0  0  0  0  0  0  0  0  0  0  0  0
  -31.1700  -29.8840    5.7340 H   0  0  0  0  0  0  0  0  0  0  0  0
  -29.5040  -33.0770    5.8190 C   0  0  0  0  0  0  0  0  0  0  0  0
  -30.3600  -31.1060    7.2620 C   0  0  0  0  0  3  0  0  0  0  0  0
  -28.8690  -30.7650    7.4900 C   0  0  0  0  0  2  0  0  0  0  0  0
  -27.9800  -31.1130    6.2920 C   0  0  0  0  0  2  0  0  0  0  0  0
  -28.0660  -32.6080    5.9750 C   0  0  0  0  0  2  0  0  0  0  0  0
  -30.5810  -32.3640    6.4100 C   0  0  0  0  0  0  0  0  0  0  0  0
  -31.8990  -32.8270    6.2080 C   0  0  0  0  0  3  0  0  0  0  0  0
  -32.1490  -33.9780    5.4350 C   0  0  0  0  0  3  0  0  0  0  0  0
  -31.0770  -34.6860    4.8630 C   0  0  0  0  0  3  0  0  0  0  0  0
  -29.7590  -34.2390    5.0600 C   0  0  0  0  0  3  0  0  0  0  0  0
  -36.1670  -28.3510    7.2290 C   0  0  0  0  0  3  0  0  0  0  0  0
  -36.9800  -28.6660    6.0400 N   0  0  0  0  0  0  0  0  0  0  0  0
  -37.6080  -27.7610    5.2780 C   0  0  0  0  0  0  0  0  0  0  0  0
  -37.6120  -26.5570    5.5420 O   0  0  0  0  0  0  0  0  0  0  0  0
  -36.9730  -29.6280    5.7330 H   0  0  0  0  0  0  0  0  0  0  0  0
  -37.5030  -28.0040    2.7730 C   0  0  0  0  0  1  0  0  0  0  0  0
  -38.3520  -28.2710    4.0260 C   0  0  0  0  0  3  0  0  0  0  0  0
  -40.7410  -28.3680    4.5890 C   0  0  0  0  0  1  0  0  0  0  0  0
  -39.6930  -27.6700    3.8510 N   0  0  0  0  0  0  0  0  0  0  0  0
  -39.9560  -27.6530    2.8680 H   0  0  0  0  0  0  0  0  0  0  0  0
  -36.5990  -29.2690    8.4390 C   0  0  1  0  0  0  0  0  0  0  0  0
  -37.0450  -30.6890    8.0160 C   0  0  0  0  0  1  0  0  0  0  0  0
  -35.4440  -29.4260    9.4540 C   0  0  0  0  0  1  0  0  0  0  0  0
  -37.7690  -28.6090    9.2050 C   0  0  0  0  0  1  0  0  0  0  0  0
  1  3  1  0
  2  7  1  0
  2  1  1  0
  2  3  1  0
  3 48  1  0
  4  8  1  0
  5  4  2  0
  6  5  1  0
  6  7  2  0
  7 11  1  0
  8 10  1  0
  9  6  1  0
 11  8  2  0
 12  5  1  0
 13 18  1  0
 14 15  1  0
 14 13  1  0
 16 15  1  0
 16 17  1  0
 16 23  1  0
 18 12  1  0
 18 17  1  0
 19 12  2  0
 20 21  2  0
 21 40  1  0
 21 22  1  0
 22 25  1  0
 23 20  1  0
 23 24  1  0
 24 22  2  0
 25 30  1  0
 26 27  1  0
 26 25  2  0
 27 28  2  0
 28 31  1  0
 28 29  1  0
 30 29  2  0
 31 32  1  0
 32 37  1  0
 33 34  1  0
 33 32  2  0
 34 35  2  0
 35 39  1  0
 35 36  1  0
 37 36  2  0
 37 38  1  0
 40 41  1  0
 41 44  1  0
 41 43  1  0
 42 40  2  0
 45 46  1  0
 45 20  1  0
 47 45  1  0
 49 48  1  0
 50 60  1  0
 51 49  1  0
 52 59  1  0
 52 60  1  0
 52 62  1  0
 53 55  2  0
 53 58  1  0
 54 55  1  0
 55 56  1  0
 56 51  2  0
 57 51  1  0
 58 57  2  0
 59 53  1  0
 60 54  1  0
 61 50  2  0
 62 64  2  0
 63 62  1  0
 65 63  1  0
 66 70  1  0
 66 71  1  0
 67 63  1  0
 67 68  1  0
 69 68  1  0
 70 69  1  0
 71 67  1  0
 72 71  2  0
 73 72  1  0
 74 75  1  0
 74 73  2  0
 75 66  2  0
 76 50  1  0
 76 86  1  0
 77 76  1  0
 78 79  2  0
 78 77  1  0
 80 77  1  0
 82 81  1  0
 82 78  1  0
 84 82  1  0
 84 83  1  0
 85 84  1  0
 86 89  1  1
 86 88  1  0
 87 86  1  0
M  ISO  4   5 100  12 100  48 101  49 101
M  END
>  <TORSDO>  (21) 
F 18

>  <SCORE>  (21) 
-3.722

>  <name>  (21) 
20

>  <ligand_id>  (21) 
20

>  <original_smiles>  (21) 
[H]c1c([H])c([H])c2c(c1[H])C([H])([H])C([H])([H])C([H])([H])C2([H])N([H])C(=O)C1([H])N(C(=O)C([H])(N([H])C(=O)C([H])(N([H])C([H])([H])[H])C([H])([H])[H])C(C([H])([H])[H])(C([H])([H])[H])C([H])([H])[H])C([H])([H])c2c([H])c(OC([H])([H])C3([H])C([H])([H])C3([H])c3nc(C([H])([H])[H])c([H])c(C(=O)N4C([H])([H])C([H])([H])C([H])([H])C([H])(n5nc(-c6c([H])c([H])c(Oc7c([H])c([H])c(F)c([H])c7F)c([H])c6[H])c(C(=O)N([H])[H])c5N([H])[H])C4([H])[H])c3C([H])([H])[H])c([H])c([H])c2C1([H])[H]

>  <smiles>  (21) 
[H]c1c([H])c([H])c2c(c1[H])C([H])([H])C([H])([H])C([H])([H])C2([H])N([H])C(=O)C1([H])N(C(=O)C([H])(N([H])C(=O)C([H])(N([H])C([H])([H])[H])C([H])([H])[H])C(C([H])([H])[H])(C([H])([H])[H])C([H])([H])[H])C([H])([H])c2c([H])c(OC([H])([H])C3([H])C([H])([H])C3([H])c3nc(C([H])([H])[H])c([H])c(C(=O)N4C([H])([H])C([H])([H])C([H])([H])C([H])(n5nc(-c6c([H])c([H])c(Oc7c([H])c([H])c(F)c([H])c7F)c([H])c6[H])c(C(=O)N([H])[H])c5N([H])[H])C4([H])[H])c3C([H])([H])[H])c([H])c([H])c2C1([H])[H]

$$$$
21:0:0
     RDKit          3D

 95104  0  0  1  0  0  0  0  0999 V2000
  -28.8320  -22.8450   20.5270 C   0  0  0  0  0  0  0  0  0  0  0  0
  -29.2780  -24.2050   20.5650 C   0  0  0  0  0  0  0  0  0  0  0  0
  -29.8180  -21.8440   20.2940 C   0  0  0  0  0  0  0  0  0  0  0  0
  -31.4170  -23.4820   20.1740 C   0  0  0  0  0  0  0  0  0  0  0  0
  -32.8810  -23.8280   20.0090 C   0  0  0  0  0  1  0  0  0  0  0  0
  -30.5840  -24.4960   20.3840 N   0  0  0  0  0  0  0  0  0  0  0  0
  -31.1050  -22.1880   20.1210 N   0  0  0  0  0  0  0  0  0  0  0  0
  -29.4970  -20.4600   20.2620 N   0  0  0  0  0  0  0  0  0  0  0  0
  -28.5240  -20.2610   20.4610 H   0  0  0  0  0  0  0  0  0  0  0  0
  -30.1600  -18.2560   21.4310 C   0  0  0  0  0  2  0  0  0  0  0  0
  -30.3430  -18.1790   19.3600 C   0  0  0  0  0  2  0  0  0  0  0  0
  -30.4740  -19.3500   20.3730 C   0  0  0  0  0  3  0  0  0  0  0  0
  -30.8610  -17.2460   20.4890 C   0  0  0  0  0  3  0  0  0  0  0  0
  -30.9980  -14.7600   20.0320 C   0  0  0  0  0  0  0  0  0  0  0  0
  -30.6340  -12.5630   18.9520 C   0  0  0  0  0  2  0  0  0  0  0  0
  -29.6360  -12.7340   17.7870 C   0  0  0  0  0  2  0  0  0  0  0  0
  -28.1870  -12.5990   18.2940 C   0  0  0  0  0  2  0  0  0  0  0  0
  -27.9090  -13.4610   19.5550 C   0  0  0  0  0  3  0  0  0  0  0  0
  -29.0220  -13.2890   20.6140 C   0  0  0  0  0  2  0  0  0  0  0  0
  -30.3080  -13.5830   19.9670 N   0  0  0  0  0  0  0  0  0  0  0  0
  -32.1230  -14.8810   19.5410 O   0  0  0  0  0  0  0  0  0  0  0  0
  -30.3340  -15.8490   20.4980 N   0  0  0  0  0  0  0  0  0  0  0  0
  -29.4030  -15.6960   20.8560 H   0  0  0  0  0  0  0  0  0  0  0  0
  -25.5710  -14.0840   20.4250 C   0  0  0  0  0  0  0  0  0  0  0  0
  -24.5120  -13.3190   20.8320 C   0  0  0  0  0  0  0  0  0  0  0  0
  -24.9450  -11.9610   20.7350 C   0  0  0  0  0  0  0  0  0  0  0  0
  -26.5840  -13.1920   20.1070 N   0  0  0  0  0  0  0  0  0  0  0  0
  -26.2140  -11.9090   20.3540 N   0  0  0  0  0  0  0  0  0  0  0  0
  -24.2050  -10.7070   20.9300 C   0  0  0  0  0  0  0  0  0  0  0  0
  -24.6170   -9.7460   21.8800 C   0  0  0  0  0  3  0  0  0  0  0  0
  -23.8780   -8.5570   22.0610 C   0  0  0  0  0  3  0  0  0  0  0  0
  -22.7130   -8.3190   21.2930 C   0  0  0  0  0  0  0  0  0  0  0  0
  -22.3210   -9.2690   20.3330 C   0  0  0  0  0  3  0  0  0  0  0  0
  -23.0600  -10.4500   20.1500 C   0  0  0  0  0  3  0  0  0  0  0  0
  -21.9490   -7.1820   21.3820 O   0  0  0  0  0  0  0  0  0  0  0  0
  -21.8140   -6.4970   22.5630 C   0  0  0  0  0  0  0  0  0  0  0  0
  -21.2320   -7.0880   23.7050 C   0  0  0  0  0  3  0  0  0  0  0  0
  -21.0500   -6.3260   24.8780 C   0  0  0  0  0  3  0  0  0  0  0  0
  -21.4370   -4.9740   24.9060 C   0  0  0  0  0  0  0  0  0  0  0  0
  -22.0120   -4.3820   23.7670 C   0  0  0  0  0  3  0  0  0  0  0  0
  -22.1960   -5.1410   22.5980 C   0  0  0  0  0  0  0  0  0  0  0  0
  -22.7300   -4.5590   21.4970 F   0  0  0  0  0  0  0  0  0  0  0  0
  -21.2560   -4.2390   26.0280 F   0  0  0  0  0  0  0  0  0  0  0  0
  -23.1420  -13.8140   21.1980 C   0  0  0  0  0  0  0  0  0  0  0  0
  -22.4490  -13.1010   22.0800 N   0  0  0  0  0  0  0  0  0  0  0  0
  -22.6980  -14.8650   20.7390 O   0  0  0  0  0  0  0  0  0  0  0  0
  -22.8210  -12.2490   22.4710 H   0  0  0  0  0  0  0  0  0  0  0  0
  -21.5320  -13.4130   22.3660 H   0  0  0  0  0  0  0  0  0  0  0  0
  -25.7530  -15.4560   20.2760 N   0  0  0  0  0  0  0  0  0  0  0  0
  -25.0030  -16.1180   20.4400 H   0  0  0  0  0  0  0  0  0  0  0  0
  -26.5870  -15.8880   19.8990 H   0  0  0  0  0  0  0  0  0  0  0  0
  -26.6020  -21.8800   19.8580 C   0  0  0  0  0  2  0  0  0  0  0  0
  -27.4010  -22.5230   20.7270 C   0  0  0  0  0  3  0  0  0  0  0  0
  -28.3200  -25.3910   20.8760 C   0  0  0  0  0  2  0  0  0  0  0  0
  -28.6230  -26.7360   20.3700 O   0  0  0  0  0  0  0  0  0  0  0  0
  -24.6600  -31.9740   23.2640 C   0  0  0  0  0  0  0  0  0  0  0  0
  -27.4990  -27.5510   20.2780 C   0  0  0  0  0  0  0  0  0  0  0  0
  -23.5460  -30.5450   21.5840 C   0  0  0  0  0  3  0  0  0  0  0  0
  -25.0850  -29.0520   20.1970 C   0  0  0  0  0  0  0  0  0  0  0  0
  -26.0740  -30.9530   21.4750 C   0  0  0  0  0  2  0  0  0  0  0  0
  -26.2160  -29.5850   20.8320 C   0  0  0  0  0  0  0  0  0  0  0  0
  -27.4290  -28.8440   20.8680 C   0  0  0  0  0  3  0  0  0  0  0  0
  -26.3570  -27.0720   19.5990 C   0  0  0  0  0  3  0  0  0  0  0  0
  -25.1540  -27.7990   19.5710 C   0  0  0  0  0  3  0  0  0  0  0  0
  -23.8180  -29.8810   20.2100 C   0  0  0  0  0  2  0  0  0  0  0  0
  -24.7760  -31.1730   22.1660 N   0  0  0  0  0  0  0  0  0  0  0  0
  -23.5540  -32.2170   23.7680 O   0  0  0  0  0  0  0  0  0  0  0  0
  -22.8880  -29.5050   22.5210 C   0  0  0  0  0  0  0  0  0  0  0  0
  -21.5660  -29.3130   22.3750 N   0  0  0  0  0  0  0  0  0  0  0  0
  -23.5650  -28.8750   23.3380 O   0  0  0  0  0  0  0  0  0  0  0  0
  -21.0810  -29.8740   21.6890 H   0  0  0  0  0  0  0  0  0  0  0  0
  -18.1840  -28.1350   22.8720 C   0  0  0  0  0  0  0  0  0  0  0  0
  -20.7470  -28.3580   23.1230 C   0  0  0  0  0  3  0  0  0  0  0  0
  -20.8290  -26.9460   22.4980 C   0  0  0  0  0  2  0  0  0  0  0  0
  -19.7120  -26.6700   21.4860 C   0  0  0  0  0  2  0  0  0  0  0  0
  -18.3390  -26.8080   22.1500 C   0  0  0  0  0  2  0  0  0  0  0  0
  -19.3160  -28.8710   23.3150 C   0  0  0  0  0  0  0  0  0  0  0  0
  -19.1160  -30.1160   23.9490 C   0  0  0  0  0  3  0  0  0  0  0  0
  -17.8180  -30.6240   24.1470 C   0  0  0  0  0  3  0  0  0  0  0  0
  -16.7020  -29.8860   23.7200 C   0  0  0  0  0  3  0  0  0  0  0  0
  -16.8860  -28.6420   23.0880 C   0  0  0  0  0  3  0  0  0  0  0  0
  -25.9080  -32.6370   23.9250 C   0  0  0  0  0  3  0  0  0  0  0  0
  -26.3930  -31.8890   25.2270 C   0  0  1  0  0  0  0  0  0  0  0  0
  -25.2620  -31.6180   26.2450 C   0  0  0  0  0  1  0  0  0  0  0  0
  -27.0410  -30.5320   24.8670 C   0  0  0  0  0  1  0  0  0  0  0  0
  -27.4840  -32.7270   25.9350 C   0  0  0  0  0  1  0  0  0  0  0  0
  -25.5580  -34.0320   24.2270 N   0  0  0  0  0  0  0  0  0  0  0  0
  -25.8940  -35.0830   23.4660 C   0  0  0  0  0  0  0  0  0  0  0  0
  -26.6010  -34.9820   22.4600 O   0  0  0  0  0  0  0  0  0  0  0  0
  -24.9330  -34.1840   25.0060 H   0  0  0  0  0  0  0  0  0  0  0  0
  -24.1490  -36.8370   23.0210 C   0  0  0  0  0  1  0  0  0  0  0  0
  -25.3610  -36.4650   23.8900 C   0  0  0  0  0  3  0  0  0  0  0  0
  -27.4340  -37.4040   24.8120 C   0  0  0  0  0  1  0  0  0  0  0  0
  -26.3790  -37.5370   23.8110 N   0  0  0  0  0  0  0  0  0  0  0  0
  -25.9480  -38.4500   23.9240 H   0  0  0  0  0  0  0  0  0  0  0  0
  1  2  2  0
  1 53  1  0
  2 54  1  0
  3  1  1  0
  4  6  2  0
  5  4  1  0
  6  2  1  0
  7  4  1  0
  7  3  2  0
  8  3  1  0
  8  9  1  0
 11 12  1  0
 11 13  1  0
 12  8  1  0
 12 10  1  0
 13 22  1  0
 13 10  1  0
 14 22  1  0
 15 20  1  0
 16 17  1  0
 16 15  1  0
 18 17  1  0
 18 27  1  0
 18 19  1  0
 20 14  1  0
 20 19  1  0
 21 14  2  0
 22 23  1  0
 24 25  2  0
 25 44  1  0
 26 25  1  0
 26 29  1  0
 27 28  1  0
 27 24  1  0
 28 26  2  0
 29 30  1  0
 30 31  2  0
 32 35  1  0
 32 31  1  0
 33 32  2  0
 34 33  1  0
 34 29  2  0
 35 36  1  0
 36 41  2  0
 36 37  1  0
 37 38  2  0
 38 39  1  0
 39 43  1  0
 40 39  2  0
 41 40  1  0
 42 41  1  0
 44 45  1  0
 45 48  1  0
 45 47  1  0
 46 44  2  0
 49 24  1  0
 49 50  1  0
 51 49  1  0
 52 53  2  0
 55 54  1  0
 56 67  2  0
 57 55  1  0
 57 62  1  0
 58 66  1  0
 58 68  1  0
 59 65  1  0
 59 61  1  0
 60 66  1  0
 61 62  2  0
 61 60  1  0
 63 57  2  0
 64 63  1  0
 64 59  2  0
 65 58  1  0
 66 56  1  0
 68 70  2  0
 69 68  1  0
 71 69  1  0
 72 81  2  0
 72 77  1  0
 73 69  1  0
 73 77  1  0
 74 73  1  0
 75 76  1  0
 75 74  1  0
 76 72  1  0
 77 78  2  0
 78 79  1  0
 80 79  2  0
 81 80  1  0
 82 56  1  0
 82 87  1  0
 82 83  1  0
 83 86  1  1
 83 84  1  0
 85 83  1  0
 87 90  1  0
 88 92  1  0
 88 87  1  0
 89 88  2  0
 92 91  1  0
 94 92  1  0
 94 95  1  0
 94 93  1  0
M  ISO  4  14 100  22 100  54 101  55 101
M  END
>  <TORSDO>  (22) 
F 19

>  <SCORE>  (22) 
-13.582

>  <name>  (22) 
21

>  <ligand_id>  (22) 
21

>  <original_smiles>  (22) 
[H]C([H])=C([H])c1c(N([H])C2([H])C([H])([H])C([H])(N([H])C(=O)N3C([H])([H])C([H])([H])C([H])([H])C([H])(n4nc(-c5c([H])c([H])c(Oc6c([H])c([H])c(F)c([H])c6F)c([H])c5[H])c(C(=O)N([H])[H])c4N([H])[H])C3([H])[H])C2([H])[H])nc(C([H])([H])[H])nc1C([H])([H])Oc1c([H])c([H])c2c(c1[H])C([H])([H])N(C(=O)C([H])(N([H])C(=O)C([H])(N([H])C([H])([H])[H])C([H])([H])[H])C(C([H])([H])[H])(C([H])([H])[H])C([H])([H])[H])C([H])(C(=O)N([H])C1([H])c3c([H])c([H])c([H])c([H])c3C([H])([H])C([H])([H])C1([H])[H])C2([H])[H]

>  <smiles>  (22) 
[H]C([H])=C([H])c1c(N([H])C2([H])C([H])([H])C([H])(N([H])C(=O)N3C([H])([H])C([H])([H])C([H])([H])C([H])(n4nc(-c5c([H])c([H])c(Oc6c([H])c([H])c(F)c([H])c6F)c([H])c5[H])c(C(=O)N([H])[H])c4N([H])[H])C3([H])[H])C2([H])[H])nc(C([H])([H])[H])nc1C([H])([H])Oc1c([H])c([H])c2c(c1[H])C([H])([H])N(C(=O)C([H])(N([H])C(=O)C([H])(N([H])C([H])([H])[H])C([H])([H])[H])C(C([H])([H])[H])(C([H])([H])[H])C([H])([H])[H])C([H])(C(=O)N([H])C1([H])c3c([H])c([H])c([H])c([H])c3C([H])([H])C([H])([H])C1([H])[H])C2([H])[H]

$$$$
22:0:0
     RDKit          3D

 94103  0  0  1  0  0  0  0  0999 V2000
  -30.1960  -22.9400   18.3360 C   0  0  0  0  0  3  0  0  0  0  0  0
  -30.2480  -21.6180   17.8790 C   0  0  0  0  0  0  0  0  0  0  0  0
  -29.7240  -23.1430   19.6410 C   0  0  0  0  0  0  0  0  0  0  0  0
  -29.4430  -20.8820   19.8880 C   0  0  0  0  0  0  0  0  0  0  0  0
  -30.7140  -21.2740   16.4810 C   0  0  0  0  0  1  0  0  0  0  0  0
  -29.8840  -20.5960   18.6710 N   0  0  0  0  0  0  0  0  0  0  0  0
  -29.3300  -22.0980   20.4100 N   0  0  0  0  0  0  0  0  0  0  0  0
  -29.0850  -19.8250   20.7040 N   0  0  0  0  0  0  0  0  0  0  0  0
  -28.8040  -20.1050   21.6350 H   0  0  0  0  0  0  0  0  0  0  0  0
  -30.7810  -14.4330   20.2570 C   0  0  0  0  0  0  0  0  0  0  0  0
  -30.4470  -12.2730   19.1370 C   0  0  0  0  0  2  0  0  0  0  0  0
  -29.4790  -12.4820   17.9560 C   0  0  0  0  0  2  0  0  0  0  0  0
  -28.0170  -12.3400   18.4250 C   0  0  0  0  0  2  0  0  0  0  0  0
  -27.7050  -13.1720   19.6990 C   0  0  0  0  0  3  0  0  0  0  0  0
  -28.7930  -12.9770   20.7780 C   0  0  0  0  0  2  0  0  0  0  0  0
  -30.0950  -13.2640   20.1630 N   0  0  0  0  0  0  0  0  0  0  0  0
  -31.9430  -14.5610   19.8590 O   0  0  0  0  0  0  0  0  0  0  0  0
  -28.9280  -17.6110   19.5340 C   0  0  0  0  0  2  0  0  0  0  0  0
  -29.6750  -17.6810   21.8660 C   0  0  0  0  0  2  0  0  0  0  0  0
  -29.7410  -16.3310   19.2890 C   0  0  0  0  0  2  0  0  0  0  0  0
  -30.4230  -16.3340   21.6940 C   0  0  0  0  0  2  0  0  0  0  0  0
  -29.6600  -18.4840   20.5590 C   0  0  0  0  0  3  0  0  0  0  0  0
  -30.0340  -15.5380   20.5060 N   0  0  0  0  0  0  0  0  0  0  0  0
  -25.3260  -13.7580   20.4780 C   0  0  0  0  0  0  0  0  0  0  0  0
  -24.2720  -12.9740   20.8640 C   0  0  0  0  0  0  0  0  0  0  0  0
  -24.7420  -11.6270   20.8120 C   0  0  0  0  0  0  0  0  0  0  0  0
  -26.3710  -12.8840   20.2140 N   0  0  0  0  0  0  0  0  0  0  0  0
  -26.0250  -11.5980   20.4720 N   0  0  0  0  0  0  0  0  0  0  0  0
  -24.0310  -10.3580   21.0100 C   0  0  0  0  0  0  0  0  0  0  0  0
  -24.4780   -9.4000   21.9460 C   0  0  0  0  0  3  0  0  0  0  0  0
  -23.7660   -8.1950   22.1320 C   0  0  0  0  0  3  0  0  0  0  0  0
  -22.5960   -7.9390   21.3790 C   0  0  0  0  0  0  0  0  0  0  0  0
  -22.1700   -8.8850   20.4310 C   0  0  0  0  0  3  0  0  0  0  0  0
  -22.8810  -10.0820   20.2440 C   0  0  0  0  0  3  0  0  0  0  0  0
  -21.8550   -6.7860   21.4730 O   0  0  0  0  0  0  0  0  0  0  0  0
  -21.7840   -6.0690   22.6410 C   0  0  0  0  0  0  0  0  0  0  0  0
  -21.3170   -6.6440   23.8420 C   0  0  0  0  0  3  0  0  0  0  0  0
  -21.1960   -5.8520   25.0010 C   0  0  0  0  0  3  0  0  0  0  0  0
  -21.5320   -4.4850   24.9600 C   0  0  0  0  0  0  0  0  0  0  0  0
  -21.9920   -3.9100   23.7630 C   0  0  0  0  0  3  0  0  0  0  0  0
  -22.1150   -4.6990   22.6060 C   0  0  0  0  0  0  0  0  0  0  0  0
  -22.5390   -4.1330   21.4490 F   0  0  0  0  0  0  0  0  0  0  0  0
  -21.4080   -3.7230   26.0710 F   0  0  0  0  0  0  0  0  0  0  0  0
  -22.8790  -13.4390   21.1750 C   0  0  0  0  0  0  0  0  0  0  0  0
  -22.1810  -12.7350   22.0600 N   0  0  0  0  0  0  0  0  0  0  0  0
  -22.4170  -14.4610   20.6690 O   0  0  0  0  0  0  0  0  0  0  0  0
  -22.5680  -11.9090   22.4930 H   0  0  0  0  0  0  0  0  0  0  0  0
  -21.2470  -13.0280   22.3090 H   0  0  0  0  0  0  0  0  0  0  0  0
  -25.4800  -15.1300   20.3080 N   0  0  0  0  0  0  0  0  0  0  0  0
  -24.7180  -15.7840   20.4500 H   0  0  0  0  0  0  0  0  0  0  0  0
  -26.3350  -15.5770   20.0020 H   0  0  0  0  0  0  0  0  0  0  0  0
  -29.6440  -24.5540   20.2160 C   0  0  0  0  0  2  0  0  0  0  0  0
  -28.3740  -25.3090   19.7860 C   0  0  0  0  0  2  0  0  0  0  0  0
  -28.4200  -26.6840   20.1970 O   0  0  0  0  0  0  0  0  0  0  0  0
  -24.6430  -31.8550   23.2830 C   0  0  0  0  0  0  0  0  0  0  0  0
  -27.2430  -27.4060   20.1720 C   0  0  0  0  0  0  0  0  0  0  0  0
  -23.4230  -30.4720   21.6370 C   0  0  0  0  0  3  0  0  0  0  0  0
  -24.8600  -28.9330   20.2010 C   0  0  0  0  0  0  0  0  0  0  0  0
  -25.9520  -30.8100   21.4390 C   0  0  0  0  0  2  0  0  0  0  0  0
  -26.0230  -29.4430   20.7890 C   0  0  0  0  0  0  0  0  0  0  0  0
  -27.2170  -28.6850   20.7720 C   0  0  0  0  0  3  0  0  0  0  0  0
  -26.0580  -26.9150   19.5730 C   0  0  0  0  0  3  0  0  0  0  0  0
  -24.8720  -27.6680   19.5920 C   0  0  0  0  0  3  0  0  0  0  0  0
  -23.6230  -29.8000   20.2530 C   0  0  0  0  0  2  0  0  0  0  0  0
  -24.6910  -31.0600   22.1780 N   0  0  0  0  0  0  0  0  0  0  0  0
  -23.5640  -32.1340   23.8260 O   0  0  0  0  0  0  0  0  0  0  0  0
  -22.7660  -29.4500   22.5920 C   0  0  0  0  0  0  0  0  0  0  0  0
  -21.4420  -29.2700   22.4580 N   0  0  0  0  0  0  0  0  0  0  0  0
  -23.4450  -28.8200   23.4070 O   0  0  0  0  0  0  0  0  0  0  0  0
  -20.9570  -29.8290   21.7700 H   0  0  0  0  0  0  0  0  0  0  0  0
  -18.0630  -28.0800   22.9260 C   0  0  0  0  0  0  0  0  0  0  0  0
  -20.6190  -28.3330   23.2210 C   0  0  0  0  0  3  0  0  0  0  0  0
  -20.7240  -26.9010   22.6460 C   0  0  0  0  0  2  0  0  0  0  0  0
  -19.6300  -26.5810   21.6220 C   0  0  0  0  0  2  0  0  0  0  0  0
  -18.2440  -26.7290   22.2550 C   0  0  0  0  0  2  0  0  0  0  0  0
  -19.1790  -28.8400   23.3660 C   0  0  0  0  0  0  0  0  0  0  0  0
  -18.9580  -30.1050   23.9520 C   0  0  0  0  0  3  0  0  0  0  0  0
  -17.6530  -30.6110   24.1030 C   0  0  0  0  0  3  0  0  0  0  0  0
  -16.5510  -29.8460   23.6820 C   0  0  0  0  0  3  0  0  0  0  0  0
  -16.7570  -28.5830   23.0990 C   0  0  0  0  0  3  0  0  0  0  0  0
  -25.9340  -32.4710   23.9040 C   0  0  0  0  0  3  0  0  0  0  0  0
  -25.6400  -33.8710   24.2360 N   0  0  0  0  0  0  0  0  0  0  0  0
  -25.9650  -34.9200   23.4670 C   0  0  0  0  0  0  0  0  0  0  0  0
  -26.6150  -34.8080   22.4230 O   0  0  0  0  0  0  0  0  0  0  0  0
  -25.0600  -34.0320   25.0460 H   0  0  0  0  0  0  0  0  0  0  0  0
  -24.2260  -36.7080   23.1530 C   0  0  0  0  0  1  0  0  0  0  0  0
  -25.4940  -36.3110   23.9270 C   0  0  0  0  0  3  0  0  0  0  0  0
  -27.6540  -37.2010   24.6820 C   0  0  0  0  0  1  0  0  0  0  0  0
  -26.5230  -37.3620   23.7720 N   0  0  0  0  0  0  0  0  0  0  0  0
  -26.1220  -38.2850   23.9240 H   0  0  0  0  0  0  0  0  0  0  0  0
  -26.4470  -31.6920   25.1770 C   0  0  1  0  0  0  0  0  0  0  0  0
  -25.3520  -31.4600   26.2460 C   0  0  0  0  0  1  0  0  0  0  0  0
  -27.0160  -30.3120   24.7770 C   0  0  0  0  0  1  0  0  0  0  0  0
  -27.6070  -32.4740   25.8380 C   0  0  0  0  0  1  0  0  0  0  0  0
  1  3  1  0
  2  1  2  0
  2  6  1  0
  3 52  1  0
  3  7  2  0
  4  7  1  0
  4  8  1  0
  5  2  1  0
  6  4  2  0
  8  9  1  0
 10 23  1  0
 11 16  1  0
 12 13  1  0
 12 11  1  0
 14 13  1  0
 14 27  1  0
 14 15  1  0
 16 10  1  0
 16 15  1  0
 17 10  2  0
 18 22  1  0
 20 18  1  0
 20 23  1  0
 21 19  1  0
 22  8  1  0
 22 19  1  0
 23 21  1  0
 24 25  2  0
 25 44  1  0
 26 25  1  0
 26 29  1  0
 27 28  1  0
 27 24  1  0
 28 26  2  0
 29 30  1  0
 30 31  2  0
 32 35  1  0
 32 31  1  0
 33 32  2  0
 34 33  1  0
 34 29  2  0
 35 36  1  0
 36 37  1  0
 37 38  2  0
 39 38  1  0
 39 43  1  0
 40 39  2  0
 41 36  2  0
 41 40  1  0
 42 41  1  0
 44 45  1  0
 45 48  1  0
 45 47  1  0
 46 44  2  0
 49 50  1  0
 49 24  1  0
 51 49  1  0
 53 54  1  0
 53 52  1  0
 55 66  2  0
 56 54  1  0
 56 61  1  0
 57 65  1  0
 57 67  1  0
 58 64  1  0
 58 60  1  0
 59 65  1  0
 60 59  1  0
 61 60  2  0
 62 63  1  0
 62 56  2  0
 63 58  2  0
 64 57  1  0
 65 55  1  0
 67 69  2  0
 68 67  1  0
 70 68  1  0
 71 80  2  0
 71 76  1  0
 72 68  1  0
 72 76  1  0
 73 72  1  0
 74 75  1  0
 74 73  1  0
 75 71  1  0
 76 77  2  0
 77 78  1  0
 79 78  2  0
 80 79  1  0
 81 55  1  0
 81 82  1  0
 81 91  1  0
 82 85  1  0
 83 87  1  0
 83 82  1  0
 84 83  2  0
 87 86  1  0
 89 90  1  0
 89 87  1  0
 89 88  1  0
 91 94  1  1
 91 92  1  0
 93 91  1  0
M  ISO  4  10 100  23 100  53 101  54 101
M  END
>  <TORSDO>  (23) 
F 18

>  <SCORE>  (23) 
-14.496

>  <name>  (23) 
22

>  <ligand_id>  (23) 
22

>  <original_smiles>  (23) 
[H]c1c(C([H])([H])[H])nc(N([H])C2([H])C([H])([H])C([H])([H])N(C(=O)N3C([H])([H])C([H])([H])C([H])([H])C([H])(n4nc(-c5c([H])c([H])c(Oc6c([H])c([H])c(F)c([H])c6F)c([H])c5[H])c(C(=O)N([H])[H])c4N([H])[H])C3([H])[H])C([H])([H])C2([H])[H])nc1C([H])([H])C([H])([H])Oc1c([H])c([H])c2c(c1[H])C([H])([H])N(C(=O)C([H])(N([H])C(=O)C([H])(N([H])C([H])([H])[H])C([H])([H])[H])C(C([H])([H])[H])(C([H])([H])[H])C([H])([H])[H])C([H])(C(=O)N([H])C1([H])c3c([H])c([H])c([H])c([H])c3C([H])([H])C([H])([H])C1([H])[H])C2([H])[H]

>  <smiles>  (23) 
[H]c1c(C([H])([H])[H])nc(N([H])C2([H])C([H])([H])C([H])([H])N(C(=O)N3C([H])([H])C([H])([H])C([H])([H])C([H])(n4nc(-c5c([H])c([H])c(Oc6c([H])c([H])c(F)c([H])c6F)c([H])c5[H])c(C(=O)N([H])[H])c4N([H])[H])C3([H])[H])C([H])([H])C2([H])[H])nc1C([H])([H])C([H])([H])Oc1c([H])c([H])c2c(c1[H])C([H])([H])N(C(=O)C([H])(N([H])C(=O)C([H])(N([H])C([H])([H])[H])C([H])([H])[H])C(C([H])([H])[H])(C([H])([H])[H])C([H])([H])[H])C([H])(C(=O)N([H])C1([H])c3c([H])c([H])c([H])c([H])c3C([H])([H])C([H])([H])C1([H])[H])C2([H])[H]

$$$$
23:0:0
     RDKit          3D

 93102  0  0  1  0  0  0  0  0999 V2000
  -27.3440  -21.1240   19.7120 C   0  0  0  0  0  3  0  0  0  0  0  0
  -26.5740  -22.2600   19.4180 C   0  0  0  0  0  0  0  0  0  0  0  0
  -28.5660  -21.2950   20.3670 C   0  0  0  0  0  0  0  0  0  0  0  0
  -28.1310  -23.6730   20.3700 C   0  0  0  0  0  0  0  0  0  0  0  0
  -25.2110  -22.1370   18.7690 C   0  0  0  0  0  1  0  0  0  0  0  0
  -26.9740  -23.5080   19.7310 N   0  0  0  0  0  0  0  0  0  0  0  0
  -28.9330  -22.5940   20.6960 N   0  0  0  0  0  0  0  0  0  0  0  0
  -29.3760  -20.1370   20.7030 N   0  0  0  0  0  0  0  0  0  0  0  0
  -30.2430  -20.3280   21.1930 H   0  0  0  0  0  0  0  0  0  0  0  0
  -29.3360  -18.4150   18.8490 C   0  0  0  0  0  2  0  0  0  0  0  0
  -30.7330  -17.8860   19.2110 C   0  0  0  0  0  2  0  0  0  0  0  0
  -29.0890  -18.6750   20.3430 C   0  0  0  0  0  3  0  0  0  0  0  0
  -30.1900  -17.4910   20.5970 C   0  0  0  0  0  3  0  0  0  0  0  0
  -30.5350  -14.8500   20.4070 C   0  0  0  0  0  0  0  0  0  0  0  0
  -30.3490  -12.5780   19.3630 C   0  0  0  0  0  2  0  0  0  0  0  0
  -29.4070  -12.6400   18.1410 C   0  0  0  0  0  2  0  0  0  0  0  0
  -27.9380  -12.4560   18.5730 C   0  0  0  0  0  2  0  0  0  0  0  0
  -27.5600  -13.3330   19.7950 C   0  0  0  0  0  3  0  0  0  0  0  0
  -28.6200  -13.2460   20.9140 C   0  0  0  0  0  2  0  0  0  0  0  0
  -29.9070  -13.6240   20.3180 N   0  0  0  0  0  0  0  0  0  0  0  0
  -31.7300  -14.9340   20.1080 O   0  0  0  0  0  0  0  0  0  0  0  0
  -29.7710  -16.0010   20.6180 N   0  0  0  0  0  0  0  0  0  0  0  0
  -28.7930  -15.8350   20.8000 H   0  0  0  0  0  0  0  0  0  0  0  0
  -25.1680  -13.9030   20.5190 C   0  0  0  0  0  0  0  0  0  0  0  0
  -24.1080  -13.1220   20.8890 C   0  0  0  0  0  0  0  0  0  0  0  0
  -24.5790  -11.7750   20.8570 C   0  0  0  0  0  0  0  0  0  0  0  0
  -26.2180  -13.0320   20.2840 N   0  0  0  0  0  0  0  0  0  0  0  0
  -25.8710  -11.7460   20.5520 N   0  0  0  0  0  0  0  0  0  0  0  0
  -23.8590  -10.5070   21.0410 C   0  0  0  0  0  0  0  0  0  0  0  0
  -24.2860   -9.5470   21.9850 C   0  0  0  0  0  3  0  0  0  0  0  0
  -23.5650   -8.3450   22.1570 C   0  0  0  0  0  3  0  0  0  0  0  0
  -22.4050   -8.0960   21.3860 C   0  0  0  0  0  0  0  0  0  0  0  0
  -21.9980   -9.0460   20.4330 C   0  0  0  0  0  3  0  0  0  0  0  0
  -22.7190  -10.2380   20.2580 C   0  0  0  0  0  3  0  0  0  0  0  0
  -21.6590   -6.9450   21.4680 O   0  0  0  0  0  0  0  0  0  0  0  0
  -21.5860   -6.2140   22.6270 C   0  0  0  0  0  0  0  0  0  0  0  0
  -21.1070   -6.7730   23.8320 C   0  0  0  0  0  3  0  0  0  0  0  0
  -20.9840   -5.9670   24.9830 C   0  0  0  0  0  3  0  0  0  0  0  0
  -21.3320   -4.6040   24.9270 C   0  0  0  0  0  0  0  0  0  0  0  0
  -21.8040   -4.0440   23.7260 C   0  0  0  0  0  3  0  0  0  0  0  0
  -21.9280   -4.8470   22.5800 C   0  0  0  0  0  0  0  0  0  0  0  0
  -22.3630   -4.2990   21.4190 F   0  0  0  0  0  0  0  0  0  0  0  0
  -21.2070   -3.8270   26.0280 F   0  0  0  0  0  0  0  0  0  0  0  0
  -22.7070  -13.5920   21.1560 C   0  0  0  0  0  0  0  0  0  0  0  0
  -21.9770  -12.8890   22.0150 N   0  0  0  0  0  0  0  0  0  0  0  0
  -22.2680  -14.6170   20.6370 O   0  0  0  0  0  0  0  0  0  0  0  0
  -22.3450  -12.0610   22.4600 H   0  0  0  0  0  0  0  0  0  0  0  0
  -21.0370  -13.1860   22.2350 H   0  0  0  0  0  0  0  0  0  0  0  0
  -25.3190  -15.2750   20.3340 N   0  0  0  0  0  0  0  0  0  0  0  0
  -24.5310  -15.9110   20.3970 H   0  0  0  0  0  0  0  0  0  0  0  0
  -26.1420  -15.7040   19.9310 H   0  0  0  0  0  0  0  0  0  0  0  0
  -28.3540  -25.1420   20.9880 C   0  0  0  0  0  2  0  0  0  0  0  0
  -28.3410  -26.4380   20.2120 O   0  0  0  0  0  0  0  0  0  0  0  0
  -24.5770  -31.9100   23.2490 C   0  0  0  0  0  0  0  0  0  0  0  0
  -27.2310  -27.3110   20.2440 C   0  0  0  0  0  0  0  0  0  0  0  0
  -23.4020  -30.5090   21.5900 C   0  0  0  0  0  3  0  0  0  0  0  0
  -24.8770  -28.9560   20.1860 C   0  0  0  0  0  0  0  0  0  0  0  0
  -25.9450  -30.8250   21.4440 C   0  0  0  0  0  2  0  0  0  0  0  0
  -26.0390  -29.4390   20.8020 C   0  0  0  0  0  0  0  0  0  0  0  0
  -27.2230  -28.6320   20.8120 C   0  0  0  0  0  3  0  0  0  0  0  0
  -26.0500  -26.8910   19.6050 C   0  0  0  0  0  3  0  0  0  0  0  0
  -24.8890  -27.6910   19.5730 C   0  0  0  0  0  3  0  0  0  0  0  0
  -23.6390  -29.8340   20.2130 C   0  0  0  0  0  2  0  0  0  0  0  0
  -24.6600  -31.1000   22.1510 N   0  0  0  0  0  0  0  0  0  0  0  0
  -23.4860  -32.1820   23.7730 O   0  0  0  0  0  0  0  0  0  0  0  0
  -22.7290  -29.4900   22.5410 C   0  0  0  0  0  0  0  0  0  0  0  0
  -21.4070  -29.3010   22.3920 N   0  0  0  0  0  0  0  0  0  0  0  0
  -23.3970  -28.8710   23.3730 O   0  0  0  0  0  0  0  0  0  0  0  0
  -20.9260  -29.8530   21.6960 H   0  0  0  0  0  0  0  0  0  0  0  0
  -18.0310  -28.0700   22.8320 C   0  0  0  0  0  0  0  0  0  0  0  0
  -20.5820  -28.3560   23.1470 C   0  0  0  0  0  3  0  0  0  0  0  0
  -20.7090  -26.9250   22.5750 C   0  0  0  0  0  2  0  0  0  0  0  0
  -19.6290  -26.5910   21.5410 C   0  0  0  0  0  2  0  0  0  0  0  0
  -18.2340  -26.7230   22.1600 C   0  0  0  0  0  2  0  0  0  0  0  0
  -19.1350  -28.8430   23.2820 C   0  0  0  0  0  0  0  0  0  0  0  0
  -18.8930  -30.1040   23.8700 C   0  0  0  0  0  3  0  0  0  0  0  0
  -17.5800  -30.5920   24.0140 C   0  0  0  0  0  3  0  0  0  0  0  0
  -16.4910  -29.8160   23.5810 C   0  0  0  0  0  3  0  0  0  0  0  0
  -16.7170  -28.5570   22.9960 C   0  0  0  0  0  3  0  0  0  0  0  0
  -25.8480  -32.5470   23.8930 C   0  0  0  0  0  3  0  0  0  0  0  0
  -25.5380  -33.9510   24.2010 N   0  0  0  0  0  0  0  0  0  0  0  0
  -25.8890  -34.9950   23.4380 C   0  0  0  0  0  0  0  0  0  0  0  0
  -26.5790  -34.8770   22.4210 O   0  0  0  0  0  0  0  0  0  0  0  0
  -24.9300  -34.1140   24.9890 H   0  0  0  0  0  0  0  0  0  0  0  0
  -24.1810  -36.7960   23.0230 C   0  0  0  0  0  1  0  0  0  0  0  0
  -25.3990  -36.3910   23.8700 C   0  0  0  0  0  3  0  0  0  0  0  0
  -27.5150  -37.2750   24.7500 C   0  0  0  0  0  1  0  0  0  0  0  0
  -26.4410  -37.4370   23.7730 N   0  0  0  0  0  0  0  0  0  0  0  0
  -26.0370  -38.3610   23.8990 H   0  0  0  0  0  0  0  0  0  0  0  0
  -26.3340  -31.7910   25.1920 C   0  0  1  0  0  0  0  0  0  0  0  0
  -25.2160  -31.5740   26.2380 C   0  0  0  0  0  1  0  0  0  0  0  0
  -26.9200  -30.4040   24.8350 C   0  0  0  0  0  1  0  0  0  0  0  0
  -27.4730  -32.5900   25.8680 C   0  0  0  0  0  1  0  0  0  0  0  0
  1  3  1  0
  2  1  2  0
  2  6  1  0
  3  7  2  0
  3  8  1  0
  4  7  1  0
  4 52  1  0
  5  2  1  0
  6  4  2  0
  8  9  1  0
 10 11  1  0
 10 12  1  0
 11 13  1  0
 12 13  1  0
 12  8  1  0
 13 22  1  0
 14 22  1  0
 15 20  1  0
 16 17  1  0
 16 15  1  0
 18 17  1  0
 18 27  1  0
 18 19  1  0
 20 14  1  0
 20 19  1  0
 21 14  2  0
 22 23  1  0
 24 25  2  0
 25 44  1  0
 26 25  1  0
 26 29  1  0
 27 24  1  0
 27 28  1  0
 28 26  2  0
 29 30  1  0
 30 31  2  0
 32 35  1  0
 32 31  1  0
 33 32  2  0
 34 33  1  0
 34 29  2  0
 35 36  1  0
 36 37  1  0
 37 38  2  0
 39 38  1  0
 39 43  1  0
 40 39  2  0
 41 36  2  0
 41 40  1  0
 42 41  1  0
 44 45  1  0
 45 48  1  0
 45 47  1  0
 46 44  2  0
 49 50  1  0
 49 24  1  0
 51 49  1  0
 53 55  1  0
 53 52  1  0
 54 65  2  0
 55 60  1  0
 56 64  1  0
 56 66  1  0
 57 63  1  0
 57 59  1  0
 58 64  1  0
 59 60  2  0
 59 58  1  0
 61 55  2  0
 62 61  1  0
 62 57  2  0
 63 56  1  0
 64 54  1  0
 66 68  2  0
 67 66  1  0
 69 67  1  0
 70 79  2  0
 70 75  1  0
 71 67  1  0
 71 75  1  0
 72 71  1  0
 73 74  1  0
 73 72  1  0
 74 70  1  0
 75 76  2  0
 76 77  1  0
 78 77  2  0
 79 78  1  0
 80 54  1  0
 80 81  1  0
 80 90  1  0
 81 84  1  0
 82 86  1  0
 82 81  1  0
 83 82  2  0
 86 85  1  0
 88 86  1  0
 88 89  1  0
 88 87  1  0
 90 93  1  1
 90 91  1  0
 92 90  1  0
M  ISO  4  14 100  22 100  52 101  53 101
M  END
>  <TORSDO>  (24) 
F 18

>  <SCORE>  (24) 
-14.677

>  <name>  (24) 
23

>  <ligand_id>  (24) 
23

>  <original_smiles>  (24) 
[H]c1c(N([H])C2([H])C([H])([H])C([H])([H])C2([H])N([H])C(=O)N2C([H])([H])C([H])([H])C([H])([H])C([H])(n3nc(-c4c([H])c([H])c(Oc5c([H])c([H])c(F)c([H])c5F)c([H])c4[H])c(C(=O)N([H])[H])c3N([H])[H])C2([H])[H])nc(C([H])([H])Oc2c([H])c([H])c3c(c2[H])C([H])([H])N(C(=O)C([H])(N([H])C(=O)C([H])(N([H])C([H])([H])[H])C([H])([H])[H])C(C([H])([H])[H])(C([H])([H])[H])C([H])([H])[H])C([H])(C(=O)N([H])C2([H])c4c([H])c([H])c([H])c([H])c4C([H])([H])C([H])([H])C2([H])[H])C3([H])[H])nc1C([H])([H])[H]

>  <smiles>  (24) 
[H]c1c(N([H])C2([H])C([H])([H])C([H])([H])C2([H])N([H])C(=O)N2C([H])([H])C([H])([H])C([H])([H])C([H])(n3nc(-c4c([H])c([H])c(Oc5c([H])c([H])c(F)c([H])c5F)c([H])c4[H])c(C(=O)N([H])[H])c3N([H])[H])C2([H])[H])nc(C([H])([H])Oc2c([H])c([H])c3c(c2[H])C([H])([H])N(C(=O)C([H])(N([H])C(=O)C([H])(N([H])C([H])([H])[H])C([H])([H])[H])C(C([H])([H])[H])(C([H])([H])[H])C([H])([H])[H])C([H])(C(=O)N([H])C2([H])c4c([H])c([H])c([H])c([H])c4C([H])([H])C([H])([H])C2([H])[H])C3([H])[H])nc1C([H])([H])[H]

$$$$
24:0:0
     RDKit          3D

 94103  0  0  1  0  0  0  0  0999 V2000
  -30.0850  -19.4210   19.7390 C   0  0  0  0  0  3  0  0  0  0  0  0
  -29.7280  -20.7250   20.1380 C   0  0  0  0  0  0  0  0  0  0  0  0
  -29.8910  -21.1420   21.4530 C   0  0  0  0  0  0  0  0  0  0  0  0
  -30.6430  -18.5180   20.6850 C   0  0  0  0  0  0  0  0  0  0  0  0
  -30.4040  -20.2600   22.4330 C   0  0  0  0  0  0  0  0  0  0  0  0
  -30.7980  -18.9420   22.0410 C   0  0  0  0  0  0  0  0  0  0  0  0
  -29.2140  -21.8450   19.3170 C   0  0  0  0  0  0  0  0  0  0  0  0
  -29.0860  -23.0290   20.1990 C   0  0  0  0  0  0  0  0  0  0  0  0
  -28.6860  -24.2520   19.7650 C   0  0  0  0  0  3  0  0  0  0  0  0
  -29.4950  -22.6040   21.6090 C   0  0  0  0  0  2  0  0  0  0  0  0
  -30.5690  -20.7460   23.8670 C   0  0  0  0  0  1  0  0  0  0  0  0
  -31.4320  -17.9950   23.0570 C   0  0  0  0  0  1  0  0  0  0  0  0
  -28.9510  -21.7980   18.1120 O   0  0  0  0  0  0  0  0  0  0  0  0
  -31.2190  -17.1950   20.1390 C   0  0  0  0  0  2  0  0  0  0  0  0
  -31.2720  -14.7430   20.2200 C   0  0  0  0  0  0  0  0  0  0  0  0
  -30.9020  -12.5120   19.2550 C   0  0  0  0  0  2  0  0  0  0  0  0
  -29.9700  -12.6540   18.0350 C   0  0  0  0  0  2  0  0  0  0  0  0
  -28.4960  -12.5650   18.4770 C   0  0  0  0  0  2  0  0  0  0  0  0
  -28.1720  -13.4880   19.6840 C   0  0  0  0  0  3  0  0  0  0  0  0
  -29.2320  -13.3630   20.8010 C   0  0  0  0  0  2  0  0  0  0  0  0
  -30.5520  -13.5880   20.1980 N   0  0  0  0  0  0  0  0  0  0  0  0
  -32.4300  -14.7960   19.8030 O   0  0  0  0  0  0  0  0  0  0  0  0
  -30.6100  -15.8920   20.4870 N   0  0  0  0  0  0  0  0  0  0  0  0
  -29.6420  -15.8570   20.7630 H   0  0  0  0  0  0  0  0  0  0  0  0
  -25.8320  -14.1700   20.5000 C   0  0  0  0  0  0  0  0  0  0  0  0
  -24.7330  -13.4320   20.8510 C   0  0  0  0  0  0  0  0  0  0  0  0
  -25.1190  -12.0630   20.7250 C   0  0  0  0  0  0  0  0  0  0  0  0
  -26.8210  -13.2510   20.1860 N   0  0  0  0  0  0  0  0  0  0  0  0
  -26.3980  -11.9750   20.3800 N   0  0  0  0  0  0  0  0  0  0  0  0
  -24.3290  -10.8310   20.8570 C   0  0  0  0  0  0  0  0  0  0  0  0
  -24.7060   -9.8020   21.7480 C   0  0  0  0  0  3  0  0  0  0  0  0
  -23.9190   -8.6370   21.8710 C   0  0  0  0  0  3  0  0  0  0  0  0
  -22.7400   -8.4920   21.1010 C   0  0  0  0  0  0  0  0  0  0  0  0
  -22.3810   -9.5090   20.1990 C   0  0  0  0  0  3  0  0  0  0  0  0
  -23.1690  -10.6660   20.0740 C   0  0  0  0  0  3  0  0  0  0  0  0
  -21.9280   -7.3840   21.1350 O   0  0  0  0  0  0  0  0  0  0  0  0
  -21.7670   -6.6440   22.2790 C   0  0  0  0  0  0  0  0  0  0  0  0
  -21.2780   -7.2160   23.4740 C   0  0  0  0  0  3  0  0  0  0  0  0
  -21.0640   -6.4040   24.6060 C   0  0  0  0  0  3  0  0  0  0  0  0
  -21.3270   -5.0240   24.5430 C   0  0  0  0  0  0  0  0  0  0  0  0
  -21.8100   -4.4520   23.3530 C   0  0  0  0  0  3  0  0  0  0  0  0
  -22.0260   -5.2600   22.2230 C   0  0  0  0  0  0  0  0  0  0  0  0
  -22.4700   -4.7010   21.0720 F   0  0  0  0  0  0  0  0  0  0  0  0
  -21.1140   -4.2420   25.6280 F   0  0  0  0  0  0  0  0  0  0  0  0
  -23.3710  -13.9650   21.1900 C   0  0  0  0  0  0  0  0  0  0  0  0
  -22.6460  -13.2810   22.0690 N   0  0  0  0  0  0  0  0  0  0  0  0
  -22.9610  -15.0220   20.7130 O   0  0  0  0  0  0  0  0  0  0  0  0
  -22.9910  -12.4250   22.4770 H   0  0  0  0  0  0  0  0  0  0  0  0
  -21.7330  -13.6200   22.3380 H   0  0  0  0  0  0  0  0  0  0  0  0
  -26.0660  -15.5370   20.4010 N   0  0  0  0  0  0  0  0  0  0  0  0
  -25.3400  -16.2240   20.5690 H   0  0  0  0  0  0  0  0  0  0  0  0
  -26.9280  -15.9500   20.0660 H   0  0  0  0  0  0  0  0  0  0  0  0
  -28.5580  -25.5090   20.6220 C   0  0  0  0  0  2  0  0  0  0  0  0
  -28.5760  -26.7380   19.8610 O   0  0  0  0  0  0  0  0  0  0  0  0
  -24.5670  -31.6610   23.1180 C   0  0  0  0  0  0  0  0  0  0  0  0
  -27.3950  -27.4530   19.8720 C   0  0  0  0  0  0  0  0  0  0  0  0
  -23.4240  -30.2810   21.4140 C   0  0  0  0  0  3  0  0  0  0  0  0
  -24.9440  -28.8670   19.9290 C   0  0  0  0  0  0  0  0  0  0  0  0
  -25.9350  -30.7520   21.2390 C   0  0  0  0  0  2  0  0  0  0  0  0
  -26.0800  -29.4140   20.5410 C   0  0  0  0  0  0  0  0  0  0  0  0
  -27.3120  -28.7180   20.5040 C   0  0  0  0  0  3  0  0  0  0  0  0
  -26.2460  -26.9260   19.2490 C   0  0  0  0  0  3  0  0  0  0  0  0
  -25.0230  -27.6230   19.2780 C   0  0  0  0  0  3  0  0  0  0  0  0
  -23.6650  -29.6700   20.0080 C   0  0  0  0  0  2  0  0  0  0  0  0
  -24.6600  -30.9110   21.9830 N   0  0  0  0  0  0  0  0  0  0  0  0
  -23.4750  -31.8630   23.6660 O   0  0  0  0  0  0  0  0  0  0  0  0
  -22.8150  -29.1930   22.3290 C   0  0  0  0  0  0  0  0  0  0  0  0
  -21.5030  -28.9500   22.1790 N   0  0  0  0  0  0  0  0  0  0  0  0
  -23.5210  -28.5720   23.1290 O   0  0  0  0  0  0  0  0  0  0  0  0
  -20.9930  -29.5070   21.5080 H   0  0  0  0  0  0  0  0  0  0  0  0
  -18.1930  -27.5500   22.5660 C   0  0  0  0  0  0  0  0  0  0  0  0
  -20.7260  -27.9450   22.9030 C   0  0  0  0  0  3  0  0  0  0  0  0
  -20.9230  -26.5400   22.2890 C   0  0  0  0  0  2  0  0  0  0  0  0
  -19.8630  -26.1860   21.2410 C   0  0  0  0  0  2  0  0  0  0  0  0
  -18.4610  -26.2340   21.8570 C   0  0  0  0  0  2  0  0  0  0  0  0
  -19.2570  -28.3620   23.0430 C   0  0  0  0  0  0  0  0  0  0  0  0
  -18.9540  -29.5930   23.6640 C   0  0  0  0  0  3  0  0  0  0  0  0
  -17.6210  -30.0160   23.8130 C   0  0  0  0  0  3  0  0  0  0  0  0
  -16.5710  -29.2020   23.3530 C   0  0  0  0  0  3  0  0  0  0  0  0
  -16.8570  -27.9710   22.7360 C   0  0  0  0  0  3  0  0  0  0  0  0
  -25.8250  -32.3200   23.7680 C   0  0  0  0  0  3  0  0  0  0  0  0
  -25.4710  -33.7030   24.1120 N   0  0  0  0  0  0  0  0  0  0  0  0
  -25.7950  -34.7750   23.3770 C   0  0  0  0  0  0  0  0  0  0  0  0
  -26.4910  -34.7050   22.3600 O   0  0  0  0  0  0  0  0  0  0  0  0
  -24.8520  -33.8290   24.9000 H   0  0  0  0  0  0  0  0  0  0  0  0
  -24.0320  -36.5290   23.0020 C   0  0  0  0  0  1  0  0  0  0  0  0
  -25.2590  -36.1430   23.8420 C   0  0  0  0  0  3  0  0  0  0  0  0
  -27.3410  -37.0700   24.7530 C   0  0  0  0  0  1  0  0  0  0  0  0
  -26.2670  -37.2240   23.7750 N   0  0  0  0  0  0  0  0  0  0  0  0
  -25.8340  -38.1320   23.9220 H   0  0  0  0  0  0  0  0  0  0  0  0
  -26.3450  -31.5440   25.0390 C   0  0  1  0  0  0  0  0  0  0  0  0
  -25.2490  -31.2780   26.0990 C   0  0  0  0  0  1  0  0  0  0  0  0
  -26.9510  -30.1800   24.6340 C   0  0  0  0  0  1  0  0  0  0  0  0
  -27.4800  -32.3480   25.7170 C   0  0  0  0  0  1  0  0  0  0  0  0
  1  2  2  0
  1  4  1  0
  2  3  1  0
  3 10  1  0
  3  5  2  0
  4  6  2  0
  5 11  1  0
  6  5  1  0
  6 12  1  0
  7  2  1  0
  7  8  1  0
  8 10  1  0
  9  8  2  0
  9 53  1  0
 13  7  2  0
 14 23  1  0
 14  4  1  0
 15 23  1  0
 16 21  1  0
 17 18  1  0
 17 16  1  0
 19 18  1  0
 19 28  1  0
 19 20  1  0
 21 15  1  0
 21 20  1  0
 22 15  2  0
 23 24  1  0
 25 26  2  0
 26 45  1  0
 27 26  1  0
 27 30  1  0
 28 29  1  0
 28 25  1  0
 29 27  2  0
 30 31  1  0
 31 32  2  0
 33 36  1  0
 33 32  1  0
 34 33  2  0
 35 34  1  0
 35 30  2  0
 36 37  1  0
 37 38  1  0
 38 39  2  0
 40 39  1  0
 40 44  1  0
 41 40  2  0
 42 37  2  0
 42 41  1  0
 43 42  1  0
 45 46  1  0
 46 49  1  0
 46 48  1  0
 47 45  2  0
 50 25  1  0
 50 51  1  0
 52 50  1  0
 54 56  1  0
 54 53  1  0
 55 66  2  0
 56 61  1  0
 57 65  1  0
 57 67  1  0
 58 64  1  0
 58 60  1  0
 59 65  1  0
 60 59  1  0
 61 60  2  0
 62 63  1  0
 62 56  2  0
 63 58  2  0
 64 57  1  0
 65 55  1  0
 67 69  2  0
 68 67  1  0
 70 68  1  0
 71 80  2  0
 71 76  1  0
 72 68  1  0
 72 76  1  0
 73 72  1  0
 74 75  1  0
 74 73  1  0
 75 71  1  0
 76 77  2  0
 77 78  1  0
 79 78  2  0
 80 79  1  0
 81 55  1  0
 81 82  1  0
 81 91  1  0
 82 85  1  0
 83 87  1  0
 83 82  1  0
 84 83  2  0
 87 86  1  0
 89 87  1  0
 89 90  1  0
 89 88  1  0
 91 94  1  1
 91 92  1  0
 93 91  1  0
M  ISO  4  15 100  23 100  53 101  54 101
M  END
>  <TORSDO>  (25) 
F 18

>  <SCORE>  (25) 
-13.201

>  <name>  (25) 
24

>  <ligand_id>  (25) 
24

>  <original_smiles>  (25) 
[H]C(=C1C(=O)c2c([H])c(C([H])([H])N([H])C(=O)N3C([H])([H])C([H])([H])C([H])([H])C([H])(n4nc(-c5c([H])c([H])c(Oc6c([H])c([H])c(F)c([H])c6F)c([H])c5[H])c(C(=O)N([H])[H])c4N([H])[H])C3([H])[H])c(C([H])([H])[H])c(C([H])([H])[H])c2C1([H])[H])C([H])([H])Oc1c([H])c([H])c2c(c1[H])C([H])([H])N(C(=O)C([H])(N([H])C(=O)C([H])(N([H])C([H])([H])[H])C([H])([H])[H])C(C([H])([H])[H])(C([H])([H])[H])C([H])([H])[H])C([H])(C(=O)N([H])C1([H])c3c([H])c([H])c([H])c([H])c3C([H])([H])C([H])([H])C1([H])[H])C2([H])[H]

>  <smiles>  (25) 
[H]C(=C1C(=O)c2c([H])c(C([H])([H])N([H])C(=O)N3C([H])([H])C([H])([H])C([H])([H])C([H])(n4nc(-c5c([H])c([H])c(Oc6c([H])c([H])c(F)c([H])c6F)c([H])c5[H])c(C(=O)N([H])[H])c4N([H])[H])C3([H])[H])c(C([H])([H])[H])c(C([H])([H])[H])c2C1([H])[H])C([H])([H])Oc1c([H])c([H])c2c(c1[H])C([H])([H])N(C(=O)C([H])(N([H])C(=O)C([H])(N([H])C([H])([H])[H])C([H])([H])[H])C(C([H])([H])[H])(C([H])([H])[H])C([H])([H])[H])C([H])(C(=O)N([H])C1([H])c3c([H])c([H])c([H])c([H])c3C([H])([H])C([H])([H])C1([H])[H])C2([H])[H]

$$$$
25:0:0
     RDKit          3D

 98 99  0  0  1  0  0  0  0  0999 V2000
  -23.9900  -12.4720   19.4900 C   0  0  0  0  0 15  0  0  0  0  0  0
  -26.0290  -13.0300   18.7420 C   0  0  0  0  0  1  0  0  0  0  0  0
  -27.9290  -13.0990   19.8000 C   0  0  0  0  0  1  0  0  0  0  0  0
  -27.8070  -12.2570   21.8620 C   0  0  0  0  0  1  0  0  0  0  0  0
  -23.9640  -11.8140   21.9320 C   0  0  0  0  0  1  0  0  0  0  0  0
  -26.4610  -14.1240   17.7350 C   0  0  0  0  0  2  0  0  0  0  0  0
  -27.7530  -15.0710   18.1990 C   0  0  0  0  0  2  0  0  0  0  0  0
  -28.9840  -14.6230   19.1830 C   0  0  0  0  0  3  0  0  0  0  0  0
  -22.8150  -11.5610   22.9230 C   0  0  0  0  0  1  0  0  0  0  0  0
  -25.9450  -11.7190   22.6900 N   0  0  0  0  0 15  0  0  0  0  0  0
  -31.1220  -10.2560   20.3090 C   0  0  0  0  0  0  0  0  0  0  0  0
  -29.9560   -8.6710   18.7720 C   0  0  0  0  0  2  0  0  0  0  0  0
  -29.0900   -9.3810   17.6980 C   0  0  0  0  0  2  0  0  0  0  0  0
  -27.7090   -9.8990   18.2210 C   0  0  0  0  0  2  0  0  0  0  0  0
  -27.8620  -10.7040   19.5580 C   0  0  0  0  0  3  0  0  0  0  0  0
  -28.6880   -9.7200   20.4930 C   0  0  0  0  0  2  0  0  0  0  0  0
  -30.0330   -9.5240   19.9610 N   0  0  0  0  0  0  0  0  0  0  0  0
  -32.1810  -10.2210   19.6600 O   0  0  0  0  0  0  0  0  0  0  0  0
  -29.5540  -11.2040   23.4900 C   0  0  0  0  0  2  0  0  0  0  0  0
  -30.1240  -13.3220   22.2760 C   0  0  0  0  0  2  0  0  0  0  0  0
  -30.7980  -10.6370   22.7440 C   0  0  0  0  0  2  0  0  0  0  0  0
  -31.0260  -12.5690   21.2480 C   0  0  0  0  0  2  0  0  0  0  0  0
  -28.9590  -12.4830   22.8530 C   0  0  0  0  0  3  0  0  0  0  0  0
  -30.8880  -11.1090   21.3500 N   0  0  0  0  0  0  0  0  0  0  0  0
  -25.8890  -13.3300   20.8150 C   0  0  0  0  0  3  0  0  0  0  0  0
  -25.1610  -13.1000   20.9450 C   0  0  0  0  0  3  0  0  0  0  0  0
  -25.4730  -10.9110   20.5460 C   0  0  0  0  0  3  0  0  0  0  0  0
  -26.5020  -11.3910   20.2340 N   0  0  0  0  0  0  0  0  0  0  0  0
  -26.3500  -10.2220   20.7220 N   0  0  0  0  0  2  0  0  0  0  0  0
  -24.1680   -9.6200   20.8250 C   0  0  0  0  0  0  0  0  0  0  0  0
  -24.3370   -8.4750   21.7450 C   0  0  0  0  0  3  0  0  0  0  0  0
  -23.3110   -7.7270   22.4730 C   0  0  0  0  0  3  0  0  0  0  0  0
  -21.9300   -8.0510   22.4030 C   0  0  0  0  0  0  0  0  0  0  0  0
  -21.6700   -9.1460   21.5640 C   0  0  0  0  0  3  0  0  0  0  0  0
  -22.7010   -9.8140   20.8160 C   0  0  0  0  0  3  0  0  0  0  0  0
  -20.8300   -7.3690   22.9560 O   0  0  0  0  0  0  0  0  0  0  0  0
  -20.8860   -6.2190   23.7340 C   0  0  0  0  0  0  0  0  0  0  0  0
  -21.3930   -6.2540   25.0530 C   0  0  0  0  0  3  0  0  0  0  0  0
  -21.3780   -5.0960   25.8640 C   0  0  0  0  0  3  0  0  0  0  0  0
  -20.8470   -3.8890   25.3690 C   0  0  0  0  0  0  0  0  0  0  0  0
  -20.3040   -3.8500   24.0730 C   0  0  0  0  0  3  0  0  0  0  0  0
  -20.3080   -5.0080   23.2680 C   0  0  0  0  0  0  0  0  0  0  0  0
  -19.7430   -4.9480   22.0390 F   0  0  0  0  0  0  0  0  0  0  0  0
  -20.8520   -2.7740   26.1400 F   0  0  0  0  0  0  0  0  0  0  0  0
  -23.8580  -14.0790   21.1770 C   0  0  0  0  0  0  0  0  0  0  0  0
  -22.8880  -13.8730   22.0830 N   0  0  0  0  0  0  0  0  0  0  0  0
  -23.6070  -14.8940   20.3110 O   0  0  0  0  0  0  0  0  0  0  0  0
  -22.9460  -13.1900   22.8170 H   0  0  0  0  0  0  0  0  0  0  0  0
  -22.0800  -14.4780   22.0400 H   0  0  0  0  0  0  0  0  0  0  0  0
  -26.3620  -14.7060   20.9260 N   0  0  0  0  0  0  0  0  0  0  0  0
  -27.2990  -14.9200   20.6340 H   0  0  0  0  0  0  0  0  0  0  0  0
  -25.7720  -15.5120   21.0970 H   0  0  0  0  0  0  0  0  0  0  0  0
  -29.9980  -16.1600   19.7080 N   0  0  0  0  0  4  0  0  0  0  0  0
  -30.3160  -15.8940   20.6240 H   0  0  0  0  0  0  0  0  0  0  0  0
  -29.2530  -16.8140   19.8900 H   0  0  0  0  0  0  0  0  0  0  0  0
  -31.3950  -17.3650   19.1970 C   0  0  0  0  0  1  0  0  0  0  0  0
  -32.3120  -19.2610   19.5650 C   0  0  0  0  0 15  0  0  0  0  0  0
  -33.7820  -20.5030   19.3870 O   0  0  0  0  0  1  0  0  0  0  0  0
  -35.9530  -28.1810   20.4250 C   0  0  0  0  0  0  0  0  0  0  0  0
  -34.0200  -22.0630   19.0310 C   0  0  0  0  0  0  0  0  0  0  0  0
  -33.7770  -27.4510   19.6030 C   0  0  0  0  0  3  0  0  0  0  0  0
  -33.5790  -25.0710   18.5600 C   0  0  0  0  0  0  0  0  0  0  0  0
  -35.8270  -25.9670   19.0450 C   0  0  0  0  0  2  0  0  0  0  0  0
  -34.8790  -24.6790   18.8920 C   0  0  0  0  0  0  0  0  0  0  0  0
  -35.1050  -23.1870   19.0820 C   0  0  0  0  0  3  0  0  0  0  0  0
  -32.8880  -22.6760   18.4790 C   0  0  0  0  0  3  0  0  0  0  0  0
  -32.6490  -24.0610   18.2930 C   0  0  0  0  0  3  0  0  0  0  0  0
  -33.1780  -26.5510   18.4890 C   0  0  0  0  0  2  0  0  0  0  0  0
  -35.2500  -27.2250   19.7130 N   0  0  0  0  0  0  0  0  0  0  0  0
  -35.3860  -29.1400   20.9820 O   0  0  0  0  0  0  0  0  0  0  0  0
  -33.0310  -27.2290   20.9500 C   0  0  0  0  0  0  0  0  0  0  0  0
  -31.8940  -27.9150   21.1750 N   0  0  0  0  0  0  0  0  0  0  0  0
  -33.4860  -26.4340   21.7770 O   0  0  0  0  0  0  0  0  0  0  0  0
  -31.5870  -28.5740   20.4730 H   0  0  0  0  0  0  0  0  0  0  0  0
  -28.9480  -29.2180   22.8630 C   0  0  0  0  0  0  0  0  0  0  0  0
  -31.0330  -27.7710   22.3580 C   0  0  0  0  0  3  0  0  0  0  0  0
  -30.0420  -26.5970   22.1850 C   0  0  0  0  0  2  0  0  0  0  0  0
  -28.6870  -27.0300   21.6160 C   0  0  0  0  0  2  0  0  0  0  0  0
  -28.0240  -28.0560   22.5390 C   0  0  0  0  0  2  0  0  0  0  0  0
  -30.3590  -29.0890   22.7620 C   0  0  0  0  0  0  0  0  0  0  0  0
  -31.1700  -30.2090   23.0490 C   0  0  0  0  0  3  0  0  0  0  0  0
  -30.5930  -31.4380   23.4250 C   0  0  0  0  0  3  0  0  0  0  0  0
  -29.1970  -31.5560   23.5340 C   0  0  0  0  0  3  0  0  0  0  0  0
  -28.3790  -30.4460   23.2570 C   0  0  0  0  0  3  0  0  0  0  0  0
  -37.5040  -28.1350   20.5700 C   0  0  0  0  0  3  0  0  0  0  0  0
  -37.9800  -27.3140   21.8350 C   0  0  1  0  0  0  0  0  0  0  0  0
  -37.3060  -27.7520   23.1580 C   0  0  0  0  0  1  0  0  0  0  0  0
  -37.7080  -25.8060   21.6560 C   0  0  0  0  0  1  0  0  0  0  0  0
  -39.5100  -27.4610   22.0120 C   0  0  0  0  0  1  0  0  0  0  0  0
  -38.0050  -29.5240   20.6780 N   0  0  0  0  0  0  0  0  0  0  0  0
  -38.5360  -30.2430   19.6800 C   0  0  0  0  0  0  0  0  0  0  0  0
  -38.7000  -29.7810   18.5490 O   0  0  0  0  0  0  0  0  0  0  0  0
  -37.8540  -29.9850   21.5630 H   0  0  0  0  0  0  0  0  0  0  0  0
  -37.8750  -32.6700   19.4690 C   0  0  0  0  0  1  0  0  0  0  0  0
  -38.9560  -31.7010   19.9780 C   0  0  0  0  0  3  0  0  0  0  0  0
  -41.3970  -31.4010   20.0250 C   0  0  0  0  0  1  0  0  0  0  0  0
  -40.2640  -32.0750   19.3940 N   0  0  0  0  0  0  0  0  0  0  0  0
  -40.4170  -33.0780   19.4580 H   0  0  0  0  0  0  0  0  0  0  0  0
  5  9  1  0
  6  7  1  0
  6  2  1  0
  7  8  1  0
  8 53  1  0
  8  3  1  0
 11 24  1  0
 12 17  1  0
 13 14  1  0
 13 12  1  0
 15 14  1  0
 15 28  1  0
 15 16  1  0
 17 11  1  0
 17 16  1  0
 18 11  2  0
 20 23  1  0
 21 19  1  0
 22 24  1  0
 22 20  1  0
 23  4  1  0
 23 19  1  0
 24 21  1  0
 25 50  1  0
 25 26  2  0
 26 45  1  0
 27 29  1  0
 27 30  1  0
 28 27  1  0
 28 29  1  0
 30 31  1  0
 31 32  2  0
 33 32  1  0
 33 36  1  0
 34 33  2  0
 35 30  2  0
 35 34  1  0
 36 37  1  0
 37 38  1  0
 38 39  2  0
 40 39  1  0
 40 44  1  0
 41 40  2  0
 42 37  2  0
 42 41  1  0
 43 42  1  0
 45 46  1  0
 46 48  1  0
 47 45  2  0
 49 46  1  0
 50 52  1  0
 51 50  1  0
 53 55  1  0
 53 54  1  0
 56 53  1  0
 59 70  2  0
 60 65  1  0
 60 58  1  0
 61 69  1  0
 61 71  1  0
 62 64  1  0
 63 69  1  0
 64 63  1  0
 64 65  2  0
 66 60  2  0
 67 66  1  0
 67 62  2  0
 68 62  1  0
 68 61  1  0
 69 59  1  0
 71 72  1  0
 71 73  2  0
 74 72  1  0
 75 84  1  0
 76 72  1  0
 76 80  1  0
 77 76  1  0
 78 77  1  0
 78 79  1  0
 79 75  1  0
 80 75  2  0
 80 81  1  0
 81 82  2  0
 82 83  1  0
 84 83  2  0
 85 59  1  0
 85 90  1  0
 85 86  1  0
 86 89  1  1
 86 87  1  0
 88 86  1  0
 90 93  1  0
 91 95  1  0
 91 90  1  0
 92 91  2  0
 95 94  1  0
 97 98  1  0
 97 95  1  0
 97 96  1  0
M  ISO  4  11 100  24 100  57 101  58 101
M  END
>  <TORSDO>  (26) 
F 19

>  <SCORE>  (26) 
10.847

>  <name>  (26) 
25

>  <ligand_id>  (26) 
25

>  <original_smiles>  (26) 
[H]c1c([H])c([H])c2c(c1[H])C([H])([H])C([H])([H])C([H])([H])C2([H])N([H])C(=O)C1([H])N(C(=O)C([H])(N([H])C(=O)C([H])(N([H])C([H])([H])[H])C([H])([H])[H])C(C([H])([H])[H])(C([H])([H])[H])C([H])([H])[H])C([H])([H])c2c([H])c(OC([H])([H])C([H])([H])[N+]([H])([H])C3([H])c4c(C5([H])C([H])([H])C([H])([H])N(C(=O)N6C([H])([H])C([H])([H])C([H])([H])C([H])(n7nc(-c8c([H])c([H])c(Oc9c([H])c([H])c(F)c([H])c9F)c([H])c8[H])c(C(=O)N([H])[H])c7N([H])[H])C6([H])[H])C([H])([H])C5([H])[H])nc(C([H])([H])[H])c([H])c4C([H])([H])C3([H])[H])c([H])c([H])c2C1([H])[H]

>  <smiles>  (26) 
[H]c1c([H])c([H])c2c(c1[H])C([H])([H])C([H])([H])C([H])([H])C2([H])N([H])C(=O)C1([H])N(C(=O)C([H])(N([H])C(=O)C([H])(N([H])C([H])([H])[H])C([H])([H])[H])C(C([H])([H])[H])(C([H])([H])[H])C([H])([H])[H])C([H])([H])c2c([H])c(OC([H])([H])C([H])([H])[N+]([H])([H])C3([H])c4c(C5([H])C([H])([H])C([H])([H])N(C(=O)N6C([H])([H])C([H])([H])C([H])([H])C([H])(n7nc(-c8c([H])c([H])c(Oc9c([H])c([H])c(F)c([H])c9F)c([H])c8[H])c(C(=O)N([H])[H])c7N([H])[H])C6([H])[H])C([H])([H])C5([H])[H])nc(C([H])([H])[H])c([H])c4C([H])([H])C3([H])[H])c([H])c([H])c2C1([H])[H]

$$$$
26:0:0
     RDKit          3D

 96105  0  0  1  0  0  0  0  0999 V2000
  -30.7330  -21.6160   20.6340 C   0  0  0  0  0  2  0  0  0  0  0  0
  -29.5960  -23.5880   21.4120 C   0  0  0  0  0  2  0  0  0  0  0  0
  -29.5290  -21.7400   19.6840 C   0  0  0  0  0  3  0  0  0  0  0  0
  -30.3590  -22.3660   21.9110 C   0  0  0  0  0  3  0  0  0  0  0  0
  -28.6580  -23.1210   20.2800 C   0  0  1  0  0  0  0  0  0  0  0  0
  -31.5610  -22.7250   22.7970 C   0  0  0  0  0  1  0  0  0  0  0  0
  -27.3150  -22.7140   20.9240 C   0  0  0  0  0  1  0  0  0  0  0  0
  -28.1310  -18.4830   17.3080 C   0  0  0  0  0  3  0  0  0  0  0  0
  -29.1970  -18.0950   18.1290 C   0  0  0  0  0  0  0  0  0  0  0  0
  -29.5050  -18.8050   19.3330 C   0  0  0  0  0  0  0  0  0  0  0  0
  -28.9480  -20.2350   19.3200 C   0  0  0  0  0  0  0  0  0  0  0  0
  -27.4500  -19.6580   17.5920 C   0  0  0  0  0  0  0  0  0  0  0  0
  -30.0340  -16.9480   17.5910 C   0  0  0  0  0  1  0  0  0  0  0  0
  -26.2560  -20.1050   16.7770 C   0  0  0  0  0  1  0  0  0  0  0  0
  -27.8970  -20.5120   18.5150 N   0  0  0  0  0  0  0  0  0  0  0  0
  -30.3570  -17.8580   20.4060 C   0  0  0  0  0  2  0  0  0  0  0  0
  -30.8890  -15.0830   20.5850 C   0  0  0  0  0  0  0  0  0  0  0  0
  -30.8080  -12.6700   19.7810 C   0  0  0  0  0  2  0  0  0  0  0  0
  -29.9540  -12.5650   18.4940 C   0  0  0  0  0  2  0  0  0  0  0  0
  -28.4660  -12.3850   18.8460 C   0  0  0  0  0  2  0  0  0  0  0  0
  -28.0000  -13.3660   19.9520 C   0  0  0  0  0  3  0  0  0  0  0  0
  -28.9840  -13.4430   21.1370 C   0  0  0  0  0  2  0  0  0  0  0  0
  -30.2890  -13.8200   20.5810 N   0  0  0  0  0  0  0  0  0  0  0  0
  -32.1080  -15.1140   20.3800 O   0  0  0  0  0  0  0  0  0  0  0  0
  -30.1040  -16.2820   20.6150 N   0  0  0  0  0  0  0  0  0  0  0  0
  -29.1370  -16.0770   20.8090 H   0  0  0  0  0  0  0  0  0  0  0  0
  -25.5980  -14.0390   20.5290 C   0  0  0  0  0  0  0  0  0  0  0  0
  -24.4910  -13.3030   20.8470 C   0  0  0  0  0  0  0  0  0  0  0  0
  -24.9180  -11.9400   20.8780 C   0  0  0  0  0  0  0  0  0  0  0  0
  -26.6280  -13.1240   20.3750 N   0  0  0  0  0  0  0  0  0  0  0  0
  -26.2240  -11.8590   20.6510 N   0  0  0  0  0  0  0  0  0  0  0  0
  -24.1460  -10.7050   21.0500 C   0  0  0  0  0  0  0  0  0  0  0  0
  -24.5430   -9.7080   21.9680 C   0  0  0  0  0  3  0  0  0  0  0  0
  -23.7720   -8.5370   22.1300 C   0  0  0  0  0  3  0  0  0  0  0  0
  -22.5890   -8.3570   21.3740 C   0  0  0  0  0  0  0  0  0  0  0  0
  -22.2110   -9.3410   20.4450 C   0  0  0  0  0  3  0  0  0  0  0  0
  -22.9830  -10.5030   20.2800 C   0  0  0  0  0  3  0  0  0  0  0  0
  -21.7910   -7.2420   21.4460 O   0  0  0  0  0  0  0  0  0  0  0  0
  -21.7660   -6.4460   22.5640 C   0  0  0  0  0  0  0  0  0  0  0  0
  -21.4250   -6.9560   23.8350 C   0  0  0  0  0  3  0  0  0  0  0  0
  -21.3430   -6.0910   24.9430 C   0  0  0  0  0  3  0  0  0  0  0  0
  -21.5950   -4.7140   24.7830 C   0  0  0  0  0  0  0  0  0  0  0  0
  -21.9280   -4.2030   23.5150 C   0  0  0  0  0  3  0  0  0  0  0  0
  -22.0110   -5.0670   22.4090 C   0  0  0  0  0  0  0  0  0  0  0  0
  -22.3130   -4.5660   21.1870 F   0  0  0  0  0  0  0  0  0  0  0  0
  -21.5100   -3.8800   25.8440 F   0  0  0  0  0  0  0  0  0  0  0  0
  -23.0950  -13.8260   21.0180 C   0  0  0  0  0  0  0  0  0  0  0  0
  -22.3120  -13.2090   21.8950 N   0  0  0  0  0  0  0  0  0  0  0  0
  -22.7070  -14.8210   20.4070 O   0  0  0  0  0  0  0  0  0  0  0  0
  -22.6390  -12.4060   22.4120 H   0  0  0  0  0  0  0  0  0  0  0  0
  -21.3720  -13.5440   22.0530 H   0  0  0  0  0  0  0  0  0  0  0  0
  -25.8020  -15.4010   20.3330 N   0  0  0  0  0  0  0  0  0  0  0  0
  -25.0290  -16.0570   20.3800 H   0  0  0  0  0  0  0  0  0  0  0  0
  -26.6680  -15.8360   20.0520 H   0  0  0  0  0  0  0  0  0  0  0  0
  -28.3060  -24.5430   19.4320 C   0  0  0  0  0  2  0  0  0  0  0  0
  -28.3090  -26.0090   19.9890 O   0  0  0  0  0  0  0  0  0  0  0  0
  -24.6220  -31.5860   23.0780 C   0  0  0  0  0  0  0  0  0  0  0  0
  -27.2420  -26.9800   19.9030 C   0  0  0  0  0  0  0  0  0  0  0  0
  -23.4490  -30.2560   21.3670 C   0  0  0  0  0  3  0  0  0  0  0  0
  -24.9160  -28.7380   19.9010 C   0  0  0  0  0  0  0  0  0  0  0  0
  -26.0050  -30.5210   21.2540 C   0  0  0  0  0  2  0  0  0  0  0  0
  -26.0860  -29.1550   20.5490 C   0  0  0  0  0  0  0  0  0  0  0  0
  -27.2430  -28.2900   20.5380 C   0  0  0  0  0  3  0  0  0  0  0  0
  -26.0490  -26.6750   19.2070 C   0  0  0  0  0  3  0  0  0  0  0  0
  -24.9140  -27.5130   19.2160 C   0  0  0  0  0  3  0  0  0  0  0  0
  -23.6920  -29.6360   19.9660 C   0  0  0  0  0  2  0  0  0  0  0  0
  -24.7120  -30.8080   21.9560 N   0  0  0  0  0  0  0  0  0  0  0  0
  -23.5290  -31.8520   23.5990 O   0  0  0  0  0  0  0  0  0  0  0  0
  -22.7560  -29.2120   22.2780 C   0  0  0  0  0  0  0  0  0  0  0  0
  -21.4230  -29.0770   22.1530 N   0  0  0  0  0  0  0  0  0  0  0  0
  -23.4190  -28.5290   23.0630 O   0  0  0  0  0  0  0  0  0  0  0  0
  -20.9460  -29.6790   21.4950 H   0  0  0  0  0  0  0  0  0  0  0  0
  -18.0160  -27.9490   22.6430 C   0  0  0  0  0  0  0  0  0  0  0  0
  -20.5870  -28.1170   22.8810 C   0  0  0  0  0  3  0  0  0  0  0  0
  -20.6340  -26.7210   22.2160 C   0  0  0  0  0  2  0  0  0  0  0  0
  -19.5050  -26.4960   21.2030 C   0  0  0  0  0  2  0  0  0  0  0  0
  -18.1400  -26.6400   21.8810 C   0  0  0  0  0  2  0  0  0  0  0  0
  -19.1640  -28.6490   23.1000 C   0  0  0  0  0  0  0  0  0  0  0  0
  -18.9930  -29.8760   23.7760 C   0  0  0  0  0  3  0  0  0  0  0  0
  -17.7060  -30.4010   24.0010 C   0  0  0  0  0  3  0  0  0  0  0  0
  -16.5730  -29.6960   23.5610 C   0  0  0  0  0  3  0  0  0  0  0  0
  -16.7290  -28.4720   22.8870 C   0  0  0  0  0  3  0  0  0  0  0  0
  -25.8900  -32.1970   23.7500 C   0  0  0  0  0  3  0  0  0  0  0  0
  -26.3800  -31.3800   25.0090 C   0  0  1  0  0  0  0  0  0  0  0  0
  -25.2690  -31.1230   26.0540 C   0  0  0  0  0  1  0  0  0  0  0  0
  -26.9530  -30.0080   24.5830 C   0  0  0  0  0  1  0  0  0  0  0  0
  -27.5310  -32.1390   25.7080 C   0  0  0  0  0  1  0  0  0  0  0  0
  -25.5700  -33.5820   24.1340 N   0  0  0  0  0  0  0  0  0  0  0  0
  -25.9420  -34.6700   23.4450 C   0  0  0  0  0  0  0  0  0  0  0  0
  -26.6550  -34.6130   22.4400 O   0  0  0  0  0  0  0  0  0  0  0  0
  -24.9430  -33.7000   24.9150 H   0  0  0  0  0  0  0  0  0  0  0  0
  -24.2490  -36.5020   23.1070 C   0  0  0  0  0  1  0  0  0  0  0  0
  -25.4450  -36.0390   23.9530 C   0  0  0  0  0  3  0  0  0  0  0  0
  -27.5400  -36.8610   24.9380 C   0  0  0  0  0  1  0  0  0  0  0  0
  -26.4930  -37.0850   23.9440 N   0  0  0  0  0  0  0  0  0  0  0  0
  -26.0880  -38.0020   24.1100 H   0  0  0  0  0  0  0  0  0  0  0  0
  1  4  1  0
  2  4  1  0
  3 11  1  0
  3  5  1  0
  3  1  1  0
  4  6  1  0
  5  7  1  1
  5  2  1  0
  8 12  2  0
  8  9  1  0
  9 10  2  0
 10 16  1  0
 11 10  1  0
 12 15  1  0
 13  9  1  0
 14 12  1  0
 15 11  2  0
 16 25  1  0
 17 25  1  0
 18 23  1  0
 19 20  1  0
 19 18  1  0
 21 20  1  0
 21 30  1  0
 21 22  1  0
 23 17  1  0
 23 22  1  0
 24 17  2  0
 25 26  1  0
 27 28  2  0
 28 29  1  0
 28 47  1  0
 29 32  1  0
 30 27  1  0
 30 31  1  0
 31 29  2  0
 32 33  1  0
 33 34  2  0
 35 38  1  0
 35 34  1  0
 36 35  2  0
 37 36  1  0
 37 32  2  0
 38 39  1  0
 39 40  1  0
 40 41  2  0
 42 41  1  0
 42 46  1  0
 43 42  2  0
 44 39  2  0
 44 43  1  0
 45 44  1  0
 47 48  1  0
 48 51  1  0
 48 50  1  0
 49 47  2  0
 52 53  1  0
 52 27  1  0
 54 52  1  0
 55 56  1  0
 55  5  1  0
 57 68  2  0
 58 56  1  0
 58 63  1  0
 59 67  1  0
 59 69  1  0
 60 66  1  0
 60 62  1  0
 61 67  1  0
 62 61  1  0
 63 62  2  0
 64 65  1  0
 64 58  2  0
 65 60  2  0
 66 59  1  0
 67 57  1  0
 69 71  2  0
 70 69  1  0
 72 70  1  0
 73 82  2  0
 73 78  1  0
 74 70  1  0
 74 78  1  0
 75 74  1  0
 76 77  1  0
 76 75  1  0
 77 73  1  0
 78 79  2  0
 79 80  1  0
 81 80  2  0
 82 81  1  0
 83 57  1  0
 83 88  1  0
 83 84  1  0
 84 87  1  1
 84 85  1  0
 86 84  1  0
 88 91  1  0
 89 93  1  0
 89 88  1  0
 90 89  2  0
 93 92  1  0
 95 93  1  0
 95 96  1  0
 95 94  1  0
M  ISO  4  17 100  25 100  55 101  56 101
M  END
>  <TORSDO>  (27) 
F 19

>  <SCORE>  (27) 
-11.713

>  <name>  (27) 
26

>  <ligand_id>  (27) 
26

>  <original_smiles>  (27) 
[H]c1c([H])c([H])c2c(c1[H])C([H])([H])C([H])([H])C([H])([H])C2([H])N([H])C(=O)C1([H])N(C(=O)C([H])(N([H])C(=O)C([H])(N([H])C([H])([H])[H])C([H])([H])[H])C(C([H])([H])[H])(C([H])([H])[H])C([H])([H])[H])C([H])([H])c2c([H])c(OC([H])([H])C3(C([H])([H])[H])C([H])([H])C([H])(C([H])([H])[H])C([H])([H])C3([H])c3nc(C([H])([H])[H])c([H])c(C([H])([H])[H])c3C([H])([H])N([H])C(=O)N3C([H])([H])C([H])([H])C([H])([H])C([H])(n4nc(-c5c([H])c([H])c(Oc6c([H])c([H])c(F)c([H])c6F)c([H])c5[H])c(C(=O)N([H])[H])c4N([H])[H])C3([H])[H])c([H])c([H])c2C1([H])[H]

>  <smiles>  (27) 
[H]c1c([H])c([H])c2c(c1[H])C([H])([H])C([H])([H])C([H])([H])C2([H])N([H])C(=O)C1([H])N(C(=O)C([H])(N([H])C(=O)C([H])(N([H])C([H])([H])[H])C([H])([H])[H])C(C([H])([H])[H])(C([H])([H])[H])C([H])([H])[H])C([H])([H])c2c([H])c(OC([H])([H])C3(C([H])([H])[H])C([H])([H])C([H])(C([H])([H])[H])C([H])([H])C3([H])c3nc(C([H])([H])[H])c([H])c(C([H])([H])[H])c3C([H])([H])N([H])C(=O)N3C([H])([H])C([H])([H])C([H])([H])C([H])(n4nc(-c5c([H])c([H])c(Oc6c([H])c([H])c(F)c([H])c6F)c([H])c5[H])c(C(=O)N([H])[H])c4N([H])[H])C3([H])[H])c([H])c([H])c2C1([H])[H]

$$$$
27:0:0
     RDKit          3D

 97107  0  0  1  0  0  0  0  0999 V2000
  -29.1860  -20.0780   20.0170 C   0  0  0  0  0  0  0  0  0  0  0  0
  -29.0220  -21.4640   20.7060 C   0  0  0  0  0  0  0  0  0  0  0  0
  -28.6780  -22.8440   20.0790 C   0  0  0  0  0  0  0  0  0  0  0  0
  -28.8760  -20.2450   18.6390 C   0  0  0  0  0  0  0  0  0  0  0  0
  -28.5360  -22.6560   18.6860 C   0  0  0  0  0  0  0  0  0  0  0  0
  -29.2000  -21.4650   22.2100 C   0  0  0  0  0  1  0  0  0  0  0  0
  -28.6200  -21.4490   18.0430 N   0  0  0  0  0  0  0  0  0  0  0  0
  -30.6170  -15.5430   20.2060 C   0  0  0  0  0  0  0  0  0  0  0  0
  -30.4930  -13.1280   19.2320 C   0  0  0  0  0  2  0  0  0  0  0  0
  -29.5580  -12.8530   18.0340 C   0  0  0  0  0  2  0  0  0  0  0  0
  -28.1340  -12.5520   18.5230 C   0  0  0  0  0  2  0  0  0  0  0  0
  -27.6880  -13.5220   19.6460 C   0  0  0  0  0  3  0  0  0  0  0  0
  -28.7660  -13.7480   20.7280 C   0  0  0  0  0  2  0  0  0  0  0  0
  -29.9340  -14.3010   20.0150 N   0  0  0  0  0  0  0  0  0  0  0  0
  -31.8370  -15.3070   20.1950 O   0  0  0  0  0  0  0  0  0  0  0  0
  -31.0880  -18.5240   21.0300 C   0  0  0  0  0  2  0  0  0  0  0  0
  -31.3110  -17.8650   19.6660 C   0  0  0  0  0  2  0  0  0  0  0  0
  -29.6360  -18.4640   20.6320 C   0  0  0  0  0  3  0  0  0  0  0  0
  -30.1400  -16.9750   19.9580 N   0  0  0  0  0  0  0  0  0  0  0  0
  -25.3360  -14.0400   20.4640 C   0  0  0  0  0  0  0  0  0  0  0  0
  -24.2890  -13.2460   20.8370 C   0  0  0  0  0  0  0  0  0  0  0  0
  -24.7720  -11.9020   20.7900 C   0  0  0  0  0  0  0  0  0  0  0  0
  -26.3850  -13.1810   20.1970 N   0  0  0  0  0  0  0  0  0  0  0  0
  -26.0610  -11.8870   20.4610 N   0  0  0  0  0  0  0  0  0  0  0  0
  -24.0620  -10.6290   20.9760 C   0  0  0  0  0  0  0  0  0  0  0  0
  -24.4860   -9.6780   21.9300 C   0  0  0  0  0  3  0  0  0  0  0  0
  -23.7720   -8.4730   22.1080 C   0  0  0  0  0  3  0  0  0  0  0  0
  -22.6190   -8.2100   21.3300 C   0  0  0  0  0  0  0  0  0  0  0  0
  -22.2140   -9.1500   20.3660 C   0  0  0  0  0  3  0  0  0  0  0  0
  -22.9290  -10.3460   20.1880 C   0  0  0  0  0  3  0  0  0  0  0  0
  -21.8790   -7.0560   21.4140 O   0  0  0  0  0  0  0  0  0  0  0  0
  -21.7840   -6.3460   22.5850 C   0  0  0  0  0  0  0  0  0  0  0  0
  -21.2360   -6.9120   23.7570 C   0  0  0  0  0  3  0  0  0  0  0  0
  -21.0950   -6.1260   24.9170 C   0  0  0  0  0  3  0  0  0  0  0  0
  -21.4870   -4.7750   24.9050 C   0  0  0  0  0  0  0  0  0  0  0  0
  -22.0250   -4.2070   23.7370 C   0  0  0  0  0  3  0  0  0  0  0  0
  -22.1700   -4.9910   22.5790 C   0  0  0  0  0  0  0  0  0  0  0  0
  -22.6700   -4.4340   21.4500 F   0  0  0  0  0  0  0  0  0  0  0  0
  -21.3420   -4.0160   26.0180 F   0  0  0  0  0  0  0  0  0  0  0  0
  -22.8890  -13.7040   21.1220 C   0  0  0  0  0  0  0  0  0  0  0  0
  -22.1760  -12.9930   21.9860 N   0  0  0  0  0  0  0  0  0  0  0  0
  -22.4380  -14.7290   20.6120 O   0  0  0  0  0  0  0  0  0  0  0  0
  -22.5560  -12.1640   22.4210 H   0  0  0  0  0  0  0  0  0  0  0  0
  -21.2360  -13.2800   22.2180 H   0  0  0  0  0  0  0  0  0  0  0  0
  -25.4800  -15.4140   20.2980 N   0  0  0  0  0  0  0  0  0  0  0  0
  -24.7100  -16.0600   20.4320 H   0  0  0  0  0  0  0  0  0  0  0  0
  -26.3280  -15.8680   19.9780 H   0  0  0  0  0  0  0  0  0  0  0  0
  -29.7130  -18.8920   16.5370 C   0  0  0  0  0  2  0  0  0  0  0  0
  -28.2500  -19.1630   16.2740 C   0  0  0  0  0  2  0  0  0  0  0  0
  -28.7620  -19.0640   17.7010 C   0  0  0  0  0  3  0  0  0  0  0  0
  -28.2350  -24.4190   20.7550 C   0  0  0  0  0  2  0  0  0  0  0  0
  -28.4050  -26.0110   20.3060 O   0  0  0  0  0  0  0  0  0  0  0  0
  -24.6870  -31.9680   23.2610 C   0  0  0  0  0  0  0  0  0  0  0  0
  -27.3730  -27.1000   20.3180 C   0  0  0  0  0  0  0  0  0  0  0  0
  -23.5440  -30.5360   21.6210 C   0  0  0  0  0  3  0  0  0  0  0  0
  -25.0420  -28.9480   20.2320 C   0  0  0  0  0  0  0  0  0  0  0  0
  -26.1100  -30.7960   21.5020 C   0  0  0  0  0  2  0  0  0  0  0  0
  -26.2180  -29.3790   20.8600 C   0  0  0  0  0  0  0  0  0  0  0  0
  -27.3810  -28.4780   20.8730 C   0  0  0  0  0  3  0  0  0  0  0  0
  -26.1610  -26.8260   19.6470 C   0  0  0  0  0  3  0  0  0  0  0  0
  -25.0400  -27.6930   19.6040 C   0  0  0  0  0  3  0  0  0  0  0  0
  -23.8060  -29.8480   20.2540 C   0  0  0  0  0  2  0  0  0  0  0  0
  -24.8010  -31.1290   22.1810 N   0  0  0  0  0  0  0  0  0  0  0  0
  -23.5860  -32.2370   23.7680 O   0  0  0  0  0  0  0  0  0  0  0  0
  -22.8610  -29.5320   22.5840 C   0  0  0  0  0  0  0  0  0  0  0  0
  -21.5360  -29.3350   22.4450 N   0  0  0  0  0  0  0  0  0  0  0  0
  -23.5280  -28.9270   23.4270 O   0  0  0  0  0  0  0  0  0  0  0  0
  -21.0470  -29.8740   21.7440 H   0  0  0  0  0  0  0  0  0  0  0  0
  -18.1710  -28.0680   22.9440 C   0  0  0  0  0  0  0  0  0  0  0  0
  -20.7250  -28.3830   23.2140 C   0  0  0  0  0  3  0  0  0  0  0  0
  -20.8540  -26.9520   22.6380 C   0  0  0  0  0  2  0  0  0  0  0  0
  -19.7610  -26.6100   21.6220 C   0  0  0  0  0  2  0  0  0  0  0  0
  -18.3750  -26.7260   22.2630 C   0  0  0  0  0  2  0  0  0  0  0  0
  -19.2740  -28.8540   23.3760 C   0  0  0  0  0  0  0  0  0  0  0  0
  -19.0270  -30.1070   23.9760 C   0  0  0  0  0  3  0  0  0  0  0  0
  -17.7110  -30.5780   24.1450 C   0  0  0  0  0  3  0  0  0  0  0  0
  -16.6240  -29.7920   23.7270 C   0  0  0  0  0  3  0  0  0  0  0  0
  -16.8550  -28.5390   23.1330 C   0  0  0  0  0  3  0  0  0  0  0  0
  -25.9350  -32.6450   23.9060 C   0  0  0  0  0  3  0  0  0  0  0  0
  -26.4210  -31.9190   25.2200 C   0  0  1  0  0  0  0  0  0  0  0  0
  -25.2990  -31.6900   26.2600 C   0  0  0  0  0  1  0  0  0  0  0  0
  -27.0420  -30.5410   24.8950 C   0  0  0  0  0  1  0  0  0  0  0  0
  -27.5350  -32.7520   25.8960 C   0  0  0  0  0  1  0  0  0  0  0  0
  -25.5880  -34.0480   24.2030 N   0  0  0  0  0  0  0  0  0  0  0  0
  -25.9180  -35.0980   23.4390 C   0  0  0  0  0  0  0  0  0  0  0  0
  -26.6080  -34.9910   22.4230 O   0  0  0  0  0  0  0  0  0  0  0  0
  -24.9750  -34.2030   24.9890 H   0  0  0  0  0  0  0  0  0  0  0  0
  -24.1800  -36.8740   23.0290 C   0  0  0  0  0  1  0  0  0  0  0  0
  -25.4070  -36.4880   23.8720 C   0  0  0  0  0  3  0  0  0  0  0  0
  -27.5030  -37.4190   24.7520 C   0  0  0  0  0  1  0  0  0  0  0  0
  -26.4300  -37.5520   23.7700 N   0  0  0  0  0  0  0  0  0  0  0  0
  -26.0090  -38.4700   23.8830 H   0  0  0  0  0  0  0  0  0  0  0  0
  -28.2270  -23.8240   17.7580 C   0  0  0  0  0  2  0  0  0  0  0  0
  -28.9520  -23.6420   16.5010 N   0  0  0  0  0  4  0  0  0  0  0  0
  -29.9130  -23.9050   16.6170 H   0  0  0  0  0  0  0  0  0  0  0  0
  -28.5290  -24.1510   15.7520 H   0  0  0  0  0  0  0  0  0  0  0  0
  -28.9110  -22.6470   16.3470 H   0  0  0  0  0  0  0  0  0  0  0  0
  1  2  1  0
  2  6  1  0
  3  2  2  0
  3 51  1  0
  4  1  2  0
  5  3  1  0
  7  4  1  0
  7  5  2  0
  9 14  1  0
 10 11  1  0
 10  9  1  0
 12 11  1  0
 12 23  1  0
 12 13  1  0
 14  8  1  0
 14 13  1  0
 15  8  2  0
 17 19  1  0
 17 16  1  0
 18  1  1  0
 18 16  1  0
 19  8  1  0
 19 18  1  0
 20 21  2  0
 21 40  1  0
 22 21  1  0
 22 25  1  0
 23 24  1  0
 23 20  1  0
 24 22  2  0
 25 26  1  0
 26 27  2  0
 28 31  1  0
 28 27  1  0
 29 28  2  0
 30 29  1  0
 30 25  2  0
 31 32  1  0
 32 33  1  0
 33 34  2  0
 35 34  1  0
 35 39  1  0
 36 35  2  0
 37 32  2  0
 37 36  1  0
 38 37  1  0
 40 41  1  0
 41 44  1  0
 41 43  1  0
 42 40  2  0
 45 46  1  0
 45 20  1  0
 47 45  1  0
 48 50  1  0
 49 48  1  0
 49 50  1  0
 50  4  1  0
 52 54  1  0
 52 51  1  0
 53 64  2  0
 54 59  1  0
 55 63  1  0
 55 65  1  0
 56 62  1  0
 56 58  1  0
 57 63  1  0
 58 59  2  0
 58 57  1  0
 60 54  2  0
 61 60  1  0
 61 56  2  0
 62 55  1  0
 63 53  1  0
 65 67  2  0
 66 65  1  0
 68 66  1  0
 69 78  2  0
 69 74  1  0
 70 66  1  0
 70 74  1  0
 71 70  1  0
 72 73  1  0
 72 71  1  0
 73 69  1  0
 74 75  2  0
 75 76  1  0
 77 76  2  0
 78 77  1  0
 79 53  1  0
 79 84  1  0
 79 80  1  0
 80 83  1  1
 80 81  1  0
 82 80  1  0
 84 87  1  0
 85 89  1  0
 85 84  1  0
 86 85  2  0
 89 88  1  0
 91 89  1  0
 91 92  1  0
 91 90  1  0
 93  5  1  0
 94 95  1  0
 94 93  1  0
 96 94  1  0
 97 94  1  0
M  ISO  4   8 100  19 100  51 101  52 101
M  END
>  <TORSDO>  (28) 
F 20

>  <SCORE>  (28) 
-15.999

>  <name>  (28) 
27

>  <ligand_id>  (28) 
27

>  <original_smiles>  (28) 
[H]c1c([H])c([H])c2c(c1[H])C([H])([H])C([H])([H])C([H])([H])C2([H])N([H])C(=O)C1([H])N(C(=O)C([H])(N([H])C(=O)C([H])(N([H])C([H])([H])[H])C([H])([H])[H])C(C([H])([H])[H])(C([H])([H])[H])C([H])([H])[H])C([H])([H])c2c([H])c(OC([H])([H])c3c(C([H])([H])[N+]([H])([H])[H])nc(C4([H])C([H])([H])C4([H])[H])c(C4([H])N(C(=O)N5C([H])([H])C([H])([H])C([H])([H])C([H])(n6nc(-c7c([H])c([H])c(Oc8c([H])c([H])c(F)c([H])c8F)c([H])c7[H])c(C(=O)N([H])[H])c6N([H])[H])C5([H])[H])C([H])([H])C4([H])[H])c3C([H])([H])[H])c([H])c([H])c2C1([H])[H]

>  <smiles>  (28) 
[H]c1c([H])c([H])c2c(c1[H])C([H])([H])C([H])([H])C([H])([H])C2([H])N([H])C(=O)C1([H])N(C(=O)C([H])(N([H])C(=O)C([H])(N([H])C([H])([H])[H])C([H])([H])[H])C(C([H])([H])[H])(C([H])([H])[H])C([H])([H])[H])C([H])([H])c2c([H])c(OC([H])([H])c3c(C([H])([H])[N+]([H])([H])[H])nc(C4([H])C([H])([H])C4([H])[H])c(C4([H])N(C(=O)N5C([H])([H])C([H])([H])C([H])([H])C([H])(n6nc(-c7c([H])c([H])c(Oc8c([H])c([H])c(F)c([H])c8F)c([H])c7[H])c(C(=O)N([H])[H])c6N([H])[H])C5([H])[H])C([H])([H])C4([H])[H])c3C([H])([H])[H])c([H])c([H])c2C1([H])[H]

$$$$
28:0:0
     RDKit          3D

 91100  0  0  1  0  0  0  0  0999 V2000
  -28.1360  -22.0370   21.2330 C   0  0  0  0  0  0  0  0  0  0  0  0
  -27.8980  -23.5400   19.3860 C   0  0  0  0  0  2  0  0  0  0  0  0
  -27.1190  -22.9730   20.5830 C   0  0  0  0  0  3  0  0  0  0  0  0
  -29.3290  -23.5940   19.9280 C   0  0  0  0  0  3  0  0  0  0  0  0
  -25.7940  -22.2970   20.1980 C   0  0  0  0  0  1  0  0  0  0  0  0
  -29.3360  -22.1080   20.6260 N   0  0  0  0  0  0  0  0  0  0  0  0
  -27.8130  -21.2330   22.1100 O   0  0  0  0  0  0  0  0  0  0  0  0
  -31.1230  -15.7340   20.4850 C   0  0  0  0  0  0  0  0  0  0  0  0
  -30.9840  -13.3030   19.6670 C   0  0  0  0  0  2  0  0  0  0  0  0
  -30.1350  -13.1030   18.3890 C   0  0  0  0  0  2  0  0  0  0  0  0
  -28.6540  -12.9130   18.7500 C   0  0  0  0  0  2  0  0  0  0  0  0
  -28.1750  -13.9250   19.8210 C   0  0  0  0  0  3  0  0  0  0  0  0
  -29.1610  -14.0880   20.9990 C   0  0  0  0  0  2  0  0  0  0  0  0
  -30.4470  -14.4930   20.4150 N   0  0  0  0  0  0  0  0  0  0  0  0
  -32.3520  -15.6190   20.3670 O   0  0  0  0  0  0  0  0  0  0  0  0
  -28.9570  -19.3480   19.9800 C   0  0  0  0  0  2  0  0  0  0  0  0
  -30.8340  -19.7850   21.2820 C   0  0  0  0  0  2  0  0  0  0  0  0
  -29.4640  -17.7720   19.7570 C   0  0  0  0  0  2  0  0  0  0  0  0
  -31.4330  -18.3060   20.8880 C   0  0  0  0  0  2  0  0  0  0  0  0
  -29.9380  -20.6200   20.2350 C   0  0  0  0  0  3  0  0  0  0  0  0
  -30.5480  -17.0890   20.5950 N   0  0  0  0  0  0  0  0  0  0  0  0
  -25.7950  -14.5600   20.4690 C   0  0  0  0  0  0  0  0  0  0  0  0
  -24.6890  -13.8200   20.7630 C   0  0  0  0  0  0  0  0  0  0  0  0
  -25.1030  -12.4530   20.7320 C   0  0  0  0  0  0  0  0  0  0  0  0
  -26.8160  -13.6510   20.2620 N   0  0  0  0  0  0  0  0  0  0  0  0
  -26.4090  -12.3750   20.4900 N   0  0  0  0  0  0  0  0  0  0  0  0
  -24.3180  -11.2190   20.8620 C   0  0  0  0  0  0  0  0  0  0  0  0
  -24.6460  -10.2310   21.8170 C   0  0  0  0  0  3  0  0  0  0  0  0
  -23.8630   -9.0620   21.9340 C   0  0  0  0  0  3  0  0  0  0  0  0
  -22.7360   -8.8750   21.0980 C   0  0  0  0  0  0  0  0  0  0  0  0
  -22.4290   -9.8490   20.1320 C   0  0  0  0  0  3  0  0  0  0  0  0
  -23.2110  -11.0090   20.0140 C   0  0  0  0  0  3  0  0  0  0  0  0
  -21.9310   -7.7620   21.1280 O   0  0  0  0  0  0  0  0  0  0  0  0
  -21.7380   -7.0410   22.2800 C   0  0  0  0  0  0  0  0  0  0  0  0
  -21.2060   -7.6310   23.4470 C   0  0  0  0  0  3  0  0  0  0  0  0
  -20.9610   -6.8390   24.5870 C   0  0  0  0  0  3  0  0  0  0  0  0
  -21.2350   -5.4590   24.5580 C   0  0  0  0  0  0  0  0  0  0  0  0
  -21.7610   -4.8680   23.3950 C   0  0  0  0  0  3  0  0  0  0  0  0
  -22.0070   -5.6580   22.2580 C   0  0  0  0  0  0  0  0  0  0  0  0
  -22.4940   -5.0810   21.1330 F   0  0  0  0  0  0  0  0  0  0  0  0
  -20.9880   -4.6960   25.6500 F   0  0  0  0  0  0  0  0  0  0  0  0
  -23.2990  -14.3470   20.9700 C   0  0  0  0  0  0  0  0  0  0  0  0
  -22.5050  -13.6800   21.7980 N   0  0  0  0  0  0  0  0  0  0  0  0
  -22.9290  -15.3930   20.4320 O   0  0  0  0  0  0  0  0  0  0  0  0
  -22.8130  -12.8360   22.2600 H   0  0  0  0  0  0  0  0  0  0  0  0
  -21.5690  -14.0200   21.9740 H   0  0  0  0  0  0  0  0  0  0  0  0
  -26.0150  -15.9260   20.3300 N   0  0  0  0  0  0  0  0  0  0  0  0
  -25.2740  -16.6060   20.4710 H   0  0  0  0  0  0  0  0  0  0  0  0
  -26.8980  -16.3500   20.0800 H   0  0  0  0  0  0  0  0  0  0  0  0
  -29.3450  -25.1760   20.7070 C   0  0  0  0  0  2  0  0  0  0  0  0
  -29.2120  -26.7130   20.2460 O   0  0  0  0  0  0  0  0  0  0  0  0
  -24.8830  -31.9390   23.3920 C   0  0  0  0  0  0  0  0  0  0  0  0
  -28.0550  -27.6110   20.2780 C   0  0  0  0  0  0  0  0  0  0  0  0
  -23.9260  -30.5720   21.5790 C   0  0  0  0  0  3  0  0  0  0  0  0
  -25.5980  -29.2160   20.1680 C   0  0  0  0  0  0  0  0  0  0  0  0
  -26.4560  -31.0480   21.6160 C   0  0  0  0  0  2  0  0  0  0  0  0
  -26.6970  -29.7040   20.8890 C   0  0  0  0  0  0  0  0  0  0  0  0
  -27.9250  -28.9250   20.9160 C   0  0  0  0  0  3  0  0  0  0  0  0
  -26.9260  -27.2470   19.5160 C   0  0  0  0  0  3  0  0  0  0  0  0
  -25.7320  -28.0070   19.4610 C   0  0  0  0  0  3  0  0  0  0  0  0
  -24.3010  -30.0140   20.1790 C   0  0  0  0  0  2  0  0  0  0  0  0
  -25.1040  -31.2100   22.2530 N   0  0  0  0  0  0  0  0  0  0  0  0
  -23.7440  -32.0890   23.8600 O   0  0  0  0  0  0  0  0  0  0  0  0
  -23.2730  -29.4450   22.4240 C   0  0  0  0  0  0  0  0  0  0  0  0
  -21.9670  -29.1920   22.2170 N   0  0  0  0  0  0  0  0  0  0  0  0
  -23.9490  -28.8050   23.2330 O   0  0  0  0  0  0  0  0  0  0  0  0
  -21.4730  -29.7660   21.5470 H   0  0  0  0  0  0  0  0  0  0  0  0
  -18.6510  -27.7590   22.5090 C   0  0  0  0  0  0  0  0  0  0  0  0
  -21.1840  -28.1370   22.8710 C   0  0  0  0  0  3  0  0  0  0  0  0
  -21.3820  -26.7790   22.1570 C   0  0  0  0  0  2  0  0  0  0  0  0
  -20.3200  -26.5000   21.0860 C   0  0  0  0  0  2  0  0  0  0  0  0
  -18.9210  -26.4980   21.7050 C   0  0  0  0  0  2  0  0  0  0  0  0
  -19.7140  -28.5370   23.0430 C   0  0  0  0  0  0  0  0  0  0  0  0
  -19.4050  -29.7170   23.7530 C   0  0  0  0  0  3  0  0  0  0  0  0
  -18.0680  -30.1220   23.9350 C   0  0  0  0  0  3  0  0  0  0  0  0
  -17.0220  -29.3410   23.4170 C   0  0  0  0  0  3  0  0  0  0  0  0
  -17.3140  -28.1620   22.7090 C   0  0  0  0  0  3  0  0  0  0  0  0
  -26.0500  -32.6400   24.1500 C   0  0  0  0  0  3  0  0  0  0  0  0
  -25.6370  -34.0250   24.4350 N   0  0  0  0  0  0  0  0  0  0  0  0
  -25.9800  -35.0940   23.7050 C   0  0  0  0  0  0  0  0  0  0  0  0
  -26.7420  -35.0250   22.7370 O   0  0  0  0  0  0  0  0  0  0  0  0
  -24.9710  -34.1470   25.1830 H   0  0  0  0  0  0  0  0  0  0  0  0
  -24.1940  -36.7970   23.2020 C   0  0  0  0  0  1  0  0  0  0  0  0
  -25.3880  -36.4620   24.1100 C   0  0  0  0  0  3  0  0  0  0  0  0
  -27.4030  -37.4670   25.0910 C   0  0  0  0  0  1  0  0  0  0  0  0
  -26.3700  -37.5680   24.0630 N   0  0  0  0  0  0  0  0  0  0  0  0
  -25.9040  -38.4670   24.1670 H   0  0  0  0  0  0  0  0  0  0  0  0
  -26.4470  -31.9030   25.4870 C   0  0  1  0  0  0  0  0  0  0  0  0
  -25.2470  -31.6000   26.4160 C   0  0  0  0  0  1  0  0  0  0  0  0
  -27.1510  -30.5590   25.1850 C   0  0  0  0  0  1  0  0  0  0  0  0
  -27.4560  -32.7650   26.2790 C   0  0  0  0  0  1  0  0  0  0  0  0
  1  7  2  0
  2  4  1  0
  2  3  1  0
  3  5  1  0
  3  1  1  0
  4  6  1  0
  4 50  1  0
  6  1  1  0
  8 21  1  0
  9 14  1  0
 10 11  1  0
 10  9  1  0
 12 11  1  0
 12 25  1  0
 12 13  1  0
 14  8  1  0
 14 13  1  0
 15  8  2  0
 18 16  1  0
 18 21  1  0
 19 17  1  0
 20 16  1  0
 20  6  1  0
 20 17  1  0
 21 19  1  0
 22 23  2  0
 23 42  1  0
 24 23  1  0
 24 27  1  0
 25 22  1  0
 25 26  1  0
 26 24  2  0
 27 28  1  0
 28 29  2  0
 30 33  1  0
 30 29  1  0
 31 30  2  0
 32 31  1  0
 32 27  2  0
 33 34  1  0
 34 35  1  0
 35 36  2  0
 37 36  1  0
 37 41  1  0
 38 37  2  0
 39 34  2  0
 39 38  1  0
 40 39  1  0
 42 43  1  0
 43 46  1  0
 43 45  1  0
 44 42  2  0
 47 22  1  0
 47 48  1  0
 49 47  1  0
 51 53  1  0
 51 50  1  0
 52 63  2  0
 53 58  1  0
 54 62  1  0
 54 64  1  0
 55 61  1  0
 55 57  1  0
 56 62  1  0
 57 58  2  0
 57 56  1  0
 59 53  2  0
 60 59  1  0
 60 55  2  0
 61 54  1  0
 62 52  1  0
 64 66  2  0
 65 64  1  0
 67 65  1  0
 68 77  2  0
 68 73  1  0
 69 65  1  0
 69 73  1  0
 70 69  1  0
 71 72  1  0
 71 70  1  0
 72 68  1  0
 73 74  2  0
 74 75  1  0
 76 75  2  0
 77 76  1  0
 78 52  1  0
 78 79  1  0
 78 88  1  0
 79 82  1  0
 80 84  1  0
 80 79  1  0
 81 80  2  0
 84 83  1  0
 86 84  1  0
 86 87  1  0
 86 85  1  0
 88 91  1  1
 88 89  1  0
 90 88  1  0
M  ISO  4   8 100  21 100  50 101  51 101
M  END
>  <TORSDO>  (29) 
F 17

>  <SCORE>  (29) 
-12.723

>  <name>  (29) 
28

>  <ligand_id>  (29) 
28

>  <original_smiles>  (29) 
[H]c1c([H])c([H])c2c(c1[H])C([H])([H])C([H])([H])C([H])([H])C2([H])N([H])C(=O)C1([H])N(C(=O)C([H])(N([H])C(=O)C([H])(N([H])C([H])([H])[H])C([H])([H])[H])C(C([H])([H])[H])(C([H])([H])[H])C([H])([H])[H])C([H])([H])c2c([H])c(OC([H])([H])C3([H])N(C4([H])C([H])([H])C([H])([H])N(C(=O)N5C([H])([H])C([H])([H])C([H])([H])C([H])(n6nc(-c7c([H])c([H])c(Oc8c([H])c([H])c(F)c([H])c8F)c([H])c7[H])c(C(=O)N([H])[H])c6N([H])[H])C5([H])[H])C([H])([H])C4([H])[H])C(=O)C([H])(C([H])([H])[H])C3([H])[H])c([H])c([H])c2C1([H])[H]

>  <smiles>  (29) 
[H]c1c([H])c([H])c2c(c1[H])C([H])([H])C([H])([H])C([H])([H])C2([H])N([H])C(=O)C1([H])N(C(=O)C([H])(N([H])C(=O)C([H])(N([H])C([H])([H])[H])C([H])([H])[H])C(C([H])([H])[H])(C([H])([H])[H])C([H])([H])[H])C([H])([H])c2c([H])c(OC([H])([H])C3([H])N(C4([H])C([H])([H])C([H])([H])N(C(=O)N5C([H])([H])C([H])([H])C([H])([H])C([H])(n6nc(-c7c([H])c([H])c(Oc8c([H])c([H])c(F)c([H])c8F)c([H])c7[H])c(C(=O)N([H])[H])c6N([H])[H])C5([H])[H])C([H])([H])C4([H])[H])C(=O)C([H])(C([H])([H])[H])C3([H])[H])c([H])c([H])c2C1([H])[H]

$$$$
29:0:0
     RDKit          3D

 96104  0  0  1  0  0  0  0  0999 V2000
  -28.1450  -20.3970   18.9290 C   0  0  0  0  0  2  0  0  0  0  0  0
  -29.3890  -21.2110   19.4070 C   0  0  0  0  0  3  0  0  0  0  0  0
  -29.8230  -18.3130   19.3280 C   0  0  0  0  0  3  0  0  0  0  0  0
  -28.4230  -18.8050   18.7800 C   0  0  0  0  0  3  0  0  0  0  0  0
  -30.0840  -19.8020   20.1370 C   0  0  2  0  0  0  0  0  0  0  0  0
  -29.5350  -19.6650   21.5740 C   0  0  0  0  0  1  0  0  0  0  0  0
  -31.6070  -19.9880   20.2350 C   0  0  0  0  0  1  0  0  0  0  0  0
  -30.6580  -15.4750   19.6730 C   0  0  0  0  0  0  0  0  0  0  0  0
  -30.6510  -12.9900   18.9290 C   0  0  0  0  0  2  0  0  0  0  0  0
  -29.6630  -12.7240   17.7640 C   0  0  0  0  0  2  0  0  0  0  0  0
  -28.2490  -12.4440   18.3010 C   0  0  0  0  0  2  0  0  0  0  0  0
  -27.8490  -13.4390   19.4180 C   0  0  0  0  0  3  0  0  0  0  0  0
  -28.9600  -13.6490   20.4710 C   0  0  0  0  0  2  0  0  0  0  0  0
  -30.1410  -14.1500   19.7510 N   0  0  0  0  0  0  0  0  0  0  0  0
  -31.8330  -15.5100   19.2820 O   0  0  0  0  0  0  0  0  0  0  0  0
  -29.8580  -16.7140   19.8340 N   0  0  0  0  0  0  0  0  0  0  0  0
  -28.9800  -16.4730   20.2700 H   0  0  0  0  0  0  0  0  0  0  0  0
  -25.5550  -13.9880   20.3870 C   0  0  0  0  0  0  0  0  0  0  0  0
  -24.5180  -13.2060   20.8110 C   0  0  0  0  0  0  0  0  0  0  0  0
  -24.9630  -11.8540   20.6850 C   0  0  0  0  0  0  0  0  0  0  0  0
  -26.5630  -13.1150   20.0200 N   0  0  0  0  0  0  0  0  0  0  0  0
  -26.2240  -11.8210   20.2660 N   0  0  0  0  0  0  0  0  0  0  0  0
  -24.2380  -10.5920   20.8820 C   0  0  0  0  0  0  0  0  0  0  0  0
  -24.6740   -9.6250   21.8130 C   0  0  0  0  0  3  0  0  0  0  0  0
  -23.9460   -8.4310   21.9990 C   0  0  0  0  0  3  0  0  0  0  0  0
  -22.7660   -8.1940   21.2540 C   0  0  0  0  0  0  0  0  0  0  0  0
  -22.3480   -9.1510   20.3120 C   0  0  0  0  0  3  0  0  0  0  0  0
  -23.0780  -10.3370   20.1230 C   0  0  0  0  0  3  0  0  0  0  0  0
  -22.0090   -7.0520   21.3490 O   0  0  0  0  0  0  0  0  0  0  0  0
  -21.8760   -6.3740   22.5350 C   0  0  0  0  0  0  0  0  0  0  0  0
  -21.2720   -6.9630   23.6660 C   0  0  0  0  0  3  0  0  0  0  0  0
  -21.0920   -6.2070   24.8420 C   0  0  0  0  0  3  0  0  0  0  0  0
  -21.5060   -4.8630   24.8860 C   0  0  0  0  0  0  0  0  0  0  0  0
  -22.1030   -4.2730   23.7580 C   0  0  0  0  0  3  0  0  0  0  0  0
  -22.2840   -5.0250   22.5840 C   0  0  0  0  0  0  0  0  0  0  0  0
  -22.8400   -4.4460   21.4940 F   0  0  0  0  0  0  0  0  0  0  0  0
  -21.3270   -4.1340   26.0130 F   0  0  0  0  0  0  0  0  0  0  0  0
  -23.1560  -13.6860   21.2140 C   0  0  0  0  0  0  0  0  0  0  0  0
  -22.4990  -12.9750   22.1240 N   0  0  0  0  0  0  0  0  0  0  0  0
  -22.6850  -14.7280   20.7580 O   0  0  0  0  0  0  0  0  0  0  0  0
  -22.8960  -12.1320   22.5120 H   0  0  0  0  0  0  0  0  0  0  0  0
  -21.5890  -13.2780   22.4370 H   0  0  0  0  0  0  0  0  0  0  0  0
  -25.7190  -15.3630   20.2530 N   0  0  0  0  0  0  0  0  0  0  0  0
  -24.9650  -16.0120   20.4520 H   0  0  0  0  0  0  0  0  0  0  0  0
  -26.5280  -15.8090   19.8430 H   0  0  0  0  0  0  0  0  0  0  0  0
  -28.1870  -18.3190   17.4100 N   0  0  0  0  0  4  0  0  0  0  0  0
  -28.8210  -18.7480   16.7590 H   0  0  0  0  0  0  0  0  0  0  0  0
  -27.2470  -18.5220   17.1190 H   0  0  0  0  0  0  0  0  0  0  0  0
  -28.3160  -17.3250   17.3660 H   0  0  0  0  0  0  0  0  0  0  0  0
  -29.2690  -22.9420   19.9690 C   0  0  0  0  0  3  0  0  0  0  0  0
  -30.6650  -23.3820   20.1640 N   0  0  0  0  0  4  0  0  0  0  0  0
  -31.1320  -23.5020   19.2810 H   0  0  0  0  0  0  0  0  0  0  0  0
  -31.1830  -22.7220   20.7160 H   0  0  0  0  0  0  0  0  0  0  0  0
  -30.6860  -24.2680   20.6420 H   0  0  0  0  0  0  0  0  0  0  0  0
  -28.4250  -24.4440   19.4210 C   0  0  0  0  0  2  0  0  0  0  0  0
  -28.4420  -26.0310   19.8940 O   0  0  0  0  0  0  0  0  0  0  0  0
  -24.6060  -31.7190   23.0180 C   0  0  0  0  0  0  0  0  0  0  0  0
  -27.3880  -27.0870   19.8190 C   0  0  0  0  0  0  0  0  0  0  0  0
  -23.4880  -30.3550   21.3020 C   0  0  0  0  0  3  0  0  0  0  0  0
  -25.0150  -28.8760   19.8220 C   0  0  0  0  0  0  0  0  0  0  0  0
  -26.0440  -30.6710   21.2010 C   0  0  0  0  0  2  0  0  0  0  0  0
  -26.1760  -29.2960   20.4820 C   0  0  0  0  0  0  0  0  0  0  0  0
  -27.3530  -28.4220   20.4600 C   0  0  0  0  0  3  0  0  0  0  0  0
  -26.1960  -26.8250   19.1060 C   0  0  0  0  0  3  0  0  0  0  0  0
  -25.0500  -27.6630   19.1150 C   0  0  0  0  0  3  0  0  0  0  0  0
  -23.7600  -29.7470   19.8980 C   0  0  0  0  0  2  0  0  0  0  0  0
  -24.7320  -30.9420   21.8960 N   0  0  0  0  0  0  0  0  0  0  0  0
  -23.5000  -31.9430   23.5370 O   0  0  0  0  0  0  0  0  0  0  0  0
  -22.8220  -29.2900   22.2120 C   0  0  0  0  0  0  0  0  0  0  0  0
  -21.4920  -29.1190   22.0980 N   0  0  0  0  0  0  0  0  0  0  0  0
  -23.5090  -28.6200   22.9870 O   0  0  0  0  0  0  0  0  0  0  0  0
  -20.9910  -29.7130   21.4530 H   0  0  0  0  0  0  0  0  0  0  0  0
  -18.1230  -27.8780   22.6260 C   0  0  0  0  0  0  0  0  0  0  0  0
  -20.6920  -28.1220   22.8190 C   0  0  0  0  0  3  0  0  0  0  0  0
  -20.7690  -26.7420   22.1270 C   0  0  0  0  0  2  0  0  0  0  0  0
  -19.6310  -26.5020   21.1310 C   0  0  0  0  0  2  0  0  0  0  0  0
  -18.2730  -26.5920   21.8330 C   0  0  0  0  0  2  0  0  0  0  0  0
  -19.2580  -28.6050   23.0750 C   0  0  0  0  0  0  0  0  0  0  0  0
  -19.0620  -29.8110   23.7830 C   0  0  0  0  0  3  0  0  0  0  0  0
  -17.7640  -30.2910   24.0430 C   0  0  0  0  0  3  0  0  0  0  0  0
  -16.6450  -29.5610   23.6070 C   0  0  0  0  0  3  0  0  0  0  0  0
  -16.8250  -28.3570   22.9050 C   0  0  0  0  0  3  0  0  0  0  0  0
  -25.8440  -32.3800   23.6980 C   0  0  0  0  0  3  0  0  0  0  0  0
  -26.3290  -31.6060   24.9860 C   0  0  1  0  0  0  0  0  0  0  0  0
  -25.2040  -31.3320   26.0110 C   0  0  0  0  0  1  0  0  0  0  0  0
  -26.9600  -30.2460   24.6100 C   0  0  0  0  0  1  0  0  0  0  0  0
  -27.4360  -32.4190   25.7000 C   0  0  0  0  0  1  0  0  0  0  0  0
  -25.4850  -33.7670   24.0450 N   0  0  0  0  0  0  0  0  0  0  0  0
  -25.7740  -34.8450   23.3040 C   0  0  0  0  0  0  0  0  0  0  0  0
  -26.4340  -34.7780   22.2640 O   0  0  0  0  0  0  0  0  0  0  0  0
  -24.8930  -33.8880   24.8540 H   0  0  0  0  0  0  0  0  0  0  0  0
  -23.9790  -36.5870   23.0140 C   0  0  0  0  0  1  0  0  0  0  0  0
  -25.2510  -36.2120   23.7900 C   0  0  0  0  0  3  0  0  0  0  0  0
  -27.3580  -37.1790   24.6040 C   0  0  0  0  0  1  0  0  0  0  0  0
  -26.2450  -37.3020   23.6660 N   0  0  0  0  0  0  0  0  0  0  0  0
  -25.8060  -38.2080   23.8130 H   0  0  0  0  0  0  0  0  0  0  0  0
  1  2  1  0
  2 50  1  0
  2  5  1  0
  3 16  1  0
  3  5  1  0
  4 46  1  0
  4  1  1  0
  4  3  1  0
  5  7  1  1
  5  6  1  0
  8 14  1  0
  8 16  1  0
  9 14  1  0
 10 11  1  0
 10  9  1  0
 12 11  1  0
 12 21  1  0
 12 13  1  0
 14 13  1  0
 15  8  2  0
 16 17  1  0
 18 19  2  0
 19 38  1  0
 20 19  1  0
 20 23  1  0
 21 22  1  0
 21 18  1  0
 22 20  2  0
 23 24  1  0
 24 25  2  0
 26 29  1  0
 26 25  1  0
 27 26  2  0
 28 27  1  0
 28 23  2  0
 29 30  1  0
 30 35  2  0
 30 31  1  0
 31 32  2  0
 32 33  1  0
 33 37  1  0
 34 33  2  0
 35 34  1  0
 36 35  1  0
 38 39  1  0
 39 42  1  0
 39 41  1  0
 40 38  2  0
 43 18  1  0
 43 44  1  0
 45 43  1  0
 47 46  1  0
 48 46  1  0
 49 46  1  0
 50 55  1  0
 50 51  1  0
 51 54  1  0
 51 53  1  0
 52 51  1  0
 55 56  1  0
 57 68  2  0
 58 56  1  0
 58 63  1  0
 59 67  1  0
 59 69  1  0
 60 66  1  0
 60 62  1  0
 61 67  1  0
 62 61  1  0
 63 62  2  0
 64 65  1  0
 64 58  2  0
 65 60  2  0
 66 59  1  0
 67 57  1  0
 69 71  2  0
 70 69  1  0
 72 70  1  0
 73 82  2  0
 73 78  1  0
 74 70  1  0
 74 78  1  0
 75 74  1  0
 76 77  1  0
 76 75  1  0
 77 73  1  0
 78 79  2  0
 79 80  1  0
 81 80  2  0
 82 81  1  0
 83 57  1  0
 83 88  1  0
 83 84  1  0
 84 87  1  1
 84 85  1  0
 86 84  1  0
 88 91  1  0
 89 93  1  0
 89 88  1  0
 90 89  2  0
 93 92  1  0
 95 93  1  0
 95 96  1  0
 95 94  1  0
M  ISO  4   8 100  16 100  55 101  56 101
M  END
>  <TORSDO>  (30) 
F 20

>  <SCORE>  (30) 
-15.645

>  <name>  (30) 
29

>  <ligand_id>  (30) 
29

>  <original_smiles>  (30) 
[H]c1c([H])c([H])c2c(c1[H])C([H])([H])C([H])([H])C([H])([H])C2([H])N([H])C(=O)C1([H])N(C(=O)C([H])(N([H])C(=O)C([H])(N([H])C([H])([H])[H])C([H])([H])[H])C(C([H])([H])[H])(C([H])([H])[H])C([H])([H])[H])C([H])([H])c2c([H])c(OC([H])([H])C([H])(C3([H])C([H])([H])C([H])([N+]([H])([H])[H])C([H])(N([H])C(=O)N4C([H])([H])C([H])([H])C([H])([H])C([H])(n5nc(-c6c([H])c([H])c(Oc7c([H])c([H])c(F)c([H])c7F)c([H])c6[H])c(C(=O)N([H])[H])c5N([H])[H])C4([H])[H])C3(C([H])([H])[H])C([H])([H])[H])[N+]([H])([H])[H])c([H])c([H])c2C1([H])[H]

>  <smiles>  (30) 
[H]c1c([H])c([H])c2c(c1[H])C([H])([H])C([H])([H])C([H])([H])C2([H])N([H])C(=O)C1([H])N(C(=O)C([H])(N([H])C(=O)C([H])(N([H])C([H])([H])[H])C([H])([H])[H])C(C([H])([H])[H])(C([H])([H])[H])C([H])([H])[H])C([H])([H])c2c([H])c(OC([H])([H])C([H])(C3([H])C([H])([H])C([H])([N+]([H])([H])[H])C([H])(N([H])C(=O)N4C([H])([H])C([H])([H])C([H])([H])C([H])(n5nc(-c6c([H])c([H])c(Oc7c([H])c([H])c(F)c([H])c7F)c([H])c6[H])c(C(=O)N([H])[H])c5N([H])[H])C4([H])[H])C3(C([H])([H])[H])C([H])([H])[H])[N+]([H])([H])[H])c([H])c([H])c2C1([H])[H]

$$$$
30:0:0
     RDKit          3D

 88 97  0  0  1  0  0  0  0  0999 V2000
  -30.4010  -15.2550   20.3770 C   0  0  0  0  0  0  0  0  0  0  0  0
  -30.4140  -12.8270   19.4790 C   0  0  0  0  0  2  0  0  0  0  0  0
  -29.5000  -12.6510   18.2400 C   0  0  0  0  0  2  0  0  0  0  0  0
  -28.0440  -12.3830   18.6630 C   0  0  0  0  0  2  0  0  0  0  0  0
  -27.5850  -13.3290   19.8000 C   0  0  0  0  0  3  0  0  0  0  0  0
  -28.6240  -13.4410   20.9350 C   0  0  0  0  0  2  0  0  0  0  0  0
  -29.8640  -13.9430   20.3240 N   0  0  0  0  0  0  0  0  0  0  0  0
  -31.6210  -15.3040   20.1590 O   0  0  0  0  0  0  0  0  0  0  0  0
  -30.3480  -20.4090   20.5560 C   0  0  0  0  0  3  0  0  0  0  0  0
  -28.2840  -18.8140   20.2420 C   0  0  0  0  0  3  0  0  0  0  0  0
  -29.1050  -21.1620   20.3680 C   0  0  0  0  0  0  0  0  0  0  0  0
  -29.5280  -18.0540   20.4230 C   0  0  0  0  0  0  0  0  0  0  0  0
  -28.0830  -20.2280   20.1990 N   0  0  0  0  0  0  0  0  0  0  0  0
  -30.5480  -18.9940   20.5770 N   0  0  0  0  0  0  0  0  0  0  0  0
  -29.5460  -16.4480   20.4610 N   0  0  0  0  0  0  0  0  0  0  0  0
  -28.5990  -16.1120   20.5390 H   0  0  0  0  0  0  0  0  0  0  0  0
  -25.1980  -13.8760   20.5190 C   0  0  0  0  0  0  0  0  0  0  0  0
  -24.1390  -13.0930   20.8810 C   0  0  0  0  0  0  0  0  0  0  0  0
  -24.6170  -11.7460   20.8600 C   0  0  0  0  0  0  0  0  0  0  0  0
  -26.2510  -13.0090   20.2910 N   0  0  0  0  0  0  0  0  0  0  0  0
  -25.9120  -11.7220   20.5640 N   0  0  0  0  0  0  0  0  0  0  0  0
  -23.8980  -10.4790   21.0430 C   0  0  0  0  0  0  0  0  0  0  0  0
  -24.3210   -9.5180   21.9880 C   0  0  0  0  0  3  0  0  0  0  0  0
  -23.6000   -8.3170   22.1610 C   0  0  0  0  0  3  0  0  0  0  0  0
  -22.4400   -8.0680   21.3880 C   0  0  0  0  0  0  0  0  0  0  0  0
  -22.0360   -9.0160   20.4330 C   0  0  0  0  0  3  0  0  0  0  0  0
  -22.7590  -10.2090   20.2590 C   0  0  0  0  0  3  0  0  0  0  0  0
  -21.6920   -6.9180   21.4690 O   0  0  0  0  0  0  0  0  0  0  0  0
  -21.6210   -6.1870   22.6270 C   0  0  0  0  0  0  0  0  0  0  0  0
  -21.1580   -6.7490   23.8370 C   0  0  0  0  0  3  0  0  0  0  0  0
  -21.0350   -5.9420   24.9860 C   0  0  0  0  0  3  0  0  0  0  0  0
  -21.3640   -4.5740   24.9260 C   0  0  0  0  0  0  0  0  0  0  0  0
  -21.8200   -4.0130   23.7220 C   0  0  0  0  0  3  0  0  0  0  0  0
  -21.9450   -4.8150   22.5740 C   0  0  0  0  0  0  0  0  0  0  0  0
  -22.3640   -4.2640   21.4100 F   0  0  0  0  0  0  0  0  0  0  0  0
  -21.2400   -3.7980   26.0280 F   0  0  0  0  0  0  0  0  0  0  0  0
  -22.7340  -13.5590   21.1270 C   0  0  0  0  0  0  0  0  0  0  0  0
  -21.9990  -12.8640   21.9880 N   0  0  0  0  0  0  0  0  0  0  0  0
  -22.2960  -14.5760   20.5900 O   0  0  0  0  0  0  0  0  0  0  0  0
  -22.3670  -12.0410   22.4430 H   0  0  0  0  0  0  0  0  0  0  0  0
  -21.0560  -13.1580   22.1960 H   0  0  0  0  0  0  0  0  0  0  0  0
  -25.3470  -15.2480   20.3330 N   0  0  0  0  0  0  0  0  0  0  0  0
  -24.5540  -15.8780   20.4070 H   0  0  0  0  0  0  0  0  0  0  0  0
  -26.1520  -15.6790   19.9030 H   0  0  0  0  0  0  0  0  0  0  0  0
  -28.9780  -23.7500   21.4080 C   0  0  0  0  0  2  0  0  0  0  0  0
  -28.9800  -22.8980   20.1530 C   0  0  0  0  0  3  0  0  0  0  0  0
  -27.9970  -24.3410   20.4290 C   0  0  0  0  0  3  0  0  0  0  0  0
  -28.2300  -25.9620   20.3730 O   0  0  0  0  0  0  0  0  0  0  0  0
  -24.6470  -31.9120   23.2690 C   0  0  0  0  0  0  0  0  0  0  0  0
  -27.2010  -27.0250   20.3210 C   0  0  0  0  0  0  0  0  0  0  0  0
  -23.4540  -30.5070   21.6350 C   0  0  0  0  0  3  0  0  0  0  0  0
  -24.9030  -28.8840   20.2410 C   0  0  0  0  0  0  0  0  0  0  0  0
  -26.0190  -30.7150   21.4990 C   0  0  0  0  0  2  0  0  0  0  0  0
  -26.0870  -29.3020   20.8600 C   0  0  0  0  0  0  0  0  0  0  0  0
  -27.2340  -28.3940   20.8710 C   0  0  0  0  0  3  0  0  0  0  0  0
  -25.9860  -26.7440   19.6600 C   0  0  0  0  0  3  0  0  0  0  0  0
  -24.8740  -27.6240   19.6210 C   0  0  0  0  0  3  0  0  0  0  0  0
  -23.6880  -29.8080   20.2680 C   0  0  0  0  0  2  0  0  0  0  0  0
  -24.7280  -31.0710   22.1880 N   0  0  0  0  0  0  0  0  0  0  0  0
  -23.5560  -32.2110   23.7820 O   0  0  0  0  0  0  0  0  0  0  0  0
  -22.7500  -29.5230   22.6050 C   0  0  0  0  0  0  0  0  0  0  0  0
  -21.4200  -29.3660   22.4720 N   0  0  0  0  0  0  0  0  0  0  0  0
  -23.4060  -28.9020   23.4440 O   0  0  0  0  0  0  0  0  0  0  0  0
  -20.9450  -29.9170   21.7720 H   0  0  0  0  0  0  0  0  0  0  0  0
  -18.0270  -28.1800   22.9620 C   0  0  0  0  0  0  0  0  0  0  0  0
  -20.5860  -28.4410   23.2470 C   0  0  0  0  0  3  0  0  0  0  0  0
  -20.6870  -27.0010   22.6900 C   0  0  0  0  0  2  0  0  0  0  0  0
  -19.5930  -26.6710   21.6690 C   0  0  0  0  0  2  0  0  0  0  0  0
  -18.2060  -26.8240   22.3010 C   0  0  0  0  0  2  0  0  0  0  0  0
  -19.1440  -28.9460   23.3920 C   0  0  0  0  0  0  0  0  0  0  0  0
  -18.9210  -30.2120   23.9750 C   0  0  0  0  0  3  0  0  0  0  0  0
  -17.6140  -30.7150   24.1300 C   0  0  0  0  0  3  0  0  0  0  0  0
  -16.5130  -29.9470   23.7130 C   0  0  0  0  0  3  0  0  0  0  0  0
  -16.7200  -28.6820   23.1360 C   0  0  0  0  0  3  0  0  0  0  0  0
  -25.9180  -32.5510   23.9060 C   0  0  0  0  0  3  0  0  0  0  0  0
  -26.4120  -31.7920   25.1990 C   0  0  1  0  0  0  0  0  0  0  0  0
  -25.3040  -31.5760   26.2570 C   0  0  0  0  0  1  0  0  0  0  0  0
  -26.9900  -30.4050   24.8380 C   0  0  0  0  0  1  0  0  0  0  0  0
  -27.5610  -32.5860   25.8650 C   0  0  0  0  0  1  0  0  0  0  0  0
  -25.6060  -33.9540   24.2280 N   0  0  0  0  0  0  0  0  0  0  0  0
  -25.9320  -35.0080   23.4680 C   0  0  0  0  0  0  0  0  0  0  0  0
  -26.5920  -34.9010   22.4310 O   0  0  0  0  0  0  0  0  0  0  0  0
  -25.0190  -34.1090   25.0340 H   0  0  0  0  0  0  0  0  0  0  0  0
  -24.1950  -36.8030   23.1480 C   0  0  0  0  0  1  0  0  0  0  0  0
  -25.4570  -36.4010   23.9300 C   0  0  0  0  0  3  0  0  0  0  0  0
  -27.6070  -37.2980   24.7060 C   0  0  0  0  0  1  0  0  0  0  0  0
  -26.4860  -37.4530   23.7830 N   0  0  0  0  0  0  0  0  0  0  0  0
  -26.0820  -38.3760   23.9260 H   0  0  0  0  0  0  0  0  0  0  0  0
  1 15  1  0
  2  7  1  0
  3  4  1  0
  3  2  1  0
  5  4  1  0
  5 20  1  0
  5  6  1  0
  7  1  1  0
  7  6  1  0
  8  1  2  0
  9 14  1  0
 10 12  1  0
 11  9  2  0
 12 15  1  0
 12 14  2  0
 13 10  2  0
 13 11  1  0
 15 16  1  0
 17 18  2  0
 18 37  1  0
 19 18  1  0
 19 22  1  0
 20 17  1  0
 20 21  1  0
 21 19  2  0
 22 23  1  0
 23 24  2  0
 25 28  1  0
 25 24  1  0
 26 25  2  0
 27 26  1  0
 27 22  2  0
 28 29  1  0
 29 30  1  0
 30 31  2  0
 32 31  1  0
 32 36  1  0
 33 32  2  0
 34 29  2  0
 34 33  1  0
 35 34  1  0
 37 38  1  0
 38 41  1  0
 38 40  1  0
 39 37  2  0
 42 43  1  0
 42 17  1  0
 44 42  1  0
 46 11  1  0
 46 47  1  0
 46 45  1  0
 47 48  1  0
 47 45  1  0
 49 60  2  0
 50 48  1  0
 50 55  1  0
 51 59  1  0
 51 61  1  0
 52 58  1  0
 52 54  1  0
 53 59  1  0
 54 55  2  0
 54 53  1  0
 56 50  2  0
 57 56  1  0
 57 52  2  0
 58 51  1  0
 59 49  1  0
 61 63  2  0
 62 61  1  0
 64 62  1  0
 65 74  2  0
 65 70  1  0
 66 62  1  0
 66 70  1  0
 67 66  1  0
 68 69  1  0
 68 67  1  0
 69 65  1  0
 70 71  2  0
 71 72  1  0
 73 72  2  0
 74 73  1  0
 75 49  1  0
 75 80  1  0
 75 76  1  0
 76 79  1  1
 76 77  1  0
 78 76  1  0
 80 83  1  0
 81 85  1  0
 81 80  1  0
 82 81  2  0
 85 84  1  0
 87 88  1  0
 87 85  1  0
 87 86  1  0
M  ISO  4   1 100  15 100  47 101  48 101
M  END
>  <TORSDO>  (31) 
F 16

>  <SCORE>  (31) 
-15.988

>  <name>  (31) 
30

>  <ligand_id>  (31) 
30

>  <original_smiles>  (31) 
[H]c1nc(C2([H])C([H])([H])C2([H])Oc2c([H])c([H])c3c(c2[H])C([H])([H])N(C(=O)C([H])(N([H])C(=O)C([H])(N([H])C([H])([H])[H])C([H])([H])[H])C(C([H])([H])[H])(C([H])([H])[H])C([H])([H])[H])C([H])(C(=O)N([H])C2([H])c4c([H])c([H])c([H])c([H])c4C([H])([H])C([H])([H])C2([H])[H])C3([H])[H])c([H])nc1N([H])C(=O)N1C([H])([H])C([H])([H])C([H])([H])C([H])(n2nc(-c3c([H])c([H])c(Oc4c([H])c([H])c(F)c([H])c4F)c([H])c3[H])c(C(=O)N([H])[H])c2N([H])[H])C1([H])[H]

>  <smiles>  (31) 
[H]c1nc(C2([H])C([H])([H])C2([H])Oc2c([H])c([H])c3c(c2[H])C([H])([H])N(C(=O)C([H])(N([H])C(=O)C([H])(N([H])C([H])([H])[H])C([H])([H])[H])C(C([H])([H])[H])(C([H])([H])[H])C([H])([H])[H])C([H])(C(=O)N([H])C2([H])c4c([H])c([H])c([H])c([H])c4C([H])([H])C([H])([H])C2([H])[H])C3([H])[H])c([H])nc1N([H])C(=O)N1C([H])([H])C([H])([H])C([H])([H])C([H])(n2nc(-c3c([H])c([H])c(Oc4c([H])c([H])c(F)c([H])c4F)c([H])c3[H])c(C(=O)N([H])[H])c2N([H])[H])C1([H])[H]

$$$$
31:0:0
     RDKit          3D

 92101  0  0  1  0  0  0  0  0999 V2000
  -30.0030  -22.8030   19.4310 C   0  0  0  0  0  3  0  0  0  0  0  0
  -29.6690  -24.2120   19.4230 C   0  0  0  0  0  0  0  0  0  0  0  0
  -28.5330  -24.7710   20.0970 C   0  0  0  0  0  0  0  0  0  0  0  0
  -27.7980  -23.6830   20.7320 C   0  0  0  0  0  0  0  0  0  0  0  0
  -29.2400  -21.7920   20.0860 C   0  0  0  0  0  0  0  0  0  0  0  0
  -30.6130  -25.1530   18.6970 C   0  0  0  0  0  1  0  0  0  0  0  0
  -26.5700  -24.0170   21.5580 C   0  0  0  0  0  1  0  0  0  0  0  0
  -28.1160  -22.3000   20.7060 N   0  0  0  0  0  0  0  0  0  0  0  0
  -29.7700  -20.3940   20.1200 N   0  0  0  0  0  0  0  0  0  0  0  0
  -30.7380  -20.4020   19.8160 H   0  0  0  0  0  0  0  0  0  0  0  0
  -30.7030  -15.0500   19.8970 C   0  0  0  0  0  0  0  0  0  0  0  0
  -30.5190  -12.7200   18.8920 C   0  0  0  0  0  2  0  0  0  0  0  0
  -29.4990  -12.6910   17.7310 C   0  0  0  0  0  2  0  0  0  0  0  0
  -28.0800  -12.4450   18.2730 C   0  0  0  0  0  2  0  0  0  0  0  0
  -27.7550  -13.3260   19.5080 C   0  0  0  0  0  3  0  0  0  0  0  0
  -28.8940  -13.3180   20.5490 C   0  0  0  0  0  2  0  0  0  0  0  0
  -30.0980  -13.7880   19.8510 N   0  0  0  0  0  0  0  0  0  0  0  0
  -31.8580  -15.1020   19.4530 O   0  0  0  0  0  0  0  0  0  0  0  0
  -29.2020  -18.2040   21.5270 C   0  0  0  0  0  2  0  0  0  0  0  0
  -29.1860  -16.6380   21.2960 C   0  0  0  0  0  2  0  0  0  0  0  0
  -30.1960  -17.6920   19.4970 C   0  0  0  0  0  2  0  0  0  0  0  0
  -29.2890  -18.9000   20.1570 C   0  0  0  0  0  3  0  0  0  0  0  0
  -29.9730  -16.2770   20.0990 N   0  0  0  0  0  0  0  0  0  0  0  0
  -25.4410  -13.8400   20.4670 C   0  0  0  0  0  0  0  0  0  0  0  0
  -24.4150  -13.0370   20.8820 C   0  0  0  0  0  0  0  0  0  0  0  0
  -24.8840  -11.6950   20.7500 C   0  0  0  0  0  0  0  0  0  0  0  0
  -26.4650  -12.9870   20.0980 N   0  0  0  0  0  0  0  0  0  0  0  0
  -26.1460  -11.6870   20.3340 N   0  0  0  0  0  0  0  0  0  0  0  0
  -24.1830  -10.4160   20.9370 C   0  0  0  0  0  0  0  0  0  0  0  0
  -24.6310   -9.4580   21.8710 C   0  0  0  0  0  3  0  0  0  0  0  0
  -23.9280   -8.2480   22.0510 C   0  0  0  0  0  3  0  0  0  0  0  0
  -22.7620   -7.9860   21.2920 C   0  0  0  0  0  0  0  0  0  0  0  0
  -22.3330   -8.9330   20.3440 C   0  0  0  0  0  3  0  0  0  0  0  0
  -23.0390  -10.1360   20.1650 C   0  0  0  0  0  3  0  0  0  0  0  0
  -22.0280   -6.8280   21.3770 O   0  0  0  0  0  0  0  0  0  0  0  0
  -21.8950   -6.1460   22.5610 C   0  0  0  0  0  0  0  0  0  0  0  0
  -21.3290   -6.7450   23.7070 C   0  0  0  0  0  3  0  0  0  0  0  0
  -21.1480   -5.9870   24.8820 C   0  0  0  0  0  3  0  0  0  0  0  0
  -21.5230   -4.6300   24.9090 C   0  0  0  0  0  0  0  0  0  0  0  0
  -22.0820   -4.0320   23.7680 C   0  0  0  0  0  3  0  0  0  0  0  0
  -22.2660   -4.7870   22.5960 C   0  0  0  0  0  0  0  0  0  0  0  0
  -22.7850   -4.1980   21.4920 F   0  0  0  0  0  0  0  0  0  0  0  0
  -21.3430   -3.9010   26.0350 F   0  0  0  0  0  0  0  0  0  0  0  0
  -23.0420  -13.4870   21.2870 C   0  0  0  0  0  0  0  0  0  0  0  0
  -22.3990  -12.7580   22.1910 N   0  0  0  0  0  0  0  0  0  0  0  0
  -22.5500  -14.5210   20.8360 O   0  0  0  0  0  0  0  0  0  0  0  0
  -22.8130  -11.9220   22.5780 H   0  0  0  0  0  0  0  0  0  0  0  0
  -21.4810  -13.0400   22.5040 H   0  0  0  0  0  0  0  0  0  0  0  0
  -25.5820  -15.2190   20.3460 N   0  0  0  0  0  0  0  0  0  0  0  0
  -24.8330  -15.8640   20.5760 H   0  0  0  0  0  0  0  0  0  0  0  0
  -26.4050  -15.6800   19.9780 H   0  0  0  0  0  0  0  0  0  0  0  0
  -28.4030  -26.2470   20.1820 O   0  0  0  0  0  0  0  0  0  0  0  0
  -24.6600  -31.8290   23.1930 C   0  0  0  0  0  0  0  0  0  0  0  0
  -27.2850  -27.1570   20.1420 C   0  0  0  0  0  0  0  0  0  0  0  0
  -23.4830  -30.4560   21.5170 C   0  0  0  0  0  3  0  0  0  0  0  0
  -24.9510  -28.8950   20.0890 C   0  0  0  0  0  0  0  0  0  0  0  0
  -26.0350  -30.7250   21.3890 C   0  0  0  0  0  2  0  0  0  0  0  0
  -26.1160  -29.3390   20.7240 C   0  0  0  0  0  0  0  0  0  0  0  0
  -27.2800  -28.4840   20.7360 C   0  0  0  0  0  3  0  0  0  0  0  0
  -26.1020  -26.8090   19.4610 C   0  0  0  0  0  3  0  0  0  0  0  0
  -24.9560  -27.6440   19.4420 C   0  0  0  0  0  3  0  0  0  0  0  0
  -23.7220  -29.7930   20.1340 C   0  0  0  0  0  2  0  0  0  0  0  0
  -24.7450  -31.0260   22.0890 N   0  0  0  0  0  0  0  0  0  0  0  0
  -23.5670  -32.1070   23.7110 O   0  0  0  0  0  0  0  0  0  0  0  0
  -22.7930  -29.4380   22.4590 C   0  0  0  0  0  0  0  0  0  0  0  0
  -21.4640  -29.2810   22.3240 N   0  0  0  0  0  0  0  0  0  0  0  0
  -23.4550  -28.7860   23.2700 O   0  0  0  0  0  0  0  0  0  0  0  0
  -20.9840  -29.8560   21.6440 H   0  0  0  0  0  0  0  0  0  0  0  0
  -18.0630  -28.1420   22.8320 C   0  0  0  0  0  0  0  0  0  0  0  0
  -20.6310  -28.3350   23.0710 C   0  0  0  0  0  3  0  0  0  0  0  0
  -20.6920  -26.9250   22.4380 C   0  0  0  0  0  2  0  0  0  0  0  0
  -19.5670  -26.6690   21.4280 C   0  0  0  0  0  2  0  0  0  0  0  0
  -18.1980  -26.8190   22.0990 C   0  0  0  0  0  2  0  0  0  0  0  0
  -19.2060  -28.8610   23.2730 C   0  0  0  0  0  0  0  0  0  0  0  0
  -19.0250  -30.1030   23.9210 C   0  0  0  0  0  3  0  0  0  0  0  0
  -17.7350  -30.6250   24.1320 C   0  0  0  0  0  3  0  0  0  0  0  0
  -16.6060  -29.9030   23.7050 C   0  0  0  0  0  3  0  0  0  0  0  0
  -16.7720  -28.6630   23.0630 C   0  0  0  0  0  3  0  0  0  0  0  0
  -25.9290  -32.4550   23.8480 C   0  0  0  0  0  3  0  0  0  0  0  0
  -25.6130  -33.8500   24.1970 N   0  0  0  0  0  0  0  0  0  0  0  0
  -25.9330  -34.9150   23.4490 C   0  0  0  0  0  0  0  0  0  0  0  0
  -26.5920  -34.8290   22.4110 O   0  0  0  0  0  0  0  0  0  0  0  0
  -25.0190  -33.9920   25.0010 H   0  0  0  0  0  0  0  0  0  0  0  0
  -24.1770  -36.6960   23.1660 C   0  0  0  0  0  1  0  0  0  0  0  0
  -25.4490  -36.2980   23.9300 C   0  0  0  0  0  3  0  0  0  0  0  0
  -27.5940  -37.2060   24.7050 C   0  0  0  0  0  1  0  0  0  0  0  0
  -26.4660  -37.3620   23.7900 N   0  0  0  0  0  0  0  0  0  0  0  0
  -26.0550  -38.2780   23.9490 H   0  0  0  0  0  0  0  0  0  0  0  0
  -26.4220  -31.6680   25.1250 C   0  0  1  0  0  0  0  0  0  0  0  0
  -25.3060  -31.4150   26.1670 C   0  0  0  0  0  1  0  0  0  0  0  0
  -27.0120  -30.2940   24.7330 C   0  0  0  0  0  1  0  0  0  0  0  0
  -27.5600  -32.4550   25.8170 C   0  0  0  0  0  1  0  0  0  0  0  0
  1  5  1  0
  2  1  2  0
  2  3  1  0
  3 52  1  0
  3  4  2  0
  4  7  1  0
  5  9  1  0
  5  8  2  0
  6  2  1  0
  8  4  1  0
 10  9  1  0
 11 23  1  0
 12 17  1  0
 13 14  1  0
 13 12  1  0
 15 14  1  0
 15 27  1  0
 15 16  1  0
 17 11  1  0
 17 16  1  0
 18 11  2  0
 20 19  1  0
 21 23  1  0
 21 22  1  0
 22  9  1  0
 22 19  1  0
 23 20  1  0
 24 25  2  0
 25 44  1  0
 26 25  1  0
 26 29  1  0
 27 28  1  0
 27 24  1  0
 28 26  2  0
 29 30  1  0
 30 31  2  0
 32 35  1  0
 32 31  1  0
 33 32  2  0
 34 33  1  0
 34 29  2  0
 35 36  1  0
 36 41  2  0
 36 37  1  0
 37 38  2  0
 38 39  1  0
 39 43  1  0
 40 39  2  0
 41 40  1  0
 42 41  1  0
 44 45  1  0
 45 48  1  0
 45 47  1  0
 46 44  2  0
 49 24  1  0
 49 50  1  0
 51 49  1  0
 53 64  2  0
 54 52  1  0
 54 59  1  0
 55 63  1  0
 55 65  1  0
 56 62  1  0
 56 58  1  0
 57 63  1  0
 58 59  2  0
 58 57  1  0
 60 54  2  0
 61 60  1  0
 61 56  2  0
 62 55  1  0
 63 53  1  0
 65 67  2  0
 66 65  1  0
 68 66  1  0
 69 78  2  0
 69 74  1  0
 70 66  1  0
 70 74  1  0
 71 70  1  0
 72 73  1  0
 72 71  1  0
 73 69  1  0
 74 75  2  0
 75 76  1  0
 77 76  2  0
 78 77  1  0
 79 53  1  0
 79 80  1  0
 79 89  1  0
 80 83  1  0
 81 85  1  0
 81 80  1  0
 82 81  2  0
 85 84  1  0
 87 85  1  0
 87 88  1  0
 87 86  1  0
 89 92  1  1
 89 90  1  0
 91 89  1  0
M  ISO  4   3 101  11 100  23 100  52 101
M  END
>  <TORSDO>  (32) 
F 16

>  <SCORE>  (32) 
-14.434

>  <name>  (32) 
31

>  <ligand_id>  (32) 
31

>  <original_smiles>  (32) 
[H]c1c([H])c([H])c2c(c1[H])C([H])([H])C([H])([H])C([H])([H])C2([H])N([H])C(=O)C1([H])N(C(=O)C([H])(N([H])C(=O)C([H])(N([H])C([H])([H])[H])C([H])([H])[H])C(C([H])([H])[H])(C([H])([H])[H])C([H])([H])[H])C([H])([H])c2c([H])c(Oc3c(C([H])([H])[H])nc(N([H])C4([H])C([H])([H])N(C(=O)N5C([H])([H])C([H])([H])C([H])([H])C([H])(n6nc(-c7c([H])c([H])c(Oc8c([H])c([H])c(F)c([H])c8F)c([H])c7[H])c(C(=O)N([H])[H])c6N([H])[H])C5([H])[H])C([H])([H])C4([H])[H])c([H])c3C([H])([H])[H])c([H])c([H])c2C1([H])[H]

>  <smiles>  (32) 
[H]c1c([H])c([H])c2c(c1[H])C([H])([H])C([H])([H])C([H])([H])C2([H])N([H])C(=O)C1([H])N(C(=O)C([H])(N([H])C(=O)C([H])(N([H])C([H])([H])[H])C([H])([H])[H])C(C([H])([H])[H])(C([H])([H])[H])C([H])([H])[H])C([H])([H])c2c([H])c(Oc3c(C([H])([H])[H])nc(N([H])C4([H])C([H])([H])N(C(=O)N5C([H])([H])C([H])([H])C([H])([H])C([H])(n6nc(-c7c([H])c([H])c(Oc8c([H])c([H])c(F)c([H])c8F)c([H])c7[H])c(C(=O)N([H])[H])c6N([H])[H])C5([H])[H])C([H])([H])C4([H])[H])c([H])c3C([H])([H])[H])c([H])c([H])c2C1([H])[H]

$$$$
32:0:0
     RDKit          3D

 89 98  0  0  1  0  0  0  0  0999 V2000
  -28.7730  -22.5500   19.9430 C   0  0  0  0  0  0  0  0  0  0  0  0
  -29.2930  -21.2570   20.4770 C   0  0  0  0  0  0  0  0  0  0  0  0
  -28.6480  -21.9510   18.6170 C   0  0  0  0  0  0  0  0  0  0  0  0
  -29.8380  -20.6460   21.7440 C   0  0  0  0  0  2  0  0  0  0  0  0
  -30.2180  -19.0910   21.5150 C   0  0  0  0  0  2  0  0  0  0  0  0
  -30.1740  -18.6520   20.0040 C   0  0  0  0  0  3  0  0  0  0  0  0
  -28.1210  -22.6740   17.4110 C   0  0  0  0  0  1  0  0  0  0  0  0
  -29.0170  -20.6230   18.4310 N   0  0  0  0  0  0  0  0  0  0  0  0
  -29.3910  -20.0750   19.6210 N   0  0  0  0  0  0  0  0  0  0  0  0
  -30.6520  -15.6430   19.7430 C   0  0  0  0  0  0  0  0  0  0  0  0
  -30.6310  -13.1360   18.9350 C   0  0  0  0  0  2  0  0  0  0  0  0
  -29.6500  -12.7920   17.7830 C   0  0  0  0  0  2  0  0  0  0  0  0
  -28.2430  -12.4940   18.3290 C   0  0  0  0  0  2  0  0  0  0  0  0
  -27.8280  -13.5080   19.4210 C   0  0  0  0  0  3  0  0  0  0  0  0
  -28.9350  -13.7700   20.4630 C   0  0  0  0  0  2  0  0  0  0  0  0
  -30.0890  -14.3160   19.7220 N   0  0  0  0  0  0  0  0  0  0  0  0
  -31.8770  -15.5920   19.5380 O   0  0  0  0  0  0  0  0  0  0  0  0
  -29.9050  -16.9660   19.7950 N   0  0  0  0  0  0  0  0  0  0  0  0
  -28.9130  -16.7810   19.7980 H   0  0  0  0  0  0  0  0  0  0  0  0
  -25.5390  -14.0810   20.3730 C   0  0  0  0  0  0  0  0  0  0  0  0
  -24.4900  -13.3130   20.7920 C   0  0  0  0  0  0  0  0  0  0  0  0
  -24.9230  -11.9550   20.6830 C   0  0  0  0  0  0  0  0  0  0  0  0
  -26.5410  -13.1940   20.0240 N   0  0  0  0  0  0  0  0  0  0  0  0
  -26.1890  -11.9060   20.2780 N   0  0  0  0  0  0  0  0  0  0  0  0
  -24.1810  -10.7030   20.8800 C   0  0  0  0  0  0  0  0  0  0  0  0
  -24.5950   -9.7380   21.8240 C   0  0  0  0  0  3  0  0  0  0  0  0
  -23.8500   -8.5530   22.0130 C   0  0  0  0  0  3  0  0  0  0  0  0
  -22.6760   -8.3260   21.2560 C   0  0  0  0  0  0  0  0  0  0  0  0
  -22.2800   -9.2800   20.3020 C   0  0  0  0  0  3  0  0  0  0  0  0
  -23.0260  -10.4550   20.1120 C   0  0  0  0  0  3  0  0  0  0  0  0
  -21.9050   -7.1930   21.3520 O   0  0  0  0  0  0  0  0  0  0  0  0
  -21.7690   -6.5130   22.5360 C   0  0  0  0  0  0  0  0  0  0  0  0
  -21.2140   -7.1180   23.6840 C   0  0  0  0  0  3  0  0  0  0  0  0
  -21.0290   -6.3620   24.8590 C   0  0  0  0  0  3  0  0  0  0  0  0
  -21.3900   -5.0020   24.8850 C   0  0  0  0  0  0  0  0  0  0  0  0
  -21.9380   -4.3960   23.7410 C   0  0  0  0  0  3  0  0  0  0  0  0
  -22.1240   -5.1480   22.5690 C   0  0  0  0  0  0  0  0  0  0  0  0
  -22.6330   -4.5550   21.4630 F   0  0  0  0  0  0  0  0  0  0  0  0
  -21.2060   -4.2730   26.0120 F   0  0  0  0  0  0  0  0  0  0  0  0
  -23.1260  -13.8110   21.1710 C   0  0  0  0  0  0  0  0  0  0  0  0
  -22.4480  -13.1130   22.0750 N   0  0  0  0  0  0  0  0  0  0  0  0
  -22.6740  -14.8550   20.7010 O   0  0  0  0  0  0  0  0  0  0  0  0
  -22.8300  -12.2690   22.4760 H   0  0  0  0  0  0  0  0  0  0  0  0
  -21.5370  -13.4290   22.3720 H   0  0  0  0  0  0  0  0  0  0  0  0
  -25.7170  -15.4530   20.2290 N   0  0  0  0  0  0  0  0  0  0  0  0
  -24.9680  -16.1140   20.4080 H   0  0  0  0  0  0  0  0  0  0  0  0
  -26.5330  -15.8860   19.8170 H   0  0  0  0  0  0  0  0  0  0  0  0
  -28.1770  -24.1910   20.5090 C   0  0  0  0  0  2  0  0  0  0  0  0
  -28.4060  -25.8430   20.1860 O   0  0  0  0  0  0  0  0  0  0  0  0
  -24.5920  -31.8440   23.1060 C   0  0  0  0  0  0  0  0  0  0  0  0
  -27.3740  -26.9620   20.1740 C   0  0  0  0  0  0  0  0  0  0  0  0
  -23.4860  -30.4030   21.4490 C   0  0  0  0  0  3  0  0  0  0  0  0
  -25.0210  -28.8300   20.0700 C   0  0  0  0  0  0  0  0  0  0  0  0
  -26.0540  -30.6770   21.3640 C   0  0  0  0  0  2  0  0  0  0  0  0
  -26.1870  -29.2580   20.7160 C   0  0  0  0  0  0  0  0  0  0  0  0
  -27.3570  -28.3510   20.7340 C   0  0  0  0  0  3  0  0  0  0  0  0
  -26.1670  -26.7130   19.4780 C   0  0  0  0  0  3  0  0  0  0  0  0
  -25.0420  -27.5810   19.4280 C   0  0  0  0  0  3  0  0  0  0  0  0
  -23.7740  -29.7200   20.0830 C   0  0  0  0  0  2  0  0  0  0  0  0
  -24.7310  -31.0050   22.0260 N   0  0  0  0  0  0  0  0  0  0  0  0
  -23.4800  -32.0990   23.5990 O   0  0  0  0  0  0  0  0  0  0  0  0
  -22.7990  -29.3900   22.4050 C   0  0  0  0  0  0  0  0  0  0  0  0
  -21.4780  -29.1810   22.2540 N   0  0  0  0  0  0  0  0  0  0  0  0
  -23.4660  -28.7920   23.2530 O   0  0  0  0  0  0  0  0  0  0  0  0
  -20.9890  -29.7160   21.5490 H   0  0  0  0  0  0  0  0  0  0  0  0
  -18.1290  -27.8470   22.7010 C   0  0  0  0  0  0  0  0  0  0  0  0
  -20.6720  -28.2150   23.0110 C   0  0  0  0  0  3  0  0  0  0  0  0
  -20.8400  -26.7860   22.4450 C   0  0  0  0  0  2  0  0  0  0  0  0
  -19.7710  -26.4190   21.4110 C   0  0  0  0  0  2  0  0  0  0  0  0
  -18.3730  -26.5070   22.0270 C   0  0  0  0  0  2  0  0  0  0  0  0
  -19.2090  -28.6550   23.1490 C   0  0  0  0  0  0  0  0  0  0  0  0
  -18.9250  -29.9040   23.7430 C   0  0  0  0  0  3  0  0  0  0  0  0
  -17.5970  -30.3480   23.8900 C   0  0  0  0  0  3  0  0  0  0  0  0
  -16.5330  -29.5390   23.4560 C   0  0  0  0  0  3  0  0  0  0  0  0
  -16.8000  -28.2890   22.8680 C   0  0  0  0  0  3  0  0  0  0  0  0
  -25.8200  -32.5380   23.7660 C   0  0  0  0  0  3  0  0  0  0  0  0
  -25.4490  -33.9330   24.0670 N   0  0  0  0  0  0  0  0  0  0  0  0
  -25.7710  -34.9960   23.3160 C   0  0  0  0  0  0  0  0  0  0  0  0
  -26.4700  -34.9050   22.3050 O   0  0  0  0  0  0  0  0  0  0  0  0
  -24.8290  -34.0740   24.8510 H   0  0  0  0  0  0  0  0  0  0  0  0
  -24.0070  -36.7480   22.9080 C   0  0  0  0  0  1  0  0  0  0  0  0
  -25.2360  -36.3760   23.7540 C   0  0  0  0  0  3  0  0  0  0  0  0
  -27.3160  -37.3320   24.6460 C   0  0  0  0  0  1  0  0  0  0  0  0
  -26.2430  -37.4560   23.6630 N   0  0  0  0  0  0  0  0  0  0  0  0
  -25.8070  -38.3670   23.7830 H   0  0  0  0  0  0  0  0  0  0  0  0
  -26.3040  -31.8140   25.0850 C   0  0  1  0  0  0  0  0  0  0  0  0
  -25.1740  -31.5640   26.1110 C   0  0  0  0  0  1  0  0  0  0  0  0
  -26.9490  -30.4470   24.7610 C   0  0  0  0  0  1  0  0  0  0  0  0
  -27.3990  -32.6610   25.7750 C   0  0  0  0  0  1  0  0  0  0  0  0
  1  2  2  0
  1 48  1  0
  2  4  1  0
  3  1  1  0
  5  4  1  0
  6 18  1  0
  6  5  1  0
  7  3  1  0
  8  3  2  0
  8  9  1  0
  9  6  1  0
  9  2  1  0
 10 18  1  0
 11 16  1  0
 12 13  1  0
 12 11  1  0
 14 13  1  0
 14 23  1  0
 14 15  1  0
 16 10  1  0
 16 15  1  0
 17 10  2  0
 18 19  1  0
 20 21  2  0
 21 40  1  0
 22 21  1  0
 22 25  1  0
 23 24  1  0
 23 20  1  0
 24 22  2  0
 25 26  1  0
 26 27  2  0
 28 31  1  0
 28 27  1  0
 29 28  2  0
 30 29  1  0
 30 25  2  0
 31 32  1  0
 32 37  2  0
 32 33  1  0
 33 34  2  0
 34 35  1  0
 35 39  1  0
 36 35  2  0
 37 36  1  0
 38 37  1  0
 40 41  1  0
 41 44  1  0
 41 43  1  0
 42 40  2  0
 45 20  1  0
 45 46  1  0
 47 45  1  0
 49 48  1  0
 50 61  2  0
 51 49  1  0
 51 56  1  0
 52 60  1  0
 52 62  1  0
 53 59  1  0
 53 55  1  0
 54 60  1  0
 55 56  2  0
 55 54  1  0
 57 51  2  0
 58 57  1  0
 58 53  2  0
 59 52  1  0
 60 50  1  0
 62 64  2  0
 63 62  1  0
 65 63  1  0
 66 75  2  0
 66 71  1  0
 67 63  1  0
 67 71  1  0
 68 67  1  0
 69 70  1  0
 69 68  1  0
 70 66  1  0
 71 72  2  0
 72 73  1  0
 74 73  2  0
 75 74  1  0
 76 50  1  0
 76 77  1  0
 76 86  1  0
 77 80  1  0
 78 82  1  0
 78 77  1  0
 79 78  2  0
 82 81  1  0
 84 82  1  0
 84 85  1  0
 84 83  1  0
 86 89  1  1
 86 87  1  0
 88 86  1  0
M  ISO  4  10 100  18 100  48 101  49 101
M  END
>  <TORSDO>  (33) 
F 17

>  <SCORE>  (33) 
-15.919

>  <name>  (33) 
32

>  <ligand_id>  (33) 
32

>  <original_smiles>  (33) 
[H]c1c([H])c([H])c2c(c1[H])C([H])([H])C([H])([H])C([H])([H])C2([H])N([H])C(=O)C1([H])N(C(=O)C([H])(N([H])C(=O)C([H])(N([H])C([H])([H])[H])C([H])([H])[H])C(C([H])([H])[H])(C([H])([H])[H])C([H])([H])[H])C([H])([H])c2c([H])c(OC([H])([H])c3c(C([H])([H])[H])nn4c3C([H])([H])C([H])([H])C4([H])N([H])C(=O)N3C([H])([H])C([H])([H])C([H])([H])C([H])(n4nc(-c5c([H])c([H])c(Oc6c([H])c([H])c(F)c([H])c6F)c([H])c5[H])c(C(=O)N([H])[H])c4N([H])[H])C3([H])[H])c([H])c([H])c2C1([H])[H]

>  <smiles>  (33) 
[H]c1c([H])c([H])c2c(c1[H])C([H])([H])C([H])([H])C([H])([H])C2([H])N([H])C(=O)C1([H])N(C(=O)C([H])(N([H])C(=O)C([H])(N([H])C([H])([H])[H])C([H])([H])[H])C(C([H])([H])[H])(C([H])([H])[H])C([H])([H])[H])C([H])([H])c2c([H])c(OC([H])([H])c3c(C([H])([H])[H])nn4c3C([H])([H])C([H])([H])C4([H])N([H])C(=O)N3C([H])([H])C([H])([H])C([H])([H])C([H])(n4nc(-c5c([H])c([H])c(Oc6c([H])c([H])c(F)c([H])c6F)c([H])c5[H])c(C(=O)N([H])[H])c4N([H])[H])C3([H])[H])c([H])c([H])c2C1([H])[H]

$$$$
33:0:0
     RDKit          3D

 96105  0  0  1  0  0  0  0  0999 V2000
  -28.5260  -21.4110   21.9390 C   0  0  0  0  0  2  0  0  0  0  0  0
  -28.5240  -20.4360   20.7730 C   0  0  0  0  0  3  0  0  0  0  0  0
  -28.2830  -21.9630   20.5500 C   0  0  0  0  0  3  0  0  0  0  0  0
  -31.6990  -17.6190   20.2660 C   0  0  0  0  0  3  0  0  0  0  0  0
  -29.7130  -19.4700   20.5680 C   0  0  0  0  0  0  0  0  0  0  0  0
  -30.3780  -17.1750   20.5590 C   0  0  0  0  0  0  0  0  0  0  0  0
  -31.0580  -19.8400   20.2860 C   0  0  0  0  0  0  0  0  0  0  0  0
  -32.1040  -21.6170   21.4270 C   0  0  0  0  0  1  0  0  0  0  0  0
  -32.0290  -18.9230   20.1210 N   0  0  0  0  0  0  0  0  0  0  0  0
  -29.4070  -18.1350   20.7120 N   0  0  0  0  0  0  0  0  0  0  0  0
  -31.5000  -21.1600   20.1770 N   0  0  0  0  0  0  0  0  0  0  0  0
  -32.2350  -21.1730   19.4700 H   0  0  0  0  0  0  0  0  0  0  0  0
  -30.7730  -14.6640   20.3080 C   0  0  0  0  0  0  0  0  0  0  0  0
  -30.4700  -12.4650   19.2210 C   0  0  0  0  0  2  0  0  0  0  0  0
  -29.5300  -12.6400   18.0100 C   0  0  0  0  0  2  0  0  0  0  0  0
  -28.0600  -12.4930   18.4450 C   0  0  0  0  0  2  0  0  0  0  0  0
  -27.7160  -13.3420   19.6990 C   0  0  0  0  0  3  0  0  0  0  0  0
  -28.7800  -13.1780   20.8080 C   0  0  0  0  0  2  0  0  0  0  0  0
  -30.0920  -13.4820   20.2220 N   0  0  0  0  0  0  0  0  0  0  0  0
  -31.9310  -14.7460   19.8960 O   0  0  0  0  0  0  0  0  0  0  0  0
  -30.0610  -15.7630   20.6930 N   0  0  0  0  0  0  0  0  0  0  0  0
  -29.1200  -15.5650   20.9920 H   0  0  0  0  0  0  0  0  0  0  0  0
  -25.3210  -13.9280   20.4190 C   0  0  0  0  0  0  0  0  0  0  0  0
  -24.2600  -13.1490   20.7950 C   0  0  0  0  0  0  0  0  0  0  0  0
  -24.7300  -11.8010   20.7710 C   0  0  0  0  0  0  0  0  0  0  0  0
  -26.3700  -13.0540   20.1890 N   0  0  0  0  0  0  0  0  0  0  0  0
  -26.0200  -11.7700   20.4600 N   0  0  0  0  0  0  0  0  0  0  0  0
  -24.0130  -10.5350   20.9700 C   0  0  0  0  0  0  0  0  0  0  0  0
  -24.4450   -9.5820   21.9180 C   0  0  0  0  0  3  0  0  0  0  0  0
  -23.7260   -8.3810   22.1040 C   0  0  0  0  0  3  0  0  0  0  0  0
  -22.5640   -8.1240   21.3400 C   0  0  0  0  0  0  0  0  0  0  0  0
  -22.1510   -9.0650   20.3810 C   0  0  0  0  0  3  0  0  0  0  0  0
  -22.8700  -10.2580   20.1930 C   0  0  0  0  0  3  0  0  0  0  0  0
  -21.8170   -6.9740   21.4340 O   0  0  0  0  0  0  0  0  0  0  0  0
  -21.7540   -6.2490   22.5980 C   0  0  0  0  0  0  0  0  0  0  0  0
  -21.2880   -6.8180   23.8040 C   0  0  0  0  0  3  0  0  0  0  0  0
  -21.1740   -6.0190   24.9590 C   0  0  0  0  0  3  0  0  0  0  0  0
  -21.5140   -4.6550   24.9090 C   0  0  0  0  0  0  0  0  0  0  0  0
  -21.9730   -4.0860   23.7080 C   0  0  0  0  0  3  0  0  0  0  0  0
  -22.0890   -4.8810   22.5550 C   0  0  0  0  0  0  0  0  0  0  0  0
  -22.5110   -4.3240   21.3940 F   0  0  0  0  0  0  0  0  0  0  0  0
  -21.3970   -3.8850   26.0180 F   0  0  0  0  0  0  0  0  0  0  0  0
  -22.8600  -13.6190   21.0680 C   0  0  0  0  0  0  0  0  0  0  0  0
  -22.1370  -12.9210   21.9370 N   0  0  0  0  0  0  0  0  0  0  0  0
  -22.4160  -14.6410   20.5460 O   0  0  0  0  0  0  0  0  0  0  0  0
  -22.5090  -12.0950   22.3810 H   0  0  0  0  0  0  0  0  0  0  0  0
  -21.1980  -13.2180   22.1610 H   0  0  0  0  0  0  0  0  0  0  0  0
  -25.4750  -15.2990   20.2340 N   0  0  0  0  0  0  0  0  0  0  0  0
  -24.7010  -15.9460   20.3390 H   0  0  0  0  0  0  0  0  0  0  0  0
  -26.3170  -15.7440   19.8950 H   0  0  0  0  0  0  0  0  0  0  0  0
  -29.3500  -22.8630   20.0200 N   0  0  0  0  0  4  0  0  0  0  0  0
  -30.2470  -22.4200   20.2290 H   0  0  0  0  0  0  0  0  0  0  0  0
  -29.2910  -22.8610   19.0130 H   0  0  0  0  0  0  0  0  0  0  0  0
  -29.3640  -24.2970   20.4910 C   0  0  0  0  0  3  0  0  0  0  0  0
  -28.2490  -25.2230   19.9030 C   0  0  0  0  0  3  0  0  0  0  0  0
  -28.4050  -26.6570   20.1610 O   0  0  0  0  0  0  0  0  0  0  0  0
  -24.6250  -31.9150   23.2340 C   0  0  0  0  0  0  0  0  0  0  0  0
  -27.2600  -27.4520   20.1130 C   0  0  0  0  0  0  0  0  0  0  0  0
  -23.4200  -30.5220   21.5860 C   0  0  0  0  0  3  0  0  0  0  0  0
  -24.8750  -29.0070   20.1370 C   0  0  0  0  0  0  0  0  0  0  0  0
  -25.9510  -30.8770   21.3880 C   0  0  0  0  0  2  0  0  0  0  0  0
  -26.0380  -29.5100   20.7310 C   0  0  0  0  0  0  0  0  0  0  0  0
  -27.2330  -28.7420   20.7150 C   0  0  0  0  0  3  0  0  0  0  0  0
  -26.0740  -26.9970   19.4870 C   0  0  0  0  0  3  0  0  0  0  0  0
  -24.8920  -27.7540   19.5080 C   0  0  0  0  0  3  0  0  0  0  0  0
  -23.6300  -29.8650   20.1980 C   0  0  0  0  0  2  0  0  0  0  0  0
  -24.6840  -31.1200   22.1270 N   0  0  0  0  0  0  0  0  0  0  0  0
  -23.5430  -32.1780   23.7780 O   0  0  0  0  0  0  0  0  0  0  0  0
  -22.7770  -29.4870   22.5390 C   0  0  0  0  0  0  0  0  0  0  0  0
  -21.4520  -29.2970   22.4150 N   0  0  0  0  0  0  0  0  0  0  0  0
  -23.4670  -28.8600   23.3470 O   0  0  0  0  0  0  0  0  0  0  0  0
  -20.9560  -29.8570   21.7350 H   0  0  0  0  0  0  0  0  0  0  0  0
  -18.0880  -28.0730   22.9120 C   0  0  0  0  0  0  0  0  0  0  0  0
  -20.6450  -28.3480   23.1800 C   0  0  0  0  0  3  0  0  0  0  0  0
  -20.7560  -26.9220   22.5930 C   0  0  0  0  0  2  0  0  0  0  0  0
  -19.6550  -26.5990   21.5790 C   0  0  0  0  0  2  0  0  0  0  0  0
  -18.2730  -26.7300   22.2280 C   0  0  0  0  0  2  0  0  0  0  0  0
  -19.2020  -28.8400   23.3450 C   0  0  0  0  0  0  0  0  0  0  0  0
  -18.9750  -30.0980   23.9460 C   0  0  0  0  0  3  0  0  0  0  0  0
  -17.6670  -30.5890   24.1180 C   0  0  0  0  0  3  0  0  0  0  0  0
  -16.5680  -29.8190   23.7010 C   0  0  0  0  0  3  0  0  0  0  0  0
  -16.7790  -28.5630   23.1040 C   0  0  0  0  0  3  0  0  0  0  0  0
  -25.9080  -32.5500   23.8530 C   0  0  0  0  0  3  0  0  0  0  0  0
  -26.4290  -31.7780   25.1270 C   0  0  1  0  0  0  0  0  0  0  0  0
  -25.3390  -31.5330   26.1960 C   0  0  0  0  0  1  0  0  0  0  0  0
  -27.0180  -30.4030   24.7300 C   0  0  0  0  0  1  0  0  0  0  0  0
  -27.5770  -32.5750   25.7900 C   0  0  0  0  0  1  0  0  0  0  0  0
  -25.5950  -33.9460   24.1850 N   0  0  0  0  0  0  0  0  0  0  0  0
  -25.9200  -35.0000   23.4250 C   0  0  0  0  0  0  0  0  0  0  0  0
  -26.5860  -34.8990   22.3910 O   0  0  0  0  0  0  0  0  0  0  0  0
  -25.0030  -34.0980   24.9890 H   0  0  0  0  0  0  0  0  0  0  0  0
  -24.1860  -36.7880   23.0740 C   0  0  0  0  0  1  0  0  0  0  0  0
  -25.4280  -36.3860   23.8840 C   0  0  0  0  0  3  0  0  0  0  0  0
  -27.5600  -37.2770   24.7170 C   0  0  0  0  0  1  0  0  0  0  0  0
  -26.4570  -37.4420   23.7730 N   0  0  0  0  0  0  0  0  0  0  0  0
  -26.0490  -38.3610   23.9200 H   0  0  0  0  0  0  0  0  0  0  0  0
  2  5  1  0
  2  1  1  0
  3 51  1  0
  3  2  1  0
  3  1  1  0
  4  6  1  0
  5 10  1  0
  6 21  1  0
  6 10  2  0
  7  5  2  0
  9  4  2  0
  9  7  1  0
 11  7  1  0
 11  8  1  0
 12 11  1  0
 13 21  1  0
 14 19  1  0
 15 16  1  0
 15 14  1  0
 17 16  1  0
 17 26  1  0
 17 18  1  0
 19 13  1  0
 19 18  1  0
 20 13  2  0
 21 22  1  0
 23 24  2  0
 24 43  1  0
 25 24  1  0
 25 28  1  0
 26 23  1  0
 26 27  1  0
 27 25  2  0
 28 29  1  0
 29 30  2  0
 31 34  1  0
 31 30  1  0
 32 31  2  0
 33 32  1  0
 33 28  2  0
 34 35  1  0
 35 36  1  0
 36 37  2  0
 38 37  1  0
 38 42  1  0
 39 38  2  0
 40 35  2  0
 40 39  1  0
 41 40  1  0
 43 44  1  0
 44 47  1  0
 44 46  1  0
 45 43  2  0
 48 49  1  0
 48 23  1  0
 50 48  1  0
 51 52  1  0
 51 54  1  0
 53 51  1  0
 55 56  1  0
 55 54  2  0
 57 68  2  0
 58 56  1  0
 58 63  1  0
 59 67  1  0
 59 69  1  0
 60 66  1  0
 60 62  1  0
 61 67  1  0
 62 61  1  0
 63 62  2  0
 64 65  1  0
 64 58  2  0
 65 60  2  0
 66 59  1  0
 67 57  1  0
 69 71  2  0
 70 69  1  0
 72 70  1  0
 73 82  2  0
 73 78  1  0
 74 70  1  0
 74 78  1  0
 75 74  1  0
 76 77  1  0
 76 75  1  0
 77 73  1  0
 78 79  2  0
 79 80  1  0
 81 80  2  0
 82 81  1  0
 83 57  1  0
 83 88  1  0
 83 84  1  0
 84 87  1  1
 84 85  1  0
 86 84  1  0
 88 91  1  0
 89 93  1  0
 89 88  1  0
 90 89  2  0
 93 92  1  0
 95 93  1  0
 95 96  1  0
 95 94  1  0
M  ISO  4  13 100  21 100  55 101  56 101
M  END
>  <TORSDO>  (34) 
F 20

>  <SCORE>  (34) 
-13.933

>  <name>  (34) 
33

>  <ligand_id>  (34) 
33

>  <original_smiles>  (34) 
[H]c1nc(N([H])C([H])([H])[H])c(C2([H])C([H])([H])C2([H])[N+]([H])([H])C([H])([H])C([H])([H])Oc2c([H])c([H])c3c(c2[H])C([H])([H])N(C(=O)C([H])(N([H])C(=O)C([H])(N([H])C([H])([H])[H])C([H])([H])[H])C(C([H])([H])[H])(C([H])([H])[H])C([H])([H])[H])C([H])(C(=O)N([H])C2([H])c4c([H])c([H])c([H])c([H])c4C([H])([H])C([H])([H])C2([H])[H])C3([H])[H])nc1N([H])C(=O)N1C([H])([H])C([H])([H])C([H])([H])C([H])(n2nc(-c3c([H])c([H])c(Oc4c([H])c([H])c(F)c([H])c4F)c([H])c3[H])c(C(=O)N([H])[H])c2N([H])[H])C1([H])[H]

>  <smiles>  (34) 
[H]c1nc(N([H])C([H])([H])[H])c(C2([H])C([H])([H])C2([H])[N+]([H])([H])C([H])([H])C([H])([H])Oc2c([H])c([H])c3c(c2[H])C([H])([H])N(C(=O)C([H])(N([H])C(=O)C([H])(N([H])C([H])([H])[H])C([H])([H])[H])C(C([H])([H])[H])(C([H])([H])[H])C([H])([H])[H])C([H])(C(=O)N([H])C2([H])c4c([H])c([H])c([H])c([H])c4C([H])([H])C([H])([H])C2([H])[H])C3([H])[H])nc1N([H])C(=O)N1C([H])([H])C([H])([H])C([H])([H])C([H])(n2nc(-c3c([H])c([H])c(Oc4c([H])c([H])c(F)c([H])c4F)c([H])c3[H])c(C(=O)N([H])[H])c2N([H])[H])C1([H])[H]

$$$$
34:0:0
     RDKit          3D

 99108  0  0  1  0  0  0  0  0999 V2000
  -30.8670  -18.8520   22.7790 C   0  0  0  0  0  2  0  0  0  0  0  0
  -29.8070  -17.3150   21.1610 C   0  0  0  0  0  3  0  0  0  0  0  0
  -30.2680  -20.1700   22.2090 C   0  0  0  0  0  3  0  0  0  0  0  0
  -28.8370  -18.6030   20.7660 C   0  0  0  0  0  3  0  0  0  0  0  0
  -31.1800  -17.7260   21.7600 C   0  0  1  0  0  0  0  0  0  0  0  0
  -31.3810  -21.2150   22.0360 C   0  0  0  0  0  1  0  0  0  0  0  0
  -32.1690  -18.1560   20.6530 C   0  0  0  0  0  1  0  0  0  0  0  0
  -31.8360  -16.5730   22.5630 C   0  0  0  0  0  1  0  0  0  0  0  0
  -29.3940  -20.0540   20.9860 N   0  0  1  0  0  4  0  0  0  0  0  0
  -30.0120  -20.2130   20.2040 H   0  0  0  0  0  0  0  0  0  0  0  0
  -30.3720  -14.8610   20.0830 C   0  0  0  0  0  0  0  0  0  0  0  0
  -30.2170  -12.6430   18.9200 C   0  0  0  0  0  2  0  0  0  0  0  0
  -29.1870  -12.7540   17.7680 C   0  0  0  0  0  2  0  0  0  0  0  0
  -27.7480  -12.5400   18.2820 C   0  0  0  0  0  2  0  0  0  0  0  0
  -27.4550  -13.3570   19.5660 C   0  0  0  0  0  3  0  0  0  0  0  0
  -28.5740  -13.1580   20.6030 C   0  0  0  0  0  2  0  0  0  0  0  0
  -29.8240  -13.6050   19.9790 N   0  0  0  0  0  0  0  0  0  0  0  0
  -31.4460  -15.0840   19.5190 O   0  0  0  0  0  0  0  0  0  0  0  0
  -29.6150  -15.8390   20.7300 N   0  0  0  0  0  0  0  0  0  0  0  0
  -28.8060  -15.4230   21.1760 H   0  0  0  0  0  0  0  0  0  0  0  0
  -25.1270  -13.9130   20.4730 C   0  0  0  0  0  0  0  0  0  0  0  0
  -24.0860  -13.1210   20.8810 C   0  0  0  0  0  0  0  0  0  0  0  0
  -24.5490  -11.7760   20.7710 C   0  0  0  0  0  0  0  0  0  0  0  0
  -26.1470  -13.0440   20.1190 N   0  0  0  0  0  0  0  0  0  0  0  0
  -25.8090  -11.7530   20.3580 N   0  0  0  0  0  0  0  0  0  0  0  0
  -23.8460  -10.5030   20.9690 C   0  0  0  0  0  0  0  0  0  0  0  0
  -24.3190   -9.5350   21.8820 C   0  0  0  0  0  3  0  0  0  0  0  0
  -23.6170   -8.3240   22.0680 C   0  0  0  0  0  3  0  0  0  0  0  0
  -22.4310   -8.0760   21.3360 C   0  0  0  0  0  0  0  0  0  0  0  0
  -21.9810   -9.0320   20.4080 C   0  0  0  0  0  3  0  0  0  0  0  0
  -22.6840  -10.2340   20.2230 C   0  0  0  0  0  3  0  0  0  0  0  0
  -21.6920   -6.9200   21.4400 O   0  0  0  0  0  0  0  0  0  0  0  0
  -21.6480   -6.1980   22.6040 C   0  0  0  0  0  0  0  0  0  0  0  0
  -21.1830   -6.7600   23.8150 C   0  0  0  0  0  3  0  0  0  0  0  0
  -21.0900   -5.9610   24.9720 C   0  0  0  0  0  3  0  0  0  0  0  0
  -21.4390   -4.5990   24.9210 C   0  0  0  0  0  0  0  0  0  0  0  0
  -21.8950   -4.0340   23.7170 C   0  0  0  0  0  3  0  0  0  0  0  0
  -21.9970   -4.8310   22.5630 C   0  0  0  0  0  0  0  0  0  0  0  0
  -22.4140   -4.2760   21.4010 F   0  0  0  0  0  0  0  0  0  0  0  0
  -21.3420   -3.8320   26.0320 F   0  0  0  0  0  0  0  0  0  0  0  0
  -22.7120  -13.5870   21.2550 C   0  0  0  0  0  0  0  0  0  0  0  0
  -22.0430  -12.8600   22.1490 N   0  0  0  0  0  0  0  0  0  0  0  0
  -22.2430  -14.6240   20.7930 O   0  0  0  0  0  0  0  0  0  0  0  0
  -22.4510  -12.0230   22.5300 H   0  0  0  0  0  0  0  0  0  0  0  0
  -21.1230  -13.1410   22.4560 H   0  0  0  0  0  0  0  0  0  0  0  0
  -25.2810  -15.2840   20.3520 N   0  0  0  0  0  0  0  0  0  0  0  0
  -24.5600  -15.9350   20.6410 H   0  0  0  0  0  0  0  0  0  0  0  0
  -26.1140  -15.7540   20.0310 H   0  0  0  0  0  0  0  0  0  0  0  0
  -26.6000  -18.6460   19.4100 C   0  0  0  0  0  1  0  0  0  0  0  0
  -28.1340  -18.4010   19.3910 C   0  0  0  0  0  2  0  0  0  0  0  0
  -28.4210  -21.2750   20.9440 C   0  0  0  0  0  2  0  0  0  0  0  0
  -29.4590  -22.5940   18.9860 C   0  0  0  0  0  3  0  0  0  0  0  0
  -28.3880  -24.0040   20.6230 C   0  0  0  0  0  3  0  0  0  0  0  0
  -28.7870  -22.6540   20.2190 C   0  0  0  0  0  0  0  0  0  0  0  0
  -29.6670  -23.7650   18.2290 C   0  0  0  0  0  0  0  0  0  0  0  0
  -28.6330  -25.1710   19.7840 C   0  0  0  0  0  0  0  0  0  0  0  0
  -30.3600  -23.7180   16.8890 C   0  0  0  0  0  1  0  0  0  0  0  0
  -29.2750  -25.0000   18.6130 N   0  0  0  0  0  0  0  0  0  0  0  0
  -28.5140  -26.5580   20.1180 O   0  0  0  0  0  0  0  0  0  0  0  0
  -24.6750  -31.8370   23.1450 C   0  0  0  0  0  0  0  0  0  0  0  0
  -27.3710  -27.3830   19.9970 C   0  0  0  0  0  0  0  0  0  0  0  0
  -23.4980  -30.4660   21.4550 C   0  0  0  0  0  3  0  0  0  0  0  0
  -24.9820  -28.9790   19.9750 C   0  0  0  0  0  0  0  0  0  0  0  0
  -26.0260  -30.8290   21.2850 C   0  0  0  0  0  2  0  0  0  0  0  0
  -26.1320  -29.4710   20.6020 C   0  0  0  0  0  0  0  0  0  0  0  0
  -27.3250  -28.6830   20.6050 C   0  0  0  0  0  3  0  0  0  0  0  0
  -26.2050  -26.9510   19.3290 C   0  0  0  0  0  3  0  0  0  0  0  0
  -25.0220  -27.7300   19.3210 C   0  0  0  0  0  3  0  0  0  0  0  0
  -23.7270  -29.8270   20.0520 C   0  0  0  0  0  2  0  0  0  0  0  0
  -24.7500  -31.0620   22.0190 N   0  0  0  0  0  0  0  0  0  0  0  0
  -23.5900  -32.0800   23.6880 O   0  0  0  0  0  0  0  0  0  0  0  0
  -22.8570  -29.4110   22.3890 C   0  0  0  0  0  0  0  0  0  0  0  0
  -21.5310  -29.2340   22.2770 N   0  0  0  0  0  0  0  0  0  0  0  0
  -23.5570  -28.7620   23.1690 O   0  0  0  0  0  0  0  0  0  0  0  0
  -21.0300  -29.8120   21.6200 H   0  0  0  0  0  0  0  0  0  0  0  0
  -18.1720  -28.0020   22.8050 C   0  0  0  0  0  0  0  0  0  0  0  0
  -20.7340  -28.2500   23.0220 C   0  0  0  0  0  3  0  0  0  0  0  0
  -20.8160  -26.8510   22.3770 C   0  0  0  0  0  2  0  0  0  0  0  0
  -19.6880  -26.5630   21.3800 C   0  0  0  0  0  2  0  0  0  0  0  0
  -18.3250  -26.6860   22.0610 C   0  0  0  0  0  2  0  0  0  0  0  0
  -19.3030  -28.7430   23.2450 C   0  0  0  0  0  0  0  0  0  0  0  0
  -19.1050  -29.9750   23.9030 C   0  0  0  0  0  3  0  0  0  0  0  0
  -17.8060  -30.4650   24.1370 C   0  0  0  0  0  3  0  0  0  0  0  0
  -16.6920  -29.7190   23.7200 C   0  0  0  0  0  3  0  0  0  0  0  0
  -16.8740  -28.4910   23.0570 C   0  0  0  0  0  3  0  0  0  0  0  0
  -25.9460  -32.4740   23.7890 C   0  0  0  0  0  3  0  0  0  0  0  0
  -26.4600  -31.6910   25.0580 C   0  0  1  0  0  0  0  0  0  0  0  0
  -25.3650  -31.4250   26.1160 C   0  0  0  0  0  1  0  0  0  0  0  0
  -27.0670  -30.3310   24.6480 C   0  0  0  0  0  1  0  0  0  0  0  0
  -27.5930  -32.4940   25.7400 C   0  0  0  0  0  1  0  0  0  0  0  0
  -25.6180  -33.8660   24.1400 N   0  0  0  0  0  0  0  0  0  0  0  0
  -25.9360  -34.9350   23.4020 C   0  0  0  0  0  0  0  0  0  0  0  0
  -26.6100  -34.8580   22.3700 O   0  0  0  0  0  0  0  0  0  0  0  0
  -25.0070  -33.9980   24.9340 H   0  0  0  0  0  0  0  0  0  0  0  0
  -24.1850  -36.7140   23.0710 C   0  0  0  0  0  1  0  0  0  0  0  0
  -25.4300  -36.3120   23.8800 C   0  0  0  0  0  3  0  0  0  0  0  0
  -27.5510  -37.2130   24.7270 C   0  0  0  0  0  1  0  0  0  0  0  0
  -26.4490  -37.3810   23.7820 N   0  0  0  0  0  0  0  0  0  0  0  0
  -26.0300  -38.2940   23.9360 H   0  0  0  0  0  0  0  0  0  0  0  0
  2 19  1  0
  2  5  1  0
  3  6  1  0
  3  1  1  0
  4 50  1  0
  4  9  1  0
  4  2  1  0
  5  8  1  1
  5  1  1  0
  7  5  1  0
  9  3  1  0
  9 10  1  6
 11 19  1  0
 12 17  1  0
 13 14  1  0
 13 12  1  0
 15 14  1  0
 15 24  1  0
 15 16  1  0
 17 11  1  0
 17 16  1  0
 18 11  2  0
 19 20  1  0
 21 22  2  0
 22 41  1  0
 23 22  1  0
 23 26  1  0
 24 25  1  0
 24 21  1  0
 25 23  2  0
 26 27  1  0
 27 28  2  0
 29 32  1  0
 29 28  1  0
 30 29  2  0
 31 30  1  0
 31 26  2  0
 32 33  1  0
 33 34  1  0
 34 35  2  0
 36 35  1  0
 36 40  1  0
 37 36  2  0
 38 33  2  0
 38 37  1  0
 39 38  1  0
 41 42  1  0
 42 45  1  0
 42 44  1  0
 43 41  2  0
 46 21  1  0
 46 47  1  0
 48 46  1  0
 50 49  1  0
 51  9  1  0
 52 54  1  0
 54 53  2  0
 54 51  1  0
 55 58  1  0
 55 52  2  0
 56 59  1  0
 56 53  1  0
 57 55  1  0
 58 56  2  0
 60 71  2  0
 61 59  1  0
 61 66  1  0
 62 70  1  0
 62 72  1  0
 63 69  1  0
 63 65  1  0
 64 70  1  0
 65 66  2  0
 65 64  1  0
 67 61  2  0
 68 67  1  0
 68 63  2  0
 69 62  1  0
 70 60  1  0
 72 74  2  0
 73 72  1  0
 75 73  1  0
 76 85  2  0
 76 81  1  0
 77 73  1  0
 77 81  1  0
 78 77  1  0
 79 80  1  0
 79 78  1  0
 80 76  1  0
 81 82  2  0
 82 83  1  0
 84 83  2  0
 85 84  1  0
 86 60  1  0
 86 91  1  0
 86 87  1  0
 87 90  1  1
 87 88  1  0
 89 87  1  0
 91 94  1  0
 92 96  1  0
 92 91  1  0
 93 92  2  0
 96 95  1  0
 98 96  1  0
 98 99  1  0
 98 97  1  0
M  ISO  4  11 100  19 100  56 101  59 101
M  END
>  <TORSDO>  (35) 
F 19

>  <SCORE>  (35) 
-12.583

>  <name>  (35) 
34

>  <ligand_id>  (35) 
34

>  <original_smiles>  (35) 
[H]c1c([H])c([H])c2c(c1[H])C([H])([H])C([H])([H])C([H])([H])C2([H])N([H])C(=O)C1([H])N(C(=O)C([H])(N([H])C(=O)C([H])(N([H])C([H])([H])[H])C([H])([H])[H])C(C([H])([H])[H])(C([H])([H])[H])C([H])([H])[H])C([H])([H])c2c([H])c(Oc3nc(C([H])([H])[H])c([H])c(C([H])([H])[N+]4([H])C([H])(C([H])([H])[H])C([H])([H])C(C([H])([H])[H])(C([H])([H])[H])C([H])(N([H])C(=O)N5C([H])([H])C([H])([H])C([H])([H])C([H])(n6nc(-c7c([H])c([H])c(Oc8c([H])c([H])c(F)c([H])c8F)c([H])c7[H])c(C(=O)N([H])[H])c6N([H])[H])C5([H])[H])C4([H])C([H])([H])C([H])([H])[H])c3[H])c([H])c([H])c2C1([H])[H]

>  <smiles>  (35) 
[H]c1c([H])c([H])c2c(c1[H])C([H])([H])C([H])([H])C([H])([H])C2([H])N([H])C(=O)C1([H])N(C(=O)C([H])(N([H])C(=O)C([H])(N([H])C([H])([H])[H])C([H])([H])[H])C(C([H])([H])[H])(C([H])([H])[H])C([H])([H])[H])C([H])([H])c2c([H])c(Oc3nc(C([H])([H])[H])c([H])c(C([H])([H])[N+]4([H])C([H])(C([H])([H])[H])C([H])([H])C(C([H])([H])[H])(C([H])([H])[H])C([H])(N([H])C(=O)N5C([H])([H])C([H])([H])C([H])([H])C([H])(n6nc(-c7c([H])c([H])c(Oc8c([H])c([H])c(F)c([H])c8F)c([H])c7[H])c(C(=O)N([H])[H])c6N([H])[H])C5([H])[H])C4([H])C([H])([H])C([H])([H])[H])c3[H])c([H])c([H])c2C1([H])[H]

$$$$
35:0:0
     RDKit          3D

 97106  0  0  1  0  0  0  0  0999 V2000
  -27.7290  -24.3280   20.6890 C   0  0  0  0  0  3  0  0  0  0  0  0
  -27.5680  -23.0060   21.1690 C   0  0  0  0  0  0  0  0  0  0  0  0
  -28.7470  -24.6140   19.7580 C   0  0  0  0  0  0  0  0  0  0  0  0
  -28.4460  -21.9920   20.7170 C   0  0  0  0  0  0  0  0  0  0  0  0
  -29.5780  -23.5310   19.3630 C   0  0  0  0  0  0  0  0  0  0  0  0
  -26.4410  -22.6970   22.1430 C   0  0  0  0  0  1  0  0  0  0  0  0
  -30.7130  -23.7130   18.3720 C   0  0  0  0  0  1  0  0  0  0  0  0
  -29.4340  -22.2630   19.8300 N   0  0  0  0  0  0  0  0  0  0  0  0
  -28.8910  -26.0210   19.1330 C   0  0  0  0  0  2  0  0  0  0  0  0
  -28.6620  -27.1570   19.9910 O   0  0  0  0  0  0  0  0  0  0  0  0
  -24.7230  -32.0240   23.3770 C   0  0  0  0  0  0  0  0  0  0  0  0
  -27.4590  -27.8460   19.9920 C   0  0  0  0  0  0  0  0  0  0  0  0
  -23.5450  -30.7140   21.6410 C   0  0  0  0  0  3  0  0  0  0  0  0
  -25.0290  -29.3140   20.1040 C   0  0  0  0  0  0  0  0  0  0  0  0
  -26.0640  -31.1380   21.4690 C   0  0  0  0  0  2  0  0  0  0  0  0
  -26.1770  -29.8160   20.7310 C   0  0  0  0  0  0  0  0  0  0  0  0
  -27.3890  -29.0880   20.6710 C   0  0  0  0  0  3  0  0  0  0  0  0
  -26.2850  -27.3570   19.3700 C   0  0  0  0  0  3  0  0  0  0  0  0
  -25.0800  -28.0860   19.4210 C   0  0  0  0  0  3  0  0  0  0  0  0
  -23.7670  -30.1410   20.2150 C   0  0  0  0  0  2  0  0  0  0  0  0
  -24.7950  -31.3040   22.2210 N   0  0  0  0  0  0  0  0  0  0  0  0
  -23.6360  -32.2310   23.9360 O   0  0  0  0  0  0  0  0  0  0  0  0
  -22.9200  -29.6120   22.5270 C   0  0  0  0  0  0  0  0  0  0  0  0
  -21.6020  -29.4020   22.3840 N   0  0  0  0  0  0  0  0  0  0  0  0
  -23.6200  -28.9520   23.3010 O   0  0  0  0  0  0  0  0  0  0  0  0
  -21.0950  -29.9890   21.7350 H   0  0  0  0  0  0  0  0  0  0  0  0
  -18.2590  -28.0960   22.8020 C   0  0  0  0  0  0  0  0  0  0  0  0
  -20.8110  -28.3940   23.0890 C   0  0  0  0  0  3  0  0  0  0  0  0
  -20.9440  -27.0100   22.4120 C   0  0  0  0  0  2  0  0  0  0  0  0
  -19.8480  -26.7350   21.3780 C   0  0  0  0  0  2  0  0  0  0  0  0
  -18.4640  -26.8040   22.0310 C   0  0  0  0  0  2  0  0  0  0  0  0
  -19.3600  -28.8510   23.2860 C   0  0  0  0  0  0  0  0  0  0  0  0
  -19.1120  -30.0650   23.9640 C   0  0  0  0  0  3  0  0  0  0  0  0
  -17.7950  -30.5220   24.1650 C   0  0  0  0  0  3  0  0  0  0  0  0
  -16.7090  -29.7620   23.6970 C   0  0  0  0  0  3  0  0  0  0  0  0
  -16.9420  -28.5510   23.0220 C   0  0  0  0  0  3  0  0  0  0  0  0
  -25.9950  -32.6390   24.0400 C   0  0  0  0  0  3  0  0  0  0  0  0
  -26.5030  -31.8230   25.2900 C   0  0  1  0  0  0  0  0  0  0  0  0
  -25.3960  -31.5270   26.3300 C   0  0  0  0  0  1  0  0  0  0  0  0
  -27.1070  -30.4690   24.8500 C   0  0  0  0  0  1  0  0  0  0  0  0
  -27.6350  -32.6010   26.0000 C   0  0  0  0  0  1  0  0  0  0  0  0
  -25.6730  -34.0220   24.4170 N   0  0  0  0  0  0  0  0  0  0  0  0
  -26.0130  -35.1030   23.7010 C   0  0  0  0  0  0  0  0  0  0  0  0
  -26.6990  -35.0410   22.6790 O   0  0  0  0  0  0  0  0  0  0  0  0
  -25.0620  -34.1450   25.2110 H   0  0  0  0  0  0  0  0  0  0  0  0
  -24.2760  -36.8960   23.3860 C   0  0  0  0  0  1  0  0  0  0  0  0
  -25.5090  -36.4710   24.2010 C   0  0  0  0  0  3  0  0  0  0  0  0
  -27.6220  -37.3410   25.0990 C   0  0  0  0  0  1  0  0  0  0  0  0
  -26.5350  -37.5340   24.1420 N   0  0  0  0  0  0  0  0  0  0  0  0
  -26.1200  -38.4450   24.3140 H   0  0  0  0  0  0  0  0  0  0  0  0
  -28.3020  -20.5220   21.1570 C   0  0  0  0  0  2  0  0  0  0  0  0
  -29.4080  -19.6880   20.6290 N   0  0  0  0  0  4  0  0  0  0  0  0
  -30.2030  -19.8270   21.2320 H   0  0  0  0  0  0  0  0  0  0  0  0
  -29.6200  -20.1730   19.7670 H   0  0  0  0  0  0  0  0  0  0  0  0
  -28.1540  -18.0040   19.2410 C   0  0  0  0  0  1  0  0  0  0  0  0
  -29.1870  -18.2240   20.3750 C   0  0  0  0  0  3  0  0  0  0  0  0
  -31.1580  -15.0110   20.4000 C   0  0  0  0  0  0  0  0  0  0  0  0
  -31.0100  -12.6510   19.7170 C   0  0  0  0  0  2  0  0  0  0  0  0
  -30.1400  -12.5180   18.4490 C   0  0  0  0  0  2  0  0  0  0  0  0
  -28.6420  -12.4380   18.8050 C   0  0  0  0  0  2  0  0  0  0  0  0
  -28.1900  -13.4890   19.8560 C   0  0  0  0  0  3  0  0  0  0  0  0
  -29.1840  -13.5790   21.0350 C   0  0  0  0  0  2  0  0  0  0  0  0
  -30.5190  -13.8110   20.4740 N   0  0  0  0  0  0  0  0  0  0  0  0
  -32.3880  -15.0970   20.3850 O   0  0  0  0  0  0  0  0  0  0  0  0
  -30.9890  -17.3510   17.7940 C   0  0  0  0  0  2  0  0  0  0  0  0
  -31.4030  -18.0980   19.0380 C   0  0  0  0  0  2  0  0  0  0  0  0
  -30.5750  -15.9750   18.3140 C   0  0  0  0  0  2  0  0  0  0  0  0
  -30.5600  -17.4620   20.1600 C   0  0  0  0  0  3  0  0  0  0  0  0
  -30.4400  -16.0100   19.7940 N   0  0  0  0  0  0  0  0  0  0  0  0
  -25.7810  -14.1410   20.4780 C   0  0  0  0  0  0  0  0  0  0  0  0
  -24.6850  -13.3880   20.8060 C   0  0  0  0  0  0  0  0  0  0  0  0
  -25.1260  -12.0320   20.8130 C   0  0  0  0  0  0  0  0  0  0  0  0
  -26.8220  -13.2410   20.3020 N   0  0  0  0  0  0  0  0  0  0  0  0
  -26.4290  -11.9680   20.5720 N   0  0  0  0  0  0  0  0  0  0  0  0
  -24.3720  -10.7840   20.9820 C   0  0  0  0  0  0  0  0  0  0  0  0
  -24.7230   -9.8410   21.9720 C   0  0  0  0  0  3  0  0  0  0  0  0
  -23.9720   -8.6560   22.1310 C   0  0  0  0  0  3  0  0  0  0  0  0
  -22.8560   -8.4050   21.2980 C   0  0  0  0  0  0  0  0  0  0  0  0
  -22.5250   -9.3370   20.2980 C   0  0  0  0  0  3  0  0  0  0  0  0
  -23.2760  -10.5140   20.1370 C   0  0  0  0  0  3  0  0  0  0  0  0
  -22.0860   -7.2690   21.3580 O   0  0  0  0  0  0  0  0  0  0  0  0
  -21.8880   -6.5970   22.5370 C   0  0  0  0  0  0  0  0  0  0  0  0
  -21.3040   -7.2200   23.6620 C   0  0  0  0  0  3  0  0  0  0  0  0
  -21.0610   -6.4740   24.8330 C   0  0  0  0  0  3  0  0  0  0  0  0
  -21.3860   -5.1050   24.8760 C   0  0  0  0  0  0  0  0  0  0  0  0
  -21.9590   -4.4810   23.7550 C   0  0  0  0  0  3  0  0  0  0  0  0
  -22.2090   -5.2250   22.5880 C   0  0  0  0  0  0  0  0  0  0  0  0
  -22.7450   -4.6160   21.5040 F   0  0  0  0  0  0  0  0  0  0  0  0
  -21.1430   -4.3850   25.9970 F   0  0  0  0  0  0  0  0  0  0  0  0
  -23.2850  -13.8930   21.0000 C   0  0  0  0  0  0  0  0  0  0  0  0
  -22.5110  -13.2280   21.8530 N   0  0  0  0  0  0  0  0  0  0  0  0
  -22.8840  -14.9070   20.4330 O   0  0  0  0  0  0  0  0  0  0  0  0
  -22.8490  -12.4060   22.3310 H   0  0  0  0  0  0  0  0  0  0  0  0
  -21.5680  -13.5440   22.0260 H   0  0  0  0  0  0  0  0  0  0  0  0
  -25.9680  -15.5040   20.2940 N   0  0  0  0  0  0  0  0  0  0  0  0
  -25.1950  -16.1580   20.3490 H   0  0  0  0  0  0  0  0  0  0  0  0
  -26.8310  -15.9280   19.9850 H   0  0  0  0  0  0  0  0  0  0  0  0
  1  2  1  0
  2  6  1  0
  3  1  2  0
  4 51  1  0
  4  2  2  0
  5  3  1  0
  5  8  2  0
  7  5  1  0
  8  4  1  0
  9  3  1  0
  9 10  1  0
 10 12  1  0
 11 22  2  0
 12 17  1  0
 13 21  1  0
 13 23  1  0
 14 20  1  0
 14 16  1  0
 15 21  1  0
 16 15  1  0
 17 16  2  0
 18 19  1  0
 18 12  2  0
 19 14  2  0
 20 13  1  0
 21 11  1  0
 23 25  2  0
 24 23  1  0
 26 24  1  0
 27 36  2  0
 27 32  1  0
 28 24  1  0
 28 32  1  0
 29 28  1  0
 30 31  1  0
 30 29  1  0
 31 27  1  0
 32 33  2  0
 33 34  1  0
 35 34  2  0
 36 35  1  0
 37 11  1  0
 37 42  1  0
 37 38  1  0
 38 41  1  1
 38 39  1  0
 40 38  1  0
 42 45  1  0
 43 47  1  0
 43 42  1  0
 44 43  2  0
 47 46  1  0
 49 47  1  0
 49 50  1  0
 49 48  1  0
 52 51  1  0
 52 53  1  0
 54 52  1  0
 56 55  1  0
 56 52  1  0
 57 63  1  0
 58 63  1  0
 59 60  1  0
 59 58  1  0
 61 60  1  0
 61 73  1  0
 61 62  1  0
 63 62  1  0
 64 57  2  0
 65 67  1  0
 65 66  1  0
 66 68  1  0
 67 69  1  0
 68 56  1  0
 69 68  1  0
 69 57  1  0
 70 71  2  0
 71 72  1  0
 71 90  1  0
 72 75  1  0
 73 70  1  0
 73 74  1  0
 74 72  2  0
 75 76  1  0
 76 77  2  0
 78 81  1  0
 78 77  1  0
 79 78  2  0
 80 79  1  0
 80 75  2  0
 81 82  1  0
 82 87  2  0
 82 83  1  0
 83 84  2  0
 84 85  1  0
 85 89  1  0
 86 85  2  0
 87 86  1  0
 88 87  1  0
 90 91  1  0
 91 94  1  0
 91 93  1  0
 92 90  2  0
 95 96  1  0
 95 70  1  0
 97 95  1  0
M  ISO  4   9 101  10 101  57 100  69 100
M  END
>  <TORSDO>  (36) 
F 20

>  <SCORE>  (36) 
-11.949

>  <name>  (36) 
35

>  <ligand_id>  (36) 
35

>  <original_smiles>  (36) 
[H]c1c([H])c([H])c2c(c1[H])C([H])([H])C([H])([H])C([H])([H])C2([H])N([H])C(=O)C1([H])N(C(=O)C([H])(N([H])C(=O)C([H])(N([H])C([H])([H])[H])C([H])([H])[H])C(C([H])([H])[H])(C([H])([H])[H])C([H])([H])[H])C([H])([H])c2c([H])c(OC([H])([H])c3c(C([H])([H])[H])nc(C([H])([H])[N+]([H])([H])C([H])(C([H])([H])[H])C4([H])N(C(=O)N5C([H])([H])C([H])([H])C([H])([H])C([H])(n6nc(-c7c([H])c([H])c(Oc8c([H])c([H])c(F)c([H])c8F)c([H])c7[H])c(C(=O)N([H])[H])c6N([H])[H])C5([H])[H])C([H])([H])C([H])([H])C4([H])[H])c(C([H])([H])[H])c3[H])c([H])c([H])c2C1([H])[H]

>  <smiles>  (36) 
[H]c1c([H])c([H])c2c(c1[H])C([H])([H])C([H])([H])C([H])([H])C2([H])N([H])C(=O)C1([H])N(C(=O)C([H])(N([H])C(=O)C([H])(N([H])C([H])([H])[H])C([H])([H])[H])C(C([H])([H])[H])(C([H])([H])[H])C([H])([H])[H])C([H])([H])c2c([H])c(OC([H])([H])c3c(C([H])([H])[H])nc(C([H])([H])[N+]([H])([H])C([H])(C([H])([H])[H])C4([H])N(C(=O)N5C([H])([H])C([H])([H])C([H])([H])C([H])(n6nc(-c7c([H])c([H])c(Oc8c([H])c([H])c(F)c([H])c8F)c([H])c7[H])c(C(=O)N([H])[H])c6N([H])[H])C5([H])[H])C([H])([H])C([H])([H])C4([H])[H])c(C([H])([H])[H])c3[H])c([H])c([H])c2C1([H])[H]

$$$$
36:0:0
     RDKit          3D

 98107  0  0  1  0  0  0  0  0999 V2000
  -27.9240  -22.6850   19.5370 C   0  0  0  0  0  2  0  0  0  0  0  0
  -28.9890  -21.9840   20.2090 C   0  0  0  0  0  0  0  0  0  0  0  0
  -29.6890  -22.9600   21.0030 C   0  0  0  0  0  0  0  0  0  0  0  0
  -28.3690  -24.8760   20.3930 C   0  0  0  0  0  0  0  0  0  0  0  0
  -27.6380  -24.0530   19.6090 N   0  0  0  0  0  0  0  0  0  0  0  0
  -29.3870  -24.3120   21.0720 N   0  0  0  0  0  0  0  0  0  0  0  0
  -29.0790  -19.7520   18.5730 C   0  0  0  0  0  2  0  0  0  0  0  0
  -29.5110  -20.4170   19.9010 C   0  0  0  0  0  3  0  0  0  0  0  0
  -30.0360  -17.7690   19.9220 C   0  0  0  0  0  3  0  0  0  0  0  0
  -29.3920  -19.0290   20.7740 C   0  0  0  0  0  3  0  0  0  0  0  0
  -29.6750  -18.2760   18.4750 C   0  0  1  0  0  0  0  0  0  0  0  0
  -28.6480  -17.3580   17.7770 C   0  0  0  0  0  1  0  0  0  0  0  0
  -30.9520  -18.3000   17.6110 C   0  0  0  0  0  1  0  0  0  0  0  0
  -30.5720  -15.0610   19.9500 C   0  0  0  0  0  0  0  0  0  0  0  0
  -30.4260  -12.7260   18.9790 C   0  0  0  0  0  2  0  0  0  0  0  0
  -29.4110  -12.6970   17.8130 C   0  0  0  0  0  2  0  0  0  0  0  0
  -27.9850  -12.4520   18.3380 C   0  0  0  0  0  2  0  0  0  0  0  0
  -27.6470  -13.3440   19.5610 C   0  0  0  0  0  3  0  0  0  0  0  0
  -28.7760  -13.3500   20.6140 C   0  0  0  0  0  2  0  0  0  0  0  0
  -29.9970  -13.7920   19.9290 N   0  0  0  0  0  0  0  0  0  0  0  0
  -31.7410  -15.1550   19.5650 O   0  0  0  0  0  0  0  0  0  0  0  0
  -29.7880  -16.2250   20.1930 N   0  0  0  0  0  0  0  0  0  0  0  0
  -28.8460  -16.0090   20.4850 H   0  0  0  0  0  0  0  0  0  0  0  0
  -25.3270  -13.8660   20.5030 C   0  0  0  0  0  0  0  0  0  0  0  0
  -24.2990  -13.0640   20.9180 C   0  0  0  0  0  0  0  0  0  0  0  0
  -24.7670  -11.7210   20.7900 C   0  0  0  0  0  0  0  0  0  0  0  0
  -26.3530  -13.0100   20.1440 N   0  0  0  0  0  0  0  0  0  0  0  0
  -26.0320  -11.7120   20.3810 N   0  0  0  0  0  0  0  0  0  0  0  0
  -24.0630  -10.4450   20.9730 C   0  0  0  0  0  0  0  0  0  0  0  0
  -24.5160   -9.4780   21.8980 C   0  0  0  0  0  3  0  0  0  0  0  0
  -23.8100   -8.2680   22.0730 C   0  0  0  0  0  3  0  0  0  0  0  0
  -22.6370   -8.0160   21.3230 C   0  0  0  0  0  0  0  0  0  0  0  0
  -22.2030   -8.9710   20.3870 C   0  0  0  0  0  3  0  0  0  0  0  0
  -22.9090  -10.1740   20.2110 C   0  0  0  0  0  3  0  0  0  0  0  0
  -21.9020   -6.8580   21.4060 O   0  0  0  0  0  0  0  0  0  0  0  0
  -21.7960   -6.1560   22.5800 C   0  0  0  0  0  0  0  0  0  0  0  0
  -21.2380   -6.7300   23.7430 C   0  0  0  0  0  3  0  0  0  0  0  0
  -21.0840   -5.9520   24.9080 C   0  0  0  0  0  3  0  0  0  0  0  0
  -21.4790   -4.6000   24.9090 C   0  0  0  0  0  0  0  0  0  0  0  0
  -22.0290   -4.0260   23.7500 C   0  0  0  0  0  3  0  0  0  0  0  0
  -22.1840   -4.8010   22.5890 C   0  0  0  0  0  0  0  0  0  0  0  0
  -22.6960   -4.2370   21.4680 F   0  0  0  0  0  0  0  0  0  0  0  0
  -21.3240   -3.8500   26.0250 F   0  0  0  0  0  0  0  0  0  0  0  0
  -22.9230  -13.5170   21.3140 C   0  0  0  0  0  0  0  0  0  0  0  0
  -22.2730  -12.7840   22.2110 N   0  0  0  0  0  0  0  0  0  0  0  0
  -22.4380  -14.5540   20.8640 O   0  0  0  0  0  0  0  0  0  0  0  0
  -22.6810  -11.9450   22.5940 H   0  0  0  0  0  0  0  0  0  0  0  0
  -21.3530  -13.0660   22.5190 H   0  0  0  0  0  0  0  0  0  0  0  0
  -25.4660  -15.2450   20.3750 N   0  0  0  0  0  0  0  0  0  0  0  0
  -24.6900  -15.8740   20.5480 H   0  0  0  0  0  0  0  0  0  0  0  0
  -26.2530  -15.7000   19.9330 H   0  0  0  0  0  0  0  0  0  0  0  0
  -29.9890  -19.1390   22.1110 N   0  0  0  0  0  4  0  0  0  0  0  0
  -30.9700  -19.3500   22.0600 H   0  0  0  0  0  0  0  0  0  0  0  0
  -29.8800  -18.2720   22.6060 H   0  0  0  0  0  0  0  0  0  0  0  0
  -29.5200  -19.8540   22.6380 H   0  0  0  0  0  0  0  0  0  0  0  0
  -30.5400  -22.3680   23.3210 C   0  0  0  0  0  1  0  0  0  0  0  0
  -30.9010  -22.5850   21.8460 C   0  0  0  0  0  2  0  0  0  0  0  0
  -28.3460  -26.3200   20.3300 O   0  0  0  0  0  0  0  0  0  0  0  0
  -24.6550  -31.9650   23.3100 C   0  0  0  0  0  0  0  0  0  0  0  0
  -27.2230  -27.2270   20.3070 C   0  0  0  0  0  0  0  0  0  0  0  0
  -23.4560  -30.5780   21.6590 C   0  0  0  0  0  3  0  0  0  0  0  0
  -24.9010  -28.9840   20.2490 C   0  0  0  0  0  0  0  0  0  0  0  0
  -26.0090  -30.8230   21.5140 C   0  0  0  0  0  2  0  0  0  0  0  0
  -26.0740  -29.4270   20.8700 C   0  0  0  0  0  0  0  0  0  0  0  0
  -27.2310  -28.5640   20.8820 C   0  0  0  0  0  3  0  0  0  0  0  0
  -26.0250  -26.8820   19.6450 C   0  0  0  0  0  3  0  0  0  0  0  0
  -24.8890  -27.7250   19.6250 C   0  0  0  0  0  3  0  0  0  0  0  0
  -23.6820  -29.8940   20.2830 C   0  0  0  0  0  2  0  0  0  0  0  0
  -24.7260  -31.1460   22.2170 N   0  0  0  0  0  0  0  0  0  0  0  0
  -23.5680  -32.2600   23.8310 O   0  0  0  0  0  0  0  0  0  0  0  0
  -22.7620  -29.5780   22.6180 C   0  0  0  0  0  0  0  0  0  0  0  0
  -21.4360  -29.4110   22.4740 N   0  0  0  0  0  0  0  0  0  0  0  0
  -23.4210  -28.9530   23.4520 O   0  0  0  0  0  0  0  0  0  0  0  0
  -20.9600  -29.9690   21.7780 H   0  0  0  0  0  0  0  0  0  0  0  0
  -18.0420  -28.2380   22.9480 C   0  0  0  0  0  0  0  0  0  0  0  0
  -20.6000  -28.4800   23.2370 C   0  0  0  0  0  3  0  0  0  0  0  0
  -20.6950  -27.0480   22.6590 C   0  0  0  0  0  2  0  0  0  0  0  0
  -19.5990  -26.7370   21.6350 C   0  0  0  0  0  2  0  0  0  0  0  0
  -18.2140  -26.8910   22.2690 C   0  0  0  0  0  2  0  0  0  0  0  0
  -19.1630  -28.9920   23.3880 C   0  0  0  0  0  0  0  0  0  0  0  0
  -18.9470  -30.2530   23.9860 C   0  0  0  0  0  3  0  0  0  0  0  0
  -17.6450  -30.7600   24.1470 C   0  0  0  0  0  3  0  0  0  0  0  0
  -16.5390  -30.0050   23.7220 C   0  0  0  0  0  3  0  0  0  0  0  0
  -16.7380  -28.7450   23.1270 C   0  0  0  0  0  3  0  0  0  0  0  0
  -25.9330  -32.5890   23.9500 C   0  0  0  0  0  3  0  0  0  0  0  0
  -26.4210  -31.8200   25.2390 C   0  0  1  0  0  0  0  0  0  0  0  0
  -25.3070  -31.5950   26.2880 C   0  0  0  0  0  1  0  0  0  0  0  0
  -27.0020  -30.4360   24.8670 C   0  0  0  0  0  1  0  0  0  0  0  0
  -27.5640  -32.6100   25.9190 C   0  0  0  0  0  1  0  0  0  0  0  0
  -25.6360  -33.9940   24.2730 N   0  0  0  0  0  0  0  0  0  0  0  0
  -25.9500  -35.0400   23.4980 C   0  0  0  0  0  0  0  0  0  0  0  0
  -26.5880  -34.9250   22.4490 O   0  0  0  0  0  0  0  0  0  0  0  0
  -25.0700  -34.1570   25.0930 H   0  0  0  0  0  0  0  0  0  0  0  0
  -24.1990  -36.8250   23.2070 C   0  0  0  0  0  1  0  0  0  0  0  0
  -25.4830  -36.4350   23.9580 C   0  0  0  0  0  3  0  0  0  0  0  0
  -27.6480  -37.3490   24.6710 C   0  0  0  0  0  1  0  0  0  0  0  0
  -26.5040  -37.4900   23.7750 N   0  0  0  0  0  0  0  0  0  0  0  0
  -26.1010  -38.4120   23.9200 H   0  0  0  0  0  0  0  0  0  0  0  0
  1  5  1  0
  1  2  1  0
  2  3  2  0
  3  6  1  0
  3 57  1  0
  4  6  2  0
  5  4  2  0
  7  8  1  0
  8  2  1  0
  8 10  1  0
  9 22  1  0
  9 10  1  0
 10 52  1  0
 11  7  1  0
 11  9  1  0
 11 12  1  6
 13 11  1  0
 14 22  1  0
 15 20  1  0
 16 17  1  0
 16 15  1  0
 18 17  1  0
 18 27  1  0
 18 19  1  0
 20 14  1  0
 20 19  1  0
 21 14  2  0
 22 23  1  0
 24 25  2  0
 25 44  1  0
 26 25  1  0
 26 29  1  0
 27 28  1  0
 27 24  1  0
 28 26  2  0
 29 30  1  0
 30 31  2  0
 32 35  1  0
 32 31  1  0
 33 32  2  0
 34 33  1  0
 34 29  2  0
 35 36  1  0
 36 41  2  0
 36 37  1  0
 37 38  2  0
 38 39  1  0
 39 43  1  0
 40 39  2  0
 41 40  1  0
 42 41  1  0
 44 45  1  0
 45 48  1  0
 45 47  1  0
 46 44  2  0
 49 24  1  0
 49 50  1  0
 51 49  1  0
 52 54  1  0
 52 55  1  0
 53 52  1  0
 57 56  1  0
 58  4  1  0
 59 70  2  0
 60 58  1  0
 60 65  1  0
 61 69  1  0
 61 71  1  0
 62 68  1  0
 62 64  1  0
 63 69  1  0
 64 65  2  0
 64 63  1  0
 66 60  2  0
 67 66  1  0
 67 62  2  0
 68 61  1  0
 69 59  1  0
 71 73  2  0
 72 71  1  0
 74 72  1  0
 75 84  2  0
 75 80  1  0
 76 72  1  0
 76 80  1  0
 77 76  1  0
 78 79  1  0
 78 77  1  0
 79 75  1  0
 80 81  2  0
 81 82  1  0
 83 82  2  0
 84 83  1  0
 85 59  1  0
 85 90  1  0
 85 86  1  0
 86 89  1  1
 86 87  1  0
 88 86  1  0
 90 93  1  0
 91 95  1  0
 91 90  1  0
 92 91  2  0
 95 94  1  0
 97 98  1  0
 97 95  1  0
 97 96  1  0
M  ISO  4   4 101  14 100  22 100  58 101
M  END
>  <TORSDO>  (37) 
F 19

>  <SCORE>  (37) 
-13.876

>  <name>  (37) 
36

>  <ligand_id>  (37) 
36

>  <original_smiles>  (37) 
[H]c1nc(Oc2c([H])c([H])c3c(c2[H])C([H])([H])N(C(=O)C([H])(N([H])C(=O)C([H])(N([H])C([H])([H])[H])C([H])([H])[H])C(C([H])([H])[H])(C([H])([H])[H])C([H])([H])[H])C([H])(C(=O)N([H])C2([H])c4c([H])c([H])c([H])c([H])c4C([H])([H])C([H])([H])C2([H])[H])C3([H])[H])nc(C([H])([H])C([H])([H])[H])c1C1([H])C([H])([H])C(C([H])([H])[H])(C([H])([H])[H])C([H])(N([H])C(=O)N2C([H])([H])C([H])([H])C([H])([H])C([H])(n3nc(-c4c([H])c([H])c(Oc5c([H])c([H])c(F)c([H])c5F)c([H])c4[H])c(C(=O)N([H])[H])c3N([H])[H])C2([H])[H])C1([H])[N+]([H])([H])[H]

>  <smiles>  (37) 
[H]c1nc(Oc2c([H])c([H])c3c(c2[H])C([H])([H])N(C(=O)C([H])(N([H])C(=O)C([H])(N([H])C([H])([H])[H])C([H])([H])[H])C(C([H])([H])[H])(C([H])([H])[H])C([H])([H])[H])C([H])(C(=O)N([H])C2([H])c4c([H])c([H])c([H])c([H])c4C([H])([H])C([H])([H])C2([H])[H])C3([H])[H])nc(C([H])([H])C([H])([H])[H])c1C1([H])C([H])([H])C(C([H])([H])[H])(C([H])([H])[H])C([H])(N([H])C(=O)N2C([H])([H])C([H])([H])C([H])([H])C([H])(n3nc(-c4c([H])c([H])c(Oc5c([H])c([H])c(F)c([H])c5F)c([H])c4[H])c(C(=O)N([H])[H])c3N([H])[H])C2([H])[H])C1([H])[N+]([H])([H])[H]

$$$$
37:0:0
     RDKit          3D

 92101  0  0  1  0  0  0  0  0999 V2000
  -27.9670  -22.4120   20.8980 C   0  0  0  0  0  3  0  0  0  0  0  0
  -27.6430  -23.8380   20.9630 C   0  0  0  0  0  0  0  0  0  0  0  0
  -29.0500  -21.9130   20.0970 C   0  0  0  0  0  0  0  0  0  0  0  0
  -28.3600  -24.8140   20.1750 C   0  0  0  0  0  0  0  0  0  0  0  0
  -26.5850  -24.2820   21.9580 C   0  0  0  0  0  1  0  0  0  0  0  0
  -29.6950  -22.9110   19.3970 N   0  0  0  0  0  0  0  0  0  0  0  0
  -29.3760  -24.2510   19.4290 N   0  0  0  0  0  0  0  0  0  0  0  0
  -29.6170  -20.5410   19.9810 N   0  0  0  0  0  0  0  0  0  0  0  0
  -30.4910  -20.5730   19.4670 H   0  0  0  0  0  0  0  0  0  0  0  0
  -28.3120  -26.2890   20.2050 O   0  0  0  0  0  0  0  0  0  0  0  0
  -24.6260  -31.9050   23.2370 C   0  0  0  0  0  0  0  0  0  0  0  0
  -27.1980  -27.2000   20.2010 C   0  0  0  0  0  0  0  0  0  0  0  0
  -23.4170  -30.5040   21.6080 C   0  0  0  0  0  3  0  0  0  0  0  0
  -24.8560  -28.9210   20.1800 C   0  0  0  0  0  0  0  0  0  0  0  0
  -25.9650  -30.7780   21.4220 C   0  0  0  0  0  2  0  0  0  0  0  0
  -26.0360  -29.3800   20.7810 C   0  0  0  0  0  0  0  0  0  0  0  0
  -27.2040  -28.5330   20.7740 C   0  0  0  0  0  3  0  0  0  0  0  0
  -25.9960  -26.8320   19.5620 C   0  0  0  0  0  3  0  0  0  0  0  0
  -24.8470  -27.6580   19.5580 C   0  0  0  0  0  3  0  0  0  0  0  0
  -23.6290  -29.8200   20.2280 C   0  0  0  0  0  2  0  0  0  0  0  0
  -24.6890  -31.0850   22.1440 N   0  0  0  0  0  0  0  0  0  0  0  0
  -23.5420  -32.1890   23.7720 O   0  0  0  0  0  0  0  0  0  0  0  0
  -22.7450  -29.4990   22.5760 C   0  0  0  0  0  0  0  0  0  0  0  0
  -21.4180  -29.3240   22.4520 N   0  0  0  0  0  0  0  0  0  0  0  0
  -23.4210  -28.8790   23.4010 O   0  0  0  0  0  0  0  0  0  0  0  0
  -20.9270  -29.8780   21.7630 H   0  0  0  0  0  0  0  0  0  0  0  0
  -18.0430  -28.1090   22.9640 C   0  0  0  0  0  0  0  0  0  0  0  0
  -20.6020  -28.3870   23.2290 C   0  0  0  0  0  3  0  0  0  0  0  0
  -20.7100  -26.9530   22.6620 C   0  0  0  0  0  2  0  0  0  0  0  0
  -19.6100  -26.6170   21.6500 C   0  0  0  0  0  2  0  0  0  0  0  0
  -18.2270  -26.7570   22.2940 C   0  0  0  0  0  2  0  0  0  0  0  0
  -19.1580  -28.8800   23.3880 C   0  0  0  0  0  0  0  0  0  0  0  0
  -18.9320  -30.1420   23.9780 C   0  0  0  0  0  3  0  0  0  0  0  0
  -17.6240  -30.6360   24.1430 C   0  0  0  0  0  3  0  0  0  0  0  0
  -16.5240  -29.8630   23.7330 C   0  0  0  0  0  3  0  0  0  0  0  0
  -16.7340  -28.6010   23.1500 C   0  0  0  0  0  3  0  0  0  0  0  0
  -25.9080  -32.5420   23.8570 C   0  0  0  0  0  3  0  0  0  0  0  0
  -25.5960  -33.9420   24.1910 N   0  0  0  0  0  0  0  0  0  0  0  0
  -25.9170  -34.9990   23.4320 C   0  0  0  0  0  0  0  0  0  0  0  0
  -26.5730  -34.8980   22.3920 O   0  0  0  0  0  0  0  0  0  0  0  0
  -25.0110  -34.0930   25.0000 H   0  0  0  0  0  0  0  0  0  0  0  0
  -24.1790  -36.7900   23.1130 C   0  0  0  0  0  1  0  0  0  0  0  0
  -25.4370  -36.3880   23.9010 C   0  0  0  0  0  3  0  0  0  0  0  0
  -27.5860  -37.2750   24.6880 C   0  0  0  0  0  1  0  0  0  0  0  0
  -26.4650  -37.4430   23.7670 N   0  0  0  0  0  0  0  0  0  0  0  0
  -26.0630  -38.3630   23.9220 H   0  0  0  0  0  0  0  0  0  0  0  0
  -26.4270  -31.7740   25.1340 C   0  0  1  0  0  0  0  0  0  0  0  0
  -25.3370  -31.5400   26.2070 C   0  0  0  0  0  1  0  0  0  0  0  0
  -27.0100  -30.3960   24.7480 C   0  0  0  0  0  1  0  0  0  0  0  0
  -27.5830  -32.5670   25.7900 C   0  0  0  0  0  1  0  0  0  0  0  0
  -29.1580  -19.0660   20.2290 C   0  0  0  0  0  2  0  0  0  0  0  0
  -30.5750  -15.0400   19.9770 C   0  0  0  0  0  0  0  0  0  0  0  0
  -30.3620  -12.7190   18.9420 C   0  0  0  0  0  2  0  0  0  0  0  0
  -29.3510  -12.7020   17.7720 C   0  0  0  0  0  2  0  0  0  0  0  0
  -27.9220  -12.4600   18.2940 C   0  0  0  0  0  2  0  0  0  0  0  0
  -27.5910  -13.3480   19.5200 C   0  0  0  0  0  3  0  0  0  0  0  0
  -28.7170  -13.3310   20.5750 C   0  0  0  0  0  2  0  0  0  0  0  0
  -29.9480  -13.7860   19.9100 N   0  0  0  0  0  0  0  0  0  0  0  0
  -31.7040  -15.1040   19.4740 O   0  0  0  0  0  0  0  0  0  0  0  0
  -30.6600  -17.3240   22.4720 C   0  0  0  0  0  2  0  0  0  0  0  0
  -31.2780  -18.0300   21.2700 C   0  0  0  0  0  2  0  0  0  0  0  0
  -29.6960  -16.2740   21.8860 C   0  0  0  0  0  2  0  0  0  0  0  0
  -30.2570  -17.7700   20.1620 C   0  0  0  0  0  3  0  0  0  0  0  0
  -29.9130  -16.2370   20.4320 N   0  0  0  0  0  0  0  0  0  0  0  0
  -25.2690  -13.8920   20.4460 C   0  0  0  0  0  0  0  0  0  0  0  0
  -24.2330  -13.1000   20.8620 C   0  0  0  0  0  0  0  0  0  0  0  0
  -24.6980  -11.7540   20.7550 C   0  0  0  0  0  0  0  0  0  0  0  0
  -26.2930  -13.0250   20.1010 N   0  0  0  0  0  0  0  0  0  0  0  0
  -25.9640  -11.7320   20.3540 N   0  0  0  0  0  0  0  0  0  0  0  0
  -23.9890  -10.4820   20.9530 C   0  0  0  0  0  0  0  0  0  0  0  0
  -24.4510   -9.5110   21.8710 C   0  0  0  0  0  3  0  0  0  0  0  0
  -23.7370   -8.3070   22.0580 C   0  0  0  0  0  3  0  0  0  0  0  0
  -22.5490   -8.0650   21.3280 C   0  0  0  0  0  0  0  0  0  0  0  0
  -22.1060   -9.0240   20.4000 C   0  0  0  0  0  3  0  0  0  0  0  0
  -22.8200  -10.2190   20.2100 C   0  0  0  0  0  3  0  0  0  0  0  0
  -21.8070   -6.9130   21.4250 O   0  0  0  0  0  0  0  0  0  0  0  0
  -21.7430   -6.1940   22.5930 C   0  0  0  0  0  0  0  0  0  0  0  0
  -21.2980   -6.7730   23.8010 C   0  0  0  0  0  3  0  0  0  0  0  0
  -21.1820   -5.9790   24.9600 C   0  0  0  0  0  3  0  0  0  0  0  0
  -21.5020   -4.6090   24.9110 C   0  0  0  0  0  0  0  0  0  0  0  0
  -21.9400   -4.0300   23.7070 C   0  0  0  0  0  3  0  0  0  0  0  0
  -22.0560   -4.8200   22.5490 C   0  0  0  0  0  0  0  0  0  0  0  0
  -22.4590   -4.2540   21.3870 F   0  0  0  0  0  0  0  0  0  0  0  0
  -21.3830   -3.8450   26.0210 F   0  0  0  0  0  0  0  0  0  0  0  0
  -22.8570  -13.5640   21.2410 C   0  0  0  0  0  0  0  0  0  0  0  0
  -22.1990  -12.8500   22.1480 N   0  0  0  0  0  0  0  0  0  0  0  0
  -22.3780  -14.5950   20.7710 O   0  0  0  0  0  0  0  0  0  0  0  0
  -22.6020  -12.0190   22.5510 H   0  0  0  0  0  0  0  0  0  0  0  0
  -21.2790  -13.1440   22.4450 H   0  0  0  0  0  0  0  0  0  0  0  0
  -25.4190  -15.2680   20.3080 N   0  0  0  0  0  0  0  0  0  0  0  0
  -24.6650  -15.9170   20.5070 H   0  0  0  0  0  0  0  0  0  0  0  0
  -26.2560  -15.7230   19.9650 H   0  0  0  0  0  0  0  0  0  0  0  0
  1  2  2  0
  2  5  1  0
  3  1  1  0
  4 10  1  0
  4  2  1  0
  6  7  1  0
  6  3  2  0
  7  4  2  0
  8  3  1  0
  8 51  1  0
  9  8  1  0
 11 22  2  0
 12 10  1  0
 12 17  1  0
 13 21  1  0
 13 23  1  0
 14 20  1  0
 14 16  1  0
 15 21  1  0
 16 15  1  0
 17 16  2  0
 18 12  2  0
 19 18  1  0
 19 14  2  0
 20 13  1  0
 21 11  1  0
 23 25  2  0
 24 23  1  0
 26 24  1  0
 27 36  2  0
 27 32  1  0
 28 24  1  0
 28 32  1  0
 29 28  1  0
 30 31  1  0
 30 29  1  0
 31 27  1  0
 32 33  2  0
 33 34  1  0
 35 34  2  0
 36 35  1  0
 37 11  1  0
 37 38  1  0
 37 47  1  0
 38 41  1  0
 39 43  1  0
 39 38  1  0
 40 39  2  0
 43 42  1  0
 45 43  1  0
 45 46  1  0
 45 44  1  0
 47 50  1  1
 47 48  1  0
 49 47  1  0
 52 64  1  0
 53 58  1  0
 54 55  1  0
 54 53  1  0
 56 55  1  0
 56 68  1  0
 56 57  1  0
 58 52  1  0
 58 57  1  0
 59 52  2  0
 61 60  1  0
 62 60  1  0
 63 51  1  0
 63 64  1  0
 63 61  1  0
 64 62  1  0
 65 66  2  0
 66 85  1  0
 67 66  1  0
 67 70  1  0
 68 69  1  0
 68 65  1  0
 69 67  2  0
 70 71  1  0
 71 72  2  0
 73 76  1  0
 73 72  1  0
 74 73  2  0
 75 74  1  0
 75 70  2  0
 76 77  1  0
 77 78  1  0
 78 79  2  0
 80 79  1  0
 80 84  1  0
 81 80  2  0
 82 77  2  0
 82 81  1  0
 83 82  1  0
 85 86  1  0
 86 89  1  0
 86 88  1  0
 87 85  2  0
 90 65  1  0
 90 91  1  0
 92 90  1  0
M  ISO  4   4 101  10 101  52 100  64 100
M  END
>  <TORSDO>  (38) 
F 17

>  <SCORE>  (38) 
-15.468

>  <name>  (38) 
37

>  <ligand_id>  (38) 
37

>  <original_smiles>  (38) 
[H]c1c([H])c([H])c2c(c1[H])C([H])([H])C([H])([H])C([H])([H])C2([H])N([H])C(=O)C1([H])N(C(=O)C([H])(N([H])C(=O)C([H])(N([H])C([H])([H])[H])C([H])([H])[H])C(C([H])([H])[H])(C([H])([H])[H])C([H])([H])[H])C([H])([H])c2c([H])c(Oc3nnc(N([H])C([H])([H])C4([H])N(C(=O)N5C([H])([H])C([H])([H])C([H])([H])C([H])(n6nc(-c7c([H])c([H])c(Oc8c([H])c([H])c(F)c([H])c8F)c([H])c7[H])c(C(=O)N([H])[H])c6N([H])[H])C5([H])[H])C([H])([H])C([H])([H])C4([H])[H])c([H])c3C([H])([H])[H])c([H])c([H])c2C1([H])[H]

>  <smiles>  (38) 
[H]c1c([H])c([H])c2c(c1[H])C([H])([H])C([H])([H])C([H])([H])C2([H])N([H])C(=O)C1([H])N(C(=O)C([H])(N([H])C(=O)C([H])(N([H])C([H])([H])[H])C([H])([H])[H])C(C([H])([H])[H])(C([H])([H])[H])C([H])([H])[H])C([H])([H])c2c([H])c(Oc3nnc(N([H])C([H])([H])C4([H])N(C(=O)N5C([H])([H])C([H])([H])C([H])([H])C([H])(n6nc(-c7c([H])c([H])c(Oc8c([H])c([H])c(F)c([H])c8F)c([H])c7[H])c(C(=O)N([H])[H])c6N([H])[H])C5([H])[H])C([H])([H])C([H])([H])C4([H])[H])c([H])c3C([H])([H])[H])c([H])c([H])c2C1([H])[H]

$$$$
38:0:0
     RDKit          3D

 95104  0  0  1  0  0  0  0  0999 V2000
  -30.0050  -22.5850   21.3680 C   0  0  0  0  0  3  0  0  0  0  0  0
  -29.6520  -23.9070   20.9780 C   0  0  0  0  0  0  0  0  0  0  0  0
  -28.7150  -24.0580   19.9250 C   0  0  0  0  0  0  0  0  0  0  0  0
  -29.4330  -21.4770   20.7010 C   0  0  0  0  0  0  0  0  0  0  0  0
  -28.1750  -22.9400   19.3440 N   0  0  0  0  0  0  0  0  0  0  0  0
  -28.5170  -21.6850   19.7190 N   0  0  0  0  0  0  0  0  0  0  0  0
  -29.8480  -20.1690   21.0720 N   0  0  0  0  0  0  0  0  0  0  0  0
  -30.5330  -20.1440   21.8200 H   0  0  0  0  0  0  0  0  0  0  0  0
  -30.6910  -14.7020   20.0110 C   0  0  0  0  0  0  0  0  0  0  0  0
  -30.4050  -12.4940   18.9220 C   0  0  0  0  0  2  0  0  0  0  0  0
  -29.3860  -12.6350   17.7690 C   0  0  0  0  0  2  0  0  0  0  0  0
  -27.9470  -12.4480   18.2870 C   0  0  0  0  0  2  0  0  0  0  0  0
  -27.6570  -13.2780   19.5670 C   0  0  0  0  0  3  0  0  0  0  0  0
  -28.7870  -13.1170   20.6050 C   0  0  0  0  0  2  0  0  0  0  0  0
  -30.0450  -13.4940   19.9470 N   0  0  0  0  0  0  0  0  0  0  0  0
  -31.8360  -14.8200   19.5650 O   0  0  0  0  0  0  0  0  0  0  0  0
  -29.5120  -17.7750   21.7150 C   0  0  0  0  0  2  0  0  0  0  0  0
  -30.2440  -18.2930   19.4250 C   0  0  0  0  0  2  0  0  0  0  0  0
  -29.1880  -16.3020   21.3020 C   0  0  0  0  0  2  0  0  0  0  0  0
  -29.8670  -16.8390   19.0070 C   0  0  0  0  0  2  0  0  0  0  0  0
  -29.3900  -18.8410   20.5900 C   0  0  0  0  0  3  0  0  0  0  0  0
  -29.9020  -15.8300   20.0970 N   0  0  0  0  0  0  0  0  0  0  0  0
  -25.3180  -13.8180   20.4830 C   0  0  0  0  0  0  0  0  0  0  0  0
  -24.2860  -13.0170   20.8890 C   0  0  0  0  0  0  0  0  0  0  0  0
  -24.7530  -11.6730   20.7580 C   0  0  0  0  0  0  0  0  0  0  0  0
  -26.3480  -12.9600   20.1330 N   0  0  0  0  0  0  0  0  0  0  0  0
  -26.0180  -11.6620   20.3570 N   0  0  0  0  0  0  0  0  0  0  0  0
  -24.0510  -10.3960   20.9370 C   0  0  0  0  0  0  0  0  0  0  0  0
  -24.4990   -9.4290   21.8640 C   0  0  0  0  0  3  0  0  0  0  0  0
  -23.7960   -8.2160   22.0290 C   0  0  0  0  0  3  0  0  0  0  0  0
  -22.6300   -7.9620   21.2680 C   0  0  0  0  0  0  0  0  0  0  0  0
  -22.2010   -8.9190   20.3320 C   0  0  0  0  0  3  0  0  0  0  0  0
  -22.9050  -10.1230   20.1630 C   0  0  0  0  0  3  0  0  0  0  0  0
  -21.8970   -6.8030   21.3450 O   0  0  0  0  0  0  0  0  0  0  0  0
  -21.7620   -6.1130   22.5240 C   0  0  0  0  0  0  0  0  0  0  0  0
  -21.1810   -6.7020   23.6680 C   0  0  0  0  0  3  0  0  0  0  0  0
  -20.9960   -5.9350   24.8360 C   0  0  0  0  0  3  0  0  0  0  0  0
  -21.3830   -4.5820   24.8600 C   0  0  0  0  0  0  0  0  0  0  0  0
  -21.9560   -3.9930   23.7190 C   0  0  0  0  0  3  0  0  0  0  0  0
  -22.1420   -4.7560   22.5540 C   0  0  0  0  0  0  0  0  0  0  0  0
  -22.6760   -4.1790   21.4510 F   0  0  0  0  0  0  0  0  0  0  0  0
  -21.1990   -3.8440   25.9800 F   0  0  0  0  0  0  0  0  0  0  0  0
  -22.9080  -13.4660   21.2830 C   0  0  0  0  0  0  0  0  0  0  0  0
  -22.2520  -12.7270   22.1700 N   0  0  0  0  0  0  0  0  0  0  0  0
  -22.4240  -14.5070   20.8400 O   0  0  0  0  0  0  0  0  0  0  0  0
  -22.6580  -11.8840   22.5510 H   0  0  0  0  0  0  0  0  0  0  0  0
  -21.3320  -13.0090   22.4760 H   0  0  0  0  0  0  0  0  0  0  0  0
  -25.4590  -15.1960   20.3610 N   0  0  0  0  0  0  0  0  0  0  0  0
  -24.6990  -15.8380   20.5590 H   0  0  0  0  0  0  0  0  0  0  0  0
  -26.2810  -15.6580   19.9900 H   0  0  0  0  0  0  0  0  0  0  0  0
  -30.3020  -25.1110   21.6430 C   0  0  0  0  0  3  0  0  0  0  0  0
  -31.2490  -25.6170   20.8550 F   0  0  0  0  0  0  0  0  0  0  0  0
  -30.8450  -24.7960   22.8200 F   0  0  0  0  0  0  0  0  0  0  0  0
  -28.4080  -25.4300   19.2330 C   0  0  0  0  0  2  0  0  0  0  0  0
  -28.2310  -26.6360   20.0450 O   0  0  0  0  0  0  0  0  0  0  0  0
  -24.4950  -31.9090   23.1480 C   0  0  0  0  0  0  0  0  0  0  0  0
  -27.0690  -27.4100   20.0050 C   0  0  0  0  0  0  0  0  0  0  0  0
  -23.2650  -30.5280   21.5110 C   0  0  0  0  0  3  0  0  0  0  0  0
  -24.6920  -28.9910   20.0520 C   0  0  0  0  0  0  0  0  0  0  0  0
  -25.7970  -30.8530   21.2920 C   0  0  0  0  0  2  0  0  0  0  0  0
  -25.8650  -29.4840   20.6340 C   0  0  0  0  0  0  0  0  0  0  0  0
  -27.0510  -28.7010   20.6070 C   0  0  0  0  0  3  0  0  0  0  0  0
  -25.8630  -26.9460   19.4270 C   0  0  0  0  0  3  0  0  0  0  0  0
  -24.6900  -27.7250   19.4450 C   0  0  0  0  0  3  0  0  0  0  0  0
  -23.4570  -29.8630   20.1220 C   0  0  0  0  0  2  0  0  0  0  0  0
  -24.5390  -31.1130   22.0400 N   0  0  0  0  0  0  0  0  0  0  0  0
  -23.4210  -32.1830   23.7010 O   0  0  0  0  0  0  0  0  0  0  0  0
  -22.6160  -29.5030   22.4710 C   0  0  0  0  0  0  0  0  0  0  0  0
  -21.2900  -29.3190   22.3480 N   0  0  0  0  0  0  0  0  0  0  0  0
  -23.3020  -28.8760   23.2810 O   0  0  0  0  0  0  0  0  0  0  0  0
  -20.7960  -29.8770   21.6660 H   0  0  0  0  0  0  0  0  0  0  0  0
  -17.9210  -28.1090   22.8520 C   0  0  0  0  0  0  0  0  0  0  0  0
  -20.4790  -28.3760   23.1180 C   0  0  0  0  0  3  0  0  0  0  0  0
  -20.5850  -26.9470   22.5380 C   0  0  0  0  0  2  0  0  0  0  0  0
  -19.4830  -26.6230   21.5260 C   0  0  0  0  0  2  0  0  0  0  0  0
  -18.1020  -26.7610   22.1730 C   0  0  0  0  0  2  0  0  0  0  0  0
  -19.0370  -28.8740   23.2810 C   0  0  0  0  0  0  0  0  0  0  0  0
  -18.8140  -30.1360   23.8750 C   0  0  0  0  0  3  0  0  0  0  0  0
  -17.5090  -30.6310   24.0440 C   0  0  0  0  0  3  0  0  0  0  0  0
  -16.4060  -29.8620   23.6310 C   0  0  0  0  0  3  0  0  0  0  0  0
  -16.6140  -28.6030   23.0410 C   0  0  0  0  0  3  0  0  0  0  0  0
  -25.7900  -32.5310   23.7590 C   0  0  0  0  0  3  0  0  0  0  0  0
  -25.4890  -33.9270   24.1060 N   0  0  0  0  0  0  0  0  0  0  0  0
  -25.8250  -34.9860   23.3580 C   0  0  0  0  0  0  0  0  0  0  0  0
  -26.4910  -34.8900   22.3230 O   0  0  0  0  0  0  0  0  0  0  0  0
  -24.8980  -34.0760   24.9110 H   0  0  0  0  0  0  0  0  0  0  0  0
  -24.1190  -36.8020   23.0150 C   0  0  0  0  0  1  0  0  0  0  0  0
  -25.3480  -36.3720   23.8320 C   0  0  0  0  0  3  0  0  0  0  0  0
  -27.4770  -37.2280   24.7040 C   0  0  0  0  0  1  0  0  0  0  0  0
  -26.3920  -37.4160   23.7450 N   0  0  0  0  0  0  0  0  0  0  0  0
  -25.9920  -38.3390   23.8950 H   0  0  0  0  0  0  0  0  0  0  0  0
  -26.3190  -31.7460   25.0220 C   0  0  1  0  0  0  0  0  0  0  0  0
  -25.2370  -31.4960   26.0990 C   0  0  0  0  0  1  0  0  0  0  0  0
  -26.8990  -30.3730   24.6080 C   0  0  0  0  0  1  0  0  0  0  0  0
  -27.4760  -32.5340   25.6800 C   0  0  0  0  0  1  0  0  0  0  0  0
  2  1  1  0
  2 51  1  0
  3  2  2  0
  4  7  1  0
  4  1  2  0
  5  6  2  0
  5  3  1  0
  6  4  1  0
  7  8  1  0
  9 22  1  0
 10 15  1  0
 11 12  1  0
 11 10  1  0
 13 12  1  0
 13 26  1  0
 13 14  1  0
 15  9  1  0
 15 14  1  0
 16  9  2  0
 18 21  1  0
 19 17  1  0
 20 18  1  0
 20 22  1  0
 21  7  1  0
 21 17  1  0
 22 19  1  0
 23 24  2  0
 24 43  1  0
 25 24  1  0
 25 28  1  0
 26 27  1  0
 26 23  1  0
 27 25  2  0
 28 29  1  0
 29 30  2  0
 31 34  1  0
 31 30  1  0
 32 31  2  0
 33 32  1  0
 33 28  2  0
 34 35  1  0
 35 40  2  0
 35 36  1  0
 36 37  2  0
 37 38  1  0
 38 42  1  0
 39 38  2  0
 40 39  1  0
 41 40  1  0
 43 44  1  0
 44 47  1  0
 44 46  1  0
 45 43  2  0
 48 23  1  0
 48 49  1  0
 50 48  1  0
 51 53  1  0
 52 51  1  0
 54  3  1  0
 54 55  1  0
 56 67  2  0
 57 55  1  0
 57 62  1  0
 58 66  1  0
 58 68  1  0
 59 65  1  0
 59 61  1  0
 60 66  1  0
 61 60  1  0
 62 61  2  0
 63 64  1  0
 63 57  2  0
 64 59  2  0
 65 58  1  0
 66 56  1  0
 68 70  2  0
 69 68  1  0
 71 69  1  0
 72 81  2  0
 72 77  1  0
 73 69  1  0
 73 77  1  0
 74 73  1  0
 75 76  1  0
 75 74  1  0
 76 72  1  0
 77 78  2  0
 78 79  1  0
 80 79  2  0
 81 80  1  0
 82 56  1  0
 82 83  1  0
 82 92  1  0
 83 86  1  0
 84 88  1  0
 84 83  1  0
 85 84  2  0
 88 87  1  0
 90 88  1  0
 90 91  1  0
 90 89  1  0
 92 95  1  1
 92 93  1  0
 94 92  1  0
M  ISO  4   9 100  22 100  54 101  55 101
M  END
>  <TORSDO>  (39) 
F 18

>  <SCORE>  (39) 
-13.579

>  <name>  (39) 
38

>  <ligand_id>  (39) 
38

>  <original_smiles>  (39) 
[H]c1c([H])c([H])c2c(c1[H])C([H])([H])C([H])([H])C([H])([H])C2([H])N([H])C(=O)C1([H])N(C(=O)C([H])(N([H])C(=O)C([H])(N([H])C([H])([H])[H])C([H])([H])[H])C(C([H])([H])[H])(C([H])([H])[H])C([H])([H])[H])C([H])([H])c2c([H])c(OC([H])([H])c3nnc(N([H])C4([H])C([H])([H])C([H])([H])N(C(=O)N5C([H])([H])C([H])([H])C([H])([H])C([H])(n6nc(-c7c([H])c([H])c(Oc8c([H])c([H])c(F)c([H])c8F)c([H])c7[H])c(C(=O)N([H])[H])c6N([H])[H])C5([H])[H])C([H])([H])C4([H])[H])c([H])c3C([H])(F)F)c([H])c([H])c2C1([H])[H]

>  <smiles>  (39) 
[H]c1c([H])c([H])c2c(c1[H])C([H])([H])C([H])([H])C([H])([H])C2([H])N([H])C(=O)C1([H])N(C(=O)C([H])(N([H])C(=O)C([H])(N([H])C([H])([H])[H])C([H])([H])[H])C(C([H])([H])[H])(C([H])([H])[H])C([H])([H])[H])C([H])([H])c2c([H])c(OC([H])([H])c3nnc(N([H])C4([H])C([H])([H])C([H])([H])N(C(=O)N5C([H])([H])C([H])([H])C([H])([H])C([H])(n6nc(-c7c([H])c([H])c(Oc8c([H])c([H])c(F)c([H])c8F)c([H])c7[H])c(C(=O)N([H])[H])c6N([H])[H])C5([H])[H])C([H])([H])C4([H])[H])c([H])c3C([H])(F)F)c([H])c([H])c2C1([H])[H]

$$$$
39:0:0
     RDKit          3D

100109  0  0  1  0  0  0  0  0999 V2000
  -31.2600  -23.6630   20.9800 C   0  0  0  0  0  2  0  0  0  0  0  0
  -29.2400  -23.6020   19.6140 C   0  0  0  0  0  2  0  0  0  0  0  0
  -30.5370  -23.0240   22.1830 C   0  0  0  0  0  3  0  0  0  0  0  0
  -28.3890  -22.9820   20.7560 C   0  0  0  0  0  3  0  0  0  0  0  0
  -29.2830  -22.2080   21.7720 C   0  0  0  0  0  3  0  0  0  0  0  0
  -31.5190  -22.2340   23.0680 C   0  0  0  0  0  1  0  0  0  0  0  0
  -30.3350  -24.4670   20.1400 N   0  0  2  0  0  4  0  0  0  0  0  0
  -29.9100  -25.1520   20.7500 H   0  0  0  0  0  0  0  0  0  0  0  0
  -30.8490  -14.8860   19.7070 C   0  0  0  0  0  0  0  0  0  0  0  0
  -30.4730  -12.6980   18.6270 C   0  0  0  0  0  2  0  0  0  0  0  0
  -29.4050  -12.8230   17.5230 C   0  0  0  0  0  2  0  0  0  0  0  0
  -27.9920  -12.6400   18.1100 C   0  0  0  0  0  2  0  0  0  0  0  0
  -27.7530  -13.5100   19.3740 C   0  0  0  0  0  3  0  0  0  0  0  0
  -28.9270  -13.3790   20.3700 C   0  0  0  0  0  2  0  0  0  0  0  0
  -30.1740  -13.7030   19.6580 N   0  0  0  0  0  0  0  0  0  0  0  0
  -31.8660  -15.1010   19.0390 O   0  0  0  0  0  0  0  0  0  0  0  0
  -29.8890  -19.8100   22.1960 C   0  0  0  0  0  0  0  0  0  0  0  0
  -29.2890  -16.7190   20.0910 C   0  0  0  0  0  2  0  0  0  0  0  0
  -31.3050  -16.4450   21.5010 C   0  0  0  0  0  2  0  0  0  0  0  0
  -29.5860  -18.2350   20.2640 C   0  0  0  0  0  2  0  0  0  0  0  0
  -30.6050  -17.4770   22.4020 C   0  0  0  0  0  2  0  0  0  0  0  0
  -30.3710  -15.8270   20.5540 N   0  0  0  0  0  0  0  0  0  0  0  0
  -30.0530  -18.5920   21.6180 N   0  0  0  0  0  0  0  0  0  0  0  0
  -29.5820  -20.8200   21.3600 N   0  0  0  0  0  0  0  0  0  0  0  0
  -30.0610  -19.9940   23.4050 O   0  0  0  0  0  0  0  0  0  0  0  0
  -29.5030  -20.5810   20.3830 H   0  0  0  0  0  0  0  0  0  0  0  0
  -25.4720  -14.0630   20.4280 C   0  0  0  0  0  0  0  0  0  0  0  0
  -24.4530  -13.2640   20.8750 C   0  0  0  0  0  0  0  0  0  0  0  0
  -24.8950  -11.9190   20.6860 C   0  0  0  0  0  0  0  0  0  0  0  0
  -26.4710  -13.2010   20.0020 N   0  0  0  0  0  0  0  0  0  0  0  0
  -26.1340  -11.9020   20.2120 N   0  0  0  0  0  0  0  0  0  0  0  0
  -24.1880  -10.6450   20.8750 C   0  0  0  0  0  0  0  0  0  0  0  0
  -24.6410   -9.6800   21.8000 C   0  0  0  0  0  3  0  0  0  0  0  0
  -23.9340   -8.4710   21.9760 C   0  0  0  0  0  3  0  0  0  0  0  0
  -22.7590   -8.2200   21.2290 C   0  0  0  0  0  0  0  0  0  0  0  0
  -22.3250   -9.1760   20.2940 C   0  0  0  0  0  3  0  0  0  0  0  0
  -23.0320  -10.3770   20.1160 C   0  0  0  0  0  3  0  0  0  0  0  0
  -22.0200   -7.0660   21.3160 O   0  0  0  0  0  0  0  0  0  0  0  0
  -21.8820   -6.3880   22.5010 C   0  0  0  0  0  0  0  0  0  0  0  0
  -21.3410   -7.0010   23.6520 C   0  0  0  0  0  3  0  0  0  0  0  0
  -21.1530   -6.2480   24.8290 C   0  0  0  0  0  3  0  0  0  0  0  0
  -21.4940   -4.8820   24.8540 C   0  0  0  0  0  0  0  0  0  0  0  0
  -22.0280   -4.2690   23.7060 C   0  0  0  0  0  3  0  0  0  0  0  0
  -22.2180   -5.0190   22.5320 C   0  0  0  0  0  0  0  0  0  0  0  0
  -22.7120   -4.4180   21.4240 F   0  0  0  0  0  0  0  0  0  0  0  0
  -21.3080   -4.1570   25.9800 F   0  0  0  0  0  0  0  0  0  0  0  0
  -23.1080  -13.7200   21.3610 C   0  0  0  0  0  0  0  0  0  0  0  0
  -22.5070  -12.9810   22.2870 N   0  0  0  0  0  0  0  0  0  0  0  0
  -22.6010  -14.7650   20.9530 O   0  0  0  0  0  0  0  0  0  0  0  0
  -22.9310  -12.1350   22.6360 H   0  0  0  0  0  0  0  0  0  0  0  0
  -21.6090  -13.2660   22.6520 H   0  0  0  0  0  0  0  0  0  0  0  0
  -25.6240  -15.4430   20.3300 N   0  0  0  0  0  0  0  0  0  0  0  0
  -24.8810  -16.0850   20.5830 H   0  0  0  0  0  0  0  0  0  0  0  0
  -26.4250  -15.9040   19.9200 H   0  0  0  0  0  0  0  0  0  0  0  0
  -26.0520  -22.0610   21.3240 C   0  0  0  0  0  1  0  0  0  0  0  0
  -26.5300  -22.7220   18.9630 C   0  0  0  0  0  1  0  0  0  0  0  0
  -27.1580  -22.1590   20.2540 C   0  0  0  0  0  3  0  0  0  0  0  0
  -31.0770  -25.2530   19.1070 C   0  0  0  0  0  2  0  0  0  0  0  0
  -30.2920  -26.4360   18.4990 C   0  0  0  0  0  2  0  0  0  0  0  0
  -29.8120  -27.3190   19.5250 O   0  0  0  0  0  0  0  0  0  0  0  0
  -24.7720  -31.0460   22.9050 C   0  0  0  0  0  0  0  0  0  0  0  0
  -28.5120  -27.7920   19.4700 C   0  0  0  0  0  0  0  0  0  0  0  0
  -24.0170  -29.7760   20.9230 C   0  0  0  0  0  3  0  0  0  0  0  0
  -25.8650  -28.8140   19.4550 C   0  0  0  0  0  0  0  0  0  0  0  0
  -26.4310  -30.6090   21.0970 C   0  0  0  0  0  2  0  0  0  0  0  0
  -26.8420  -29.4140   20.2580 C   0  0  0  0  0  0  0  0  0  0  0  0
  -28.1610  -28.9040   20.2730 C   0  0  0  0  0  3  0  0  0  0  0  0
  -27.5010  -27.1970   18.6750 C   0  0  0  0  0  3  0  0  0  0  0  0
  -26.1900  -27.7010   18.6660 C   0  0  0  0  0  3  0  0  0  0  0  0
  -24.4770  -29.4100   19.4870 C   0  0  0  0  0  2  0  0  0  0  0  0
  -25.0840  -30.4830   21.7040 N   0  0  0  0  0  0  0  0  0  0  0  0
  -23.6140  -31.0170   23.3440 O   0  0  0  0  0  0  0  0  0  0  0  0
  -23.4980  -28.4950   21.6150 C   0  0  0  0  0  0  0  0  0  0  0  0
  -22.2310  -28.1410   21.3440 N   0  0  0  0  0  0  0  0  0  0  0  0
  -24.2330  -27.8330   22.3520 O   0  0  0  0  0  0  0  0  0  0  0  0
  -21.6890  -28.7420   20.7390 H   0  0  0  0  0  0  0  0  0  0  0  0
  -19.0660  -26.3990   21.3720 C   0  0  0  0  0  0  0  0  0  0  0  0
  -21.5440  -26.9540   21.8520 C   0  0  0  0  0  3  0  0  0  0  0  0
  -21.8830  -25.7060   21.0030 C   0  0  0  0  0  2  0  0  0  0  0  0
  -20.8760  -25.4530   19.8770 C   0  0  0  0  0  2  0  0  0  0  0  0
  -19.4680  -25.2620   20.4470 C   0  0  0  0  0  2  0  0  0  0  0  0
  -20.0410  -27.2040   22.0180 C   0  0  0  0  0  0  0  0  0  0  0  0
  -19.6140  -28.2710   22.8390 C   0  0  0  0  0  3  0  0  0  0  0  0
  -18.2440  -28.5370   23.0190 C   0  0  0  0  0  3  0  0  0  0  0  0
  -17.2830  -27.7270   22.3880 C   0  0  0  0  0  3  0  0  0  0  0  0
  -17.6940  -26.6580   21.5720 C   0  0  0  0  0  3  0  0  0  0  0  0
  -25.8470  -31.7730   23.7710 C   0  0  0  0  0  3  0  0  0  0  0  0
  -26.2680  -30.9570   25.0540 C   0  0  1  0  0  0  0  0  0  0  0  0
  -25.0710  -30.4840   25.9120 C   0  0  0  0  0  1  0  0  0  0  0  0
  -27.0870  -29.7060   24.6580 C   0  0  0  0  0  1  0  0  0  0  0  0
  -27.1840  -31.8220   25.9500 C   0  0  0  0  0  1  0  0  0  0  0  0
  -25.2980  -33.0840   24.1460 N   0  0  0  0  0  0  0  0  0  0  0  0
  -25.6150  -34.2400   23.5490 C   0  0  0  0  0  0  0  0  0  0  0  0
  -26.4660  -34.3220   22.6580 O   0  0  0  0  0  0  0  0  0  0  0  0
  -24.5560  -33.0850   24.8310 H   0  0  0  0  0  0  0  0  0  0  0  0
  -23.7510  -35.8400   23.0140 C   0  0  0  0  0  1  0  0  0  0  0  0
  -24.8700  -35.5060   24.0130 C   0  0  0  0  0  3  0  0  0  0  0  0
  -26.6890  -36.5420   25.2950 C   0  0  0  0  0  1  0  0  0  0  0  0
  -25.7520  -36.6810   24.1830 N   0  0  0  0  0  0  0  0  0  0  0  0
  -25.2030  -37.5220   24.3360 H   0  0  0  0  0  0  0  0  0  0  0  0
  1  3  1  0
  2  7  1  0
  2  4  1  0
  3  6  1  0
  4 57  1  0
  4  5  1  0
  5 24  1  0
  5  3  1  0
  7  8  1  1
  7  1  1  0
  9 22  1  0
 10 15  1  0
 11 12  1  0
 11 10  1  0
 13 12  1  0
 13 30  1  0
 13 14  1  0
 15  9  1  0
 15 14  1  0
 16  9  2  0
 17 25  2  0
 18 20  1  0
 18 22  1  0
 19 21  1  0
 20 23  1  0
 22 19  1  0
 23 17  1  0
 23 21  1  0
 24 17  1  0
 26 24  1  0
 27 28  2  0
 28 47  1  0
 29 32  1  0
 29 28  1  0
 30 31  1  0
 30 27  1  0
 31 29  2  0
 32 33  1  0
 33 34  2  0
 35 38  1  0
 35 34  1  0
 36 35  2  0
 37 36  1  0
 37 32  2  0
 38 39  1  0
 39 44  2  0
 39 40  1  0
 40 41  2  0
 41 42  1  0
 42 46  1  0
 43 42  2  0
 44 43  1  0
 45 44  1  0
 47 48  1  0
 48 50  1  0
 48 51  1  0
 49 47  2  0
 52 27  1  0
 52 53  1  0
 54 52  1  0
 56 57  1  0
 57 55  1  0
 58  7  1  0
 59 58  1  0
 59 60  1  0
 61 72  2  0
 62 60  1  0
 62 67  1  0
 63 73  1  0
 63 71  1  0
 64 70  1  0
 64 66  1  0
 65 71  1  0
 66 67  2  0
 66 65  1  0
 68 62  2  0
 69 68  1  0
 69 64  2  0
 70 63  1  0
 71 61  1  0
 73 75  2  0
 74 73  1  0
 76 74  1  0
 77 86  2  0
 77 82  1  0
 78 74  1  0
 78 82  1  0
 79 78  1  0
 80 81  1  0
 80 79  1  0
 81 77  1  0
 82 83  2  0
 83 84  1  0
 85 84  2  0
 86 85  1  0
 87 61  1  0
 87 92  1  0
 87 88  1  0
 88 89  1  1
 88 91  1  0
 90 88  1  0
 92 95  1  0
 93 97  1  0
 93 92  1  0
 94 93  2  0
 97 96  1  0
 97 99  1  0
 99100  1  0
 99 98  1  0
M  ISO  4   9 100  22 100  59 101  60 101
M  END
>  <TORSDO>  (40) 
F 19

>  <SCORE>  (40) 
-6.388

>  <name>  (40) 
39

>  <ligand_id>  (40) 
39

>  <original_smiles>  (40) 
[H]c1c([H])c([H])c2c(c1[H])C([H])([H])C([H])([H])C([H])([H])C2([H])N([H])C(=O)C1([H])N(C(=O)C([H])(N([H])C(=O)C([H])(N([H])C([H])([H])[H])C([H])([H])[H])C(C([H])([H])[H])(C([H])([H])[H])C([H])([H])[H])C([H])([H])c2c([H])c(OC([H])([H])C([H])([H])[N+]3([H])C([H])([H])C([H])(C([H])([H])[H])C([H])(N([H])C(=O)N4C([H])([H])C([H])([H])N(C(=O)N5C([H])([H])C([H])([H])C([H])([H])C([H])(n6nc(-c7c([H])c([H])c(Oc8c([H])c([H])c(F)c([H])c8F)c([H])c7[H])c(C(=O)N([H])[H])c6N([H])[H])C5([H])[H])C([H])([H])C4([H])[H])C([H])(C([H])(C([H])([H])[H])C([H])([H])[H])C3([H])[H])c([H])c([H])c2C1([H])[H]

>  <smiles>  (40) 
[H]c1c([H])c([H])c2c(c1[H])C([H])([H])C([H])([H])C([H])([H])C2([H])N([H])C(=O)C1([H])N(C(=O)C([H])(N([H])C(=O)C([H])(N([H])C([H])([H])[H])C([H])([H])[H])C(C([H])([H])[H])(C([H])([H])[H])C([H])([H])[H])C([H])([H])c2c([H])c(OC([H])([H])C([H])([H])[N+]3([H])C([H])([H])C([H])(C([H])([H])[H])C([H])(N([H])C(=O)N4C([H])([H])C([H])([H])N(C(=O)N5C([H])([H])C([H])([H])C([H])([H])C([H])(n6nc(-c7c([H])c([H])c(Oc8c([H])c([H])c(F)c([H])c8F)c([H])c7[H])c(C(=O)N([H])[H])c6N([H])[H])C5([H])[H])C([H])([H])C4([H])[H])C([H])(C([H])(C([H])([H])[H])C([H])([H])[H])C3([H])[H])c([H])c([H])c2C1([H])[H]

$$$$
40:0:0
     RDKit          3D

 92101  0  0  1  0  0  0  0  0999 V2000
  -28.6870  -24.7060   21.6380 C   0  0  0  0  0  3  0  0  0  0  0  0
  -29.0600  -23.4800   22.2260 C   0  0  0  0  0  0  0  0  0  0  0  0
  -28.4990  -24.7840   20.2560 C   0  0  0  0  0  0  0  0  0  0  0  0
  -29.0370  -22.3080   20.2260 C   0  0  0  0  0  0  0  0  0  0  0  0
  -29.2680  -23.3990   23.7230 C   0  0  0  0  0  1  0  0  0  0  0  0
  -29.2500  -22.3290   21.5330 N   0  0  0  0  0  0  0  0  0  0  0  0
  -28.6750  -23.5200   19.5710 N   0  0  0  0  0  0  0  0  0  0  0  0
  -29.0000  -20.9040   19.6680 N   0  0  0  0  0  0  0  0  0  0  0  0
  -28.4110  -20.9350   18.8430 H   0  0  0  0  0  0  0  0  0  0  0  0
  -31.3480  -19.9350   19.8950 C   0  0  0  0  0  2  0  0  0  0  0  0
  -31.6770  -18.4440   20.0040 C   0  0  0  0  0  2  0  0  0  0  0  0
  -29.9180  -19.5990   19.4620 C   0  0  0  0  0  3  0  0  0  0  0  0
  -30.2040  -18.0920   20.2920 C   0  0  0  0  0  3  0  0  0  0  0  0
  -30.7810  -15.2880   19.8120 C   0  0  0  0  0  0  0  0  0  0  0  0
  -30.6590  -12.8760   18.9280 C   0  0  0  0  0  2  0  0  0  0  0  0
  -29.6500  -12.7080   17.7680 C   0  0  0  0  0  2  0  0  0  0  0  0
  -28.2270  -12.4750   18.3080 C   0  0  0  0  0  2  0  0  0  0  0  0
  -27.8670  -13.4470   19.4610 C   0  0  0  0  0  3  0  0  0  0  0  0
  -28.9910  -13.5570   20.5090 C   0  0  0  0  0  2  0  0  0  0  0  0
  -30.1880  -14.0110   19.7850 N   0  0  0  0  0  0  0  0  0  0  0  0
  -31.9960  -15.2950   19.5850 O   0  0  0  0  0  0  0  0  0  0  0  0
  -30.0050  -16.5230   19.8820 N   0  0  0  0  0  0  0  0  0  0  0  0
  -29.0220  -16.2980   19.8440 H   0  0  0  0  0  0  0  0  0  0  0  0
  -25.5710  -14.0380   20.4090 C   0  0  0  0  0  0  0  0  0  0  0  0
  -24.5200  -13.2710   20.8300 C   0  0  0  0  0  0  0  0  0  0  0  0
  -24.9530  -11.9140   20.7210 C   0  0  0  0  0  0  0  0  0  0  0  0
  -26.5720  -13.1490   20.0590 N   0  0  0  0  0  0  0  0  0  0  0  0
  -26.2170  -11.8640   20.3150 N   0  0  0  0  0  0  0  0  0  0  0  0
  -24.2140  -10.6600   20.9200 C   0  0  0  0  0  0  0  0  0  0  0  0
  -24.6320   -9.6970   21.8650 C   0  0  0  0  0  3  0  0  0  0  0  0
  -23.8910   -8.5100   22.0530 C   0  0  0  0  0  3  0  0  0  0  0  0
  -22.7180   -8.2780   21.2970 C   0  0  0  0  0  0  0  0  0  0  0  0
  -22.3180   -9.2300   20.3420 C   0  0  0  0  0  3  0  0  0  0  0  0
  -23.0600  -10.4080   20.1520 C   0  0  0  0  0  3  0  0  0  0  0  0
  -21.9490   -7.1430   21.3940 O   0  0  0  0  0  0  0  0  0  0  0  0
  -21.8380   -6.4490   22.5720 C   0  0  0  0  0  0  0  0  0  0  0  0
  -21.3000   -7.0380   23.7360 C   0  0  0  0  0  3  0  0  0  0  0  0
  -21.1390   -6.2680   24.9060 C   0  0  0  0  0  3  0  0  0  0  0  0
  -21.5050   -4.9090   24.9100 C   0  0  0  0  0  0  0  0  0  0  0  0
  -22.0350   -4.3190   23.7500 C   0  0  0  0  0  3  0  0  0  0  0  0
  -22.1980   -5.0870   22.5830 C   0  0  0  0  0  0  0  0  0  0  0  0
  -22.6900   -4.5070   21.4610 F   0  0  0  0  0  0  0  0  0  0  0  0
  -21.3430   -4.1660   26.0300 F   0  0  0  0  0  0  0  0  0  0  0  0
  -23.1560  -13.7670   21.2110 C   0  0  0  0  0  0  0  0  0  0  0  0
  -22.4720  -13.0550   22.0990 N   0  0  0  0  0  0  0  0  0  0  0  0
  -22.7100  -14.8200   20.7580 O   0  0  0  0  0  0  0  0  0  0  0  0
  -22.8480  -12.2030   22.4860 H   0  0  0  0  0  0  0  0  0  0  0  0
  -21.5580  -13.3690   22.3960 H   0  0  0  0  0  0  0  0  0  0  0  0
  -25.7480  -15.4120   20.2650 N   0  0  0  0  0  0  0  0  0  0  0  0
  -24.9970  -16.0690   20.4550 H   0  0  0  0  0  0  0  0  0  0  0  0
  -26.5630  -15.8510   19.8600 H   0  0  0  0  0  0  0  0  0  0  0  0
  -28.3650  -26.1510   19.6600 O   0  0  0  0  0  0  0  0  0  0  0  0
  -24.6190  -31.6520   23.1520 C   0  0  0  0  0  0  0  0  0  0  0  0
  -27.2830  -27.1230   19.8290 C   0  0  0  0  0  0  0  0  0  0  0  0
  -23.4280  -30.2780   21.4920 C   0  0  0  0  0  3  0  0  0  0  0  0
  -24.8920  -28.8190   19.9540 C   0  0  0  0  0  0  0  0  0  0  0  0
  -25.9670  -30.6400   21.2620 C   0  0  0  0  0  2  0  0  0  0  0  0
  -26.0770  -29.2710   20.5480 C   0  0  0  0  0  0  0  0  0  0  0  0
  -27.2730  -28.4440   20.4660 C   0  0  0  0  0  3  0  0  0  0  0  0
  -26.0630  -26.7960   19.2020 C   0  0  0  0  0  3  0  0  0  0  0  0
  -24.9010  -27.5980   19.2660 C   0  0  0  0  0  3  0  0  0  0  0  0
  -23.6340  -29.6720   20.0790 C   0  0  0  0  0  2  0  0  0  0  0  0
  -24.6920  -30.8790   22.0230 N   0  0  0  0  0  0  0  0  0  0  0  0
  -23.5390  -31.8640   23.7260 O   0  0  0  0  0  0  0  0  0  0  0  0
  -22.8220  -29.2030   22.4290 C   0  0  0  0  0  0  0  0  0  0  0  0
  -21.5160  -28.9150   22.2760 N   0  0  0  0  0  0  0  0  0  0  0  0
  -23.5300  -28.6280   23.2580 O   0  0  0  0  0  0  0  0  0  0  0  0
  -20.9930  -29.4360   21.5850 H   0  0  0  0  0  0  0  0  0  0  0  0
  -18.2870  -27.2980   22.6080 C   0  0  0  0  0  0  0  0  0  0  0  0
  -20.7700  -27.8950   23.0200 C   0  0  0  0  0  3  0  0  0  0  0  0
  -21.0890  -26.4770   22.4920 C   0  0  0  0  0  2  0  0  0  0  0  0
  -20.1040  -25.9960   21.4220 C   0  0  0  0  0  2  0  0  0  0  0  0
  -18.6770  -25.9720   21.9770 C   0  0  0  0  0  2  0  0  0  0  0  0
  -19.2710  -28.2080   23.0820 C   0  0  0  0  0  0  0  0  0  0  0  0
  -18.8530  -29.4390   23.6320 C   0  0  0  0  0  3  0  0  0  0  0  0
  -17.4860  -29.7670   23.7090 C   0  0  0  0  0  3  0  0  0  0  0  0
  -16.5180  -28.8580   23.2500 C   0  0  0  0  0  3  0  0  0  0  0  0
  -16.9190  -27.6250   22.7040 C   0  0  0  0  0  3  0  0  0  0  0  0
  -25.8850  -32.3200   23.7670 C   0  0  0  0  0  3  0  0  0  0  0  0
  -26.4170  -31.5730   25.0530 C   0  0  1  0  0  0  0  0  0  0  0  0
  -25.3280  -31.3180   26.1210 C   0  0  0  0  0  1  0  0  0  0  0  0
  -27.0350  -30.2050   24.6810 C   0  0  0  0  0  1  0  0  0  0  0  0
  -27.5470  -32.4000   25.7100 C   0  0  0  0  0  1  0  0  0  0  0  0
  -25.5450  -33.7160   24.0930 N   0  0  0  0  0  0  0  0  0  0  0  0
  -25.8990  -34.7810   23.3630 C   0  0  0  0  0  0  0  0  0  0  0  0
  -26.6100  -34.6940   22.3580 O   0  0  0  0  0  0  0  0  0  0  0  0
  -24.9170  -33.8550   24.8710 H   0  0  0  0  0  0  0  0  0  0  0  0
  -24.1880  -36.5820   22.9490 C   0  0  0  0  0  1  0  0  0  0  0  0
  -25.3860  -36.1630   23.8180 C   0  0  0  0  0  3  0  0  0  0  0  0
  -27.4630  -37.0470   24.7830 C   0  0  0  0  0  1  0  0  0  0  0  0
  -26.4210  -37.2180   23.7750 N   0  0  0  0  0  0  0  0  0  0  0  0
  -26.0050  -38.1380   23.9030 H   0  0  0  0  0  0  0  0  0  0  0  0
  1  2  2  0
  2  5  1  0
  3  1  1  0
  4  6  2  0
  6  2  1  0
  7  4  1  0
  7  3  2  0
  8  4  1  0
  9  8  1  0
 10 11  1  0
 11 13  1  0
 12  8  1  0
 12 10  1  0
 12 13  1  0
 13 22  1  0
 14 22  1  0
 15 20  1  0
 16 17  1  0
 16 15  1  0
 18 17  1  0
 18 27  1  0
 18 19  1  0
 20 14  1  0
 20 19  1  0
 21 14  2  0
 23 22  1  0
 24 25  2  0
 25 44  1  0
 26 25  1  0
 26 29  1  0
 27 28  1  0
 27 24  1  0
 28 26  2  0
 29 30  1  0
 30 31  2  0
 32 35  1  0
 32 31  1  0
 33 32  2  0
 34 33  1  0
 34 29  2  0
 35 36  1  0
 36 41  2  0
 36 37  1  0
 37 38  2  0
 38 39  1  0
 39 43  1  0
 40 39  2  0
 41 40  1  0
 42 41  1  0
 44 45  1  0
 45 48  1  0
 45 47  1  0
 46 44  2  0
 49 24  1  0
 49 50  1  0
 51 49  1  0
 52 54  1  0
 52  3  1  0
 53 64  2  0
 54 59  1  0
 55 63  1  0
 55 65  1  0
 56 62  1  0
 56 58  1  0
 57 63  1  0
 58 57  1  0
 59 58  2  0
 60 61  1  0
 60 54  2  0
 61 56  2  0
 62 55  1  0
 63 53  1  0
 65 67  2  0
 66 65  1  0
 68 66  1  0
 69 78  2  0
 69 74  1  0
 70 66  1  0
 70 74  1  0
 71 70  1  0
 72 73  1  0
 72 71  1  0
 73 69  1  0
 74 75  2  0
 75 76  1  0
 77 76  2  0
 78 77  1  0
 79 53  1  0
 79 84  1  0
 79 80  1  0
 80 83  1  1
 80 81  1  0
 82 80  1  0
 84 87  1  0
 85 89  1  0
 85 84  1  0
 86 85  2  0
 89 88  1  0
 91 89  1  0
 91 92  1  0
 91 90  1  0
M  ISO  4   3 101  14 100  22 100  52 101
M  END
>  <TORSDO>  (41) 
F 17

>  <SCORE>  (41) 
-13.918

>  <name>  (41) 
40

>  <ligand_id>  (41) 
40

>  <original_smiles>  (41) 
[H]c1c(Oc2c([H])c([H])c3c(c2[H])C([H])([H])N(C(=O)C([H])(N([H])C(=O)C([H])(N([H])C([H])([H])[H])C([H])([H])[H])C(C([H])([H])[H])(C([H])([H])[H])C([H])([H])[H])C([H])(C(=O)N([H])C2([H])c4c([H])c([H])c([H])c([H])c4C([H])([H])C([H])([H])C2([H])[H])C3([H])[H])nc(N([H])C2([H])C([H])([H])C([H])([H])C2([H])N([H])C(=O)N2C([H])([H])C([H])([H])C([H])([H])C([H])(n3nc(-c4c([H])c([H])c(Oc5c([H])c([H])c(F)c([H])c5F)c([H])c4[H])c(C(=O)N([H])[H])c3N([H])[H])C2([H])[H])nc1C([H])([H])[H]

>  <smiles>  (41) 
[H]c1c(Oc2c([H])c([H])c3c(c2[H])C([H])([H])N(C(=O)C([H])(N([H])C(=O)C([H])(N([H])C([H])([H])[H])C([H])([H])[H])C(C([H])([H])[H])(C([H])([H])[H])C([H])([H])[H])C([H])(C(=O)N([H])C2([H])c4c([H])c([H])c([H])c([H])c4C([H])([H])C([H])([H])C2([H])[H])C3([H])[H])nc(N([H])C2([H])C([H])([H])C([H])([H])C2([H])N([H])C(=O)N2C([H])([H])C([H])([H])C([H])([H])C([H])(n3nc(-c4c([H])c([H])c(Oc5c([H])c([H])c(F)c([H])c5F)c([H])c4[H])c(C(=O)N([H])[H])c3N([H])[H])C2([H])[H])nc1C([H])([H])[H]

$$$$
41:0:0
     RDKit          3D

 96105  0  0  1  0  0  0  0  0999 V2000
  -29.7840  -23.5690   21.0060 C   0  0  0  0  0  0  0  0  0  0  0  0
  -28.8670  -23.8420   19.9480 C   0  0  0  0  0  0  0  0  0  0  0  0
  -30.1290  -22.2060   21.3510 C   0  0  0  0  0  0  0  0  0  0  0  0
  -28.4040  -22.6750   19.2620 C   0  0  0  0  0  0  0  0  0  0  0  0
  -29.6500  -21.1260   20.5420 C   0  0  0  0  0  0  0  0  0  0  0  0
  -30.4420  -24.7420   21.7320 C   0  0  0  0  0  1  0  0  0  0  0  0
  -27.4470  -22.7750   18.0870 C   0  0  0  0  0  1  0  0  0  0  0  0
  -28.7910  -21.3900   19.5360 N   0  0  0  0  0  0  0  0  0  0  0  0
  -32.3480  -21.2360   22.2030 C   0  0  0  0  0  1  0  0  0  0  0  0
  -30.3000  -21.2390   23.7490 C   0  0  0  0  0  1  0  0  0  0  0  0
  -31.0280  -21.9300   22.5790 C   0  0  0  0  0  3  0  0  0  0  0  0
  -30.1040  -19.7790   20.7480 N   0  0  0  0  0  0  0  0  0  0  0  0
  -30.8030  -19.6940   21.4750 H   0  0  0  0  0  0  0  0  0  0  0  0
  -30.6460  -14.7270   20.0360 C   0  0  0  0  0  0  0  0  0  0  0  0
  -30.3310  -12.4880   18.9730 C   0  0  0  0  0  2  0  0  0  0  0  0
  -29.3250  -12.5630   17.8050 C   0  0  0  0  0  2  0  0  0  0  0  0
  -27.8850  -12.3650   18.3180 C   0  0  0  0  0  2  0  0  0  0  0  0
  -27.5770  -13.2370   19.5620 C   0  0  0  0  0  3  0  0  0  0  0  0
  -28.7040  -13.1350   20.6170 C   0  0  0  0  0  2  0  0  0  0  0  0
  -29.9500  -13.5350   19.9530 N   0  0  0  0  0  0  0  0  0  0  0  0
  -31.8310  -14.7360   19.6880 O   0  0  0  0  0  0  0  0  0  0  0  0
  -28.5090  -17.8200   20.8060 C   0  0  0  0  0  2  0  0  0  0  0  0
  -28.6090  -16.3210   20.4400 C   0  0  0  0  0  2  0  0  0  0  0  0
  -30.7330  -17.2890   20.2180 C   0  0  0  0  0  2  0  0  0  0  0  0
  -29.6970  -18.4820   20.1220 C   0  0  0  0  0  3  0  0  0  0  0  0
  -30.0270  -15.9600   20.2830 N   0  0  0  0  0  0  0  0  0  0  0  0
  -25.2410  -13.8520   20.4250 C   0  0  0  0  0  0  0  0  0  0  0  0
  -24.1870  -13.0820   20.8340 C   0  0  0  0  0  0  0  0  0  0  0  0
  -24.6350  -11.7280   20.7520 C   0  0  0  0  0  0  0  0  0  0  0  0
  -26.2610  -12.9650   20.1200 N   0  0  0  0  0  0  0  0  0  0  0  0
  -25.9070  -11.6830   20.3790 N   0  0  0  0  0  0  0  0  0  0  0  0
  -23.9090  -10.4690   20.9470 C   0  0  0  0  0  0  0  0  0  0  0  0
  -24.3390   -9.5090   21.8880 C   0  0  0  0  0  3  0  0  0  0  0  0
  -23.6140   -8.3130   22.0710 C   0  0  0  0  0  3  0  0  0  0  0  0
  -22.4430   -8.0700   21.3140 C   0  0  0  0  0  0  0  0  0  0  0  0
  -22.0320   -9.0200   20.3610 C   0  0  0  0  0  3  0  0  0  0  0  0
  -22.7590  -10.2080   20.1760 C   0  0  0  0  0  3  0  0  0  0  0  0
  -21.6890   -6.9270   21.4070 O   0  0  0  0  0  0  0  0  0  0  0  0
  -21.5890   -6.2240   22.5810 C   0  0  0  0  0  0  0  0  0  0  0  0
  -21.0450   -6.8000   23.7500 C   0  0  0  0  0  3  0  0  0  0  0  0
  -20.9000   -6.0210   24.9150 C   0  0  0  0  0  3  0  0  0  0  0  0
  -21.2870   -4.6680   24.9110 C   0  0  0  0  0  0  0  0  0  0  0  0
  -21.8240   -4.0920   23.7460 C   0  0  0  0  0  3  0  0  0  0  0  0
  -21.9720   -4.8680   22.5840 C   0  0  0  0  0  0  0  0  0  0  0  0
  -22.4710   -4.3020   21.4590 F   0  0  0  0  0  0  0  0  0  0  0  0
  -21.1400   -3.9170   26.0280 F   0  0  0  0  0  0  0  0  0  0  0  0
  -22.8100  -13.5660   21.1840 C   0  0  0  0  0  0  0  0  0  0  0  0
  -22.1150  -12.8530   22.0630 N   0  0  0  0  0  0  0  0  0  0  0  0
  -22.3610  -14.6130   20.7160 O   0  0  0  0  0  0  0  0  0  0  0  0
  -22.4920  -12.0060   22.4620 H   0  0  0  0  0  0  0  0  0  0  0  0
  -21.1930  -13.1590   22.3410 H   0  0  0  0  0  0  0  0  0  0  0  0
  -25.4020  -15.2250   20.2630 N   0  0  0  0  0  0  0  0  0  0  0  0
  -24.6450  -15.8780   20.4300 H   0  0  0  0  0  0  0  0  0  0  0  0
  -26.2350  -15.6670   19.8990 H   0  0  0  0  0  0  0  0  0  0  0  0
  -28.5210  -25.3030   19.4030 C   0  0  0  0  0  2  0  0  0  0  0  0
  -28.2790  -26.4630   20.2930 O   0  0  0  0  0  0  0  0  0  0  0  0
  -24.5100  -31.8650   23.2300 C   0  0  0  0  0  0  0  0  0  0  0  0
  -27.1410  -27.2870   20.1990 C   0  0  0  0  0  0  0  0  0  0  0  0
  -23.3150  -30.4600   21.5900 C   0  0  0  0  0  3  0  0  0  0  0  0
  -24.7700  -28.9010   20.1770 C   0  0  0  0  0  0  0  0  0  0  0  0
  -25.8540  -30.7730   21.4180 C   0  0  0  0  0  2  0  0  0  0  0  0
  -25.9350  -29.3920   20.7770 C   0  0  0  0  0  0  0  0  0  0  0  0
  -27.1190  -28.5930   20.7830 C   0  0  0  0  0  3  0  0  0  0  0  0
  -25.9400  -26.8400   19.5970 C   0  0  0  0  0  3  0  0  0  0  0  0
  -24.7740  -27.6300   19.5820 C   0  0  0  0  0  3  0  0  0  0  0  0
  -23.5340  -29.7760   20.2140 C   0  0  0  0  0  2  0  0  0  0  0  0
  -24.5790  -31.0500   22.1360 N   0  0  0  0  0  0  0  0  0  0  0  0
  -23.4250  -32.1460   23.7570 O   0  0  0  0  0  0  0  0  0  0  0  0
  -22.6450  -29.4490   22.5520 C   0  0  0  0  0  0  0  0  0  0  0  0
  -21.3170  -29.2820   22.4250 N   0  0  0  0  0  0  0  0  0  0  0  0
  -23.3180  -28.8190   23.3710 O   0  0  0  0  0  0  0  0  0  0  0  0
  -20.8330  -29.8410   21.7370 H   0  0  0  0  0  0  0  0  0  0  0  0
  -17.9250  -28.1450   22.9570 C   0  0  0  0  0  0  0  0  0  0  0  0
  -20.4910  -28.3520   23.1980 C   0  0  0  0  0  3  0  0  0  0  0  0
  -20.5580  -26.9260   22.6070 C   0  0  0  0  0  2  0  0  0  0  0  0
  -19.4380  -26.6340   21.6030 C   0  0  0  0  0  2  0  0  0  0  0  0
  -18.0670  -26.7990   22.2650 C   0  0  0  0  0  2  0  0  0  0  0  0
  -19.0630  -28.8810   23.3810 C   0  0  0  0  0  0  0  0  0  0  0  0
  -18.8760  -30.1410   23.9880 C   0  0  0  0  0  3  0  0  0  0  0  0
  -17.5830  -30.6650   24.1760 C   0  0  0  0  0  3  0  0  0  0  0  0
  -16.4590  -29.9260   23.7690 C   0  0  0  0  0  3  0  0  0  0  0  0
  -16.6310  -28.6660   23.1670 C   0  0  0  0  0  3  0  0  0  0  0  0
  -25.7910  -32.4990   23.8560 C   0  0  0  0  0  3  0  0  0  0  0  0
  -26.2950  -31.7370   25.1440 C   0  0  1  0  0  0  0  0  0  0  0  0
  -25.1900  -31.5050   26.2010 C   0  0  0  0  0  1  0  0  0  0  0  0
  -26.8850  -30.3570   24.7680 C   0  0  0  0  0  1  0  0  0  0  0  0
  -27.4360  -32.5370   25.8130 C   0  0  0  0  0  1  0  0  0  0  0  0
  -25.4830  -33.9000   24.1740 N   0  0  0  0  0  0  0  0  0  0  0  0
  -25.8150  -34.9470   23.4060 C   0  0  0  0  0  0  0  0  0  0  0  0
  -26.4830  -34.8330   22.3750 O   0  0  0  0  0  0  0  0  0  0  0  0
  -24.8910  -34.0620   24.9750 H   0  0  0  0  0  0  0  0  0  0  0  0
  -24.0970  -36.7440   23.0290 C   0  0  0  0  0  1  0  0  0  0  0  0
  -25.3300  -36.3400   23.8520 C   0  0  0  0  0  3  0  0  0  0  0  0
  -27.4530  -37.2310   24.7050 C   0  0  0  0  0  1  0  0  0  0  0  0
  -26.3680  -37.3870   23.7400 N   0  0  0  0  0  0  0  0  0  0  0  0
  -25.9630  -38.3120   23.8660 H   0  0  0  0  0  0  0  0  0  0  0  0
  1  3  1  0
  1  6  1  0
  2  1  2  0
  3 11  1  0
  4  8  2  0
  4  2  1  0
  5 12  1  0
  5  3  2  0
  7  4  1  0
  8  5  1  0
  9 11  1  0
 11 10  1  0
 12 13  1  0
 14 26  1  0
 15 20  1  0
 16 17  1  0
 16 15  1  0
 18 17  1  0
 18 30  1  0
 18 19  1  0
 20 14  1  0
 20 19  1  0
 21 14  2  0
 23 22  1  0
 24 26  1  0
 25 24  1  0
 25 12  1  0
 25 22  1  0
 26 23  1  0
 27 28  2  0
 28 47  1  0
 29 28  1  0
 29 32  1  0
 30 31  1  0
 30 27  1  0
 31 29  2  0
 32 33  1  0
 33 34  2  0
 35 38  1  0
 35 34  1  0
 36 35  2  0
 37 36  1  0
 37 32  2  0
 38 39  1  0
 39 44  2  0
 39 40  1  0
 40 41  2  0
 42 41  1  0
 42 46  1  0
 43 42  2  0
 44 43  1  0
 45 44  1  0
 47 48  1  0
 48 51  1  0
 48 50  1  0
 49 47  2  0
 52 27  1  0
 52 53  1  0
 54 52  1  0
 55  2  1  0
 55 56  1  0
 57 68  2  0
 58 56  1  0
 58 63  1  0
 59 67  1  0
 59 69  1  0
 60 66  1  0
 60 62  1  0
 61 67  1  0
 62 63  2  0
 62 61  1  0
 64 58  2  0
 65 64  1  0
 65 60  2  0
 66 59  1  0
 67 57  1  0
 69 71  2  0
 70 69  1  0
 72 70  1  0
 73 82  2  0
 73 78  1  0
 74 70  1  0
 74 78  1  0
 75 74  1  0
 76 77  1  0
 76 75  1  0
 77 73  1  0
 78 79  2  0
 79 80  1  0
 81 80  2  0
 82 81  1  0
 83 57  1  0
 83 88  1  0
 83 84  1  0
 84 87  1  1
 84 85  1  0
 86 84  1  0
 88 91  1  0
 89 93  1  0
 89 88  1  0
 90 89  2  0
 93 92  1  0
 95 93  1  0
 95 96  1  0
 95 94  1  0
M  ISO  4  14 100  26 100  55 101  56 101
M  END
>  <TORSDO>  (42) 
F 19

>  <SCORE>  (42) 
-14.372

>  <name>  (42) 
41

>  <ligand_id>  (42) 
41

>  <original_smiles>  (42) 
[H]c1c([H])c([H])c2c(c1[H])C([H])([H])C([H])([H])C([H])([H])C2([H])N([H])C(=O)C1([H])N(C(=O)C([H])(N([H])C(=O)C([H])(N([H])C([H])([H])[H])C([H])([H])[H])C(C([H])([H])[H])(C([H])([H])[H])C([H])([H])[H])C([H])([H])c2c([H])c(OC([H])([H])c3c(C([H])([H])[H])nc(N([H])C4([H])C([H])([H])N(C(=O)N5C([H])([H])C([H])([H])C([H])([H])C([H])(n6nc(-c7c([H])c([H])c(Oc8c([H])c([H])c(F)c([H])c8F)c([H])c7[H])c(C(=O)N([H])[H])c6N([H])[H])C5([H])[H])C([H])([H])C4([H])[H])c(C([H])(C([H])([H])[H])C([H])([H])[H])c3C([H])([H])[H])c([H])c([H])c2C1([H])[H]

>  <smiles>  (42) 
[H]c1c([H])c([H])c2c(c1[H])C([H])([H])C([H])([H])C([H])([H])C2([H])N([H])C(=O)C1([H])N(C(=O)C([H])(N([H])C(=O)C([H])(N([H])C([H])([H])[H])C([H])([H])[H])C(C([H])([H])[H])(C([H])([H])[H])C([H])([H])[H])C([H])([H])c2c([H])c(OC([H])([H])c3c(C([H])([H])[H])nc(N([H])C4([H])C([H])([H])N(C(=O)N5C([H])([H])C([H])([H])C([H])([H])C([H])(n6nc(-c7c([H])c([H])c(Oc8c([H])c([H])c(F)c([H])c8F)c([H])c7[H])c(C(=O)N([H])[H])c6N([H])[H])C5([H])[H])C([H])([H])C4([H])[H])c(C([H])(C([H])([H])[H])C([H])([H])[H])c3C([H])([H])[H])c([H])c([H])c2C1([H])[H]

$$$$
42:0:0
     RDKit          3D

 92101  0  0  1  0  0  0  0  0999 V2000
  -28.2350  -24.3510   21.0870 C   0  0  0  0  0  3  0  0  0  0  0  0
  -29.0980  -21.9790   20.7810 C   0  0  0  0  0  0  0  0  0  0  0  0
  -28.5860  -23.0500   21.6040 C   0  0  0  0  0  0  0  0  0  0  0  0
  -29.1210  -22.2760   19.3970 C   0  0  0  0  0  0  0  0  0  0  0  0
  -28.3620  -24.7190   19.7260 C   0  0  0  0  0  0  0  0  0  0  0  0
  -29.7000  -21.0670   18.4750 C   0  0  0  0  0  2  0  0  0  0  0  0
  -29.4760  -19.3960   18.6290 C   0  0  0  0  0  2  0  0  0  0  0  0
  -29.5730  -19.1150   21.0080 C   0  0  0  0  0  2  0  0  0  0  0  0
  -29.8400  -20.6820   21.3840 C   0  0  0  0  0  3  0  0  0  0  0  0
  -30.1840  -18.3750   19.7210 C   0  0  0  0  0  3  0  0  0  0  0  0
  -28.4590  -22.8770   23.1110 C   0  0  0  0  0  1  0  0  0  0  0  0
  -31.3510  -20.9590   21.4920 C   0  0  0  0  0  1  0  0  0  0  0  0
  -28.8120  -23.6120   18.9200 N   0  0  0  0  0  0  0  0  0  0  0  0
  -30.8610  -15.4980   19.6300 C   0  0  0  0  0  0  0  0  0  0  0  0
  -30.8410  -13.0050   18.9330 C   0  0  0  0  0  2  0  0  0  0  0  0
  -29.8590  -12.7210   17.7690 C   0  0  0  0  0  2  0  0  0  0  0  0
  -28.4320  -12.4790   18.2970 C   0  0  0  0  0  2  0  0  0  0  0  0
  -28.0330  -13.5050   19.3900 C   0  0  0  0  0  3  0  0  0  0  0  0
  -29.1410  -13.7220   20.4420 C   0  0  0  0  0  2  0  0  0  0  0  0
  -30.3280  -14.1870   19.7090 N   0  0  0  0  0  0  0  0  0  0  0  0
  -32.0620  -15.5350   19.3240 O   0  0  0  0  0  0  0  0  0  0  0  0
  -30.0470  -16.7200   19.7110 N   0  0  0  0  0  0  0  0  0  0  0  0
  -29.0890  -16.4500   19.8860 H   0  0  0  0  0  0  0  0  0  0  0  0
  -25.7570  -14.0950   20.3780 C   0  0  0  0  0  0  0  0  0  0  0  0
  -24.7070  -13.3310   20.8020 C   0  0  0  0  0  0  0  0  0  0  0  0
  -25.1210  -11.9720   20.6570 C   0  0  0  0  0  0  0  0  0  0  0  0
  -26.7420  -13.2050   19.9930 N   0  0  0  0  0  0  0  0  0  0  0  0
  -26.3780  -11.9160   20.2290 N   0  0  0  0  0  0  0  0  0  0  0  0
  -24.3690  -10.7220   20.8460 C   0  0  0  0  0  0  0  0  0  0  0  0
  -24.7230   -9.7900   21.8450 C   0  0  0  0  0  3  0  0  0  0  0  0
  -23.9700   -8.6090   22.0200 C   0  0  0  0  0  3  0  0  0  0  0  0
  -22.8490   -8.3510   21.1950 C   0  0  0  0  0  0  0  0  0  0  0  0
  -22.5140   -9.2730   20.1870 C   0  0  0  0  0  3  0  0  0  0  0  0
  -23.2680  -10.4460   20.0110 C   0  0  0  0  0  3  0  0  0  0  0  0
  -22.0740   -7.2190   21.2760 O   0  0  0  0  0  0  0  0  0  0  0  0
  -21.7650   -6.6440   22.4830 C   0  0  0  0  0  0  0  0  0  0  0  0
  -21.0700   -7.3500   23.4880 C   0  0  0  0  0  3  0  0  0  0  0  0
  -20.7100   -6.6990   24.6860 C   0  0  0  0  0  3  0  0  0  0  0  0
  -21.0350   -5.3430   24.8760 C   0  0  0  0  0  0  0  0  0  0  0  0
  -21.7210   -4.6350   23.8720 C   0  0  0  0  0  3  0  0  0  0  0  0
  -22.0830   -5.2840   22.6780 C   0  0  0  0  0  0  0  0  0  0  0  0
  -22.7260   -4.5940   21.7060 F   0  0  0  0  0  0  0  0  0  0  0  0
  -20.6830   -4.7150   26.0210 F   0  0  0  0  0  0  0  0  0  0  0  0
  -23.3550  -13.8350   21.2180 C   0  0  0  0  0  0  0  0  0  0  0  0
  -22.6930  -13.1280   22.1280 N   0  0  0  0  0  0  0  0  0  0  0  0
  -22.9020  -14.8890   20.7740 O   0  0  0  0  0  0  0  0  0  0  0  0
  -23.0780  -12.2780   22.5110 H   0  0  0  0  0  0  0  0  0  0  0  0
  -21.7870  -13.4440   22.4460 H   0  0  0  0  0  0  0  0  0  0  0  0
  -25.9450  -15.4690   20.2560 N   0  0  0  0  0  0  0  0  0  0  0  0
  -25.2020  -16.1250   20.4670 H   0  0  0  0  0  0  0  0  0  0  0  0
  -26.7420  -15.9020   19.8110 H   0  0  0  0  0  0  0  0  0  0  0  0
  -28.2500  -26.1660   19.2740 O   0  0  0  0  0  0  0  0  0  0  0  0
  -24.6470  -31.6930   22.9410 C   0  0  0  0  0  0  0  0  0  0  0  0
  -27.1680  -27.1610   19.4630 C   0  0  0  0  0  0  0  0  0  0  0  0
  -23.3870  -30.3470   21.3060 C   0  0  0  0  0  3  0  0  0  0  0  0
  -24.7920  -28.8990   19.6880 C   0  0  0  0  0  0  0  0  0  0  0  0
  -25.9220  -30.6920   20.9900 C   0  0  0  0  0  2  0  0  0  0  0  0
  -26.0010  -29.3290   20.2510 C   0  0  0  0  0  0  0  0  0  0  0  0
  -27.1850  -28.4800   20.1160 C   0  0  0  0  0  3  0  0  0  0  0  0
  -25.9220  -26.8700   18.8640 C   0  0  0  0  0  3  0  0  0  0  0  0
  -24.7710  -27.6910   18.9730 C   0  0  0  0  0  3  0  0  0  0  0  0
  -23.5410  -29.7580   19.8760 C   0  0  0  0  0  2  0  0  0  0  0  0
  -24.6750  -30.9350   21.8000 N   0  0  0  0  0  0  0  0  0  0  0  0
  -23.5900  -31.9050   23.5570 O   0  0  0  0  0  0  0  0  0  0  0  0
  -22.8100  -29.2620   22.2520 C   0  0  0  0  0  0  0  0  0  0  0  0
  -21.4910  -29.0170   22.1770 N   0  0  0  0  0  0  0  0  0  0  0  0
  -23.5530  -28.6470   23.0200 O   0  0  0  0  0  0  0  0  0  0  0  0
  -20.9440  -29.5680   21.5310 H   0  0  0  0  0  0  0  0  0  0  0  0
  -18.2400  -27.4990   22.7080 C   0  0  0  0  0  0  0  0  0  0  0  0
  -20.7670  -27.9930   22.9390 C   0  0  0  0  0  3  0  0  0  0  0  0
  -20.9890  -26.5880   22.3320 C   0  0  0  0  0  2  0  0  0  0  0  0
  -19.9050  -26.1850   21.3270 C   0  0  0  0  0  2  0  0  0  0  0  0
  -18.5270  -26.1880   21.9950 C   0  0  0  0  0  2  0  0  0  0  0  0
  -19.2900  -28.3530   23.1370 C   0  0  0  0  0  0  0  0  0  0  0  0
  -18.9640  -29.5740   23.7670 C   0  0  0  0  0  3  0  0  0  0  0  0
  -17.6210  -29.9440   23.9670 C   0  0  0  0  0  3  0  0  0  0  0  0
  -16.5860  -29.0880   23.5510 C   0  0  0  0  0  3  0  0  0  0  0  0
  -16.8960  -27.8670   22.9290 C   0  0  0  0  0  3  0  0  0  0  0  0
  -25.9390  -32.3450   23.5200 C   0  0  0  0  0  3  0  0  0  0  0  0
  -25.5930  -33.7000   23.9840 N   0  0  0  0  0  0  0  0  0  0  0  0
  -25.8710  -34.8320   23.3230 C   0  0  0  0  0  0  0  0  0  0  0  0
  -26.5120  -34.8470   22.2680 O   0  0  0  0  0  0  0  0  0  0  0  0
  -25.0130  -33.7620   24.8070 H   0  0  0  0  0  0  0  0  0  0  0  0
  -24.0890  -36.6060   23.1880 C   0  0  0  0  0  1  0  0  0  0  0  0
  -25.3620  -36.1570   23.9250 C   0  0  0  0  0  3  0  0  0  0  0  0
  -27.4890  -37.0200   24.7950 C   0  0  0  0  0  1  0  0  0  0  0  0
  -26.3650  -37.2440   23.8900 N   0  0  0  0  0  0  0  0  0  0  0  0
  -25.9400  -38.1350   24.1270 H   0  0  0  0  0  0  0  0  0  0  0  0
  -26.5790  -31.5140   24.7010 C   0  0  1  0  0  0  0  0  0  0  0  0
  -25.5780  -31.1520   25.8230 C   0  0  0  0  0  1  0  0  0  0  0  0
  -27.1920  -30.1930   24.1830 C   0  0  0  0  0  1  0  0  0  0  0  0
  -27.7400  -32.3150   25.3380 C   0  0  0  0  0  1  0  0  0  0  0  0
  1  3  2  0
  2  9  1  0
  2  3  1  0
  3 11  1  0
  4  2  2  0
  5  1  1  0
  6  7  1  0
  6  4  1  0
  7 10  1  0
  8  9  1  0
  9 12  1  0
 10 22  1  0
 10  8  1  0
 13  4  1  0
 13  5  2  0
 14 20  1  0
 14 22  1  0
 15 20  1  0
 16 17  1  0
 16 15  1  0
 18 17  1  0
 18 27  1  0
 18 19  1  0
 20 19  1  0
 21 14  2  0
 22 23  1  0
 24 25  2  0
 25 44  1  0
 26 25  1  0
 26 29  1  0
 27 28  1  0
 27 24  1  0
 28 26  2  0
 29 30  1  0
 30 31  2  0
 32 35  1  0
 32 31  1  0
 33 32  2  0
 34 33  1  0
 34 29  2  0
 35 36  1  0
 36 41  2  0
 36 37  1  0
 37 38  2  0
 38 39  1  0
 39 43  1  0
 40 39  2  0
 41 40  1  0
 42 41  1  0
 44 45  1  0
 45 48  1  0
 45 47  1  0
 46 44  2  0
 49 24  1  0
 49 50  1  0
 51 49  1  0
 52 54  1  0
 52  5  1  0
 53 64  2  0
 54 59  1  0
 55 63  1  0
 55 65  1  0
 56 62  1  0
 56 58  1  0
 57 63  1  0
 58 57  1  0
 59 58  2  0
 60 61  1  0
 60 54  2  0
 61 56  2  0
 62 55  1  0
 63 53  1  0
 65 67  2  0
 66 65  1  0
 68 66  1  0
 69 78  2  0
 69 74  1  0
 70 66  1  0
 70 74  1  0
 71 70  1  0
 72 73  1  0
 72 71  1  0
 73 69  1  0
 74 75  2  0
 75 76  1  0
 77 76  2  0
 78 77  1  0
 79 53  1  0
 79 80  1  0
 79 89  1  0
 80 83  1  0
 81 85  1  0
 81 80  1  0
 82 81  2  0
 85 84  1  0
 87 85  1  0
 87 88  1  0
 87 86  1  0
 89 92  1  1
 89 90  1  0
 91 89  1  0
M  ISO  4   5 101  14 100  22 100  52 101
M  END
>  <TORSDO>  (43) 
F 16

>  <SCORE>  (43) 
-12.997

>  <name>  (43) 
42

>  <ligand_id>  (43) 
42

>  <original_smiles>  (43) 
[H]c1c([H])c([H])c2c(c1[H])C([H])([H])C([H])([H])C([H])([H])C2([H])N([H])C(=O)C1([H])N(C(=O)C([H])(N([H])C(=O)C([H])(N([H])C([H])([H])[H])C([H])([H])[H])C(C([H])([H])[H])(C([H])([H])[H])C([H])([H])[H])C([H])([H])c2c([H])c(Oc3nc4c(c(C([H])([H])[H])c3[H])C([H])(C([H])([H])[H])C([H])([H])C([H])(N([H])C(=O)N3C([H])([H])C([H])([H])C([H])([H])C([H])(n5nc(-c6c([H])c([H])c(Oc7c([H])c([H])c(F)c([H])c7F)c([H])c6[H])c(C(=O)N([H])[H])c5N([H])[H])C3([H])[H])C([H])([H])C4([H])[H])c([H])c([H])c2C1([H])[H]

>  <smiles>  (43) 
[H]c1c([H])c([H])c2c(c1[H])C([H])([H])C([H])([H])C([H])([H])C2([H])N([H])C(=O)C1([H])N(C(=O)C([H])(N([H])C(=O)C([H])(N([H])C([H])([H])[H])C([H])([H])[H])C(C([H])([H])[H])(C([H])([H])[H])C([H])([H])[H])C([H])([H])c2c([H])c(Oc3nc4c(c(C([H])([H])[H])c3[H])C([H])(C([H])([H])[H])C([H])([H])C([H])(N([H])C(=O)N3C([H])([H])C([H])([H])C([H])([H])C([H])(n5nc(-c6c([H])c([H])c(Oc7c([H])c([H])c(F)c([H])c7F)c([H])c6[H])c(C(=O)N([H])[H])c5N([H])[H])C3([H])[H])C([H])([H])C4([H])[H])c([H])c([H])c2C1([H])[H]

$$$$
43:0:0
     RDKit          3D

 92 98  0  0  1  0  0  0  0  0999 V2000
  -31.2330  -16.0420   19.4400 C   0  0  0  0  0  0  0  0  0  0  0  0
  -31.2050  -13.3540   18.7370 C   0  0  0  0  0  2  0  0  0  0  0  0
  -30.2340  -12.7600   17.6590 C   0  0  0  0  0  2  0  0  0  0  0  0
  -28.8790  -12.3990   18.2740 C   0  0  0  0  0  2  0  0  0  0  0  0
  -28.4500  -13.4870   19.2730 C   0  0  0  0  0  3  0  0  0  0  0  0
  -29.5680  -13.9620   20.2520 C   0  0  0  0  0  2  0  0  0  0  0  0
  -30.6490  -14.6350   19.4550 N   0  0  0  0  0  0  0  0  0  0  0  0
  -32.4230  -15.7950   19.1160 O   0  0  0  0  0  0  0  0  0  0  0  0
  -29.8310  -18.0830   20.6800 C   0  0  0  0  0  2  0  0  0  0  0  0
  -30.7200  -19.3770   18.9660 C   0  0  0  0  0  2  0  0  0  0  0  0
  -30.4340  -19.3090   21.5510 C   0  0  0  0  0  3  0  0  0  0  0  0
  -30.3690  -21.2260   19.7390 C   0  0  0  0  0  1  0  0  0  0  0  0
  -30.0910  -18.9060   23.0100 C   0  0  0  0  0  1  0  0  0  0  0  0
  -30.6470  -17.6070   19.5310 N   0  0  0  0  0  0  0  0  0  0  0  0
  -30.0650  -20.7900   21.1760 N   0  0  2  0  0  4  0  0  0  0  0  0
  -29.0650  -20.8720   21.2940 H   0  0  0  0  0  0  0  0  0  0  0  0
  -26.2580  -14.1430   20.3480 C   0  0  0  0  0  0  0  0  0  0  0  0
  -25.1680  -13.4380   20.7780 C   0  0  0  0  0  0  0  0  0  0  0  0
  -25.4950  -12.0580   20.6030 C   0  0  0  0  0  0  0  0  0  0  0  0
  -27.1770  -13.2040   19.9270 N   0  0  0  0  0  0  0  0  0  0  0  0
  -26.7400  -11.9320   20.1440 N   0  0  0  0  0  0  0  0  0  0  0  0
  -24.6630  -10.8570   20.7950 C   0  0  0  0  0  0  0  0  0  0  0  0
  -25.0100   -9.8560   21.7280 C   0  0  0  0  0  3  0  0  0  0  0  0
  -24.1780   -8.7290   21.9140 C   0  0  0  0  0  3  0  0  0  0  0  0
  -22.9840   -8.5950   21.1660 C   0  0  0  0  0  0  0  0  0  0  0  0
  -22.6540   -9.5840   20.2230 C   0  0  0  0  0  3  0  0  0  0  0  0
  -23.4840  -10.7030   20.0350 C   0  0  0  0  0  3  0  0  0  0  0  0
  -22.1300   -7.5210   21.2580 O   0  0  0  0  0  0  0  0  0  0  0  0
  -21.9110   -6.8760   22.4480 C   0  0  0  0  0  0  0  0  0  0  0  0
  -21.3520   -7.5380   23.5640 C   0  0  0  0  0  3  0  0  0  0  0  0
  -21.0830   -6.8190   24.7470 C   0  0  0  0  0  3  0  0  0  0  0  0
  -21.3600   -5.4400   24.8120 C   0  0  0  0  0  0  0  0  0  0  0  0
  -21.9110   -4.7790   23.6980 C   0  0  0  0  0  3  0  0  0  0  0  0
  -22.1840   -5.4960   22.5200 C   0  0  0  0  0  0  0  0  0  0  0  0
  -22.6960   -4.8500   21.4440 F   0  0  0  0  0  0  0  0  0  0  0  0
  -21.0950   -4.7470   25.9430 F   0  0  0  0  0  0  0  0  0  0  0  0
  -23.8630  -14.0240   21.2230 C   0  0  0  0  0  0  0  0  0  0  0  0
  -23.2140  -13.4070   22.2040 N   0  0  0  0  0  0  0  0  0  0  0  0
  -23.4330  -15.0680   20.7350 O   0  0  0  0  0  0  0  0  0  0  0  0
  -23.5770  -12.5660   22.6230 H   0  0  0  0  0  0  0  0  0  0  0  0
  -22.3380  -13.7850   22.5380 H   0  0  0  0  0  0  0  0  0  0  0  0
  -26.5310  -15.5010   20.2390 N   0  0  0  0  0  0  0  0  0  0  0  0
  -25.8400  -16.2100   20.4590 H   0  0  0  0  0  0  0  0  0  0  0  0
  -27.3710  -15.8770   19.8180 H   0  0  0  0  0  0  0  0  0  0  0  0
  -29.8420  -22.9650   22.5100 C   0  0  0  0  0  2  0  0  0  0  0  0
  -30.1960  -21.9050   23.5160 C   0  0  0  0  0  2  0  0  0  0  0  0
  -30.7150  -21.7860   22.0920 C   0  0  0  0  0  3  0  0  0  0  0  0
  -31.0300  -20.5550   16.7020 C   0  0  0  0  0  1  0  0  0  0  0  0
  -30.2580  -18.1790   16.6760 C   0  0  0  0  0  1  0  0  0  0  0  0
  -30.2330  -19.4870   17.4880 C   0  0  0  0  0  3  0  0  0  0  0  0
  -29.7520  -23.2290   19.3000 C   0  0  0  0  0 15  0  0  0  0  0  0
  -29.4890  -25.0660   19.7870 O   0  0  0  0  0  1  0  0  0  0  0  0
  -25.1230  -30.8520   23.2340 C   0  0  0  0  0  0  0  0  0  0  0  0
  -28.3960  -26.2920   19.7950 C   0  0  0  0  0  0  0  0  0  0  0  0
  -24.2000  -29.5520   21.3690 C   0  0  0  0  0  3  0  0  0  0  0  0
  -25.9070  -28.2290   19.8500 C   0  0  0  0  0  0  0  0  0  0  0  0
  -26.7620  -29.9200   21.4400 C   0  0  0  0  0  2  0  0  0  0  0  0
  -27.0280  -28.5740   20.6160 C   0  0  0  0  0  0  0  0  0  0  0  0
  -28.2340  -27.6440   20.5510 C   0  0  0  0  0  3  0  0  0  0  0  0
  -27.2080  -26.2330   18.9950 C   0  0  0  0  0  3  0  0  0  0  0  0
  -26.0550  -27.1020   19.0180 C   0  0  0  0  0  3  0  0  0  0  0  0
  -24.5980  -29.0540   19.9420 C   0  0  0  0  0  2  0  0  0  0  0  0
  -25.3810  -30.1420   22.0740 N   0  0  0  0  0  0  0  0  0  0  0  0
  -23.9730  -30.9710   23.6970 O   0  0  0  0  0  0  0  0  0  0  0  0
  -23.5360  -28.3990   22.1740 C   0  0  0  0  0  0  0  0  0  0  0  0
  -22.2600  -28.0680   21.8900 N   0  0  0  0  0  0  0  0  0  0  0  0
  -24.1900  -27.8030   23.0310 O   0  0  0  0  0  0  0  0  0  0  0  0
  -21.7690  -28.6160   21.1970 H   0  0  0  0  0  0  0  0  0  0  0  0
  -19.0830  -26.2870   21.9120 C   0  0  0  0  0  0  0  0  0  0  0  0
  -21.5240  -26.9380   22.4780 C   0  0  0  0  0  3  0  0  0  0  0  0
  -21.9170  -25.6040   21.8020 C   0  0  0  0  0  2  0  0  0  0  0  0
  -20.9900  -25.2170   20.6430 C   0  0  0  0  0  2  0  0  0  0  0  0
  -19.5490  -25.0680   21.1350 C   0  0  0  0  0  2  0  0  0  0  0  0
  -20.0080  -27.1770   22.5250 C   0  0  0  0  0  0  0  0  0  0  0  0
  -19.5160  -28.3110   23.2070 C   0  0  0  0  0  3  0  0  0  0  0  0
  -18.1330  -28.5620   23.2790 C   0  0  0  0  0  3  0  0  0  0  0  0
  -17.2240  -27.6780   22.6770 C   0  0  0  0  0  3  0  0  0  0  0  0
  -17.7000  -26.5410   21.9990 C   0  0  0  0  0  3  0  0  0  0  0  0
  -26.2530  -31.5620   24.0390 C   0  0  0  0  0  3  0  0  0  0  0  0
  -25.8390  -32.9580   24.3060 N   0  0  0  0  0  0  0  0  0  0  0  0
  -26.2150  -34.0320   23.5980 C   0  0  0  0  0  0  0  0  0  0  0  0
  -27.0000  -33.9560   22.6510 O   0  0  0  0  0  0  0  0  0  0  0  0
  -25.1530  -33.0860   25.0350 H   0  0  0  0  0  0  0  0  0  0  0  0
  -24.4910  -35.7920   23.0500 C   0  0  0  0  0  1  0  0  0  0  0  0
  -25.6350  -35.4090   24.0010 C   0  0  0  0  0  3  0  0  0  0  0  0
  -27.6240  -36.3620   25.0880 C   0  0  0  0  0  1  0  0  0  0  0  0
  -26.6420  -36.4950   24.0160 N   0  0  0  0  0  0  0  0  0  0  0  0
  -26.1920  -37.4010   24.1100 H   0  0  0  0  0  0  0  0  0  0  0  0
  -26.5740  -30.8410   25.4070 C   0  0  1  0  0  0  0  0  0  0  0  0
  -25.3330  -30.6240   26.3070 C   0  0  0  0  0  1  0  0  0  0  0  0
  -27.2160  -29.4590   25.1660 C   0  0  0  0  0  1  0  0  0  0  0  0
  -27.6140  -31.6700   26.2000 C   0  0  0  0  0  1  0  0  0  0  0  0
  1  7  1  0
  1 14  1  0
  2  7  1  0
  3  4  1  0
  3  2  1  0
  5  4  1  0
  5 20  1  0
  5  6  1  0
  7  6  1  0
  8  1  2  0
  9 11  1  0
 10 14  1  0
 11 13  1  0
 12 15  1  0
 14  9  1  0
 15 16  1  6
 15 11  1  0
 15 47  1  0
 17 18  2  0
 18 37  1  0
 19 18  1  0
 19 22  1  0
 20 21  1  0
 20 17  1  0
 21 19  2  0
 22 23  1  0
 23 24  2  0
 25 28  1  0
 25 24  1  0
 26 25  2  0
 27 26  1  0
 27 22  2  0
 28 29  1  0
 29 34  2  0
 29 30  1  0
 30 31  2  0
 31 32  1  0
 32 36  1  0
 33 32  2  0
 34 33  1  0
 35 34  1  0
 37 38  1  0
 38 41  1  0
 38 40  1  0
 39 37  2  0
 42 17  1  0
 42 43  1  0
 44 42  1  0
 45 46  1  0
 47 45  1  0
 47 46  1  0
 48 50  1  0
 49 50  1  0
 50 10  1  0
 52 54  1  0
 53 64  2  0
 54 59  1  0
 55 63  1  0
 55 65  1  0
 56 62  1  0
 56 58  1  0
 57 63  1  0
 58 57  1  0
 59 58  2  0
 60 61  1  0
 60 54  2  0
 61 56  2  0
 62 55  1  0
 63 53  1  0
 65 67  2  0
 66 65  1  0
 68 66  1  0
 69 78  2  0
 69 74  1  0
 70 66  1  0
 70 74  1  0
 71 70  1  0
 72 73  1  0
 72 71  1  0
 73 69  1  0
 74 75  2  0
 75 76  1  0
 77 76  2  0
 78 77  1  0
 79 53  1  0
 79 80  1  0
 79 89  1  0
 80 83  1  0
 81 85  1  0
 81 80  1  0
 82 81  2  0
 85 84  1  0
 85 87  1  0
 87 88  1  0
 87 86  1  0
 89 92  1  1
 89 90  1  0
 91 89  1  0
M  ISO  4   1 100  14 100  51 101  52 101
M  END
>  <TORSDO>  (44) 
F 18

>  <SCORE>  (44) 
-11.204

>  <name>  (44) 
43

>  <ligand_id>  (44) 
43

>  <original_smiles>  (44) 
[H]c1c([H])c([H])c2c(c1[H])C([H])([H])C([H])([H])C([H])([H])C2([H])N([H])C(=O)C1([H])N(C(=O)C([H])(N([H])C(=O)C([H])(N([H])C([H])([H])[H])C([H])([H])[H])C(C([H])([H])[H])(C([H])([H])[H])C([H])([H])[H])C([H])([H])c2c([H])c(OC([H])([H])C3([H])C([H])(C([H])(C([H])([H])[H])C([H])([H])[H])N(C(=O)N4C([H])([H])C([H])([H])C([H])([H])C([H])(n5nc(-c6c([H])c([H])c(Oc7c([H])c([H])c(F)c([H])c7F)c([H])c6[H])c(C(=O)N([H])[H])c5N([H])[H])C4([H])[H])C([H])([H])C([H])(C([H])([H])[H])[N+]3([H])C3([H])C([H])([H])C3([H])[H])c([H])c([H])c2C1([H])[H]

>  <smiles>  (44) 
[H]c1c([H])c([H])c2c(c1[H])C([H])([H])C([H])([H])C([H])([H])C2([H])N([H])C(=O)C1([H])N(C(=O)C([H])(N([H])C(=O)C([H])(N([H])C([H])([H])[H])C([H])([H])[H])C(C([H])([H])[H])(C([H])([H])[H])C([H])([H])[H])C([H])([H])c2c([H])c(OC([H])([H])C3([H])C([H])(C([H])(C([H])([H])[H])C([H])([H])[H])N(C(=O)N4C([H])([H])C([H])([H])C([H])([H])C([H])(n5nc(-c6c([H])c([H])c(Oc7c([H])c([H])c(F)c([H])c7F)c([H])c6[H])c(C(=O)N([H])[H])c5N([H])[H])C4([H])[H])C([H])([H])C([H])(C([H])([H])[H])[N+]3([H])C3([H])C([H])([H])C3([H])[H])c([H])c([H])c2C1([H])[H]

$$$$
44:0:0
     RDKit          3D

 93102  0  0  1  0  0  0  0  0999 V2000
  -28.6660  -22.1590   20.6480 C   0  0  0  0  0  3  0  0  0  0  0  0
  -29.5300  -23.6200   18.9390 C   0  0  0  0  0  3  0  0  0  0  0  0
  -28.7550  -23.5270   20.1100 C   0  0  0  0  0  0  0  0  0  0  0  0
  -29.3260  -21.0000   20.0340 C   0  0  0  0  0  0  0  0  0  0  0  0
  -30.1280  -22.4690   18.3930 C   0  0  0  0  0  0  0  0  0  0  0  0
  -30.0430  -21.2230   18.9080 N   0  0  0  0  0  0  0  0  0  0  0  0
  -30.6170  -14.9140   20.3140 C   0  0  0  0  0  0  0  0  0  0  0  0
  -30.3610  -12.6050   19.3400 C   0  0  0  0  0  2  0  0  0  0  0  0
  -29.4180  -12.5940   18.1170 C   0  0  0  0  0  2  0  0  0  0  0  0
  -27.9610  -12.3930   18.5700 C   0  0  0  0  0  2  0  0  0  0  0  0
  -27.5760  -13.3110   19.7610 C   0  0  0  0  0  3  0  0  0  0  0  0
  -28.6520  -13.3460   20.8690 C   0  0  0  0  0  2  0  0  0  0  0  0
  -29.9200  -13.7150   20.2290 N   0  0  0  0  0  0  0  0  0  0  0  0
  -31.8280  -14.8700   20.0760 O   0  0  0  0  0  0  0  0  0  0  0  0
  -28.7640  -18.3370   19.5410 C   0  0  0  0  0  2  0  0  0  0  0  0
  -30.7010  -18.7810   20.8770 C   0  0  0  0  0  2  0  0  0  0  0  0
  -28.7870  -16.7800   19.9680 C   0  0  0  0  0  2  0  0  0  0  0  0
  -30.7120  -17.2560   21.3760 C   0  0  0  0  0  2  0  0  0  0  0  0
  -29.3200  -19.4380   20.5270 C   0  0  0  0  0  3  0  0  0  0  0  0
  -30.0220  -16.1800   20.5780 N   0  0  0  0  0  0  0  0  0  0  0  0
  -25.2090  -13.8900   20.5320 C   0  0  0  0  0  0  0  0  0  0  0  0
  -24.1480  -13.1140   20.9060 C   0  0  0  0  0  0  0  0  0  0  0  0
  -24.6120  -11.7640   20.8630 C   0  0  0  0  0  0  0  0  0  0  0  0
  -26.2490  -13.0120   20.2790 N   0  0  0  0  0  0  0  0  0  0  0  0
  -25.9010  -11.7270   20.5460 N   0  0  0  0  0  0  0  0  0  0  0  0
  -23.8870  -10.5010   21.0480 C   0  0  0  0  0  0  0  0  0  0  0  0
  -24.3180   -9.5290   21.9780 C   0  0  0  0  0  3  0  0  0  0  0  0
  -23.5880   -8.3330   22.1540 C   0  0  0  0  0  3  0  0  0  0  0  0
  -22.4160   -8.1000   21.3970 C   0  0  0  0  0  0  0  0  0  0  0  0
  -22.0050   -9.0600   20.4560 C   0  0  0  0  0  3  0  0  0  0  0  0
  -22.7340  -10.2470   20.2790 C   0  0  0  0  0  3  0  0  0  0  0  0
  -21.6590   -6.9560   21.4830 O   0  0  0  0  0  0  0  0  0  0  0  0
  -21.6040   -6.2150   22.6350 C   0  0  0  0  0  0  0  0  0  0  0  0
  -21.1600   -6.7650   23.8570 C   0  0  0  0  0  3  0  0  0  0  0  0
  -21.0530   -5.9490   25.0010 C   0  0  0  0  0  3  0  0  0  0  0  0
  -21.3810   -4.5830   24.9260 C   0  0  0  0  0  0  0  0  0  0  0  0
  -21.8200   -4.0310   23.7080 C   0  0  0  0  0  3  0  0  0  0  0  0
  -21.9280   -4.8440   22.5670 C   0  0  0  0  0  0  0  0  0  0  0  0
  -22.3310   -4.3030   21.3920 F   0  0  0  0  0  0  0  0  0  0  0  0
  -21.2700   -3.7960   26.0210 F   0  0  0  0  0  0  0  0  0  0  0  0
  -22.7530  -13.5920   21.1850 C   0  0  0  0  0  0  0  0  0  0  0  0
  -22.0290  -12.8890   22.0490 N   0  0  0  0  0  0  0  0  0  0  0  0
  -22.3150  -14.6220   20.6750 O   0  0  0  0  0  0  0  0  0  0  0  0
  -22.3960  -12.0560   22.4820 H   0  0  0  0  0  0  0  0  0  0  0  0
  -21.0920  -13.1900   22.2800 H   0  0  0  0  0  0  0  0  0  0  0  0
  -25.3690  -15.2630   20.3620 N   0  0  0  0  0  0  0  0  0  0  0  0
  -24.6040  -15.9150   20.4870 H   0  0  0  0  0  0  0  0  0  0  0  0
  -26.2140  -15.7020   20.0230 H   0  0  0  0  0  0  0  0  0  0  0  0
  -30.8690  -22.5710   17.2300 N   0  0  0  0  0  0  0  0  0  0  0  0
  -30.7630  -23.3970   16.6540 H   0  0  0  0  0  0  0  0  0  0  0  0
  -31.0790  -21.7260   16.7140 H   0  0  0  0  0  0  0  0  0  0  0  0
  -28.0030  -24.8490   20.6780 C   0  0  0  0  0  2  0  0  0  0  0  0
  -28.2780  -26.2900   20.2240 O   0  0  0  0  0  0  0  0  0  0  0  0
  -24.6130  -31.8890   23.2440 C   0  0  0  0  0  0  0  0  0  0  0  0
  -27.2080  -27.2350   20.2110 C   0  0  0  0  0  0  0  0  0  0  0  0
  -23.4120  -30.4890   21.6070 C   0  0  0  0  0  3  0  0  0  0  0  0
  -24.8620  -28.9240   20.1840 C   0  0  0  0  0  0  0  0  0  0  0  0
  -25.9590  -30.7820   21.4280 C   0  0  0  0  0  2  0  0  0  0  0  0
  -26.0390  -29.3910   20.7840 C   0  0  0  0  0  0  0  0  0  0  0  0
  -27.2170  -28.5620   20.7810 C   0  0  0  0  0  3  0  0  0  0  0  0
  -26.0090  -26.8560   19.5700 C   0  0  0  0  0  3  0  0  0  0  0  0
  -24.8550  -27.6660   19.5650 C   0  0  0  0  0  3  0  0  0  0  0  0
  -23.6290  -29.8100   20.2290 C   0  0  0  0  0  2  0  0  0  0  0  0
  -24.6810  -31.0730   22.1490 N   0  0  0  0  0  0  0  0  0  0  0  0
  -23.5290  -32.1690   23.7770 O   0  0  0  0  0  0  0  0  0  0  0  0
  -22.7430  -29.4790   22.5710 C   0  0  0  0  0  0  0  0  0  0  0  0
  -21.4160  -29.3000   22.4460 N   0  0  0  0  0  0  0  0  0  0  0  0
  -23.4200  -28.8570   23.3930 O   0  0  0  0  0  0  0  0  0  0  0  0
  -20.9260  -29.8500   21.7550 H   0  0  0  0  0  0  0  0  0  0  0  0
  -18.0420  -28.0910   22.9580 C   0  0  0  0  0  0  0  0  0  0  0  0
  -20.6000  -28.3610   23.2200 C   0  0  0  0  0  3  0  0  0  0  0  0
  -20.7070  -26.9290   22.6490 C   0  0  0  0  0  2  0  0  0  0  0  0
  -19.6030  -26.5990   21.6390 C   0  0  0  0  0  2  0  0  0  0  0  0
  -18.2210  -26.7410   22.2840 C   0  0  0  0  0  2  0  0  0  0  0  0
  -19.1590  -28.8580   23.3840 C   0  0  0  0  0  0  0  0  0  0  0  0
  -18.9370  -30.1200   23.9760 C   0  0  0  0  0  3  0  0  0  0  0  0
  -17.6300  -30.6160   24.1450 C   0  0  0  0  0  3  0  0  0  0  0  0
  -16.5280  -29.8470   23.7340 C   0  0  0  0  0  3  0  0  0  0  0  0
  -16.7350  -28.5860   23.1470 C   0  0  0  0  0  3  0  0  0  0  0  0
  -25.8920  -32.5290   23.8660 C   0  0  0  0  0  3  0  0  0  0  0  0
  -25.5810  -33.9310   24.1880 N   0  0  0  0  0  0  0  0  0  0  0  0
  -25.9110  -34.9820   23.4260 C   0  0  0  0  0  0  0  0  0  0  0  0
  -26.5800  -34.8740   22.3940 O   0  0  0  0  0  0  0  0  0  0  0  0
  -24.9890  -34.0910   24.9900 H   0  0  0  0  0  0  0  0  0  0  0  0
  -24.1870  -36.7780   23.0660 C   0  0  0  0  0  1  0  0  0  0  0  0
  -25.4250  -36.3720   23.8810 C   0  0  0  0  0  3  0  0  0  0  0  0
  -27.5550  -37.2570   24.7180 C   0  0  0  0  0  1  0  0  0  0  0  0
  -26.4580  -37.4230   23.7700 N   0  0  0  0  0  0  0  0  0  0  0  0
  -26.0510  -38.3440   23.9160 H   0  0  0  0  0  0  0  0  0  0  0  0
  -26.4050  -31.7680   25.1490 C   0  0  1  0  0  0  0  0  0  0  0  0
  -25.3100  -31.5400   26.2160 C   0  0  0  0  0  1  0  0  0  0  0  0
  -26.9910  -30.3880   24.7740 C   0  0  0  0  0  1  0  0  0  0  0  0
  -27.5520  -32.5700   25.8090 C   0  0  0  0  0  1  0  0  0  0  0  0
  2  3  2  0
  3  1  1  0
  3 52  1  0
  4  1  2  0
  5  6  2  0
  5  2  1  0
  6  4  1  0
  7 20  1  0
  8 13  1  0
  9 10  1  0
  9  8  1  0
 11 10  1  0
 11 24  1  0
 11 12  1  0
 13  7  1  0
 13 12  1  0
 14  7  2  0
 15 17  1  0
 15 19  1  0
 16 18  1  0
 17 20  1  0
 19  4  1  0
 19 16  1  0
 20 18  1  0
 21 22  2  0
 22 41  1  0
 23 22  1  0
 23 26  1  0
 24 21  1  0
 24 25  1  0
 25 23  2  0
 26 27  1  0
 27 28  2  0
 29 32  1  0
 29 28  1  0
 30 29  2  0
 31 30  1  0
 31 26  2  0
 32 33  1  0
 33 34  1  0
 34 35  2  0
 36 35  1  0
 36 40  1  0
 37 36  2  0
 38 33  2  0
 38 37  1  0
 39 38  1  0
 41 42  1  0
 42 45  1  0
 42 44  1  0
 43 41  2  0
 46 47  1  0
 46 21  1  0
 48 46  1  0
 49  5  1  0
 50 49  1  0
 51 49  1  0
 53 52  1  0
 54 65  2  0
 55 53  1  0
 55 60  1  0
 56 64  1  0
 56 66  1  0
 57 63  1  0
 57 59  1  0
 58 64  1  0
 59 58  1  0
 60 59  2  0
 61 55  2  0
 62 61  1  0
 62 57  2  0
 63 56  1  0
 64 54  1  0
 66 68  2  0
 67 66  1  0
 69 67  1  0
 70 79  2  0
 70 75  1  0
 71 67  1  0
 71 75  1  0
 72 71  1  0
 73 74  1  0
 73 72  1  0
 74 70  1  0
 75 76  2  0
 76 77  1  0
 78 77  2  0
 79 78  1  0
 80 54  1  0
 80 81  1  0
 80 90  1  0
 81 84  1  0
 82 86  1  0
 82 81  1  0
 83 82  2  0
 86 85  1  0
 88 86  1  0
 88 89  1  0
 88 87  1  0
 90 93  1  1
 90 91  1  0
 92 90  1  0
M  ISO  4   7 100  20 100  52 101  53 101
M  END
>  <TORSDO>  (45) 
F 18

>  <SCORE>  (45) 
-15.046

>  <name>  (45) 
44

>  <ligand_id>  (45) 
44

>  <original_smiles>  (45) 
[H]c1c([H])c([H])c2c(c1[H])C([H])([H])C([H])([H])C([H])([H])C2([H])N([H])C(=O)C1([H])N(C(=O)C([H])(N([H])C(=O)C([H])(N([H])C([H])([H])[H])C([H])([H])[H])C(C([H])([H])[H])(C([H])([H])[H])C([H])([H])[H])C([H])([H])c2c([H])c(OC([H])([H])c3c([H])c(N([H])[H])nc(C4([H])C([H])([H])C([H])([H])N(C(=O)N5C([H])([H])C([H])([H])C([H])([H])C([H])(n6nc(-c7c([H])c([H])c(Oc8c([H])c([H])c(F)c([H])c8F)c([H])c7[H])c(C(=O)N([H])[H])c6N([H])[H])C5([H])[H])C([H])([H])C4([H])[H])c3[H])c([H])c([H])c2C1([H])[H]

>  <smiles>  (45) 
[H]c1c([H])c([H])c2c(c1[H])C([H])([H])C([H])([H])C([H])([H])C2([H])N([H])C(=O)C1([H])N(C(=O)C([H])(N([H])C(=O)C([H])(N([H])C([H])([H])[H])C([H])([H])[H])C(C([H])([H])[H])(C([H])([H])[H])C([H])([H])[H])C([H])([H])c2c([H])c(OC([H])([H])c3c([H])c(N([H])[H])nc(C4([H])C([H])([H])C([H])([H])N(C(=O)N5C([H])([H])C([H])([H])C([H])([H])C([H])(n6nc(-c7c([H])c([H])c(Oc8c([H])c([H])c(F)c([H])c8F)c([H])c7[H])c(C(=O)N([H])[H])c6N([H])[H])C5([H])[H])C([H])([H])C4([H])[H])c3[H])c([H])c([H])c2C1([H])[H]

$$$$
45:0:0
     RDKit          3D

 92102  0  0  1  0  0  0  0  0999 V2000
  -29.3440  -22.3210   19.7320 C   0  0  0  0  0  3  0  0  0  0  0  0
  -29.0500  -20.9010   21.6710 C   0  0  0  0  0  3  0  0  0  0  0  0
  -29.4230  -20.9240   20.3140 C   0  0  0  0  0  0  0  0  0  0  0  0
  -28.8970  -23.5370   20.5030 C   0  0  0  0  0  0  0  0  0  0  0  0
  -28.6090  -23.1950   21.8330 C   0  0  0  0  0  0  0  0  0  0  0  0
  -28.3680  -24.3700   22.7390 C   0  0  0  0  0  2  0  0  0  0  0  0
  -28.2870  -25.5940   21.8210 C   0  0  0  0  0  2  0  0  0  0  0  0
  -28.9410  -25.2340   20.4600 C   0  0  1  0  0  0  0  0  0  0  0  0
  -30.4360  -25.5910   20.4970 C   0  0  0  0  0  1  0  0  0  0  0  0
  -28.6610  -21.9700   22.3960 N   0  0  0  0  0  0  0  0  0  0  0  0
  -30.9110  -15.4120   19.8690 C   0  0  0  0  0  0  0  0  0  0  0  0
  -30.7350  -13.0160   18.9800 C   0  0  0  0  0  2  0  0  0  0  0  0
  -29.7630  -12.8540   17.7890 C   0  0  0  0  0  2  0  0  0  0  0  0
  -28.3250  -12.6290   18.2900 C   0  0  0  0  0  2  0  0  0  0  0  0
  -27.9360  -13.6200   19.4110 C   0  0  0  0  0  3  0  0  0  0  0  0
  -29.0280  -13.7400   20.4980 C   0  0  0  0  0  2  0  0  0  0  0  0
  -30.2630  -14.1630   19.8180 N   0  0  0  0  0  0  0  0  0  0  0  0
  -32.1320  -15.3710   19.6750 O   0  0  0  0  0  0  0  0  0  0  0  0
  -28.4900  -18.4970   19.5540 C   0  0  0  0  0  2  0  0  0  0  0  0
  -28.8740  -16.9700   19.4740 C   0  0  0  0  0  2  0  0  0  0  0  0
  -30.6940  -18.1710   20.2620 C   0  0  0  0  0  2  0  0  0  0  0  0
  -29.7390  -19.4000   19.6590 C   0  0  0  0  0  3  0  0  0  0  0  0
  -30.2280  -16.6970   19.9700 N   0  0  0  0  0  0  0  0  0  0  0  0
  -25.6020  -14.2490   20.2550 C   0  0  0  0  0  0  0  0  0  0  0  0
  -24.5410  -13.4960   20.6650 C   0  0  0  0  0  0  0  0  0  0  0  0
  -24.9750  -12.1360   20.6060 C   0  0  0  0  0  0  0  0  0  0  0  0
  -26.6180  -13.3510   19.9710 N   0  0  0  0  0  0  0  0  0  0  0  0
  -26.2520  -12.0740   20.2490 N   0  0  0  0  0  0  0  0  0  0  0  0
  -24.2270  -10.8900   20.8050 C   0  0  0  0  0  0  0  0  0  0  0  0
  -24.6530   -9.9130   21.7310 C   0  0  0  0  0  3  0  0  0  0  0  0
  -23.9020   -8.7330   21.9200 C   0  0  0  0  0  3  0  0  0  0  0  0
  -22.7130   -8.5220   21.1820 C   0  0  0  0  0  0  0  0  0  0  0  0
  -22.3080   -9.4880   20.2440 C   0  0  0  0  0  3  0  0  0  0  0  0
  -23.0590  -10.6590   20.0530 C   0  0  0  0  0  3  0  0  0  0  0  0
  -21.9340   -7.3960   21.2820 O   0  0  0  0  0  0  0  0  0  0  0  0
  -21.8750   -6.6620   22.4400 C   0  0  0  0  0  0  0  0  0  0  0  0
  -21.4380   -7.2270   23.6580 C   0  0  0  0  0  3  0  0  0  0  0  0
  -21.3270   -6.4200   24.8070 C   0  0  0  0  0  3  0  0  0  0  0  0
  -21.6440   -5.0500   24.7400 C   0  0  0  0  0  0  0  0  0  0  0  0
  -22.0730   -4.4850   23.5260 C   0  0  0  0  0  3  0  0  0  0  0  0
  -22.1860   -5.2890   22.3790 C   0  0  0  0  0  0  0  0  0  0  0  0
  -22.5810   -4.7360   21.2060 F   0  0  0  0  0  0  0  0  0  0  0  0
  -21.5280   -4.2720   25.8410 F   0  0  0  0  0  0  0  0  0  0  0  0
  -23.1650  -14.0040   20.9850 C   0  0  0  0  0  0  0  0  0  0  0  0
  -22.4560  -13.3260   21.8780 N   0  0  0  0  0  0  0  0  0  0  0  0
  -22.7320  -15.0400   20.4790 O   0  0  0  0  0  0  0  0  0  0  0  0
  -22.8210  -12.4890   22.3050 H   0  0  0  0  0  0  0  0  0  0  0  0
  -21.5360  -13.6500   22.1390 H   0  0  0  0  0  0  0  0  0  0  0  0
  -25.7660  -15.6160   20.0690 N   0  0  0  0  0  0  0  0  0  0  0  0
  -24.9910  -16.2580   20.1930 H   0  0  0  0  0  0  0  0  0  0  0  0
  -26.5740  -16.0490   19.6440 H   0  0  0  0  0  0  0  0  0  0  0  0
  -28.4370  -26.3480   19.4730 O   0  0  0  0  0  0  0  0  0  0  0  0
  -24.7210  -31.7990   23.0210 C   0  0  0  0  0  0  0  0  0  0  0  0
  -27.3730  -27.3270   19.6600 C   0  0  0  0  0  0  0  0  0  0  0  0
  -23.5230  -30.4480   21.3450 C   0  0  0  0  0  3  0  0  0  0  0  0
  -24.9870  -29.0060   19.7970 C   0  0  0  0  0  0  0  0  0  0  0  0
  -26.0620  -30.8150   21.1190 C   0  0  0  0  0  2  0  0  0  0  0  0
  -26.1720  -29.4550   20.3970 C   0  0  0  0  0  0  0  0  0  0  0  0
  -27.3680  -28.6330   20.3150 C   0  0  0  0  0  3  0  0  0  0  0  0
  -26.1600  -26.9980   19.0230 C   0  0  0  0  0  3  0  0  0  0  0  0
  -24.9940  -27.7910   19.0950 C   0  0  0  0  0  3  0  0  0  0  0  0
  -23.7280  -29.8540   19.9280 C   0  0  0  0  0  2  0  0  0  0  0  0
  -24.7890  -31.0430   21.8830 N   0  0  0  0  0  0  0  0  0  0  0  0
  -23.6430  -32.0100   23.5990 O   0  0  0  0  0  0  0  0  0  0  0  0
  -22.9160  -29.3630   22.2720 C   0  0  0  0  0  0  0  0  0  0  0  0
  -21.5950  -29.1280   22.1640 N   0  0  0  0  0  0  0  0  0  0  0  0
  -23.6360  -28.7370   23.0540 O   0  0  0  0  0  0  0  0  0  0  0  0
  -21.0670  -29.6860   21.5090 H   0  0  0  0  0  0  0  0  0  0  0  0
  -18.2980  -27.7140   22.6740 C   0  0  0  0  0  0  0  0  0  0  0  0
  -20.8430  -28.1110   22.9050 C   0  0  0  0  0  3  0  0  0  0  0  0
  -21.0130  -26.7150   22.2630 C   0  0  0  0  0  2  0  0  0  0  0  0
  -19.9110  -26.3760   21.2550 C   0  0  0  0  0  2  0  0  0  0  0  0
  -18.5360  -26.4100   21.9290 C   0  0  0  0  0  2  0  0  0  0  0  0
  -19.3800  -28.5190   23.1180 C   0  0  0  0  0  0  0  0  0  0  0  0
  -19.1010  -29.7350   23.7780 C   0  0  0  0  0  3  0  0  0  0  0  0
  -17.7730  -30.1500   23.9960 C   0  0  0  0  0  3  0  0  0  0  0  0
  -16.7060  -29.3420   23.5660 C   0  0  0  0  0  3  0  0  0  0  0  0
  -16.9690  -28.1260   22.9110 C   0  0  0  0  0  3  0  0  0  0  0  0
  -25.9920  -32.4540   23.6440 C   0  0  0  0  0  3  0  0  0  0  0  0
  -25.6380  -33.8220   24.0550 N   0  0  0  0  0  0  0  0  0  0  0  0
  -25.9290  -34.9300   23.3610 C   0  0  0  0  0  0  0  0  0  0  0  0
  -26.5890  -34.9080   22.3190 O   0  0  0  0  0  0  0  0  0  0  0  0
  -25.0470  -33.9090   24.8690 H   0  0  0  0  0  0  0  0  0  0  0  0
  -24.1440  -36.6900   23.1360 C   0  0  0  0  0  1  0  0  0  0  0  0
  -25.4070  -36.2740   23.9060 C   0  0  0  0  0  3  0  0  0  0  0  0
  -27.5230  -37.1810   24.7630 C   0  0  0  0  0  1  0  0  0  0  0  0
  -26.4060  -37.3640   23.8400 N   0  0  0  0  0  0  0  0  0  0  0  0
  -25.9740  -38.2630   24.0380 H   0  0  0  0  0  0  0  0  0  0  0  0
  -26.5670  -31.6440   24.8710 C   0  0  1  0  0  0  0  0  0  0  0  0
  -25.5110  -31.3240   25.9540 C   0  0  0  0  0  1  0  0  0  0  0  0
  -27.1840  -30.3040   24.4080 C   0  0  0  0  0  1  0  0  0  0  0  0
  -27.7120  -32.4460   25.5350 C   0  0  0  0  0  1  0  0  0  0  0  0
  1  3  2  0
  1  4  1  0
  2 10  2  0
  3  2  1  0
  4  5  2  0
  5 10  1  0
  5  6  1  0
  7  6  1  0
  8  9  1  1
  8  4  1  0
  8  7  1  0
 11 23  1  0
 12 17  1  0
 13 14  1  0
 13 12  1  0
 15 14  1  0
 15 27  1  0
 15 16  1  0
 17 11  1  0
 17 16  1  0
 18 11  2  0
 19 22  1  0
 20 19  1  0
 20 23  1  0
 22 21  1  0
 22  3  1  0
 23 21  1  0
 24 25  2  0
 25 44  1  0
 26 25  1  0
 26 29  1  0
 27 28  1  0
 27 24  1  0
 28 26  2  0
 29 30  1  0
 30 31  2  0
 32 35  1  0
 32 31  1  0
 33 32  2  0
 34 33  1  0
 34 29  2  0
 35 36  1  0
 36 37  1  0
 37 38  2  0
 39 38  1  0
 39 43  1  0
 40 39  2  0
 41 36  2  0
 41 40  1  0
 42 41  1  0
 44 45  1  0
 45 48  1  0
 45 47  1  0
 46 44  2  0
 49 50  1  0
 49 24  1  0
 51 49  1  0
 52 54  1  0
 52  8  1  0
 53 64  2  0
 54 59  1  0
 55 63  1  0
 55 65  1  0
 56 62  1  0
 56 58  1  0
 57 63  1  0
 58 57  1  0
 59 58  2  0
 60 61  1  0
 60 54  2  0
 61 56  2  0
 62 55  1  0
 63 53  1  0
 65 67  2  0
 66 65  1  0
 68 66  1  0
 69 78  2  0
 69 74  1  0
 70 66  1  0
 70 74  1  0
 71 70  1  0
 72 73  1  0
 72 71  1  0
 73 69  1  0
 74 75  2  0
 75 76  1  0
 77 76  2  0
 78 77  1  0
 79 53  1  0
 79 80  1  0
 79 89  1  0
 80 83  1  0
 81 85  1  0
 81 80  1  0
 82 81  2  0
 85 84  1  0
 87 85  1  0
 87 88  1  0
 87 86  1  0
 89 92  1  1
 89 90  1  0
 91 89  1  0
M  ISO  4   8 101  11 100  23 100  52 101
M  END
>  <TORSDO>  (46) 
F 16

>  <SCORE>  (46) 
-14.257

>  <name>  (46) 
45

>  <ligand_id>  (46) 
45

>  <original_smiles>  (46) 
[H]c1nc2c(c([H])c1C1([H])C([H])([H])N(C(=O)N3C([H])([H])C([H])([H])C([H])([H])C([H])(n4nc(-c5c([H])c([H])c(Oc6c([H])c([H])c(F)c([H])c6F)c([H])c5[H])c(C(=O)N([H])[H])c4N([H])[H])C3([H])[H])C([H])([H])C1([H])[H])C(Oc1c([H])c([H])c3c(c1[H])C([H])([H])N(C(=O)C([H])(N([H])C(=O)C([H])(N([H])C([H])([H])[H])C([H])([H])[H])C(C([H])([H])[H])(C([H])([H])[H])C([H])([H])[H])C([H])(C(=O)N([H])C1([H])c4c([H])c([H])c([H])c([H])c4C([H])([H])C([H])([H])C1([H])[H])C3([H])[H])(C([H])([H])[H])C([H])([H])C2([H])[H]

>  <smiles>  (46) 
[H]c1nc2c(c([H])c1C1([H])C([H])([H])N(C(=O)N3C([H])([H])C([H])([H])C([H])([H])C([H])(n4nc(-c5c([H])c([H])c(Oc6c([H])c([H])c(F)c([H])c6F)c([H])c5[H])c(C(=O)N([H])[H])c4N([H])[H])C3([H])[H])C([H])([H])C1([H])[H])C(Oc1c([H])c([H])c3c(c1[H])C([H])([H])N(C(=O)C([H])(N([H])C(=O)C([H])(N([H])C([H])([H])[H])C([H])([H])[H])C(C([H])([H])[H])(C([H])([H])[H])C([H])([H])[H])C([H])(C(=O)N([H])C1([H])c4c([H])c([H])c([H])c([H])c4C([H])([H])C([H])([H])C1([H])[H])C3([H])[H])(C([H])([H])[H])C([H])([H])C2([H])[H]

$$$$
46:0:0
     RDKit          3D

 91100  0  0  1  0  0  0  0  0999 V2000
  -29.4090  -23.5160   18.6930 C   0  0  0  0  0  0  0  0  0  0  0  0
  -28.7810  -23.4240   19.9590 C   0  0  0  0  0  3  0  0  0  0  0  0
  -29.9550  -21.2270   18.6650 C   0  0  0  0  0  3  0  0  0  0  0  0
  -29.3270  -20.9870   19.9220 C   0  0  0  0  0  0  0  0  0  0  0  0
  -29.4770  -24.8140   17.9120 C   0  0  0  0  0  1  0  0  0  0  0  0
  -30.7260  -20.1800   17.8900 C   0  0  0  0  0  1  0  0  0  0  0  0
  -29.9810  -22.4510   18.0780 N   0  0  0  0  0  0  0  0  0  0  0  0
  -28.7570  -22.1270   20.5490 N   0  0  0  0  0  0  0  0  0  0  0  0
  -28.0290  -24.7290   20.6040 C   0  0  0  0  0  2  0  0  0  0  0  0
  -28.3170  -26.2150   20.2710 O   0  0  0  0  0  0  0  0  0  0  0  0
  -24.6300  -31.8600   23.2240 C   0  0  0  0  0  0  0  0  0  0  0  0
  -27.2530  -27.1750   20.2340 C   0  0  0  0  0  0  0  0  0  0  0  0
  -23.4520  -30.4540   21.5760 C   0  0  0  0  0  3  0  0  0  0  0  0
  -24.9190  -28.8880   20.1710 C   0  0  0  0  0  0  0  0  0  0  0  0
  -26.0040  -30.7400   21.4320 C   0  0  0  0  0  2  0  0  0  0  0  0
  -26.0900  -29.3470   20.7880 C   0  0  0  0  0  0  0  0  0  0  0  0
  -27.2620  -28.5070   20.8020 C   0  0  0  0  0  3  0  0  0  0  0  0
  -26.0630  -26.8110   19.5710 C   0  0  0  0  0  3  0  0  0  0  0  0
  -24.9170  -27.6320   19.5460 C   0  0  0  0  0  3  0  0  0  0  0  0
  -23.6880  -29.7760   20.2010 C   0  0  0  0  0  2  0  0  0  0  0  0
  -24.7150  -31.0400   22.1330 N   0  0  0  0  0  0  0  0  0  0  0  0
  -23.5370  -32.1400   23.7400 O   0  0  0  0  0  0  0  0  0  0  0  0
  -22.7710  -29.4440   22.5330 C   0  0  0  0  0  0  0  0  0  0  0  0
  -21.4420  -29.2810   22.4060 N   0  0  0  0  0  0  0  0  0  0  0  0
  -23.4390  -28.8100   23.3540 O   0  0  0  0  0  0  0  0  0  0  0  0
  -20.9610  -29.8410   21.7160 H   0  0  0  0  0  0  0  0  0  0  0  0
  -18.0510  -28.1100   22.9120 C   0  0  0  0  0  0  0  0  0  0  0  0
  -20.6130  -28.3460   23.1730 C   0  0  0  0  0  3  0  0  0  0  0  0
  -20.7010  -26.9170   22.5870 C   0  0  0  0  0  2  0  0  0  0  0  0
  -19.5930  -26.6120   21.5740 C   0  0  0  0  0  2  0  0  0  0  0  0
  -18.2130  -26.7650   22.2230 C   0  0  0  0  0  2  0  0  0  0  0  0
  -19.1790  -28.8600   23.3420 C   0  0  0  0  0  0  0  0  0  0  0  0
  -18.9710  -30.1200   23.9470 C   0  0  0  0  0  3  0  0  0  0  0  0
  -17.6710  -30.6300   24.1200 C   0  0  0  0  0  3  0  0  0  0  0  0
  -16.5590  -29.8780   23.7050 C   0  0  0  0  0  3  0  0  0  0  0  0
  -16.7500  -28.6190   23.1070 C   0  0  0  0  0  3  0  0  0  0  0  0
  -25.9000  -32.5010   23.8620 C   0  0  0  0  0  3  0  0  0  0  0  0
  -25.5800  -33.9000   24.1850 N   0  0  0  0  0  0  0  0  0  0  0  0
  -25.9130  -34.9540   23.4280 C   0  0  0  0  0  0  0  0  0  0  0  0
  -26.5890  -34.8510   22.4010 O   0  0  0  0  0  0  0  0  0  0  0  0
  -24.9800  -34.0540   24.9820 H   0  0  0  0  0  0  0  0  0  0  0  0
  -24.1830  -36.7440   23.0610 C   0  0  0  0  0  1  0  0  0  0  0  0
  -25.4200  -36.3430   23.8810 C   0  0  0  0  0  3  0  0  0  0  0  0
  -27.5470  -37.2350   24.7240 C   0  0  0  0  0  1  0  0  0  0  0  0
  -26.4520  -37.3990   23.7720 N   0  0  0  0  0  0  0  0  0  0  0  0
  -26.0420  -38.3180   23.9140 H   0  0  0  0  0  0  0  0  0  0  0  0
  -26.3980  -31.7390   25.1510 C   0  0  1  0  0  0  0  0  0  0  0  0
  -25.2890  -31.5060   26.2050 C   0  0  0  0  0  1  0  0  0  0  0  0
  -26.9880  -30.3590   24.7800 C   0  0  0  0  0  1  0  0  0  0  0  0
  -27.5390  -32.5390   25.8230 C   0  0  0  0  0  1  0  0  0  0  0  0
  -29.3130  -19.6920   20.5950 O   0  0  0  0  0  0  0  0  0  0  0  0
  -30.6400  -14.8820   20.1640 C   0  0  0  0  0  0  0  0  0  0  0  0
  -30.3680  -12.5830   19.1660 C   0  0  0  0  0  2  0  0  0  0  0  0
  -29.4140  -12.5860   17.9540 C   0  0  0  0  0  2  0  0  0  0  0  0
  -27.9590  -12.4070   18.4230 C   0  0  0  0  0  2  0  0  0  0  0  0
  -27.5990  -13.3200   19.6260 C   0  0  0  0  0  3  0  0  0  0  0  0
  -28.6850  -13.3150   20.7220 C   0  0  0  0  0  2  0  0  0  0  0  0
  -29.9410  -13.6890   20.0660 N   0  0  0  0  0  0  0  0  0  0  0  0
  -31.8470  -14.8410   19.9080 O   0  0  0  0  0  0  0  0  0  0  0  0
  -30.7160  -17.4610   19.7840 C   0  0  0  0  0  2  0  0  0  0  0  0
  -29.0230  -16.9830   20.8350 C   0  0  0  0  0  2  0  0  0  0  0  0
  -29.3870  -18.2790   19.9800 C   0  0  0  0  0  3  0  0  0  0  0  0
  -30.0210  -16.1570   20.0720 N   0  0  0  0  0  0  0  0  0  0  0  0
  -25.2370  -13.9020   20.4150 C   0  0  0  0  0  0  0  0  0  0  0  0
  -24.1790  -13.1290   20.8050 C   0  0  0  0  0  0  0  0  0  0  0  0
  -24.6400  -11.7770   20.7660 C   0  0  0  0  0  0  0  0  0  0  0  0
  -26.2740  -13.0230   20.1560 N   0  0  0  0  0  0  0  0  0  0  0  0
  -25.9250  -11.7390   20.4350 N   0  0  0  0  0  0  0  0  0  0  0  0
  -23.9130  -10.5160   20.9670 C   0  0  0  0  0  0  0  0  0  0  0  0
  -24.3500   -9.5520   21.9000 C   0  0  0  0  0  3  0  0  0  0  0  0
  -23.6220   -8.3570   22.0890 C   0  0  0  0  0  3  0  0  0  0  0  0
  -22.4420   -8.1190   21.3440 C   0  0  0  0  0  0  0  0  0  0  0  0
  -22.0240   -9.0730   20.3990 C   0  0  0  0  0  3  0  0  0  0  0  0
  -22.7530  -10.2590   20.2080 C   0  0  0  0  0  3  0  0  0  0  0  0
  -21.6840   -6.9780   21.4440 O   0  0  0  0  0  0  0  0  0  0  0  0
  -21.6340   -6.2450   22.6020 C   0  0  0  0  0  0  0  0  0  0  0  0
  -21.2000   -6.8090   23.8220 C   0  0  0  0  0  3  0  0  0  0  0  0
  -21.0970   -6.0030   24.9730 C   0  0  0  0  0  3  0  0  0  0  0  0
  -21.4190   -4.6340   24.9060 C   0  0  0  0  0  0  0  0  0  0  0  0
  -21.8450   -4.0690   23.6910 C   0  0  0  0  0  3  0  0  0  0  0  0
  -21.9500   -4.8730   22.5430 C   0  0  0  0  0  0  0  0  0  0  0  0
  -22.3400   -4.3190   21.3690 F   0  0  0  0  0  0  0  0  0  0  0  0
  -21.3130   -3.8570   26.0110 F   0  0  0  0  0  0  0  0  0  0  0  0
  -22.7880  -13.6100   21.0970 C   0  0  0  0  0  0  0  0  0  0  0  0
  -22.0730  -12.9160   21.9740 N   0  0  0  0  0  0  0  0  0  0  0  0
  -22.3450  -14.6370   20.5830 O   0  0  0  0  0  0  0  0  0  0  0  0
  -22.4440  -12.0880   22.4150 H   0  0  0  0  0  0  0  0  0  0  0  0
  -21.1390  -13.2200   22.2130 H   0  0  0  0  0  0  0  0  0  0  0  0
  -25.3960  -15.2720   20.2270 N   0  0  0  0  0  0  0  0  0  0  0  0
  -24.6260  -15.9220   20.3380 H   0  0  0  0  0  0  0  0  0  0  0  0
  -26.2230  -15.7000   19.8320 H   0  0  0  0  0  0  0  0  0  0  0  0
  1  2  1  0
  2  8  1  0
  2  9  1  0
  3  6  1  0
  3  4  1  0
  4  8  2  0
  4 51  1  0
  5  1  1  0
  7  3  1  0
  7  1  2  0
 10  9  1  0
 11 22  2  0
 12 10  1  0
 12 17  1  0
 13 21  1  0
 13 23  1  0
 14 20  1  0
 14 16  1  0
 15 21  1  0
 16 17  2  0
 16 15  1  0
 18 12  2  0
 19 18  1  0
 19 14  2  0
 20 13  1  0
 21 11  1  0
 23 25  2  0
 24 23  1  0
 26 24  1  0
 27 36  2  0
 27 32  1  0
 28 24  1  0
 28 32  1  0
 29 28  1  0
 30 31  1  0
 30 29  1  0
 31 27  1  0
 32 33  2  0
 33 34  1  0
 35 34  2  0
 36 35  1  0
 37 11  1  0
 37 38  1  0
 37 47  1  0
 38 41  1  0
 39 43  1  0
 39 38  1  0
 40 39  2  0
 43 42  1  0
 45 43  1  0
 45 46  1  0
 45 44  1  0
 47 50  1  1
 47 48  1  0
 49 47  1  0
 53 58  1  0
 54 55  1  0
 54 53  1  0
 56 55  1  0
 56 67  1  0
 56 57  1  0
 58 52  1  0
 58 57  1  0
 59 52  2  0
 60 62  1  0
 60 63  1  0
 62 51  1  0
 62 61  1  0
 63 52  1  0
 63 61  1  0
 64 65  2  0
 65 84  1  0
 66 65  1  0
 66 69  1  0
 67 64  1  0
 67 68  1  0
 68 66  2  0
 69 70  1  0
 70 71  2  0
 72 75  1  0
 72 71  1  0
 73 72  2  0
 74 73  1  0
 74 69  2  0
 75 76  1  0
 76 77  1  0
 77 78  2  0
 79 78  1  0
 79 83  1  0
 80 79  2  0
 81 76  2  0
 81 80  1  0
 82 81  1  0
 84 85  1  0
 85 88  1  0
 85 87  1  0
 86 84  2  0
 89 90  1  0
 89 64  1  0
 91 89  1  0
M  ISO  4   9 101  10 101  52 100  63 100
M  END
>  <TORSDO>  (47) 
F 18

>  <SCORE>  (47) 
-14.740

>  <name>  (47) 
46

>  <ligand_id>  (47) 
46

>  <original_smiles>  (47) 
[H]c1c([H])c([H])c2c(c1[H])C([H])([H])C([H])([H])C([H])([H])C2([H])N([H])C(=O)C1([H])N(C(=O)C([H])(N([H])C(=O)C([H])(N([H])C([H])([H])[H])C([H])([H])[H])C(C([H])([H])[H])(C([H])([H])[H])C([H])([H])[H])C([H])([H])c2c([H])c(OC([H])([H])c3nc(OC4([H])C([H])([H])N(C(=O)N5C([H])([H])C([H])([H])C([H])([H])C([H])(n6nc(-c7c([H])c([H])c(Oc8c([H])c([H])c(F)c([H])c8F)c([H])c7[H])c(C(=O)N([H])[H])c6N([H])[H])C5([H])[H])C4([H])[H])c(C([H])([H])[H])nc3C([H])([H])[H])c([H])c([H])c2C1([H])[H]

>  <smiles>  (47) 
[H]c1c([H])c([H])c2c(c1[H])C([H])([H])C([H])([H])C([H])([H])C2([H])N([H])C(=O)C1([H])N(C(=O)C([H])(N([H])C(=O)C([H])(N([H])C([H])([H])[H])C([H])([H])[H])C(C([H])([H])[H])(C([H])([H])[H])C([H])([H])[H])C([H])([H])c2c([H])c(OC([H])([H])c3nc(OC4([H])C([H])([H])N(C(=O)N5C([H])([H])C([H])([H])C([H])([H])C([H])(n6nc(-c7c([H])c([H])c(Oc8c([H])c([H])c(F)c([H])c8F)c([H])c7[H])c(C(=O)N([H])[H])c6N([H])[H])C5([H])[H])C4([H])[H])c(C([H])([H])[H])nc3C([H])([H])[H])c([H])c([H])c2C1([H])[H]

$$$$
47:0:0
     RDKit          3D

 94103  0  0  1  0  0  0  0  0999 V2000
  -29.4710  -23.3910   20.0620 C   0  0  0  0  0  0  0  0  0  0  0  0
  -30.7210  -24.0870   19.9700 C   0  0  0  0  0  0  0  0  0  0  0  0
  -29.7030  -21.8570   20.1060 C   0  0  0  0  0  0  0  0  0  0  0  0
  -31.9900  -22.1990   20.1270 C   0  0  0  0  0  0  0  0  0  0  0  0
  -30.8790  -25.5850   19.7560 C   0  0  0  0  0  1  0  0  0  0  0  0
  -33.3590  -21.5560   20.1580 C   0  0  0  0  0  1  0  0  0  0  0  0
  -31.9280  -23.5020   20.0140 N   0  0  0  0  0  0  0  0  0  0  0  0
  -30.9580  -21.3960   20.1760 N   0  0  0  0  0  0  0  0  0  0  0  0
  -28.9630  -20.5670   20.0270 N   0  0  0  0  0  0  0  0  0  0  0  0
  -27.9660  -20.6860   19.8890 H   0  0  0  0  0  0  0  0  0  0  0  0
  -30.5470  -15.1110   19.8960 C   0  0  0  0  0  0  0  0  0  0  0  0
  -30.3730  -12.7370   18.9420 C   0  0  0  0  0  2  0  0  0  0  0  0
  -29.3670  -12.6500   17.7700 C   0  0  0  0  0  2  0  0  0  0  0  0
  -27.9370  -12.4180   18.2920 C   0  0  0  0  0  2  0  0  0  0  0  0
  -27.6000  -13.3350   19.4980 C   0  0  0  0  0  3  0  0  0  0  0  0
  -28.7290  -13.3540   20.5530 C   0  0  0  0  0  2  0  0  0  0  0  0
  -29.9320  -13.8410   19.8590 N   0  0  0  0  0  0  0  0  0  0  0  0
  -31.7250  -15.1070   19.5100 O   0  0  0  0  0  0  0  0  0  0  0  0
  -28.2350  -18.1600   20.8730 C   0  0  0  0  0  2  0  0  0  0  0  0
  -28.7340  -16.6660   20.9880 C   0  0  0  0  0  2  0  0  0  0  0  0
  -29.4030  -19.0800   20.4660 C   0  0  0  0  0  3  0  0  0  0  0  0
  -30.1790  -17.8720   19.6090 C   0  0  0  0  0  3  0  0  0  0  0  0
  -29.8890  -18.0310   18.1110 C   0  0  0  0  0  1  0  0  0  0  0  0
  -29.8440  -16.3860   20.0530 N   0  0  0  0  0  0  0  0  0  0  0  0
  -25.2840  -13.9090   20.4110 C   0  0  0  0  0  0  0  0  0  0  0  0
  -24.2410  -13.1340   20.8340 C   0  0  0  0  0  0  0  0  0  0  0  0
  -24.6860  -11.7800   20.7320 C   0  0  0  0  0  0  0  0  0  0  0  0
  -26.3000  -13.0290   20.0780 N   0  0  0  0  0  0  0  0  0  0  0  0
  -25.9540  -11.7410   20.3360 N   0  0  0  0  0  0  0  0  0  0  0  0
  -23.9550  -10.5220   20.9290 C   0  0  0  0  0  0  0  0  0  0  0  0
  -24.3960   -9.5480   21.8520 C   0  0  0  0  0  3  0  0  0  0  0  0
  -23.6620   -8.3570   22.0400 C   0  0  0  0  0  3  0  0  0  0  0  0
  -22.4740   -8.1320   21.3060 C   0  0  0  0  0  0  0  0  0  0  0  0
  -22.0520   -9.0940   20.3710 C   0  0  0  0  0  3  0  0  0  0  0  0
  -22.7860  -10.2770   20.1810 C   0  0  0  0  0  3  0  0  0  0  0  0
  -21.7100   -6.9940   21.4050 O   0  0  0  0  0  0  0  0  0  0  0  0
  -21.6240   -6.2840   22.5760 C   0  0  0  0  0  0  0  0  0  0  0  0
  -21.1670   -6.8760   23.7750 C   0  0  0  0  0  3  0  0  0  0  0  0
  -21.0290   -6.0920   24.9380 C   0  0  0  0  0  3  0  0  0  0  0  0
  -21.3360   -4.7190   24.9030 C   0  0  0  0  0  0  0  0  0  0  0  0
  -21.7860   -4.1280   23.7090 C   0  0  0  0  0  3  0  0  0  0  0  0
  -21.9270   -4.9080   22.5490 C   0  0  0  0  0  0  0  0  0  0  0  0
  -22.3400   -4.3290   21.3960 F   0  0  0  0  0  0  0  0  0  0  0  0
  -21.1960   -3.9640   26.0180 F   0  0  0  0  0  0  0  0  0  0  0  0
  -22.8720  -13.6210   21.2090 C   0  0  0  0  0  0  0  0  0  0  0  0
  -22.1920  -12.9130   22.1050 N   0  0  0  0  0  0  0  0  0  0  0  0
  -22.4150  -14.6640   20.7440 O   0  0  0  0  0  0  0  0  0  0  0  0
  -22.5760  -12.0700   22.5050 H   0  0  0  0  0  0  0  0  0  0  0  0
  -21.2770  -13.2230   22.3960 H   0  0  0  0  0  0  0  0  0  0  0  0
  -25.4370  -15.2820   20.2510 N   0  0  0  0  0  0  0  0  0  0  0  0
  -24.6730  -15.9260   20.4240 H   0  0  0  0  0  0  0  0  0  0  0  0
  -26.2430  -15.7260   19.8330 H   0  0  0  0  0  0  0  0  0  0  0  0
  -28.1620  -24.4680   20.0550 C   0  0  0  0  0  2  0  0  0  0  0  0
  -28.2700  -26.0650   20.2070 O   0  0  0  0  0  0  0  0  0  0  0  0
  -24.5380  -31.7990   23.1450 C   0  0  0  0  0  0  0  0  0  0  0  0
  -27.1970  -27.0560   20.1390 C   0  0  0  0  0  0  0  0  0  0  0  0
  -23.3740  -30.3920   21.4920 C   0  0  0  0  0  3  0  0  0  0  0  0
  -24.8550  -28.8220   20.0790 C   0  0  0  0  0  0  0  0  0  0  0  0
  -25.9310  -30.6690   21.3570 C   0  0  0  0  0  2  0  0  0  0  0  0
  -26.0270  -29.2710   20.7020 C   0  0  0  0  0  0  0  0  0  0  0  0
  -27.1950  -28.4060   20.7080 C   0  0  0  0  0  3  0  0  0  0  0  0
  -25.9960  -26.7230   19.4780 C   0  0  0  0  0  3  0  0  0  0  0  0
  -24.8570  -27.5650   19.4500 C   0  0  0  0  0  3  0  0  0  0  0  0
  -23.6200  -29.7160   20.1150 C   0  0  0  0  0  2  0  0  0  0  0  0
  -24.6350  -30.9770   22.0530 N   0  0  0  0  0  0  0  0  0  0  0  0
  -23.4420  -32.0710   23.6600 O   0  0  0  0  0  0  0  0  0  0  0  0
  -22.6930  -29.3800   22.4470 C   0  0  0  0  0  0  0  0  0  0  0  0
  -21.3640  -29.2090   22.3200 N   0  0  0  0  0  0  0  0  0  0  0  0
  -23.3640  -28.7490   23.2670 O   0  0  0  0  0  0  0  0  0  0  0  0
  -20.8770  -29.7710   21.6350 H   0  0  0  0  0  0  0  0  0  0  0  0
  -17.9820  -28.0070   22.8300 C   0  0  0  0  0  0  0  0  0  0  0  0
  -20.5440  -28.2630   23.0820 C   0  0  0  0  0  3  0  0  0  0  0  0
  -20.6400  -26.8390   22.4860 C   0  0  0  0  0  2  0  0  0  0  0  0
  -19.5300  -26.5330   21.4750 C   0  0  0  0  0  2  0  0  0  0  0  0
  -18.1530  -26.6690   22.1310 C   0  0  0  0  0  2  0  0  0  0  0  0
  -19.1050  -28.7630   23.2640 C   0  0  0  0  0  0  0  0  0  0  0  0
  -18.8900  -30.0140   23.8810 C   0  0  0  0  0  3  0  0  0  0  0  0
  -17.5870  -30.5120   24.0660 C   0  0  0  0  0  3  0  0  0  0  0  0
  -16.4790  -29.7540   23.6490 C   0  0  0  0  0  3  0  0  0  0  0  0
  -16.6770  -28.5040   23.0370 C   0  0  0  0  0  3  0  0  0  0  0  0
  -25.7990  -32.4530   23.7900 C   0  0  0  0  0  3  0  0  0  0  0  0
  -25.4580  -33.8420   24.1380 N   0  0  0  0  0  0  0  0  0  0  0  0
  -25.7670  -34.9150   23.3970 C   0  0  0  0  0  0  0  0  0  0  0  0
  -26.4330  -34.8400   22.3630 O   0  0  0  0  0  0  0  0  0  0  0  0
  -24.8620  -33.9720   24.9430 H   0  0  0  0  0  0  0  0  0  0  0  0
  -23.9990  -36.6820   23.0910 C   0  0  0  0  0  1  0  0  0  0  0  0
  -25.2580  -36.2890   23.8800 C   0  0  0  0  0  3  0  0  0  0  0  0
  -27.3820  -37.2090   24.7010 C   0  0  0  0  0  1  0  0  0  0  0  0
  -26.2690  -37.3640   23.7690 N   0  0  0  0  0  0  0  0  0  0  0  0
  -25.8460  -38.2740   23.9290 H   0  0  0  0  0  0  0  0  0  0  0  0
  -26.3120  -31.6800   25.0680 C   0  0  1  0  0  0  0  0  0  0  0  0
  -25.2110  -31.4180   26.1220 C   0  0  0  0  0  1  0  0  0  0  0  0
  -26.9190  -30.3130   24.6780 C   0  0  0  0  0  1  0  0  0  0  0  0
  -27.4430  -32.4860   25.7490 C   0  0  0  0  0  1  0  0  0  0  0  0
  1  3  1  0
  2  7  1  0
  2  1  2  0
  3  8  2  0
  4  6  1  0
  4  8  1  0
  5  2  1  0
  7  4  2  0
  9  3  1  0
 10  9  1  0
 11 24  1  0
 12 17  1  0
 13 14  1  0
 13 12  1  0
 15 14  1  0
 15 28  1  0
 15 16  1  0
 17 11  1  0
 17 16  1  0
 18 11  2  0
 19 20  1  0
 21  9  1  0
 21 19  1  0
 22 23  1  0
 22 24  1  0
 22 21  1  0
 24 20  1  0
 25 26  2  0
 26 45  1  0
 27 26  1  0
 27 30  1  0
 28 29  1  0
 28 25  1  0
 29 27  2  0
 30 31  1  0
 31 32  2  0
 33 36  1  0
 33 32  1  0
 34 33  2  0
 35 34  1  0
 35 30  2  0
 36 37  1  0
 37 38  1  0
 38 39  2  0
 40 39  1  0
 40 44  1  0
 41 40  2  0
 42 37  2  0
 42 41  1  0
 43 42  1  0
 45 46  1  0
 46 49  1  0
 46 48  1  0
 47 45  2  0
 50 25  1  0
 50 51  1  0
 52 50  1  0
 53  1  1  0
 53 54  1  0
 55 66  2  0
 56 54  1  0
 56 61  1  0
 57 65  1  0
 57 67  1  0
 58 64  1  0
 58 60  1  0
 59 65  1  0
 60 61  2  0
 60 59  1  0
 62 56  2  0
 63 62  1  0
 63 58  2  0
 64 57  1  0
 65 55  1  0
 67 69  2  0
 68 67  1  0
 70 68  1  0
 71 80  2  0
 71 76  1  0
 72 68  1  0
 72 76  1  0
 73 72  1  0
 74 75  1  0
 74 73  1  0
 75 71  1  0
 76 77  2  0
 77 78  1  0
 79 78  2  0
 80 79  1  0
 81 55  1  0
 81 82  1  0
 81 91  1  0
 82 85  1  0
 83 87  1  0
 83 82  1  0
 84 83  2  0
 87 86  1  0
 89 87  1  0
 89 90  1  0
 89 88  1  0
 91 94  1  1
 91 92  1  0
 93 91  1  0
M  ISO  4  11 100  24 100  53 101  54 101
M  END
>  <TORSDO>  (48) 
F 17

>  <SCORE>  (48) 
-15.347

>  <name>  (48) 
47

>  <ligand_id>  (48) 
47

>  <original_smiles>  (48) 
[H]c1c([H])c([H])c2c(c1[H])C([H])([H])C([H])([H])C([H])([H])C2([H])N([H])C(=O)C1([H])N(C(=O)C([H])(N([H])C(=O)C([H])(N([H])C([H])([H])[H])C([H])([H])[H])C(C([H])([H])[H])(C([H])([H])[H])C([H])([H])[H])C([H])([H])c2c([H])c(OC([H])([H])c3c(N([H])C4([H])C([H])([H])C([H])([H])N(C(=O)N5C([H])([H])C([H])([H])C([H])([H])C([H])(n6nc(-c7c([H])c([H])c(Oc8c([H])c([H])c(F)c([H])c8F)c([H])c7[H])c(C(=O)N([H])[H])c6N([H])[H])C5([H])[H])C4([H])C([H])([H])[H])nc(C([H])([H])[H])nc3C([H])([H])[H])c([H])c([H])c2C1([H])[H]

>  <smiles>  (48) 
[H]c1c([H])c([H])c2c(c1[H])C([H])([H])C([H])([H])C([H])([H])C2([H])N([H])C(=O)C1([H])N(C(=O)C([H])(N([H])C(=O)C([H])(N([H])C([H])([H])[H])C([H])([H])[H])C(C([H])([H])[H])(C([H])([H])[H])C([H])([H])[H])C([H])([H])c2c([H])c(OC([H])([H])c3c(N([H])C4([H])C([H])([H])C([H])([H])N(C(=O)N5C([H])([H])C([H])([H])C([H])([H])C([H])(n6nc(-c7c([H])c([H])c(Oc8c([H])c([H])c(F)c([H])c8F)c([H])c7[H])c(C(=O)N([H])[H])c6N([H])[H])C5([H])[H])C4([H])C([H])([H])[H])nc(C([H])([H])[H])nc3C([H])([H])[H])c([H])c([H])c2C1([H])[H]

$$$$
48:0:0
     RDKit          3D

 96105  0  0  1  0  0  0  0  0999 V2000
  -28.2530  -21.6330   19.8810 C   0  0  0  0  0  3  0  0  0  0  0  0
  -28.7010  -22.9930   19.9260 C   0  0  0  0  0  0  0  0  0  0  0  0
  -30.1110  -22.6640   19.8670 C   0  0  0  0  0  0  0  0  0  0  0  0
  -30.3900  -21.3340   19.6800 N   0  0  0  0  0  0  0  0  0  0  0  0
  -29.2560  -20.5790   19.7820 N   0  0  0  0  0  0  0  0  0  0  0  0
  -30.5050  -15.0290   19.8820 C   0  0  0  0  0  0  0  0  0  0  0  0
  -30.2970  -12.6450   18.9810 C   0  0  0  0  0  2  0  0  0  0  0  0
  -29.2950  -12.5340   17.8090 C   0  0  0  0  0  2  0  0  0  0  0  0
  -27.8610  -12.3050   18.3270 C   0  0  0  0  0  2  0  0  0  0  0  0
  -27.5150  -13.2260   19.5230 C   0  0  0  0  0  3  0  0  0  0  0  0
  -28.6470  -13.3100   20.5690 C   0  0  0  0  0  2  0  0  0  0  0  0
  -29.8470  -13.7810   19.8510 N   0  0  0  0  0  0  0  0  0  0  0  0
  -31.7110  -14.9610   19.6150 O   0  0  0  0  0  0  0  0  0  0  0  0
  -28.4250  -16.6190   20.1640 C   0  0  0  0  0  2  0  0  0  0  0  0
  -28.0770  -18.1640   20.2240 C   0  0  0  0  0  3  0  0  0  0  0  0
  -29.2230  -18.9660   19.5620 C   0  0  0  0  0  3  0  0  0  0  0  0
  -30.3990  -17.8270   19.8610 C   0  0  0  0  0  3  0  0  0  0  0  0
  -26.7040  -18.4100   19.5720 C   0  0  0  0  0  1  0  0  0  0  0  0
  -31.5710  -17.9620   18.8680 C   0  0  0  0  0  1  0  0  0  0  0  0
  -29.8640  -16.3420   19.9660 N   0  0  0  0  0  0  0  0  0  0  0  0
  -25.2050  -13.8180   20.4460 C   0  0  0  0  0  0  0  0  0  0  0  0
  -24.1520  -13.0560   20.8640 C   0  0  0  0  0  0  0  0  0  0  0  0
  -24.5850  -11.7000   20.7580 C   0  0  0  0  0  0  0  0  0  0  0  0
  -26.2130  -12.9320   20.1110 N   0  0  0  0  0  0  0  0  0  0  0  0
  -25.8550  -11.6470   20.3600 N   0  0  0  0  0  0  0  0  0  0  0  0
  -23.8470  -10.4490   20.9600 C   0  0  0  0  0  0  0  0  0  0  0  0
  -24.2810   -9.4780   21.8870 C   0  0  0  0  0  3  0  0  0  0  0  0
  -23.5450   -8.2890   22.0730 C   0  0  0  0  0  3  0  0  0  0  0  0
  -22.3560   -8.0670   21.3360 C   0  0  0  0  0  0  0  0  0  0  0  0
  -21.9390   -9.0290   20.4000 C   0  0  0  0  0  3  0  0  0  0  0  0
  -22.6770  -10.2090   20.2110 C   0  0  0  0  0  3  0  0  0  0  0  0
  -21.5910   -6.9310   21.4330 O   0  0  0  0  0  0  0  0  0  0  0  0
  -21.5190   -6.2120   22.5980 C   0  0  0  0  0  0  0  0  0  0  0  0
  -21.0120   -6.7720   23.7910 C   0  0  0  0  0  3  0  0  0  0  0  0
  -20.8900   -5.9760   24.9460 C   0  0  0  0  0  3  0  0  0  0  0  0
  -21.2680   -4.6190   24.9100 C   0  0  0  0  0  0  0  0  0  0  0  0
  -21.7730   -4.0610   23.7230 C   0  0  0  0  0  3  0  0  0  0  0  0
  -21.8970   -4.8550   22.5700 C   0  0  0  0  0  0  0  0  0  0  0  0
  -22.3650   -4.3070   21.4230 F   0  0  0  0  0  0  0  0  0  0  0  0
  -21.1470   -3.8520   26.0200 F   0  0  0  0  0  0  0  0  0  0  0  0
  -22.7840  -13.5570   21.2320 C   0  0  0  0  0  0  0  0  0  0  0  0
  -22.0950  -12.8660   22.1330 N   0  0  0  0  0  0  0  0  0  0  0  0
  -22.3360  -14.6030   20.7600 O   0  0  0  0  0  0  0  0  0  0  0  0
  -22.4660  -12.0270   22.5520 H   0  0  0  0  0  0  0  0  0  0  0  0
  -21.1780  -13.1850   22.4100 H   0  0  0  0  0  0  0  0  0  0  0  0
  -25.3850  -15.1850   20.2880 N   0  0  0  0  0  0  0  0  0  0  0  0
  -24.6260  -15.8430   20.4200 H   0  0  0  0  0  0  0  0  0  0  0  0
  -26.2070  -15.5930   19.8640 H   0  0  0  0  0  0  0  0  0  0  0  0
  -32.5770  -22.9230   20.4080 C   0  0  0  0  0  1  0  0  0  0  0  0
  -31.2870  -23.6180   19.9250 C   0  0  0  0  0  3  0  0  0  0  0  0
  -31.4870  -24.2240   18.6070 N   0  0  0  0  0  4  0  0  0  0  0  0
  -31.5320  -23.5000   17.9150 H   0  0  0  0  0  0  0  0  0  0  0  0
  -32.3340  -24.7600   18.5890 H   0  0  0  0  0  0  0  0  0  0  0  0
  -30.7130  -24.8260   18.3940 H   0  0  0  0  0  0  0  0  0  0  0  0
  -27.7750  -24.4150   20.0220 C   0  0  0  0  0  2  0  0  0  0  0  0
  -28.1360  -25.9650   20.0870 O   0  0  0  0  0  0  0  0  0  0  0  0
  -24.4930  -31.7150   23.1360 C   0  0  0  0  0  0  0  0  0  0  0  0
  -27.0930  -26.9990   20.0380 C   0  0  0  0  0  0  0  0  0  0  0  0
  -23.2980  -30.3290   21.4850 C   0  0  0  0  0  3  0  0  0  0  0  0
  -24.7530  -28.7760   20.0390 C   0  0  0  0  0  0  0  0  0  0  0  0
  -25.8540  -30.6020   21.3180 C   0  0  0  0  0  2  0  0  0  0  0  0
  -25.9390  -29.2090   20.6470 C   0  0  0  0  0  0  0  0  0  0  0  0
  -27.1060  -28.3430   20.6230 C   0  0  0  0  0  3  0  0  0  0  0  0
  -25.8710  -26.6900   19.3930 C   0  0  0  0  0  3  0  0  0  0  0  0
  -24.7350  -27.5290   19.4000 C   0  0  0  0  0  3  0  0  0  0  0  0
  -23.5240  -29.6680   20.0990 C   0  0  0  0  0  2  0  0  0  0  0  0
  -24.5670  -30.9040   22.0330 N   0  0  0  0  0  0  0  0  0  0  0  0
  -23.4070  -31.9820   23.6750 O   0  0  0  0  0  0  0  0  0  0  0  0
  -22.6260  -29.3070   22.4420 C   0  0  0  0  0  0  0  0  0  0  0  0
  -21.3040  -29.1140   22.3110 N   0  0  0  0  0  0  0  0  0  0  0  0
  -23.3040  -28.6910   23.2670 O   0  0  0  0  0  0  0  0  0  0  0  0
  -20.8080  -29.6590   21.6180 H   0  0  0  0  0  0  0  0  0  0  0  0
  -17.9450  -27.8220   22.7830 C   0  0  0  0  0  0  0  0  0  0  0  0
  -20.4940  -28.1550   23.0740 C   0  0  0  0  0  3  0  0  0  0  0  0
  -20.6390  -26.7240   22.5060 C   0  0  0  0  0  2  0  0  0  0  0  0
  -19.5570  -26.3730   21.4790 C   0  0  0  0  0  2  0  0  0  0  0  0
  -18.1660  -26.4790   22.1070 C   0  0  0  0  0  2  0  0  0  0  0  0
  -19.0390  -28.6160   23.2220 C   0  0  0  0  0  0  0  0  0  0  0  0
  -18.7750  -29.8720   23.8140 C   0  0  0  0  0  3  0  0  0  0  0  0
  -17.4540  -30.3330   23.9700 C   0  0  0  0  0  3  0  0  0  0  0  0
  -16.3770  -29.5350   23.5490 C   0  0  0  0  0  3  0  0  0  0  0  0
  -16.6240  -28.2820   22.9600 C   0  0  0  0  0  3  0  0  0  0  0  0
  -25.7690  -32.3540   23.7620 C   0  0  0  0  0  3  0  0  0  0  0  0
  -26.3060  -31.5650   25.0240 C   0  0  1  0  0  0  0  0  0  0  0  0
  -25.2200  -31.2930   26.0920 C   0  0  0  0  0  1  0  0  0  0  0  0
  -26.9020  -30.1990   24.6130 C   0  0  0  0  0  1  0  0  0  0  0  0
  -27.4490  -32.3610   25.6920 C   0  0  0  0  0  1  0  0  0  0  0  0
  -25.4440  -33.7410   24.1300 N   0  0  0  0  0  0  0  0  0  0  0  0
  -25.7330  -34.8180   23.3850 C   0  0  0  0  0  0  0  0  0  0  0  0
  -26.3680  -34.7490   22.3310 O   0  0  0  0  0  0  0  0  0  0  0  0
  -24.8800  -33.8690   24.9590 H   0  0  0  0  0  0  0  0  0  0  0  0
  -23.9710  -36.5940   23.1270 C   0  0  0  0  0  1  0  0  0  0  0  0
  -25.2400  -36.1880   23.8920 C   0  0  0  0  0  3  0  0  0  0  0  0
  -27.3750  -37.0990   24.6900 C   0  0  0  0  0  1  0  0  0  0  0  0
  -26.2530  -37.2590   23.7720 N   0  0  0  0  0  0  0  0  0  0  0  0
  -25.8320  -38.1710   23.9370 H   0  0  0  0  0  0  0  0  0  0  0  0
  1  2  2  0
  2 55  1  0
  3 50  1  0
  3  2  1  0
  4  5  1  0
  4  3  2  0
  5  1  1  0
  6 20  1  0
  7 12  1  0
  8  9  1  0
  8  7  1  0
 10  9  1  0
 10 24  1  0
 10 11  1  0
 12  6  1  0
 12 11  1  0
 13  6  2  0
 14 15  1  0
 15 18  1  0
 16  5  1  0
 16 17  1  0
 16 15  1  0
 17 19  1  0
 17 20  1  0
 20 14  1  0
 21 22  2  0
 22 41  1  0
 23 22  1  0
 23 26  1  0
 24 25  1  0
 24 21  1  0
 25 23  2  0
 26 27  1  0
 27 28  2  0
 29 32  1  0
 29 28  1  0
 30 29  2  0
 31 30  1  0
 31 26  2  0
 32 33  1  0
 33 34  1  0
 34 35  2  0
 36 35  1  0
 36 40  1  0
 37 36  2  0
 38 33  2  0
 38 37  1  0
 39 38  1  0
 41 42  1  0
 42 45  1  0
 42 44  1  0
 43 41  2  0
 46 47  1  0
 46 21  1  0
 48 46  1  0
 50 49  1  0
 51 50  1  0
 52 51  1  0
 53 51  1  0
 54 51  1  0
 55 56  1  0
 57 68  2  0
 58 56  1  0
 58 63  1  0
 59 67  1  0
 59 69  1  0
 60 66  1  0
 60 62  1  0
 61 67  1  0
 62 61  1  0
 63 62  2  0
 64 65  1  0
 64 58  2  0
 65 60  2  0
 66 59  1  0
 67 57  1  0
 69 71  2  0
 70 69  1  0
 72 70  1  0
 73 82  2  0
 73 78  1  0
 74 70  1  0
 74 78  1  0
 75 74  1  0
 76 77  1  0
 76 75  1  0
 77 73  1  0
 78 79  2  0
 79 80  1  0
 81 80  2  0
 82 81  1  0
 83 57  1  0
 83 88  1  0
 83 84  1  0
 84 87  1  1
 84 85  1  0
 86 84  1  0
 88 91  1  0
 89 93  1  0
 89 88  1  0
 90 89  2  0
 93 92  1  0
 95 93  1  0
 95 96  1  0
 95 94  1  0
M  ISO  4   6 100  20 100  55 101  56 101
M  END
>  <TORSDO>  (49) 
F 19

>  <SCORE>  (49) 
-14.734

>  <name>  (49) 
48

>  <ligand_id>  (49) 
48

>  <original_smiles>  (49) 
[H]c1c([H])c([H])c2c(c1[H])C([H])([H])C([H])([H])C([H])([H])C2([H])N([H])C(=O)C1([H])N(C(=O)C([H])(N([H])C(=O)C([H])(N([H])C([H])([H])[H])C([H])([H])[H])C(C([H])([H])[H])(C([H])([H])[H])C([H])([H])[H])C([H])([H])c2c([H])c(OC([H])([H])c3c(C([H])(C([H])([H])[H])[N+]([H])([H])[H])nn(C4([H])C([H])(C([H])([H])[H])N(C(=O)N5C([H])([H])C([H])([H])C([H])([H])C([H])(n6nc(-c7c([H])c([H])c(Oc8c([H])c([H])c(F)c([H])c8F)c([H])c7[H])c(C(=O)N([H])[H])c6N([H])[H])C5([H])[H])C([H])([H])C4([H])C([H])([H])[H])c3[H])c([H])c([H])c2C1([H])[H]

>  <smiles>  (49) 
[H]c1c([H])c([H])c2c(c1[H])C([H])([H])C([H])([H])C([H])([H])C2([H])N([H])C(=O)C1([H])N(C(=O)C([H])(N([H])C(=O)C([H])(N([H])C([H])([H])[H])C([H])([H])[H])C(C([H])([H])[H])(C([H])([H])[H])C([H])([H])[H])C([H])([H])c2c([H])c(OC([H])([H])c3c(C([H])(C([H])([H])[H])[N+]([H])([H])[H])nn(C4([H])C([H])(C([H])([H])[H])N(C(=O)N5C([H])([H])C([H])([H])C([H])([H])C([H])(n6nc(-c7c([H])c([H])c(Oc8c([H])c([H])c(F)c([H])c8F)c([H])c7[H])c(C(=O)N([H])[H])c6N([H])[H])C5([H])[H])C([H])([H])C4([H])C([H])([H])[H])c3[H])c([H])c([H])c2C1([H])[H]

$$$$
49:0:0
     RDKit          3D

 89 97  0  0  1  0  0  0  0  0999 V2000
  -29.1720  -20.7580   19.9590 C   0  0  0  0  0  0  0  0  0  0  0  0
  -28.9120  -19.7010   18.9000 C   0  0  0  0  0  0  0  0  0  0  0  0
  -28.8110  -22.1030   19.7050 C   0  0  0  0  0  3  0  0  0  0  0  0
  -29.9640  -20.1230   21.1390 C   0  0  0  0  0  2  0  0  0  0  0  0
  -28.9060  -18.1480   19.1970 C   0  0  0  0  0  2  0  0  0  0  0  0
  -29.8600  -18.5340   21.4060 C   0  0  0  0  0  2  0  0  0  0  0  0
  -29.9740  -17.5450   20.1760 C   0  0  0  0  0  3  0  0  0  0  0  0
  -28.6720  -20.0230   17.7320 O   0  0  0  0  0  0  0  0  0  0  0  0
  -30.5690  -14.8840   20.1910 C   0  0  0  0  0  0  0  0  0  0  0  0
  -30.3780  -12.5830   19.1950 C   0  0  0  0  0  2  0  0  0  0  0  0
  -29.4050  -12.6300   17.9940 C   0  0  0  0  0  2  0  0  0  0  0  0
  -27.9490  -12.4400   18.4640 C   0  0  0  0  0  2  0  0  0  0  0  0
  -27.6010  -13.3250   19.6910 C   0  0  0  0  0  3  0  0  0  0  0  0
  -28.6920  -13.2570   20.7820 C   0  0  0  0  0  2  0  0  0  0  0  0
  -29.9640  -13.6390   20.1540 N   0  0  0  0  0  0  0  0  0  0  0  0
  -31.7370  -14.9890   19.8070 O   0  0  0  0  0  0  0  0  0  0  0  0
  -29.7850  -16.0170   20.4490 N   0  0  0  0  0  0  0  0  0  0  0  0
  -28.8630  -15.7730   20.7770 H   0  0  0  0  0  0  0  0  0  0  0  0
  -25.2420  -13.9050   20.5040 C   0  0  0  0  0  0  0  0  0  0  0  0
  -24.1850  -13.1270   20.8940 C   0  0  0  0  0  0  0  0  0  0  0  0
  -24.6420  -11.7770   20.8250 C   0  0  0  0  0  0  0  0  0  0  0  0
  -26.2740  -13.0270   20.2190 N   0  0  0  0  0  0  0  0  0  0  0  0
  -25.9230  -11.7400   20.4750 N   0  0  0  0  0  0  0  0  0  0  0  0
  -23.9170  -10.5130   21.0140 C   0  0  0  0  0  0  0  0  0  0  0  0
  -24.3570   -9.5390   21.9370 C   0  0  0  0  0  3  0  0  0  0  0  0
  -23.6300   -8.3420   22.1150 C   0  0  0  0  0  3  0  0  0  0  0  0
  -22.4490   -8.1090   21.3710 C   0  0  0  0  0  0  0  0  0  0  0  0
  -22.0290   -9.0730   20.4360 C   0  0  0  0  0  3  0  0  0  0  0  0
  -22.7560  -10.2610   20.2570 C   0  0  0  0  0  3  0  0  0  0  0  0
  -21.6930   -6.9650   21.4590 O   0  0  0  0  0  0  0  0  0  0  0  0
  -21.6310   -6.2320   22.6160 C   0  0  0  0  0  0  0  0  0  0  0  0
  -21.1470   -6.7820   23.8220 C   0  0  0  0  0  3  0  0  0  0  0  0
  -21.0350   -5.9720   24.9700 C   0  0  0  0  0  3  0  0  0  0  0  0
  -21.3960   -4.6140   24.9140 C   0  0  0  0  0  0  0  0  0  0  0  0
  -21.8750   -4.0630   23.7120 C   0  0  0  0  0  3  0  0  0  0  0  0
  -21.9880   -4.8690   22.5650 C   0  0  0  0  0  0  0  0  0  0  0  0
  -22.4300   -4.3270   21.4040 F   0  0  0  0  0  0  0  0  0  0  0  0
  -21.2820   -3.8340   26.0140 F   0  0  0  0  0  0  0  0  0  0  0  0
  -22.7980  -13.6050   21.2160 C   0  0  0  0  0  0  0  0  0  0  0  0
  -22.0950  -12.8980   22.0920 N   0  0  0  0  0  0  0  0  0  0  0  0
  -22.3500  -14.6400   20.7240 O   0  0  0  0  0  0  0  0  0  0  0  0
  -22.4730  -12.0610   22.5120 H   0  0  0  0  0  0  0  0  0  0  0  0
  -21.1660  -13.1980   22.3490 H   0  0  0  0  0  0  0  0  0  0  0  0
  -25.4050  -15.2780   20.3450 N   0  0  0  0  0  0  0  0  0  0  0  0
  -24.6390  -15.9290   20.4820 H   0  0  0  0  0  0  0  0  0  0  0  0
  -26.2300  -15.7160   19.9560 H   0  0  0  0  0  0  0  0  0  0  0  0
  -29.0200  -23.5500   20.3940 C   0  0  0  0  0  3  0  0  0  0  0  0
  -28.0510  -24.8270   19.9740 C   0  0  0  0  0  3  0  0  0  0  0  0
  -28.2710  -26.3050   20.3130 O   0  0  0  0  0  0  0  0  0  0  0  0
  -24.5990  -31.8870   23.2890 C   0  0  0  0  0  0  0  0  0  0  0  0
  -27.1970  -27.2470   20.2300 C   0  0  0  0  0  0  0  0  0  0  0  0
  -23.4020  -30.5010   21.6380 C   0  0  0  0  0  3  0  0  0  0  0  0
  -24.8560  -28.9470   20.2050 C   0  0  0  0  0  0  0  0  0  0  0  0
  -25.9520  -30.7850   21.4780 C   0  0  0  0  0  2  0  0  0  0  0  0
  -26.0290  -29.4030   20.8190 C   0  0  0  0  0  0  0  0  0  0  0  0
  -27.2000  -28.5670   20.8200 C   0  0  0  0  0  3  0  0  0  0  0  0
  -26.0010  -26.8840   19.5700 C   0  0  0  0  0  3  0  0  0  0  0  0
  -24.8520  -27.6990   19.5670 C   0  0  0  0  0  3  0  0  0  0  0  0
  -23.6250  -29.8340   20.2550 C   0  0  0  0  0  2  0  0  0  0  0  0
  -24.6700  -31.0780   22.1910 N   0  0  0  0  0  0  0  0  0  0  0  0
  -23.5130  -32.1680   23.8180 O   0  0  0  0  0  0  0  0  0  0  0  0
  -22.7270  -29.4850   22.5920 C   0  0  0  0  0  0  0  0  0  0  0  0
  -21.4010  -29.3100   22.4560 N   0  0  0  0  0  0  0  0  0  0  0  0
  -23.3970  -28.8570   23.4160 O   0  0  0  0  0  0  0  0  0  0  0  0
  -20.9160  -29.8670   21.7650 H   0  0  0  0  0  0  0  0  0  0  0  0
  -18.0170  -28.1140   22.9430 C   0  0  0  0  0  0  0  0  0  0  0  0
  -20.5760  -28.3690   23.2190 C   0  0  0  0  0  3  0  0  0  0  0  0
  -20.6760  -26.9400   22.6350 C   0  0  0  0  0  2  0  0  0  0  0  0
  -19.5750  -26.6270   21.6150 C   0  0  0  0  0  2  0  0  0  0  0  0
  -18.1920  -26.7700   22.2570 C   0  0  0  0  0  2  0  0  0  0  0  0
  -19.1360  -28.8720   23.3800 C   0  0  0  0  0  0  0  0  0  0  0  0
  -18.9170  -30.1300   23.9820 C   0  0  0  0  0  3  0  0  0  0  0  0
  -17.6130  -30.6310   24.1510 C   0  0  0  0  0  3  0  0  0  0  0  0
  -16.5080  -29.8710   23.7300 C   0  0  0  0  0  3  0  0  0  0  0  0
  -16.7120  -28.6140   23.1310 C   0  0  0  0  0  3  0  0  0  0  0  0
  -25.8780  -32.5170   23.9220 C   0  0  0  0  0  3  0  0  0  0  0  0
  -25.5730  -33.9200   24.2450 N   0  0  0  0  0  0  0  0  0  0  0  0
  -25.8850  -34.9670   23.4710 C   0  0  0  0  0  0  0  0  0  0  0  0
  -26.5280  -34.8560   22.4240 O   0  0  0  0  0  0  0  0  0  0  0  0
  -24.9980  -34.0800   25.0600 H   0  0  0  0  0  0  0  0  0  0  0  0
  -24.1410  -36.7550   23.1530 C   0  0  0  0  0  1  0  0  0  0  0  0
  -25.4080  -36.3600   23.9290 C   0  0  0  0  0  3  0  0  0  0  0  0
  -27.5600  -37.2660   24.6910 C   0  0  0  0  0  1  0  0  0  0  0  0
  -26.4340  -37.4140   23.7720 N   0  0  0  0  0  0  0  0  0  0  0  0
  -26.0290  -38.3350   23.9140 H   0  0  0  0  0  0  0  0  0  0  0  0
  -26.3760  -31.7510   25.2100 C   0  0  1  0  0  0  0  0  0  0  0  0
  -25.2690  -31.5210   26.2650 C   0  0  0  0  0  1  0  0  0  0  0  0
  -26.9590  -30.3680   24.8350 C   0  0  0  0  0  1  0  0  0  0  0  0
  -27.5210  -32.5440   25.8820 C   0  0  0  0  0  1  0  0  0  0  0  0
  1  4  1  0
  2  5  1  0
  2  1  1  0
  3  1  2  0
  3 47  1  0
  4  6  1  0
  5  7  1  0
  7 17  1  0
  7  6  1  0
  8  2  2  0
  9 17  1  0
 10 15  1  0
 11 12  1  0
 11 10  1  0
 13 12  1  0
 13 22  1  0
 13 14  1  0
 15  9  1  0
 15 14  1  0
 16  9  2  0
 17 18  1  0
 19 20  2  0
 20 39  1  0
 21 20  1  0
 21 24  1  0
 22 23  1  0
 22 19  1  0
 23 21  2  0
 24 25  1  0
 25 26  2  0
 27 30  1  0
 27 26  1  0
 28 27  2  0
 29 28  1  0
 29 24  2  0
 30 31  1  0
 31 32  1  0
 32 33  2  0
 34 33  1  0
 34 38  1  0
 35 34  2  0
 36 31  2  0
 36 35  1  0
 37 36  1  0
 39 40  1  0
 40 43  1  0
 40 42  1  0
 41 39  2  0
 44 45  1  0
 44 19  1  0
 46 44  1  0
 48 49  1  0
 48 47  2  0
 50 61  2  0
 51 49  1  0
 51 56  1  0
 52 60  1  0
 52 62  1  0
 53 59  1  0
 53 55  1  0
 54 60  1  0
 55 56  2  0
 55 54  1  0
 57 51  2  0
 58 57  1  0
 58 53  2  0
 59 52  1  0
 60 50  1  0
 62 64  2  0
 63 62  1  0
 65 63  1  0
 66 75  2  0
 66 71  1  0
 67 63  1  0
 67 71  1  0
 68 67  1  0
 69 70  1  0
 69 68  1  0
 70 66  1  0
 71 72  2  0
 72 73  1  0
 74 73  2  0
 75 74  1  0
 76 50  1  0
 76 77  1  0
 76 86  1  0
 77 80  1  0
 78 82  1  0
 78 77  1  0
 79 78  2  0
 82 81  1  0
 84 85  1  0
 84 82  1  0
 84 83  1  0
 86 89  1  1
 86 87  1  0
 88 86  1  0
M  ISO  4   9 100  17 100  48 101  49 101
M  END
>  <TORSDO>  (50) 
F 18

>  <SCORE>  (50) 
-14.405

>  <name>  (50) 
49

>  <ligand_id>  (50) 
49

>  <original_smiles>  (50) 
[H]C(=C1C(=O)C([H])([H])C([H])(N([H])C(=O)N2C([H])([H])C([H])([H])C([H])([H])C([H])(n3nc(-c4c([H])c([H])c(Oc5c([H])c([H])c(F)c([H])c5F)c([H])c4[H])c(C(=O)N([H])[H])c3N([H])[H])C2([H])[H])C([H])([H])C1([H])[H])C([H])([H])C([H])([H])Oc1c([H])c([H])c2c(c1[H])C([H])([H])N(C(=O)C([H])(N([H])C(=O)C([H])(N([H])C([H])([H])[H])C([H])([H])[H])C(C([H])([H])[H])(C([H])([H])[H])C([H])([H])[H])C([H])(C(=O)N([H])C1([H])c3c([H])c([H])c([H])c([H])c3C([H])([H])C([H])([H])C1([H])[H])C2([H])[H]

>  <smiles>  (50) 
[H]C(=C1C(=O)C([H])([H])C([H])(N([H])C(=O)N2C([H])([H])C([H])([H])C([H])([H])C([H])(n3nc(-c4c([H])c([H])c(Oc5c([H])c([H])c(F)c([H])c5F)c([H])c4[H])c(C(=O)N([H])[H])c3N([H])[H])C2([H])[H])C([H])([H])C1([H])[H])C([H])([H])C([H])([H])Oc1c([H])c([H])c2c(c1[H])C([H])([H])N(C(=O)C([H])(N([H])C(=O)C([H])(N([H])C([H])([H])[H])C([H])([H])[H])C(C([H])([H])[H])(C([H])([H])[H])C([H])([H])[H])C([H])(C(=O)N([H])C1([H])c3c([H])c([H])c([H])c([H])c3C([H])([H])C([H])([H])C1([H])[H])C2([H])[H]

$$$$
50:0:0
     RDKit          3D

 90 99  0  0  1  0  0  0  0  0999 V2000
  -30.4160  -15.7120   20.2330 C   0  0  0  0  0  0  0  0  0  0  0  0
  -30.5200  -13.1290   19.5620 C   0  0  0  0  0  2  0  0  0  0  0  0
  -29.6490  -12.6510   18.3640 C   0  0  0  0  0  2  0  0  0  0  0  0
  -28.2110  -12.3400   18.8060 C   0  0  0  0  0  2  0  0  0  0  0  0
  -27.6810  -13.4280   19.7640 C   0  0  0  0  0  3  0  0  0  0  0  0
  -28.6800  -13.7860   20.8910 C   0  0  0  0  0  2  0  0  0  0  0  0
  -29.8880  -14.3480   20.2430 N   0  0  0  0  0  0  0  0  0  0  0  0
  -31.6500  -15.6430   20.0810 O   0  0  0  0  0  0  0  0  0  0  0  0
  -28.3870  -19.5790   20.5990 C   0  0  0  0  0  3  0  0  0  0  0  0
  -28.0900  -21.0680   20.4840 C   0  0  0  0  0  0  0  0  0  0  0  0
  -28.8620  -22.1460   19.8120 C   0  0  0  0  0  0  0  0  0  0  0  0
  -30.0020  -21.2730   19.3580 C   0  0  0  0  0  0  0  0  0  0  0  0
  -29.5170  -18.7610   20.1060 C   0  0  0  0  0  0  0  0  0  0  0  0
  -26.7920  -21.5040   21.1380 C   0  0  0  0  0  1  0  0  0  0  0  0
  -30.2740  -19.8190   19.4960 N   0  0  0  0  0  0  0  0  0  0  0  0
  -29.6130  -17.0450   20.2560 N   0  0  0  0  0  0  0  0  0  0  0  0
  -28.6800  -16.7250   20.4560 H   0  0  0  0  0  0  0  0  0  0  0  0
  -25.3220  -14.0540   20.4760 C   0  0  0  0  0  0  0  0  0  0  0  0
  -24.2260  -13.3150   20.8160 C   0  0  0  0  0  0  0  0  0  0  0  0
  -24.6460  -11.9490   20.7920 C   0  0  0  0  0  0  0  0  0  0  0  0
  -26.3380  -13.1450   20.2530 N   0  0  0  0  0  0  0  0  0  0  0  0
  -25.9430  -11.8700   20.5130 N   0  0  0  0  0  0  0  0  0  0  0  0
  -23.8690  -10.7130   20.9580 C   0  0  0  0  0  0  0  0  0  0  0  0
  -24.2680   -9.7030   21.8590 C   0  0  0  0  0  3  0  0  0  0  0  0
  -23.4910   -8.5360   22.0170 C   0  0  0  0  0  3  0  0  0  0  0  0
  -22.2970   -8.3700   21.2750 C   0  0  0  0  0  0  0  0  0  0  0  0
  -21.9150   -9.3710   20.3630 C   0  0  0  0  0  3  0  0  0  0  0  0
  -22.6930  -10.5290   20.2030 C   0  0  0  0  0  3  0  0  0  0  0  0
  -21.4910   -7.2600   21.3450 O   0  0  0  0  0  0  0  0  0  0  0  0
  -21.4650   -6.4580   22.4580 C   0  0  0  0  0  0  0  0  0  0  0  0
  -21.1450   -6.9690   23.7350 C   0  0  0  0  0  3  0  0  0  0  0  0
  -21.0600   -6.0990   24.8410 C   0  0  0  0  0  3  0  0  0  0  0  0
  -21.2870   -4.7200   24.6710 C   0  0  0  0  0  0  0  0  0  0  0  0
  -21.5990   -4.2100   23.4000 C   0  0  0  0  0  3  0  0  0  0  0  0
  -21.6860   -5.0760   22.2960 C   0  0  0  0  0  0  0  0  0  0  0  0
  -21.9670   -4.5750   21.0690 F   0  0  0  0  0  0  0  0  0  0  0  0
  -21.1980   -3.8830   25.7320 F   0  0  0  0  0  0  0  0  0  0  0  0
  -22.8400  -13.8430   21.0480 C   0  0  0  0  0  0  0  0  0  0  0  0
  -22.0650  -13.1810   21.8990 N   0  0  0  0  0  0  0  0  0  0  0  0
  -22.4550  -14.8800   20.5090 O   0  0  0  0  0  0  0  0  0  0  0  0
  -22.3830  -12.3410   22.3590 H   0  0  0  0  0  0  0  0  0  0  0  0
  -21.1350  -13.5220   22.0990 H   0  0  0  0  0  0  0  0  0  0  0  0
  -25.5390  -15.4200   20.3050 N   0  0  0  0  0  0  0  0  0  0  0  0
  -24.7950  -16.1030   20.4010 H   0  0  0  0  0  0  0  0  0  0  0  0
  -26.3980  -15.8240   19.9590 H   0  0  0  0  0  0  0  0  0  0  0  0
  -32.5550  -21.6150   18.7180 C   0  0  0  0  0  2  0  0  0  0  0  0
  -32.0280  -22.8820   19.3400 C   0  0  0  0  0  2  0  0  0  0  0  0
  -31.0850  -21.9680   18.5860 C   0  0  0  0  0  3  0  0  0  0  0  0
  -28.2660  -23.8780   19.3750 C   0  0  0  0  0  2  0  0  0  0  0  0
  -28.4180  -25.5870   19.7410 O   0  0  0  0  0  0  0  0  0  0  0  0
  -24.6860  -31.6020   22.9160 C   0  0  0  0  0  0  0  0  0  0  0  0
  -27.4110  -26.7730   19.7000 C   0  0  0  0  0  0  0  0  0  0  0  0
  -23.5470  -30.2270   21.2270 C   0  0  0  0  0  3  0  0  0  0  0  0
  -25.0530  -28.7050   19.7350 C   0  0  0  0  0  0  0  0  0  0  0  0
  -26.1150  -30.4890   21.0920 C   0  0  0  0  0  2  0  0  0  0  0  0
  -26.2360  -29.0850   20.3810 C   0  0  0  0  0  0  0  0  0  0  0  0
  -27.3940  -28.1460   20.3390 C   0  0  0  0  0  3  0  0  0  0  0  0
  -26.1880  -26.6090   18.9970 C   0  0  0  0  0  3  0  0  0  0  0  0
  -25.0660  -27.4960   19.0180 C   0  0  0  0  0  3  0  0  0  0  0  0
  -23.8060  -29.6000   19.8260 C   0  0  0  0  0  2  0  0  0  0  0  0
  -24.8060  -30.8040   21.8010 N   0  0  0  0  0  0  0  0  0  0  0  0
  -23.5850  -31.8270   23.4500 O   0  0  0  0  0  0  0  0  0  0  0  0
  -22.8800  -29.1790   22.1600 C   0  0  0  0  0  0  0  0  0  0  0  0
  -21.5460  -29.0010   22.0680 N   0  0  0  0  0  0  0  0  0  0  0  0
  -23.5750  -28.5220   22.9400 O   0  0  0  0  0  0  0  0  0  0  0  0
  -21.0290  -29.5800   21.4210 H   0  0  0  0  0  0  0  0  0  0  0  0
  -18.2010  -27.7100   22.6450 C   0  0  0  0  0  0  0  0  0  0  0  0
  -20.7690  -28.0020   22.8110 C   0  0  0  0  0  3  0  0  0  0  0  0
  -20.8620  -26.6120   22.1370 C   0  0  0  0  0  2  0  0  0  0  0  0
  -19.7190  -26.3430   21.1520 C   0  0  0  0  0  2  0  0  0  0  0  0
  -18.3650  -26.4170   21.8640 C   0  0  0  0  0  2  0  0  0  0  0  0
  -19.3270  -28.4610   23.0760 C   0  0  0  0  0  0  0  0  0  0  0  0
  -19.1140  -29.6720   23.7720 C   0  0  0  0  0  3  0  0  0  0  0  0
  -17.8100  -30.1300   24.0390 C   0  0  0  0  0  3  0  0  0  0  0  0
  -16.7000  -29.3760   23.6200 C   0  0  0  0  0  3  0  0  0  0  0  0
  -16.8970  -28.1660   22.9280 C   0  0  0  0  0  3  0  0  0  0  0  0
  -25.9220  -32.2840   23.5760 C   0  0  0  0  0  3  0  0  0  0  0  0
  -25.5310  -33.6410   24.0070 N   0  0  0  0  0  0  0  0  0  0  0  0
  -25.7780  -34.7680   23.3240 C   0  0  0  0  0  0  0  0  0  0  0  0
  -26.4140  -34.7780   22.2680 O   0  0  0  0  0  0  0  0  0  0  0  0
  -24.9650  -33.7020   24.8410 H   0  0  0  0  0  0  0  0  0  0  0  0
  -23.9270  -36.4750   23.1820 C   0  0  0  0  0  1  0  0  0  0  0  0
  -25.2310  -36.0910   23.8990 C   0  0  0  0  0  3  0  0  0  0  0  0
  -27.3500  -37.0640   24.6810 C   0  0  0  0  0  1  0  0  0  0  0  0
  -26.1880  -37.2170   23.8110 N   0  0  0  0  0  0  0  0  0  0  0  0
  -25.7330  -38.0930   24.0470 H   0  0  0  0  0  0  0  0  0  0  0  0
  -26.4860  -31.4760   24.8100 C   0  0  1  0  0  0  0  0  0  0  0  0
  -25.4210  -31.1440   25.8800 C   0  0  0  0  0  1  0  0  0  0  0  0
  -27.1220  -30.1430   24.3560 C   0  0  0  0  0  1  0  0  0  0  0  0
  -27.6050  -32.2900   25.5020 C   0  0  0  0  0  1  0  0  0  0  0  0
  1  7  1  0
  1 16  1  0
  2  7  1  0
  3  4  1  0
  3  2  1  0
  5  4  1  0
  5 21  1  0
  5  6  1  0
  7  6  1  0
  8  1  2  0
 10  9  1  0
 10 14  1  0
 11 10  2  0
 12 15  2  0
 12 11  1  0
 13 16  1  0
 13  9  2  0
 15 13  1  0
 16 17  1  0
 18 19  2  0
 19 38  1  0
 20 19  1  0
 20 23  1  0
 21 18  1  0
 21 22  1  0
 22 20  2  0
 23 24  1  0
 24 25  2  0
 26 29  1  0
 26 25  1  0
 27 26  2  0
 28 27  1  0
 28 23  2  0
 29 30  1  0
 30 31  1  0
 31 32  2  0
 33 32  1  0
 33 37  1  0
 34 33  2  0
 35 30  2  0
 35 34  1  0
 36 35  1  0
 38 39  1  0
 39 42  1  0
 39 41  1  0
 40 38  2  0
 43 44  1  0
 43 18  1  0
 45 43  1  0
 46 47  1  0
 48 46  1  0
 48 47  1  0
 48 12  1  0
 49 50  1  0
 49 11  1  0
 51 62  2  0
 52 50  1  0
 52 57  1  0
 53 61  1  0
 53 63  1  0
 54 60  1  0
 54 56  1  0
 55 61  1  0
 56 55  1  0
 57 56  2  0
 58 59  1  0
 58 52  2  0
 59 54  2  0
 60 53  1  0
 61 51  1  0
 63 65  2  0
 64 63  1  0
 66 64  1  0
 67 76  2  0
 67 72  1  0
 68 64  1  0
 68 72  1  0
 69 68  1  0
 70 71  1  0
 70 69  1  0
 71 67  1  0
 72 73  2  0
 73 74  1  0
 75 74  2  0
 76 75  1  0
 77 51  1  0
 77 78  1  0
 77 87  1  0
 78 81  1  0
 79 83  1  0
 79 78  1  0
 80 79  2  0
 83 82  1  0
 85 83  1  0
 85 86  1  0
 85 84  1  0
 87 90  1  1
 87 88  1  0
 89 87  1  0
M  ISO  4   1 100  16 100  49 101  50 101
M  END
>  <TORSDO>  (51) 
F 17

>  <SCORE>  (51) 
-13.744

>  <name>  (51) 
50

>  <ligand_id>  (51) 
50

>  <original_smiles>  (51) 
[H]c1c([H])c([H])c2c(c1[H])C([H])([H])C([H])([H])C([H])([H])C2([H])N([H])C(=O)C1([H])N(C(=O)C([H])(N([H])C(=O)C([H])(N([H])C([H])([H])[H])C([H])([H])[H])C(C([H])([H])[H])(C([H])([H])[H])C([H])([H])[H])C([H])([H])c2c([H])c(OC([H])([H])c3c(C4([H])C([H])([H])C4([H])[H])nc(N([H])C(=O)N4C([H])([H])C([H])([H])C([H])([H])C([H])(n5nc(-c6c([H])c([H])c(Oc7c([H])c([H])c(F)c([H])c7F)c([H])c6[H])c(C(=O)N([H])[H])c5N([H])[H])C4([H])[H])c([H])c3C([H])([H])[H])c([H])c([H])c2C1([H])[H]

>  <smiles>  (51) 
[H]c1c([H])c([H])c2c(c1[H])C([H])([H])C([H])([H])C([H])([H])C2([H])N([H])C(=O)C1([H])N(C(=O)C([H])(N([H])C(=O)C([H])(N([H])C([H])([H])[H])C([H])([H])[H])C(C([H])([H])[H])(C([H])([H])[H])C([H])([H])[H])C([H])([H])c2c([H])c(OC([H])([H])c3c(C4([H])C([H])([H])C4([H])[H])nc(N([H])C(=O)N4C([H])([H])C([H])([H])C([H])([H])C([H])(n5nc(-c6c([H])c([H])c(Oc7c([H])c([H])c(F)c([H])c7F)c([H])c6[H])c(C(=O)N([H])[H])c5N([H])[H])C4([H])[H])c([H])c3C([H])([H])[H])c([H])c([H])c2C1([H])[H]

$$$$
51:0:0
     RDKit          3D

 86 95  0  0  1  0  0  0  0  0999 V2000
  -30.1790  -16.1450   20.2630 C   0  0  0  0  0  0  0  0  0  0  0  0
  -30.4100  -13.4940   19.5090 C   0  0  0  0  0  2  0  0  0  0  0  0
  -29.6100  -12.8320   18.3400 C   0  0  0  0  0  2  0  0  0  0  0  0
  -28.2260  -12.3680   18.8070 C   0  0  0  0  0  2  0  0  0  0  0  0
  -27.6120  -13.4170   19.7520 C   0  0  0  0  0  3  0  0  0  0  0  0
  -28.5790  -13.9530   20.8470 C   0  0  0  0  0  2  0  0  0  0  0  0
  -29.6720  -14.7170   20.1570 N   0  0  0  0  0  0  0  0  0  0  0  0
  -31.4230  -15.9510   20.2140 O   0  0  0  0  0  0  0  0  0  0  0  0
  -26.9580  -21.2360   20.1700 C   0  0  0  0  0  2  0  0  0  0  0  0
  -28.0100  -20.1990   20.2030 C   0  0  0  0  0  0  0  0  0  0  0  0
  -29.2150  -20.8190   20.2010 C   0  0  0  0  0  0  0  0  0  0  0  0
  -28.1900  -23.4570   20.1640 C   0  0  0  0  0  0  0  0  0  0  0  0
  -28.1370  -18.4830   20.2320 C   0  0  0  0  0  3  0  0  0  0  0  0
  -30.1710  -19.3120   20.1990 C   0  0  0  0  0  3  0  0  0  0  0  0
  -27.0430  -22.6810   20.1570 N   0  0  0  0  0  0  0  0  0  0  0  0
  -29.2840  -22.3850   20.1850 N   0  0  0  0  0  0  0  0  0  0  0  0
  -29.5620  -17.7000   20.2380 N   0  0  0  0  0  0  0  0  0  0  0  0
  -25.2310  -13.8940   20.4540 C   0  0  0  0  0  0  0  0  0  0  0  0
  -24.1780  -13.1010   20.8090 C   0  0  0  0  0  0  0  0  0  0  0  0
  -24.6750  -11.7610   20.8170 C   0  0  0  0  0  0  0  0  0  0  0  0
  -26.3000  -13.0430   20.2600 N   0  0  0  0  0  0  0  0  0  0  0  0
  -25.9790  -11.7500   20.5420 N   0  0  0  0  0  0  0  0  0  0  0  0
  -23.9590  -10.4900   21.0100 C   0  0  0  0  0  0  0  0  0  0  0  0
  -24.3840   -9.5370   21.9620 C   0  0  0  0  0  3  0  0  0  0  0  0
  -23.6620   -8.3380   22.1460 C   0  0  0  0  0  3  0  0  0  0  0  0
  -22.5000   -8.0820   21.3810 C   0  0  0  0  0  0  0  0  0  0  0  0
  -22.0930   -9.0250   20.4200 C   0  0  0  0  0  3  0  0  0  0  0  0
  -22.8160  -10.2150   20.2330 C   0  0  0  0  0  3  0  0  0  0  0  0
  -21.7500   -6.9340   21.4760 O   0  0  0  0  0  0  0  0  0  0  0  0
  -21.7110   -6.1930   22.6300 C   0  0  0  0  0  0  0  0  0  0  0  0
  -21.2940   -6.7500   23.8590 C   0  0  0  0  0  3  0  0  0  0  0  0
  -21.1980   -5.9350   25.0050 C   0  0  0  0  0  3  0  0  0  0  0  0
  -21.5110   -4.5650   24.9240 C   0  0  0  0  0  0  0  0  0  0  0  0
  -21.9220   -4.0070   23.7010 C   0  0  0  0  0  3  0  0  0  0  0  0
  -22.0170   -4.8190   22.5560 C   0  0  0  0  0  0  0  0  0  0  0  0
  -22.3920   -4.2710   21.3750 F   0  0  0  0  0  0  0  0  0  0  0  0
  -21.4140   -3.7810   26.0230 F   0  0  0  0  0  0  0  0  0  0  0  0
  -22.7650  -13.5600   21.0150 C   0  0  0  0  0  0  0  0  0  0  0  0
  -22.0200  -12.8820   21.8800 N   0  0  0  0  0  0  0  0  0  0  0  0
  -22.3310  -14.5620   20.4460 O   0  0  0  0  0  0  0  0  0  0  0  0
  -22.3850  -12.0770   22.3670 H   0  0  0  0  0  0  0  0  0  0  0  0
  -21.0700  -13.1760   22.0580 H   0  0  0  0  0  0  0  0  0  0  0  0
  -25.3650  -15.2630   20.2440 N   0  0  0  0  0  0  0  0  0  0  0  0
  -24.5710  -15.8930   20.3050 H   0  0  0  0  0  0  0  0  0  0  0  0
  -26.2010  -15.7090   19.8920 H   0  0  0  0  0  0  0  0  0  0  0  0
  -28.2100  -25.1380   20.1710 O   0  0  0  0  0  0  0  0  0  0  0  0
  -24.7520  -31.8270   23.0800 C   0  0  0  0  0  0  0  0  0  0  0  0
  -27.2430  -26.4620   20.1640 C   0  0  0  0  0  0  0  0  0  0  0  0
  -23.5750  -30.4170   21.4520 C   0  0  0  0  0  3  0  0  0  0  0  0
  -25.0190  -28.6940   20.0750 C   0  0  0  0  0  0  0  0  0  0  0  0
  -26.1660  -30.4600   21.3750 C   0  0  0  0  0  2  0  0  0  0  0  0
  -26.2170  -28.9910   20.7330 C   0  0  0  0  0  0  0  0  0  0  0  0
  -27.2970  -27.9130   20.7390 C   0  0  0  0  0  3  0  0  0  0  0  0
  -26.0110  -26.4570   19.4370 C   0  0  0  0  0  3  0  0  0  0  0  0
  -24.9730  -27.4570   19.4020 C   0  0  0  0  0  3  0  0  0  0  0  0
  -23.8310  -29.6870   20.0970 C   0  0  0  0  0  2  0  0  0  0  0  0
  -24.8590  -30.9420   22.0210 N   0  0  0  0  0  0  0  0  0  0  0  0
  -23.6520  -32.1470   23.5690 O   0  0  0  0  0  0  0  0  0  0  0  0
  -22.8250  -29.4740   22.4330 C   0  0  0  0  0  0  0  0  0  0  0  0
  -21.4850  -29.3600   22.3240 N   0  0  0  0  0  0  0  0  0  0  0  0
  -23.4650  -28.8380   23.2740 O   0  0  0  0  0  0  0  0  0  0  0  0
  -21.0150  -29.9220   21.6290 H   0  0  0  0  0  0  0  0  0  0  0  0
  -18.0720  -28.2270   22.8900 C   0  0  0  0  0  0  0  0  0  0  0  0
  -20.6440  -28.4400   23.1020 C   0  0  0  0  0  3  0  0  0  0  0  0
  -20.6990  -27.0080   22.5180 C   0  0  0  0  0  2  0  0  0  0  0  0
  -19.5720  -26.7220   21.5190 C   0  0  0  0  0  2  0  0  0  0  0  0
  -18.2070  -26.8860   22.1890 C   0  0  0  0  0  2  0  0  0  0  0  0
  -19.2140  -28.9650   23.3030 C   0  0  0  0  0  0  0  0  0  0  0  0
  -19.0280  -30.2170   23.9270 C   0  0  0  0  0  3  0  0  0  0  0  0
  -17.7360  -30.7340   24.1350 C   0  0  0  0  0  3  0  0  0  0  0  0
  -16.6090  -29.9960   23.7320 C   0  0  0  0  0  3  0  0  0  0  0  0
  -16.7790  -28.7430   23.1160 C   0  0  0  0  0  3  0  0  0  0  0  0
  -26.0010  -32.4930   23.7330 C   0  0  0  0  0  3  0  0  0  0  0  0
  -25.6520  -33.8800   24.1130 N   0  0  0  0  0  0  0  0  0  0  0  0
  -25.9500  -34.9790   23.4040 C   0  0  0  0  0  0  0  0  0  0  0  0
  -26.5950  -34.9290   22.3530 O   0  0  0  0  0  0  0  0  0  0  0  0
  -25.0720  -33.9860   24.9310 H   0  0  0  0  0  0  0  0  0  0  0  0
  -24.1790  -36.7650   23.2110 C   0  0  0  0  0  1  0  0  0  0  0  0
  -25.4690  -36.3470   23.9380 C   0  0  0  0  0  3  0  0  0  0  0  0
  -27.6050  -37.2780   24.7150 C   0  0  0  0  0  1  0  0  0  0  0  0
  -26.4830  -37.4130   23.7900 N   0  0  0  0  0  0  0  0  0  0  0  0
  -26.0720  -38.3360   23.9090 H   0  0  0  0  0  0  0  0  0  0  0  0
  -26.5170  -31.7150   25.0090 C   0  0  1  0  0  0  0  0  0  0  0  0
  -25.4190  -31.4510   26.0680 C   0  0  0  0  0  1  0  0  0  0  0  0
  -27.1230  -30.3490   24.6220 C   0  0  0  0  0  1  0  0  0  0  0  0
  -27.6530  -32.5170   25.6890 C   0  0  0  0  0  1  0  0  0  0  0  0
  2  7  1  0
  3  4  1  0
  3  2  1  0
  5  4  1  0
  5 21  1  0
  5  6  1  0
  7  1  1  0
  7  6  1  0
  8  1  2  0
  9 10  1  0
 10 13  2  0
 11 10  1  0
 12 46  1  0
 12 16  2  0
 13 17  1  0
 14 11  2  0
 14 17  1  0
 15 12  2  0
 15  9  1  0
 16 11  1  0
 17  1  1  0
 18 19  2  0
 19 20  1  0
 19 38  1  0
 20 23  1  0
 21 18  1  0
 21 22  1  0
 22 20  2  0
 23 24  1  0
 24 25  2  0
 26 29  1  0
 26 25  1  0
 27 26  2  0
 28 27  1  0
 28 23  2  0
 29 30  1  0
 30 31  1  0
 31 32  2  0
 33 32  1  0
 33 37  1  0
 34 33  2  0
 35 30  2  0
 35 34  1  0
 36 35  1  0
 38 39  1  0
 39 42  1  0
 39 41  1  0
 40 38  2  0
 43 44  1  0
 43 18  1  0
 45 43  1  0
 47 58  2  0
 48 46  1  0
 48 53  1  0
 49 57  1  0
 49 59  1  0
 50 56  1  0
 50 52  1  0
 51 57  1  0
 52 53  2  0
 52 51  1  0
 54 48  2  0
 55 54  1  0
 55 50  2  0
 56 49  1  0
 57 47  1  0
 59 61  2  0
 60 59  1  0
 62 60  1  0
 63 72  2  0
 63 68  1  0
 64 60  1  0
 64 68  1  0
 65 64  1  0
 66 67  1  0
 66 65  1  0
 67 63  1  0
 68 69  2  0
 69 70  1  0
 71 70  2  0
 72 71  1  0
 73 47  1  0
 73 74  1  0
 73 83  1  0
 74 77  1  0
 75 79  1  0
 75 74  1  0
 76 75  2  0
 79 78  1  0
 81 82  1  0
 81 79  1  0
 81 80  1  0
 83 86  1  1
 83 84  1  0
 85 83  1  0
M  ISO  4   1 100  12 101  17 100  46 101
M  END
>  <TORSDO>  (52) 
F 15

>  <SCORE>  (52) 
-15.706

>  <name>  (52) 
51

>  <ligand_id>  (52) 
51

>  <original_smiles>  (52) 
[H]c1nc(Oc2c([H])c([H])c3c(c2[H])C([H])([H])N(C(=O)C([H])(N([H])C(=O)C([H])(N([H])C([H])([H])[H])C([H])([H])[H])C(C([H])([H])[H])(C([H])([H])[H])C([H])([H])[H])C([H])(C(=O)N([H])C2([H])c4c([H])c([H])c([H])c([H])c4C([H])([H])C([H])([H])C2([H])[H])C3([H])[H])nc2c1C([H])([H])N(C(=O)N1C([H])([H])C([H])([H])C([H])([H])C([H])(n3nc(-c4c([H])c([H])c(Oc5c([H])c([H])c(F)c([H])c5F)c([H])c4[H])c(C(=O)N([H])[H])c3N([H])[H])C1([H])[H])C2([H])[H]

>  <smiles>  (52) 
[H]c1nc(Oc2c([H])c([H])c3c(c2[H])C([H])([H])N(C(=O)C([H])(N([H])C(=O)C([H])(N([H])C([H])([H])[H])C([H])([H])[H])C(C([H])([H])[H])(C([H])([H])[H])C([H])([H])[H])C([H])(C(=O)N([H])C2([H])c4c([H])c([H])c([H])c([H])c4C([H])([H])C([H])([H])C2([H])[H])C3([H])[H])nc2c1C([H])([H])N(C(=O)N1C([H])([H])C([H])([H])C([H])([H])C([H])(n3nc(-c4c([H])c([H])c(Oc5c([H])c([H])c(F)c([H])c5F)c([H])c4[H])c(C(=O)N([H])[H])c3N([H])[H])C1([H])[H])C2([H])[H]

$$$$
52:0:0
     RDKit          3D

 98108  0  0  1  0  0  0  0  0999 V2000
  -29.8650  -22.1690   19.9130 C   0  0  0  0  0  0  0  0  0  0  0  0
  -31.2120  -22.6240   19.9390 C   0  0  0  0  0  0  0  0  0  0  0  0
  -30.5260  -24.8330   20.1090 C   0  0  0  0  0  0  0  0  0  0  0  0
  -29.1670  -24.4250   20.0540 C   0  0  0  0  0  0  0  0  0  0  0  0
  -32.3900  -21.6910   19.7250 C   0  0  0  0  0  1  0  0  0  0  0  0
  -30.9620  -26.2850   20.1800 C   0  0  0  0  0  1  0  0  0  0  0  0
  -28.8540  -23.0890   19.9580 N   0  0  0  0  0  0  0  0  0  0  0  0
  -31.5360  -23.9330   20.0620 N   0  0  0  0  0  0  0  0  0  0  0  0
  -29.8690  -19.5850   20.1870 C   0  0  0  0  0  0  0  0  0  0  0  0
  -29.7760  -18.2490   19.5500 C   0  0  0  0  0  0  0  0  0  0  0  0
  -29.5610  -20.7500   19.5460 C   0  0  0  0  0  3  0  0  0  0  0  0
  -30.4030  -19.3510   21.5910 C   0  0  0  0  0  2  0  0  0  0  0  0
  -30.6100  -17.2300   20.3580 C   0  0  0  0  0  3  0  0  0  0  0  0
  -30.4130  -17.8060   21.7710 C   0  0  0  0  0  3  0  0  0  0  0  0
  -29.1420  -17.9830   18.5250 O   0  0  0  0  0  0  0  0  0  0  0  0
  -30.8840  -14.7650   19.8740 C   0  0  0  0  0  0  0  0  0  0  0  0
  -30.6100  -12.5070   18.9170 C   0  0  0  0  0  2  0  0  0  0  0  0
  -29.6260  -12.5930   17.7340 C   0  0  0  0  0  2  0  0  0  0  0  0
  -28.1670  -12.4690   18.2170 C   0  0  0  0  0  2  0  0  0  0  0  0
  -27.8530  -13.3940   19.4270 C   0  0  0  0  0  3  0  0  0  0  0  0
  -28.9470  -13.2800   20.5110 C   0  0  0  0  0  2  0  0  0  0  0  0
  -30.2420  -13.5650   19.8710 N   0  0  0  0  0  0  0  0  0  0  0  0
  -32.0150  -14.9150   19.4050 O   0  0  0  0  0  0  0  0  0  0  0  0
  -30.1550  -15.8210   20.2930 N   0  0  0  0  0  0  0  0  0  0  0  0
  -29.2120  -15.6330   20.5920 H   0  0  0  0  0  0  0  0  0  0  0  0
  -25.4940  -14.0340   20.2260 C   0  0  0  0  0  0  0  0  0  0  0  0
  -24.4340  -13.2810   20.6550 C   0  0  0  0  0  0  0  0  0  0  0  0
  -24.8830  -11.9240   20.6340 C   0  0  0  0  0  0  0  0  0  0  0  0
  -26.5210  -13.1400   19.9700 N   0  0  0  0  0  0  0  0  0  0  0  0
  -26.1590  -11.8670   20.2710 N   0  0  0  0  0  0  0  0  0  0  0  0
  -24.1540  -10.6720   20.8730 C   0  0  0  0  0  0  0  0  0  0  0  0
  -24.5710   -9.7550   21.8630 C   0  0  0  0  0  3  0  0  0  0  0  0
  -23.8440   -8.5660   22.0890 C   0  0  0  0  0  3  0  0  0  0  0  0
  -22.6870   -8.2860   21.3250 C   0  0  0  0  0  0  0  0  0  0  0  0
  -22.2890   -9.1910   20.3260 C   0  0  0  0  0  3  0  0  0  0  0  0
  -23.0170  -10.3720   20.0980 C   0  0  0  0  0  3  0  0  0  0  0  0
  -21.9300   -7.1450   21.4580 O   0  0  0  0  0  0  0  0  0  0  0  0
  -21.7760   -6.5220   22.6710 C   0  0  0  0  0  0  0  0  0  0  0  0
  -21.2500   -7.1970   23.7950 C   0  0  0  0  0  3  0  0  0  0  0  0
  -21.0430   -6.4980   25.0010 C   0  0  0  0  0  3  0  0  0  0  0  0
  -21.3530   -5.1280   25.0840 C   0  0  0  0  0  0  0  0  0  0  0  0
  -21.8720   -4.4530   23.9650 C   0  0  0  0  0  3  0  0  0  0  0  0
  -22.0790   -5.1490   22.7610 C   0  0  0  0  0  0  0  0  0  0  0  0
  -22.5600   -4.4880   21.6790 F   0  0  0  0  0  0  0  0  0  0  0  0
  -21.1470   -4.4560   26.2400 F   0  0  0  0  0  0  0  0  0  0  0  0
  -23.0530  -13.7760   20.9690 C   0  0  0  0  0  0  0  0  0  0  0  0
  -22.3610  -13.1260   21.8990 N   0  0  0  0  0  0  0  0  0  0  0  0
  -22.5950  -14.7800   20.4230 O   0  0  0  0  0  0  0  0  0  0  0  0
  -22.7430  -12.3170   22.3680 H   0  0  0  0  0  0  0  0  0  0  0  0
  -21.4330  -13.4420   22.1410 H   0  0  0  0  0  0  0  0  0  0  0  0
  -25.6660  -15.4000   20.0120 N   0  0  0  0  0  0  0  0  0  0  0  0
  -24.9100  -16.0650   20.1290 H   0  0  0  0  0  0  0  0  0  0  0  0
  -26.4980  -15.8170   19.6160 H   0  0  0  0  0  0  0  0  0  0  0  0
  -31.1220  -17.1970   24.2410 C   0  0  0  0  0  2  0  0  0  0  0  0
  -31.2600  -15.9300   23.4260 C   0  0  0  0  0  2  0  0  0  0  0  0
  -31.4370  -17.2830   22.7670 C   0  0  0  0  0  3  0  0  0  0  0  0
  -27.9620  -25.4000   20.0480 C   0  0  0  0  0  2  0  0  0  0  0  0
  -28.1980  -26.8400   20.1150 O   0  0  0  0  0  0  0  0  0  0  0  0
  -24.6380  -32.1510   23.3480 C   0  0  0  0  0  0  0  0  0  0  0  0
  -27.0660  -27.6500   20.1280 C   0  0  0  0  0  0  0  0  0  0  0  0
  -23.3460  -30.7810   21.7510 C   0  0  0  0  0  3  0  0  0  0  0  0
  -24.7130  -29.2420   20.2480 C   0  0  0  0  0  0  0  0  0  0  0  0
  -25.8730  -31.0960   21.4500 C   0  0  0  0  0  2  0  0  0  0  0  0
  -25.9090  -29.7270   20.7900 C   0  0  0  0  0  0  0  0  0  0  0  0
  -27.0900  -28.9410   20.7230 C   0  0  0  0  0  3  0  0  0  0  0  0
  -25.8430  -27.2030   19.5720 C   0  0  0  0  0  3  0  0  0  0  0  0
  -24.6760  -27.9820   19.6350 C   0  0  0  0  0  3  0  0  0  0  0  0
  -23.4900  -30.1240   20.3540 C   0  0  0  0  0  2  0  0  0  0  0  0
  -24.6410  -31.3570   22.2390 N   0  0  0  0  0  0  0  0  0  0  0  0
  -23.5830  -32.4310   23.9350 O   0  0  0  0  0  0  0  0  0  0  0  0
  -22.7230  -29.7540   22.7260 C   0  0  0  0  0  0  0  0  0  0  0  0
  -21.4040  -29.5250   22.6020 N   0  0  0  0  0  0  0  0  0  0  0  0
  -23.4230  -29.1690   23.5560 O   0  0  0  0  0  0  0  0  0  0  0  0
  -20.8980  -30.0530   21.9050 H   0  0  0  0  0  0  0  0  0  0  0  0
  -18.0770  -28.1920   23.0840 C   0  0  0  0  0  0  0  0  0  0  0  0
  -20.6150  -28.5780   23.3910 C   0  0  0  0  0  3  0  0  0  0  0  0
  -20.7940  -27.1340   22.8690 C   0  0  0  0  0  2  0  0  0  0  0  0
  -19.7270  -26.7240   21.8480 C   0  0  0  0  0  2  0  0  0  0  0  0
  -18.3280  -26.8300   22.4610 C   0  0  0  0  0  2  0  0  0  0  0  0
  -19.1510  -29.0200   23.5070 C   0  0  0  0  0  0  0  0  0  0  0  0
  -18.8630  -30.2910   24.0480 C   0  0  0  0  0  3  0  0  0  0  0  0
  -17.5350  -30.7380   24.1690 C   0  0  0  0  0  3  0  0  0  0  0  0
  -16.4750  -29.9100   23.7620 C   0  0  0  0  0  3  0  0  0  0  0  0
  -16.7470  -28.6380   23.2270 C   0  0  0  0  0  3  0  0  0  0  0  0
  -25.9550  -32.7630   23.9160 C   0  0  0  0  0  3  0  0  0  0  0  0
  -26.5000  -31.9970   25.1820 C   0  0  1  0  0  0  0  0  0  0  0  0
  -25.4340  -31.7690   26.2800 C   0  0  0  0  0  1  0  0  0  0  0  0
  -27.0670  -30.6160   24.7810 C   0  0  0  0  0  1  0  0  0  0  0  0
  -27.6740  -32.7880   25.8070 C   0  0  0  0  0  1  0  0  0  0  0  0
  -25.6840  -34.1700   24.2370 N   0  0  0  0  0  0  0  0  0  0  0  0
  -25.9680  -35.2020   23.4310 C   0  0  0  0  0  0  0  0  0  0  0  0
  -26.5580  -35.0680   22.3560 O   0  0  0  0  0  0  0  0  0  0  0  0
  -25.1490  -34.3490   25.0750 H   0  0  0  0  0  0  0  0  0  0  0  0
  -24.2260  -36.9970   23.1740 C   0  0  0  0  0  1  0  0  0  0  0  0
  -25.5280  -36.6040   23.8910 C   0  0  0  0  0  3  0  0  0  0  0  0
  -27.7260  -37.4960   24.5220 C   0  0  0  0  0  1  0  0  0  0  0  0
  -26.5520  -37.6470   23.6660 N   0  0  0  0  0  0  0  0  0  0  0  0
  -26.1640  -38.5730   23.8190 H   0  0  0  0  0  0  0  0  0  0  0  0
  1  2  2  0
  1  7  1  0
  2  8  1  0
  3  6  1  0
  4  3  1  0
  5  2  1  0
  7  4  2  0
  8  3  2  0
  9 12  1  0
 10  9  1  0
 10 13  1  0
 11  1  1  0
 11  9  2  0
 12 14  1  0
 13 24  1  0
 13 14  1  0
 14 56  1  0
 15 10  2  0
 16 24  1  0
 17 22  1  0
 18 19  1  0
 18 17  1  0
 20 19  1  0
 20 29  1  0
 20 21  1  0
 22 16  1  0
 22 21  1  0
 23 16  2  0
 24 25  1  0
 26 27  2  0
 27 46  1  0
 28 27  1  0
 28 31  1  0
 29 26  1  0
 29 30  1  0
 30 28  2  0
 31 32  1  0
 32 33  2  0
 34 37  1  0
 34 33  1  0
 35 34  2  0
 36 35  1  0
 36 31  2  0
 37 38  1  0
 38 43  2  0
 38 39  1  0
 39 40  2  0
 40 41  1  0
 41 45  1  0
 42 41  2  0
 43 42  1  0
 44 43  1  0
 46 47  1  0
 47 50  1  0
 47 49  1  0
 48 46  2  0
 51 52  1  0
 51 26  1  0
 53 51  1  0
 55 54  1  0
 56 55  1  0
 56 54  1  0
 57  4  1  0
 57 58  1  0
 58 60  1  0
 59 70  2  0
 60 65  1  0
 61 69  1  0
 61 71  1  0
 62 68  1  0
 62 64  1  0
 63 69  1  0
 64 63  1  0
 65 64  2  0
 66 67  1  0
 66 60  2  0
 67 62  2  0
 68 61  1  0
 69 59  1  0
 71 73  2  0
 72 71  1  0
 74 72  1  0
 75 84  2  0
 75 80  1  0
 76 72  1  0
 76 80  1  0
 77 76  1  0
 78 79  1  0
 78 77  1  0
 79 75  1  0
 80 81  2  0
 81 82  1  0
 83 82  2  0
 84 83  1  0
 85 59  1  0
 85 90  1  0
 85 86  1  0
 86 89  1  1
 86 87  1  0
 88 86  1  0
 90 93  1  0
 91 95  1  0
 91 90  1  0
 92 91  2  0
 95 94  1  0
 97 98  1  0
 97 95  1  0
 97 96  1  0
M  ISO  4  16 100  24 100  57 101  58 101
M  END
>  <TORSDO>  (53) 
F 19

>  <SCORE>  (53) 
-9.070

>  <name>  (53) 
52

>  <ligand_id>  (53) 
52

>  <original_smiles>  (53) 
[H]C(=C1C(=O)C([H])(N([H])C(=O)N2C([H])([H])C([H])([H])C([H])([H])C([H])(n3nc(-c4c([H])c([H])c(Oc5c([H])c([H])c(F)c([H])c5F)c([H])c4[H])c(C(=O)N([H])[H])c3N([H])[H])C2([H])[H])C([H])(C2([H])C([H])([H])C2([H])[H])C1([H])[H])c1nc(C([H])([H])Oc2c([H])c([H])c3c(c2[H])C([H])([H])N(C(=O)C([H])(N([H])C(=O)C([H])(N([H])C([H])([H])[H])C([H])([H])[H])C(C([H])([H])[H])(C([H])([H])[H])C([H])([H])[H])C([H])(C(=O)N([H])C2([H])c4c([H])c([H])c([H])c([H])c4C([H])([H])C([H])([H])C2([H])[H])C3([H])[H])c(C([H])([H])[H])nc1C([H])([H])[H]

>  <smiles>  (53) 
[H]C(=C1C(=O)C([H])(N([H])C(=O)N2C([H])([H])C([H])([H])C([H])([H])C([H])(n3nc(-c4c([H])c([H])c(Oc5c([H])c([H])c(F)c([H])c5F)c([H])c4[H])c(C(=O)N([H])[H])c3N([H])[H])C2([H])[H])C([H])(C2([H])C([H])([H])C2([H])[H])C1([H])[H])c1nc(C([H])([H])Oc2c([H])c([H])c3c(c2[H])C([H])([H])N(C(=O)C([H])(N([H])C(=O)C([H])(N([H])C([H])([H])[H])C([H])([H])[H])C(C([H])([H])[H])(C([H])([H])[H])C([H])([H])[H])C([H])(C(=O)N([H])C2([H])c4c([H])c([H])c([H])c([H])c4C([H])([H])C([H])([H])C2([H])[H])C3([H])[H])c(C([H])([H])[H])nc1C([H])([H])[H]

$$$$
53:0:0
     RDKit          3D

 95104  0  0  1  0  0  0  0  0999 V2000
  -29.2940  -20.6000   20.2960 C   0  0  0  0  0  0  0  0  0  0  0  0
  -29.5310  -21.5770   21.3380 C   0  0  0  0  0  0  0  0  0  0  0  0
  -29.2190  -22.9990   21.1880 C   0  0  0  0  0  0  0  0  0  0  0  0
  -28.7780  -21.2610   19.1200 C   0  0  0  0  0  0  0  0  0  0  0  0
  -28.7080  -23.5450   19.9640 C   0  0  0  0  0  0  0  0  0  0  0  0
  -30.0390  -21.0910   22.6950 C   0  0  0  0  0  1  0  0  0  0  0  0
  -29.3440  -23.9270   22.3920 C   0  0  0  0  0  1  0  0  0  0  0  0
  -28.2380  -20.5100   17.9180 C   0  0  0  0  0  1  0  0  0  0  0  0
  -28.5540  -22.6190   18.9740 N   0  0  0  0  0  0  0  0  0  0  0  0
  -29.2900  -19.0020   20.5800 C   0  0  0  0  0  0  0  0  0  0  0  0
  -28.2530  -18.5530   21.0740 O   0  0  0  0  0  0  0  0  0  0  0  0
  -30.8350  -15.2170   20.9350 C   0  0  0  0  0  0  0  0  0  0  0  0
  -30.8190  -12.8080   20.2160 C   0  0  0  0  0  2  0  0  0  0  0  0
  -30.0380  -12.5960   18.8980 C   0  0  0  0  0  2  0  0  0  0  0  0
  -28.5260  -12.4500   19.1630 C   0  0  0  0  0  2  0  0  0  0  0  0
  -27.9680  -13.4600   20.2030 C   0  0  0  0  0  3  0  0  0  0  0  0
  -28.8940  -13.6130   21.4280 C   0  0  0  0  0  2  0  0  0  0  0  0
  -30.2210  -13.9720   20.9120 N   0  0  0  0  0  0  0  0  0  0  0  0
  -32.0560  -15.2610   21.1000 O   0  0  0  0  0  0  0  0  0  0  0  0
  -31.2000  -18.1690   19.0310 C   0  0  0  0  0  2  0  0  0  0  0  0
  -30.2170  -16.0280   18.8380 C   0  0  0  0  0  2  0  0  0  0  0  0
  -30.5000  -17.8800   20.3550 C   0  0  0  0  0  3  0  0  0  0  0  0
  -30.3940  -17.3180   18.0630 C   0  0  0  0  0  3  0  0  0  0  0  0
  -30.2140  -16.3210   20.2990 N   0  0  0  0  0  0  0  0  0  0  0  0
  -29.1780  -17.7970   17.8120 F   0  0  0  0  0  0  0  0  0  0  0  0
  -25.5160  -14.0400   20.6600 C   0  0  0  0  0  0  0  0  0  0  0  0
  -24.4200  -13.2620   20.9100 C   0  0  0  0  0  0  0  0  0  0  0  0
  -24.8920  -11.9150   20.9620 C   0  0  0  0  0  0  0  0  0  0  0  0
  -26.5870  -13.1650   20.5650 N   0  0  0  0  0  0  0  0  0  0  0  0
  -26.2130  -11.8840   20.8170 N   0  0  0  0  0  0  0  0  0  0  0  0
  -24.1580  -10.6490   21.0830 C   0  0  0  0  0  0  0  0  0  0  0  0
  -24.4990   -9.6890   22.0600 C   0  0  0  0  0  3  0  0  0  0  0  0
  -23.7650   -8.4880   22.1700 C   0  0  0  0  0  3  0  0  0  0  0  0
  -22.6740   -8.2420   21.3030 C   0  0  0  0  0  0  0  0  0  0  0  0
  -22.3530   -9.1910   20.3170 C   0  0  0  0  0  3  0  0  0  0  0  0
  -23.0880  -10.3820   20.2050 C   0  0  0  0  0  3  0  0  0  0  0  0
  -21.9190   -7.0940   21.3210 O   0  0  0  0  0  0  0  0  0  0  0  0
  -21.7690   -6.3500   22.4650 C   0  0  0  0  0  0  0  0  0  0  0  0
  -21.2040   -6.8930   23.6390 C   0  0  0  0  0  3  0  0  0  0  0  0
  -21.0050   -6.0730   24.7680 C   0  0  0  0  0  3  0  0  0  0  0  0
  -21.3580   -4.7120   24.7220 C   0  0  0  0  0  0  0  0  0  0  0  0
  -21.9150   -4.1690   23.5510 C   0  0  0  0  0  3  0  0  0  0  0  0
  -22.1160   -4.9850   22.4250 C   0  0  0  0  0  0  0  0  0  0  0  0
  -22.6330   -4.4510   21.2910 F   0  0  0  0  0  0  0  0  0  0  0  0
  -21.1600   -3.9230   25.8030 F   0  0  0  0  0  0  0  0  0  0  0  0
  -22.9960  -13.7310   21.0000 C   0  0  0  0  0  0  0  0  0  0  0  0
  -22.1780  -13.0600   21.8010 N   0  0  0  0  0  0  0  0  0  0  0  0
  -22.6150  -14.7330   20.3930 O   0  0  0  0  0  0  0  0  0  0  0  0
  -22.4980  -12.2520   22.3140 H   0  0  0  0  0  0  0  0  0  0  0  0
  -21.2180  -13.3570   21.9020 H   0  0  0  0  0  0  0  0  0  0  0  0
  -25.6920  -15.4090   20.4800 N   0  0  0  0  0  0  0  0  0  0  0  0
  -24.9160  -16.0610   20.5050 H   0  0  0  0  0  0  0  0  0  0  0  0
  -26.5820  -15.8590   20.3040 H   0  0  0  0  0  0  0  0  0  0  0  0
  -27.8630  -24.9340   19.7640 C   0  0  0  0  0  2  0  0  0  0  0  0
  -28.2610  -26.4140   19.8930 O   0  0  0  0  0  0  0  0  0  0  0  0
  -24.5770  -31.8900   23.1230 C   0  0  0  0  0  0  0  0  0  0  0  0
  -27.1970  -27.3820   19.8650 C   0  0  0  0  0  0  0  0  0  0  0  0
  -23.3720  -30.5270   21.4610 C   0  0  0  0  0  3  0  0  0  0  0  0
  -24.8260  -29.0550   19.9480 C   0  0  0  0  0  0  0  0  0  0  0  0
  -25.9160  -30.8650   21.2550 C   0  0  0  0  0  2  0  0  0  0  0  0
  -26.0080  -29.5040   20.5510 C   0  0  0  0  0  0  0  0  0  0  0  0
  -27.1940  -28.6830   20.5000 C   0  0  0  0  0  3  0  0  0  0  0  0
  -25.9850  -27.0440   19.2120 C   0  0  0  0  0  3  0  0  0  0  0  0
  -24.8270  -27.8360   19.2620 C   0  0  0  0  0  3  0  0  0  0  0  0
  -23.5780  -29.9140   20.0530 C   0  0  0  0  0  2  0  0  0  0  0  0
  -24.6420  -31.1110   22.0020 N   0  0  0  0  0  0  0  0  0  0  0  0
  -23.4970  -32.1330   23.6810 O   0  0  0  0  0  0  0  0  0  0  0  0
  -22.7390  -29.4680   22.3950 C   0  0  0  0  0  0  0  0  0  0  0  0
  -21.4160  -29.2510   22.2700 N   0  0  0  0  0  0  0  0  0  0  0  0
  -23.4380  -28.8450   23.2000 O   0  0  0  0  0  0  0  0  0  0  0  0
  -20.9060  -29.8060   21.5970 H   0  0  0  0  0  0  0  0  0  0  0  0
  -18.0910  -27.8980   22.7330 C   0  0  0  0  0  0  0  0  0  0  0  0
  -20.6340  -28.2680   23.0230 C   0  0  0  0  0  3  0  0  0  0  0  0
  -20.8040  -26.8510   22.4310 C   0  0  0  0  0  2  0  0  0  0  0  0
  -19.7240  -26.4930   21.4040 C   0  0  0  0  0  2  0  0  0  0  0  0
  -18.3320  -26.5680   22.0400 C   0  0  0  0  0  2  0  0  0  0  0  0
  -19.1720  -28.7040   23.1810 C   0  0  0  0  0  0  0  0  0  0  0  0
  -18.8930  -29.9460   23.7910 C   0  0  0  0  0  3  0  0  0  0  0  0
  -17.5660  -30.3850   23.9560 C   0  0  0  0  0  3  0  0  0  0  0  0
  -16.5000  -29.5780   23.5240 C   0  0  0  0  0  3  0  0  0  0  0  0
  -16.7620  -28.3360   22.9190 C   0  0  0  0  0  3  0  0  0  0  0  0
  -25.8560  -32.5300   23.7430 C   0  0  0  0  0  3  0  0  0  0  0  0
  -25.5290  -33.9160   24.1130 N   0  0  0  0  0  0  0  0  0  0  0  0
  -25.8370  -34.9930   23.3790 C   0  0  0  0  0  0  0  0  0  0  0  0
  -26.4960  -34.9280   22.3380 O   0  0  0  0  0  0  0  0  0  0  0  0
  -24.9460  -34.0410   24.9270 H   0  0  0  0  0  0  0  0  0  0  0  0
  -24.0850  -36.7750   23.0880 C   0  0  0  0  0  1  0  0  0  0  0  0
  -25.3360  -36.3630   23.8800 C   0  0  0  0  0  3  0  0  0  0  0  0
  -27.4630  -37.2520   24.7260 C   0  0  0  0  0  1  0  0  0  0  0  0
  -26.3530  -37.4320   23.7930 N   0  0  0  0  0  0  0  0  0  0  0  0
  -25.9340  -38.3400   23.9740 H   0  0  0  0  0  0  0  0  0  0  0  0
  -26.4010  -31.7390   24.9950 C   0  0  1  0  0  0  0  0  0  0  0  0
  -25.3280  -31.4640   26.0730 C   0  0  0  0  0  1  0  0  0  0  0  0
  -26.9960  -30.3750   24.5710 C   0  0  0  0  0  1  0  0  0  0  0  0
  -27.5520  -32.5340   25.6570 C   0  0  0  0  0  1  0  0  0  0  0  0
  1 10  1  0
  1  2  1  0
  2  6  1  0
  3  2  2  0
  3  7  1  0
  4  1  2  0
  5  3  1  0
  8  4  1  0
  9  4  1  0
  9  5  2  0
 10 11  2  0
 12 19  2  0
 13 18  1  0
 14 15  1  0
 14 13  1  0
 16 15  1  0
 16 29  1  0
 16 17  1  0
 18 12  1  0
 18 17  1  0
 20 22  1  0
 21 24  1  0
 22 10  1  0
 23 25  1  0
 23 21  1  0
 23 20  1  0
 24 22  1  0
 24 12  1  0
 26 27  2  0
 27 28  1  0
 27 46  1  0
 28 31  1  0
 29 26  1  0
 29 30  1  0
 30 28  2  0
 31 32  1  0
 32 33  2  0
 34 37  1  0
 34 33  1  0
 35 34  2  0
 36 35  1  0
 36 31  2  0
 37 38  1  0
 38 39  1  0
 39 40  2  0
 41 40  1  0
 41 45  1  0
 42 41  2  0
 43 38  2  0
 43 42  1  0
 44 43  1  0
 46 47  1  0
 47 50  1  0
 47 49  1  0
 48 46  2  0
 51 52  1  0
 51 26  1  0
 53 51  1  0
 54 55  1  0
 54  5  1  0
 56 67  2  0
 57 55  1  0
 57 62  1  0
 58 66  1  0
 58 68  1  0
 59 65  1  0
 59 61  1  0
 60 66  1  0
 61 60  1  0
 62 61  2  0
 63 64  1  0
 63 57  2  0
 64 59  2  0
 65 58  1  0
 66 56  1  0
 68 70  2  0
 69 68  1  0
 71 69  1  0
 72 81  2  0
 72 77  1  0
 73 69  1  0
 73 77  1  0
 74 73  1  0
 75 76  1  0
 75 74  1  0
 76 72  1  0
 77 78  2  0
 78 79  1  0
 80 79  2  0
 81 80  1  0
 82 56  1  0
 82 83  1  0
 82 92  1  0
 83 86  1  0
 84 88  1  0
 84 83  1  0
 85 84  2  0
 88 87  1  0
 90 88  1  0
 90 91  1  0
 90 89  1  0
 92 95  1  1
 92 93  1  0
 94 92  1  0
M  ISO  4  12 100  24 100  54 101  55 101
M  END
>  <TORSDO>  (54) 
F 18

>  <SCORE>  (54) 
-14.019

>  <name>  (54) 
53

>  <ligand_id>  (54) 
53

>  <original_smiles>  (54) 
[H]c1c([H])c([H])c2c(c1[H])C([H])([H])C([H])([H])C([H])([H])C2([H])N([H])C(=O)C1([H])N(C(=O)C([H])(N([H])C(=O)C([H])(N([H])C([H])([H])[H])C([H])([H])[H])C(C([H])([H])[H])(C([H])([H])[H])C([H])([H])[H])C([H])([H])c2c([H])c(OC([H])([H])c3nc(C([H])([H])[H])c(C(=O)C4([H])N(C(=O)N5C([H])([H])C([H])([H])C([H])([H])C([H])(n6nc(-c7c([H])c([H])c(Oc8c([H])c([H])c(F)c([H])c8F)c([H])c7[H])c(C(=O)N([H])[H])c6N([H])[H])C5([H])[H])C([H])([H])C([H])(F)C4([H])[H])c(C([H])([H])[H])c3C([H])([H])[H])c([H])c([H])c2C1([H])[H]

>  <smiles>  (54) 
[H]c1c([H])c([H])c2c(c1[H])C([H])([H])C([H])([H])C([H])([H])C2([H])N([H])C(=O)C1([H])N(C(=O)C([H])(N([H])C(=O)C([H])(N([H])C([H])([H])[H])C([H])([H])[H])C(C([H])([H])[H])(C([H])([H])[H])C([H])([H])[H])C([H])([H])c2c([H])c(OC([H])([H])c3nc(C([H])([H])[H])c(C(=O)C4([H])N(C(=O)N5C([H])([H])C([H])([H])C([H])([H])C([H])(n6nc(-c7c([H])c([H])c(Oc8c([H])c([H])c(F)c([H])c8F)c([H])c7[H])c(C(=O)N([H])[H])c6N([H])[H])C5([H])[H])C([H])([H])C([H])(F)C4([H])[H])c(C([H])([H])[H])c3C([H])([H])[H])c([H])c([H])c2C1([H])[H]

$$$$
54:0:0
     RDKit          3D

 89 98  0  0  1  0  0  0  0  0999 V2000
  -29.3820  -22.8310   22.0890 C   0  0  0  0  0  2  0  0  0  0  0  0
  -27.9640  -22.3670   22.1320 C   0  0  0  0  0  2  0  0  0  0  0  0
  -28.6400  -22.5950   20.7790 C   0  0  2  0  0  0  0  0  0  0  0  0
  -30.3950  -15.4120   20.1850 C   0  0  0  0  0  0  0  0  0  0  0  0
  -30.3960  -12.9420   19.3420 C   0  0  0  0  0  2  0  0  0  0  0  0
  -29.4780  -12.7000   18.1150 C   0  0  0  0  0  2  0  0  0  0  0  0
  -28.0320  -12.4210   18.5550 C   0  0  0  0  0  2  0  0  0  0  0  0
  -27.5720  -13.3870   19.6730 C   0  0  0  0  0  3  0  0  0  0  0  0
  -28.6210  -13.5630   20.7940 C   0  0  0  0  0  2  0  0  0  0  0  0
  -29.8430  -14.0900   20.1610 N   0  0  0  0  0  0  0  0  0  0  0  0
  -31.6120  -15.3860   19.9270 O   0  0  0  0  0  0  0  0  0  0  0  0
  -28.9520  -19.5350   20.5060 C   0  0  0  0  0  3  0  0  0  0  0  0
  -30.9800  -20.0270   19.0000 C   0  0  0  0  0  3  0  0  0  0  0  0
  -29.1800  -21.0220   20.1340 C   0  0  0  0  0  0  0  0  0  0  0  0
  -29.7770  -18.2990   20.0830 C   0  0  0  0  0  0  0  0  0  0  0  0
  -30.2840  -21.1200   19.3660 N   0  0  0  0  0  0  0  0  0  0  0  0
  -30.7960  -18.7270   19.3020 N   0  0  0  0  0  0  0  0  0  0  0  0
  -29.6310  -16.6930   20.3600 N   0  0  0  0  0  0  0  0  0  0  0  0
  -28.7090  -16.4760   20.7020 H   0  0  0  0  0  0  0  0  0  0  0  0
  -25.1940  -13.9240   20.4190 C   0  0  0  0  0  0  0  0  0  0  0  0
  -24.1410  -13.1410   20.7950 C   0  0  0  0  0  0  0  0  0  0  0  0
  -24.6210  -11.7930   20.7780 C   0  0  0  0  0  0  0  0  0  0  0  0
  -26.2470  -13.0590   20.1840 N   0  0  0  0  0  0  0  0  0  0  0  0
  -25.9140  -11.7710   20.4690 N   0  0  0  0  0  0  0  0  0  0  0  0
  -23.9040  -10.5270   20.9780 C   0  0  0  0  0  0  0  0  0  0  0  0
  -24.3410   -9.5680   21.9180 C   0  0  0  0  0  3  0  0  0  0  0  0
  -23.6200   -8.3690   22.1070 C   0  0  0  0  0  3  0  0  0  0  0  0
  -22.4480   -8.1190   21.3540 C   0  0  0  0  0  0  0  0  0  0  0  0
  -22.0310   -9.0650   20.4030 C   0  0  0  0  0  3  0  0  0  0  0  0
  -22.7530  -10.2560   20.2120 C   0  0  0  0  0  3  0  0  0  0  0  0
  -21.7000   -6.9700   21.4520 O   0  0  0  0  0  0  0  0  0  0  0  0
  -21.6570   -6.2350   22.6090 C   0  0  0  0  0  0  0  0  0  0  0  0
  -21.2310   -6.7940   23.8330 C   0  0  0  0  0  3  0  0  0  0  0  0
  -21.1380   -5.9850   24.9840 C   0  0  0  0  0  3  0  0  0  0  0  0
  -21.4600   -4.6160   24.9110 C   0  0  0  0  0  0  0  0  0  0  0  0
  -21.8810   -4.0570   23.6910 C   0  0  0  0  0  3  0  0  0  0  0  0
  -21.9760   -4.8630   22.5430 C   0  0  0  0  0  0  0  0  0  0  0  0
  -22.3600   -4.3130   21.3670 F   0  0  0  0  0  0  0  0  0  0  0  0
  -21.3640   -3.8370   26.0130 F   0  0  0  0  0  0  0  0  0  0  0  0
  -22.7370  -13.6070   21.0500 C   0  0  0  0  0  0  0  0  0  0  0  0
  -22.0090  -12.9210   21.9230 N   0  0  0  0  0  0  0  0  0  0  0  0
  -22.2940  -14.6190   20.5080 O   0  0  0  0  0  0  0  0  0  0  0  0
  -22.3760  -12.1020   22.3840 H   0  0  0  0  0  0  0  0  0  0  0  0
  -21.0670  -13.2210   22.1340 H   0  0  0  0  0  0  0  0  0  0  0  0
  -25.3370  -15.2940   20.2210 N   0  0  0  0  0  0  0  0  0  0  0  0
  -24.5500  -15.9280   20.3180 H   0  0  0  0  0  0  0  0  0  0  0  0
  -26.1490  -15.7360   19.8120 H   0  0  0  0  0  0  0  0  0  0  0  0
  -28.2450  -24.2190   20.0450 C   0  0  0  0  0  2  0  0  0  0  0  0
  -28.2620  -25.8840   20.3010 O   0  0  0  0  0  0  0  0  0  0  0  0
  -24.6620  -31.8890   23.2060 C   0  0  0  0  0  0  0  0  0  0  0  0
  -27.2280  -26.9720   20.2140 C   0  0  0  0  0  0  0  0  0  0  0  0
  -23.4720  -30.4880   21.5680 C   0  0  0  0  0  3  0  0  0  0  0  0
  -24.9240  -28.8680   20.1550 C   0  0  0  0  0  0  0  0  0  0  0  0
  -26.0390  -30.6900   21.4280 C   0  0  0  0  0  2  0  0  0  0  0  0
  -26.1100  -29.2730   20.7780 C   0  0  0  0  0  0  0  0  0  0  0  0
  -27.2520  -28.3470   20.7810 C   0  0  0  0  0  3  0  0  0  0  0  0
  -26.0090  -26.7230   19.5420 C   0  0  0  0  0  3  0  0  0  0  0  0
  -24.9020  -27.6170   19.5140 C   0  0  0  0  0  3  0  0  0  0  0  0
  -23.7060  -29.7950   20.1960 C   0  0  0  0  0  2  0  0  0  0  0  0
  -24.7470  -31.0520   22.1200 N   0  0  0  0  0  0  0  0  0  0  0  0
  -23.5710  -32.1810   23.7230 O   0  0  0  0  0  0  0  0  0  0  0  0
  -22.7750  -29.4980   22.5380 C   0  0  0  0  0  0  0  0  0  0  0  0
  -21.4440  -29.3400   22.4170 N   0  0  0  0  0  0  0  0  0  0  0  0
  -23.4380  -28.8720   23.3670 O   0  0  0  0  0  0  0  0  0  0  0  0
  -20.9590  -29.8940   21.7250 H   0  0  0  0  0  0  0  0  0  0  0  0
  -18.0580  -28.1410   22.9360 C   0  0  0  0  0  0  0  0  0  0  0  0
  -20.6190  -28.4050   23.1910 C   0  0  0  0  0  3  0  0  0  0  0  0
  -20.7160  -26.9720   22.6160 C   0  0  0  0  0  2  0  0  0  0  0  0
  -19.6100  -26.6510   21.6050 C   0  0  0  0  0  2  0  0  0  0  0  0
  -18.2310  -26.7950   22.2530 C   0  0  0  0  0  2  0  0  0  0  0  0
  -19.1780  -28.9040   23.3610 C   0  0  0  0  0  0  0  0  0  0  0  0
  -18.9590  -30.1630   23.9620 C   0  0  0  0  0  3  0  0  0  0  0  0
  -17.6540  -30.6590   24.1400 C   0  0  0  0  0  3  0  0  0  0  0  0
  -16.5490  -29.8950   23.7280 C   0  0  0  0  0  3  0  0  0  0  0  0
  -16.7510  -28.6370   23.1320 C   0  0  0  0  0  3  0  0  0  0  0  0
  -25.9300  -32.5360   23.8410 C   0  0  0  0  0  3  0  0  0  0  0  0
  -25.6100  -33.9370   24.1720 N   0  0  0  0  0  0  0  0  0  0  0  0
  -25.9360  -34.9990   23.4220 C   0  0  0  0  0  0  0  0  0  0  0  0
  -26.6010  -34.9020   22.3870 O   0  0  0  0  0  0  0  0  0  0  0  0
  -25.0170  -34.0850   24.9760 H   0  0  0  0  0  0  0  0  0  0  0  0
  -24.1980  -36.7960   23.1050 C   0  0  0  0  0  1  0  0  0  0  0  0
  -25.4530  -36.3870   23.8930 C   0  0  0  0  0  3  0  0  0  0  0  0
  -27.5970  -37.2820   24.6910 C   0  0  0  0  0  1  0  0  0  0  0  0
  -26.4810  -37.4450   23.7650 N   0  0  0  0  0  0  0  0  0  0  0  0
  -26.0730  -38.3630   23.9180 H   0  0  0  0  0  0  0  0  0  0  0  0
  -26.4310  -31.7770   25.1330 C   0  0  1  0  0  0  0  0  0  0  0  0
  -25.3270  -31.5550   26.1940 C   0  0  0  0  0  1  0  0  0  0  0  0
  -27.0130  -30.3930   24.7690 C   0  0  0  0  0  1  0  0  0  0  0  0
  -27.5770  -32.5740   25.8000 C   0  0  0  0  0  1  0  0  0  0  0  0
  1  2  1  0
  3  1  1  0
  3  2  1  0
  4 18  1  0
  5 10  1  0
  6  7  1  0
  6  5  1  0
  8  7  1  0
  8 23  1  0
  8  9  1  0
 10  4  1  0
 10  9  1  0
 11  4  2  0
 13 17  2  0
 13 16  1  0
 14 12  1  0
 14  3  1  0
 15 18  1  0
 15 12  2  0
 16 14  2  0
 17 15  1  0
 18 19  1  0
 20 21  2  0
 21 40  1  0
 22 21  1  0
 22 25  1  0
 23 20  1  0
 23 24  1  0
 24 22  2  0
 25 26  1  0
 26 27  2  0
 28 31  1  0
 28 27  1  0
 29 28  2  0
 30 29  1  0
 30 25  2  0
 31 32  1  0
 32 33  1  0
 33 34  2  0
 35 34  1  0
 35 39  1  0
 36 35  2  0
 37 32  2  0
 37 36  1  0
 38 37  1  0
 40 41  1  0
 41 44  1  0
 41 43  1  0
 42 40  2  0
 45 46  1  0
 45 20  1  0
 47 45  1  0
 48 49  1  0
  3 48  1  6
 50 61  2  0
 51 49  1  0
 51 56  1  0
 52 60  1  0
 52 62  1  0
 53 59  1  0
 53 55  1  0
 54 60  1  0
 55 56  2  0
 55 54  1  0
 57 51  2  0
 58 57  1  0
 58 53  2  0
 59 52  1  0
 60 50  1  0
 62 64  2  0
 63 62  1  0
 65 63  1  0
 66 75  2  0
 66 71  1  0
 67 63  1  0
 67 71  1  0
 68 67  1  0
 69 70  1  0
 69 68  1  0
 70 66  1  0
 71 72  2  0
 72 73  1  0
 74 73  2  0
 75 74  1  0
 76 50  1  0
 76 77  1  0
 76 86  1  0
 77 80  1  0
 78 82  1  0
 78 77  1  0
 79 78  2  0
 82 81  1  0
 84 82  1  0
 84 85  1  0
 84 83  1  0
 86 89  1  1
 86 87  1  0
 88 86  1  0
M  ISO  4   4 100  18 100  48 101  49 101
M  END
>  <TORSDO>  (55) 
F 17

>  <SCORE>  (55) 
-16.589

>  <name>  (55) 
54

>  <ligand_id>  (55) 
54

>  <original_smiles>  (55) 
[H]c1nc(N([H])C(=O)N2C([H])([H])C([H])([H])C([H])([H])C([H])(n3nc(-c4c([H])c([H])c(Oc5c([H])c([H])c(F)c([H])c5F)c([H])c4[H])c(C(=O)N([H])[H])c3N([H])[H])C2([H])[H])c([H])c(C2(C([H])([H])Oc3c([H])c([H])c4c(c3[H])C([H])([H])N(C(=O)C([H])(N([H])C(=O)C([H])(N([H])C([H])([H])[H])C([H])([H])[H])C(C([H])([H])[H])(C([H])([H])[H])C([H])([H])[H])C([H])(C(=O)N([H])C3([H])c5c([H])c([H])c([H])c([H])c5C([H])([H])C([H])([H])C3([H])[H])C4([H])[H])C([H])([H])C2([H])[H])n1

>  <smiles>  (55) 
[H]c1nc(N([H])C(=O)N2C([H])([H])C([H])([H])C([H])([H])C([H])(n3nc(-c4c([H])c([H])c(Oc5c([H])c([H])c(F)c([H])c5F)c([H])c4[H])c(C(=O)N([H])[H])c3N([H])[H])C2([H])[H])c([H])c(C2(C([H])([H])Oc3c([H])c([H])c4c(c3[H])C([H])([H])N(C(=O)C([H])(N([H])C(=O)C([H])(N([H])C([H])([H])[H])C([H])([H])[H])C(C([H])([H])[H])(C([H])([H])[H])C([H])([H])[H])C([H])(C(=O)N([H])C3([H])c5c([H])c([H])c([H])c([H])c5C([H])([H])C([H])([H])C3([H])[H])C4([H])[H])C([H])([H])C2([H])[H])n1

$$$$
55:0:0
     RDKit          3D

 95106  0  0  1  0  0  0  0  0999 V2000
  -29.9910  -23.4620   20.1320 C   0  0  0  0  0  0  0  0  0  0  0  0
  -28.6350  -23.4970   19.8900 C   0  0  0  0  0  0  0  0  0  0  0  0
  -29.3810  -21.2610   19.9840 C   0  0  0  0  0  0  0  0  0  0  0  0
  -28.2780  -22.0780   19.8190 N   0  0  0  0  0  0  0  0  0  0  0  0
  -30.4460  -22.1130   20.0940 N   0  0  0  0  0  0  0  0  0  0  0  0
  -30.5190  -15.0520   19.8900 C   0  0  0  0  0  0  0  0  0  0  0  0
  -30.2850  -12.7130   18.9660 C   0  0  0  0  0  2  0  0  0  0  0  0
  -29.2800  -12.6670   17.7960 C   0  0  0  0  0  2  0  0  0  0  0  0
  -27.8520  -12.4490   18.3270 C   0  0  0  0  0  2  0  0  0  0  0  0
  -27.5160  -13.3770   19.5250 C   0  0  0  0  0  3  0  0  0  0  0  0
  -28.6450  -13.4270   20.5760 C   0  0  0  0  0  2  0  0  0  0  0  0
  -29.8650  -13.8250   19.8680 N   0  0  0  0  0  0  0  0  0  0  0  0
  -31.7070  -15.0440   19.5450 O   0  0  0  0  0  0  0  0  0  0  0  0
  -28.9690  -18.6350   21.0530 C   0  0  0  0  0  3  0  0  0  0  0  0
  -29.4850  -18.7480   18.7230 C   0  0  0  0  0  3  0  0  0  0  0  0
  -29.5720  -17.1240   21.1300 C   0  0  0  0  0  2  0  0  0  0  0  0
  -30.1650  -17.2930   18.7910 C   0  0  0  0  0  3  0  0  0  0  0  0
  -29.6110  -19.6220   20.0100 C   0  0  0  0  0  0  0  0  0  0  0  0
  -29.8220  -16.3020   19.8830 N   0  0  0  0  0  0  0  0  0  0  0  0
  -25.2130  -13.9220   20.4920 C   0  0  0  0  0  0  0  0  0  0  0  0
  -24.1740  -13.1320   20.9000 C   0  0  0  0  0  0  0  0  0  0  0  0
  -24.6200  -11.7830   20.7550 C   0  0  0  0  0  0  0  0  0  0  0  0
  -26.2240  -13.0540   20.1180 N   0  0  0  0  0  0  0  0  0  0  0  0
  -25.8830  -11.7580   20.3420 N   0  0  0  0  0  0  0  0  0  0  0  0
  -23.8980  -10.5150   20.9300 C   0  0  0  0  0  0  0  0  0  0  0  0
  -24.3330   -9.5360   21.8510 C   0  0  0  0  0  3  0  0  0  0  0  0
  -23.6080   -8.3360   22.0150 C   0  0  0  0  0  3  0  0  0  0  0  0
  -22.4350   -8.1050   21.2580 C   0  0  0  0  0  0  0  0  0  0  0  0
  -22.0200   -9.0740   20.3260 C   0  0  0  0  0  3  0  0  0  0  0  0
  -22.7440  -10.2650   20.1600 C   0  0  0  0  0  3  0  0  0  0  0  0
  -21.6810   -6.9590   21.3330 O   0  0  0  0  0  0  0  0  0  0  0  0
  -21.5450   -6.2630   22.5070 C   0  0  0  0  0  0  0  0  0  0  0  0
  -20.9730   -6.8470   23.6580 C   0  0  0  0  0  3  0  0  0  0  0  0
  -20.7880   -6.0740   24.8220 C   0  0  0  0  0  3  0  0  0  0  0  0
  -21.1640   -4.7190   24.8360 C   0  0  0  0  0  0  0  0  0  0  0  0
  -21.7280   -4.1330   23.6890 C   0  0  0  0  0  3  0  0  0  0  0  0
  -21.9140   -4.9030   22.5260 C   0  0  0  0  0  0  0  0  0  0  0  0
  -22.4380   -4.3280   21.4170 F   0  0  0  0  0  0  0  0  0  0  0  0
  -20.9790   -3.9740   25.9500 F   0  0  0  0  0  0  0  0  0  0  0  0
  -22.8070  -13.6010   21.3070 C   0  0  0  0  0  0  0  0  0  0  0  0
  -22.1490  -12.8690   22.1990 N   0  0  0  0  0  0  0  0  0  0  0  0
  -22.3360  -14.6510   20.8700 O   0  0  0  0  0  0  0  0  0  0  0  0
  -22.5460  -12.0200   22.5740 H   0  0  0  0  0  0  0  0  0  0  0  0
  -21.2350  -13.1640   22.5130 H   0  0  0  0  0  0  0  0  0  0  0  0
  -25.3780  -15.2990   20.3820 N   0  0  0  0  0  0  0  0  0  0  0  0
  -24.6360  -15.9550   20.6020 H   0  0  0  0  0  0  0  0  0  0  0  0
  -26.2160  -15.7500   20.0380 H   0  0  0  0  0  0  0  0  0  0  0  0
  -31.5740  -24.8710   21.6860 C   0  0  0  0  0  2  0  0  0  0  0  0
  -30.4810  -25.7980   21.2140 C   0  0  0  0  0  2  0  0  0  0  0  0
  -30.9040  -24.6300   20.3530 C   0  0  0  0  0  3  0  0  0  0  0  0
  -32.8240  -22.3270   19.2610 C   0  0  0  0  0  2  0  0  0  0  0  0
  -32.4120  -20.8860   19.1170 C   0  0  0  0  0  2  0  0  0  0  0  0
  -31.8470  -21.7190   20.2520 C   0  0  0  0  0  3  0  0  0  0  0  0
  -27.6480  -24.7830   19.6860 C   0  0  0  0  0  2  0  0  0  0  0  0
  -27.9990  -26.2850   19.8580 O   0  0  0  0  0  0  0  0  0  0  0  0
  -24.4870  -31.8600   23.1420 C   0  0  0  0  0  0  0  0  0  0  0  0
  -26.9420  -27.2630   19.8610 C   0  0  0  0  0  0  0  0  0  0  0  0
  -23.2150  -30.4900   21.5370 C   0  0  0  0  0  3  0  0  0  0  0  0
  -24.6000  -28.9760   19.9980 C   0  0  0  0  0  0  0  0  0  0  0  0
  -25.7540  -30.7930   21.2420 C   0  0  0  0  0  2  0  0  0  0  0  0
  -25.8070  -29.4210   20.5530 C   0  0  0  0  0  0  0  0  0  0  0  0
  -26.9790  -28.5810   20.4690 C   0  0  0  0  0  3  0  0  0  0  0  0
  -25.7040  -26.9240   19.2670 C   0  0  0  0  0  3  0  0  0  0  0  0
  -24.5600  -27.7410   19.3400 C   0  0  0  0  0  3  0  0  0  0  0  0
  -23.3680  -29.8540   20.1320 C   0  0  0  0  0  2  0  0  0  0  0  0
  -24.5080  -31.0670   22.0280 N   0  0  0  0  0  0  0  0  0  0  0  0
  -23.4270  -32.1190   23.7330 O   0  0  0  0  0  0  0  0  0  0  0  0
  -22.6010  -29.4500   22.5070 C   0  0  0  0  0  0  0  0  0  0  0  0
  -21.2790  -29.2260   22.4090 N   0  0  0  0  0  0  0  0  0  0  0  0
  -23.3170  -28.8460   23.3100 O   0  0  0  0  0  0  0  0  0  0  0  0
  -20.7560  -29.7680   21.7350 H   0  0  0  0  0  0  0  0  0  0  0  0
  -17.9650  -27.8670   22.9550 C   0  0  0  0  0  0  0  0  0  0  0  0
  -20.5120  -28.2560   23.1950 C   0  0  0  0  0  3  0  0  0  0  0  0
  -20.6780  -26.8270   22.6310 C   0  0  0  0  0  2  0  0  0  0  0  0
  -19.5840  -26.4410   21.6300 C   0  0  0  0  0  2  0  0  0  0  0  0
  -18.2030  -26.5220   22.2860 C   0  0  0  0  0  2  0  0  0  0  0  0
  -19.0490  -28.6870   23.3670 C   0  0  0  0  0  0  0  0  0  0  0  0
  -18.7730  -29.9400   23.9540 C   0  0  0  0  0  3  0  0  0  0  0  0
  -17.4460  -30.3760   24.1320 C   0  0  0  0  0  3  0  0  0  0  0  0
  -16.3780  -29.5530   23.7340 C   0  0  0  0  0  3  0  0  0  0  0  0
  -16.6380  -28.3000   23.1500 C   0  0  0  0  0  3  0  0  0  0  0  0
  -25.7900  -32.4960   23.7140 C   0  0  0  0  0  3  0  0  0  0  0  0
  -26.3660  -31.7130   24.9570 C   0  0  1  0  0  0  0  0  0  0  0  0
  -25.3220  -31.4500   26.0670 C   0  0  0  0  0  1  0  0  0  0  0  0
  -26.9450  -30.3450   24.5270 C   0  0  0  0  0  1  0  0  0  0  0  0
  -27.5370  -32.5090   25.5810 C   0  0  0  0  0  1  0  0  0  0  0  0
  -25.4830  -33.8870   24.0810 N   0  0  0  0  0  0  0  0  0  0  0  0
  -25.7680  -34.9570   23.3270 C   0  0  0  0  0  0  0  0  0  0  0  0
  -26.3850  -34.8770   22.2610 O   0  0  0  0  0  0  0  0  0  0  0  0
  -24.9290  -34.0230   24.9150 H   0  0  0  0  0  0  0  0  0  0  0  0
  -24.0210  -36.7520   23.0880 C   0  0  0  0  0  1  0  0  0  0  0  0
  -25.2970  -36.3350   23.8350 C   0  0  0  0  0  3  0  0  0  0  0  0
  -27.4560  -37.2220   24.6000 C   0  0  0  0  0  1  0  0  0  0  0  0
  -26.3210  -37.3940   23.6990 N   0  0  0  0  0  0  0  0  0  0  0  0
  -25.9160  -38.3110   23.8700 H   0  0  0  0  0  0  0  0  0  0  0  0
  1 50  1  0
  2  1  2  0
  3 18  1  0
  3  5  1  0
  4  2  1  0
  4  3  2  0
  5  1  1  0
  5 53  1  0
  7 12  1  0
  8  9  1  0
  8  7  1  0
 10  9  1  0
 10 23  1  0
 10 11  1  0
 12  6  1  0
 12 11  1  0
 13  6  2  0
 14 16  1  0
 15 17  2  0
 15 18  1  0
 17 19  1  0
 18 14  2  0
 19  6  1  0
 19 16  1  0
 20 21  2  0
 21 40  1  0
 22 21  1  0
 22 25  1  0
 23 24  1  0
 23 20  1  0
 24 22  2  0
 25 26  1  0
 26 27  2  0
 28 31  1  0
 28 27  1  0
 29 28  2  0
 30 29  1  0
 30 25  2  0
 31 32  1  0
 32 37  2  0
 32 33  1  0
 33 34  2  0
 34 35  1  0
 35 39  1  0
 36 35  2  0
 37 36  1  0
 38 37  1  0
 40 41  1  0
 41 44  1  0
 41 43  1  0
 42 40  2  0
 45 20  1  0
 45 46  1  0
 47 45  1  0
 49 48  1  0
 50 49  1  0
 50 48  1  0
 51 53  1  0
 52 51  1  0
 52 53  1  0
 54 55  1  0
 54  2  1  0
 55 57  1  0
 56 67  2  0
 57 62  1  0
 58 66  1  0
 58 68  1  0
 59 65  1  0
 59 61  1  0
 60 66  1  0
 61 60  1  0
 62 61  2  0
 63 64  1  0
 63 57  2  0
 64 59  2  0
 65 58  1  0
 66 56  1  0
 68 70  2  0
 69 68  1  0
 71 69  1  0
 72 81  2  0
 72 77  1  0
 73 69  1  0
 73 77  1  0
 74 73  1  0
 75 76  1  0
 75 74  1  0
 76 72  1  0
 77 78  2  0
 78 79  1  0
 80 79  2  0
 81 80  1  0
 82 56  1  0
 82 87  1  0
 82 83  1  0
 83 86  1  1
 83 84  1  0
 85 83  1  0
 87 90  1  0
 88 92  1  0
 88 87  1  0
 89 88  2  0
 92 91  1  0
 94 92  1  0
 94 95  1  0
 94 93  1  0
M  ISO  4   6 100  19 100  54 101  55 101
M  END
>  <TORSDO>  (56) 
F 19

>  <SCORE>  (56) 
-12.955

>  <name>  (56) 
55

>  <ligand_id>  (56) 
55

>  <original_smiles>  (56) 
[H]c1c([H])c([H])c2c(c1[H])C([H])([H])C([H])([H])C([H])([H])C2([H])N([H])C(=O)C1([H])N(C(=O)C([H])(N([H])C(=O)C([H])(N([H])C([H])([H])[H])C([H])([H])[H])C(C([H])([H])[H])(C([H])([H])[H])C([H])([H])[H])C([H])([H])c2c([H])c(OC([H])([H])c3nc(C4([H])C([H])([H])C([H])([H])N(C(=O)N5C([H])([H])C([H])([H])C([H])([H])C([H])(n6nc(-c7c([H])c([H])c(Oc8c([H])c([H])c(F)c([H])c8F)c([H])c7[H])c(C(=O)N([H])[H])c6N([H])[H])C5([H])[H])C([H])([H])C4([H])[H])n(C4([H])C([H])([H])C4([H])[H])c3C3([H])C([H])([H])C3([H])[H])c([H])c([H])c2C1([H])[H]

>  <smiles>  (56) 
[H]c1c([H])c([H])c2c(c1[H])C([H])([H])C([H])([H])C([H])([H])C2([H])N([H])C(=O)C1([H])N(C(=O)C([H])(N([H])C(=O)C([H])(N([H])C([H])([H])[H])C([H])([H])[H])C(C([H])([H])[H])(C([H])([H])[H])C([H])([H])[H])C([H])([H])c2c([H])c(OC([H])([H])c3nc(C4([H])C([H])([H])C([H])([H])N(C(=O)N5C([H])([H])C([H])([H])C([H])([H])C([H])(n6nc(-c7c([H])c([H])c(Oc8c([H])c([H])c(F)c([H])c8F)c([H])c7[H])c(C(=O)N([H])[H])c6N([H])[H])C5([H])[H])C([H])([H])C4([H])[H])n(C4([H])C([H])([H])C4([H])[H])c3C3([H])C([H])([H])C3([H])[H])c([H])c([H])c2C1([H])[H]

$$$$
56:0:0
     RDKit          3D

 94104  0  0  1  0  0  0  0  0999 V2000
  -28.1010  -21.6940   19.4160 C   0  0  0  0  0  2  0  0  0  0  0  0
  -28.9060  -20.8330   20.3100 C   0  0  0  0  0  0  0  0  0  0  0  0
  -29.3610  -21.8750   21.2490 C   0  0  0  0  0  0  0  0  0  0  0  0
  -28.2770  -24.0070   20.3960 C   0  0  0  0  0  0  0  0  0  0  0  0
  -27.8390  -23.1190   19.4340 N   0  0  0  0  0  0  0  0  0  0  0  0
  -29.0950  -23.2950   21.2470 N   0  0  0  0  0  0  0  0  0  0  0  0
  -30.3580  -15.2600   20.0230 C   0  0  0  0  0  0  0  0  0  0  0  0
  -30.3250  -12.7900   19.1210 C   0  0  0  0  0  2  0  0  0  0  0  0
  -29.3560  -12.4960   17.9440 C   0  0  0  0  0  2  0  0  0  0  0  0
  -27.9440  -12.1810   18.4610 C   0  0  0  0  0  2  0  0  0  0  0  0
  -27.5210  -13.1440   19.5970 C   0  0  0  0  0  3  0  0  0  0  0  0
  -28.6190  -13.3650   20.6600 C   0  0  0  0  0  2  0  0  0  0  0  0
  -29.7850  -13.9380   19.9610 N   0  0  0  0  0  0  0  0  0  0  0  0
  -31.5700  -15.2070   19.7520 O   0  0  0  0  0  0  0  0  0  0  0  0
  -29.2290  -17.7600   19.2600 C   0  0  0  0  0  3  0  0  0  0  0  0
  -30.1570  -17.9030   20.9890 C   0  0  0  0  0  3  0  0  0  0  0  0
  -29.1170  -19.0190   20.3370 C   0  0  0  0  0  3  0  0  0  0  0  0
  -29.6660  -16.6040   20.2410 N   0  0  0  0  0  0  0  0  0  0  0  0
  -25.2130  -13.6630   20.5350 C   0  0  0  0  0  0  0  0  0  0  0  0
  -24.1730  -12.8730   20.9330 C   0  0  0  0  0  0  0  0  0  0  0  0
  -24.6330  -11.5240   20.8190 C   0  0  0  0  0  0  0  0  0  0  0  0
  -26.2330  -12.7970   20.1860 N   0  0  0  0  0  0  0  0  0  0  0  0
  -25.9040  -11.5010   20.4260 N   0  0  0  0  0  0  0  0  0  0  0  0
  -23.9130  -10.2560   21.0040 C   0  0  0  0  0  0  0  0  0  0  0  0
  -24.3510   -9.2850   21.9310 C   0  0  0  0  0  3  0  0  0  0  0  0
  -23.6280   -8.0850   22.1080 C   0  0  0  0  0  3  0  0  0  0  0  0
  -22.4520   -7.8470   21.3570 C   0  0  0  0  0  0  0  0  0  0  0  0
  -22.0350   -8.8060   20.4180 C   0  0  0  0  0  3  0  0  0  0  0  0
  -22.7580   -9.9970   20.2400 C   0  0  0  0  0  3  0  0  0  0  0  0
  -21.7010   -6.6990   21.4420 O   0  0  0  0  0  0  0  0  0  0  0  0
  -21.6170   -5.9790   22.6060 C   0  0  0  0  0  0  0  0  0  0  0  0
  -21.1230   -6.5470   23.7990 C   0  0  0  0  0  3  0  0  0  0  0  0
  -20.9880   -5.7510   24.9550 C   0  0  0  0  0  3  0  0  0  0  0  0
  -21.3370   -4.3880   24.9170 C   0  0  0  0  0  0  0  0  0  0  0  0
  -21.8230   -3.8180   23.7270 C   0  0  0  0  0  3  0  0  0  0  0  0
  -21.9600   -4.6120   22.5740 C   0  0  0  0  0  0  0  0  0  0  0  0
  -22.4100   -4.0530   21.4250 F   0  0  0  0  0  0  0  0  0  0  0  0
  -21.2010   -3.6210   26.0230 F   0  0  0  0  0  0  0  0  0  0  0  0
  -22.7960  -13.3410   21.2990 C   0  0  0  0  0  0  0  0  0  0  0  0
  -22.1220  -12.6230   22.1890 N   0  0  0  0  0  0  0  0  0  0  0  0
  -22.3300  -14.3780   20.8300 O   0  0  0  0  0  0  0  0  0  0  0  0
  -22.5220  -11.7900   22.5940 H   0  0  0  0  0  0  0  0  0  0  0  0
  -21.1940  -12.9090   22.4700 H   0  0  0  0  0  0  0  0  0  0  0  0
  -25.3720  -15.0400   20.4080 N   0  0  0  0  0  0  0  0  0  0  0  0
  -24.6240  -15.6930   20.6100 H   0  0  0  0  0  0  0  0  0  0  0  0
  -26.2230  -15.4910   20.0960 H   0  0  0  0  0  0  0  0  0  0  0  0
  -30.2580  -21.4700   22.4180 C   0  0  0  0  0  3  0  0  0  0  0  0
  -30.2830  -22.4430   23.3380 F   0  0  0  0  0  0  0  0  0  0  0  0
  -31.6990  -21.1750   21.9630 C   0  0  0  0  0  2  0  0  0  0  0  0
  -33.9450  -20.4060   22.6700 C   0  0  0  0  0  1  0  0  0  0  0  0
  -32.5730  -20.7620   23.0830 N   0  0  0  0  0  4  0  0  0  0  0  0
  -32.6140  -21.5410   23.7220 H   0  0  0  0  0  0  0  0  0  0  0  0
  -32.1640  -19.9870   23.5800 H   0  0  0  0  0  0  0  0  0  0  0  0
  -28.2830  -25.5460   20.3510 O   0  0  0  0  0  0  0  0  0  0  0  0
  -24.6230  -31.6800   23.1290 C   0  0  0  0  0  0  0  0  0  0  0  0
  -27.2360  -26.6470   20.2870 C   0  0  0  0  0  0  0  0  0  0  0  0
  -23.4770  -30.2650   21.4710 C   0  0  0  0  0  3  0  0  0  0  0  0
  -24.9610  -28.6050   20.1290 C   0  0  0  0  0  0  0  0  0  0  0  0
  -26.0530  -30.4270   21.4210 C   0  0  0  0  0  2  0  0  0  0  0  0
  -26.1310  -28.9930   20.7960 C   0  0  0  0  0  0  0  0  0  0  0  0
  -27.2550  -28.0360   20.8460 C   0  0  0  0  0  3  0  0  0  0  0  0
  -26.0370  -26.4370   19.5610 C   0  0  0  0  0  3  0  0  0  0  0  0
  -24.9450  -27.3490   19.4950 C   0  0  0  0  0  3  0  0  0  0  0  0
  -23.7560  -29.5520   20.1170 C   0  0  0  0  0  2  0  0  0  0  0  0
  -24.7400  -30.8230   22.0600 N   0  0  0  0  0  0  0  0  0  0  0  0
  -23.5190  -31.9870   23.6070 O   0  0  0  0  0  0  0  0  0  0  0  0
  -22.7360  -29.2980   22.4310 C   0  0  0  0  0  0  0  0  0  0  0  0
  -21.4060  -29.1570   22.2730 N   0  0  0  0  0  0  0  0  0  0  0  0
  -23.3680  -28.6700   23.2840 O   0  0  0  0  0  0  0  0  0  0  0  0
  -20.9520  -29.7120   21.5630 H   0  0  0  0  0  0  0  0  0  0  0  0
  -17.9860  -28.0280   22.7300 C   0  0  0  0  0  0  0  0  0  0  0  0
  -20.5480  -28.2390   23.0310 C   0  0  0  0  0  3  0  0  0  0  0  0
  -20.6240  -26.8050   22.4570 C   0  0  0  0  0  2  0  0  0  0  0  0
  -19.5320  -26.5080   21.4240 C   0  0  0  0  0  2  0  0  0  0  0  0
  -18.1440  -26.6800   22.0460 C   0  0  0  0  0  2  0  0  0  0  0  0
  -19.1150  -28.7670   23.1770 C   0  0  0  0  0  0  0  0  0  0  0  0
  -18.9110  -30.0280   23.7790 C   0  0  0  0  0  3  0  0  0  0  0  0
  -17.6130  -30.5500   23.9350 C   0  0  0  0  0  3  0  0  0  0  0  0
  -16.5000  -29.8090   23.5020 C   0  0  0  0  0  3  0  0  0  0  0  0
  -16.6870  -28.5500   22.9060 C   0  0  0  0  0  3  0  0  0  0  0  0
  -25.8740  -32.3280   23.7980 C   0  0  0  0  0  3  0  0  0  0  0  0
  -26.3450  -31.5620   25.0960 C   0  0  1  0  0  0  0  0  0  0  0  0
  -25.2170  -31.3380   26.1300 C   0  0  0  0  0  1  0  0  0  0  0  0
  -26.9330  -30.1770   24.7420 C   0  0  0  0  0  1  0  0  0  0  0  0
  -27.4790  -32.3540   25.7900 C   0  0  0  0  0  1  0  0  0  0  0  0
  -25.5430  -33.7250   24.1330 N   0  0  0  0  0  0  0  0  0  0  0  0
  -25.8690  -34.7930   23.3930 C   0  0  0  0  0  0  0  0  0  0  0  0
  -26.5410  -34.7070   22.3630 O   0  0  0  0  0  0  0  0  0  0  0  0
  -24.9490  -33.8660   24.9380 H   0  0  0  0  0  0  0  0  0  0  0  0
  -24.1290  -36.5840   23.0620 C   0  0  0  0  0  1  0  0  0  0  0  0
  -25.3720  -36.1760   23.8680 C   0  0  0  0  0  3  0  0  0  0  0  0
  -27.5010  -37.0680   24.7060 C   0  0  0  0  0  1  0  0  0  0  0  0
  -26.3950  -37.2410   23.7710 N   0  0  0  0  0  0  0  0  0  0  0  0
  -25.9790  -38.1530   23.9390 H   0  0  0  0  0  0  0  0  0  0  0  0
  1  5  1  0
  1  2  1  0
  2  3  2  0
  3 47  1  0
  4  6  2  0
  5  4  2  0
  6  3  1  0
  7 18  1  0
  8 13  1  0
  9 10  1  0
  9  8  1  0
 11 10  1  0
 11 22  1  0
 11 12  1  0
 13  7  1  0
 13 12  1  0
 14  7  2  0
 15 18  1  0
 15 17  1  0
 15 16  1  0
 16 18  1  0
 17  2  1  0
 17 16  1  0
 19 20  2  0
 20 39  1  0
 21 20  1  0
 21 24  1  0
 22 23  1  0
 22 19  1  0
 23 21  2  0
 24 25  1  0
 25 26  2  0
 27 30  1  0
 27 26  1  0
 28 27  2  0
 29 28  1  0
 29 24  2  0
 30 31  1  0
 31 32  1  0
 32 33  2  0
 34 33  1  0
 34 38  1  0
 35 34  2  0
 36 31  2  0
 36 35  1  0
 37 36  1  0
 39 40  1  0
 40 43  1  0
 40 42  1  0
 41 39  2  0
 44 19  1  0
 44 45  1  0
 46 44  1  0
 47 48  1  0
 49 47  1  0
 49 51  1  0
 50 51  1  0
 51 53  1  0
 51 52  1  0
 54  4  1  0
 55 66  2  0
 56 54  1  0
 56 61  1  0
 57 65  1  0
 57 67  1  0
 58 60  1  0
 59 65  1  0
 60 61  2  0
 60 59  1  0
 62 56  2  0
 63 62  1  0
 63 58  2  0
 64 58  1  0
 64 57  1  0
 65 55  1  0
 67 69  2  0
 68 67  1  0
 70 68  1  0
 71 80  2  0
 71 76  1  0
 72 68  1  0
 72 76  1  0
 73 72  1  0
 74 75  1  0
 74 73  1  0
 75 71  1  0
 76 77  2  0
 77 78  1  0
 79 78  2  0
 80 79  1  0
 81 55  1  0
 81 86  1  0
 81 82  1  0
 82 85  1  1
 82 83  1  0
 84 82  1  0
 86 89  1  0
 87 91  1  0
 87 86  1  0
 88 87  2  0
 91 90  1  0
 93 91  1  0
 93 94  1  0
 93 92  1  0
M  ISO  4   4 101   7 100  18 100  54 101
M  END
>  <TORSDO>  (57) 
F 19

>  <SCORE>  (57) 
-14.967

>  <name>  (57) 
56

>  <ligand_id>  (57) 
56

>  <original_smiles>  (57) 
[H]c1nc(Oc2c([H])c([H])c3c(c2[H])C([H])([H])N(C(=O)C([H])(N([H])C(=O)C([H])(N([H])C([H])([H])[H])C([H])([H])[H])C(C([H])([H])[H])(C([H])([H])[H])C([H])([H])[H])C([H])(C(=O)N([H])C2([H])c4c([H])c([H])c([H])c([H])c4C([H])([H])C([H])([H])C2([H])[H])C3([H])[H])nc(C([H])(F)C([H])([H])[N+]([H])([H])C([H])([H])[H])c1C1([H])C([H])([H])N(C(=O)N2C([H])([H])C([H])([H])C([H])([H])C([H])(n3nc(-c4c([H])c([H])c(Oc5c([H])c([H])c(F)c([H])c5F)c([H])c4[H])c(C(=O)N([H])[H])c3N([H])[H])C2([H])[H])C1([H])[H]

>  <smiles>  (57) 
[H]c1nc(Oc2c([H])c([H])c3c(c2[H])C([H])([H])N(C(=O)C([H])(N([H])C(=O)C([H])(N([H])C([H])([H])[H])C([H])([H])[H])C(C([H])([H])[H])(C([H])([H])[H])C([H])([H])[H])C([H])(C(=O)N([H])C2([H])c4c([H])c([H])c([H])c([H])c4C([H])([H])C([H])([H])C2([H])[H])C3([H])[H])nc(C([H])(F)C([H])([H])[N+]([H])([H])C([H])([H])[H])c1C1([H])C([H])([H])N(C(=O)N2C([H])([H])C([H])([H])C([H])([H])C([H])(n3nc(-c4c([H])c([H])c(Oc5c([H])c([H])c(F)c([H])c5F)c([H])c4[H])c(C(=O)N([H])[H])c3N([H])[H])C2([H])[H])C1([H])[H]

$$$$
57:0:0
     RDKit          3D

 91100  0  0  1  0  0  0  0  0999 V2000
  -28.8810  -22.6360   20.3250 C   0  0  0  0  0  0  0  0  0  0  0  0
  -28.7820  -21.1780   19.8890 N   0  0  0  0  0  0  0  0  0  0  0  0
  -29.7720  -22.8830   21.1440 O   0  0  0  0  0  0  0  0  0  0  0  0
  -30.5530  -15.4120   19.8050 C   0  0  0  0  0  0  0  0  0  0  0  0
  -30.4760  -12.9460   18.9210 C   0  0  0  0  0  2  0  0  0  0  0  0
  -29.4810  -12.7170   17.7540 C   0  0  0  0  0  2  0  0  0  0  0  0
  -28.0700  -12.4280   18.2960 C   0  0  0  0  0  2  0  0  0  0  0  0
  -27.6960  -13.3730   19.4650 C   0  0  0  0  0  3  0  0  0  0  0  0
  -28.8220  -13.5440   20.5060 C   0  0  0  0  0  2  0  0  0  0  0  0
  -29.9830  -14.0920   19.7870 N   0  0  0  0  0  0  0  0  0  0  0  0
  -31.7230  -15.3790   19.3910 O   0  0  0  0  0  0  0  0  0  0  0  0
  -28.9350  -18.7880   21.3820 C   0  0  0  0  0  2  0  0  0  0  0  0
  -29.4110  -17.2410   21.3480 C   0  0  0  0  0  2  0  0  0  0  0  0
  -29.7690  -18.2250   19.3210 C   0  0  0  0  0  3  0  0  0  0  0  0
  -29.5740  -19.6910   20.2600 C   0  0  1  0  0  0  0  0  0  0  0  0
  -30.8310  -18.3780   18.2210 C   0  0  0  0  0  1  0  0  0  0  0  0
  -30.9850  -20.0700   20.7550 C   0  0  0  0  0  1  0  0  0  0  0  0
  -29.8450  -16.7390   20.0130 N   0  0  0  0  0  0  0  0  0  0  0  0
  -25.4070  -13.8950   20.4500 C   0  0  0  0  0  0  0  0  0  0  0  0
  -24.3760  -13.1070   20.8750 C   0  0  0  0  0  0  0  0  0  0  0  0
  -24.8270  -11.7560   20.7440 C   0  0  0  0  0  0  0  0  0  0  0  0
  -26.4170  -13.0300   20.0750 N   0  0  0  0  0  0  0  0  0  0  0  0
  -26.0890  -11.7330   20.3190 N   0  0  0  0  0  0  0  0  0  0  0  0
  -24.1070  -10.4900   20.9430 C   0  0  0  0  0  0  0  0  0  0  0  0
  -24.5590   -9.5180   21.8630 C   0  0  0  0  0  3  0  0  0  0  0  0
  -23.8330   -8.3220   22.0540 C   0  0  0  0  0  3  0  0  0  0  0  0
  -22.6430   -8.0900   21.3270 C   0  0  0  0  0  0  0  0  0  0  0  0
  -22.2090   -9.0510   20.3950 C   0  0  0  0  0  3  0  0  0  0  0  0
  -22.9360  -10.2380   20.2010 C   0  0  0  0  0  3  0  0  0  0  0  0
  -21.8880   -6.9450   21.4250 O   0  0  0  0  0  0  0  0  0  0  0  0
  -21.7950   -6.2450   22.6010 C   0  0  0  0  0  0  0  0  0  0  0  0
  -21.3250   -6.8440   23.7900 C   0  0  0  0  0  3  0  0  0  0  0  0
  -21.1790   -6.0690   24.9580 C   0  0  0  0  0  3  0  0  0  0  0  0
  -21.4940   -4.6970   24.9390 C   0  0  0  0  0  0  0  0  0  0  0  0
  -21.9580   -4.0990   23.7540 C   0  0  0  0  0  3  0  0  0  0  0  0
  -22.1060   -4.8700   22.5890 C   0  0  0  0  0  0  0  0  0  0  0  0
  -22.5340   -4.2830   21.4450 F   0  0  0  0  0  0  0  0  0  0  0  0
  -21.3480   -3.9510   26.0600 F   0  0  0  0  0  0  0  0  0  0  0  0
  -23.0110  -13.5800   21.2810 C   0  0  0  0  0  0  0  0  0  0  0  0
  -22.3550  -12.8630   22.1860 N   0  0  0  0  0  0  0  0  0  0  0  0
  -22.5370  -14.6230   20.8310 O   0  0  0  0  0  0  0  0  0  0  0  0
  -22.7540  -12.0230   22.5770 H   0  0  0  0  0  0  0  0  0  0  0  0
  -21.4430  -13.1620   22.4970 H   0  0  0  0  0  0  0  0  0  0  0  0
  -25.5600  -15.2730   20.3210 N   0  0  0  0  0  0  0  0  0  0  0  0
  -24.8040  -15.9150   20.5390 H   0  0  0  0  0  0  0  0  0  0  0  0
  -26.3740  -15.7340   19.9370 H   0  0  0  0  0  0  0  0  0  0  0  0
  -26.8580  -21.6030   18.1180 C   0  0  0  0  0  2  0  0  0  0  0  0
  -27.8880  -20.6450   17.5650 C   0  0  0  0  0  2  0  0  0  0  0  0
  -27.6810  -20.7440   19.0610 C   0  0  0  0  0  3  0  0  0  0  0  0
  -27.9780  -24.1250   19.9080 C   0  0  0  0  0  2  0  0  0  0  0  0
  -28.1940  -25.7360   20.3370 O   0  0  0  0  0  0  0  0  0  0  0  0
  -24.6680  -31.8220   23.1960 C   0  0  0  0  0  0  0  0  0  0  0  0
  -27.2240  -26.8870   20.2180 C   0  0  0  0  0  0  0  0  0  0  0  0
  -23.4900  -30.4370   21.5370 C   0  0  0  0  0  3  0  0  0  0  0  0
  -24.9510  -28.8230   20.1250 C   0  0  0  0  0  0  0  0  0  0  0  0
  -26.0610  -30.6190   21.4340 C   0  0  0  0  0  2  0  0  0  0  0  0
  -26.1310  -29.2050   20.7750 C   0  0  0  0  0  0  0  0  0  0  0  0
  -27.2590  -28.2580   20.7970 C   0  0  0  0  0  3  0  0  0  0  0  0
  -26.0230  -26.6790   19.5010 C   0  0  0  0  0  3  0  0  0  0  0  0
  -24.9270  -27.5850   19.4650 C   0  0  0  0  0  3  0  0  0  0  0  0
  -23.7390  -29.7580   20.1610 C   0  0  0  0  0  2  0  0  0  0  0  0
  -24.7620  -30.9890   22.1090 N   0  0  0  0  0  0  0  0  0  0  0  0
  -23.5710  -32.1170   23.7010 O   0  0  0  0  0  0  0  0  0  0  0  0
  -22.7770  -29.4440   22.4920 C   0  0  0  0  0  0  0  0  0  0  0  0
  -21.4470  -29.2840   22.3480 N   0  0  0  0  0  0  0  0  0  0  0  0
  -23.4280  -28.8160   23.3310 O   0  0  0  0  0  0  0  0  0  0  0  0
  -20.9770  -29.8410   21.6480 H   0  0  0  0  0  0  0  0  0  0  0  0
  -18.0540  -28.0800   22.8060 C   0  0  0  0  0  0  0  0  0  0  0  0
  -20.6090  -28.3480   23.1060 C   0  0  0  0  0  3  0  0  0  0  0  0
  -20.7180  -26.9150   22.5320 C   0  0  0  0  0  2  0  0  0  0  0  0
  -19.6300  -26.5940   21.5020 C   0  0  0  0  0  2  0  0  0  0  0  0
  -18.2400  -26.7350   22.1250 C   0  0  0  0  0  2  0  0  0  0  0  0
  -19.1650  -28.8440   23.2520 C   0  0  0  0  0  0  0  0  0  0  0  0
  -18.9330  -30.1010   23.8510 C   0  0  0  0  0  3  0  0  0  0  0  0
  -17.6230  -30.5940   24.0070 C   0  0  0  0  0  3  0  0  0  0  0  0
  -16.5270  -29.8290   23.5740 C   0  0  0  0  0  3  0  0  0  0  0  0
  -16.7430  -28.5730   22.9800 C   0  0  0  0  0  3  0  0  0  0  0  0
  -25.9300  -32.4600   23.8520 C   0  0  0  0  0  3  0  0  0  0  0  0
  -25.6180  -33.8660   24.1680 N   0  0  0  0  0  0  0  0  0  0  0  0
  -25.9610  -34.9190   23.4140 C   0  0  0  0  0  0  0  0  0  0  0  0
  -26.6370  -34.8070   22.3870 O   0  0  0  0  0  0  0  0  0  0  0  0
  -25.0160  -34.0240   24.9630 H   0  0  0  0  0  0  0  0  0  0  0  0
  -24.2410  -36.7260   23.0620 C   0  0  0  0  0  1  0  0  0  0  0  0
  -25.4860  -36.3140   23.8670 C   0  0  0  0  0  3  0  0  0  0  0  0
  -27.6280  -37.1970   24.6820 C   0  0  0  0  0  1  0  0  0  0  0  0
  -26.5230  -37.3610   23.7420 N   0  0  0  0  0  0  0  0  0  0  0  0
  -26.1230  -38.2850   23.8810 H   0  0  0  0  0  0  0  0  0  0  0  0
  -26.3970  -31.7030   25.1570 C   0  0  1  0  0  0  0  0  0  0  0  0
  -25.2700  -31.4950   26.1970 C   0  0  0  0  0  1  0  0  0  0  0  0
  -26.9770  -30.3130   24.8130 C   0  0  0  0  0  1  0  0  0  0  0  0
  -27.5370  -32.4970   25.8390 C   0  0  0  0  0  1  0  0  0  0  0  0
  1  3  2  0
  2 15  1  0
  2  1  1  0
  4 18  1  0
  5 10  1  0
  6  7  1  0
  6  5  1  0
  8  7  1  0
  8 22  1  0
  8  9  1  0
 10  4  1  0
 10  9  1  0
 11  4  2  0
 13 12  1  0
 14 16  1  0
 14 18  1  0
 14 15  1  0
 15 17  1  1
 15 12  1  0
 18 13  1  0
 19 20  2  0
 20 39  1  0
 21 20  1  0
 21 24  1  0
 22 23  1  0
 22 19  1  0
 23 21  2  0
 24 25  1  0
 25 26  2  0
 27 30  1  0
 27 26  1  0
 28 27  2  0
 29 28  1  0
 29 24  2  0
 30 31  1  0
 31 32  1  0
 32 33  2  0
 34 33  1  0
 34 38  1  0
 35 34  2  0
 36 31  2  0
 36 35  1  0
 37 36  1  0
 39 40  1  0
 40 43  1  0
 40 42  1  0
 41 39  2  0
 44 19  1  0
 44 45  1  0
 46 44  1  0
 47 49  1  0
 48 47  1  0
 48 49  1  0
 49  2  1  0
 50  1  1  0
 50 51  1  0
 52 63  2  0
 53 51  1  0
 53 58  1  0
 54 62  1  0
 54 64  1  0
 55 61  1  0
 55 57  1  0
 56 62  1  0
 57 58  2  0
 57 56  1  0
 59 53  2  0
 60 59  1  0
 60 55  2  0
 61 54  1  0
 62 52  1  0
 64 66  2  0
 65 64  1  0
 67 65  1  0
 68 77  2  0
 68 73  1  0
 69 65  1  0
 69 73  1  0
 70 69  1  0
 71 72  1  0
 71 70  1  0
 72 68  1  0
 73 74  2  0
 74 75  1  0
 76 75  2  0
 77 76  1  0
 78 52  1  0
 78 79  1  0
 78 88  1  0
 79 82  1  0
 80 84  1  0
 80 79  1  0
 81 80  2  0
 84 83  1  0
 86 84  1  0
 86 87  1  0
 86 85  1  0
 88 91  1  1
 88 89  1  0
 90 88  1  0
M  ISO  4   4 100  18 100  50 101  51 101
M  END
>  <TORSDO>  (58) 
F 18

>  <SCORE>  (58) 
-15.390

>  <name>  (58) 
57

>  <ligand_id>  (58) 
57

>  <original_smiles>  (58) 
[H]c1c([H])c([H])c2c(c1[H])C([H])([H])C([H])([H])C([H])([H])C2([H])N([H])C(=O)C1([H])N(C(=O)C([H])(N([H])C(=O)C([H])(N([H])C([H])([H])[H])C([H])([H])[H])C(C([H])([H])[H])(C([H])([H])[H])C([H])([H])[H])C([H])([H])c2c([H])c(OC([H])([H])C(=O)N(C3([H])C([H])([H])C3([H])[H])C3(C([H])([H])[H])C([H])([H])C([H])([H])N(C(=O)N4C([H])([H])C([H])([H])C([H])([H])C([H])(n5nc(-c6c([H])c([H])c(Oc7c([H])c([H])c(F)c([H])c7F)c([H])c6[H])c(C(=O)N([H])[H])c5N([H])[H])C4([H])[H])C3([H])C([H])([H])[H])c([H])c([H])c2C1([H])[H]

>  <smiles>  (58) 
[H]c1c([H])c([H])c2c(c1[H])C([H])([H])C([H])([H])C([H])([H])C2([H])N([H])C(=O)C1([H])N(C(=O)C([H])(N([H])C(=O)C([H])(N([H])C([H])([H])[H])C([H])([H])[H])C(C([H])([H])[H])(C([H])([H])[H])C([H])([H])[H])C([H])([H])c2c([H])c(OC([H])([H])C(=O)N(C3([H])C([H])([H])C3([H])[H])C3(C([H])([H])[H])C([H])([H])C([H])([H])N(C(=O)N4C([H])([H])C([H])([H])C([H])([H])C([H])(n5nc(-c6c([H])c([H])c(Oc7c([H])c([H])c(F)c([H])c7F)c([H])c6[H])c(C(=O)N([H])[H])c5N([H])[H])C4([H])[H])C3([H])C([H])([H])[H])c([H])c([H])c2C1([H])[H]

$$$$
58:0:0
     RDKit          3D

 95104  0  0  1  0  0  0  0  0999 V2000
  -30.6600  -15.7010   19.9310 C   0  0  0  0  0  0  0  0  0  0  0  0
  -30.7150  -13.1430   19.2680 C   0  0  0  0  0  2  0  0  0  0  0  0
  -29.8110  -12.6640   18.1040 C   0  0  0  0  0  2  0  0  0  0  0  0
  -28.4060  -12.3230   18.6180 C   0  0  0  0  0  2  0  0  0  0  0  0
  -27.8980  -13.3810   19.6260 C   0  0  0  0  0  3  0  0  0  0  0  0
  -28.9450  -13.7940   20.6860 C   0  0  0  0  0  2  0  0  0  0  0  0
  -30.0900  -14.3640   19.9440 N   0  0  0  0  0  0  0  0  0  0  0  0
  -31.8910  -15.5690   19.7920 O   0  0  0  0  0  0  0  0  0  0  0  0
  -29.2760  -19.6690   19.9110 C   0  0  0  0  0  0  0  0  0  0  0  0
  -29.7790  -19.5510   18.6550 C   0  0  0  0  0  0  0  0  0  0  0  0
  -28.7350  -21.0810   20.2960 C   0  0  0  0  0  0  0  0  0  0  0  0
  -29.7400  -20.7390   17.8280 C   0  0  0  0  0  0  0  0  0  0  0  0
  -28.7090  -22.3600   19.4090 C   0  0  0  0  0  0  0  0  0  0  0  0
  -29.4680  -18.1540   20.5350 C   0  0  0  0  0  0  0  0  0  0  0  0
  -30.2770  -18.0260   18.4560 C   0  0  0  0  0  3  0  0  0  0  0  0
  -30.2420  -20.6640   16.4030 C   0  0  0  0  0  1  0  0  0  0  0  0
  -31.7450  -18.0030   17.9840 C   0  0  0  0  0  1  0  0  0  0  0  0
  -29.2520  -22.0090   18.1850 N   0  0  0  0  0  0  0  0  0  0  0  0
  -30.0230  -17.0940   19.6900 N   0  0  0  0  0  0  0  0  0  0  0  0
  -29.1580  -17.9580   21.7150 O   0  0  0  0  0  0  0  0  0  0  0  0
  -25.5850  -13.9030   20.5340 C   0  0  0  0  0  0  0  0  0  0  0  0
  -24.5380  -13.1160   20.9200 C   0  0  0  0  0  0  0  0  0  0  0  0
  -24.9950  -11.7660   20.8140 C   0  0  0  0  0  0  0  0  0  0  0  0
  -26.6080  -13.0340   20.2030 N   0  0  0  0  0  0  0  0  0  0  0  0
  -26.2700  -11.7390   20.4400 N   0  0  0  0  0  0  0  0  0  0  0  0
  -24.2660  -10.5010   20.9880 C   0  0  0  0  0  0  0  0  0  0  0  0
  -24.6870   -9.5270   21.9180 C   0  0  0  0  0  3  0  0  0  0  0  0
  -23.9550   -8.3300   22.0840 C   0  0  0  0  0  3  0  0  0  0  0  0
  -22.7890   -8.1010   21.3170 C   0  0  0  0  0  0  0  0  0  0  0  0
  -22.3860   -9.0640   20.3750 C   0  0  0  0  0  3  0  0  0  0  0  0
  -23.1180  -10.2500   20.2090 C   0  0  0  0  0  3  0  0  0  0  0  0
  -22.0300   -6.9570   21.3920 O   0  0  0  0  0  0  0  0  0  0  0  0
  -21.9050   -6.2500   22.5600 C   0  0  0  0  0  0  0  0  0  0  0  0
  -21.3600   -6.8270   23.7280 C   0  0  0  0  0  3  0  0  0  0  0  0
  -21.1870   -6.0450   24.8860 C   0  0  0  0  0  3  0  0  0  0  0  0
  -21.5490   -4.6850   24.8790 C   0  0  0  0  0  0  0  0  0  0  0  0
  -22.0850   -4.1050   23.7160 C   0  0  0  0  0  3  0  0  0  0  0  0
  -22.2620   -4.8850   22.5600 C   0  0  0  0  0  0  0  0  0  0  0  0
  -22.7600   -4.3170   21.4350 F   0  0  0  0  0  0  0  0  0  0  0  0
  -21.3750   -3.9310   25.9890 F   0  0  0  0  0  0  0  0  0  0  0  0
  -23.1590  -13.5910   21.2670 C   0  0  0  0  0  0  0  0  0  0  0  0
  -22.4620  -12.8680   22.1350 N   0  0  0  0  0  0  0  0  0  0  0  0
  -22.7100  -14.6400   20.8060 O   0  0  0  0  0  0  0  0  0  0  0  0
  -22.8390  -12.0180   22.5290 H   0  0  0  0  0  0  0  0  0  0  0  0
  -21.5370  -13.1680   22.4100 H   0  0  0  0  0  0  0  0  0  0  0  0
  -25.7480  -15.2790   20.4020 N   0  0  0  0  0  0  0  0  0  0  0  0
  -24.9910  -15.9310   20.5690 H   0  0  0  0  0  0  0  0  0  0  0  0
  -26.5810  -15.7240   20.0370 H   0  0  0  0  0  0  0  0  0  0  0  0
  -28.1310  -21.2080   21.6910 C   0  0  0  0  0  2  0  0  0  0  0  0
  -29.0740  -21.7910   22.6620 N   0  0  0  0  0  4  0  0  0  0  0  0
  -29.9010  -21.2300   22.7480 H   0  0  0  0  0  0  0  0  0  0  0  0
  -28.6410  -21.8360   23.5680 H   0  0  0  0  0  0  0  0  0  0  0  0
  -29.3430  -22.7230   22.4050 H   0  0  0  0  0  0  0  0  0  0  0  0
  -27.8760  -23.9940   19.5710 C   0  0  0  0  0  2  0  0  0  0  0  0
  -28.1230  -25.6680   19.2440 O   0  0  0  0  0  0  0  0  0  0  0  0
  -24.7410  -31.6120   22.8410 C   0  0  0  0  0  0  0  0  0  0  0  0
  -27.1490  -26.8490   19.3670 C   0  0  0  0  0  0  0  0  0  0  0  0
  -23.4910  -30.3520   21.1410 C   0  0  0  0  0  3  0  0  0  0  0  0
  -24.8800  -28.8350   19.5530 C   0  0  0  0  0  0  0  0  0  0  0  0
  -26.0620  -30.5230   20.9340 C   0  0  0  0  0  2  0  0  0  0  0  0
  -26.1000  -29.1540   20.1660 C   0  0  0  0  0  0  0  0  0  0  0  0
  -27.2240  -28.1910   20.0400 C   0  0  0  0  0  3  0  0  0  0  0  0
  -25.8940  -26.7260   18.7220 C   0  0  0  0  0  3  0  0  0  0  0  0
  -24.8120  -27.6470   18.8080 C   0  0  0  0  0  3  0  0  0  0  0  0
  -23.6770  -29.7730   19.7110 C   0  0  0  0  0  2  0  0  0  0  0  0
  -24.7900  -30.8560   21.6930 N   0  0  0  0  0  0  0  0  0  0  0  0
  -23.6700  -31.8670   23.4140 O   0  0  0  0  0  0  0  0  0  0  0  0
  -22.8130  -29.2930   22.0530 C   0  0  0  0  0  0  0  0  0  0  0  0
  -21.4730  -29.1660   21.9810 N   0  0  0  0  0  0  0  0  0  0  0  0
  -23.5000  -28.5880   22.7940 O   0  0  0  0  0  0  0  0  0  0  0  0
  -20.9680  -29.7890   21.3660 H   0  0  0  0  0  0  0  0  0  0  0  0
  -18.0890  -28.0050   22.6090 C   0  0  0  0  0  0  0  0  0  0  0  0
  -20.6700  -28.1750   22.7070 C   0  0  0  0  0  3  0  0  0  0  0  0
  -20.6780  -26.8100   21.9780 C   0  0  0  0  0  2  0  0  0  0  0  0
  -19.4980  -26.6300   21.0180 C   0  0  0  0  0  2  0  0  0  0  0  0
  -18.1710  -26.7370   21.7750 C   0  0  0  0  0  2  0  0  0  0  0  0
  -19.2610  -28.6880   23.0330 C   0  0  0  0  0  0  0  0  0  0  0  0
  -19.1250  -29.8780   23.7800 C   0  0  0  0  0  3  0  0  0  0  0  0
  -17.8510  -30.3850   24.1030 C   0  0  0  0  0  3  0  0  0  0  0  0
  -16.6960  -29.6980   23.6910 C   0  0  0  0  0  3  0  0  0  0  0  0
  -16.8170  -28.5090   22.9510 C   0  0  0  0  0  3  0  0  0  0  0  0
  -26.0310  -32.2050   23.4850 C   0  0  0  0  0  3  0  0  0  0  0  0
  -26.6050  -31.3120   24.6540 C   0  0  1  0  0  0  0  0  0  0  0  0
  -25.5610  -30.9530   25.7390 C   0  0  0  0  0  1  0  0  0  0  0  0
  -27.1800  -29.9850   24.1090 C   0  0  0  0  0  1  0  0  0  0  0  0
  -27.7810  -32.0460   25.3430 C   0  0  0  0  0  1  0  0  0  0  0  0
  -25.7100  -33.5520   23.9960 N   0  0  0  0  0  0  0  0  0  0  0  0
  -25.9620  -34.7010   23.3530 C   0  0  0  0  0  0  0  0  0  0  0  0
  -26.5480  -34.7380   22.2690 O   0  0  0  0  0  0  0  0  0  0  0  0
  -25.1790  -33.5920   24.8530 H   0  0  0  0  0  0  0  0  0  0  0  0
  -24.1710  -36.4740   23.3790 C   0  0  0  0  0  1  0  0  0  0  0  0
  -25.4930  -36.0160   24.0140 C   0  0  0  0  0  3  0  0  0  0  0  0
  -27.6760  -36.8790   24.7450 C   0  0  0  0  0  1  0  0  0  0  0  0
  -26.4880  -37.1080   23.9270 N   0  0  0  0  0  0  0  0  0  0  0  0
  -26.0750  -37.9940   24.2100 H   0  0  0  0  0  0  0  0  0  0  0  0
  1  7  1  0
  2  7  1  0
  3  4  1  0
  3  2  1  0
  5  4  1  0
  5 24  1  0
  5  6  1  0
  7  6  1  0
  8  1  2  0
  9 11  1  0
  9 14  1  0
 10  9  2  0
 11 49  1  0
 12 18  2  0
 12 10  1  0
 13 54  1  0
 13 11  2  0
 14 20  2  0
 15 17  1  0
 15 10  1  0
 15 19  1  0
 16 12  1  0
 18 13  1  0
 19  1  1  0
 19 14  1  0
 21 22  2  0
 22 41  1  0
 23 22  1  0
 23 26  1  0
 24 25  1  0
 24 21  1  0
 25 23  2  0
 26 27  1  0
 27 28  2  0
 29 32  1  0
 29 28  1  0
 30 29  2  0
 31 30  1  0
 31 26  2  0
 32 33  1  0
 33 38  2  0
 33 34  1  0
 34 35  2  0
 36 35  1  0
 36 40  1  0
 37 36  2  0
 38 37  1  0
 39 38  1  0
 41 42  1  0
 42 45  1  0
 42 44  1  0
 43 41  2  0
 46 21  1  0
 46 47  1  0
 48 46  1  0
 49 50  1  0
 50 51  1  0
 50 52  1  0
 53 50  1  0
 55 57  1  0
 55 54  1  0
 56 67  2  0
 57 62  1  0
 58 66  1  0
 58 68  1  0
 59 65  1  0
 59 61  1  0
 60 66  1  0
 61 60  1  0
 62 61  2  0
 63 64  1  0
 63 57  2  0
 64 59  2  0
 65 58  1  0
 66 56  1  0
 68 70  2  0
 69 68  1  0
 71 69  1  0
 72 81  2  0
 72 77  1  0
 73 69  1  0
 73 77  1  0
 74 73  1  0
 75 76  1  0
 75 74  1  0
 76 72  1  0
 77 78  2  0
 78 79  1  0
 80 79  2  0
 81 80  1  0
 82 56  1  0
 82 87  1  0
 82 83  1  0
 83 86  1  1
 83 84  1  0
 85 83  1  0
 87 90  1  0
 88 87  1  0
 88 92  1  0
 89 88  2  0
 92 91  1  0
 94 92  1  0
 94 95  1  0
 94 93  1  0
M  ISO  4   1 100  19 100  54 101  55 101
M  END
>  <TORSDO>  (59) 
F 18

>  <SCORE>  (59) 
-14.412

>  <name>  (59) 
58

>  <ligand_id>  (59) 
58

>  <original_smiles>  (59) 
[H]c1c([H])c([H])c2c(c1[H])C([H])([H])C([H])([H])C([H])([H])C2([H])N([H])C(=O)C1([H])N(C(=O)C([H])(N([H])C(=O)C([H])(N([H])C([H])([H])[H])C([H])([H])[H])C(C([H])([H])[H])(C([H])([H])[H])C([H])([H])[H])C([H])([H])c2c([H])c(OC([H])([H])c3nc(C([H])([H])[H])c4c(c3C([H])([H])[N+]([H])([H])[H])C(=O)N(C(=O)N3C([H])([H])C([H])([H])C([H])([H])C([H])(n5nc(-c6c([H])c([H])c(Oc7c([H])c([H])c(F)c([H])c7F)c([H])c6[H])c(C(=O)N([H])[H])c5N([H])[H])C3([H])[H])C4([H])C([H])([H])[H])c([H])c([H])c2C1([H])[H]

>  <smiles>  (59) 
[H]c1c([H])c([H])c2c(c1[H])C([H])([H])C([H])([H])C([H])([H])C2([H])N([H])C(=O)C1([H])N(C(=O)C([H])(N([H])C(=O)C([H])(N([H])C([H])([H])[H])C([H])([H])[H])C(C([H])([H])[H])(C([H])([H])[H])C([H])([H])[H])C([H])([H])c2c([H])c(OC([H])([H])c3nc(C([H])([H])[H])c4c(c3C([H])([H])[N+]([H])([H])[H])C(=O)N(C(=O)N3C([H])([H])C([H])([H])C([H])([H])C([H])(n5nc(-c6c([H])c([H])c(Oc7c([H])c([H])c(F)c([H])c7F)c([H])c6[H])c(C(=O)N([H])[H])c5N([H])[H])C3([H])[H])C4([H])C([H])([H])[H])c([H])c([H])c2C1([H])[H]

$$$$
59:0:0
     RDKit          3D

 91100  0  0  1  0  0  0  0  0999 V2000
  -29.4970  -22.3130   18.7710 C   0  0  0  0  0  0  0  0  0  0  0  0
  -28.9070  -22.7440   20.0220 C   0  0  0  0  0  0  0  0  0  0  0  0
  -29.9350  -20.9720   18.7750 C   0  0  0  0  0  0  0  0  0  0  0  0
  -29.0460  -21.4240   20.6890 C   0  0  0  0  0  0  0  0  0  0  0  0
  -30.7650  -20.2990   17.8210 C   0  0  0  0  0  3  0  0  0  0  0  0
  -31.6210  -19.3150   18.1480 C   0  0  0  0  0  3  0  0  0  0  0  0
  -31.7870  -18.8750   19.5940 C   0  0  0  0  0  2  0  0  0  0  0  0
  -30.4070  -18.6990   20.2690 C   0  0  0  0  0  3  0  0  0  0  0  0
  -29.6720  -23.2330   17.5890 C   0  0  0  0  0  1  0  0  0  0  0  0
  -28.6250  -21.1450   22.0950 C   0  0  0  0  0  1  0  0  0  0  0  0
  -29.6920  -20.2550   19.9600 N   0  0  0  0  0  0  0  0  0  0  0  0
  -30.7320  -15.6980   20.0660 C   0  0  0  0  0  0  0  0  0  0  0  0
  -30.7160  -13.1960   19.2790 C   0  0  0  0  0  2  0  0  0  0  0  0
  -29.8010  -12.8630   18.0730 C   0  0  0  0  0  2  0  0  0  0  0  0
  -28.3650  -12.5780   18.5420 C   0  0  0  0  0  2  0  0  0  0  0  0
  -27.8950  -13.6000   19.6050 C   0  0  0  0  0  3  0  0  0  0  0  0
  -28.9450  -13.8650   20.7060 C   0  0  0  0  0  2  0  0  0  0  0  0
  -30.1430  -14.3880   20.0230 N   0  0  0  0  0  0  0  0  0  0  0  0
  -31.9630  -15.6060   19.9320 O   0  0  0  0  0  0  0  0  0  0  0  0
  -30.0280  -17.0420   20.0640 N   0  0  0  0  0  0  0  0  0  0  0  0
  -29.0270  -16.9120   20.0370 H   0  0  0  0  0  0  0  0  0  0  0  0
  -25.5480  -14.1750   20.4030 C   0  0  0  0  0  0  0  0  0  0  0  0
  -24.4830  -13.4070   20.7800 C   0  0  0  0  0  0  0  0  0  0  0  0
  -24.9340  -12.0530   20.7360 C   0  0  0  0  0  0  0  0  0  0  0  0
  -26.5770  -13.2890   20.1400 N   0  0  0  0  0  0  0  0  0  0  0  0
  -26.2220  -12.0060   20.4100 N   0  0  0  0  0  0  0  0  0  0  0  0
  -24.1920  -10.7980   20.9260 C   0  0  0  0  0  0  0  0  0  0  0  0
  -24.5810   -9.8470   21.8950 C   0  0  0  0  0  3  0  0  0  0  0  0
  -23.8370   -8.6610   22.0730 C   0  0  0  0  0  3  0  0  0  0  0  0
  -22.6900   -8.4160   21.2810 C   0  0  0  0  0  0  0  0  0  0  0  0
  -22.3200   -9.3550   20.3020 C   0  0  0  0  0  3  0  0  0  0  0  0
  -23.0650  -10.5330   20.1220 C   0  0  0  0  0  3  0  0  0  0  0  0
  -21.9220   -7.2800   21.3660 O   0  0  0  0  0  0  0  0  0  0  0  0
  -21.7750   -6.5980   22.5470 C   0  0  0  0  0  0  0  0  0  0  0  0
  -21.1840   -7.1920   23.6830 C   0  0  0  0  0  3  0  0  0  0  0  0
  -20.9890   -6.4330   24.8540 C   0  0  0  0  0  3  0  0  0  0  0  0
  -21.3750   -5.0810   24.8900 C   0  0  0  0  0  0  0  0  0  0  0  0
  -21.9580   -4.4850   23.7580 C   0  0  0  0  0  3  0  0  0  0  0  0
  -22.1540   -5.2410   22.5890 C   0  0  0  0  0  0  0  0  0  0  0  0
  -22.6980   -4.6560   21.4940 F   0  0  0  0  0  0  0  0  0  0  0  0
  -21.1820   -4.3480   26.0120 F   0  0  0  0  0  0  0  0  0  0  0  0
  -23.0940  -13.9010   21.0610 C   0  0  0  0  0  0  0  0  0  0  0  0
  -22.3680  -13.2210   21.9400 N   0  0  0  0  0  0  0  0  0  0  0  0
  -22.6630  -14.9280   20.5370 O   0  0  0  0  0  0  0  0  0  0  0  0
  -22.7300  -12.3900   22.3860 H   0  0  0  0  0  0  0  0  0  0  0  0
  -21.4360  -13.5340   22.1720 H   0  0  0  0  0  0  0  0  0  0  0  0
  -25.7230  -15.5450   20.2300 N   0  0  0  0  0  0  0  0  0  0  0  0
  -24.9600  -16.2030   20.3490 H   0  0  0  0  0  0  0  0  0  0  0  0
  -26.5630  -15.9740   19.8670 H   0  0  0  0  0  0  0  0  0  0  0  0
  -28.1290  -24.3480   20.3920 C   0  0  0  0  0  2  0  0  0  0  0  0
  -28.4050  -25.9900   20.1240 O   0  0  0  0  0  0  0  0  0  0  0  0
  -24.7160  -31.9440   23.2050 C   0  0  0  0  0  0  0  0  0  0  0  0
  -27.3860  -27.1110   20.1290 C   0  0  0  0  0  0  0  0  0  0  0  0
  -23.5620  -30.5460   21.5410 C   0  0  0  0  0  3  0  0  0  0  0  0
  -25.0530  -28.9890   20.1030 C   0  0  0  0  0  0  0  0  0  0  0  0
  -26.1290  -30.8010   21.4130 C   0  0  0  0  0  2  0  0  0  0  0  0
  -26.2340  -29.3950   20.7360 C   0  0  0  0  0  0  0  0  0  0  0  0
  -27.3940  -28.4820   20.7180 C   0  0  0  0  0  3  0  0  0  0  0  0
  -26.1680  -26.8790   19.4480 C   0  0  0  0  0  3  0  0  0  0  0  0
  -25.0490  -27.7540   19.4370 C   0  0  0  0  0  3  0  0  0  0  0  0
  -23.8150  -29.8890   20.1570 C   0  0  0  0  0  2  0  0  0  0  0  0
  -24.8250  -31.1260   22.1060 N   0  0  0  0  0  0  0  0  0  0  0  0
  -23.6160  -32.2020   23.7240 O   0  0  0  0  0  0  0  0  0  0  0  0
  -22.8830  -29.5230   22.4900 C   0  0  0  0  0  0  0  0  0  0  0  0
  -21.5660  -29.2930   22.3260 N   0  0  0  0  0  0  0  0  0  0  0  0
  -23.5510  -28.9350   23.3450 O   0  0  0  0  0  0  0  0  0  0  0  0
  -21.0780  -29.8210   21.6160 H   0  0  0  0  0  0  0  0  0  0  0  0
  -18.2370  -27.9040   22.7310 C   0  0  0  0  0  0  0  0  0  0  0  0
  -20.7690  -28.3170   23.0760 C   0  0  0  0  0  3  0  0  0  0  0  0
  -20.9690  -26.8880   22.5170 C   0  0  0  0  0  2  0  0  0  0  0  0
  -19.9220  -26.4980   21.4690 C   0  0  0  0  0  2  0  0  0  0  0  0
  -18.5140  -26.5640   22.0660 C   0  0  0  0  0  2  0  0  0  0  0  0
  -19.2950  -28.7320   23.1900 C   0  0  0  0  0  0  0  0  0  0  0  0
  -18.9820  -29.9790   23.7740 C   0  0  0  0  0  3  0  0  0  0  0  0
  -17.6440  -30.3990   23.9000 C   0  0  0  0  0  3  0  0  0  0  0  0
  -16.6010  -29.5700   23.4550 C   0  0  0  0  0  3  0  0  0  0  0  0
  -16.8980  -28.3230   22.8770 C   0  0  0  0  0  3  0  0  0  0  0  0
  -25.9650  -32.6110   23.8540 C   0  0  0  0  0  3  0  0  0  0  0  0
  -25.6170  -34.0050   24.1870 N   0  0  0  0  0  0  0  0  0  0  0  0
  -25.9140  -35.0730   23.4350 C   0  0  0  0  0  0  0  0  0  0  0  0
  -26.5700  -34.9910   22.3940 O   0  0  0  0  0  0  0  0  0  0  0  0
  -25.0290  -34.1390   24.9960 H   0  0  0  0  0  0  0  0  0  0  0  0
  -24.1380  -36.8350   23.1310 C   0  0  0  0  0  1  0  0  0  0  0  0
  -25.4060  -36.4500   23.9110 C   0  0  0  0  0  3  0  0  0  0  0  0
  -27.5280  -37.3960   24.7130 C   0  0  0  0  0  1  0  0  0  0  0  0
  -26.4120  -37.5290   23.7800 N   0  0  0  0  0  0  0  0  0  0  0  0
  -25.9850  -38.4390   23.9250 H   0  0  0  0  0  0  0  0  0  0  0  0
  -26.4660  -31.8570   25.1470 C   0  0  1  0  0  0  0  0  0  0  0  0
  -25.3540  -31.6040   26.1930 C   0  0  0  0  0  1  0  0  0  0  0  0
  -27.0830  -30.4870   24.7860 C   0  0  0  0  0  1  0  0  0  0  0  0
  -27.5870  -32.6750   25.8300 C   0  0  0  0  0  1  0  0  0  0  0  0
  1  3  2  0
  1  2  1  0
  2 50  1  0
  2  4  2  0
  3 11  1  0
  4 10  1  0
  5  6  2  0
  5  3  1  0
  6  7  1  0
  7  8  1  0
  8 20  1  0
  9  1  1  0
 11  8  1  0
 11  4  1  0
 13 18  1  0
 14 15  1  0
 14 13  1  0
 16 15  1  0
 16 25  1  0
 16 17  1  0
 18 12  1  0
 18 17  1  0
 19 12  2  0
 20 12  1  0
 21 20  1  0
 22 23  2  0
 23 42  1  0
 24 23  1  0
 24 27  1  0
 25 22  1  0
 25 26  1  0
 26 24  2  0
 27 28  1  0
 28 29  2  0
 30 33  1  0
 30 29  1  0
 31 30  2  0
 32 31  1  0
 32 27  2  0
 33 34  1  0
 34 39  2  0
 34 35  1  0
 35 36  2  0
 36 37  1  0
 37 41  1  0
 38 37  2  0
 39 38  1  0
 40 39  1  0
 42 43  1  0
 43 46  1  0
 43 45  1  0
 44 42  2  0
 47 48  1  0
 47 22  1  0
 49 47  1  0
 51 53  1  0
 51 50  1  0
 52 63  2  0
 53 58  1  0
 54 62  1  0
 54 64  1  0
 55 61  1  0
 55 57  1  0
 56 62  1  0
 57 56  1  0
 58 57  2  0
 59 53  2  0
 60 59  1  0
 60 55  2  0
 61 54  1  0
 62 52  1  0
 64 66  2  0
 65 64  1  0
 67 65  1  0
 68 77  2  0
 68 73  1  0
 69 65  1  0
 69 73  1  0
 70 69  1  0
 71 72  1  0
 71 70  1  0
 72 68  1  0
 73 74  2  0
 74 75  1  0
 76 75  2  0
 77 76  1  0
 78 52  1  0
 78 79  1  0
 78 88  1  0
 79 82  1  0
 80 84  1  0
 80 79  1  0
 81 80  2  0
 84 83  1  0
 86 84  1  0
 86 87  1  0
 86 85  1  0
 88 91  1  1
 88 89  1  0
 90 88  1  0
M  ISO  4  12 100  20 100  50 101  51 101
M  END
>  <TORSDO>  (60) 
F 17

>  <SCORE>  (60) 
-15.879

>  <name>  (60) 
59

>  <ligand_id>  (60) 
59

>  <original_smiles>  (60) 
[H]C1=C([H])C([H])([H])C([H])(N([H])C(=O)N2C([H])([H])C([H])([H])C([H])([H])C([H])(n3nc(-c4c([H])c([H])c(Oc5c([H])c([H])c(F)c([H])c5F)c([H])c4[H])c(C(=O)N([H])[H])c3N([H])[H])C2([H])[H])n2c1c(C([H])([H])[H])c(C([H])([H])Oc1c([H])c([H])c3c(c1[H])C([H])([H])N(C(=O)C([H])(N([H])C(=O)C([H])(N([H])C([H])([H])[H])C([H])([H])[H])C(C([H])([H])[H])(C([H])([H])[H])C([H])([H])[H])C([H])(C(=O)N([H])C1([H])c4c([H])c([H])c([H])c([H])c4C([H])([H])C([H])([H])C1([H])[H])C3([H])[H])c2C([H])([H])[H]

>  <smiles>  (60) 
[H]C1=C([H])C([H])([H])C([H])(N([H])C(=O)N2C([H])([H])C([H])([H])C([H])([H])C([H])(n3nc(-c4c([H])c([H])c(Oc5c([H])c([H])c(F)c([H])c5F)c([H])c4[H])c(C(=O)N([H])[H])c3N([H])[H])C2([H])[H])n2c1c(C([H])([H])[H])c(C([H])([H])Oc1c([H])c([H])c3c(c1[H])C([H])([H])N(C(=O)C([H])(N([H])C(=O)C([H])(N([H])C([H])([H])[H])C([H])([H])[H])C(C([H])([H])[H])(C([H])([H])[H])C([H])([H])[H])C([H])(C(=O)N([H])C1([H])c4c([H])c([H])c([H])c([H])c4C([H])([H])C([H])([H])C1([H])[H])C3([H])[H])c2C([H])([H])[H]

$$$$
60:0:0
     RDKit          3D

 90 99  0  0  1  0  0  0  0  0999 V2000
  -29.3670  -22.0380   18.5080 C   0  0  0  0  0  0  0  0  0  0  0  0
  -29.1550  -23.3320   17.9370 C   0  0  0  0  0  0  0  0  0  0  0  0
  -28.9990  -21.7530   19.8530 C   0  0  0  0  0  3  0  0  0  0  0  0
  -28.3180  -24.3410   19.8540 C   0  0  0  0  0  0  0  0  0  0  0  0
  -29.9920  -20.9550   17.6370 C   0  0  0  0  0  1  0  0  0  0  0  0
  -29.5780  -23.6610   16.5130 C   0  0  0  0  0  1  0  0  0  0  0  0
  -28.6180  -24.3980   18.5700 N   0  0  0  0  0  0  0  0  0  0  0  0
  -28.5260  -23.0270   20.4910 N   0  0  0  0  0  0  0  0  0  0  0  0
  -28.1630  -25.7340   20.4350 O   0  0  0  0  0  0  0  0  0  0  0  0
  -24.5880  -31.8190   23.1880 C   0  0  0  0  0  0  0  0  0  0  0  0
  -27.1890  -26.8730   20.2080 C   0  0  0  0  0  0  0  0  0  0  0  0
  -23.4210  -30.4200   21.5300 C   0  0  0  0  0  3  0  0  0  0  0  0
  -24.8940  -28.8000   20.1220 C   0  0  0  0  0  0  0  0  0  0  0  0
  -25.9920  -30.6030   21.4330 C   0  0  0  0  0  2  0  0  0  0  0  0
  -26.0670  -29.1900   20.7730 C   0  0  0  0  0  0  0  0  0  0  0  0
  -27.1970  -28.2430   20.8000 C   0  0  0  0  0  3  0  0  0  0  0  0
  -25.9880  -26.6590   19.4900 C   0  0  0  0  0  3  0  0  0  0  0  0
  -24.8830  -27.5610   19.4590 C   0  0  0  0  0  3  0  0  0  0  0  0
  -23.6740  -29.7280   20.1580 C   0  0  0  0  0  2  0  0  0  0  0  0
  -24.6870  -30.9800   22.1020 N   0  0  0  0  0  0  0  0  0  0  0  0
  -23.4910  -32.1150   23.6870 O   0  0  0  0  0  0  0  0  0  0  0  0
  -22.7060  -29.4320   22.4880 C   0  0  0  0  0  0  0  0  0  0  0  0
  -21.3720  -29.2930   22.3620 N   0  0  0  0  0  0  0  0  0  0  0  0
  -23.3590  -28.7920   23.3160 O   0  0  0  0  0  0  0  0  0  0  0  0
  -20.8940  -29.8670   21.6800 H   0  0  0  0  0  0  0  0  0  0  0  0
  -17.9670  -28.1460   22.8740 C   0  0  0  0  0  0  0  0  0  0  0  0
  -20.5330  -28.3610   23.1240 C   0  0  0  0  0  3  0  0  0  0  0  0
  -20.6020  -26.9360   22.5290 C   0  0  0  0  0  2  0  0  0  0  0  0
  -19.4890  -26.6470   21.5160 C   0  0  0  0  0  2  0  0  0  0  0  0
  -18.1150  -26.8050   22.1720 C   0  0  0  0  0  2  0  0  0  0  0  0
  -19.1010  -28.8840   23.3060 C   0  0  0  0  0  0  0  0  0  0  0  0
  -18.9040  -30.1370   23.9270 C   0  0  0  0  0  3  0  0  0  0  0  0
  -17.6080  -30.6540   24.1130 C   0  0  0  0  0  3  0  0  0  0  0  0
  -16.4900  -29.9120   23.6950 C   0  0  0  0  0  3  0  0  0  0  0  0
  -16.6700  -28.6600   23.0830 C   0  0  0  0  0  3  0  0  0  0  0  0
  -25.8490  -32.4610   23.8440 C   0  0  0  0  0  3  0  0  0  0  0  0
  -25.5360  -33.8690   24.1540 N   0  0  0  0  0  0  0  0  0  0  0  0
  -25.9040  -34.9210   23.4110 C   0  0  0  0  0  0  0  0  0  0  0  0
  -26.6000  -34.8110   22.3990 O   0  0  0  0  0  0  0  0  0  0  0  0
  -24.9210  -34.0320   24.9380 H   0  0  0  0  0  0  0  0  0  0  0  0
  -24.2100  -36.7450   23.0160 C   0  0  0  0  0  1  0  0  0  0  0  0
  -25.4260  -36.3190   23.8570 C   0  0  0  0  0  3  0  0  0  0  0  0
  -27.5500  -37.1810   24.7440 C   0  0  0  0  0  1  0  0  0  0  0  0
  -26.4780  -37.3580   23.7680 N   0  0  0  0  0  0  0  0  0  0  0  0
  -26.0820  -38.2850   23.8960 H   0  0  0  0  0  0  0  0  0  0  0  0
  -26.3210  -31.7120   25.1520 C   0  0  1  0  0  0  0  0  0  0  0  0
  -25.1960  -31.5050   26.1930 C   0  0  0  0  0  1  0  0  0  0  0  0
  -26.9020  -30.3210   24.8140 C   0  0  0  0  0  1  0  0  0  0  0  0
  -27.4600  -32.5110   25.8320 C   0  0  0  0  0  1  0  0  0  0  0  0
  -29.0970  -20.0510   20.4610 C   0  0  0  0  0  2  0  0  0  0  0  0
  -30.4160  -15.4460   20.2050 C   0  0  0  0  0  0  0  0  0  0  0  0
  -30.4210  -12.9570   19.3620 C   0  0  0  0  0  2  0  0  0  0  0  0
  -29.4930  -12.6640   18.1530 C   0  0  0  0  0  2  0  0  0  0  0  0
  -28.0630  -12.3390   18.6210 C   0  0  0  0  0  2  0  0  0  0  0  0
  -27.5940  -13.3110   19.7310 C   0  0  0  0  0  3  0  0  0  0  0  0
  -28.6540  -13.5580   20.8260 C   0  0  0  0  0  2  0  0  0  0  0  0
  -29.8480  -14.1200   20.1610 N   0  0  0  0  0  0  0  0  0  0  0  0
  -31.6450  -15.3940   20.0330 O   0  0  0  0  0  0  0  0  0  0  0  0
  -29.4450  -18.0000   18.4940 C   0  0  0  0  0  2  0  0  0  0  0  0
  -28.5730  -17.0010   19.3260 C   0  0  0  0  0  2  0  0  0  0  0  0
  -29.8930  -18.4520   19.9060 C   0  0  0  0  0  3  0  0  0  0  0  0
  -29.6860  -16.7890   20.2430 N   0  0  0  0  0  0  0  0  0  0  0  0
  -25.2300  -13.8400   20.5160 C   0  0  0  0  0  0  0  0  0  0  0  0
  -24.1790  -13.0510   20.8810 C   0  0  0  0  0  0  0  0  0  0  0  0
  -24.6580  -11.7050   20.8440 C   0  0  0  0  0  0  0  0  0  0  0  0
  -26.2810  -12.9750   20.2640 N   0  0  0  0  0  0  0  0  0  0  0  0
  -25.9490  -11.6850   20.5300 N   0  0  0  0  0  0  0  0  0  0  0  0
  -23.9450  -10.4350   21.0370 C   0  0  0  0  0  0  0  0  0  0  0  0
  -24.3860   -9.4670   21.9650 C   0  0  0  0  0  3  0  0  0  0  0  0
  -23.6620   -8.2680   22.1480 C   0  0  0  0  0  3  0  0  0  0  0  0
  -22.4830   -8.0290   21.4010 C   0  0  0  0  0  0  0  0  0  0  0  0
  -22.0630   -8.9880   20.4610 C   0  0  0  0  0  3  0  0  0  0  0  0
  -22.7870  -10.1760   20.2760 C   0  0  0  0  0  3  0  0  0  0  0  0
  -21.7350   -6.8800   21.4900 O   0  0  0  0  0  0  0  0  0  0  0  0
  -21.6990   -6.1330   22.6390 C   0  0  0  0  0  0  0  0  0  0  0  0
  -21.2690   -6.6780   23.8690 C   0  0  0  0  0  3  0  0  0  0  0  0
  -21.1810   -5.8600   25.0110 C   0  0  0  0  0  3  0  0  0  0  0  0
  -21.5130   -4.4940   24.9250 C   0  0  0  0  0  0  0  0  0  0  0  0
  -21.9370   -3.9470   23.7020 C   0  0  0  0  0  3  0  0  0  0  0  0
  -22.0250   -4.7630   22.5600 C   0  0  0  0  0  0  0  0  0  0  0  0
  -22.4140   -4.2270   21.3780 F   0  0  0  0  0  0  0  0  0  0  0  0
  -21.4220   -3.7040   26.0190 F   0  0  0  0  0  0  0  0  0  0  0  0
  -22.7780  -13.5190   21.1530 C   0  0  0  0  0  0  0  0  0  0  0  0
  -22.0570  -12.8180   22.0180 N   0  0  0  0  0  0  0  0  0  0  0  0
  -22.3360  -14.5420   20.6350 O   0  0  0  0  0  0  0  0  0  0  0  0
  -22.4330  -11.9900   22.4550 H   0  0  0  0  0  0  0  0  0  0  0  0
  -21.1210  -13.1180   22.2480 H   0  0  0  0  0  0  0  0  0  0  0  0
  -25.3730  -15.2140   20.3510 N   0  0  0  0  0  0  0  0  0  0  0  0
  -24.5970  -15.8470   20.5000 H   0  0  0  0  0  0  0  0  0  0  0  0
  -26.2370  -15.6940   20.1360 H   0  0  0  0  0  0  0  0  0  0  0  0
  1  3  1  0
  2  1  2  0
  2  7  1  0
  3 50  1  0
  3  8  1  0
  4  9  1  0
  4  8  2  0
  5  1  1  0
  6  2  1  0
  7  4  2  0
 10 21  2  0
 11  9  1  0
 11 16  1  0
 12 20  1  0
 12 22  1  0
 13 19  1  0
 13 15  1  0
 14 20  1  0
 15 16  2  0
 15 14  1  0
 17 11  2  0
 18 17  1  0
 18 13  2  0
 19 12  1  0
 20 10  1  0
 22 24  2  0
 23 22  1  0
 25 23  1  0
 26 35  2  0
 26 31  1  0
 27 23  1  0
 27 31  1  0
 28 27  1  0
 29 30  1  0
 29 28  1  0
 30 26  1  0
 31 32  2  0
 32 33  1  0
 34 33  2  0
 35 34  1  0
 36 10  1  0
 36 37  1  0
 36 46  1  0
 37 40  1  0
 38 42  1  0
 38 37  1  0
 39 38  2  0
 42 41  1  0
 44 42  1  0
 44 45  1  0
 44 43  1  0
 46 49  1  1
 46 47  1  0
 48 46  1  0
 51 62  1  0
 52 57  1  0
 53 54  1  0
 53 52  1  0
 55 54  1  0
 55 66  1  0
 55 56  1  0
 57 51  1  0
 57 56  1  0
 58 51  2  0
 59 60  1  0
 59 61  1  0
 60 62  1  0
 61 62  1  0
 61 50  1  0
 63 64  2  0
 64 83  1  0
 65 64  1  0
 65 68  1  0
 66 63  1  0
 66 67  1  0
 67 65  2  0
 68 69  1  0
 69 70  2  0
 71 74  1  0
 71 70  1  0
 72 71  2  0
 73 72  1  0
 73 68  2  0
 74 75  1  0
 75 76  1  0
 76 77  2  0
 78 77  1  0
 78 82  1  0
 79 78  2  0
 80 75  2  0
 80 79  1  0
 81 80  1  0
 83 84  1  0
 84 87  1  0
 84 86  1  0
 85 83  2  0
 88 89  1  0
 88 63  1  0
 90 88  1  0
M  ISO  4   4 101   9 101  51 100  62 100
M  END
>  <TORSDO>  (61) 
F 17

>  <SCORE>  (61) 
-16.009

>  <name>  (61) 
60

>  <ligand_id>  (61) 
60

>  <original_smiles>  (61) 
[H]c1c([H])c([H])c2c(c1[H])C([H])([H])C([H])([H])C([H])([H])C2([H])N([H])C(=O)C1([H])N(C(=O)C([H])(N([H])C(=O)C([H])(N([H])C([H])([H])[H])C([H])([H])[H])C(C([H])([H])[H])(C([H])([H])[H])C([H])([H])[H])C([H])([H])c2c([H])c(Oc3nc(C([H])([H])[H])c(C([H])([H])[H])c(C([H])([H])C4([H])N(C(=O)N5C([H])([H])C([H])([H])C([H])([H])C([H])(n6nc(-c7c([H])c([H])c(Oc8c([H])c([H])c(F)c([H])c8F)c([H])c7[H])c(C(=O)N([H])[H])c6N([H])[H])C5([H])[H])C([H])([H])C4([H])[H])n3)c([H])c([H])c2C1([H])[H]

>  <smiles>  (61) 
[H]c1c([H])c([H])c2c(c1[H])C([H])([H])C([H])([H])C([H])([H])C2([H])N([H])C(=O)C1([H])N(C(=O)C([H])(N([H])C(=O)C([H])(N([H])C([H])([H])[H])C([H])([H])[H])C(C([H])([H])[H])(C([H])([H])[H])C([H])([H])[H])C([H])([H])c2c([H])c(Oc3nc(C([H])([H])[H])c(C([H])([H])[H])c(C([H])([H])C4([H])N(C(=O)N5C([H])([H])C([H])([H])C([H])([H])C([H])(n6nc(-c7c([H])c([H])c(Oc8c([H])c([H])c(F)c([H])c8F)c([H])c7[H])c(C(=O)N([H])[H])c6N([H])[H])C5([H])[H])C([H])([H])C4([H])[H])n3)c([H])c([H])c2C1([H])[H]

$$$$
61:0:0
     RDKit          3D

 92101  0  0  1  0  0  0  0  0999 V2000
  -29.9050  -19.3000   19.3340 C   0  0  0  0  0  3  0  0  0  0  0  0
  -30.4540  -18.6640   20.4700 C   0  0  0  0  0  0  0  0  0  0  0  0
  -30.5010  -19.4990   21.6110 C   0  0  0  0  0  0  0  0  0  0  0  0
  -29.4910  -21.2690   20.4830 C   0  0  0  0  0  0  0  0  0  0  0  0
  -31.1100  -19.0250   22.9140 C   0  0  0  0  0  1  0  0  0  0  0  0
  -29.4320  -20.5750   19.3450 N   0  0  0  0  0  0  0  0  0  0  0  0
  -30.0300  -20.7760   21.6020 N   0  0  0  0  0  0  0  0  0  0  0  0
  -27.5660  -22.5590   21.6470 C   0  0  0  0  0  2  0  0  0  0  0  0
  -27.1890  -22.4280   20.2050 C   0  0  0  0  0  2  0  0  0  0  0  0
  -28.6630  -22.5820   20.5830 C   0  0  2  0  0  0  0  0  0  0  0  0
  -29.4040  -23.9560   20.3030 C   0  0  0  0  0  2  0  0  0  0  0  0
  -28.4560  -25.1790   19.9230 C   0  0  0  0  0  2  0  0  0  0  0  0
  -28.7480  -26.6140   20.1470 O   0  0  0  0  0  0  0  0  0  0  0  0
  -24.7680  -31.7200   23.3370 C   0  0  0  0  0  0  0  0  0  0  0  0
  -27.6310  -27.4700   20.0800 C   0  0  0  0  0  0  0  0  0  0  0  0
  -23.6700  -30.3980   21.5680 C   0  0  0  0  0  3  0  0  0  0  0  0
  -25.2210  -29.0100   20.0890 C   0  0  0  0  0  0  0  0  0  0  0  0
  -26.2040  -30.8100   21.5010 C   0  0  0  0  0  2  0  0  0  0  0  0
  -26.3520  -29.4850   20.7650 C   0  0  0  0  0  0  0  0  0  0  0  0
  -27.5610  -28.7250   20.7580 C   0  0  0  0  0  3  0  0  0  0  0  0
  -26.4760  -27.0700   19.3590 C   0  0  0  0  0  3  0  0  0  0  0  0
  -25.2840  -27.8080   19.3780 C   0  0  0  0  0  3  0  0  0  0  0  0
  -23.9530  -29.8340   20.1530 C   0  0  0  0  0  2  0  0  0  0  0  0
  -24.8980  -30.9900   22.1920 N   0  0  0  0  0  0  0  0  0  0  0  0
  -23.6580  -31.9260   23.8480 O   0  0  0  0  0  0  0  0  0  0  0  0
  -23.0150  -29.2920   22.4300 C   0  0  0  0  0  0  0  0  0  0  0  0
  -21.7000  -29.0860   22.2500 N   0  0  0  0  0  0  0  0  0  0  0  0
  -23.6900  -28.6290   23.2210 O   0  0  0  0  0  0  0  0  0  0  0  0
  -21.2130  -29.6780   21.5910 H   0  0  0  0  0  0  0  0  0  0  0  0
  -18.3410  -27.7840   22.5830 C   0  0  0  0  0  0  0  0  0  0  0  0
  -20.8870  -28.0750   22.9290 C   0  0  0  0  0  3  0  0  0  0  0  0
  -21.0330  -26.6930   22.2500 C   0  0  0  0  0  2  0  0  0  0  0  0
  -19.9590  -26.4250   21.1910 C   0  0  0  0  0  2  0  0  0  0  0  0
  -18.5610  -26.4930   21.8130 C   0  0  0  0  0  2  0  0  0  0  0  0
  -19.4330  -28.5340   23.0940 C   0  0  0  0  0  0  0  0  0  0  0  0
  -19.1740  -29.7450   23.7720 C   0  0  0  0  0  3  0  0  0  0  0  0
  -17.8550  -30.2050   23.9460 C   0  0  0  0  0  3  0  0  0  0  0  0
  -16.7770  -29.4500   23.4510 C   0  0  0  0  0  3  0  0  0  0  0  0
  -17.0210  -28.2420   22.7760 C   0  0  0  0  0  3  0  0  0  0  0  0
  -26.0080  -32.3510   24.0430 C   0  0  0  0  0  3  0  0  0  0  0  0
  -26.4630  -31.5530   25.3260 C   0  0  1  0  0  0  0  0  0  0  0  0
  -25.3160  -31.2760   26.3270 C   0  0  0  0  0  1  0  0  0  0  0  0
  -27.0840  -30.1930   24.9330 C   0  0  0  0  0  1  0  0  0  0  0  0
  -27.5650  -32.3430   26.0700 C   0  0  0  0  0  1  0  0  0  0  0  0
  -25.6610  -33.7360   24.3900 N   0  0  0  0  0  0  0  0  0  0  0  0
  -25.9890  -34.8090   23.6580 C   0  0  0  0  0  0  0  0  0  0  0  0
  -26.6840  -34.7380   22.6420 O   0  0  0  0  0  0  0  0  0  0  0  0
  -25.0440  -33.8640   25.1790 H   0  0  0  0  0  0  0  0  0  0  0  0
  -24.2180  -36.5610   23.3120 C   0  0  0  0  0  1  0  0  0  0  0  0
  -25.4610  -36.1780   24.1280 C   0  0  0  0  0  3  0  0  0  0  0  0
  -27.5610  -37.1120   24.9960 C   0  0  0  0  0  1  0  0  0  0  0  0
  -26.4680  -37.2590   24.0380 N   0  0  0  0  0  0  0  0  0  0  0  0
  -26.0350  -38.1670   24.1870 H   0  0  0  0  0  0  0  0  0  0  0  0
  -31.1900  -17.2780   20.3630 C   0  0  0  0  0  2  0  0  0  0  0  0
  -31.1500  -14.7670   20.1780 C   0  0  0  0  0  0  0  0  0  0  0  0
  -30.8010  -12.5260   19.1860 C   0  0  0  0  0  2  0  0  0  0  0  0
  -29.8590  -12.6440   17.9700 C   0  0  0  0  0  2  0  0  0  0  0  0
  -28.3900  -12.5330   18.4170 C   0  0  0  0  0  2  0  0  0  0  0  0
  -28.0590  -13.4450   19.6300 C   0  0  0  0  0  3  0  0  0  0  0  0
  -29.1270  -13.3390   20.7410 C   0  0  0  0  0  2  0  0  0  0  0  0
  -30.4340  -13.6020   20.1290 N   0  0  0  0  0  0  0  0  0  0  0  0
  -32.3220  -14.8030   19.7970 O   0  0  0  0  0  0  0  0  0  0  0  0
  -30.5020  -15.9420   20.4530 N   0  0  0  0  0  0  0  0  0  0  0  0
  -29.5270  -15.9000   20.7080 H   0  0  0  0  0  0  0  0  0  0  0  0
  -25.7060  -14.0990   20.4230 C   0  0  0  0  0  0  0  0  0  0  0  0
  -24.6200  -13.3510   20.7920 C   0  0  0  0  0  0  0  0  0  0  0  0
  -25.0350  -11.9870   20.7090 C   0  0  0  0  0  0  0  0  0  0  0  0
  -26.7130  -13.1920   20.1380 N   0  0  0  0  0  0  0  0  0  0  0  0
  -26.3170  -11.9140   20.3730 N   0  0  0  0  0  0  0  0  0  0  0  0
  -24.2670  -10.7440   20.8750 C   0  0  0  0  0  0  0  0  0  0  0  0
  -24.6530   -9.7560   21.8080 C   0  0  0  0  0  3  0  0  0  0  0  0
  -23.8880   -8.5810   21.9620 C   0  0  0  0  0  3  0  0  0  0  0  0
  -22.7230   -8.3840   21.1830 C   0  0  0  0  0  0  0  0  0  0  0  0
  -22.3570   -9.3590   20.2390 C   0  0  0  0  0  3  0  0  0  0  0  0
  -23.1230  -10.5270   20.0830 C   0  0  0  0  0  3  0  0  0  0  0  0
  -21.9320   -7.2610   21.2460 O   0  0  0  0  0  0  0  0  0  0  0  0
  -21.7800   -6.5530   22.4110 C   0  0  0  0  0  0  0  0  0  0  0  0
  -21.2630   -7.1480   23.5840 C   0  0  0  0  0  3  0  0  0  0  0  0
  -21.0590   -6.3660   24.7380 C   0  0  0  0  0  3  0  0  0  0  0  0
  -21.3620   -4.9920   24.7220 C   0  0  0  0  0  0  0  0  0  0  0  0
  -21.8710   -4.3970   23.5540 C   0  0  0  0  0  3  0  0  0  0  0  0
  -22.0770   -5.1750   22.4010 C   0  0  0  0  0  0  0  0  0  0  0  0
  -22.5480   -4.5920   21.2730 F   0  0  0  0  0  0  0  0  0  0  0  0
  -21.1580   -4.2390   25.8280 F   0  0  0  0  0  0  0  0  0  0  0  0
  -23.2460  -13.8680   21.1070 C   0  0  0  0  0  0  0  0  0  0  0  0
  -22.5150  -13.1760   21.9720 N   0  0  0  0  0  0  0  0  0  0  0  0
  -22.8330  -14.9190   20.6200 O   0  0  0  0  0  0  0  0  0  0  0  0
  -22.8630  -12.3250   22.3870 H   0  0  0  0  0  0  0  0  0  0  0  0
  -21.5930  -13.5030   22.2260 H   0  0  0  0  0  0  0  0  0  0  0  0
  -25.9150  -15.4690   20.2810 N   0  0  0  0  0  0  0  0  0  0  0  0
  -25.1720  -16.1440   20.4250 H   0  0  0  0  0  0  0  0  0  0  0  0
  -26.7670  -15.8860   19.9310 H   0  0  0  0  0  0  0  0  0  0  0  0
  1  6  1  0
  1  2  2  0
  2  3  1  0
  3  5  1  0
  4 10  1  0
  4  7  1  0
  6  4  2  0
  7  3  2  0
  9 10  1  0
  9  8  1  0
 10  8  1  0
 10 11  1  6
 12 13  1  0
 12 11  1  0
 14 25  2  0
 15 13  1  0
 15 20  1  0
 16 24  1  0
 16 26  1  0
 17 23  1  0
 17 19  1  0
 18 24  1  0
 19 18  1  0
 20 19  2  0
 21 22  1  0
 21 15  2  0
 22 17  2  0
 23 16  1  0
 24 14  1  0
 26 28  2  0
 27 26  1  0
 29 27  1  0
 30 39  2  0
 30 35  1  0
 31 27  1  0
 31 35  1  0
 32 31  1  0
 33 34  1  0
 33 32  1  0
 34 30  1  0
 35 36  2  0
 36 37  1  0
 38 37  2  0
 39 38  1  0
 40 14  1  0
 40 45  1  0
 40 41  1  0
 41 44  1  1
 41 42  1  0
 43 41  1  0
 45 48  1  0
 46 50  1  0
 46 45  1  0
 47 46  2  0
 50 49  1  0
 52 50  1  0
 52 53  1  0
 52 51  1  0
 54 63  1  0
 54  2  1  0
 55 63  1  0
 56 61  1  0
 57 58  1  0
 57 56  1  0
 59 58  1  0
 59 68  1  0
 59 60  1  0
 61 55  1  0
 61 60  1  0
 62 55  2  0
 63 64  1  0
 65 66  2  0
 66 85  1  0
 67 66  1  0
 67 70  1  0
 68 69  1  0
 68 65  1  0
 69 67  2  0
 70 71  1  0
 71 72  2  0
 73 76  1  0
 73 72  1  0
 74 73  2  0
 75 74  1  0
 75 70  2  0
 76 77  1  0
 77 78  1  0
 78 79  2  0
 80 79  1  0
 80 84  1  0
 81 80  2  0
 82 77  2  0
 82 81  1  0
 83 82  1  0
 85 86  1  0
 86 89  1  0
 86 88  1  0
 87 85  2  0
 90 65  1  0
 90 91  1  0
 92 90  1  0
M  ISO  4  12 101  13 101  55 100  63 100
M  END
>  <TORSDO>  (62) 
F 20

>  <SCORE>  (62) 
-13.118

>  <name>  (62) 
61

>  <ligand_id>  (62) 
61

>  <original_smiles>  (62) 
[H]c1nc(C2(C([H])([H])C([H])([H])Oc3c([H])c([H])c4c(c3[H])C([H])([H])N(C(=O)C([H])(N([H])C(=O)C([H])(N([H])C([H])([H])[H])C([H])([H])[H])C(C([H])([H])[H])(C([H])([H])[H])C([H])([H])[H])C([H])(C(=O)N([H])C3([H])c5c([H])c([H])c([H])c([H])c5C([H])([H])C([H])([H])C3([H])[H])C4([H])[H])C([H])([H])C2([H])[H])nc(C([H])([H])[H])c1C([H])([H])N([H])C(=O)N1C([H])([H])C([H])([H])C([H])([H])C([H])(n2nc(-c3c([H])c([H])c(Oc4c([H])c([H])c(F)c([H])c4F)c([H])c3[H])c(C(=O)N([H])[H])c2N([H])[H])C1([H])[H]

>  <smiles>  (62) 
[H]c1nc(C2(C([H])([H])C([H])([H])Oc3c([H])c([H])c4c(c3[H])C([H])([H])N(C(=O)C([H])(N([H])C(=O)C([H])(N([H])C([H])([H])[H])C([H])([H])[H])C(C([H])([H])[H])(C([H])([H])[H])C([H])([H])[H])C([H])(C(=O)N([H])C3([H])c5c([H])c([H])c([H])c([H])c5C([H])([H])C([H])([H])C3([H])[H])C4([H])[H])C([H])([H])C2([H])[H])nc(C([H])([H])[H])c1C([H])([H])N([H])C(=O)N1C([H])([H])C([H])([H])C([H])([H])C([H])(n2nc(-c3c([H])c([H])c(Oc4c([H])c([H])c(F)c([H])c4F)c([H])c3[H])c(C(=O)N([H])[H])c2N([H])[H])C1([H])[H]

$$$$
62:0:0
     RDKit          3D

 90 99  0  0  1  0  0  0  0  0999 V2000
  -30.7160  -15.5700   19.9250 C   0  0  0  0  0  0  0  0  0  0  0  0
  -30.6880  -13.0030   19.3110 C   0  0  0  0  0  2  0  0  0  0  0  0
  -29.7890  -12.5910   18.1150 C   0  0  0  0  0  2  0  0  0  0  0  0
  -28.3470  -12.3410   18.5800 C   0  0  0  0  0  2  0  0  0  0  0  0
  -27.8760  -13.4280   19.5750 C   0  0  0  0  0  3  0  0  0  0  0  0
  -28.9110  -13.7600   20.6720 C   0  0  0  0  0  2  0  0  0  0  0  0
  -30.1200  -14.2510   19.9820 N   0  0  0  0  0  0  0  0  0  0  0  0
  -31.9320  -15.4470   19.6870 O   0  0  0  0  0  0  0  0  0  0  0  0
  -29.3070  -21.0860   18.6660 C   0  0  0  0  0  3  0  0  0  0  0  0
  -29.6220  -19.6950   19.2580 C   0  0  0  0  0  0  0  0  0  0  0  0
  -29.7110  -19.5900   20.6170 C   0  0  0  0  0  0  0  0  0  0  0  0
  -29.1100  -22.4190   19.4050 C   0  0  0  0  0  0  0  0  0  0  0  0
  -29.5190  -20.8600   21.3150 C   0  0  0  0  0  0  0  0  0  0  0  0
  -29.9090  -18.1160   18.7940 C   0  0  0  0  0  2  0  0  0  0  0  0
  -30.0310  -18.0380   21.0700 C   0  0  1  0  0  0  0  0  0  0  0  0
  -29.5880  -20.9090   22.8290 C   0  0  0  0  0  1  0  0  0  0  0  0
  -31.4130  -18.0220   21.7550 C   0  0  0  0  0  1  0  0  0  0  0  0
  -28.9690  -17.5660   22.0810 C   0  0  0  0  0  1  0  0  0  0  0  0
  -29.2440  -22.1280   20.7530 N   0  0  0  0  0  0  0  0  0  0  0  0
  -30.0570  -16.9640   19.9200 N   0  0  0  0  0  0  0  0  0  0  0  0
  -25.5590  -14.0850   20.3840 C   0  0  0  0  0  0  0  0  0  0  0  0
  -24.4650  -13.3590   20.7590 C   0  0  0  0  0  0  0  0  0  0  0  0
  -24.8620  -11.9870   20.7080 C   0  0  0  0  0  0  0  0  0  0  0  0
  -26.5500  -13.1620   20.1110 N   0  0  0  0  0  0  0  0  0  0  0  0
  -26.1450  -11.8910   20.3760 N   0  0  0  0  0  0  0  0  0  0  0  0
  -24.0710  -10.7630   20.8960 C   0  0  0  0  0  0  0  0  0  0  0  0
  -24.4520   -9.7720   21.8270 C   0  0  0  0  0  3  0  0  0  0  0  0
  -23.6620   -8.6160   22.0080 C   0  0  0  0  0  3  0  0  0  0  0  0
  -22.4760   -8.4410   21.2550 C   0  0  0  0  0  0  0  0  0  0  0  0
  -22.1130   -9.4190   20.3120 C   0  0  0  0  0  3  0  0  0  0  0  0
  -22.9030  -10.5670   20.1310 C   0  0  0  0  0  3  0  0  0  0  0  0
  -21.6610   -7.3380   21.3430 O   0  0  0  0  0  0  0  0  0  0  0  0
  -21.5720   -6.5990   22.4950 C   0  0  0  0  0  0  0  0  0  0  0  0
  -21.1690   -7.1740   23.7200 C   0  0  0  0  0  3  0  0  0  0  0  0
  -21.0230   -6.3650   24.8640 C   0  0  0  0  0  3  0  0  0  0  0  0
  -21.2710   -4.9810   24.7840 C   0  0  0  0  0  0  0  0  0  0  0  0
  -21.6680   -4.4060   23.5640 C   0  0  0  0  0  3  0  0  0  0  0  0
  -21.8140   -5.2130   22.4230 C   0  0  0  0  0  0  0  0  0  0  0  0
  -22.1760   -4.6490   21.2440 F   0  0  0  0  0  0  0  0  0  0  0  0
  -21.1250   -4.2010   25.8810 F   0  0  0  0  0  0  0  0  0  0  0  0
  -23.0990  -13.9060   21.0510 C   0  0  0  0  0  0  0  0  0  0  0  0
  -22.3530  -13.2520   21.9340 N   0  0  0  0  0  0  0  0  0  0  0  0
  -22.7060  -14.9490   20.5310 O   0  0  0  0  0  0  0  0  0  0  0  0
  -22.6860  -12.4070   22.3740 H   0  0  0  0  0  0  0  0  0  0  0  0
  -21.4360  -13.6020   22.1720 H   0  0  0  0  0  0  0  0  0  0  0  0
  -25.7900  -15.4490   20.2200 N   0  0  0  0  0  0  0  0  0  0  0  0
  -25.0620  -16.1410   20.3620 H   0  0  0  0  0  0  0  0  0  0  0  0
  -26.6620  -15.8500   19.8990 H   0  0  0  0  0  0  0  0  0  0  0  0
  -28.4850  -24.0480   18.8560 C   0  0  0  0  0  2  0  0  0  0  0  0
  -28.5950  -25.7090   19.2610 O   0  0  0  0  0  0  0  0  0  0  0  0
  -24.6800  -31.3140   22.7370 C   0  0  0  0  0  0  0  0  0  0  0  0
  -27.5290  -26.8060   19.2790 C   0  0  0  0  0  0  0  0  0  0  0  0
  -23.5560  -29.9420   21.0330 C   0  0  0  0  0  3  0  0  0  0  0  0
  -25.0860  -28.5640   19.4450 C   0  0  0  0  0  0  0  0  0  0  0  0
  -26.0980  -30.3520   20.8390 C   0  0  0  0  0  2  0  0  0  0  0  0
  -26.2630  -28.9940   20.0700 C   0  0  0  0  0  0  0  0  0  0  0  0
  -27.4670  -28.1380   19.9640 C   0  0  0  0  0  3  0  0  0  0  0  0
  -26.3050  -26.5670   18.6060 C   0  0  0  0  0  3  0  0  0  0  0  0
  -25.1370  -27.3790   18.6930 C   0  0  0  0  0  3  0  0  0  0  0  0
  -23.7990  -29.3820   19.6030 C   0  0  0  0  0  2  0  0  0  0  0  0
  -24.8000  -30.5650   21.5890 N   0  0  0  0  0  0  0  0  0  0  0  0
  -23.5870  -31.4720   23.3060 O   0  0  0  0  0  0  0  0  0  0  0  0
  -22.9760  -28.8280   21.9450 C   0  0  0  0  0  0  0  0  0  0  0  0
  -21.6550  -28.5730   21.8640 N   0  0  0  0  0  0  0  0  0  0  0  0
  -23.7220  -28.1940   22.6940 O   0  0  0  0  0  0  0  0  0  0  0  0
  -21.0980  -29.1380   21.2390 H   0  0  0  0  0  0  0  0  0  0  0  0
  -18.3960  -27.0790   22.4450 C   0  0  0  0  0  0  0  0  0  0  0  0
  -20.9440  -27.5130   22.5890 C   0  0  0  0  0  3  0  0  0  0  0  0
  -21.1080  -26.1480   21.8810 C   0  0  0  0  0  2  0  0  0  0  0  0
  -19.9710  -25.8360   20.9030 C   0  0  0  0  0  2  0  0  0  0  0  0
  -18.6250  -25.8170   21.6310 C   0  0  0  0  0  2  0  0  0  0  0  0
  -19.4830  -27.8850   22.8800 C   0  0  0  0  0  0  0  0  0  0  0  0
  -19.2110  -29.0640   23.6080 C   0  0  0  0  0  3  0  0  0  0  0  0
  -17.8860  -29.4410   23.8980 C   0  0  0  0  0  3  0  0  0  0  0  0
  -16.8160  -28.6340   23.4740 C   0  0  0  0  0  3  0  0  0  0  0  0
  -17.0710  -27.4540   22.7540 C   0  0  0  0  0  3  0  0  0  0  0  0
  -25.9090  -32.0240   23.3830 C   0  0  0  0  0  3  0  0  0  0  0  0
  -25.4730  -33.3520   23.8550 N   0  0  0  0  0  0  0  0  0  0  0  0
  -25.6680  -34.5060   23.2020 C   0  0  0  0  0  0  0  0  0  0  0  0
  -26.2930  -34.5700   22.1400 O   0  0  0  0  0  0  0  0  0  0  0  0
  -24.9090  -33.3670   24.6910 H   0  0  0  0  0  0  0  0  0  0  0  0
  -23.7550  -36.1440   23.1260 C   0  0  0  0  0  1  0  0  0  0  0  0
  -25.0810  -35.7930   23.8210 C   0  0  0  0  0  3  0  0  0  0  0  0
  -27.1670  -36.8190   24.6140 C   0  0  0  0  0  1  0  0  0  0  0  0
  -25.9950  -36.9540   23.7530 N   0  0  0  0  0  0  0  0  0  0  0  0
  -25.5110  -37.8100   24.0090 H   0  0  0  0  0  0  0  0  0  0  0  0
  -26.5350  -31.2080   24.5810 C   0  0  1  0  0  0  0  0  0  0  0  0
  -25.5070  -30.7960   25.6610 C   0  0  0  0  0  1  0  0  0  0  0  0
  -27.2200  -29.9190   24.0750 C   0  0  0  0  0  1  0  0  0  0  0  0
  -27.6370  -32.0490   25.2670 C   0  0  0  0  0  1  0  0  0  0  0  0
  1  7  1  0
  2  7  1  0
  3  4  1  0
  3  2  1  0
  5  4  1  0
  5 24  1  0
  5  6  1  0
  7  6  1  0
  8  1  2  0
  9 10  2  0
  9 12  1  0
 10 11  1  0
 11 15  1  0
 11 13  2  0
 12 19  2  0
 13 16  1  0
 14 10  1  0
 14 20  1  0
 15 17  1  1
 15 18  1  0
 19 13  1  0
 20  1  1  0
 20 15  1  0
 21 22  2  0
 22 41  1  0
 23 22  1  0
 23 26  1  0
 24 25  1  0
 24 21  1  0
 25 23  2  0
 26 27  1  0
 27 28  2  0
 29 32  1  0
 29 28  1  0
 30 29  2  0
 31 30  1  0
 31 26  2  0
 32 33  1  0
 33 34  1  0
 34 35  2  0
 36 35  1  0
 36 40  1  0
 37 36  2  0
 38 33  2  0
 38 37  1  0
 39 38  1  0
 41 42  1  0
 42 45  1  0
 42 44  1  0
 43 41  2  0
 46 47  1  0
 46 21  1  0
 48 46  1  0
 49 50  1  0
 49 12  1  0
 50 52  1  0
 51 62  2  0
 52 57  1  0
 53 61  1  0
 53 63  1  0
 54 60  1  0
 54 56  1  0
 55 61  1  0
 56 55  1  0
 57 56  2  0
 58 59  1  0
 58 52  2  0
 59 54  2  0
 60 53  1  0
 61 51  1  0
 63 65  2  0
 64 63  1  0
 66 64  1  0
 67 76  2  0
 67 72  1  0
 68 64  1  0
 68 72  1  0
 69 68  1  0
 70 71  1  0
 70 69  1  0
 71 67  1  0
 72 73  2  0
 73 74  1  0
 75 74  2  0
 76 75  1  0
 77 51  1  0
 77 78  1  0
 77 87  1  0
 78 81  1  0
 79 83  1  0
 79 78  1  0
 80 79  2  0
 83 82  1  0
 85 83  1  0
 85 86  1  0
 85 84  1  0
 87 90  1  1
 87 88  1  0
 89 87  1  0
M  ISO  4   1 100  20 100  49 101  50 101
M  END
>  <TORSDO>  (63) 
F 16

>  <SCORE>  (63) 
-12.051

>  <name>  (63) 
62

>  <ligand_id>  (63) 
62

>  <original_smiles>  (63) 
[H]c1c([H])c([H])c2c(c1[H])C([H])([H])C([H])([H])C([H])([H])C2([H])N([H])C(=O)C1([H])N(C(=O)C([H])(N([H])C(=O)C([H])(N([H])C([H])([H])[H])C([H])([H])[H])C(C([H])([H])[H])(C([H])([H])[H])C([H])([H])[H])C([H])([H])c2c([H])c(OC([H])([H])c3nc(C([H])([H])[H])c4c(c3[H])C([H])([H])N(C(=O)N3C([H])([H])C([H])([H])C([H])([H])C([H])(n5nc(-c6c([H])c([H])c(Oc7c([H])c([H])c(F)c([H])c7F)c([H])c6[H])c(C(=O)N([H])[H])c5N([H])[H])C3([H])[H])C4(C([H])([H])[H])C([H])([H])[H])c([H])c([H])c2C1([H])[H]

>  <smiles>  (63) 
[H]c1c([H])c([H])c2c(c1[H])C([H])([H])C([H])([H])C([H])([H])C2([H])N([H])C(=O)C1([H])N(C(=O)C([H])(N([H])C(=O)C([H])(N([H])C([H])([H])[H])C([H])([H])[H])C(C([H])([H])[H])(C([H])([H])[H])C([H])([H])[H])C([H])([H])c2c([H])c(OC([H])([H])c3nc(C([H])([H])[H])c4c(c3[H])C([H])([H])N(C(=O)N3C([H])([H])C([H])([H])C([H])([H])C([H])(n5nc(-c6c([H])c([H])c(Oc7c([H])c([H])c(F)c([H])c7F)c([H])c6[H])c(C(=O)N([H])[H])c5N([H])[H])C3([H])[H])C4(C([H])([H])[H])C([H])([H])[H])c([H])c([H])c2C1([H])[H]

$$$$
63:0:0
     RDKit          3D

 95105  0  0  1  0  0  0  0  0999 V2000
  -30.0690  -22.4070   19.3300 C   0  0  0  0  0  3  0  0  0  0  0  0
  -29.1130  -20.6340   21.0520 C   0  0  0  0  0  3  0  0  0  0  0  0
  -30.5750  -19.8540   19.6220 C   0  0  0  0  0  3  0  0  0  0  0  0
  -29.9460  -21.0270   19.9630 C   0  0  0  0  0  0  0  0  0  0  0  0
  -29.2330  -19.3540   21.3710 N   0  0  0  0  0  0  0  0  0  0  0  0
  -30.1260  -18.8660   20.4820 N   0  0  0  0  0  0  0  0  0  0  0  0
  -30.6980  -14.4640   20.3400 C   0  0  0  0  0  0  0  0  0  0  0  0
  -30.3430  -12.3540   19.1150 C   0  0  0  0  0  2  0  0  0  0  0  0
  -29.3750  -12.6080   17.9420 C   0  0  0  0  0  2  0  0  0  0  0  0
  -27.9110  -12.4660   18.3960 C   0  0  0  0  0  2  0  0  0  0  0  0
  -27.6080  -13.2690   19.6890 C   0  0  0  0  0  3  0  0  0  0  0  0
  -28.6810  -13.0080   20.7700 C   0  0  0  0  0  2  0  0  0  0  0  0
  -30.0020  -13.3050   20.1850 N   0  0  0  0  0  0  0  0  0  0  0  0
  -31.8140  -14.6510   19.8490 O   0  0  0  0  0  0  0  0  0  0  0  0
  -29.2890  -16.4560   20.1890 C   0  0  0  0  0  2  0  0  0  0  0  0
  -30.6990  -16.5890   21.6730 C   0  0  0  0  0  2  0  0  0  0  0  0
  -30.4170  -17.4530   20.4410 C   0  0  0  0  0  3  0  0  0  0  0  0
  -30.0410  -15.4640   20.9740 N   0  0  0  0  0  0  0  0  0  0  0  0
  -25.2170  -13.8890   20.4210 C   0  0  0  0  0  0  0  0  0  0  0  0
  -24.1510  -13.1200   20.8010 C   0  0  0  0  0  0  0  0  0  0  0  0
  -24.6080  -11.7660   20.7710 C   0  0  0  0  0  0  0  0  0  0  0  0
  -26.2580  -13.0030   20.1830 N   0  0  0  0  0  0  0  0  0  0  0  0
  -25.8950  -11.7220   20.4480 N   0  0  0  0  0  0  0  0  0  0  0  0
  -23.8840  -10.5060   20.9810 C   0  0  0  0  0  0  0  0  0  0  0  0
  -24.3190   -9.5540   21.9290 C   0  0  0  0  0  3  0  0  0  0  0  0
  -23.5960   -8.3570   22.1230 C   0  0  0  0  0  3  0  0  0  0  0  0
  -22.4230   -8.1050   21.3720 C   0  0  0  0  0  0  0  0  0  0  0  0
  -22.0070   -9.0490   20.4160 C   0  0  0  0  0  3  0  0  0  0  0  0
  -22.7280  -10.2370   20.2210 C   0  0  0  0  0  3  0  0  0  0  0  0
  -21.6740   -6.9590   21.4740 O   0  0  0  0  0  0  0  0  0  0  0  0
  -21.6220   -6.2340   22.6390 C   0  0  0  0  0  0  0  0  0  0  0  0
  -21.1650   -6.8010   23.8480 C   0  0  0  0  0  3  0  0  0  0  0  0
  -21.0600   -6.0030   25.0040 C   0  0  0  0  0  3  0  0  0  0  0  0
  -21.4010   -4.6380   24.9520 C   0  0  0  0  0  0  0  0  0  0  0  0
  -21.8510   -4.0710   23.7470 C   0  0  0  0  0  3  0  0  0  0  0  0
  -21.9580   -4.8680   22.5930 C   0  0  0  0  0  0  0  0  0  0  0  0
  -22.3710   -4.3100   21.4300 F   0  0  0  0  0  0  0  0  0  0  0  0
  -21.2940   -3.8710   26.0610 F   0  0  0  0  0  0  0  0  0  0  0  0
  -22.7580  -13.5990   21.0910 C   0  0  0  0  0  0  0  0  0  0  0  0
  -22.0420  -12.9060   21.9670 N   0  0  0  0  0  0  0  0  0  0  0  0
  -22.3120  -14.6240   20.5750 O   0  0  0  0  0  0  0  0  0  0  0  0
  -22.4130  -12.0770   22.4070 H   0  0  0  0  0  0  0  0  0  0  0  0
  -21.1110  -13.2120   22.2090 H   0  0  0  0  0  0  0  0  0  0  0  0
  -25.3810  -15.2610   20.2360 N   0  0  0  0  0  0  0  0  0  0  0  0
  -24.6270  -15.9180   20.3930 H   0  0  0  0  0  0  0  0  0  0  0  0
  -26.2450  -15.7060   19.9520 H   0  0  0  0  0  0  0  0  0  0  0  0
  -29.4100  -23.1150   16.8750 C   0  0  0  0  0  2  0  0  0  0  0  0
  -28.9160  -21.7020   17.0390 C   0  0  0  0  0  2  0  0  0  0  0  0
  -29.0070  -22.6100   18.2480 C   0  0  0  0  0  3  0  0  0  0  0  0
  -30.0510  -23.4450   20.3980 N   0  0  0  0  0  4  0  0  0  0  0  0
  -29.3760  -23.1970   21.1010 H   0  0  0  0  0  0  0  0  0  0  0  0
  -30.9580  -23.3730   20.8350 H   0  0  0  0  0  0  0  0  0  0  0  0
  -29.8820  -24.8780   20.0290 C   0  0  0  0  0  2  0  0  0  0  0  0
  -28.4180  -25.3720   19.9970 C   0  0  0  0  0  2  0  0  0  0  0  0
  -28.4230  -26.7890   20.1720 O   0  0  0  0  0  0  0  0  0  0  0  0
  -24.5670  -31.8920   23.2400 C   0  0  0  0  0  0  0  0  0  0  0  0
  -27.2190  -27.4600   20.1660 C   0  0  0  0  0  0  0  0  0  0  0  0
  -23.3630  -30.4900   21.5960 C   0  0  0  0  0  3  0  0  0  0  0  0
  -24.8170  -28.9570   20.1760 C   0  0  0  0  0  0  0  0  0  0  0  0
  -25.8900  -30.8520   21.4050 C   0  0  0  0  0  2  0  0  0  0  0  0
  -25.9720  -29.4850   20.7600 C   0  0  0  0  0  0  0  0  0  0  0  0
  -27.1740  -28.7460   20.7470 C   0  0  0  0  0  3  0  0  0  0  0  0
  -26.0370  -26.9330   19.5900 C   0  0  0  0  0  3  0  0  0  0  0  0
  -24.8430  -27.6790   19.5910 C   0  0  0  0  0  3  0  0  0  0  0  0
  -23.5700  -29.8110   20.2180 C   0  0  0  0  0  2  0  0  0  0  0  0
  -24.6230  -31.0940   22.1370 N   0  0  0  0  0  0  0  0  0  0  0  0
  -23.4850  -32.1640   23.7780 O   0  0  0  0  0  0  0  0  0  0  0  0
  -22.7150  -29.4650   22.5540 C   0  0  0  0  0  0  0  0  0  0  0  0
  -21.3920  -29.2770   22.4200 N   0  0  0  0  0  0  0  0  0  0  0  0
  -23.3980  -28.8430   23.3710 O   0  0  0  0  0  0  0  0  0  0  0  0
  -20.9030  -29.8310   21.7310 H   0  0  0  0  0  0  0  0  0  0  0  0
  -18.0190  -28.0810   22.8990 C   0  0  0  0  0  0  0  0  0  0  0  0
  -20.5750  -28.3350   23.1830 C   0  0  0  0  0  3  0  0  0  0  0  0
  -20.6780  -26.9060   22.6010 C   0  0  0  0  0  2  0  0  0  0  0  0
  -19.5800  -26.5860   21.5820 C   0  0  0  0  0  2  0  0  0  0  0  0
  -18.1960  -26.7320   22.2220 C   0  0  0  0  0  2  0  0  0  0  0  0
  -19.1370  -28.8400   23.3350 C   0  0  0  0  0  0  0  0  0  0  0  0
  -18.9170  -30.1050   23.9240 C   0  0  0  0  0  3  0  0  0  0  0  0
  -17.6120  -30.6090   24.0820 C   0  0  0  0  0  3  0  0  0  0  0  0
  -16.5080  -29.8450   23.6670 C   0  0  0  0  0  3  0  0  0  0  0  0
  -16.7130  -28.5820   23.0810 C   0  0  0  0  0  3  0  0  0  0  0  0
  -25.8550  -32.5190   23.8620 C   0  0  0  0  0  3  0  0  0  0  0  0
  -25.5500  -33.9200   24.1830 N   0  0  0  0  0  0  0  0  0  0  0  0
  -25.8930  -34.9660   23.4210 C   0  0  0  0  0  0  0  0  0  0  0  0
  -26.5720  -34.8550   22.3960 O   0  0  0  0  0  0  0  0  0  0  0  0
  -24.9530  -34.0800   24.9820 H   0  0  0  0  0  0  0  0  0  0  0  0
  -24.1830  -36.7670   23.0260 C   0  0  0  0  0  1  0  0  0  0  0  0
  -25.4050  -36.3580   23.8650 C   0  0  0  0  0  3  0  0  0  0  0  0
  -27.5230  -37.2360   24.7450 C   0  0  0  0  0  1  0  0  0  0  0  0
  -26.4470  -37.4040   23.7710 N   0  0  0  0  0  0  0  0  0  0  0  0
  -26.0430  -38.3280   23.8970 H   0  0  0  0  0  0  0  0  0  0  0  0
  -26.3650  -31.7520   25.1430 C   0  0  1  0  0  0  0  0  0  0  0  0
  -25.2710  -31.5260   26.2110 C   0  0  0  0  0  1  0  0  0  0  0  0
  -26.9430  -30.3700   24.7590 C   0  0  0  0  0  1  0  0  0  0  0  0
  -27.5190  -32.5430   25.8020 C   0  0  0  0  0  1  0  0  0  0  0  0
  1  4  1  0
  1 50  1  0
  2  5  2  0
  3  4  2  0
  3  6  1  0
  4  2  1  0
  6  5  1  0
  7 18  1  0
  8 13  1  0
  9 10  1  0
  9  8  1  0
 11 10  1  0
 11 22  1  0
 11 12  1  0
 13  7  1  0
 13 12  1  0
 14  7  2  0
 15 18  1  0
 17 15  1  0
 17  6  1  0
 17 16  1  0
 18 16  1  0
 19 20  2  0
 20 39  1  0
 21 20  1  0
 21 24  1  0
 22 19  1  0
 22 23  1  0
 23 21  2  0
 24 25  1  0
 25 26  2  0
 27 30  1  0
 27 26  1  0
 28 27  2  0
 29 28  1  0
 29 24  2  0
 30 31  1  0
 31 32  1  0
 32 33  2  0
 34 33  1  0
 34 38  1  0
 35 34  2  0
 36 31  2  0
 36 35  1  0
 37 36  1  0
 39 40  1  0
 40 43  1  0
 40 42  1  0
 41 39  2  0
 44 45  1  0
 44 19  1  0
 46 44  1  0
 47 48  1  0
 47 49  1  0
 48 49  1  0
 49  1  1  0
 50 52  1  0
 50 51  1  0
 53 50  1  0
 54 53  1  0
 54 55  1  0
 56 67  2  0
 57 55  1  0
 57 62  1  0
 58 66  1  0
 58 68  1  0
 59 65  1  0
 59 61  1  0
 60 66  1  0
 61 60  1  0
 62 61  2  0
 63 64  1  0
 63 57  2  0
 64 59  2  0
 65 58  1  0
 66 56  1  0
 68 70  2  0
 69 68  1  0
 71 69  1  0
 72 81  2  0
 72 77  1  0
 73 69  1  0
 73 77  1  0
 74 73  1  0
 75 76  1  0
 75 74  1  0
 76 72  1  0
 77 78  2  0
 78 79  1  0
 80 79  2  0
 81 80  1  0
 82 56  1  0
 82 83  1  0
 82 92  1  0
 83 86  1  0
 84 88  1  0
 84 83  1  0
 85 84  2  0
 88 87  1  0
 90 88  1  0
 90 91  1  0
 90 89  1  0
 92 95  1  1
 92 93  1  0
 94 92  1  0
M  ISO  4   7 100  18 100  54 101  55 101
M  END
>  <TORSDO>  (64) 
F 21

>  <SCORE>  (64) 
-13.358

>  <name>  (64) 
63

>  <ligand_id>  (64) 
63

>  <original_smiles>  (64) 
[H]c1nn(C2([H])C([H])([H])N(C(=O)N3C([H])([H])C([H])([H])C([H])([H])C([H])(n4nc(-c5c([H])c([H])c(Oc6c([H])c([H])c(F)c([H])c6F)c([H])c5[H])c(C(=O)N([H])[H])c4N([H])[H])C3([H])[H])C2([H])[H])c([H])c1C([H])(C1([H])C([H])([H])C1([H])[H])[N+]([H])([H])C([H])([H])C([H])([H])Oc1c([H])c([H])c2c(c1[H])C([H])([H])N(C(=O)C([H])(N([H])C(=O)C([H])(N([H])C([H])([H])[H])C([H])([H])[H])C(C([H])([H])[H])(C([H])([H])[H])C([H])([H])[H])C([H])(C(=O)N([H])C1([H])c3c([H])c([H])c([H])c([H])c3C([H])([H])C([H])([H])C1([H])[H])C2([H])[H]

>  <smiles>  (64) 
[H]c1nn(C2([H])C([H])([H])N(C(=O)N3C([H])([H])C([H])([H])C([H])([H])C([H])(n4nc(-c5c([H])c([H])c(Oc6c([H])c([H])c(F)c([H])c6F)c([H])c5[H])c(C(=O)N([H])[H])c4N([H])[H])C3([H])[H])C2([H])[H])c([H])c1C([H])(C1([H])C([H])([H])C1([H])[H])[N+]([H])([H])C([H])([H])C([H])([H])Oc1c([H])c([H])c2c(c1[H])C([H])([H])N(C(=O)C([H])(N([H])C(=O)C([H])(N([H])C([H])([H])[H])C([H])([H])[H])C(C([H])([H])[H])(C([H])([H])[H])C([H])([H])[H])C([H])(C(=O)N([H])C1([H])c3c([H])c([H])c([H])c([H])c3C([H])([H])C([H])([H])C1([H])[H])C2([H])[H]

$$$$
64:0:0
     RDKit          3D

 94103  0  0  1  0  0  0  0  0999 V2000
  -29.2530  -22.7420   20.6360 C   0  0  0  0  0  2  0  0  0  0  0  0
  -28.3000  -21.4640   18.9230 C   0  0  0  0  0  2  0  0  0  0  0  0
  -28.8440  -21.2270   20.3390 C   0  0  0  0  0  3  0  0  0  0  0  0
  -28.1080  -23.6780   20.0190 C   0  0  0  0  0  3  0  0  0  0  0  0
  -26.0990  -22.5790   19.0330 C   0  0  0  0  0  1  0  0  0  0  0  0
  -27.5640  -22.7740   18.9450 N   0  0  2  0  0  4  0  0  0  0  0  0
  -27.7360  -23.2070   18.0480 H   0  0  0  0  0  0  0  0  0  0  0  0
  -31.1020  -20.1830   21.1130 C   0  0  0  0  0  3  0  0  0  0  0  0
  -29.4690  -18.5650   20.3970 C   0  0  0  0  0  3  0  0  0  0  0  0
  -29.8170  -19.9700   20.5740 C   0  0  0  0  0  0  0  0  0  0  0  0
  -31.9130  -19.0870   21.4630 C   0  0  0  0  0  0  0  0  0  0  0  0
  -30.3730  -17.4690   20.7110 C   0  0  0  0  0  0  0  0  0  0  0  0
  -33.2200  -19.3110   22.1970 C   0  0  0  0  0  1  0  0  0  0  0  0
  -31.5710  -17.7950   21.2510 N   0  0  0  0  0  0  0  0  0  0  0  0
  -30.7790  -14.9030   20.3590 C   0  0  0  0  0  0  0  0  0  0  0  0
  -30.5900  -12.6120   19.3640 C   0  0  0  0  0  2  0  0  0  0  0  0
  -29.6490  -12.6560   18.1400 C   0  0  0  0  0  2  0  0  0  0  0  0
  -28.1730  -12.5020   18.5660 C   0  0  0  0  0  2  0  0  0  0  0  0
  -27.8030  -13.3740   19.8000 C   0  0  0  0  0  3  0  0  0  0  0  0
  -28.8750  -13.2890   20.9080 C   0  0  0  0  0  2  0  0  0  0  0  0
  -30.1550  -13.6730   20.2980 N   0  0  0  0  0  0  0  0  0  0  0  0
  -31.9650  -14.9810   20.0160 O   0  0  0  0  0  0  0  0  0  0  0  0
  -30.0030  -16.0400   20.5490 N   0  0  0  0  0  0  0  0  0  0  0  0
  -29.0140  -15.8570   20.6080 H   0  0  0  0  0  0  0  0  0  0  0  0
  -25.4170  -13.9340   20.5590 C   0  0  0  0  0  0  0  0  0  0  0  0
  -24.3560  -13.1500   20.9230 C   0  0  0  0  0  0  0  0  0  0  0  0
  -24.8230  -11.8020   20.8590 C   0  0  0  0  0  0  0  0  0  0  0  0
  -26.4630  -13.0660   20.2970 N   0  0  0  0  0  0  0  0  0  0  0  0
  -26.1110  -11.7760   20.5350 N   0  0  0  0  0  0  0  0  0  0  0  0
  -24.1010  -10.5340   21.0370 C   0  0  0  0  0  0  0  0  0  0  0  0
  -24.5240   -9.5670   21.9750 C   0  0  0  0  0  3  0  0  0  0  0  0
  -23.8000   -8.3660   22.1400 C   0  0  0  0  0  3  0  0  0  0  0  0
  -22.6400   -8.1240   21.3660 C   0  0  0  0  0  0  0  0  0  0  0  0
  -22.2370   -9.0800   20.4180 C   0  0  0  0  0  3  0  0  0  0  0  0
  -22.9610  -10.2730   20.2520 C   0  0  0  0  0  3  0  0  0  0  0  0
  -21.8880   -6.9750   21.4440 O   0  0  0  0  0  0  0  0  0  0  0  0
  -21.8030   -6.2470   22.6040 C   0  0  0  0  0  0  0  0  0  0  0  0
  -21.2930   -6.8040   23.7970 C   0  0  0  0  0  3  0  0  0  0  0  0
  -21.1560   -6.0010   24.9450 C   0  0  0  0  0  3  0  0  0  0  0  0
  -21.5190   -4.6420   24.9030 C   0  0  0  0  0  0  0  0  0  0  0  0
  -22.0200   -4.0830   23.7140 C   0  0  0  0  0  3  0  0  0  0  0  0
  -22.1580   -4.8840   22.5660 C   0  0  0  0  0  0  0  0  0  0  0  0
  -22.6230   -4.3380   21.4170 F   0  0  0  0  0  0  0  0  0  0  0  0
  -21.3790   -3.8660   26.0030 F   0  0  0  0  0  0  0  0  0  0  0  0
  -22.9610  -13.6200   21.2140 C   0  0  0  0  0  0  0  0  0  0  0  0
  -22.2370  -12.9040   22.0690 N   0  0  0  0  0  0  0  0  0  0  0  0
  -22.5230  -14.6560   20.7190 O   0  0  0  0  0  0  0  0  0  0  0  0
  -22.6070  -12.0690   22.4970 H   0  0  0  0  0  0  0  0  0  0  0  0
  -21.2960  -13.1940   22.2920 H   0  0  0  0  0  0  0  0  0  0  0  0
  -25.5720  -15.3080   20.4110 N   0  0  0  0  0  0  0  0  0  0  0  0
  -24.8130  -15.9530   20.5950 H   0  0  0  0  0  0  0  0  0  0  0  0
  -26.4120  -15.7740   20.0930 H   0  0  0  0  0  0  0  0  0  0  0  0
  -28.3540  -25.2030   19.4540 C   0  0  0  0  0  2  0  0  0  0  0  0
  -28.2160  -26.5140   20.1950 O   0  0  0  0  0  0  0  0  0  0  0  0
  -24.5300  -31.9720   23.2630 C   0  0  0  0  0  0  0  0  0  0  0  0
  -27.0910  -27.3730   20.1390 C   0  0  0  0  0  0  0  0  0  0  0  0
  -23.3020  -30.5690   21.6440 C   0  0  0  0  0  3  0  0  0  0  0  0
  -24.7230  -29.0170   20.1840 C   0  0  0  0  0  0  0  0  0  0  0  0
  -25.8360  -30.8850   21.4060 C   0  0  0  0  0  2  0  0  0  0  0  0
  -25.9040  -29.4970   20.7610 C   0  0  0  0  0  0  0  0  0  0  0  0
  -27.0860  -28.6880   20.7310 C   0  0  0  0  0  3  0  0  0  0  0  0
  -25.8770  -26.9590   19.5430 C   0  0  0  0  0  3  0  0  0  0  0  0
  -24.7150  -27.7560   19.5670 C   0  0  0  0  0  3  0  0  0  0  0  0
  -23.4900  -29.8970   20.2590 C   0  0  0  0  0  2  0  0  0  0  0  0
  -24.5780  -31.1600   22.1620 N   0  0  0  0  0  0  0  0  0  0  0  0
  -23.4560  -32.2500   23.8140 O   0  0  0  0  0  0  0  0  0  0  0  0
  -22.6530  -29.5560   22.6160 C   0  0  0  0  0  0  0  0  0  0  0  0
  -21.3330  -29.3350   22.4760 N   0  0  0  0  0  0  0  0  0  0  0  0
  -23.3360  -28.9700   23.4580 O   0  0  0  0  0  0  0  0  0  0  0  0
  -20.8470  -29.8550   21.7600 H   0  0  0  0  0  0  0  0  0  0  0  0
  -17.9950  -28.0130   22.9220 C   0  0  0  0  0  0  0  0  0  0  0  0
  -20.5330  -28.3900   23.2590 C   0  0  0  0  0  3  0  0  0  0  0  0
  -20.7050  -26.9400   22.7440 C   0  0  0  0  0  2  0  0  0  0  0  0
  -19.6550  -26.5570   21.6950 C   0  0  0  0  0  2  0  0  0  0  0  0
  -18.2490  -26.6560   22.2940 C   0  0  0  0  0  2  0  0  0  0  0  0
  -19.0680  -28.8350   23.3620 C   0  0  0  0  0  0  0  0  0  0  0  0
  -18.7770  -30.1000   23.9150 C   0  0  0  0  0  3  0  0  0  0  0  0
  -17.4470  -30.5520   24.0220 C   0  0  0  0  0  3  0  0  0  0  0  0
  -16.3890  -29.7320   23.5920 C   0  0  0  0  0  3  0  0  0  0  0  0
  -16.6620  -28.4610   23.0530 C   0  0  0  0  0  3  0  0  0  0  0  0
  -25.8230  -32.6060   23.8670 C   0  0  0  0  0  3  0  0  0  0  0  0
  -25.5250  -34.0090   24.1900 N   0  0  0  0  0  0  0  0  0  0  0  0
  -25.8650  -35.0550   23.4240 C   0  0  0  0  0  0  0  0  0  0  0  0
  -26.5340  -34.9390   22.3940 O   0  0  0  0  0  0  0  0  0  0  0  0
  -24.9390  -34.1740   24.9950 H   0  0  0  0  0  0  0  0  0  0  0  0
  -24.1700  -36.8740   23.0310 C   0  0  0  0  0  1  0  0  0  0  0  0
  -25.3890  -36.4530   23.8690 C   0  0  0  0  0  3  0  0  0  0  0  0
  -27.5160  -37.3100   24.7460 C   0  0  0  0  0  1  0  0  0  0  0  0
  -26.4400  -37.4890   23.7730 N   0  0  0  0  0  0  0  0  0  0  0  0
  -26.0440  -38.4170   23.9010 H   0  0  0  0  0  0  0  0  0  0  0  0
  -26.3430  -31.8440   25.1480 C   0  0  1  0  0  0  0  0  0  0  0  0
  -25.2510  -31.6030   26.2180 C   0  0  0  0  0  1  0  0  0  0  0  0
  -26.9320  -30.4680   24.7540 C   0  0  0  0  0  1  0  0  0  0  0  0
  -27.4910  -32.6450   25.8070 C   0  0  0  0  0  1  0  0  0  0  0  0
  2  6  1  0
  2  3  1  0
  3 10  1  0
  3  1  1  0
  4 53  1  0
  4  1  1  0
  6  5  1  0
  6  4  1  0
  6  7  1  6
  8 11  1  0
  9 10  1  0
  9 12  2  0
 10  8  2  0
 11 13  1  0
 12 14  1  0
 14 11  2  0
 15 23  1  0
 16 21  1  0
 17 18  1  0
 17 16  1  0
 19 18  1  0
 19 28  1  0
 19 20  1  0
 21 15  1  0
 21 20  1  0
 22 15  2  0
 23 24  1  0
 23 12  1  0
 25 26  2  0
 26 45  1  0
 27 26  1  0
 27 30  1  0
 28 29  1  0
 28 25  1  0
 29 27  2  0
 30 31  1  0
 31 32  2  0
 33 36  1  0
 33 32  1  0
 34 33  2  0
 35 34  1  0
 35 30  2  0
 36 37  1  0
 37 38  1  0
 38 39  2  0
 40 39  1  0
 40 44  1  0
 41 40  2  0
 42 37  2  0
 42 41  1  0
 43 42  1  0
 45 46  1  0
 46 49  1  0
 46 48  1  0
 47 45  2  0
 50 25  1  0
 50 51  1  0
 52 50  1  0
 53 54  1  0
 55 66  2  0
 56 54  1  0
 56 61  1  0
 57 65  1  0
 57 67  1  0
 58 64  1  0
 58 60  1  0
 59 65  1  0
 60 59  1  0
 61 60  2  0
 62 63  1  0
 62 56  2  0
 63 58  2  0
 64 57  1  0
 65 55  1  0
 67 69  2  0
 68 67  1  0
 70 68  1  0
 71 80  2  0
 71 76  1  0
 72 68  1  0
 72 76  1  0
 73 72  1  0
 74 75  1  0
 74 73  1  0
 75 71  1  0
 76 77  2  0
 77 78  1  0
 79 78  2  0
 80 79  1  0
 81 55  1  0
 81 82  1  0
 81 91  1  0
 82 85  1  0
 83 87  1  0
 83 82  1  0
 84 83  2  0
 87 86  1  0
 89 87  1  0
 89 90  1  0
 89 88  1  0
 91 94  1  1
 91 92  1  0
 93 91  1  0
M  ISO  4  15 100  23 100  53 101  54 101
M  END
>  <TORSDO>  (65) 
F 18

>  <SCORE>  (65) 
-14.670

>  <name>  (65) 
64

>  <ligand_id>  (65) 
64

>  <original_smiles>  (65) 
[H]c1c([H])c([H])c2c(c1[H])C([H])([H])C([H])([H])C([H])([H])C2([H])N([H])C(=O)C1([H])N(C(=O)C([H])(N([H])C(=O)C([H])(N([H])C([H])([H])[H])C([H])([H])[H])C(C([H])([H])[H])(C([H])([H])[H])C([H])([H])[H])C([H])([H])c2c([H])c(OC([H])([H])C3([H])C([H])([H])C([H])(c4c([H])c(N([H])C(=O)N5C([H])([H])C([H])([H])C([H])([H])C([H])(n6nc(-c7c([H])c([H])c(Oc8c([H])c([H])c(F)c([H])c8F)c([H])c7[H])c(C(=O)N([H])[H])c6N([H])[H])C5([H])[H])nc(C([H])([H])[H])c4[H])C([H])([H])[N+]3([H])C([H])([H])[H])c([H])c([H])c2C1([H])[H]

>  <smiles>  (65) 
[H]c1c([H])c([H])c2c(c1[H])C([H])([H])C([H])([H])C([H])([H])C2([H])N([H])C(=O)C1([H])N(C(=O)C([H])(N([H])C(=O)C([H])(N([H])C([H])([H])[H])C([H])([H])[H])C(C([H])([H])[H])(C([H])([H])[H])C([H])([H])[H])C([H])([H])c2c([H])c(OC([H])([H])C3([H])C([H])([H])C([H])(c4c([H])c(N([H])C(=O)N5C([H])([H])C([H])([H])C([H])([H])C([H])(n6nc(-c7c([H])c([H])c(Oc8c([H])c([H])c(F)c([H])c8F)c([H])c7[H])c(C(=O)N([H])[H])c6N([H])[H])C5([H])[H])nc(C([H])([H])[H])c4[H])C([H])([H])[N+]3([H])C([H])([H])[H])c([H])c([H])c2C1([H])[H]

$$$$
65:0:0
     RDKit          3D

 96105  0  0  1  0  0  0  0  0999 V2000
  -30.0780  -19.5430   20.0390 C   0  0  0  0  0  3  0  0  0  0  0  0
  -30.1670  -20.7170   20.8240 C   0  0  0  0  0  0  0  0  0  0  0  0
  -30.5240  -20.5720   22.2010 C   0  0  0  0  0  0  0  0  0  0  0  0
  -30.3590  -18.2890   20.6130 C   0  0  0  0  0  0  0  0  0  0  0  0
  -30.8900  -19.2640   22.6520 C   0  0  0  0  0  0  0  0  0  0  0  0
  -29.9420  -22.0890   20.1910 C   0  0  0  0  0  0  0  0  0  0  0  0
  -29.6360  -22.9390   22.4430 C   0  0  0  0  0  2  0  0  0  0  0  0
  -30.5090  -21.8310   23.0920 C   0  0  1  0  0  0  0  0  0  0  0  0
  -31.4680  -18.9400   24.0210 C   0  0  0  0  0  1  0  0  0  0  0  0
  -29.8140  -21.6080   24.4630 C   0  0  0  0  0  1  0  0  0  0  0  0
  -31.9530  -22.3530   23.2380 C   0  0  0  0  0  1  0  0  0  0  0  0
  -30.7720  -18.1640   21.8840 N   0  0  0  0  0  0  0  0  0  0  0  0
  -29.8650  -23.1530   21.0190 N   0  0  0  0  0  0  0  0  0  0  0  0
  -29.8740  -22.2090   18.9600 O   0  0  0  0  0  0  0  0  0  0  0  0
  -30.2450  -17.0000   19.8040 C   0  0  0  0  0  2  0  0  0  0  0  0
  -30.8090  -14.6000   20.1410 C   0  0  0  0  0  0  0  0  0  0  0  0
  -30.3760  -12.3520   19.1920 C   0  0  0  0  0  2  0  0  0  0  0  0
  -29.4920  -12.5700   17.9400 C   0  0  0  0  0  2  0  0  0  0  0  0
  -27.9990  -12.8220   18.2730 C   0  0  0  0  0  2  0  0  0  0  0  0
  -27.7220  -12.8360   19.7850 C   0  0  0  0  0  3  0  0  0  0  0  0
  -28.7750  -13.2850   20.8040 C   0  0  0  0  0  2  0  0  0  0  0  0
  -30.0870  -13.4450   20.1500 N   0  0  0  0  0  0  0  0  0  0  0  0
  -31.8960  -14.6770   19.5600 O   0  0  0  0  0  0  0  0  0  0  0  0
  -30.2180  -15.7220   20.5960 N   0  0  0  0  0  0  0  0  0  0  0  0
  -29.6120  -15.6590   21.4010 H   0  0  0  0  0  0  0  0  0  0  0  0
  -25.3360  -13.8170   20.4170 C   0  0  0  0  0  0  0  0  0  0  0  0
  -24.2240  -13.0990   20.8080 C   0  0  0  0  0  0  0  0  0  0  0  0
  -24.6100  -11.7350   20.7780 C   0  0  0  0  0  0  0  0  0  0  0  0
  -26.3270  -12.8480   20.2040 N   0  0  0  0  0  0  0  0  0  0  0  0
  -25.8670  -11.6140   20.4590 N   0  0  0  0  0  0  0  0  0  0  0  0
  -23.8740  -10.4930   20.9780 C   0  0  0  0  0  0  0  0  0  0  0  0
  -24.3500   -9.5080   21.8680 C   0  0  0  0  0  3  0  0  0  0  0  0
  -23.6360   -8.3060   22.0390 C   0  0  0  0  0  3  0  0  0  0  0  0
  -22.4380   -8.0910   21.3140 C   0  0  0  0  0  0  0  0  0  0  0  0
  -21.9910   -9.0680   20.4110 C   0  0  0  0  0  3  0  0  0  0  0  0
  -22.7080  -10.2570   20.2360 C   0  0  0  0  0  3  0  0  0  0  0  0
  -21.6880   -6.9450   21.4010 O   0  0  0  0  0  0  0  0  0  0  0  0
  -21.6800   -6.1860   22.5400 C   0  0  0  0  0  0  0  0  0  0  0  0
  -21.3260   -6.7300   23.7900 C   0  0  0  0  0  3  0  0  0  0  0  0
  -21.2440   -5.8900   24.9230 C   0  0  0  0  0  3  0  0  0  0  0  0
  -21.5350   -4.5190   24.8050 C   0  0  0  0  0  0  0  0  0  0  0  0
  -21.9090   -3.9810   23.5600 C   0  0  0  0  0  3  0  0  0  0  0  0
  -21.9710   -4.8130   22.4270 C   0  0  0  0  0  0  0  0  0  0  0  0
  -22.3030   -4.2910   21.2240 F   0  0  0  0  0  0  0  0  0  0  0  0
  -21.4510   -3.7130   25.8890 F   0  0  0  0  0  0  0  0  0  0  0  0
  -22.8540  -13.6140   21.1290 C   0  0  0  0  0  0  0  0  0  0  0  0
  -22.1450  -12.9260   22.0210 N   0  0  0  0  0  0  0  0  0  0  0  0
  -22.4130  -14.6470   20.6240 O   0  0  0  0  0  0  0  0  0  0  0  0
  -22.5140  -12.0810   22.4290 H   0  0  0  0  0  0  0  0  0  0  0  0
  -21.2180  -13.2340   22.2770 H   0  0  0  0  0  0  0  0  0  0  0  0
  -25.5830  -15.1630   20.2290 N   0  0  0  0  0  0  0  0  0  0  0  0
  -24.8690  -15.8790   20.3570 H   0  0  0  0  0  0  0  0  0  0  0  0
  -26.4430  -15.5000   19.8140 H   0  0  0  0  0  0  0  0  0  0  0  0
  -29.9590  -24.5750   20.5980 C   0  0  0  0  0  2  0  0  0  0  0  0
  -28.6030  -25.2210   20.2150 C   0  0  0  0  0  2  0  0  0  0  0  0
  -28.6690  -26.6630   20.2970 O   0  0  0  0  0  0  0  0  0  0  0  0
  -24.6640  -31.7770   23.2070 C   0  0  0  0  0  0  0  0  0  0  0  0
  -27.4820  -27.3730   20.2260 C   0  0  0  0  0  0  0  0  0  0  0  0
  -23.5330  -30.3590   21.5250 C   0  0  0  0  0  3  0  0  0  0  0  0
  -25.0570  -28.8470   20.1430 C   0  0  0  0  0  0  0  0  0  0  0  0
  -26.0590  -30.7600   21.4100 C   0  0  0  0  0  2  0  0  0  0  0  0
  -26.1870  -29.3920   20.7700 C   0  0  0  0  0  0  0  0  0  0  0  0
  -27.4000  -28.6640   20.8040 C   0  0  0  0  0  3  0  0  0  0  0  0
  -26.3350  -26.8520   19.5850 C   0  0  0  0  0  3  0  0  0  0  0  0
  -25.1310  -27.5760   19.5450 C   0  0  0  0  0  3  0  0  0  0  0  0
  -23.7930  -29.6760   20.1530 C   0  0  0  0  0  2  0  0  0  0  0  0
  -24.7670  -30.9790   22.1060 N   0  0  0  0  0  0  0  0  0  0  0  0
  -23.5610  -32.0350   23.7090 O   0  0  0  0  0  0  0  0  0  0  0  0
  -22.8620  -29.3310   22.4670 C   0  0  0  0  0  0  0  0  0  0  0  0
  -21.5400  -29.1490   22.3100 N   0  0  0  0  0  0  0  0  0  0  0  0
  -23.5280  -28.6970   23.2880 O   0  0  0  0  0  0  0  0  0  0  0  0
  -21.0660  -29.7180   21.6240 H   0  0  0  0  0  0  0  0  0  0  0  0
  -18.1540  -27.9630   22.7250 C   0  0  0  0  0  0  0  0  0  0  0  0
  -20.7060  -28.2010   23.0470 C   0  0  0  0  0  3  0  0  0  0  0  0
  -20.8110  -26.7780   22.4510 C   0  0  0  0  0  2  0  0  0  0  0  0
  -19.7260  -26.4790   21.4110 C   0  0  0  0  0  2  0  0  0  0  0  0
  -18.3340  -26.6220   22.0330 C   0  0  0  0  0  2  0  0  0  0  0  0
  -19.2670  -28.7110   23.1850 C   0  0  0  0  0  0  0  0  0  0  0  0
  -19.0460  -29.9690   23.7890 C   0  0  0  0  0  3  0  0  0  0  0  0
  -17.7400  -30.4720   23.9420 C   0  0  0  0  0  3  0  0  0  0  0  0
  -16.6400  -29.7190   23.4980 C   0  0  0  0  0  3  0  0  0  0  0  0
  -16.8460  -28.4670   22.8920 C   0  0  0  0  0  3  0  0  0  0  0  0
  -25.9180  -32.4230   23.8730 C   0  0  0  0  0  3  0  0  0  0  0  0
  -26.4040  -31.6530   25.1630 C   0  0  1  0  0  0  0  0  0  0  0  0
  -25.2790  -31.4020   26.1940 C   0  0  0  0  0  1  0  0  0  0  0  0
  -27.0150  -30.2840   24.7840 C   0  0  0  0  0  1  0  0  0  0  0  0
  -27.5230  -32.4580   25.8620 C   0  0  0  0  0  1  0  0  0  0  0  0
  -25.5750  -33.8140   24.1960 N   0  0  0  0  0  0  0  0  0  0  0  0
  -25.9080  -34.8760   23.4490 C   0  0  0  0  0  0  0  0  0  0  0  0
  -26.6060  -34.7890   22.4350 O   0  0  0  0  0  0  0  0  0  0  0  0
  -24.9440  -33.9500   24.9720 H   0  0  0  0  0  0  0  0  0  0  0  0
  -24.1470  -36.6360   23.0740 C   0  0  0  0  0  1  0  0  0  0  0  0
  -25.3840  -36.2520   23.9010 C   0  0  0  0  0  3  0  0  0  0  0  0
  -27.4860  -37.1860   24.7610 C   0  0  0  0  0  1  0  0  0  0  0  0
  -26.3960  -37.3270   23.8010 N   0  0  0  0  0  0  0  0  0  0  0  0
  -25.9660  -38.2380   23.9390 H   0  0  0  0  0  0  0  0  0  0  0  0
  1  4  2  0
  1  2  1  0
  2  3  2  0
  3  5  1  0
  3  8  1  0
  4 12  1  0
  5  9  1  0
  6  2  1  0
  6 13  1  0
  7  8  1  0
  8 11  1  1
  8 10  1  0
 12  5  2  0
 13  7  1  0
 14  6  2  0
 15 24  1  0
 15  4  1  0
 16 22  1  0
 16 24  1  0
 17 22  1  0
 18 19  1  0
 18 17  1  0
 20 19  1  0
 20 29  1  0
 20 21  1  0
 22 21  1  0
 23 16  2  0
 24 25  1  0
 26 27  2  0
 27 46  1  0
 28 27  1  0
 28 31  1  0
 29 26  1  0
 29 30  1  0
 30 28  2  0
 31 32  1  0
 32 33  2  0
 34 37  1  0
 34 33  1  0
 35 34  2  0
 36 35  1  0
 36 31  2  0
 37 38  1  0
 38 39  1  0
 39 40  2  0
 41 40  1  0
 41 45  1  0
 42 41  2  0
 43 38  2  0
 43 42  1  0
 44 43  1  0
 46 47  1  0
 47 50  1  0
 47 49  1  0
 48 46  2  0
 51 52  1  0
 51 26  1  0
 53 51  1  0
 54 13  1  0
 55 56  1  0
 55 54  1  0
 57 68  2  0
 58 56  1  0
 58 63  1  0
 59 67  1  0
 59 69  1  0
 60 66  1  0
 60 62  1  0
 61 67  1  0
 62 63  2  0
 62 61  1  0
 64 58  2  0
 65 64  1  0
 65 60  2  0
 66 59  1  0
 67 57  1  0
 69 71  2  0
 70 69  1  0
 72 70  1  0
 73 82  2  0
 73 78  1  0
 74 70  1  0
 74 78  1  0
 75 74  1  0
 76 77  1  0
 76 75  1  0
 77 73  1  0
 78 79  2  0
 79 80  1  0
 81 80  2  0
 82 81  1  0
 83 57  1  0
 83 88  1  0
 83 84  1  0
 84 87  1  1
 84 85  1  0
 86 84  1  0
 88 91  1  0
 89 93  1  0
 89 88  1  0
 90 89  2  0
 93 92  1  0
 95 93  1  0
 95 96  1  0
 95 94  1  0
M  ISO  4  16 100  24 100  55 101  56 101
M  END
>  <TORSDO>  (66) 
F 19

>  <SCORE>  (66) 
-12.458

>  <name>  (66) 
65

>  <ligand_id>  (66) 
65

>  <original_smiles>  (66) 
[H]c1c([H])c([H])c2c(c1[H])C([H])([H])C([H])([H])C([H])([H])C2([H])N([H])C(=O)C1([H])N(C(=O)C([H])(N([H])C(=O)C([H])(N([H])C([H])([H])[H])C([H])([H])[H])C(C([H])([H])[H])(C([H])([H])[H])C([H])([H])[H])C([H])([H])c2c([H])c(OC([H])([H])C([H])([H])N3C(=O)c4c([H])c(C([H])([H])N([H])C(=O)N5C([H])([H])C([H])([H])C([H])([H])C([H])(n6nc(-c7c([H])c([H])c(Oc8c([H])c([H])c(F)c([H])c8F)c([H])c7[H])c(C(=O)N([H])[H])c6N([H])[H])C5([H])[H])nc(C([H])([H])[H])c4C(C([H])([H])[H])(C([H])([H])[H])C3([H])[H])c([H])c([H])c2C1([H])[H]

>  <smiles>  (66) 
[H]c1c([H])c([H])c2c(c1[H])C([H])([H])C([H])([H])C([H])([H])C2([H])N([H])C(=O)C1([H])N(C(=O)C([H])(N([H])C(=O)C([H])(N([H])C([H])([H])[H])C([H])([H])[H])C(C([H])([H])[H])(C([H])([H])[H])C([H])([H])[H])C([H])([H])c2c([H])c(OC([H])([H])C([H])([H])N3C(=O)c4c([H])c(C([H])([H])N([H])C(=O)N5C([H])([H])C([H])([H])C([H])([H])C([H])(n6nc(-c7c([H])c([H])c(Oc8c([H])c([H])c(F)c([H])c8F)c([H])c7[H])c(C(=O)N([H])[H])c6N([H])[H])C5([H])[H])nc(C([H])([H])[H])c4C(C([H])([H])[H])(C([H])([H])[H])C3([H])[H])c([H])c([H])c2C1([H])[H]

$$$$
66:0:0
     RDKit          3D

 89 98  0  0  1  0  0  0  0  0999 V2000
  -30.7440  -15.4880   19.4440 C   0  0  0  0  0  0  0  0  0  0  0  0
  -31.0250  -12.9180   19.0360 C   0  0  0  0  0  2  0  0  0  0  0  0
  -30.1140  -12.3010   17.9430 C   0  0  0  0  0  2  0  0  0  0  0  0
  -28.7200  -11.9660   18.5040 C   0  0  0  0  0  2  0  0  0  0  0  0
  -28.1690  -13.0950   19.4090 C   0  0  0  0  0  3  0  0  0  0  0  0
  -29.2140  -13.6110   20.4160 C   0  0  0  0  0  2  0  0  0  0  0  0
  -30.3330  -14.1290   19.6100 N   0  0  0  0  0  0  0  0  0  0  0  0
  -31.9800  -15.5790   19.3300 O   0  0  0  0  0  0  0  0  0  0  0  0
  -29.3730  -19.4360   18.3590 C   0  0  0  0  0  3  0  0  0  0  0  0
  -28.6400  -20.7680   18.6580 C   0  0  0  0  0  0  0  0  0  0  0  0
  -29.3940  -18.1480   19.2180 C   0  0  0  0  0  0  0  0  0  0  0  0
  -27.9630  -19.5150   20.5350 C   0  0  0  0  0  0  0  0  0  0  0  0
  -27.0620  -19.5070   21.7540 C   0  0  0  0  0  1  0  0  0  0  0  0
  -27.9510  -20.6490   19.8120 N   0  0  0  0  0  0  0  0  0  0  0  0
  -28.6260  -18.3640   20.3080 N   0  0  0  0  0  0  0  0  0  0  0  0
  -29.8350  -16.5910   18.9990 N   0  0  0  0  0  0  0  0  0  0  0  0
  -29.0070  -16.1040   18.6990 H   0  0  0  0  0  0  0  0  0  0  0  0
  -25.8930  -13.6100   20.4310 C   0  0  0  0  0  0  0  0  0  0  0  0
  -24.8610  -12.8160   20.8470 C   0  0  0  0  0  0  0  0  0  0  0  0
  -25.3090  -11.4710   20.6810 C   0  0  0  0  0  0  0  0  0  0  0  0
  -26.8980  -12.7500   20.0300 N   0  0  0  0  0  0  0  0  0  0  0  0
  -26.5660  -11.4510   20.2450 N   0  0  0  0  0  0  0  0  0  0  0  0
  -24.5880  -10.2030   20.8510 C   0  0  0  0  0  0  0  0  0  0  0  0
  -25.0280   -9.2190   21.7630 C   0  0  0  0  0  3  0  0  0  0  0  0
  -24.3040   -8.0170   21.9270 C   0  0  0  0  0  3  0  0  0  0  0  0
  -23.1260   -7.7910   21.1760 C   0  0  0  0  0  0  0  0  0  0  0  0
  -22.7030   -8.7640   20.2530 C   0  0  0  0  0  3  0  0  0  0  0  0
  -23.4270   -9.9570   20.0900 C   0  0  0  0  0  3  0  0  0  0  0  0
  -22.3740   -6.6430   21.2500 O   0  0  0  0  0  0  0  0  0  0  0  0
  -22.1430   -6.0090   22.4430 C   0  0  0  0  0  0  0  0  0  0  0  0
  -21.4710   -6.6460   23.5080 C   0  0  0  0  0  3  0  0  0  0  0  0
  -21.1920   -5.9350   24.6920 C   0  0  0  0  0  3  0  0  0  0  0  0
  -21.5770   -4.5860   24.8100 C   0  0  0  0  0  0  0  0  0  0  0  0
  -22.2410   -3.9470   23.7480 C   0  0  0  0  0  3  0  0  0  0  0  0
  -22.5210   -4.6570   22.5670 C   0  0  0  0  0  0  0  0  0  0  0  0
  -23.1430   -4.0300   21.5380 F   0  0  0  0  0  0  0  0  0  0  0  0
  -21.3030   -3.8990   25.9440 F   0  0  0  0  0  0  0  0  0  0  0  0
  -23.5010  -13.2840   21.2720 C   0  0  0  0  0  0  0  0  0  0  0  0
  -22.8680  -12.5660   22.1900 N   0  0  0  0  0  0  0  0  0  0  0  0
  -23.0150  -14.3220   20.8270 O   0  0  0  0  0  0  0  0  0  0  0  0
  -23.2800  -11.7280   22.5720 H   0  0  0  0  0  0  0  0  0  0  0  0
  -21.9570  -12.8560   22.5150 H   0  0  0  0  0  0  0  0  0  0  0  0
  -26.0470  -14.9900   20.3300 N   0  0  0  0  0  0  0  0  0  0  0  0
  -25.2890  -15.6270   20.5490 H   0  0  0  0  0  0  0  0  0  0  0  0
  -26.8560  -15.4530   19.9420 H   0  0  0  0  0  0  0  0  0  0  0  0
  -27.5560  -22.8960   16.9730 C   0  0  0  0  0  2  0  0  0  0  0  0
  -28.5660  -22.4350   18.0190 C   0  0  0  0  0  3  0  0  0  0  0  0
  -27.5530  -23.9270   18.0860 C   0  0  0  0  0  3  0  0  0  0  0  0
  -27.6460  -25.5280   17.6080 O   0  0  0  0  0  0  0  0  0  0  0  0
  -25.7470  -30.3390   23.1620 C   0  0  0  0  0  0  0  0  0  0  0  0
  -26.9240  -26.7290   18.1480 C   0  0  0  0  0  0  0  0  0  0  0  0
  -24.1950  -30.0380   21.2770 C   0  0  0  0  0  3  0  0  0  0  0  0
  -25.1540  -28.9070   19.1550 C   0  0  0  0  0  0  0  0  0  0  0  0
  -26.7270  -29.7510   20.8860 C   0  0  0  0  0  2  0  0  0  0  0  0
  -26.4280  -28.7610   19.7190 C   0  0  0  0  0  0  0  0  0  0  0  0
  -27.3110  -27.7080   19.1980 C   0  0  0  0  0  3  0  0  0  0  0  0
  -25.6510  -27.0330   17.6150 C   0  0  0  0  0  3  0  0  0  0  0  0
  -24.7950  -28.0650   18.0890 C   0  0  0  0  0  3  0  0  0  0  0  0
  -24.2050  -29.9620   19.7250 C   0  0  0  0  0  2  0  0  0  0  0  0
  -25.5860  -30.0410   21.8320 N   0  0  0  0  0  0  0  0  0  0  0  0
  -24.7810  -30.6000   23.8970 O   0  0  0  0  0  0  0  0  0  0  0  0
  -23.3100  -28.9010   21.8510 C   0  0  0  0  0  0  0  0  0  0  0  0
  -21.9750  -29.0690   21.8060 N   0  0  0  0  0  0  0  0  0  0  0  0
  -23.8320  -27.8820   22.3100 O   0  0  0  0  0  0  0  0  0  0  0  0
  -21.6200  -29.9290   21.4170 H   0  0  0  0  0  0  0  0  0  0  0  0
  -18.4140  -28.4410   22.1680 C   0  0  0  0  0  0  0  0  0  0  0  0
  -20.9780  -28.0810   22.2320 C   0  0  0  0  0  3  0  0  0  0  0  0
  -20.7500  -27.0180   21.1300 C   0  0  0  0  0  2  0  0  0  0  0  0
  -19.5710  -27.3400   20.2080 C   0  0  0  0  0  2  0  0  0  0  0  0
  -18.2760  -27.4700   21.0090 C   0  0  0  0  0  2  0  0  0  0  0  0
  -19.6840  -28.7350   22.7370 C   0  0  0  0  0  0  0  0  0  0  0  0
  -19.7570  -29.6570   23.8030 C   0  0  0  0  0  3  0  0  0  0  0  0
  -18.5980  -30.2870   24.2950 C   0  0  0  0  0  3  0  0  0  0  0  0
  -17.3450  -29.9840   23.7350 C   0  0  0  0  0  3  0  0  0  0  0  0
  -17.2530  -29.0590   22.6790 C   0  0  0  0  0  3  0  0  0  0  0  0
  -27.1570  -30.3810   23.8260 C   0  0  0  0  0  3  0  0  0  0  0  0
  -27.6030  -28.9890   24.4240 C   0  0  1  0  0  0  0  0  0  0  0  0
  -26.5530  -28.3460   25.3620 C   0  0  0  0  0  1  0  0  0  0  0  0
  -27.9040  -27.9750   23.2970 C   0  0  0  0  0  1  0  0  0  0  0  0
  -28.9160  -29.1580   25.2250 C   0  0  0  0  0  1  0  0  0  0  0  0
  -27.1280  -31.4010   24.8900 N   0  0  0  0  0  0  0  0  0  0  0  0
  -27.6770  -32.6200   24.8040 C   0  0  0  0  0  0  0  0  0  0  0  0
  -28.3200  -32.9910   23.8180 O   0  0  0  0  0  0  0  0  0  0  0  0
  -26.5730  -31.1820   25.7050 H   0  0  0  0  0  0  0  0  0  0  0  0
  -26.3990  -34.6160   25.6590 C   0  0  0  0  0  1  0  0  0  0  0  0
  -27.4860  -33.5810   25.9960 C   0  0  0  0  0  3  0  0  0  0  0  0
  -29.7160  -33.4010   27.0090 C   0  0  0  0  0  1  0  0  0  0  0  0
  -28.7260  -34.2810   26.3940 N   0  0  0  0  0  0  0  0  0  0  0  0
  -28.5210  -35.0330   27.0480 H   0  0  0  0  0  0  0  0  0  0  0  0
  1  7  1  0
  2  7  1  0
  3  4  1  0
  3  2  1  0
  5  4  1  0
  5 21  1  0
  5  6  1  0
  7  6  1  0
  8  1  2  0
  9 10  2  0
  9 11  1  0
 10 14  1  0
 11 15  2  0
 12 13  1  0
 14 12  2  0
 15 12  1  0
 16 11  1  0
 16  1  1  0
 17 16  1  0
 18 19  2  0
 19 38  1  0
 20 19  1  0
 20 23  1  0
 21 22  1  0
 21 18  1  0
 22 20  2  0
 23 24  1  0
 24 25  2  0
 26 29  1  0
 26 25  1  0
 27 26  2  0
 28 27  1  0
 28 23  2  0
 29 30  1  0
 30 35  2  0
 30 31  1  0
 31 32  2  0
 32 33  1  0
 33 37  1  0
 34 33  2  0
 35 34  1  0
 36 35  1  0
 38 39  1  0
 39 42  1  0
 39 41  1  0
 40 38  2  0
 43 18  1  0
 43 44  1  0
 45 43  1  0
 46 47  1  0
 46 48  1  0
 47 48  1  0
 47 10  1  0
 48 49  1  0
 49 51  1  0
 50 61  2  0
 51 56  1  0
 52 60  1  0
 52 62  1  0
 53 55  1  0
 53 59  1  0
 54 60  1  0
 55 54  1  0
 56 55  2  0
 57 58  1  0
 57 51  2  0
 58 53  2  0
 59 52  1  0
 60 50  1  0
 62 64  2  0
 63 62  1  0
 65 63  1  0
 66 75  2  0
 66 71  1  0
 67 63  1  0
 67 71  1  0
 68 67  1  0
 69 70  1  0
 69 68  1  0
 70 66  1  0
 71 72  2  0
 72 73  1  0
 74 73  2  0
 75 74  1  0
 76 50  1  0
 76 77  1  0
 76 81  1  0
 77 80  1  1
 77 78  1  0
 79 77  1  0
 81 84  1  0
 82 81  1  0
 82 86  1  0
 83 82  2  0
 86 85  1  0
 86 88  1  0
 88 87  1  0
 88 89  1  0
M  ISO  4   1 100  16 100  48 101  49 101
M  END
>  <TORSDO>  (67) 
F 16

>  <SCORE>  (67) 
-6.354

>  <name>  (67) 
66

>  <ligand_id>  (67) 
66

>  <original_smiles>  (67) 
[H]c1c(N([H])C(=O)N2C([H])([H])C([H])([H])C([H])([H])C([H])(n3nc(-c4c([H])c([H])c(Oc5c([H])c([H])c(F)c([H])c5F)c([H])c4[H])c(C(=O)N([H])[H])c3N([H])[H])C2([H])[H])nc(C([H])([H])[H])nc1C1([H])C([H])([H])C1([H])Oc1c([H])c([H])c2c(c1[H])C([H])([H])N(C(=O)C([H])(N([H])C(=O)C([H])(N([H])C([H])([H])[H])C([H])([H])[H])C(C([H])([H])[H])(C([H])([H])[H])C([H])([H])[H])C([H])(C(=O)N([H])C1([H])c3c([H])c([H])c([H])c([H])c3C([H])([H])C([H])([H])C1([H])[H])C2([H])[H]

>  <smiles>  (67) 
[H]c1c(N([H])C(=O)N2C([H])([H])C([H])([H])C([H])([H])C([H])(n3nc(-c4c([H])c([H])c(Oc5c([H])c([H])c(F)c([H])c5F)c([H])c4[H])c(C(=O)N([H])[H])c3N([H])[H])C2([H])[H])nc(C([H])([H])[H])nc1C1([H])C([H])([H])C1([H])Oc1c([H])c([H])c2c(c1[H])C([H])([H])N(C(=O)C([H])(N([H])C(=O)C([H])(N([H])C([H])([H])[H])C([H])([H])[H])C(C([H])([H])[H])(C([H])([H])[H])C([H])([H])[H])C([H])(C(=O)N([H])C1([H])c3c([H])c([H])c([H])c([H])c3C([H])([H])C([H])([H])C1([H])[H])C2([H])[H]

$$$$
67:0:0
     RDKit          3D

 89 98  0  0  1  0  0  0  0  0999 V2000
  -28.6620  -20.5000   21.3500 C   0  0  0  0  0  3  0  0  0  0  0  0
  -28.3040  -21.9390   21.2820 C   0  0  0  0  0  3  0  0  0  0  0  0
  -29.3410  -19.7810   20.2920 C   0  0  0  0  0  0  0  0  0  0  0  0
  -29.5960  -20.7430   19.2700 C   0  0  0  0  0  0  0  0  0  0  0  0
  -28.5930  -22.8600   20.1900 C   0  0  0  0  0  0  0  0  0  0  0  0
  -30.4050  -20.0370   18.1990 C   0  0  0  0  0  2  0  0  0  0  0  0
  -30.4790  -18.5050   18.5710 C   0  0  0  0  0  2  0  0  0  0  0  0
  -30.0870  -18.2530   20.0590 C   0  0  0  0  0  3  0  0  0  0  0  0
  -29.2530  -22.1260   19.1870 N   0  0  0  0  0  0  0  0  0  0  0  0
  -30.4800  -15.3730   20.1550 C   0  0  0  0  0  0  0  0  0  0  0  0
  -30.4210  -12.9440   19.2700 C   0  0  0  0  0  2  0  0  0  0  0  0
  -29.4770  -12.7580   18.0570 C   0  0  0  0  0  2  0  0  0  0  0  0
  -28.0360  -12.4890   18.5270 C   0  0  0  0  0  2  0  0  0  0  0  0
  -27.6110  -13.4420   19.6720 C   0  0  0  0  0  3  0  0  0  0  0  0
  -28.6820  -13.5800   20.7740 C   0  0  0  0  0  2  0  0  0  0  0  0
  -29.9030  -14.0770   20.1190 N   0  0  0  0  0  0  0  0  0  0  0  0
  -31.6880  -15.3720   19.8830 O   0  0  0  0  0  0  0  0  0  0  0  0
  -29.7370  -16.6470   20.2860 N   0  0  0  0  0  0  0  0  0  0  0  0
  -28.7640  -16.4860   20.5010 H   0  0  0  0  0  0  0  0  0  0  0  0
  -25.2570  -13.9830   20.4930 C   0  0  0  0  0  0  0  0  0  0  0  0
  -24.2060  -13.1970   20.8750 C   0  0  0  0  0  0  0  0  0  0  0  0
  -24.6750  -11.8490   20.8090 C   0  0  0  0  0  0  0  0  0  0  0  0
  -26.2950  -13.1150   20.2080 N   0  0  0  0  0  0  0  0  0  0  0  0
  -25.9590  -11.8240   20.4670 N   0  0  0  0  0  0  0  0  0  0  0  0
  -23.9560  -10.5820   20.9940 C   0  0  0  0  0  0  0  0  0  0  0  0
  -24.3850   -9.6160   21.9310 C   0  0  0  0  0  3  0  0  0  0  0  0
  -23.6620   -8.4160   22.1040 C   0  0  0  0  0  3  0  0  0  0  0  0
  -22.4940   -8.1730   21.3430 C   0  0  0  0  0  0  0  0  0  0  0  0
  -22.0840   -9.1270   20.3960 C   0  0  0  0  0  3  0  0  0  0  0  0
  -22.8080  -10.3190   20.2200 C   0  0  0  0  0  3  0  0  0  0  0  0
  -21.7430   -7.0240   21.4260 O   0  0  0  0  0  0  0  0  0  0  0  0
  -21.6550   -6.3060   22.5910 C   0  0  0  0  0  0  0  0  0  0  0  0
  -21.1430   -6.8720   23.7790 C   0  0  0  0  0  3  0  0  0  0  0  0
  -21.0030   -6.0780   24.9350 C   0  0  0  0  0  3  0  0  0  0  0  0
  -21.3660   -4.7180   24.9040 C   0  0  0  0  0  0  0  0  0  0  0  0
  -21.8720   -4.1510   23.7200 C   0  0  0  0  0  3  0  0  0  0  0  0
  -22.0120   -4.9430   22.5660 C   0  0  0  0  0  0  0  0  0  0  0  0
  -22.4790   -4.3860   21.4230 F   0  0  0  0  0  0  0  0  0  0  0  0
  -21.2270   -3.9530   26.0110 F   0  0  0  0  0  0  0  0  0  0  0  0
  -22.8150  -13.6660   21.1810 C   0  0  0  0  0  0  0  0  0  0  0  0
  -22.1070  -12.9590   22.0540 N   0  0  0  0  0  0  0  0  0  0  0  0
  -22.3640  -14.6960   20.6810 O   0  0  0  0  0  0  0  0  0  0  0  0
  -22.4860  -12.1270   22.4820 H   0  0  0  0  0  0  0  0  0  0  0  0
  -21.1740  -13.2550   22.3020 H   0  0  0  0  0  0  0  0  0  0  0  0
  -25.4100  -15.3570   20.3340 N   0  0  0  0  0  0  0  0  0  0  0  0
  -24.6400  -16.0030   20.4720 H   0  0  0  0  0  0  0  0  0  0  0  0
  -26.2350  -15.8030   19.9540 H   0  0  0  0  0  0  0  0  0  0  0  0
  -27.8480  -24.4240   19.9340 C   0  0  0  0  0  2  0  0  0  0  0  0
  -28.1870  -25.9920   20.2550 O   0  0  0  0  0  0  0  0  0  0  0  0
  -24.6500  -31.9180   23.2760 C   0  0  0  0  0  0  0  0  0  0  0  0
  -27.1920  -27.0970   20.1880 C   0  0  0  0  0  0  0  0  0  0  0  0
  -23.4450  -30.5390   21.6330 C   0  0  0  0  0  3  0  0  0  0  0  0
  -24.8870  -28.9600   20.1790 C   0  0  0  0  0  0  0  0  0  0  0  0
  -26.0100  -30.7630   21.4680 C   0  0  0  0  0  2  0  0  0  0  0  0
  -26.0790  -29.3630   20.7970 C   0  0  0  0  0  0  0  0  0  0  0  0
  -27.2250  -28.4510   20.7790 C   0  0  0  0  0  3  0  0  0  0  0  0
  -25.9720  -26.8490   19.5170 C   0  0  0  0  0  3  0  0  0  0  0  0
  -24.8580  -27.7230   19.5180 C   0  0  0  0  0  3  0  0  0  0  0  0
  -23.6650  -29.8740   20.2470 C   0  0  0  0  0  2  0  0  0  0  0  0
  -24.7230  -31.0990   22.1800 N   0  0  0  0  0  0  0  0  0  0  0  0
  -23.5640  -32.2000   23.8090 O   0  0  0  0  0  0  0  0  0  0  0  0
  -22.7630  -29.5280   22.5910 C   0  0  0  0  0  0  0  0  0  0  0  0
  -21.4360  -29.3420   22.4560 N   0  0  0  0  0  0  0  0  0  0  0  0
  -23.4330  -28.9140   23.4250 O   0  0  0  0  0  0  0  0  0  0  0  0
  -20.9480  -29.8900   21.7620 H   0  0  0  0  0  0  0  0  0  0  0  0
  -18.0720  -28.0680   22.9310 C   0  0  0  0  0  0  0  0  0  0  0  0
  -20.6230  -28.3910   23.2230 C   0  0  0  0  0  3  0  0  0  0  0  0
  -20.7620  -26.9580   22.6580 C   0  0  0  0  0  2  0  0  0  0  0  0
  -19.6790  -26.6070   21.6320 C   0  0  0  0  0  2  0  0  0  0  0  0
  -18.2870  -26.7210   22.2600 C   0  0  0  0  0  2  0  0  0  0  0  0
  -19.1690  -28.8590   23.3690 C   0  0  0  0  0  0  0  0  0  0  0  0
  -18.9110  -30.1150   23.9590 C   0  0  0  0  0  3  0  0  0  0  0  0
  -17.5920  -30.5830   24.1140 C   0  0  0  0  0  3  0  0  0  0  0  0
  -16.5120  -29.7900   23.6900 C   0  0  0  0  0  3  0  0  0  0  0  0
  -16.7520  -28.5350   23.1040 C   0  0  0  0  0  3  0  0  0  0  0  0
  -25.9250  -32.5570   23.9060 C   0  0  0  0  0  3  0  0  0  0  0  0
  -25.6150  -33.9590   24.2330 N   0  0  0  0  0  0  0  0  0  0  0  0
  -25.9200  -35.0140   23.4650 C   0  0  0  0  0  0  0  0  0  0  0  0
  -26.5570  -34.9080   22.4130 O   0  0  0  0  0  0  0  0  0  0  0  0
  -25.0450  -34.1150   25.0520 H   0  0  0  0  0  0  0  0  0  0  0  0
  -24.1670  -36.7990   23.1850 C   0  0  0  0  0  1  0  0  0  0  0  0
  -25.4490  -36.4050   23.9350 C   0  0  0  0  0  3  0  0  0  0  0  0
  -27.6120  -37.3190   24.6590 C   0  0  0  0  0  1  0  0  0  0  0  0
  -26.4690  -37.4640   23.7610 N   0  0  0  0  0  0  0  0  0  0  0  0
  -26.0620  -38.3840   23.9100 H   0  0  0  0  0  0  0  0  0  0  0  0
  -26.4250  -31.7960   25.1950 C   0  0  1  0  0  0  0  0  0  0  0  0
  -25.3210  -31.5740   26.2570 C   0  0  0  0  0  1  0  0  0  0  0  0
  -27.0080  -30.4120   24.8300 C   0  0  0  0  0  1  0  0  0  0  0  0
  -27.5730  -32.5930   25.8610 C   0  0  0  0  0  1  0  0  0  0  0  0
  2  1  1  0
  3  1  2  0
  4  3  1  0
  5  2  2  0
  6  7  1  0
  6  4  1  0
  7  8  1  0
  8 18  1  0
  8  3  1  0
  9  4  2  0
  9  5  1  0
 10 18  1  0
 11 16  1  0
 12 13  1  0
 12 11  1  0
 14 13  1  0
 14 23  1  0
 14 15  1  0
 16 10  1  0
 16 15  1  0
 17 10  2  0
 18 19  1  0
 20 21  2  0
 21 40  1  0
 22 21  1  0
 22 25  1  0
 23 24  1  0
 23 20  1  0
 24 22  2  0
 25 26  1  0
 26 27  2  0
 28 31  1  0
 28 27  1  0
 29 28  2  0
 30 29  1  0
 30 25  2  0
 31 32  1  0
 32 33  1  0
 33 34  2  0
 35 34  1  0
 35 39  1  0
 36 35  2  0
 37 32  2  0
 37 36  1  0
 38 37  1  0
 40 41  1  0
 41 44  1  0
 41 43  1  0
 42 40  2  0
 45 46  1  0
 45 20  1  0
 47 45  1  0
 48  5  1  0
 48 49  1  0
 50 61  2  0
 51 49  1  0
 51 56  1  0
 52 60  1  0
 52 62  1  0
 53 59  1  0
 53 55  1  0
 54 60  1  0
 55 54  1  0
 56 55  2  0
 57 58  1  0
 57 51  2  0
 58 53  2  0
 59 52  1  0
 60 50  1  0
 62 64  2  0
 63 62  1  0
 65 63  1  0
 66 75  2  0
 66 71  1  0
 67 63  1  0
 67 71  1  0
 68 67  1  0
 69 70  1  0
 69 68  1  0
 70 66  1  0
 71 72  2  0
 72 73  1  0
 74 73  2  0
 75 74  1  0
 76 50  1  0
 76 77  1  0
 76 86  1  0
 77 80  1  0
 78 82  1  0
 78 77  1  0
 79 78  2  0
 82 81  1  0
 84 85  1  0
 84 82  1  0
 84 83  1  0
 86 89  1  1
 86 87  1  0
 88 86  1  0
M  ISO  4  10 100  18 100  48 101  49 101
M  END
>  <TORSDO>  (68) 
F 17

>  <SCORE>  (68) 
-15.522

>  <name>  (68) 
67

>  <ligand_id>  (68) 
67

>  <original_smiles>  (68) 
[H]c1c(C([H])([H])Oc2c([H])c([H])c3c(c2[H])C([H])([H])N(C(=O)C([H])(N([H])C(=O)C([H])(N([H])C([H])([H])[H])C([H])([H])[H])C(C([H])([H])[H])(C([H])([H])[H])C([H])([H])[H])C([H])(C(=O)N([H])C2([H])c4c([H])c([H])c([H])c([H])c4C([H])([H])C([H])([H])C2([H])[H])C3([H])[H])nc2c(c1[H])C([H])(N([H])C(=O)N1C([H])([H])C([H])([H])C([H])([H])C([H])(n3nc(-c4c([H])c([H])c(Oc5c([H])c([H])c(F)c([H])c5F)c([H])c4[H])c(C(=O)N([H])[H])c3N([H])[H])C1([H])[H])C([H])([H])C2([H])[H]

>  <smiles>  (68) 
[H]c1c(C([H])([H])Oc2c([H])c([H])c3c(c2[H])C([H])([H])N(C(=O)C([H])(N([H])C(=O)C([H])(N([H])C([H])([H])[H])C([H])([H])[H])C(C([H])([H])[H])(C([H])([H])[H])C([H])([H])[H])C([H])(C(=O)N([H])C2([H])c4c([H])c([H])c([H])c([H])c4C([H])([H])C([H])([H])C2([H])[H])C3([H])[H])nc2c(c1[H])C([H])(N([H])C(=O)N1C([H])([H])C([H])([H])C([H])([H])C([H])(n3nc(-c4c([H])c([H])c(Oc5c([H])c([H])c(F)c([H])c5F)c([H])c4[H])c(C(=O)N([H])[H])c3N([H])[H])C1([H])[H])C([H])([H])C2([H])[H]

$$$$
68:0:0
     RDKit          3D

 97107  0  0  1  0  0  0  0  0999 V2000
  -30.8510  -21.0000   20.4910 C   0  0  0  0  0  0  0  0  0  0  0  0
  -29.5280  -21.6220   20.6810 C   0  0  0  0  0  0  0  0  0  0  0  0
  -31.2590  -19.6850   20.6290 C   0  0  0  0  0  0  0  0  0  0  0  0
  -31.0830  -23.3860   20.5810 C   0  0  0  0  0  2  0  0  0  0  0  0
  -31.8450  -22.1100   20.2150 C   0  0  0  0  0  3  0  0  0  0  0  0
  -32.2990  -22.1250   18.7400 C   0  0  0  0  0  1  0  0  0  0  0  0
  -29.6770  -22.9900   20.6540 N   0  0  0  0  0  0  0  0  0  0  0  0
  -28.4620  -21.0410   20.8910 O   0  0  0  0  0  0  0  0  0  0  0  0
  -30.6650  -14.6300   20.2500 C   0  0  0  0  0  0  0  0  0  0  0  0
  -30.3960  -12.5050   18.9980 C   0  0  0  0  0  2  0  0  0  0  0  0
  -29.3770  -12.6540   17.8460 C   0  0  0  0  0  2  0  0  0  0  0  0
  -27.9330  -12.4600   18.3500 C   0  0  0  0  0  2  0  0  0  0  0  0
  -27.6290  -13.2840   19.6280 C   0  0  0  0  0  3  0  0  0  0  0  0
  -28.7350  -13.0620   20.6760 C   0  0  0  0  0  2  0  0  0  0  0  0
  -30.0140  -13.4450   20.0700 N   0  0  0  0  0  0  0  0  0  0  0  0
  -31.7780  -14.8360   19.7530 O   0  0  0  0  0  0  0  0  0  0  0  0
  -28.9750  -16.4680   20.2490 C   0  0  0  0  0  2  0  0  0  0  0  0
  -30.5430  -16.2120   22.1760 C   0  0  0  0  0  2  0  0  0  0  0  0
  -29.2620  -18.0100   20.1870 C   0  0  0  0  0  2  0  0  0  0  0  0
  -30.5410  -17.7780   22.2480 C   0  0  0  0  0  2  0  0  0  0  0  0
  -30.0000  -15.6260   20.9210 N   0  0  0  0  0  0  0  0  0  0  0  0
  -30.5110  -18.3750   20.8880 N   0  0  2  0  0  4  0  0  0  0  0  0
  -31.1220  -17.7150   20.4310 H   0  0  0  0  0  0  0  0  0  0  0  0
  -25.2790  -13.8860   20.4920 C   0  0  0  0  0  0  0  0  0  0  0  0
  -24.2300  -13.1040   20.8910 C   0  0  0  0  0  0  0  0  0  0  0  0
  -24.6890  -11.7550   20.7910 C   0  0  0  0  0  0  0  0  0  0  0  0
  -26.3060  -13.0060   20.1720 N   0  0  0  0  0  0  0  0  0  0  0  0
  -25.9590  -11.7220   20.4140 N   0  0  0  0  0  0  0  0  0  0  0  0
  -23.9740  -10.4880   20.9860 C   0  0  0  0  0  0  0  0  0  0  0  0
  -24.4280   -9.5280   21.9150 C   0  0  0  0  0  3  0  0  0  0  0  0
  -23.7230   -8.3190   22.0900 C   0  0  0  0  0  3  0  0  0  0  0  0
  -22.5490   -8.0670   21.3420 C   0  0  0  0  0  0  0  0  0  0  0  0
  -22.1160   -9.0180   20.3990 C   0  0  0  0  0  3  0  0  0  0  0  0
  -22.8220  -10.2180   20.2220 C   0  0  0  0  0  3  0  0  0  0  0  0
  -21.8120   -6.9110   21.4270 O   0  0  0  0  0  0  0  0  0  0  0  0
  -21.7220   -6.1930   22.5910 C   0  0  0  0  0  0  0  0  0  0  0  0
  -21.2220   -6.7670   23.7800 C   0  0  0  0  0  3  0  0  0  0  0  0
  -21.0810   -5.9780   24.9380 C   0  0  0  0  0  3  0  0  0  0  0  0
  -21.4330   -4.6170   24.9050 C   0  0  0  0  0  0  0  0  0  0  0  0
  -21.9280   -4.0400   23.7220 C   0  0  0  0  0  3  0  0  0  0  0  0
  -22.0670   -4.8260   22.5650 C   0  0  0  0  0  0  0  0  0  0  0  0
  -22.5240   -4.2630   21.4180 F   0  0  0  0  0  0  0  0  0  0  0  0
  -21.2910   -3.8540   26.0160 F   0  0  0  0  0  0  0  0  0  0  0  0
  -22.8500  -13.5730   21.2490 C   0  0  0  0  0  0  0  0  0  0  0  0
  -22.1670  -12.8480   22.1260 N   0  0  0  0  0  0  0  0  0  0  0  0
  -22.3870  -14.6120   20.7780 O   0  0  0  0  0  0  0  0  0  0  0  0
  -22.5610  -12.0140   22.5330 H   0  0  0  0  0  0  0  0  0  0  0  0
  -21.2360  -13.1330   22.3950 H   0  0  0  0  0  0  0  0  0  0  0  0
  -25.4350  -15.2630   20.3520 N   0  0  0  0  0  0  0  0  0  0  0  0
  -24.6770  -15.9050   20.5560 H   0  0  0  0  0  0  0  0  0  0  0  0
  -26.2630  -15.7320   20.0120 H   0  0  0  0  0  0  0  0  0  0  0  0
  -33.7210  -19.1580   19.5630 C   0  0  0  0  0  2  0  0  0  0  0  0
  -33.2640  -17.9500   20.3380 C   0  0  0  0  0  2  0  0  0  0  0  0
  -32.7290  -19.3250   20.7090 C   0  0  0  0  0  3  0  0  0  0  0  0
  -28.6960  -24.0770   21.0000 C   0  0  0  0  0  2  0  0  0  0  0  0
  -28.4700  -25.2180   19.9180 C   0  0  0  0  0  2  0  0  0  0  0  0
  -28.3490  -26.6180   20.3730 O   0  0  0  0  0  0  0  0  0  0  0  0
  -24.5930  -31.9780   23.2890 C   0  0  0  0  0  0  0  0  0  0  0  0
  -27.1800  -27.3880   20.2910 C   0  0  0  0  0  0  0  0  0  0  0  0
  -23.3740  -30.5640   21.6740 C   0  0  0  0  0  3  0  0  0  0  0  0
  -24.8100  -28.9910   20.2610 C   0  0  0  0  0  0  0  0  0  0  0  0
  -25.9110  -30.8790   21.4710 C   0  0  0  0  0  2  0  0  0  0  0  0
  -25.9790  -29.4940   20.8410 C   0  0  0  0  0  0  0  0  0  0  0  0
  -27.1620  -28.7050   20.8410 C   0  0  0  0  0  3  0  0  0  0  0  0
  -25.9850  -26.9240   19.6950 C   0  0  0  0  0  3  0  0  0  0  0  0
  -24.8150  -27.7150   19.6750 C   0  0  0  0  0  3  0  0  0  0  0  0
  -23.5760  -29.8710   20.3000 C   0  0  0  0  0  2  0  0  0  0  0  0
  -24.6440  -31.1600   22.1980 N   0  0  0  0  0  0  0  0  0  0  0  0
  -23.5170  -32.2650   23.8300 O   0  0  0  0  0  0  0  0  0  0  0  0
  -22.7120  -29.5620   22.6510 C   0  0  0  0  0  0  0  0  0  0  0  0
  -21.3910  -29.3610   22.5130 N   0  0  0  0  0  0  0  0  0  0  0  0
  -23.3870  -28.9670   23.4950 O   0  0  0  0  0  0  0  0  0  0  0  0
  -20.9030  -29.8980   21.8090 H   0  0  0  0  0  0  0  0  0  0  0  0
  -18.0300  -28.1010   22.9640 C   0  0  0  0  0  0  0  0  0  0  0  0
  -20.5720  -28.4350   23.2970 C   0  0  0  0  0  3  0  0  0  0  0  0
  -20.7220  -26.9830   22.7840 C   0  0  0  0  0  2  0  0  0  0  0  0
  -19.6600  -26.5960   21.7490 C   0  0  0  0  0  2  0  0  0  0  0  0
  -18.2570  -26.7330   22.3480 C   0  0  0  0  0  2  0  0  0  0  0  0
  -19.1150  -28.9090   23.3940 C   0  0  0  0  0  0  0  0  0  0  0  0
  -18.8480  -30.1890   23.9270 C   0  0  0  0  0  3  0  0  0  0  0  0
  -17.5260  -30.6610   24.0340 C   0  0  0  0  0  3  0  0  0  0  0  0
  -16.4550  -29.8540   23.6160 C   0  0  0  0  0  3  0  0  0  0  0  0
  -16.7070  -28.5740   23.0900 C   0  0  0  0  0  3  0  0  0  0  0  0
  -25.8820  -32.6150   23.8960 C   0  0  0  0  0  3  0  0  0  0  0  0
  -26.4060  -31.8500   25.1730 C   0  0  1  0  0  0  0  0  0  0  0  0
  -25.3190  -31.6050   26.2470 C   0  0  0  0  0  1  0  0  0  0  0  0
  -26.9900  -30.4750   24.7800 C   0  0  0  0  0  1  0  0  0  0  0  0
  -27.5570  -32.6510   25.8260 C   0  0  0  0  0  1  0  0  0  0  0  0
  -25.5740  -34.0140   24.2220 N   0  0  0  0  0  0  0  0  0  0  0  0
  -25.9010  -35.0650   23.4580 C   0  0  0  0  0  0  0  0  0  0  0  0
  -26.5560  -34.9560   22.4190 O   0  0  0  0  0  0  0  0  0  0  0  0
  -24.9960  -34.1710   25.0360 H   0  0  0  0  0  0  0  0  0  0  0  0
  -24.1650  -36.8530   23.1180 C   0  0  0  0  0  1  0  0  0  0  0  0
  -25.4180  -36.4550   23.9160 C   0  0  0  0  0  3  0  0  0  0  0  0
  -27.5620  -37.3450   24.7150 C   0  0  0  0  0  1  0  0  0  0  0  0
  -26.4480  -37.5090   23.7840 N   0  0  0  0  0  0  0  0  0  0  0  0
  -26.0460  -38.4310   23.9350 H   0  0  0  0  0  0  0  0  0  0  0  0
  1  3  2  0
  1  2  1  0
  2  8  2  0
  3 54  1  0
  3 22  1  0
  4  7  1  0
  5  6  1  0
  5  1  1  0
  5  4  1  0
  7  2  1  0
  7 55  1  0
  9 21  1  0
 10 15  1  0
 11 12  1  0
 11 10  1  0
 13 12  1  0
 13 27  1  0
 13 14  1  0
 15  9  1  0
 15 14  1  0
 16  9  2  0
 17 21  1  0
 18 20  1  0
 19 17  1  0
 19 22  1  0
 21 18  1  0
 22 20  1  0
 22 23  1  6
 24 25  2  0
 25 44  1  0
 26 25  1  0
 26 29  1  0
 27 28  1  0
 27 24  1  0
 28 26  2  0
 29 30  1  0
 30 31  2  0
 32 35  1  0
 32 31  1  0
 33 32  2  0
 34 33  1  0
 34 29  2  0
 35 36  1  0
 36 37  1  0
 37 38  2  0
 39 38  1  0
 39 43  1  0
 40 39  2  0
 41 36  2  0
 41 40  1  0
 42 41  1  0
 44 45  1  0
 45 48  1  0
 45 47  1  0
 46 44  2  0
 49 24  1  0
 49 50  1  0
 51 49  1  0
 52 53  1  0
 52 54  1  0
 53 54  1  0
 56 57  1  0
 56 55  1  0
 58 69  2  0
 59 57  1  0
 59 64  1  0
 60 68  1  0
 60 70  1  0
 61 67  1  0
 61 63  1  0
 62 68  1  0
 63 62  1  0
 64 63  2  0
 65 59  2  0
 66 65  1  0
 66 61  2  0
 67 60  1  0
 68 58  1  0
 70 72  2  0
 71 70  1  0
 73 71  1  0
 74 83  2  0
 74 79  1  0
 75 71  1  0
 75 79  1  0
 76 75  1  0
 77 78  1  0
 77 76  1  0
 78 74  1  0
 79 80  2  0
 80 81  1  0
 82 81  2  0
 83 82  1  0
 84 58  1  0
 84 89  1  0
 84 85  1  0
 85 88  1  1
 85 86  1  0
 87 85  1  0
 89 92  1  0
 90 94  1  0
 90 89  1  0
 91 90  2  0
 94 93  1  0
 96 94  1  0
 96 97  1  0
 96 95  1  0
M  ISO  4   9 100  21 100  56 101  57 101
M  END
>  <TORSDO>  (69) 
F 19

>  <SCORE>  (69) 
-14.537

>  <name>  (69) 
68

>  <ligand_id>  (69) 
68

>  <original_smiles>  (69) 
[H]c1c([H])c([H])c2c(c1[H])C([H])([H])C([H])([H])C([H])([H])C2([H])N([H])C(=O)C1([H])N(C(=O)C([H])(N([H])C(=O)C([H])(N([H])C([H])([H])[H])C([H])([H])[H])C(C([H])([H])[H])(C([H])([H])[H])C([H])([H])[H])C([H])([H])c2c([H])c(OC([H])([H])C([H])([H])N3C(=O)C(=C(C4([H])C([H])([H])C4([H])[H])[N+]4([H])C([H])([H])C([H])([H])N(C(=O)N5C([H])([H])C([H])([H])C([H])([H])C([H])(n6nc(-c7c([H])c([H])c(Oc8c([H])c([H])c(F)c([H])c8F)c([H])c7[H])c(C(=O)N([H])[H])c6N([H])[H])C5([H])[H])C([H])([H])C4([H])[H])C([H])(C([H])([H])[H])C3([H])[H])c([H])c([H])c2C1([H])[H]

>  <smiles>  (69) 
[H]c1c([H])c([H])c2c(c1[H])C([H])([H])C([H])([H])C([H])([H])C2([H])N([H])C(=O)C1([H])N(C(=O)C([H])(N([H])C(=O)C([H])(N([H])C([H])([H])[H])C([H])([H])[H])C(C([H])([H])[H])(C([H])([H])[H])C([H])([H])[H])C([H])([H])c2c([H])c(OC([H])([H])C([H])([H])N3C(=O)C(=C(C4([H])C([H])([H])C4([H])[H])[N+]4([H])C([H])([H])C([H])([H])N(C(=O)N5C([H])([H])C([H])([H])C([H])([H])C([H])(n6nc(-c7c([H])c([H])c(Oc8c([H])c([H])c(F)c([H])c8F)c([H])c7[H])c(C(=O)N([H])[H])c6N([H])[H])C5([H])[H])C([H])([H])C4([H])[H])C([H])(C([H])([H])[H])C3([H])[H])c([H])c([H])c2C1([H])[H]

$$$$
69:0:0
     RDKit          3D

 98101  0  0  1  0  0  0  0  0999 V2000
  -21.5650  -23.2960   19.2970 C   0  0  0  0  0  2  0  0  0  0  0  0
  -22.0510  -24.3060   20.1470 C   0  0  0  0  0  3  0  0  0  0  0  0
  -23.4550  -24.6770   19.7910 C   0  0  0  0  0  3  0  0  0  0  0  0
  -22.1370  -22.1040   19.7230 C   0  0  0  0  0  0  0  0  0  0  0  0
  -24.3800  -22.9610   19.7260 C   0  0  0  0  0  2  0  0  0  0  0  0
  -21.2430  -20.9570   20.2320 C   0  0  0  0  0  1  0  0  0  0  0  0
  -23.4600  -21.9820   19.9450 N   0  0  0  0  0  0  0  0  0  0  0  0
  -19.7400  -23.9230   21.3510 C   0  0  0  0  0  2  0  0  0  0  0  0
  -20.2040  -24.4810   22.5910 C   0  0  0  0  0  2  0  0  0  0  0  0
  -21.3130  -24.0310   21.5660 C   0  0  0  0  0  3  0  0  0  0  0  0
  -23.1680  -26.5010   19.4630 N   0  0  0  0  0  2  0  0  0  0  0  0
  -22.3320  -26.2920   18.9230 H   0  0  0  0  0  0  0  0  0  0  0  0
  -22.0950  -29.4020   18.5540 C   0  0  0  0  0  1  0  0  0  0  0  0
  -22.5470  -28.4810   19.7730 C   0  0  0  0  0  2  0  0  0  0  0  0
  -22.9680  -30.0090   21.9980 C   0  0  0  0  0 15  0  0  0  0  0  0
  -25.1150  -29.1130   22.5310 O   0  0  0  0  0  1  0  0  0  0  0  0
  -24.3100  -31.7300   22.5350 C   0  0  0  0  0  0  0  0  0  0  0  0
  -26.3000  -28.3520   21.7570 C   0  0  0  0  0  3  0  0  0  0  0  0
  -24.1500  -29.2010   20.6120 C   0  0  0  0  0  3  0  0  0  0  0  0
  -25.8100  -29.0860   19.3740 C   0  0  0  0  0  3  0  0  0  0  0  0
  -25.8840  -31.2190   20.7830 C   0  0  0  0  0  2  0  0  0  0  0  0
  -26.5210  -29.9370   20.2870 C   0  0  0  0  0  3  0  0  0  0  0  0
  -27.2250  -29.2610   21.2790 C   0  0  0  0  0  2  0  0  0  0  0  0
  -26.2170  -27.2920   20.7460 C   0  0  0  0  0  2  0  0  0  0  0  0
  -25.9400  -27.6930   19.4410 C   0  0  0  0  0  2  0  0  0  0  0  0
  -24.4390  -29.3610   19.1540 C   0  0  0  0  0  2  0  0  0  0  0  0
  -24.5630  -30.9270   21.2770 N   0  0  0  0  0  0  0  0  0  0  0  0
  -23.1530  -31.9790   22.9760 O   0  0  0  0  0  0  0  0  0  0  0  0
  -23.6840  -27.3760   22.3020 C   0  0  0  0  0  2  0  0  0  0  0  0
  -22.2420  -27.4210   23.0210 N   0  0  0  0  0  0  0  0  0  0  0  0
  -24.2070  -27.2390   23.4040 O   0  0  0  0  0  1  0  0  0  0  0  0
  -22.4500  -27.0210   23.9160 H   0  0  0  0  0  0  0  0  0  0  0  0
  -18.2130  -28.9270   22.3510 C   0  0  0  0  0  0  0  0  0  0  0  0
  -20.6620  -27.9200   22.9540 C   0  0  0  0  0  3  0  0  0  0  0  0
  -20.0460  -26.9190   22.0200 C   0  0  0  0  0  2  0  0  0  0  0  0
  -19.3020  -27.3220   20.7490 C   0  0  0  0  0  2  0  0  0  0  0  0
  -18.0780  -28.0860   21.1060 C   0  0  0  0  0  2  0  0  0  0  0  0
  -19.4530  -29.0750   23.1220 C   0  0  0  0  0  0  0  0  0  0  0  0
  -19.2770  -30.0390   24.1810 C   0  0  0  0  0  3  0  0  0  0  0  0
  -18.0340  -30.7100   24.4390 C   0  0  0  0  0  3  0  0  0  0  0  0
  -16.8630  -30.4310   23.7330 C   0  0  0  0  0  3  0  0  0  0  0  0
  -16.9680  -29.5190   22.6910 C   0  0  0  0  0  3  0  0  0  0  0  0
  -25.3240  -32.5140   23.5740 C   0  0  0  0  0  3  0  0  0  0  0  0
  -25.5290  -31.8900   25.0530 C   0  0  1  0  0  0  0  0  0  0  0  0
  -24.2160  -31.6610   25.8440 C   0  0  0  0  0  1  0  0  0  0  0  0
  -26.2750  -30.5470   24.9950 C   0  0  0  0  0  1  0  0  0  0  0  0
  -26.4220  -32.8010   25.9530 C   0  0  0  0  0  1  0  0  0  0  0  0
  -24.8880  -33.9290   23.8110 N   0  0  0  0  0  0  0  0  0  0  0  0
  -25.4820  -35.0380   23.3370 C   0  0  0  0  0  0  0  0  0  0  0  0
  -26.4510  -34.9740   22.5880 O   0  0  0  0  0  0  0  0  0  0  0  0
  -24.0820  -34.0520   24.4080 H   0  0  0  0  0  0  0  0  0  0  0  0
  -23.9180  -36.8900   22.6440 C   0  0  0  0  0  1  0  0  0  0  0  0
  -24.9140  -36.4320   23.7190 C   0  0  0  0  0  3  0  0  0  0  0  0
  -26.7820  -37.3160   25.0680 C   0  0  0  0  0  1  0  0  0  0  0  0
  -25.9410  -37.4900   23.8860 N   0  0  0  0  0  0  0  0  0  0  0  0
  -25.5050  -38.4080   23.9490 H   0  0  0  0  0  0  0  0  0  0  0  0
  -25.9440  -21.3880   19.3150 C   0  0  0  0  0  1  0  0  0  0  0  0
  -25.3170  -21.0990   18.0390 N   0  0  0  0  0  4  0  0  0  0  0  0
  -24.5510  -20.4760   18.1870 H   0  0  0  0  0  0  0  0  0  0  0  0
  -25.9280  -20.7620   17.3480 H   0  0  0  0  0  0  0  0  0  0  0  0
  -24.9050  -21.9570   17.7150 H   0  0  0  0  0  0  0  0  0  0  0  0
  -27.2400  -19.3280   19.7990 C   0  0  0  0  0 15  0  0  0  0  0  0
  -28.8990  -17.6830   19.6670 C   0  0  0  0  0  2  0  0  0  0  0  0
  -30.3610  -15.1240   19.1890 C   0  0  0  0  0  2  0  0  0  0  0  0
  -29.9480  -13.9400   18.1990 C   0  0  0  0  0  2  0  0  0  0  0  0
  -28.7190  -13.1790   18.6930 C   0  0  0  0  0  2  0  0  0  0  0  0
  -27.8490  -14.2150   19.4030 C   0  0  0  0  0  3  0  0  0  0  0  0
  -28.5410  -15.0300   20.5040 C   0  0  0  0  0  2  0  0  0  0  0  0
  -29.2000  -16.1180   19.7620 N   0  0  0  0  0  0  0  0  0  0  0  0
  -30.1690  -17.8510   19.4750 O   0  0  0  0  0  1  0  0  0  0  0  0
  -25.5880  -14.6220   20.2690 C   0  0  0  0  0  0  0  0  0  0  0  0
  -24.5730  -13.8000   20.6310 C   0  0  0  0  0  0  0  0  0  0  0  0
  -25.0640  -12.4670   20.4710 C   0  0  0  0  0  0  0  0  0  0  0  0
  -26.6020  -13.7760   19.8970 N   0  0  0  0  0  0  0  0  0  0  0  0
  -26.3310  -12.4710   20.0880 N   0  0  0  0  0  0  0  0  0  0  0  0
  -24.3740  -11.1860   20.5850 C   0  0  0  0  0  0  0  0  0  0  0  0
  -24.7070  -10.2530   21.5900 C   0  0  0  0  0  3  0  0  0  0  0  0
  -24.0020   -9.0360   21.6860 C   0  0  0  0  0  3  0  0  0  0  0  0
  -22.9580   -8.7490   20.7780 C   0  0  0  0  0  0  0  0  0  0  0  0
  -22.6520   -9.6730   19.7630 C   0  0  0  0  0  3  0  0  0  0  0  0
  -23.3570  -10.8820   19.6630 C   0  0  0  0  0  3  0  0  0  0  0  0
  -22.2330   -7.5840   20.7800 O   0  0  0  0  0  0  0  0  0  0  0  0
  -21.8800   -6.9650   21.9510 C   0  0  0  0  0  0  0  0  0  0  0  0
  -21.1040   -7.6140   22.9350 C   0  0  0  0  0  3  0  0  0  0  0  0
  -20.7060   -6.9160   24.0920 C   0  0  0  0  0  3  0  0  0  0  0  0
  -21.0740   -5.5670   24.2610 C   0  0  0  0  0  0  0  0  0  0  0  0
  -21.8440   -4.9170   23.2800 C   0  0  0  0  0  3  0  0  0  0  0  0
  -22.2430   -5.6150   22.1270 C   0  0  0  0  0  0  0  0  0  0  0  0
  -22.9670   -4.9790   21.1740 F   0  0  0  0  0  0  0  0  0  0  0  0
  -20.6860   -4.8910   25.3680 F   0  0  0  0  0  0  0  0  0  0  0  0
  -23.1930  -14.2440   20.9930 C   0  0  0  0  0  0  0  0  0  0  0  0
  -22.5180  -13.4980   21.8560 N   0  0  0  0  0  0  0  0  0  0  0  0
  -22.7270  -15.2890   20.5420 O   0  0  0  0  0  0  0  0  0  0  0  0
  -22.9140  -12.6510   22.2340 H   0  0  0  0  0  0  0  0  0  0  0  0
  -21.5890  -13.7780   22.1400 H   0  0  0  0  0  0  0  0  0  0  0  0
  -25.7330  -16.0080   20.1890 N   0  0  0  0  0  0  0  0  0  0  0  0
  -24.9360  -16.6240   20.3120 H   0  0  0  0  0  0  0  0  0  0  0  0
  -26.4920  -16.4370   19.6790 H   0  0  0  0  0  0  0  0  0  0  0  0
  1  4  1  0
  1  2  1  0
  2 10  1  0
  3 11  1  0
  3  2  1  0
  4  7  2  0
  4  6  1  0
  5  3  1  0
  5  7  1  0
  8 10  1  0
  8  9  1  0
 10  9  1  0
 12 11  1  0
 13 14  1  0
 17 28  2  0
 18 16  1  0
 19 14  1  0
 19 27  1  0
 20 26  1  0
 20 25  1  0
 20 22  1  0
 21 27  1  0
 22 21  1  0
 22 23  1  0
 23 18  1  0
 24 18  1  0
 25 24  1  0
 26 19  1  0
 27 17  1  0
 29 30  1  0
 29 31  1  0
 30 32  1  0
 33 42  2  0
 33 38  1  0
 34 30  1  0
 34 38  1  0
 35 34  1  0
 36 37  1  0
 36 35  1  0
 37 33  1  0
 38 39  2  0
 39 40  1  0
 41 40  2  0
 42 41  1  0
 43 17  1  0
 43 48  1  0
 43 44  1  0
 44 45  1  1
 44 47  1  0
 46 44  1  0
 48 51  1  0
 49 53  1  0
 49 48  1  0
 50 49  2  0
 53 52  1  0
 53 55  1  0
 55 56  1  0
 55 54  1  0
 58 59  1  0
 58 57  1  0
 60 58  1  0
 61 58  1  0
 63 69  1  0
 64 69  1  0
 65 66  1  0
 65 64  1  0
 67 66  1  0
 67 74  1  0
 67 68  1  0
 69 68  1  0
 70 63  1  0
 71 72  2  0
 72 91  1  0
 73 76  1  0
 73 72  1  0
 74 75  1  0
 74 71  1  0
 75 73  2  0
 76 77  1  0
 77 78  2  0
 79 82  1  0
 79 78  1  0
 80 79  2  0
 81 80  1  0
 81 76  2  0
 82 83  1  0
 83 88  2  0
 83 84  1  0
 84 85  2  0
 85 86  1  0
 86 90  1  0
 87 86  2  0
 88 87  1  0
 89 88  1  0
 91 92  1  0
 92 95  1  0
 92 94  1  0
 93 91  2  0
 96 71  1  0
 96 97  1  0
 98 96  1  0
M  ISO  4  15 101  16 101  62 100  63 100
M  END
>  <TORSDO>  (70) 
F 23

>  <SCORE>  (70) 
0.810

>  <name>  (70) 
69

>  <ligand_id>  (70) 
69

>  <original_smiles>  (70) 
[H]c1c([H])c([H])c2c(c1[H])C([H])([H])C([H])([H])C([H])([H])C2([H])N([H])C(=O)C1([H])N(C(=O)C([H])(N([H])C(=O)C([H])(N([H])C([H])([H])[H])C([H])([H])[H])C(C([H])([H])[H])(C([H])([H])[H])C([H])([H])[H])C([H])([H])c2c([H])c(OC([H])([H])C([H])(N([H])c3c(C([H])(C([H])([H])C(=O)N4C([H])([H])C([H])([H])C([H])([H])C([H])(n5nc(-c6c([H])c([H])c(Oc7c([H])c([H])c(F)c([H])c7F)c([H])c6[H])c(C(=O)N([H])[H])c5N([H])[H])C4([H])[H])[N+]([H])([H])[H])nc(C([H])([H])[H])c([H])c3C3([H])C([H])([H])C3([H])[H])C([H])([H])[H])c([H])c([H])c2C1([H])[H]

>  <smiles>  (70) 
[H]c1c([H])c([H])c2c(c1[H])C([H])([H])C([H])([H])C([H])([H])C2([H])N([H])C(=O)C1([H])N(C(=O)C([H])(N([H])C(=O)C([H])(N([H])C([H])([H])[H])C([H])([H])[H])C(C([H])([H])[H])(C([H])([H])[H])C([H])([H])[H])C([H])([H])c2c([H])c(OC([H])([H])C([H])(N([H])c3c(C([H])(C([H])([H])C(=O)N4C([H])([H])C([H])([H])C([H])([H])C([H])(n5nc(-c6c([H])c([H])c(Oc7c([H])c([H])c(F)c([H])c7F)c([H])c6[H])c(C(=O)N([H])[H])c5N([H])[H])C4([H])[H])[N+]([H])([H])[H])nc(C([H])([H])[H])c([H])c3C3([H])C([H])([H])C3([H])[H])C([H])([H])[H])c([H])c([H])c2C1([H])[H]

$$$$
70:0:0
     RDKit          3D

 95103  0  0  1  0  0  0  0  0999 V2000
  -27.3900  -20.0440   19.1540 C   0  0  0  0  0  1  0  0  0  0  0  0
  -28.8630  -20.4750   18.9710 C   0  0  0  0  0  3  0  0  0  0  0  0
  -31.5560  -19.8090   21.6270 C   0  0  0  0  0  3  0  0  0  0  0  0
  -30.2870  -20.0590   21.0770 C   0  0  0  0  0  0  0  0  0  0  0  0
  -29.9290  -19.4930   19.8170 C   0  0  0  0  0  3  0  0  0  0  0  0
  -30.7630  -18.2460   19.4840 C   0  0  0  0  0  3  0  0  0  0  0  0
  -32.4640  -19.0390   20.9010 C   0  0  0  0  0  0  0  0  0  0  0  0
  -29.3820  -20.9790   21.8760 C   0  0  0  0  0  1  0  0  0  0  0  0
  -32.0610  -18.2870   19.8680 N   0  0  0  0  0  0  0  0  0  0  0  0
  -31.1620  -15.5510   19.4120 C   0  0  0  0  0  0  0  0  0  0  0  0
  -31.0430  -13.0360   18.9660 C   0  0  0  0  0  2  0  0  0  0  0  0
  -30.0910  -12.6990   17.7960 C   0  0  0  0  0  2  0  0  0  0  0  0
  -28.6530  -12.5460   18.3200 C   0  0  0  0  0  2  0  0  0  0  0  0
  -28.2460  -13.6980   19.2760 C   0  0  0  0  0  3  0  0  0  0  0  0
  -29.3270  -13.9960   20.3360 C   0  0  0  0  0  2  0  0  0  0  0  0
  -30.5560  -14.3020   19.5970 N   0  0  0  0  0  0  0  0  0  0  0  0
  -32.3760  -15.5060   19.1690 O   0  0  0  0  0  0  0  0  0  0  0  0
  -30.4080  -16.7690   19.2080 N   0  0  0  0  0  0  0  0  0  0  0  0
  -29.4260  -16.6150   19.0600 H   0  0  0  0  0  0  0  0  0  0  0  0
  -25.9800  -14.4250   20.2100 C   0  0  0  0  0  0  0  0  0  0  0  0
  -24.8870  -13.7180   20.6220 C   0  0  0  0  0  0  0  0  0  0  0  0
  -25.2390  -12.3360   20.5070 C   0  0  0  0  0  0  0  0  0  0  0  0
  -26.9320  -13.4790   19.8640 N   0  0  0  0  0  0  0  0  0  0  0  0
  -26.5010  -12.2150   20.1140 N   0  0  0  0  0  0  0  0  0  0  0  0
  -24.4280  -11.1260   20.6930 C   0  0  0  0  0  0  0  0  0  0  0  0
  -24.8120  -10.1090   21.5940 C   0  0  0  0  0  3  0  0  0  0  0  0
  -24.0020   -8.9650   21.7680 C   0  0  0  0  0  3  0  0  0  0  0  0
  -22.7950   -8.8340   21.0420 C   0  0  0  0  0  0  0  0  0  0  0  0
  -22.4290   -9.8390   20.1270 C   0  0  0  0  0  3  0  0  0  0  0  0
  -23.2390  -10.9730   19.9510 C   0  0  0  0  0  3  0  0  0  0  0  0
  -21.9590   -7.7460   21.1260 O   0  0  0  0  0  0  0  0  0  0  0  0
  -21.8360   -7.0220   22.2850 C   0  0  0  0  0  0  0  0  0  0  0  0
  -21.4350   -7.6230   23.4970 C   0  0  0  0  0  3  0  0  0  0  0  0
  -21.2560   -6.8340   24.6510 C   0  0  0  0  0  3  0  0  0  0  0  0
  -21.4670   -5.4430   24.5900 C   0  0  0  0  0  0  0  0  0  0  0  0
  -21.8610   -4.8410   23.3820 C   0  0  0  0  0  3  0  0  0  0  0  0
  -22.0410   -5.6280   22.2320 C   0  0  0  0  0  0  0  0  0  0  0  0
  -22.4000   -5.0400   21.0650 F   0  0  0  0  0  0  0  0  0  0  0  0
  -21.2850   -4.6820   25.6950 F   0  0  0  0  0  0  0  0  0  0  0  0
  -23.5500  -14.2870   21.0010 C   0  0  0  0  0  0  0  0  0  0  0  0
  -22.8350  -13.6220   21.9020 N   0  0  0  0  0  0  0  0  0  0  0  0
  -23.1520  -15.3540   20.5350 O   0  0  0  0  0  0  0  0  0  0  0  0
  -23.1710  -12.7530   22.2900 H   0  0  0  0  0  0  0  0  0  0  0  0
  -21.9450  -13.9860   22.2110 H   0  0  0  0  0  0  0  0  0  0  0  0
  -26.2400  -15.7870   20.0710 N   0  0  0  0  0  0  0  0  0  0  0  0
  -25.5290  -16.4860   20.2580 H   0  0  0  0  0  0  0  0  0  0  0  0
  -27.0660  -16.1740   19.6370 H   0  0  0  0  0  0  0  0  0  0  0  0
  -34.3940  -19.8480   22.0650 C   0  0  0  0  0  1  0  0  0  0  0  0
  -33.7990  -18.8880   21.1970 O   0  0  0  0  0  0  0  0  0  0  0  0
  -28.9790  -22.0930   18.8400 N   0  0  0  0  0  4  0  0  0  0  0  0
  -28.9500  -22.2170   17.8390 H   0  0  0  0  0  0  0  0  0  0  0  0
  -29.9270  -22.3410   19.0810 H   0  0  0  0  0  0  0  0  0  0  0  0
  -28.0170  -23.2870   19.3620 C   0  0  0  0  0  2  0  0  0  0  0  0
  -27.9860  -24.8980   18.7300 C   0  0  0  0  0  2  0  0  0  0  0  0
  -27.9350  -26.3640   19.3520 O   0  0  0  0  0  0  0  0  0  0  0  0
  -24.5300  -31.7860   23.0540 C   0  0  0  0  0  0  0  0  0  0  0  0
  -26.8680  -27.3530   19.3950 C   0  0  0  0  0  0  0  0  0  0  0  0
  -23.2030  -30.5290   21.3950 C   0  0  0  0  0  3  0  0  0  0  0  0
  -24.5390  -29.0990   19.7070 C   0  0  0  0  0  0  0  0  0  0  0  0
  -25.7350  -30.8200   21.0570 C   0  0  0  0  0  2  0  0  0  0  0  0
  -25.7580  -29.4900   20.2700 C   0  0  0  0  0  0  0  0  0  0  0  0
  -26.9140  -28.6310   20.1060 C   0  0  0  0  0  3  0  0  0  0  0  0
  -25.6230  -27.0790   18.7950 C   0  0  0  0  0  3  0  0  0  0  0  0
  -24.4860  -27.9110   18.9540 C   0  0  0  0  0  3  0  0  0  0  0  0
  -23.3170  -29.9770   19.9450 C   0  0  0  0  0  2  0  0  0  0  0  0
  -24.5120  -31.0660   21.8900 N   0  0  0  0  0  0  0  0  0  0  0  0
  -23.4930  -32.0070   23.7000 O   0  0  0  0  0  0  0  0  0  0  0  0
  -22.6100  -29.4370   22.3190 C   0  0  0  0  0  0  0  0  0  0  0  0
  -21.2830  -29.2190   22.2510 N   0  0  0  0  0  0  0  0  0  0  0  0
  -23.3480  -28.7890   23.0680 O   0  0  0  0  0  0  0  0  0  0  0  0
  -20.7400  -29.8000   21.6250 H   0  0  0  0  0  0  0  0  0  0  0  0
  -18.0080  -27.7490   22.7490 C   0  0  0  0  0  0  0  0  0  0  0  0
  -20.5440  -28.1920   22.9950 C   0  0  0  0  0  3  0  0  0  0  0  0
  -20.7440  -26.7950   22.3620 C   0  0  0  0  0  2  0  0  0  0  0  0
  -19.6540  -26.4320   21.3490 C   0  0  0  0  0  2  0  0  0  0  0  0
  -18.2740  -26.4470   22.0140 C   0  0  0  0  0  2  0  0  0  0  0  0
  -19.0740  -28.5770   23.1960 C   0  0  0  0  0  0  0  0  0  0  0  0
  -18.7700  -29.7920   23.8440 C   0  0  0  0  0  3  0  0  0  0  0  0
  -17.4340  -30.1830   24.0540 C   0  0  0  0  0  3  0  0  0  0  0  0
  -16.3850  -29.3560   23.6190 C   0  0  0  0  0  3  0  0  0  0  0  0
  -16.6710  -28.1400   22.9710 C   0  0  0  0  0  3  0  0  0  0  0  0
  -25.8520  -32.3820   23.6240 C   0  0  0  0  0  3  0  0  0  0  0  0
  -25.5700  -33.7560   24.0730 N   0  0  0  0  0  0  0  0  0  0  0  0
  -25.8740  -34.8640   23.3830 C   0  0  0  0  0  0  0  0  0  0  0  0
  -26.4900  -34.8350   22.3150 O   0  0  0  0  0  0  0  0  0  0  0  0
  -25.0120  -33.8450   24.9100 H   0  0  0  0  0  0  0  0  0  0  0  0
  -24.1560  -36.7070   23.2610 C   0  0  0  0  0  1  0  0  0  0  0  0
  -25.4290  -36.2220   23.9710 C   0  0  0  0  0  3  0  0  0  0  0  0
  -27.6120  -37.0290   24.7510 C   0  0  0  0  0  1  0  0  0  0  0  0
  -26.4670  -37.2720   23.8810 N   0  0  0  0  0  0  0  0  0  0  0  0
  -26.0790  -38.1840   24.1060 H   0  0  0  0  0  0  0  0  0  0  0  0
  -26.4470  -31.5290   24.8150 C   0  0  1  0  0  0  0  0  0  0  0  0
  -25.4280  -31.2370   25.9440 C   0  0  0  0  0  1  0  0  0  0  0  0
  -26.9860  -30.1680   24.3130 C   0  0  0  0  0  1  0  0  0  0  0  0
  -27.6530  -32.2730   25.4330 C   0  0  0  0  0  1  0  0  0  0  0  0
  2  1  1  0
  4  3  2  0
  4  8  1  0
  5  2  1  0
  5  4  1  0
  6 18  1  0
  6  5  1  0
  6  9  1  0
  7 49  1  0
  7  3  1  0
  9  7  2  0
 10 16  1  0
 11 16  1  0
 12 13  1  0
 12 11  1  0
 14 13  1  0
 14 23  1  0
 14 15  1  0
 16 15  1  0
 17 10  2  0
 18 10  1  0
 19 18  1  0
 20 21  2  0
 21 40  1  0
 22 21  1  0
 22 25  1  0
 23 24  1  0
 23 20  1  0
 24 22  2  0
 25 26  1  0
 26 27  2  0
 28 31  1  0
 28 27  1  0
 29 28  2  0
 30 29  1  0
 30 25  2  0
 31 32  1  0
 32 33  1  0
 33 34  2  0
 35 34  1  0
 35 39  1  0
 36 35  2  0
 37 32  2  0
 37 36  1  0
 38 37  1  0
 40 41  1  0
 41 44  1  0
 41 43  1  0
 42 40  2  0
 45 20  1  0
 45 46  1  0
 47 45  1  0
 49 48  1  0
 50  2  1  0
 50 52  1  0
 50 53  1  0
 51 50  1  0
 54 55  1  0
 54 53  1  0
 55 57  1  0
 56 67  2  0
 57 62  1  0
 58 66  1  0
 58 68  1  0
 59 65  1  0
 59 61  1  0
 60 66  1  0
 61 60  1  0
 62 61  2  0
 63 64  1  0
 63 57  2  0
 64 59  2  0
 65 58  1  0
 66 56  1  0
 68 70  2  0
 69 68  1  0
 71 69  1  0
 72 81  2  0
 72 77  1  0
 73 69  1  0
 73 77  1  0
 74 73  1  0
 75 76  1  0
 75 74  1  0
 76 72  1  0
 77 78  2  0
 78 79  1  0
 80 79  2  0
 81 80  1  0
 82 56  1  0
 82 83  1  0
 82 92  1  0
 83 86  1  0
 84 88  1  0
 84 83  1  0
 85 84  2  0
 88 87  1  0
 90 88  1  0
 90 91  1  0
 90 89  1  0
 92 95  1  1
 92 93  1  0
 94 92  1  0
M  ISO  4  10 100  18 100  54 101  55 101
M  END
>  <TORSDO>  (71) 
F 21

>  <SCORE>  (71) 
-13.221

>  <name>  (71) 
70

>  <ligand_id>  (71) 
70

>  <original_smiles>  (71) 
[H]c1c([H])c([H])c2c(c1[H])C([H])([H])C([H])([H])C([H])([H])C2([H])N([H])C(=O)C1([H])N(C(=O)C([H])(N([H])C(=O)C([H])(N([H])C([H])([H])[H])C([H])([H])[H])C(C([H])([H])[H])(C([H])([H])[H])C([H])([H])[H])C([H])([H])c2c([H])c(OC([H])([H])C([H])([H])[N+]([H])([H])C([H])(c3c(N([H])C(=O)N4C([H])([H])C([H])([H])C([H])([H])C([H])(n5nc(-c6c([H])c([H])c(Oc7c([H])c([H])c(F)c([H])c7F)c([H])c6[H])c(C(=O)N([H])[H])c5N([H])[H])C4([H])[H])nc(OC([H])([H])[H])c([H])c3C([H])([H])[H])C([H])([H])[H])c([H])c([H])c2C1([H])[H]

>  <smiles>  (71) 
[H]c1c([H])c([H])c2c(c1[H])C([H])([H])C([H])([H])C([H])([H])C2([H])N([H])C(=O)C1([H])N(C(=O)C([H])(N([H])C(=O)C([H])(N([H])C([H])([H])[H])C([H])([H])[H])C(C([H])([H])[H])(C([H])([H])[H])C([H])([H])[H])C([H])([H])c2c([H])c(OC([H])([H])C([H])([H])[N+]([H])([H])C([H])(c3c(N([H])C(=O)N4C([H])([H])C([H])([H])C([H])([H])C([H])(n5nc(-c6c([H])c([H])c(Oc7c([H])c([H])c(F)c([H])c7F)c([H])c6[H])c(C(=O)N([H])[H])c5N([H])[H])C4([H])[H])nc(OC([H])([H])[H])c([H])c3C([H])([H])[H])C([H])([H])[H])c([H])c([H])c2C1([H])[H]

$$$$
71:0:0
     RDKit          3D

 89 98  0  0  1  0  0  0  0  0999 V2000
  -29.9400  -22.4650   19.9140 C   0  0  0  0  0  3  0  0  0  0  0  0
  -29.7480  -23.9290   19.8750 C   0  0  0  0  0  3  0  0  0  0  0  0
  -28.9010  -21.4700   20.0950 C   0  0  0  0  0  0  0  0  0  0  0  0
  -27.6750  -22.2820   20.2110 C   0  0  0  0  0  0  0  0  0  0  0  0
  -28.4920  -24.6410   20.0010 C   0  0  0  0  0  0  0  0  0  0  0  0
  -26.3740  -21.5380   20.4250 C   0  0  0  0  0  1  0  0  0  0  0  0
  -27.4840  -23.7010   20.1700 N   0  0  0  0  0  0  0  0  0  0  0  0
  -29.0560  -18.9360   18.9180 C   0  0  0  0  0  2  0  0  0  0  0  0
  -28.9870  -19.7170   20.2050 C   0  0  0  0  0  3  0  0  0  0  0  0
  -29.9820  -18.2760   19.9220 C   0  0  0  0  0  3  0  0  0  0  0  0
  -30.5690  -15.4330   19.8800 C   0  0  0  0  0  0  0  0  0  0  0  0
  -30.4950  -13.0270   18.9380 C   0  0  0  0  0  2  0  0  0  0  0  0
  -29.4880  -12.8760   17.7700 C   0  0  0  0  0  2  0  0  0  0  0  0
  -28.0730  -12.5930   18.3030 C   0  0  0  0  0  2  0  0  0  0  0  0
  -27.7040  -13.5170   19.4900 C   0  0  0  0  0  3  0  0  0  0  0  0
  -28.8280  -13.6160   20.5440 C   0  0  0  0  0  2  0  0  0  0  0  0
  -30.0150  -14.1280   19.8450 N   0  0  0  0  0  0  0  0  0  0  0  0
  -31.7640  -15.4740   19.5520 O   0  0  0  0  0  0  0  0  0  0  0  0
  -29.7740  -16.6590   20.0700 N   0  0  0  0  0  0  0  0  0  0  0  0
  -28.8220  -16.4270   20.3110 H   0  0  0  0  0  0  0  0  0  0  0  0
  -25.3940  -14.0460   20.4320 C   0  0  0  0  0  0  0  0  0  0  0  0
  -24.3620  -13.2540   20.8500 C   0  0  0  0  0  0  0  0  0  0  0  0
  -24.8250  -11.9070   20.7340 C   0  0  0  0  0  0  0  0  0  0  0  0
  -26.4160  -13.1820   20.0800 N   0  0  0  0  0  0  0  0  0  0  0  0
  -26.0900  -11.8870   20.3280 N   0  0  0  0  0  0  0  0  0  0  0  0
  -24.1130  -10.6370   20.9290 C   0  0  0  0  0  0  0  0  0  0  0  0
  -24.5620   -9.6710   21.8550 C   0  0  0  0  0  3  0  0  0  0  0  0
  -23.8480   -8.4670   22.0380 C   0  0  0  0  0  3  0  0  0  0  0  0
  -22.6700   -8.2200   21.2930 C   0  0  0  0  0  0  0  0  0  0  0  0
  -22.2400   -9.1740   20.3540 C   0  0  0  0  0  3  0  0  0  0  0  0
  -22.9550  -10.3690   20.1710 C   0  0  0  0  0  3  0  0  0  0  0  0
  -21.9270   -7.0680   21.3840 O   0  0  0  0  0  0  0  0  0  0  0  0
  -21.8400   -6.3590   22.5550 C   0  0  0  0  0  0  0  0  0  0  0  0
  -21.3160   -6.9300   23.7370 C   0  0  0  0  0  3  0  0  0  0  0  0
  -21.1820   -6.1440   24.8990 C   0  0  0  0  0  3  0  0  0  0  0  0
  -21.5610   -4.7890   24.8810 C   0  0  0  0  0  0  0  0  0  0  0  0
  -22.0760   -4.2170   23.7050 C   0  0  0  0  0  3  0  0  0  0  0  0
  -22.2130   -5.0000   22.5450 C   0  0  0  0  0  0  0  0  0  0  0  0
  -22.6910   -4.4380   21.4090 F   0  0  0  0  0  0  0  0  0  0  0  0
  -21.4230   -4.0320   25.9950 F   0  0  0  0  0  0  0  0  0  0  0  0
  -22.9880  -13.7180   21.2350 C   0  0  0  0  0  0  0  0  0  0  0  0
  -22.3220  -12.9920   22.1240 N   0  0  0  0  0  0  0  0  0  0  0  0
  -22.5170  -14.7600   20.7810 O   0  0  0  0  0  0  0  0  0  0  0  0
  -22.7170  -12.1490   22.5130 H   0  0  0  0  0  0  0  0  0  0  0  0
  -21.4020  -13.2860   22.4230 H   0  0  0  0  0  0  0  0  0  0  0  0
  -25.5410  -15.4230   20.2930 N   0  0  0  0  0  0  0  0  0  0  0  0
  -24.7710  -16.0610   20.4650 H   0  0  0  0  0  0  0  0  0  0  0  0
  -26.3330  -15.8730   19.8550 H   0  0  0  0  0  0  0  0  0  0  0  0
  -28.3610  -26.1680   20.0260 O   0  0  0  0  0  0  0  0  0  0  0  0
  -24.6500  -31.9130   23.1560 C   0  0  0  0  0  0  0  0  0  0  0  0
  -27.2640  -27.1590   20.0460 C   0  0  0  0  0  0  0  0  0  0  0  0
  -23.4690  -30.5390   21.4850 C   0  0  0  0  0  3  0  0  0  0  0  0
  -24.9320  -28.9780   20.0340 C   0  0  0  0  0  0  0  0  0  0  0  0
  -26.0280  -30.7910   21.3430 C   0  0  0  0  0  2  0  0  0  0  0  0
  -26.1100  -29.3970   20.6650 C   0  0  0  0  0  0  0  0  0  0  0  0
  -27.2680  -28.5070   20.6470 C   0  0  0  0  0  3  0  0  0  0  0  0
  -26.0560  -26.8780   19.3720 C   0  0  0  0  0  3  0  0  0  0  0  0
  -24.9260  -27.7380   19.3720 C   0  0  0  0  0  3  0  0  0  0  0  0
  -23.7030  -29.8840   20.0960 C   0  0  0  0  0  2  0  0  0  0  0  0
  -24.7360  -31.1080   22.0490 N   0  0  0  0  0  0  0  0  0  0  0  0
  -23.5580  -32.1800   23.6850 O   0  0  0  0  0  0  0  0  0  0  0  0
  -22.7880  -29.5160   22.4300 C   0  0  0  0  0  0  0  0  0  0  0  0
  -21.4590  -29.3440   22.3040 N   0  0  0  0  0  0  0  0  0  0  0  0
  -23.4600  -28.8770   23.2430 O   0  0  0  0  0  0  0  0  0  0  0  0
  -20.9690  -29.9120   21.6260 H   0  0  0  0  0  0  0  0  0  0  0  0
  -18.0790  -28.1430   22.8330 C   0  0  0  0  0  0  0  0  0  0  0  0
  -20.6450  -28.3830   23.0540 C   0  0  0  0  0  3  0  0  0  0  0  0
  -20.7240  -26.9730   22.4210 C   0  0  0  0  0  2  0  0  0  0  0  0
  -19.6000  -26.6980   21.4170 C   0  0  0  0  0  2  0  0  0  0  0  0
  -18.2330  -26.8220   22.0960 C   0  0  0  0  0  2  0  0  0  0  0  0
  -19.2110  -28.8830   23.2680 C   0  0  0  0  0  0  0  0  0  0  0  0
  -19.0090  -30.1180   23.9210 C   0  0  0  0  0  3  0  0  0  0  0  0
  -17.7100  -30.6140   24.1400 C   0  0  0  0  0  3  0  0  0  0  0  0
  -16.5930  -29.8710   23.7180 C   0  0  0  0  0  3  0  0  0  0  0  0
  -16.7790  -28.6370   23.0710 C   0  0  0  0  0  3  0  0  0  0  0  0
  -25.9160  -32.5520   23.8040 C   0  0  0  0  0  3  0  0  0  0  0  0
  -25.5890  -33.9430   24.1600 N   0  0  0  0  0  0  0  0  0  0  0  0
  -25.8850  -35.0160   23.4140 C   0  0  0  0  0  0  0  0  0  0  0  0
  -26.5240  -34.9390   22.3610 O   0  0  0  0  0  0  0  0  0  0  0  0
  -25.0160  -34.0750   24.9790 H   0  0  0  0  0  0  0  0  0  0  0  0
  -24.1090  -36.7860   23.1690 C   0  0  0  0  0  1  0  0  0  0  0  0
  -25.3960  -36.3920   23.9110 C   0  0  0  0  0  3  0  0  0  0  0  0
  -27.5470  -37.3220   24.6520 C   0  0  0  0  0  1  0  0  0  0  0  0
  -26.4020  -37.4670   23.7570 N   0  0  0  0  0  0  0  0  0  0  0  0
  -25.9830  -38.3780   23.9230 H   0  0  0  0  0  0  0  0  0  0  0  0
  -26.4220  -31.7700   25.0790 C   0  0  1  0  0  0  0  0  0  0  0  0
  -25.3180  -31.5120   26.1320 C   0  0  0  0  0  1  0  0  0  0  0  0
  -27.0200  -30.3990   24.6860 C   0  0  0  0  0  1  0  0  0  0  0  0
  -27.5580  -32.5650   25.7640 C   0  0  0  0  0  1  0  0  0  0  0  0
  1  3  1  0
  2  1  2  0
  2  5  1  0
  3  4  2  0
  4  6  1  0
  5 49  1  0
  5  7  2  0
  7  4  1  0
  8 10  1  0
  8  9  1  0
  9  3  1  0
 10 19  1  0
 10  9  1  0
 11 19  1  0
 12 17  1  0
 13 14  1  0
 13 12  1  0
 15 14  1  0
 15 24  1  0
 15 16  1  0
 17 11  1  0
 17 16  1  0
 18 11  2  0
 19 20  1  0
 21 22  2  0
 22 41  1  0
 23 22  1  0
 23 26  1  0
 24 25  1  0
 24 21  1  0
 25 23  2  0
 26 27  1  0
 27 28  2  0
 29 32  1  0
 29 28  1  0
 30 29  2  0
 31 30  1  0
 31 26  2  0
 32 33  1  0
 33 34  1  0
 34 35  2  0
 36 35  1  0
 36 40  1  0
 37 36  2  0
 38 33  2  0
 38 37  1  0
 39 38  1  0
 41 42  1  0
 42 45  1  0
 42 44  1  0
 43 41  2  0
 46 21  1  0
 46 47  1  0
 48 46  1  0
 49 51  1  0
 50 61  2  0
 51 56  1  0
 52 60  1  0
 52 62  1  0
 53 59  1  0
 53 55  1  0
 54 60  1  0
 55 54  1  0
 56 55  2  0
 57 58  1  0
 57 51  2  0
 58 53  2  0
 59 52  1  0
 60 50  1  0
 62 64  2  0
 63 62  1  0
 65 63  1  0
 66 75  2  0
 66 71  1  0
 67 63  1  0
 67 71  1  0
 68 67  1  0
 69 70  1  0
 69 68  1  0
 70 66  1  0
 71 72  2  0
 72 73  1  0
 74 73  2  0
 75 74  1  0
 76 50  1  0
 76 77  1  0
 76 86  1  0
 77 80  1  0
 78 82  1  0
 78 77  1  0
 79 78  2  0
 82 81  1  0
 84 82  1  0
 84 85  1  0
 84 83  1  0
 86 89  1  1
 86 87  1  0
 88 86  1  0
M  ISO  4   5 101  11 100  19 100  49 101
M  END
>  <TORSDO>  (72) 
F 17

>  <SCORE>  (72) 
-14.031

>  <name>  (72) 
71

>  <ligand_id>  (72) 
71

>  <original_smiles>  (72) 
[H]c1c(Oc2c([H])c([H])c3c(c2[H])C([H])([H])N(C(=O)C([H])(N([H])C(=O)C([H])(N([H])C([H])([H])[H])C([H])([H])[H])C(C([H])([H])[H])(C([H])([H])[H])C([H])([H])[H])C([H])(C(=O)N([H])C2([H])c4c([H])c([H])c([H])c([H])c4C([H])([H])C([H])([H])C2([H])[H])C3([H])[H])nc(C([H])([H])[H])c(C2([H])C([H])([H])C2([H])N([H])C(=O)N2C([H])([H])C([H])([H])C([H])([H])C([H])(n3nc(-c4c([H])c([H])c(Oc5c([H])c([H])c(F)c([H])c5F)c([H])c4[H])c(C(=O)N([H])[H])c3N([H])[H])C2([H])[H])c1[H]

>  <smiles>  (72) 
[H]c1c(Oc2c([H])c([H])c3c(c2[H])C([H])([H])N(C(=O)C([H])(N([H])C(=O)C([H])(N([H])C([H])([H])[H])C([H])([H])[H])C(C([H])([H])[H])(C([H])([H])[H])C([H])([H])[H])C([H])(C(=O)N([H])C2([H])c4c([H])c([H])c([H])c([H])c4C([H])([H])C([H])([H])C2([H])[H])C3([H])[H])nc(C([H])([H])[H])c(C2([H])C([H])([H])C2([H])N([H])C(=O)N2C([H])([H])C([H])([H])C([H])([H])C([H])(n3nc(-c4c([H])c([H])c(Oc5c([H])c([H])c(F)c([H])c5F)c([H])c4[H])c(C(=O)N([H])[H])c3N([H])[H])C2([H])[H])c1[H]

$$$$
72:0:0
     RDKit          3D

 96105  0  0  1  0  0  0  0  0999 V2000
  -30.3810  -23.6900   19.6210 C   0  0  0  0  0  2  0  0  0  0  0  0
  -29.7300  -22.6770   20.3750 C   0  0  0  0  0  3  0  0  0  0  0  0
  -28.5130  -23.1690   20.9420 C   0  0  0  0  0  3  0  0  0  0  0  0
  -28.8520  -25.3570   20.1670 C   0  0  0  0  0  0  0  0  0  0  0  0
  -27.6110  -22.2910   21.7820 C   0  0  0  0  0  1  0  0  0  0  0  0
  -29.9600  -24.9790   19.5310 N   0  0  0  0  0  0  0  0  0  0  0  0
  -28.0970  -24.4780   20.8450 N   0  0  0  0  0  0  0  0  0  0  0  0
  -28.6670  -26.7380   20.2230 O   0  0  0  0  0  0  0  0  0  0  0  0
  -24.6500  -31.9130   23.3270 C   0  0  0  0  0  0  0  0  0  0  0  0
  -27.4470  -27.4390   20.2800 C   0  0  0  0  0  0  0  0  0  0  0  0
  -23.5130  -30.5020   21.6460 C   0  0  0  0  0  3  0  0  0  0  0  0
  -25.0290  -28.9840   20.2460 C   0  0  0  0  0  0  0  0  0  0  0  0
  -26.0430  -30.8780   21.5210 C   0  0  0  0  0  2  0  0  0  0  0  0
  -26.1680  -29.5010   20.8720 C   0  0  0  0  0  0  0  0  0  0  0  0
  -27.3740  -28.7370   20.8790 C   0  0  0  0  0  3  0  0  0  0  0  0
  -26.2810  -26.9670   19.6370 C   0  0  0  0  0  3  0  0  0  0  0  0
  -25.0870  -27.7220   19.6250 C   0  0  0  0  0  3  0  0  0  0  0  0
  -23.7720  -29.8350   20.2680 C   0  0  0  0  0  2  0  0  0  0  0  0
  -24.7530  -31.1170   22.2220 N   0  0  0  0  0  0  0  0  0  0  0  0
  -23.5500  -32.1620   23.8400 O   0  0  0  0  0  0  0  0  0  0  0  0
  -22.8510  -29.4660   22.5860 C   0  0  0  0  0  0  0  0  0  0  0  0
  -21.5410  -29.2330   22.4040 N   0  0  0  0  0  0  0  0  0  0  0  0
  -23.5210  -28.8740   23.4360 O   0  0  0  0  0  0  0  0  0  0  0  0
  -21.0620  -29.7690   21.6930 H   0  0  0  0  0  0  0  0  0  0  0  0
  -18.2080  -27.8720   22.7330 C   0  0  0  0  0  0  0  0  0  0  0  0
  -20.7280  -28.2640   23.1420 C   0  0  0  0  0  3  0  0  0  0  0  0
  -20.9340  -26.8330   22.5930 C   0  0  0  0  0  2  0  0  0  0  0  0
  -19.9070  -26.4440   21.5250 C   0  0  0  0  0  2  0  0  0  0  0  0
  -18.4870  -26.5260   22.0890 C   0  0  0  0  0  2  0  0  0  0  0  0
  -19.2590  -28.6960   23.2130 C   0  0  0  0  0  0  0  0  0  0  0  0
  -18.9430  -29.9530   23.7740 C   0  0  0  0  0  3  0  0  0  0  0  0
  -17.6080  -30.3890   23.8570 C   0  0  0  0  0  3  0  0  0  0  0  0
  -16.5700  -29.5610   23.3950 C   0  0  0  0  0  3  0  0  0  0  0  0
  -16.8690  -28.3060   22.8390 C   0  0  0  0  0  3  0  0  0  0  0  0
  -25.9060  -32.5670   23.9830 C   0  0  0  0  0  3  0  0  0  0  0  0
  -26.3750  -31.8310   25.2980 C   0  0  1  0  0  0  0  0  0  0  0  0
  -25.2410  -31.6100   26.3260 C   0  0  0  0  0  1  0  0  0  0  0  0
  -26.9830  -30.4500   24.9640 C   0  0  0  0  0  1  0  0  0  0  0  0
  -27.4900  -32.6500   25.9890 C   0  0  0  0  0  1  0  0  0  0  0  0
  -25.5770  -33.9710   24.2690 N   0  0  0  0  0  0  0  0  0  0  0  0
  -25.9260  -35.0070   23.4930 C   0  0  0  0  0  0  0  0  0  0  0  0
  -26.6230  -34.8820   22.4830 O   0  0  0  0  0  0  0  0  0  0  0  0
  -24.9640  -34.1430   25.0520 H   0  0  0  0  0  0  0  0  0  0  0  0
  -24.1940  -36.7740   23.0480 C   0  0  0  0  0  1  0  0  0  0  0  0
  -25.4170  -36.4030   23.9020 C   0  0  0  0  0  3  0  0  0  0  0  0
  -27.5180  -37.3300   24.7700 C   0  0  0  0  0  1  0  0  0  0  0  0
  -26.4450  -37.4610   23.7880 N   0  0  0  0  0  0  0  0  0  0  0  0
  -26.0270  -38.3810   23.8950 H   0  0  0  0  0  0  0  0  0  0  0  0
  -30.5560  -21.3600   20.8070 C   0  0  0  0  0  3  0  0  0  0  0  0
  -30.1250  -17.9410   18.9220 C   0  0  0  0  0  2  0  0  0  0  0  0
  -29.9050  -19.4930   19.0080 C   0  0  0  0  0  2  0  0  0  0  0  0
  -30.3510  -18.6710   21.2260 C   0  0  0  0  0  2  0  0  0  0  0  0
  -29.8550  -17.4530   20.3540 C   0  0  0  0  0  3  0  0  0  0  0  0
  -30.4540  -19.8880   20.3230 N   0  0  2  0  0  4  0  0  0  0  0  0
  -31.4350  -19.7800   20.1010 H   0  0  0  0  0  0  0  0  0  0  0  0
  -30.8430  -14.9320   20.4730 C   0  0  0  0  0  0  0  0  0  0  0  0
  -30.7040  -12.6420   19.4920 C   0  0  0  0  0  2  0  0  0  0  0  0
  -29.7930  -12.7150   18.2430 C   0  0  0  0  0  2  0  0  0  0  0  0
  -28.3130  -12.5340   18.6370 C   0  0  0  0  0  2  0  0  0  0  0  0
  -27.9070  -13.4350   19.8320 C   0  0  0  0  0  3  0  0  0  0  0  0
  -28.9340  -13.3370   20.9850 C   0  0  0  0  0  2  0  0  0  0  0  0
  -30.2590  -13.6850   20.4420 N   0  0  0  0  0  0  0  0  0  0  0  0
  -31.9960  -15.1020   20.0690 O   0  0  0  0  0  0  0  0  0  0  0  0
  -30.0040  -15.9840   20.7730 N   0  0  0  0  0  0  0  0  0  0  0  0
  -29.1630  -15.6330   21.2040 H   0  0  0  0  0  0  0  0  0  0  0  0
  -25.4970  -14.0450   20.4780 C   0  0  0  0  0  0  0  0  0  0  0  0
  -24.4180  -13.2800   20.8280 C   0  0  0  0  0  0  0  0  0  0  0  0
  -24.8780  -11.9270   20.8270 C   0  0  0  0  0  0  0  0  0  0  0  0
  -26.5450  -13.1590   20.2820 N   0  0  0  0  0  0  0  0  0  0  0  0
  -26.1760  -11.8820   20.5540 N   0  0  0  0  0  0  0  0  0  0  0  0
  -24.1440  -10.6680   21.0120 C   0  0  0  0  0  0  0  0  0  0  0  0
  -24.5450   -9.7120   21.9690 C   0  0  0  0  0  3  0  0  0  0  0  0
  -23.8100   -8.5180   22.1400 C   0  0  0  0  0  3  0  0  0  0  0  0
  -22.6590   -8.2750   21.3550 C   0  0  0  0  0  0  0  0  0  0  0  0
  -22.2780   -9.2200   20.3870 C   0  0  0  0  0  3  0  0  0  0  0  0
  -23.0140  -10.4050   20.2130 C   0  0  0  0  0  3  0  0  0  0  0  0
  -21.9020   -7.1320   21.4330 O   0  0  0  0  0  0  0  0  0  0  0  0
  -21.8160   -6.4030   22.5920 C   0  0  0  0  0  0  0  0  0  0  0  0
  -21.3090   -6.9610   23.7870 C   0  0  0  0  0  3  0  0  0  0  0  0
  -21.1730   -6.1570   24.9370 C   0  0  0  0  0  3  0  0  0  0  0  0
  -21.5350   -4.7970   24.8920 C   0  0  0  0  0  0  0  0  0  0  0  0
  -22.0300   -4.2380   23.7010 C   0  0  0  0  0  3  0  0  0  0  0  0
  -22.1680   -5.0380   22.5540 C   0  0  0  0  0  0  0  0  0  0  0  0
  -22.6300   -4.4910   21.4040 F   0  0  0  0  0  0  0  0  0  0  0  0
  -21.3960   -4.0220   25.9920 F   0  0  0  0  0  0  0  0  0  0  0  0
  -23.0150  -13.7670   21.0530 C   0  0  0  0  0  0  0  0  0  0  0  0
  -22.2610  -13.0890   21.9110 N   0  0  0  0  0  0  0  0  0  0  0  0
  -22.5940  -14.7820   20.5000 O   0  0  0  0  0  0  0  0  0  0  0  0
  -22.6140  -12.2700   22.3820 H   0  0  0  0  0  0  0  0  0  0  0  0
  -21.3190  -13.4000   22.1010 H   0  0  0  0  0  0  0  0  0  0  0  0
  -25.6670  -15.4120   20.2790 N   0  0  0  0  0  0  0  0  0  0  0  0
  -24.8880  -16.0570   20.3410 H   0  0  0  0  0  0  0  0  0  0  0  0
  -26.4970  -15.8310   19.8800 H   0  0  0  0  0  0  0  0  0  0  0  0
  -30.5890  -21.0290   23.4240 C   0  0  0  0  0  1  0  0  0  0  0  0
  -32.7770  -21.2050   22.1410 C   0  0  0  0  0  1  0  0  0  0  0  0
  -31.2840  -21.5880   22.1730 C   0  0  0  0  0  3  0  0  0  0  0  0
  1  2  1  0
  2 49  1  0
  2  3  1  0
  3  5  1  0
  4  8  1  0
  4  7  2  0
  6  1  1  0
  6  4  2  0
  7  3  1  0
  8 10  1  0
  9 20  2  0
 10 15  1  0
 11 19  1  0
 11 21  1  0
 12 18  1  0
 12 14  1  0
 13 19  1  0
 14 15  2  0
 14 13  1  0
 16 10  2  0
 17 16  1  0
 17 12  2  0
 18 11  1  0
 19  9  1  0
 21 23  2  0
 22 21  1  0
 24 22  1  0
 25 34  2  0
 25 30  1  0
 26 22  1  0
 26 30  1  0
 27 26  1  0
 28 29  1  0
 28 27  1  0
 29 25  1  0
 30 31  2  0
 31 32  1  0
 33 32  2  0
 34 33  1  0
 35  9  1  0
 35 40  1  0
 35 36  1  0
 36 39  1  1
 36 37  1  0
 38 36  1  0
 40 43  1  0
 41 45  1  0
 41 40  1  0
 42 41  2  0
 45 44  1  0
 47 48  1  0
 47 45  1  0
 47 46  1  0
 49 96  1  0
 50 51  1  0
 50 53  1  0
 51 54  1  0
 53 64  1  0
 53 52  1  0
 54 49  1  0
 54 52  1  0
 54 55  1  6
 56 64  1  0
 57 62  1  0
 58 59  1  0
 58 57  1  0
 60 59  1  0
 60 69  1  0
 60 61  1  0
 62 56  1  0
 62 61  1  0
 63 56  2  0
 64 65  1  0
 66 67  2  0
 67 86  1  0
 68 67  1  0
 68 71  1  0
 69 66  1  0
 69 70  1  0
 70 68  2  0
 71 72  1  0
 72 73  2  0
 74 77  1  0
 74 73  1  0
 75 74  2  0
 76 75  1  0
 76 71  2  0
 77 78  1  0
 78 79  1  0
 79 80  2  0
 81 80  1  0
 81 85  1  0
 82 81  2  0
 83 78  2  0
 83 82  1  0
 84 83  1  0
 86 87  1  0
 87 90  1  0
 87 89  1  0
 88 86  2  0
 91 92  1  0
 91 66  1  0
 93 91  1  0
 95 96  1  0
 96 94  1  0
M  ISO  4   4 101   8 101  56 100  64 100
M  END
>  <TORSDO>  (73) 
F 19

>  <SCORE>  (73) 
-14.154

>  <name>  (73) 
72

>  <ligand_id>  (73) 
72

>  <original_smiles>  (73) 
[H]c1nc(Oc2c([H])c([H])c3c(c2[H])C([H])([H])N(C(=O)C([H])(N([H])C(=O)C([H])(N([H])C([H])([H])[H])C([H])([H])[H])C(C([H])([H])[H])(C([H])([H])[H])C([H])([H])[H])C([H])(C(=O)N([H])C2([H])c4c([H])c([H])c([H])c([H])c4C([H])([H])C([H])([H])C2([H])[H])C3([H])[H])nc(C([H])([H])[H])c1C([H])(C([H])(C([H])([H])[H])C([H])([H])[H])[N+]1([H])C([H])([H])C([H])([H])C([H])(N([H])C(=O)N2C([H])([H])C([H])([H])C([H])([H])C([H])(n3nc(-c4c([H])c([H])c(Oc5c([H])c([H])c(F)c([H])c5F)c([H])c4[H])c(C(=O)N([H])[H])c3N([H])[H])C2([H])[H])C1([H])[H]

>  <smiles>  (73) 
[H]c1nc(Oc2c([H])c([H])c3c(c2[H])C([H])([H])N(C(=O)C([H])(N([H])C(=O)C([H])(N([H])C([H])([H])[H])C([H])([H])[H])C(C([H])([H])[H])(C([H])([H])[H])C([H])([H])[H])C([H])(C(=O)N([H])C2([H])c4c([H])c([H])c([H])c([H])c4C([H])([H])C([H])([H])C2([H])[H])C3([H])[H])nc(C([H])([H])[H])c1C([H])(C([H])(C([H])([H])[H])C([H])([H])[H])[N+]1([H])C([H])([H])C([H])([H])C([H])(N([H])C(=O)N2C([H])([H])C([H])([H])C([H])([H])C([H])(n3nc(-c4c([H])c([H])c(Oc5c([H])c([H])c(F)c([H])c5F)c([H])c4[H])c(C(=O)N([H])[H])c3N([H])[H])C2([H])[H])C1([H])[H]

$$$$
73:0:0
     RDKit          3D

 92101  0  0  1  0  0  0  0  0999 V2000
  -29.2490  -20.5160   19.0230 C   0  0  0  0  0  3  0  0  0  0  0  0
  -28.8030  -21.9250   19.0070 C   0  0  0  0  0  3  0  0  0  0  0  0
  -29.9220  -19.8440   20.1180 C   0  0  0  0  0  0  0  0  0  0  0  0
  -30.0590  -20.8820   21.1480 C   0  0  0  0  0  0  0  0  0  0  0  0
  -28.9740  -22.9010   20.0660 C   0  0  0  0  0  0  0  0  0  0  0  0
  -31.8830  -18.5170   21.1240 C   0  0  0  0  0  2  0  0  0  0  0  0
  -31.3210  -19.0490   22.4540 C   0  0  0  0  0  2  0  0  0  0  0  0
  -30.7570  -18.3140   20.0980 C   0  0  0  0  0  3  0  0  0  0  0  0
  -30.8510  -20.5330   22.4250 C   0  0  2  0  0  0  0  0  0  0  0  0
  -29.9650  -20.7560   23.6680 C   0  0  0  0  0  1  0  0  0  0  0  0
  -32.0980  -21.4390   22.5200 C   0  0  0  0  0  1  0  0  0  0  0  0
  -29.5980  -22.2390   21.1240 N   0  0  0  0  0  0  0  0  0  0  0  0
  -31.1500  -15.4600   20.3690 C   0  0  0  0  0  0  0  0  0  0  0  0
  -31.2400  -12.9210   19.8880 C   0  0  0  0  0  2  0  0  0  0  0  0
  -30.4390  -12.4990   18.6330 C   0  0  0  0  0  2  0  0  0  0  0  0
  -28.9620  -12.2530   18.9890 C   0  0  0  0  0  2  0  0  0  0  0  0
  -28.3910  -13.3650   19.9040 C   0  0  0  0  0  3  0  0  0  0  0  0
  -29.3310  -13.7270   21.0710 C   0  0  0  0  0  2  0  0  0  0  0  0
  -30.6020  -14.1550   20.4680 N   0  0  0  0  0  0  0  0  0  0  0  0
  -32.3860  -15.4630   20.2750 O   0  0  0  0  0  0  0  0  0  0  0  0
  -30.3780  -16.7070   20.1950 N   0  0  0  0  0  0  0  0  0  0  0  0
  -29.3840  -16.5360   20.1940 H   0  0  0  0  0  0  0  0  0  0  0  0
  -25.9930  -13.9720   20.5250 C   0  0  0  0  0  0  0  0  0  0  0  0
  -24.8990  -13.2170   20.8440 C   0  0  0  0  0  0  0  0  0  0  0  0
  -25.3460  -11.8590   20.8540 C   0  0  0  0  0  0  0  0  0  0  0  0
  -27.0320  -13.0780   20.3470 N   0  0  0  0  0  0  0  0  0  0  0  0
  -26.6520  -11.8010   20.6150 N   0  0  0  0  0  0  0  0  0  0  0  0
  -24.5880  -10.6100   21.0160 C   0  0  0  0  0  0  0  0  0  0  0  0
  -24.9210   -9.6680   22.0140 C   0  0  0  0  0  3  0  0  0  0  0  0
  -24.1630   -8.4860   22.1630 C   0  0  0  0  0  3  0  0  0  0  0  0
  -23.0580   -8.2390   21.3140 C   0  0  0  0  0  0  0  0  0  0  0  0
  -22.7460   -9.1700   20.3090 C   0  0  0  0  0  3  0  0  0  0  0  0
  -23.5040  -10.3420   20.1580 C   0  0  0  0  0  3  0  0  0  0  0  0
  -22.2800   -7.1070   21.3700 O   0  0  0  0  0  0  0  0  0  0  0  0
  -22.0470   -6.4520   22.5530 C   0  0  0  0  0  0  0  0  0  0  0  0
  -21.4380   -7.0940   23.6530 C   0  0  0  0  0  3  0  0  0  0  0  0
  -21.1530   -6.3640   24.8240 C   0  0  0  0  0  3  0  0  0  0  0  0
  -21.4660   -4.9940   24.8950 C   0  0  0  0  0  0  0  0  0  0  0  0
  -22.0680   -4.3520   23.7990 C   0  0  0  0  0  3  0  0  0  0  0  0
  -22.3540   -5.0790   22.6300 C   0  0  0  0  0  0  0  0  0  0  0  0
  -22.9150   -4.4500   21.5690 F   0  0  0  0  0  0  0  0  0  0  0  0
  -21.1860   -4.2910   26.0180 F   0  0  0  0  0  0  0  0  0  0  0  0
  -23.4970  -13.7190   21.0280 C   0  0  0  0  0  0  0  0  0  0  0  0
  -22.7210  -13.0680   21.8860 N   0  0  0  0  0  0  0  0  0  0  0  0
  -23.0990  -14.7260   20.4430 O   0  0  0  0  0  0  0  0  0  0  0  0
  -23.0560  -12.2540   22.3800 H   0  0  0  0  0  0  0  0  0  0  0  0
  -21.7770  -13.3880   22.0520 H   0  0  0  0  0  0  0  0  0  0  0  0
  -26.1840  -15.3390   20.3390 N   0  0  0  0  0  0  0  0  0  0  0  0
  -25.4180  -16.0000   20.3960 H   0  0  0  0  0  0  0  0  0  0  0  0
  -27.0450  -15.7590   20.0170 H   0  0  0  0  0  0  0  0  0  0  0  0
  -28.1320  -24.4250   20.1800 C   0  0  0  0  0  2  0  0  0  0  0  0
  -28.5080  -26.0130   20.2350 O   0  0  0  0  0  0  0  0  0  0  0  0
  -24.7710  -31.8290   23.2420 C   0  0  0  0  0  0  0  0  0  0  0  0
  -27.4930  -27.0990   20.1710 C   0  0  0  0  0  0  0  0  0  0  0  0
  -23.6460  -30.4550   21.5380 C   0  0  0  0  0  3  0  0  0  0  0  0
  -25.1610  -28.9240   20.1140 C   0  0  0  0  0  0  0  0  0  0  0  0
  -26.2110  -30.7230   21.4660 C   0  0  0  0  0  2  0  0  0  0  0  0
  -26.3240  -29.3360   20.7760 C   0  0  0  0  0  0  0  0  0  0  0  0
  -27.4880  -28.4450   20.7820 C   0  0  0  0  0  3  0  0  0  0  0  0
  -26.2980  -26.8390   19.4630 C   0  0  0  0  0  3  0  0  0  0  0  0
  -25.1710  -27.6960   19.4390 C   0  0  0  0  0  3  0  0  0  0  0  0
  -23.9240  -29.8170   20.1510 C   0  0  0  0  0  2  0  0  0  0  0  0
  -24.8960  -31.0270   22.1370 N   0  0  0  0  0  0  0  0  0  0  0  0
  -23.6630  -32.0840   23.7420 O   0  0  0  0  0  0  0  0  0  0  0  0
  -22.9470  -29.4200   22.4570 C   0  0  0  0  0  0  0  0  0  0  0  0
  -21.6210  -29.2470   22.3030 N   0  0  0  0  0  0  0  0  0  0  0  0
  -23.6040  -28.7740   23.2770 O   0  0  0  0  0  0  0  0  0  0  0  0
  -21.1440  -29.8210   21.6220 H   0  0  0  0  0  0  0  0  0  0  0  0
  -18.2350  -28.0190   22.7390 C   0  0  0  0  0  0  0  0  0  0  0  0
  -20.7930  -28.2790   23.0300 C   0  0  0  0  0  3  0  0  0  0  0  0
  -20.9010  -26.8710   22.4000 C   0  0  0  0  0  2  0  0  0  0  0  0
  -19.8060  -26.5870   21.3660 C   0  0  0  0  0  2  0  0  0  0  0  0
  -18.4200  -26.7010   22.0070 C   0  0  0  0  0  2  0  0  0  0  0  0
  -19.3490  -28.7670   23.2060 C   0  0  0  0  0  0  0  0  0  0  0  0
  -19.1210  -30.0000   23.8530 C   0  0  0  0  0  3  0  0  0  0  0  0
  -17.8120  -30.4860   24.0370 C   0  0  0  0  0  3  0  0  0  0  0  0
  -16.7130  -29.7360   23.5840 C   0  0  0  0  0  3  0  0  0  0  0  0
  -16.9250  -28.5030   22.9410 C   0  0  0  0  0  3  0  0  0  0  0  0
  -26.0130  -32.4760   23.9250 C   0  0  0  0  0  3  0  0  0  0  0  0
  -25.6570  -33.8560   24.2970 N   0  0  0  0  0  0  0  0  0  0  0  0
  -25.9500  -34.9460   23.5760 C   0  0  0  0  0  0  0  0  0  0  0  0
  -26.6110  -34.8970   22.5360 O   0  0  0  0  0  0  0  0  0  0  0  0
  -25.0640  -33.9650   25.1080 H   0  0  0  0  0  0  0  0  0  0  0  0
  -24.1480  -36.6880   23.3270 C   0  0  0  0  0  1  0  0  0  0  0  0
  -25.4290  -36.3060   24.0860 C   0  0  0  0  0  3  0  0  0  0  0  0
  -27.5530  -37.2530   24.8760 C   0  0  0  0  0  1  0  0  0  0  0  0
  -26.4190  -37.3990   23.9680 N   0  0  0  0  0  0  0  0  0  0  0  0
  -25.9840  -38.3000   24.1460 H   0  0  0  0  0  0  0  0  0  0  0  0
  -26.5050  -31.6800   25.1970 C   0  0  1  0  0  0  0  0  0  0  0  0
  -25.3860  -31.3930   26.2250 C   0  0  0  0  0  1  0  0  0  0  0  0
  -27.1280  -30.3230   24.7940 C   0  0  0  0  0  1  0  0  0  0  0  0
  -27.6210  -32.4770   25.9140 C   0  0  0  0  0  1  0  0  0  0  0  0
  1  3  1  0
  2  1  2  0
  2  5  1  0
  3  4  2  0
  4  9  1  0
  5 51  1  0
  5 12  2  0
  6  7  1  0
  8  3  1  0
  8 21  1  0
  8  6  1  0
  9  7  1  0
  9 11  1  1
  9 10  1  0
 12  4  1  0
 13 19  1  0
 14 19  1  0
 15 16  1  0
 15 14  1  0
 17 16  1  0
 17 26  1  0
 17 18  1  0
 19 18  1  0
 20 13  2  0
 21 13  1  0
 22 21  1  0
 23 24  2  0
 24 25  1  0
 24 43  1  0
 25 28  1  0
 26 23  1  0
 26 27  1  0
 27 25  2  0
 28 29  1  0
 29 30  2  0
 31 34  1  0
 31 30  1  0
 32 31  2  0
 33 32  1  0
 33 28  2  0
 34 35  1  0
 35 40  2  0
 35 36  1  0
 36 37  2  0
 37 38  1  0
 38 42  1  0
 39 38  2  0
 40 39  1  0
 41 40  1  0
 43 44  1  0
 44 47  1  0
 44 46  1  0
 45 43  2  0
 48 49  1  0
 48 23  1  0
 50 48  1  0
 51 52  1  0
 53 64  2  0
 54 52  1  0
 54 59  1  0
 55 63  1  0
 55 65  1  0
 56 62  1  0
 56 58  1  0
 57 63  1  0
 58 59  2  0
 58 57  1  0
 60 54  2  0
 61 60  1  0
 61 56  2  0
 62 55  1  0
 63 53  1  0
 65 67  2  0
 66 65  1  0
 68 66  1  0
 69 78  2  0
 69 74  1  0
 70 66  1  0
 70 74  1  0
 71 70  1  0
 72 73  1  0
 72 71  1  0
 73 69  1  0
 74 75  2  0
 75 76  1  0
 77 76  2  0
 78 77  1  0
 79 53  1  0
 79 80  1  0
 79 89  1  0
 80 83  1  0
 81 85  1  0
 81 80  1  0
 82 81  2  0
 85 84  1  0
 87 85  1  0
 87 88  1  0
 87 86  1  0
 89 92  1  1
 89 90  1  0
 91 89  1  0
M  ISO  4  13 100  21 100  51 101  52 101
M  END
>  <TORSDO>  (74) 
F 17

>  <SCORE>  (74) 
-14.478

>  <name>  (74) 
73

>  <ligand_id>  (74) 
73

>  <original_smiles>  (74) 
[H]c1c(C([H])([H])Oc2c([H])c([H])c3c(c2[H])C([H])([H])N(C(=O)C([H])(N([H])C(=O)C([H])(N([H])C([H])([H])[H])C([H])([H])[H])C(C([H])([H])[H])(C([H])([H])[H])C([H])([H])[H])C([H])(C(=O)N([H])C2([H])c4c([H])c([H])c([H])c([H])c4C([H])([H])C([H])([H])C2([H])[H])C3([H])[H])nc2c(c1[H])C([H])(N([H])C(=O)N1C([H])([H])C([H])([H])C([H])([H])C([H])(n3nc(-c4c([H])c([H])c(Oc5c([H])c([H])c(F)c([H])c5F)c([H])c4[H])c(C(=O)N([H])[H])c3N([H])[H])C1([H])[H])C([H])([H])C([H])([H])C2(C([H])([H])[H])C([H])([H])[H]

>  <smiles>  (74) 
[H]c1c(C([H])([H])Oc2c([H])c([H])c3c(c2[H])C([H])([H])N(C(=O)C([H])(N([H])C(=O)C([H])(N([H])C([H])([H])[H])C([H])([H])[H])C(C([H])([H])[H])(C([H])([H])[H])C([H])([H])[H])C([H])(C(=O)N([H])C2([H])c4c([H])c([H])c([H])c([H])c4C([H])([H])C([H])([H])C2([H])[H])C3([H])[H])nc2c(c1[H])C([H])(N([H])C(=O)N1C([H])([H])C([H])([H])C([H])([H])C([H])(n3nc(-c4c([H])c([H])c(Oc5c([H])c([H])c(F)c([H])c5F)c([H])c4[H])c(C(=O)N([H])[H])c3N([H])[H])C1([H])[H])C([H])([H])C([H])([H])C2(C([H])([H])[H])C([H])([H])[H]

$$$$
74:0:0
     RDKit          3D

 94104  0  0  1  0  0  0  0  0999 V2000
  -27.5960  -22.4650   20.0080 C   0  0  0  0  0  3  0  0  0  0  0  0
  -29.9340  -21.2700   20.7550 C   0  0  0  0  0  3  0  0  0  0  0  0
  -28.9680  -20.4240   20.1480 C   0  0  0  0  0  0  0  0  0  0  0  0
  -27.7600  -21.0780   19.7650 C   0  0  0  0  0  0  0  0  0  0  0  0
  -28.5850  -23.2100   20.6820 C   0  0  0  0  0  0  0  0  0  0  0  0
  -26.5930  -20.3270   19.1440 C   0  0  0  0  0  1  0  0  0  0  0  0
  -29.7480  -22.5970   21.0290 N   0  0  0  0  0  0  0  0  0  0  0  0
  -30.9050  -14.7730   19.9660 C   0  0  0  0  0  0  0  0  0  0  0  0
  -30.5750  -12.5380   18.9410 C   0  0  0  0  0  2  0  0  0  0  0  0
  -29.5780  -12.6490   17.7700 C   0  0  0  0  0  2  0  0  0  0  0  0
  -28.1340  -12.4760   18.2800 C   0  0  0  0  0  2  0  0  0  0  0  0
  -27.8320  -13.3500   19.5270 C   0  0  0  0  0  3  0  0  0  0  0  0
  -28.9530  -13.2350   20.5830 C   0  0  0  0  0  2  0  0  0  0  0  0
  -30.2110  -13.5880   19.9150 N   0  0  0  0  0  0  0  0  0  0  0  0
  -32.0830  -14.7950   19.6000 O   0  0  0  0  0  0  0  0  0  0  0  0
  -30.4980  -18.4670   19.2190 C   0  0  0  0  0  2  0  0  0  0  0  0
  -29.1600  -17.9960   21.2010 C   0  0  0  0  0  2  0  0  0  0  0  0
  -30.4960  -16.9530   18.8330 C   0  0  0  0  0  2  0  0  0  0  0  0
  -29.2180  -16.4470   20.9300 C   0  0  0  0  0  2  0  0  0  0  0  0
  -29.2000  -18.8800   19.9320 C   0  0  0  0  0  3  0  0  0  0  0  0
  -30.1940  -15.9630   19.9150 N   0  0  0  0  0  0  0  0  0  0  0  0
  -25.5010  -13.9280   20.4330 C   0  0  0  0  0  0  0  0  0  0  0  0
  -24.4560  -13.1440   20.8410 C   0  0  0  0  0  0  0  0  0  0  0  0
  -24.9080  -11.7940   20.7250 C   0  0  0  0  0  0  0  0  0  0  0  0
  -26.5210  -13.0550   20.0920 N   0  0  0  0  0  0  0  0  0  0  0  0
  -26.1740  -11.7640   20.3300 N   0  0  0  0  0  0  0  0  0  0  0  0
  -24.1870  -10.5280   20.9090 C   0  0  0  0  0  0  0  0  0  0  0  0
  -24.6070   -9.5710   21.8590 C   0  0  0  0  0  3  0  0  0  0  0  0
  -23.8850   -8.3710   22.0310 C   0  0  0  0  0  3  0  0  0  0  0  0
  -22.7300   -8.1190   21.2530 C   0  0  0  0  0  0  0  0  0  0  0  0
  -22.3320   -9.0640   20.2920 C   0  0  0  0  0  3  0  0  0  0  0  0
  -23.0550  -10.2560   20.1180 C   0  0  0  0  0  3  0  0  0  0  0  0
  -21.9820   -6.9690   21.3330 O   0  0  0  0  0  0  0  0  0  0  0  0
  -21.8190   -6.2980   22.5170 C   0  0  0  0  0  0  0  0  0  0  0  0
  -21.2520   -6.9160   23.6530 C   0  0  0  0  0  3  0  0  0  0  0  0
  -21.0380   -6.1700   24.8280 C   0  0  0  0  0  3  0  0  0  0  0  0
  -21.3820   -4.8060   24.8700 C   0  0  0  0  0  0  0  0  0  0  0  0
  -21.9430   -4.1860   23.7390 C   0  0  0  0  0  3  0  0  0  0  0  0
  -22.1590   -4.9310   22.5660 C   0  0  0  0  0  0  0  0  0  0  0  0
  -22.6810   -4.3230   21.4720 F   0  0  0  0  0  0  0  0  0  0  0  0
  -21.1700   -4.0860   25.9970 F   0  0  0  0  0  0  0  0  0  0  0  0
  -23.0830  -13.6190   21.2190 C   0  0  0  0  0  0  0  0  0  0  0  0
  -22.4050  -12.8910   22.1000 N   0  0  0  0  0  0  0  0  0  0  0  0
  -22.6210  -14.6670   20.7710 O   0  0  0  0  0  0  0  0  0  0  0  0
  -22.7930  -12.0430   22.4880 H   0  0  0  0  0  0  0  0  0  0  0  0
  -21.4870  -13.1880   22.3950 H   0  0  0  0  0  0  0  0  0  0  0  0
  -25.6530  -15.3040   20.2960 N   0  0  0  0  0  0  0  0  0  0  0  0
  -24.8950  -15.9450   20.5020 H   0  0  0  0  0  0  0  0  0  0  0  0
  -26.4590  -15.7600   19.8920 H   0  0  0  0  0  0  0  0  0  0  0  0
  -28.0650  -24.5720   22.8180 C   0  0  0  0  0  2  0  0  0  0  0  0
  -26.8830  -24.7840   21.9260 C   0  0  0  0  0  2  0  0  0  0  0  0
  -28.2640  -24.5980   21.3070 C   0  0  2  0  0  0  0  0  0  0  0  0
  -29.0050  -25.8560   20.7460 C   0  0  0  0  0  2  0  0  0  0  0  0
  -28.4760  -26.6630   19.6610 O   0  0  0  0  0  0  0  0  0  0  0  0
  -24.6740  -31.8020   23.0520 C   0  0  0  0  0  0  0  0  0  0  0  0
  -27.3340  -27.4310   19.8290 C   0  0  0  0  0  0  0  0  0  0  0  0
  -23.4690  -30.4260   21.3900 C   0  0  0  0  0  3  0  0  0  0  0  0
  -24.9280  -28.9410   19.9090 C   0  0  0  0  0  0  0  0  0  0  0  0
  -25.9920  -30.8130   21.1740 C   0  0  0  0  0  2  0  0  0  0  0  0
  -26.0910  -29.4530   20.5020 C   0  0  0  0  0  0  0  0  0  0  0  0
  -27.3000  -28.7030   20.4620 C   0  0  0  0  0  3  0  0  0  0  0  0
  -26.1550  -26.9550   19.2200 C   0  0  0  0  0  3  0  0  0  0  0  0
  -24.9570  -27.6930   19.2660 C   0  0  0  0  0  3  0  0  0  0  0  0
  -23.6750  -29.7860   19.9920 C   0  0  0  0  0  2  0  0  0  0  0  0
  -24.7310  -31.0290   21.9300 N   0  0  0  0  0  0  0  0  0  0  0  0
  -23.5960  -32.0420   23.6140 O   0  0  0  0  0  0  0  0  0  0  0  0
  -22.8460  -29.3690   22.3320 C   0  0  0  0  0  0  0  0  0  0  0  0
  -21.5160  -29.1930   22.2420 N   0  0  0  0  0  0  0  0  0  0  0  0
  -23.5540  -28.7120   23.1000 O   0  0  0  0  0  0  0  0  0  0  0  0
  -21.0050  -29.7780   21.5950 H   0  0  0  0  0  0  0  0  0  0  0  0
  -18.1560  -27.9920   22.8260 C   0  0  0  0  0  0  0  0  0  0  0  0
  -20.7260  -28.2210   22.9980 C   0  0  0  0  0  3  0  0  0  0  0  0
  -20.7900  -26.8200   22.3480 C   0  0  0  0  0  2  0  0  0  0  0  0
  -19.6420  -26.5560   21.3670 C   0  0  0  0  0  2  0  0  0  0  0  0
  -18.2910  -26.6770   22.0770 C   0  0  0  0  0  2  0  0  0  0  0  0
  -19.2990  -28.7250   23.2440 C   0  0  0  0  0  0  0  0  0  0  0  0
  -19.1170  -29.9600   23.9060 C   0  0  0  0  0  3  0  0  0  0  0  0
  -17.8250  -30.4620   24.1480 C   0  0  0  0  0  3  0  0  0  0  0  0
  -16.6970  -29.7240   23.7480 C   0  0  0  0  0  3  0  0  0  0  0  0
  -16.8640  -28.4900   23.0950 C   0  0  0  0  0  3  0  0  0  0  0  0
  -25.9580  -32.4350   23.6710 C   0  0  0  0  0  3  0  0  0  0  0  0
  -25.6260  -33.8130   24.0590 N   0  0  0  0  0  0  0  0  0  0  0  0
  -25.9260  -34.9010   23.3360 C   0  0  0  0  0  0  0  0  0  0  0  0
  -26.5840  -34.8490   22.2920 O   0  0  0  0  0  0  0  0  0  0  0  0
  -25.0350  -33.9240   24.8700 H   0  0  0  0  0  0  0  0  0  0  0  0
  -24.1630  -36.6760   23.0700 C   0  0  0  0  0  1  0  0  0  0  0  0
  -25.4180  -36.2600   23.8530 C   0  0  0  0  0  3  0  0  0  0  0  0
  -27.5410  -37.1540   24.7050 C   0  0  0  0  0  1  0  0  0  0  0  0
  -26.4300  -37.3360   23.7760 N   0  0  0  0  0  0  0  0  0  0  0  0
  -26.0080  -38.2430   23.9580 H   0  0  0  0  0  0  0  0  0  0  0  0
  -26.5170  -31.6280   24.9070 C   0  0  1  0  0  0  0  0  0  0  0  0
  -25.4520  -31.3320   25.9880 C   0  0  0  0  0  1  0  0  0  0  0  0
  -27.1140  -30.2750   24.4540 C   0  0  0  0  0  1  0  0  0  0  0  0
  -27.6630  -32.4230   25.5770 C   0  0  0  0  0  1  0  0  0  0  0  0
  1  5  1  0
  2  7  1  0
  3  2  2  0
  4  1  2  0
  4  3  1  0
  5  7  2  0
  5 52  1  0
  6  4  1  0
  9 14  1  0
 10 11  1  0
 10  9  1  0
 12 11  1  0
 12 25  1  0
 12 13  1  0
 14  8  1  0
 14 13  1  0
 15  8  2  0
 16 20  1  0
 18 16  1  0
 18 21  1  0
 19 17  1  0
 20  3  1  0
 20 17  1  0
 21  8  1  0
 21 19  1  0
 22 23  2  0
 23 42  1  0
 24 23  1  0
 24 27  1  0
 25 26  1  0
 25 22  1  0
 26 24  2  0
 27 28  1  0
 28 29  2  0
 30 33  1  0
 30 29  1  0
 31 30  2  0
 32 31  1  0
 32 27  2  0
 33 34  1  0
 34 39  2  0
 34 35  1  0
 35 36  2  0
 36 37  1  0
 37 41  1  0
 38 37  2  0
 39 38  1  0
 40 39  1  0
 42 43  1  0
 43 46  1  0
 43 45  1  0
 44 42  2  0
 47 22  1  0
 47 48  1  0
 49 47  1  0
 51 50  1  0
 52 51  1  0
 52 50  1  0
 52 53  1  1
 54 56  1  0
 54 53  1  0
 55 66  2  0
 56 61  1  0
 57 65  1  0
 57 67  1  0
 58 64  1  0
 58 60  1  0
 59 65  1  0
 60 59  1  0
 61 60  2  0
 62 63  1  0
 62 56  2  0
 63 58  2  0
 64 57  1  0
 65 55  1  0
 67 69  2  0
 68 67  1  0
 70 68  1  0
 71 80  2  0
 71 76  1  0
 72 68  1  0
 72 76  1  0
 73 72  1  0
 74 75  1  0
 74 73  1  0
 75 71  1  0
 76 77  2  0
 77 78  1  0
 79 78  2  0
 80 79  1  0
 81 55  1  0
 81 82  1  0
 81 91  1  0
 82 85  1  0
 83 87  1  0
 83 82  1  0
 84 83  2  0
 87 86  1  0
 89 87  1  0
 89 90  1  0
 89 88  1  0
 91 94  1  1
 91 92  1  0
 93 91  1  0
M  ISO  4   8 100  21 100  53 101  54 101
M  END
>  <TORSDO>  (75) 
F 18

>  <SCORE>  (75) 
-13.582

>  <name>  (75) 
74

>  <ligand_id>  (75) 
74

>  <original_smiles>  (75) 
[H]c1nc(C2(C([H])([H])Oc3c([H])c([H])c4c(c3[H])C([H])([H])N(C(=O)C([H])(N([H])C(=O)C([H])(N([H])C([H])([H])[H])C([H])([H])[H])C(C([H])([H])[H])(C([H])([H])[H])C([H])([H])[H])C([H])(C(=O)N([H])C3([H])c5c([H])c([H])c([H])c([H])c5C([H])([H])C([H])([H])C3([H])[H])C4([H])[H])C([H])([H])C2([H])[H])c([H])c(C([H])([H])[H])c1C1([H])C([H])([H])C([H])([H])N(C(=O)N2C([H])([H])C([H])([H])C([H])([H])C([H])(n3nc(-c4c([H])c([H])c(Oc5c([H])c([H])c(F)c([H])c5F)c([H])c4[H])c(C(=O)N([H])[H])c3N([H])[H])C2([H])[H])C([H])([H])C1([H])[H]

>  <smiles>  (75) 
[H]c1nc(C2(C([H])([H])Oc3c([H])c([H])c4c(c3[H])C([H])([H])N(C(=O)C([H])(N([H])C(=O)C([H])(N([H])C([H])([H])[H])C([H])([H])[H])C(C([H])([H])[H])(C([H])([H])[H])C([H])([H])[H])C([H])(C(=O)N([H])C3([H])c5c([H])c([H])c([H])c([H])c5C([H])([H])C([H])([H])C3([H])[H])C4([H])[H])C([H])([H])C2([H])[H])c([H])c(C([H])([H])[H])c1C1([H])C([H])([H])C([H])([H])N(C(=O)N2C([H])([H])C([H])([H])C([H])([H])C([H])(n3nc(-c4c([H])c([H])c(Oc5c([H])c([H])c(F)c([H])c5F)c([H])c4[H])c(C(=O)N([H])[H])c3N([H])[H])C2([H])[H])C([H])([H])C1([H])[H]

$$$$
75:0:0
     RDKit          3D

 89 98  0  0  1  0  0  0  0  0999 V2000
  -29.8150  -19.5600   20.7410 C   0  0  0  0  0  0  0  0  0  0  0  0
  -28.9800  -20.7980   20.2840 C   0  0  0  0  0  0  0  0  0  0  0  0
  -29.3480  -18.2460   20.2720 C   0  0  0  0  0  0  0  0  0  0  0  0
  -31.0080  -19.7210   21.6430 C   0  0  0  0  0  1  0  0  0  0  0  0
  -27.2120  -17.9720   18.9100 C   0  0  0  0  0  1  0  0  0  0  0  0
  -28.0430  -20.1470   19.5740 N   0  0  0  0  0  0  0  0  0  0  0  0
  -28.2310  -18.7520   19.5800 N   0  0  0  0  0  0  0  0  0  0  0  0
  -30.3430  -15.4930   20.2650 C   0  0  0  0  0  0  0  0  0  0  0  0
  -30.3950  -13.0130   19.3990 C   0  0  0  0  0  2  0  0  0  0  0  0
  -29.4680  -12.7320   18.1830 C   0  0  0  0  0  2  0  0  0  0  0  0
  -28.0350  -12.4150   18.6410 C   0  0  0  0  0  2  0  0  0  0  0  0
  -27.5690  -13.3840   19.7530 C   0  0  0  0  0  3  0  0  0  0  0  0
  -28.6190  -13.5840   20.8700 C   0  0  0  0  0  2  0  0  0  0  0  0
  -29.8260  -14.1480   20.2340 N   0  0  0  0  0  0  0  0  0  0  0  0
  -31.5490  -15.5080   19.9680 O   0  0  0  0  0  0  0  0  0  0  0  0
  -29.5360  -16.7410   20.5330 N   0  0  0  0  0  0  0  0  0  0  0  0
  -28.6430  -16.3890   20.8430 H   0  0  0  0  0  0  0  0  0  0  0  0
  -25.2050  -13.9100   20.5350 C   0  0  0  0  0  0  0  0  0  0  0  0
  -24.1540  -13.1250   20.9110 C   0  0  0  0  0  0  0  0  0  0  0  0
  -24.6290  -11.7790   20.8610 C   0  0  0  0  0  0  0  0  0  0  0  0
  -26.2510  -13.0470   20.2730 N   0  0  0  0  0  0  0  0  0  0  0  0
  -25.9170  -11.7560   20.5360 N   0  0  0  0  0  0  0  0  0  0  0  0
  -23.9090  -10.5110   21.0420 C   0  0  0  0  0  0  0  0  0  0  0  0
  -24.3390   -9.5430   21.9740 C   0  0  0  0  0  3  0  0  0  0  0  0
  -23.6160   -8.3430   22.1460 C   0  0  0  0  0  3  0  0  0  0  0  0
  -22.4490   -8.1040   21.3840 C   0  0  0  0  0  0  0  0  0  0  0  0
  -22.0360   -9.0610   20.4400 C   0  0  0  0  0  3  0  0  0  0  0  0
  -22.7600  -10.2520   20.2670 C   0  0  0  0  0  3  0  0  0  0  0  0
  -21.6980   -6.9560   21.4650 O   0  0  0  0  0  0  0  0  0  0  0  0
  -21.6280   -6.2210   22.6220 C   0  0  0  0  0  0  0  0  0  0  0  0
  -21.1460   -6.7760   23.8270 C   0  0  0  0  0  3  0  0  0  0  0  0
  -21.0270   -5.9680   24.9750 C   0  0  0  0  0  3  0  0  0  0  0  0
  -21.3760   -4.6060   24.9190 C   0  0  0  0  0  0  0  0  0  0  0  0
  -21.8510   -4.0500   23.7180 C   0  0  0  0  0  3  0  0  0  0  0  0
  -21.9720   -4.8550   22.5710 C   0  0  0  0  0  0  0  0  0  0  0  0
  -22.4100   -4.3100   21.4110 F   0  0  0  0  0  0  0  0  0  0  0  0
  -21.2530   -3.8270   26.0200 F   0  0  0  0  0  0  0  0  0  0  0  0
  -22.7570  -13.5940   21.1980 C   0  0  0  0  0  0  0  0  0  0  0  0
  -22.0420  -12.8910   22.0680 N   0  0  0  0  0  0  0  0  0  0  0  0
  -22.3110  -14.6210   20.6870 O   0  0  0  0  0  0  0  0  0  0  0  0
  -22.4180  -12.0630   22.5050 H   0  0  0  0  0  0  0  0  0  0  0  0
  -21.1070  -13.1890   22.3040 H   0  0  0  0  0  0  0  0  0  0  0  0
  -25.3510  -15.2810   20.3560 N   0  0  0  0  0  0  0  0  0  0  0  0
  -24.5460  -15.9010   20.3990 H   0  0  0  0  0  0  0  0  0  0  0  0
  -26.1340  -15.6800   19.8620 H   0  0  0  0  0  0  0  0  0  0  0  0
  -28.7890  -23.4940   19.1920 C   0  0  0  0  0  2  0  0  0  0  0  0
  -29.0010  -22.6060   20.4120 C   0  0  0  0  0  3  0  0  0  0  0  0
  -27.9950  -24.1300   20.3220 C   0  0  0  0  0  3  0  0  0  0  0  0
  -28.1990  -25.8080   20.4000 O   0  0  0  0  0  0  0  0  0  0  0  0
  -24.6410  -31.9120   23.2800 C   0  0  0  0  0  0  0  0  0  0  0  0
  -27.1940  -26.9370   20.3290 C   0  0  0  0  0  0  0  0  0  0  0  0
  -23.4560  -30.5090   21.6430 C   0  0  0  0  0  3  0  0  0  0  0  0
  -24.9080  -28.8710   20.2480 C   0  0  0  0  0  0  0  0  0  0  0  0
  -26.0280  -30.6840   21.5230 C   0  0  0  0  0  2  0  0  0  0  0  0
  -26.0950  -29.2630   20.8770 C   0  0  0  0  0  0  0  0  0  0  0  0
  -27.2300  -28.3200   20.8890 C   0  0  0  0  0  3  0  0  0  0  0  0
  -25.9750  -26.7130   19.6470 C   0  0  0  0  0  3  0  0  0  0  0  0
  -24.8770  -27.6180   19.6120 C   0  0  0  0  0  3  0  0  0  0  0  0
  -23.6970  -29.8090   20.2760 C   0  0  0  0  0  2  0  0  0  0  0  0
  -24.7300  -31.0640   22.2020 N   0  0  0  0  0  0  0  0  0  0  0  0
  -23.5480  -32.2160   23.7850 O   0  0  0  0  0  0  0  0  0  0  0  0
  -22.7410  -29.5310   22.6120 C   0  0  0  0  0  0  0  0  0  0  0  0
  -21.4100  -29.3740   22.4770 N   0  0  0  0  0  0  0  0  0  0  0  0
  -23.3920  -28.9130   23.4580 O   0  0  0  0  0  0  0  0  0  0  0  0
  -20.9340  -29.9250   21.7760 H   0  0  0  0  0  0  0  0  0  0  0  0
  -18.0170  -28.1780   22.9650 C   0  0  0  0  0  0  0  0  0  0  0  0
  -20.5750  -28.4460   23.2490 C   0  0  0  0  0  3  0  0  0  0  0  0
  -20.6790  -27.0070   22.6910 C   0  0  0  0  0  2  0  0  0  0  0  0
  -19.5880  -26.6760   21.6690 C   0  0  0  0  0  2  0  0  0  0  0  0
  -18.2000  -26.8250   22.3000 C   0  0  0  0  0  2  0  0  0  0  0  0
  -19.1320  -28.9460   23.3960 C   0  0  0  0  0  0  0  0  0  0  0  0
  -18.9050  -30.2100   23.9830 C   0  0  0  0  0  3  0  0  0  0  0  0
  -17.5970  -30.7080   24.1400 C   0  0  0  0  0  3  0  0  0  0  0  0
  -16.4970  -29.9390   23.7210 C   0  0  0  0  0  3  0  0  0  0  0  0
  -16.7080  -28.6750   23.1400 C   0  0  0  0  0  3  0  0  0  0  0  0
  -25.9080  -32.5550   23.9220 C   0  0  0  0  0  3  0  0  0  0  0  0
  -25.5970  -33.9620   24.2360 N   0  0  0  0  0  0  0  0  0  0  0  0
  -25.9210  -35.0120   23.4690 C   0  0  0  0  0  0  0  0  0  0  0  0
  -26.5750  -34.8980   22.4280 O   0  0  0  0  0  0  0  0  0  0  0  0
  -25.0110  -34.1260   25.0410 H   0  0  0  0  0  0  0  0  0  0  0  0
  -24.1820  -36.8070   23.1510 C   0  0  0  0  0  1  0  0  0  0  0  0
  -25.4500  -36.4090   23.9250 C   0  0  0  0  0  3  0  0  0  0  0  0
  -27.6080  -37.3130   24.6740 C   0  0  0  0  0  1  0  0  0  0  0  0
  -26.4760  -37.4610   23.7620 N   0  0  0  0  0  0  0  0  0  0  0  0
  -26.0740  -38.3840   23.9090 H   0  0  0  0  0  0  0  0  0  0  0  0
  -26.3900  -31.8060   25.2260 C   0  0  1  0  0  0  0  0  0  0  0  0
  -25.2740  -31.6000   26.2770 C   0  0  0  0  0  1  0  0  0  0  0  0
  -26.9690  -30.4160   24.8840 C   0  0  0  0  0  1  0  0  0  0  0  0
  -27.5340  -32.6030   25.8940 C   0  0  0  0  0  1  0  0  0  0  0  0
  1  4  1  0
  2  1  1  0
  3 16  1  0
  3  1  2  0
  5  7  1  0
  6  7  1  0
  6  2  2  0
  7  3  1  0
  8 16  1  0
  9 14  1  0
 10 11  1  0
 10  9  1  0
 12 11  1  0
 12 21  1  0
 12 13  1  0
 14  8  1  0
 14 13  1  0
 15  8  2  0
 16 17  1  0
 18 19  2  0
 19 38  1  0
 20 19  1  0
 20 23  1  0
 21 18  1  0
 21 22  1  0
 22 20  2  0
 23 24  1  0
 24 25  2  0
 26 29  1  0
 26 25  1  0
 27 26  2  0
 28 27  1  0
 28 23  2  0
 29 30  1  0
 30 31  1  0
 31 32  2  0
 33 32  1  0
 33 37  1  0
 34 33  2  0
 35 30  2  0
 35 34  1  0
 36 35  1  0
 38 39  1  0
 39 42  1  0
 39 41  1  0
 40 38  2  0
 43 44  1  0
 43 18  1  0
 45 43  1  0
 46 48  1  0
 46 47  1  0
 47  2  1  0
 48 49  1  0
 48 47  1  0
 50 61  2  0
 51 49  1  0
 51 56  1  0
 52 60  1  0
 52 62  1  0
 53 59  1  0
 53 55  1  0
 54 60  1  0
 55 56  2  0
 55 54  1  0
 57 51  2  0
 58 57  1  0
 58 53  2  0
 59 52  1  0
 60 50  1  0
 62 64  2  0
 63 62  1  0
 65 63  1  0
 66 75  2  0
 66 71  1  0
 67 63  1  0
 67 71  1  0
 68 67  1  0
 69 70  1  0
 69 68  1  0
 70 66  1  0
 71 72  2  0
 72 73  1  0
 74 73  2  0
 75 74  1  0
 76 50  1  0
 76 77  1  0
 76 86  1  0
 77 80  1  0
 78 82  1  0
 78 77  1  0
 79 78  2  0
 82 81  1  0
 84 85  1  0
 84 82  1  0
 84 83  1  0
 86 89  1  1
 86 87  1  0
 88 86  1  0
M  ISO  4   8 100  16 100  48 101  49 101
M  END
>  <TORSDO>  (76) 
F 17

>  <SCORE>  (76) 
-16.227

>  <name>  (76) 
75

>  <ligand_id>  (76) 
75

>  <original_smiles>  (76) 
[H]c1c([H])c([H])c2c(c1[H])C([H])([H])C([H])([H])C([H])([H])C2([H])N([H])C(=O)C1([H])N(C(=O)C([H])(N([H])C(=O)C([H])(N([H])C([H])([H])[H])C([H])([H])[H])C(C([H])([H])[H])(C([H])([H])[H])C([H])([H])[H])C([H])([H])c2c([H])c(OC3([H])C([H])([H])C3([H])c3nn(C([H])([H])[H])c(N([H])C(=O)N4C([H])([H])C([H])([H])C([H])([H])C([H])(n5nc(-c6c([H])c([H])c(Oc7c([H])c([H])c(F)c([H])c7F)c([H])c6[H])c(C(=O)N([H])[H])c5N([H])[H])C4([H])[H])c3C([H])([H])[H])c([H])c([H])c2C1([H])[H]

>  <smiles>  (76) 
[H]c1c([H])c([H])c2c(c1[H])C([H])([H])C([H])([H])C([H])([H])C2([H])N([H])C(=O)C1([H])N(C(=O)C([H])(N([H])C(=O)C([H])(N([H])C([H])([H])[H])C([H])([H])[H])C(C([H])([H])[H])(C([H])([H])[H])C([H])([H])[H])C([H])([H])c2c([H])c(OC3([H])C([H])([H])C3([H])c3nn(C([H])([H])[H])c(N([H])C(=O)N4C([H])([H])C([H])([H])C([H])([H])C([H])(n5nc(-c6c([H])c([H])c(Oc7c([H])c([H])c(F)c([H])c7F)c([H])c6[H])c(C(=O)N([H])[H])c5N([H])[H])C4([H])[H])c3C([H])([H])[H])c([H])c([H])c2C1([H])[H]

$$$$
76:0:0
     RDKit          3D

 95104  0  0  1  0  0  0  0  0999 V2000
  -29.6350  -20.7710   21.0710 C   0  0  0  0  0  0  0  0  0  0  0  0
  -30.3130  -19.6230   20.5700 C   0  0  0  0  0  0  0  0  0  0  0  0
  -29.8970  -22.0070   20.4300 C   0  0  0  0  0  0  0  0  0  0  0  0
  -31.3310  -20.9570   19.0020 C   0  0  0  0  0  0  0  0  0  0  0  0
  -28.6610  -20.6960   22.2430 C   0  0  0  0  0  1  0  0  0  0  0  0
  -32.2940  -21.0600   17.8400 C   0  0  0  0  0  1  0  0  0  0  0  0
  -31.1440  -19.7500   19.5190 N   0  0  0  0  0  0  0  0  0  0  0  0
  -30.7490  -22.0830   19.4020 N   0  0  0  0  0  0  0  0  0  0  0  0
  -29.2540  -23.1930   20.8290 N   0  0  0  0  0  0  0  0  0  0  0  0
  -28.6270  -23.1250   21.6200 H   0  0  0  0  0  0  0  0  0  0  0  0
  -30.5060  -17.8790   22.5730 C   0  0  0  0  0  2  0  0  0  0  0  0
  -31.8070  -17.2330   22.0960 C   0  0  0  0  0  2  0  0  0  0  0  0
  -30.1310  -18.1740   21.1030 C   0  0  0  0  0  3  0  0  0  0  0  0
  -31.1400  -17.0260   20.7300 C   0  0  0  0  0  3  0  0  0  0  0  0
  -31.1130  -14.6310   19.9610 C   0  0  0  0  0  0  0  0  0  0  0  0
  -30.7080  -12.4330   18.8990 C   0  0  0  0  0  2  0  0  0  0  0  0
  -29.7370  -12.5880   17.7130 C   0  0  0  0  0  2  0  0  0  0  0  0
  -28.2760  -12.4980   18.1920 C   0  0  0  0  0  2  0  0  0  0  0  0
  -27.9920  -13.4090   19.4170 C   0  0  0  0  0  3  0  0  0  0  0  0
  -29.0740  -13.2340   20.5070 C   0  0  0  0  0  2  0  0  0  0  0  0
  -30.3890  -13.4770   19.8910 N   0  0  0  0  0  0  0  0  0  0  0  0
  -32.1920  -14.7660   19.3760 O   0  0  0  0  0  0  0  0  0  0  0  0
  -30.5570  -15.6610   20.6310 N   0  0  0  0  0  0  0  0  0  0  0  0
  -29.6770  -15.4880   21.0910 H   0  0  0  0  0  0  0  0  0  0  0  0
  -25.6550  -14.1160   20.2320 C   0  0  0  0  0  0  0  0  0  0  0  0
  -24.5700  -13.3900   20.6420 C   0  0  0  0  0  0  0  0  0  0  0  0
  -24.9650  -12.0180   20.5830 C   0  0  0  0  0  0  0  0  0  0  0  0
  -26.6470  -13.1890   19.9490 N   0  0  0  0  0  0  0  0  0  0  0  0
  -26.2370  -11.9210   20.2170 N   0  0  0  0  0  0  0  0  0  0  0  0
  -24.1890  -10.7890   20.7970 C   0  0  0  0  0  0  0  0  0  0  0  0
  -24.5570   -9.8460   21.7820 C   0  0  0  0  0  3  0  0  0  0  0  0
  -23.7880   -8.6790   21.9810 C   0  0  0  0  0  3  0  0  0  0  0  0
  -22.6350   -8.4480   21.1950 C   0  0  0  0  0  0  0  0  0  0  0  0
  -22.2830   -9.3780   20.1990 C   0  0  0  0  0  3  0  0  0  0  0  0
  -23.0550  -10.5360   19.9990 C   0  0  0  0  0  3  0  0  0  0  0  0
  -21.8410   -7.3310   21.3000 O   0  0  0  0  0  0  0  0  0  0  0  0
  -21.6560   -6.6870   22.4980 C   0  0  0  0  0  0  0  0  0  0  0  0
  -21.1050   -7.3450   23.6200 C   0  0  0  0  0  3  0  0  0  0  0  0
  -20.8700   -6.6300   24.8110 C   0  0  0  0  0  3  0  0  0  0  0  0
  -21.1750   -5.2560   24.8790 C   0  0  0  0  0  0  0  0  0  0  0  0
  -21.7180   -4.5970   23.7620 C   0  0  0  0  0  3  0  0  0  0  0  0
  -21.9550   -5.3120   22.5740 C   0  0  0  0  0  0  0  0  0  0  0  0
  -22.4610   -4.6690   21.4940 F   0  0  0  0  0  0  0  0  0  0  0  0
  -20.9420   -4.5660   26.0190 F   0  0  0  0  0  0  0  0  0  0  0  0
  -23.2080  -13.9290   20.9760 C   0  0  0  0  0  0  0  0  0  0  0  0
  -22.4940  -13.2770   21.8860 N   0  0  0  0  0  0  0  0  0  0  0  0
  -22.7870  -14.9620   20.4600 O   0  0  0  0  0  0  0  0  0  0  0  0
  -22.8470  -12.4420   22.3300 H   0  0  0  0  0  0  0  0  0  0  0  0
  -21.5800  -13.6210   22.1440 H   0  0  0  0  0  0  0  0  0  0  0  0
  -25.8800  -15.4780   20.0600 N   0  0  0  0  0  0  0  0  0  0  0  0
  -25.1490  -16.1680   20.1990 H   0  0  0  0  0  0  0  0  0  0  0  0
  -26.7340  -15.8710   19.6860 H   0  0  0  0  0  0  0  0  0  0  0  0
  -29.6000  -24.5510   20.3620 C   0  0  0  0  0  2  0  0  0  0  0  0
  -28.3540  -25.3420   19.8760 C   0  0  0  0  0  2  0  0  0  0  0  0
  -28.5000  -26.7820   19.8420 O   0  0  0  0  0  0  0  0  0  0  0  0
  -24.6010  -31.7910   23.0900 C   0  0  0  0  0  0  0  0  0  0  0  0
  -27.3190  -27.5130   19.8300 C   0  0  0  0  0  0  0  0  0  0  0  0
  -23.4060  -30.4000   21.4320 C   0  0  0  0  0  3  0  0  0  0  0  0
  -24.8780  -28.9600   19.9250 C   0  0  0  0  0  0  0  0  0  0  0  0
  -25.9160  -30.8440   21.1950 C   0  0  0  0  0  2  0  0  0  0  0  0
  -26.0330  -29.4980   20.5070 C   0  0  0  0  0  0  0  0  0  0  0  0
  -27.2560  -28.7840   20.4540 C   0  0  0  0  0  3  0  0  0  0  0  0
  -26.1430  -27.0080   19.2230 C   0  0  0  0  0  3  0  0  0  0  0  0
  -24.9300  -27.7180   19.2740 C   0  0  0  0  0  3  0  0  0  0  0  0
  -23.6040  -29.7680   20.0290 C   0  0  0  0  0  2  0  0  0  0  0  0
  -24.6600  -31.0260   21.9640 N   0  0  0  0  0  0  0  0  0  0  0  0
  -23.5230  -32.0120   23.6610 O   0  0  0  0  0  0  0  0  0  0  0  0
  -22.8070  -29.3310   22.3750 C   0  0  0  0  0  0  0  0  0  0  0  0
  -21.4950  -29.0790   22.2390 N   0  0  0  0  0  0  0  0  0  0  0  0
  -23.5210  -28.7320   23.1830 O   0  0  0  0  0  0  0  0  0  0  0  0
  -20.9820  -29.6130   21.5520 H   0  0  0  0  0  0  0  0  0  0  0  0
  -18.1970  -27.6630   22.6640 C   0  0  0  0  0  0  0  0  0  0  0  0
  -20.7260  -28.0870   22.9890 C   0  0  0  0  0  3  0  0  0  0  0  0
  -20.9370  -26.6700   22.4090 C   0  0  0  0  0  2  0  0  0  0  0  0
  -19.8780  -26.2790   21.3730 C   0  0  0  0  0  2  0  0  0  0  0  0
  -18.4760  -26.3310   21.9870 C   0  0  0  0  0  2  0  0  0  0  0  0
  -19.2540  -28.4950   23.1180 C   0  0  0  0  0  0  0  0  0  0  0  0
  -18.9400  -29.7390   23.7060 C   0  0  0  0  0  3  0  0  0  0  0  0
  -17.6030  -30.1530   23.8490 C   0  0  0  0  0  3  0  0  0  0  0  0
  -16.5600  -29.3170   23.4140 C   0  0  0  0  0  3  0  0  0  0  0  0
  -16.8570  -28.0750   22.8260 C   0  0  0  0  0  3  0  0  0  0  0  0
  -25.8790  -32.4440   23.7030 C   0  0  0  0  0  3  0  0  0  0  0  0
  -26.4510  -31.6480   24.9410 C   0  0  1  0  0  0  0  0  0  0  0  0
  -25.3880  -31.3270   26.0160 C   0  0  0  0  0  1  0  0  0  0  0  0
  -27.0840  -30.3120   24.4860 C   0  0  0  0  0  1  0  0  0  0  0  0
  -27.5810  -32.4640   25.6130 C   0  0  0  0  0  1  0  0  0  0  0  0
  -25.5330  -33.8190   24.0870 N   0  0  0  0  0  0  0  0  0  0  0  0
  -25.8300  -34.9070   23.3640 C   0  0  0  0  0  0  0  0  0  0  0  0
  -26.4940  -34.8600   22.3240 O   0  0  0  0  0  0  0  0  0  0  0  0
  -24.9430  -33.9280   24.8990 H   0  0  0  0  0  0  0  0  0  0  0  0
  -24.0530  -36.6640   23.0780 C   0  0  0  0  0  1  0  0  0  0  0  0
  -25.3050  -36.2630   23.8740 C   0  0  0  0  0  3  0  0  0  0  0  0
  -27.4120  -37.1730   24.7470 C   0  0  0  0  0  1  0  0  0  0  0  0
  -26.3090  -37.3470   23.8040 N   0  0  0  0  0  0  0  0  0  0  0  0
  -25.8790  -38.2490   23.9820 H   0  0  0  0  0  0  0  0  0  0  0  0
  1  5  1  0
  2  1  2  0
  3  9  1  0
  3  1  1  0
  4  8  1  0
  4  7  2  0
  6  4  1  0
  7  2  1  0
  8  3  2  0
  9 10  1  0
 12 11  1  0
 13  2  1  0
 13 11  1  0
 14 23  1  0
 14 13  1  0
 14 12  1  0
 15 23  1  0
 16 21  1  0
 17 18  1  0
 17 16  1  0
 19 18  1  0
 19 28  1  0
 19 20  1  0
 21 15  1  0
 21 20  1  0
 22 15  2  0
 23 24  1  0
 25 26  2  0
 26 45  1  0
 27 26  1  0
 27 30  1  0
 28 29  1  0
 28 25  1  0
 29 27  2  0
 30 31  1  0
 31 32  2  0
 33 36  1  0
 33 32  1  0
 34 33  2  0
 35 34  1  0
 35 30  2  0
 36 37  1  0
 37 42  2  0
 37 38  1  0
 38 39  2  0
 39 40  1  0
 40 44  1  0
 41 40  2  0
 42 41  1  0
 43 42  1  0
 45 46  1  0
 46 49  1  0
 46 48  1  0
 47 45  2  0
 50 51  1  0
 50 25  1  0
 52 50  1  0
 53  9  1  0
 54 53  1  0
 55 54  1  0
 56 67  2  0
 57 55  1  0
 57 62  1  0
 58 66  1  0
 58 68  1  0
 59 65  1  0
 59 61  1  0
 60 66  1  0
 61 60  1  0
 62 61  2  0
 63 64  1  0
 63 57  2  0
 64 59  2  0
 65 58  1  0
 66 56  1  0
 68 70  2  0
 69 68  1  0
 71 69  1  0
 72 81  2  0
 72 77  1  0
 73 69  1  0
 73 77  1  0
 74 73  1  0
 75 76  1  0
 75 74  1  0
 76 72  1  0
 77 78  2  0
 78 79  1  0
 80 79  2  0
 81 80  1  0
 82 56  1  0
 82 87  1  0
 82 83  1  0
 83 86  1  1
 83 84  1  0
 85 83  1  0
 87 90  1  0
 88 92  1  0
 88 87  1  0
 89 88  2  0
 92 91  1  0
 94 92  1  0
 94 95  1  0
 94 93  1  0
M  ISO  4  15 100  23 100  54 101  55 101
M  END
>  <TORSDO>  (77) 
F 19

>  <SCORE>  (77) 
-11.511

>  <name>  (77) 
76

>  <ligand_id>  (77) 
76

>  <original_smiles>  (77) 
[H]c1c([H])c([H])c2c(c1[H])C([H])([H])C([H])([H])C([H])([H])C2([H])N([H])C(=O)C1([H])N(C(=O)C([H])(N([H])C(=O)C([H])(N([H])C([H])([H])[H])C([H])([H])[H])C(C([H])([H])[H])(C([H])([H])[H])C([H])([H])[H])C([H])([H])c2c([H])c(OC([H])([H])C([H])([H])N([H])c3nc(C([H])([H])[H])nc(C4([H])C([H])([H])C([H])([H])C4([H])N([H])C(=O)N4C([H])([H])C([H])([H])C([H])([H])C([H])(n5nc(-c6c([H])c([H])c(Oc7c([H])c([H])c(F)c([H])c7F)c([H])c6[H])c(C(=O)N([H])[H])c5N([H])[H])C4([H])[H])c3C([H])([H])[H])c([H])c([H])c2C1([H])[H]

>  <smiles>  (77) 
[H]c1c([H])c([H])c2c(c1[H])C([H])([H])C([H])([H])C([H])([H])C2([H])N([H])C(=O)C1([H])N(C(=O)C([H])(N([H])C(=O)C([H])(N([H])C([H])([H])[H])C([H])([H])[H])C(C([H])([H])[H])(C([H])([H])[H])C([H])([H])[H])C([H])([H])c2c([H])c(OC([H])([H])C([H])([H])N([H])c3nc(C([H])([H])[H])nc(C4([H])C([H])([H])C([H])([H])C4([H])N([H])C(=O)N4C([H])([H])C([H])([H])C([H])([H])C([H])(n5nc(-c6c([H])c([H])c(Oc7c([H])c([H])c(F)c([H])c7F)c([H])c6[H])c(C(=O)N([H])[H])c5N([H])[H])C4([H])[H])c3C([H])([H])[H])c([H])c([H])c2C1([H])[H]

$$$$
77:0:0
     RDKit          3D

 90 99  0  0  1  0  0  0  0  0999 V2000
  -29.2020  -22.7730   21.6310 C   0  0  0  0  0  2  0  0  0  0  0  0
  -29.7440  -21.2800   21.5780 C   0  0  0  0  0  2  0  0  0  0  0  0
  -28.5430  -21.7750   19.6420 C   0  0  0  0  0  2  0  0  0  0  0  0
  -28.9140  -23.2810   20.2000 C   0  0  0  0  0  3  0  0  0  0  0  0
  -29.4230  -20.6500   20.2640 N   0  0  2  0  0  4  0  0  0  0  0  0
  -30.2860  -20.6990   19.7400 H   0  0  0  0  0  0  0  0  0  0  0  0
  -30.0340  -18.0000   18.6960 C   0  0  0  0  0  2  0  0  0  0  0  0
  -28.6340  -18.6180   18.8680 C   0  0  0  0  0  2  0  0  0  0  0  0
  -30.1060  -17.7720   20.2160 C   0  0  0  0  0  3  0  0  0  0  0  0
  -29.0290  -19.0900   20.2770 C   0  0  0  0  0  3  0  0  0  0  0  0
  -30.5060  -15.0390   20.3050 C   0  0  0  0  0  0  0  0  0  0  0  0
  -30.3700  -12.6890   19.3590 C   0  0  0  0  0  2  0  0  0  0  0  0
  -29.4280  -12.6540   18.1350 C   0  0  0  0  0  2  0  0  0  0  0  0
  -27.9690  -12.4370   18.5780 C   0  0  0  0  0  2  0  0  0  0  0  0
  -27.5710  -13.3500   19.7690 C   0  0  0  0  0  3  0  0  0  0  0  0
  -28.6380  -13.3630   20.8860 C   0  0  0  0  0  2  0  0  0  0  0  0
  -29.9010  -13.7810   20.2650 N   0  0  0  0  0  0  0  0  0  0  0  0
  -31.7030  -15.0890   20.0000 O   0  0  0  0  0  0  0  0  0  0  0  0
  -29.7470  -16.2390   20.4660 N   0  0  0  0  0  0  0  0  0  0  0  0
  -28.7860  -16.0730   20.7280 H   0  0  0  0  0  0  0  0  0  0  0  0
  -25.2010  -13.9110   20.5520 C   0  0  0  0  0  0  0  0  0  0  0  0
  -24.1430  -13.1300   20.9280 C   0  0  0  0  0  0  0  0  0  0  0  0
  -24.6090  -11.7800   20.8690 C   0  0  0  0  0  0  0  0  0  0  0  0
  -26.2410  -13.0380   20.2810 N   0  0  0  0  0  0  0  0  0  0  0  0
  -25.8960  -11.7500   20.5390 N   0  0  0  0  0  0  0  0  0  0  0  0
  -23.8840  -10.5150   21.0500 C   0  0  0  0  0  0  0  0  0  0  0  0
  -24.3100   -9.5450   21.9850 C   0  0  0  0  0  3  0  0  0  0  0  0
  -23.5840   -8.3470   22.1570 C   0  0  0  0  0  3  0  0  0  0  0  0
  -22.4180   -8.1080   21.3910 C   0  0  0  0  0  0  0  0  0  0  0  0
  -22.0120   -9.0650   20.4440 C   0  0  0  0  0  3  0  0  0  0  0  0
  -22.7380  -10.2550   20.2720 C   0  0  0  0  0  3  0  0  0  0  0  0
  -21.6650   -6.9620   21.4700 O   0  0  0  0  0  0  0  0  0  0  0  0
  -21.5860   -6.2310   22.6280 C   0  0  0  0  0  0  0  0  0  0  0  0
  -21.0950   -6.7880   23.8290 C   0  0  0  0  0  3  0  0  0  0  0  0
  -20.9690   -5.9830   24.9790 C   0  0  0  0  0  3  0  0  0  0  0  0
  -21.3200   -4.6200   24.9260 C   0  0  0  0  0  0  0  0  0  0  0  0
  -21.8000   -4.0610   23.7300 C   0  0  0  0  0  3  0  0  0  0  0  0
  -21.9310   -4.8640   22.5820 C   0  0  0  0  0  0  0  0  0  0  0  0
  -22.3770   -4.3160   21.4250 F   0  0  0  0  0  0  0  0  0  0  0  0
  -21.1900   -3.8440   26.0270 F   0  0  0  0  0  0  0  0  0  0  0  0
  -22.7470  -13.6030   21.2160 C   0  0  0  0  0  0  0  0  0  0  0  0
  -22.0260  -12.8960   22.0790 N   0  0  0  0  0  0  0  0  0  0  0  0
  -22.3050  -14.6330   20.7110 O   0  0  0  0  0  0  0  0  0  0  0  0
  -22.3960  -12.0640   22.5140 H   0  0  0  0  0  0  0  0  0  0  0  0
  -21.0900  -13.1930   22.3130 H   0  0  0  0  0  0  0  0  0  0  0  0
  -25.3580  -15.2850   20.3880 N   0  0  0  0  0  0  0  0  0  0  0  0
  -24.5850  -15.9280   20.5200 H   0  0  0  0  0  0  0  0  0  0  0  0
  -26.1640  -15.7210   19.9620 H   0  0  0  0  0  0  0  0  0  0  0  0
  -27.9470  -24.6700   19.9960 C   0  0  0  0  0  2  0  0  0  0  0  0
  -28.2220  -26.1890   20.2700 O   0  0  0  0  0  0  0  0  0  0  0  0
  -24.6170  -31.9250   23.2530 C   0  0  0  0  0  0  0  0  0  0  0  0
  -27.1760  -27.1900   20.2090 C   0  0  0  0  0  0  0  0  0  0  0  0
  -23.4130  -30.5380   21.6110 C   0  0  0  0  0  3  0  0  0  0  0  0
  -24.8550  -28.9560   20.1860 C   0  0  0  0  0  0  0  0  0  0  0  0
  -25.9700  -30.7850   21.4520 C   0  0  0  0  0  2  0  0  0  0  0  0
  -26.0370  -29.3910   20.7970 C   0  0  0  0  0  0  0  0  0  0  0  0
  -27.1970  -28.5240   20.7930 C   0  0  0  0  0  3  0  0  0  0  0  0
  -25.9650  -26.8620   19.5590 C   0  0  0  0  0  3  0  0  0  0  0  0
  -24.8310  -27.7040   19.5550 C   0  0  0  0  0  3  0  0  0  0  0  0
  -23.6330  -29.8610   20.2320 C   0  0  0  0  0  2  0  0  0  0  0  0
  -24.6870  -31.1040   22.1600 N   0  0  0  0  0  0  0  0  0  0  0  0
  -23.5310  -32.2150   23.7790 O   0  0  0  0  0  0  0  0  0  0  0  0
  -22.7260  -29.5330   22.5720 C   0  0  0  0  0  0  0  0  0  0  0  0
  -21.3970  -29.3700   22.4410 N   0  0  0  0  0  0  0  0  0  0  0  0
  -23.3920  -28.9040   23.3980 O   0  0  0  0  0  0  0  0  0  0  0  0
  -20.9170  -29.9290   21.7490 H   0  0  0  0  0  0  0  0  0  0  0  0
  -18.0070  -28.1970   22.9480 C   0  0  0  0  0  0  0  0  0  0  0  0
  -20.5690  -28.4370   23.2100 C   0  0  0  0  0  3  0  0  0  0  0  0
  -20.6580  -27.0070   22.6290 C   0  0  0  0  0  2  0  0  0  0  0  0
  -19.5510  -26.6970   21.6170 C   0  0  0  0  0  2  0  0  0  0  0  0
  -18.1710  -26.8500   22.2640 C   0  0  0  0  0  2  0  0  0  0  0  0
  -19.1320  -28.9490   23.3780 C   0  0  0  0  0  0  0  0  0  0  0  0
  -18.9250  -30.2090   23.9790 C   0  0  0  0  0  3  0  0  0  0  0  0
  -17.6230  -30.7180   24.1530 C   0  0  0  0  0  3  0  0  0  0  0  0
  -16.5120  -29.9630   23.7380 C   0  0  0  0  0  3  0  0  0  0  0  0
  -16.7050  -28.7050   23.1430 C   0  0  0  0  0  3  0  0  0  0  0  0
  -25.8970  -32.5540   23.8830 C   0  0  0  0  0  3  0  0  0  0  0  0
  -25.5920  -33.9540   24.2170 N   0  0  0  0  0  0  0  0  0  0  0  0
  -25.9030  -35.0090   23.4520 C   0  0  0  0  0  0  0  0  0  0  0  0
  -26.5450  -34.9060   22.4030 O   0  0  0  0  0  0  0  0  0  0  0  0
  -25.0210  -34.1090   25.0350 H   0  0  0  0  0  0  0  0  0  0  0  0
  -24.1550  -36.7970   23.1610 C   0  0  0  0  0  1  0  0  0  0  0  0
  -25.4280  -36.3990   23.9230 C   0  0  0  0  0  3  0  0  0  0  0  0
  -27.5860  -37.3020   24.6720 C   0  0  0  0  0  1  0  0  0  0  0  0
  -26.4510  -37.4560   23.7650 N   0  0  0  0  0  0  0  0  0  0  0  0
  -26.0450  -38.3750   23.9190 H   0  0  0  0  0  0  0  0  0  0  0  0
  -26.4010  -31.7820   25.1660 C   0  0  1  0  0  0  0  0  0  0  0  0
  -25.2990  -31.5510   26.2270 C   0  0  0  0  0  1  0  0  0  0  0  0
  -26.9820  -30.4010   24.7850 C   0  0  0  0  0  1  0  0  0  0  0  0
  -27.5490  -32.5720   25.8360 C   0  0  0  0  0  1  0  0  0  0  0  0
  2  1  1  0
  3  4  1  0
  3  5  1  0
  4 49  1  0
  4  1  1  0
  5  6  1  6
  5 10  1  0
  5  2  1  0
  7  8  1  0
  7  9  1  0
  9 10  1  0
  9 19  1  0
 10  8  1  0
 11 19  1  0
 12 17  1  0
 13 14  1  0
 13 12  1  0
 15 14  1  0
 15 24  1  0
 15 16  1  0
 17 11  1  0
 17 16  1  0
 18 11  2  0
 19 20  1  0
 21 22  2  0
 22 41  1  0
 23 22  1  0
 23 26  1  0
 24 25  1  0
 24 21  1  0
 25 23  2  0
 26 27  1  0
 27 28  2  0
 29 32  1  0
 29 28  1  0
 30 29  2  0
 31 30  1  0
 31 26  2  0
 32 33  1  0
 33 34  1  0
 34 35  2  0
 36 35  1  0
 36 40  1  0
 37 36  2  0
 38 33  2  0
 38 37  1  0
 39 38  1  0
 41 42  1  0
 42 45  1  0
 42 44  1  0
 43 41  2  0
 46 47  1  0
 46 21  1  0
 48 46  1  0
 49 50  1  0
 51 62  2  0
 52 50  1  0
 52 57  1  0
 53 61  1  0
 53 63  1  0
 54 60  1  0
 54 56  1  0
 55 61  1  0
 56 55  1  0
 57 56  2  0
 58 52  2  0
 59 58  1  0
 59 54  2  0
 60 53  1  0
 61 51  1  0
 63 65  2  0
 64 63  1  0
 66 64  1  0
 67 76  2  0
 67 72  1  0
 68 64  1  0
 68 72  1  0
 69 68  1  0
 70 71  1  0
 70 69  1  0
 71 67  1  0
 72 73  2  0
 73 74  1  0
 75 74  2  0
 76 75  1  0
 77 51  1  0
 77 78  1  0
 77 87  1  0
 78 81  1  0
 79 83  1  0
 79 78  1  0
 80 79  2  0
 83 82  1  0
 85 86  1  0
 85 83  1  0
 85 84  1  0
 87 90  1  1
 87 88  1  0
 89 87  1  0
M  ISO  4  11 100  19 100  49 101  50 101
M  END
>  <TORSDO>  (78) 
F 18

>  <SCORE>  (78) 
-15.393

>  <name>  (78) 
77

>  <ligand_id>  (78) 
77

>  <original_smiles>  (78) 
[H]c1c([H])c([H])c2c(c1[H])C([H])([H])C([H])([H])C([H])([H])C2([H])N([H])C(=O)C1([H])N(C(=O)C([H])(N([H])C(=O)C([H])(N([H])C([H])([H])[H])C([H])([H])[H])C(C([H])([H])[H])(C([H])([H])[H])C([H])([H])[H])C([H])([H])c2c([H])c(OC([H])([H])C3([H])C([H])([H])C([H])([H])[N+]([H])(C4([H])C([H])([H])C([H])([H])C4([H])N([H])C(=O)N4C([H])([H])C([H])([H])C([H])([H])C([H])(n5nc(-c6c([H])c([H])c(Oc7c([H])c([H])c(F)c([H])c7F)c([H])c6[H])c(C(=O)N([H])[H])c5N([H])[H])C4([H])[H])C3([H])[H])c([H])c([H])c2C1([H])[H]

>  <smiles>  (78) 
[H]c1c([H])c([H])c2c(c1[H])C([H])([H])C([H])([H])C([H])([H])C2([H])N([H])C(=O)C1([H])N(C(=O)C([H])(N([H])C(=O)C([H])(N([H])C([H])([H])[H])C([H])([H])[H])C(C([H])([H])[H])(C([H])([H])[H])C([H])([H])[H])C([H])([H])c2c([H])c(OC([H])([H])C3([H])C([H])([H])C([H])([H])[N+]([H])(C4([H])C([H])([H])C([H])([H])C4([H])N([H])C(=O)N4C([H])([H])C([H])([H])C([H])([H])C([H])(n5nc(-c6c([H])c([H])c(Oc7c([H])c([H])c(F)c([H])c7F)c([H])c6[H])c(C(=O)N([H])[H])c5N([H])[H])C4([H])[H])C3([H])[H])c([H])c([H])c2C1([H])[H]

$$$$
78:0:0
     RDKit          3D

 91101  0  0  1  0  0  0  0  0999 V2000
  -28.8870  -21.2900   18.8440 C   0  0  0  0  0  3  0  0  0  0  0  0
  -28.6300  -22.7050   18.9990 C   0  0  0  0  0  3  0  0  0  0  0  0
  -29.4390  -20.5000   19.9020 C   0  0  0  0  0  0  0  0  0  0  0  0
  -28.9260  -23.3830   20.2200 C   0  0  0  0  0  0  0  0  0  0  0  0
  -29.7630  -21.2260   21.0290 N   0  0  0  0  0  0  0  0  0  0  0  0
  -29.5140  -22.5730   21.1770 N   0  0  0  0  0  0  0  0  0  0  0  0
  -29.2780  -18.1100   18.6510 C   0  0  0  0  0  2  0  0  0  0  0  0
  -29.4050  -18.8630   19.9560 C   0  0  0  0  0  3  0  0  0  0  0  0
  -30.3610  -17.5690   19.5530 C   0  0  0  0  0  3  0  0  0  0  0  0
  -30.8540  -14.9360   19.4590 C   0  0  0  0  0  0  0  0  0  0  0  0
  -30.5140  -12.6890   18.3360 C   0  0  0  0  0  2  0  0  0  0  0  0
  -29.3670  -12.7640   17.2990 C   0  0  0  0  0  2  0  0  0  0  0  0
  -27.9960  -12.5310   17.9660 C   0  0  0  0  0  2  0  0  0  0  0  0
  -27.8400  -13.3380   19.2810 C   0  0  0  0  0  3  0  0  0  0  0  0
  -29.0800  -13.1740   20.1780 C   0  0  0  0  0  2  0  0  0  0  0  0
  -30.2350  -13.6820   19.4160 N   0  0  0  0  0  0  0  0  0  0  0  0
  -31.8960  -15.0650   18.8040 O   0  0  0  0  0  0  0  0  0  0  0  0
  -30.2050  -16.0920   19.9830 N   0  0  0  0  0  0  0  0  0  0  0  0
  -25.6770  -13.8680   20.5500 C   0  0  0  0  0  0  0  0  0  0  0  0
  -24.6670  -13.0740   21.0170 C   0  0  0  0  0  0  0  0  0  0  0  0
  -25.0420  -11.7310   20.7020 C   0  0  0  0  0  0  0  0  0  0  0  0
  -26.6050  -13.0090   19.9840 N   0  0  0  0  0  0  0  0  0  0  0  0
  -26.2420  -11.7090   20.1330 N   0  0  0  0  0  0  0  0  0  0  0  0
  -24.2990  -10.4730   20.8560 C   0  0  0  0  0  0  0  0  0  0  0  0
  -24.7940   -9.4170   21.6530 C   0  0  0  0  0  3  0  0  0  0  0  0
  -24.0520   -8.2240   21.8010 C   0  0  0  0  0  3  0  0  0  0  0  0
  -22.8020   -8.0810   21.1540 C   0  0  0  0  0  0  0  0  0  0  0  0
  -22.3250   -9.1260   20.3430 C   0  0  0  0  0  3  0  0  0  0  0  0
  -23.0680  -10.3100   20.1920 C   0  0  0  0  0  3  0  0  0  0  0  0
  -22.0240   -6.9500   21.2190 O   0  0  0  0  0  0  0  0  0  0  0  0
  -21.9930   -6.1620   22.3420 C   0  0  0  0  0  0  0  0  0  0  0  0
  -21.6160   -6.6750   23.6010 C   0  0  0  0  0  3  0  0  0  0  0  0
  -21.5290   -5.8160   24.7140 C   0  0  0  0  0  3  0  0  0  0  0  0
  -21.8110   -4.4430   24.5690 C   0  0  0  0  0  0  0  0  0  0  0  0
  -22.1820   -3.9290   23.3140 C   0  0  0  0  0  3  0  0  0  0  0  0
  -22.2690   -4.7860   22.2030 C   0  0  0  0  0  0  0  0  0  0  0  0
  -22.6060   -4.2830   20.9920 F   0  0  0  0  0  0  0  0  0  0  0  0
  -21.7210   -3.6160   25.6370 F   0  0  0  0  0  0  0  0  0  0  0  0
  -23.3780  -13.5390   21.6320 C   0  0  0  0  0  0  0  0  0  0  0  0
  -22.8150  -12.7550   22.5430 N   0  0  0  0  0  0  0  0  0  0  0  0
  -22.8890  -14.6290   21.3400 O   0  0  0  0  0  0  0  0  0  0  0  0
  -23.2270  -11.8690   22.7960 H   0  0  0  0  0  0  0  0  0  0  0  0
  -21.9580  -13.0440   22.9940 H   0  0  0  0  0  0  0  0  0  0  0  0
  -25.8750  -15.2460   20.5370 N   0  0  0  0  0  0  0  0  0  0  0  0
  -25.1780  -15.8940   20.8850 H   0  0  0  0  0  0  0  0  0  0  0  0
  -26.6540  -15.7070   20.0830 H   0  0  0  0  0  0  0  0  0  0  0  0
  -30.2750  -15.4610   22.4750 C   0  0  0  0  0  2  0  0  0  0  0  0
  -30.0770  -16.9480   22.3960 C   0  0  0  0  0  2  0  0  0  0  0  0
  -29.5620  -16.0610   21.2710 C   0  0  0  0  0  3  0  0  0  0  0  0
  -28.2530  -24.8070   20.6790 C   0  0  0  0  0  2  0  0  0  0  0  0
  -28.6060  -26.2500   20.2760 O   0  0  0  0  0  0  0  0  0  0  0  0
  -24.6810  -31.8280   23.0270 C   0  0  0  0  0  0  0  0  0  0  0  0
  -27.5270  -27.1890   20.1850 C   0  0  0  0  0  0  0  0  0  0  0  0
  -23.5840  -30.3540   21.3850 C   0  0  0  0  0  3  0  0  0  0  0  0
  -25.1350  -28.8120   20.0410 C   0  0  0  0  0  0  0  0  0  0  0  0
  -26.1270  -30.7230   21.2900 C   0  0  0  0  0  2  0  0  0  0  0  0
  -26.2750  -29.3240   20.6750 C   0  0  0  0  0  0  0  0  0  0  0  0
  -27.4760  -28.5270   20.7330 C   0  0  0  0  0  3  0  0  0  0  0  0
  -26.3670  -26.7780   19.4930 C   0  0  0  0  0  3  0  0  0  0  0  0
  -25.1910  -27.5500   19.4340 C   0  0  0  0  0  3  0  0  0  0  0  0
  -23.8720  -29.6560   20.0290 C   0  0  0  0  0  2  0  0  0  0  0  0
  -24.8150  -30.9910   21.9560 N   0  0  0  0  0  0  0  0  0  0  0  0
  -23.5690  -32.0830   23.5150 O   0  0  0  0  0  0  0  0  0  0  0  0
  -22.9160  -29.3400   22.3470 C   0  0  0  0  0  0  0  0  0  0  0  0
  -21.5880  -29.1650   22.2260 N   0  0  0  0  0  0  0  0  0  0  0  0
  -23.5940  -28.7140   23.1650 O   0  0  0  0  0  0  0  0  0  0  0  0
  -21.0980  -29.7210   21.5410 H   0  0  0  0  0  0  0  0  0  0  0  0
  -18.2060  -27.9900   22.7740 C   0  0  0  0  0  0  0  0  0  0  0  0
  -20.7710  -28.2270   23.0000 C   0  0  0  0  0  3  0  0  0  0  0  0
  -20.8500  -26.8000   22.4080 C   0  0  0  0  0  2  0  0  0  0  0  0
  -19.7280  -26.4990   21.4090 C   0  0  0  0  0  2  0  0  0  0  0  0
  -18.3580  -26.6480   22.0790 C   0  0  0  0  0  2  0  0  0  0  0  0
  -19.3390  -28.7380   23.1920 C   0  0  0  0  0  0  0  0  0  0  0  0
  -19.1400  -29.9950   23.8050 C   0  0  0  0  0  3  0  0  0  0  0  0
  -17.8430  -30.5040   24.0010 C   0  0  0  0  0  3  0  0  0  0  0  0
  -16.7250  -29.7530   23.5980 C   0  0  0  0  0  3  0  0  0  0  0  0
  -16.9080  -28.4980   22.9890 C   0  0  0  0  0  3  0  0  0  0  0  0
  -25.9160  -32.5240   23.6760 C   0  0  0  0  0  3  0  0  0  0  0  0
  -26.4860  -31.7370   24.9210 C   0  0  1  0  0  0  0  0  0  0  0  0
  -25.4140  -31.3750   25.9740 C   0  0  0  0  0  1  0  0  0  0  0  0
  -27.1680  -30.4230   24.4740 C   0  0  0  0  0  1  0  0  0  0  0  0
  -27.5760  -32.5830   25.6200 C   0  0  0  0  0  1  0  0  0  0  0  0
  -25.5080  -33.8810   24.0710 N   0  0  0  0  0  0  0  0  0  0  0  0
  -25.7410  -34.9880   23.3520 C   0  0  0  0  0  0  0  0  0  0  0  0
  -26.3890  -34.9770   22.3020 O   0  0  0  0  0  0  0  0  0  0  0  0
  -24.9250  -33.9570   24.8910 H   0  0  0  0  0  0  0  0  0  0  0  0
  -23.8650  -36.6510   23.1310 C   0  0  0  0  0  1  0  0  0  0  0  0
  -25.1650  -36.3170   23.8800 C   0  0  0  0  0  3  0  0  0  0  0  0
  -27.2550  -37.3400   24.6650 C   0  0  0  0  0  1  0  0  0  0  0  0
  -26.1070  -37.4530   23.7700 N   0  0  0  0  0  0  0  0  0  0  0  0
  -25.6360  -38.3310   23.9670 H   0  0  0  0  0  0  0  0  0  0  0  0
  1  2  2  0
  1  3  1  0
  2  4  1  0
  3  5  2  0
  4 50  1  0
  4  6  2  0
  5  6  1  0
  7  9  1  0
  7  8  1  0
  8  3  1  0
  9  8  1  0
  9 18  1  0
 10 18  1  0
 11 16  1  0
 12 13  1  0
 12 11  1  0
 14 13  1  0
 14 22  1  0
 14 15  1  0
 16 10  1  0
 16 15  1  0
 17 10  2  0
 18 49  1  0
 19 20  2  0
 20 39  1  0
 21 24  1  0
 21 20  1  0
 22 23  1  0
 22 19  1  0
 23 21  2  0
 24 25  1  0
 25 26  2  0
 27 30  1  0
 27 26  1  0
 28 27  2  0
 29 28  1  0
 29 24  2  0
 30 31  1  0
 31 32  1  0
 32 33  2  0
 34 33  1  0
 34 38  1  0
 35 34  2  0
 36 31  2  0
 36 35  1  0
 37 36  1  0
 39 40  1  0
 40 42  1  0
 40 43  1  0
 41 39  2  0
 44 19  1  0
 44 45  1  0
 46 44  1  0
 48 47  1  0
 49 48  1  0
 49 47  1  0
 51 50  1  0
 52 63  2  0
 53 51  1  0
 53 58  1  0
 54 62  1  0
 54 64  1  0
 55 57  1  0
 56 62  1  0
 57 58  2  0
 57 56  1  0
 59 53  2  0
 60 59  1  0
 60 55  2  0
 61 55  1  0
 61 54  1  0
 62 52  1  0
 64 66  2  0
 65 64  1  0
 67 65  1  0
 68 77  2  0
 68 73  1  0
 69 65  1  0
 69 73  1  0
 70 69  1  0
 71 72  1  0
 71 70  1  0
 72 68  1  0
 73 74  2  0
 74 75  1  0
 76 75  2  0
 77 76  1  0
 78 52  1  0
 78 83  1  0
 78 79  1  0
 79 82  1  1
 79 80  1  0
 81 79  1  0
 83 86  1  0
 84 88  1  0
 84 83  1  0
 85 84  2  0
 88 87  1  0
 90 88  1  0
 90 91  1  0
 90 89  1  0
M  ISO  4  10 100  18 100  50 101  51 101
M  END
>  <TORSDO>  (79) 
F 19

>  <SCORE>  (79) 
-10.987

>  <name>  (79) 
78

>  <ligand_id>  (79) 
78

>  <original_smiles>  (79) 
[H]c1c(C([H])([H])Oc2c([H])c([H])c3c(c2[H])C([H])([H])N(C(=O)C([H])(N([H])C(=O)C([H])(N([H])C([H])([H])[H])C([H])([H])[H])C(C([H])([H])[H])(C([H])([H])[H])C([H])([H])[H])C([H])(C(=O)N([H])C2([H])c4c([H])c([H])c([H])c([H])c4C([H])([H])C([H])([H])C2([H])[H])C3([H])[H])nnc(C2([H])C([H])([H])C2([H])N(C(=O)N2C([H])([H])C([H])([H])C([H])([H])C([H])(n3nc(-c4c([H])c([H])c(Oc5c([H])c([H])c(F)c([H])c5F)c([H])c4[H])c(C(=O)N([H])[H])c3N([H])[H])C2([H])[H])C2([H])C([H])([H])C2([H])[H])c1[H]

>  <smiles>  (79) 
[H]c1c(C([H])([H])Oc2c([H])c([H])c3c(c2[H])C([H])([H])N(C(=O)C([H])(N([H])C(=O)C([H])(N([H])C([H])([H])[H])C([H])([H])[H])C(C([H])([H])[H])(C([H])([H])[H])C([H])([H])[H])C([H])(C(=O)N([H])C2([H])c4c([H])c([H])c([H])c([H])c4C([H])([H])C([H])([H])C2([H])[H])C3([H])[H])nnc(C2([H])C([H])([H])C2([H])N(C(=O)N2C([H])([H])C([H])([H])C([H])([H])C([H])(n3nc(-c4c([H])c([H])c(Oc5c([H])c([H])c(F)c([H])c5F)c([H])c4[H])c(C(=O)N([H])[H])c3N([H])[H])C2([H])[H])C2([H])C([H])([H])C2([H])[H])c1[H]

$$$$
79:0:0
     RDKit          3D

 96106  0  0  1  0  0  0  0  0999 V2000
  -29.9850  -23.0750   20.7290 C   0  0  0  0  0  3  0  0  0  0  0  0
  -30.3230  -21.6590   20.7980 C   0  0  0  0  0  0  0  0  0  0  0  0
  -28.6430  -23.5760   20.6520 C   0  0  0  0  0  0  0  0  0  0  0  0
  -29.3020  -20.6510   20.7870 C   0  0  0  0  0  0  0  0  0  0  0  0
  -27.7160  -22.4850   20.5710 C   0  0  0  0  0  0  0  0  0  0  0  0
  -26.2270  -22.7530   20.4800 C   0  0  0  0  0  1  0  0  0  0  0  0
  -28.0300  -21.1390   20.6310 N   0  0  0  0  0  0  0  0  0  0  0  0
  -32.3390  -20.4740   22.0340 C   0  0  0  0  0  2  0  0  0  0  0  0
  -32.7110  -21.9270   21.8640 C   0  0  0  0  0  2  0  0  0  0  0  0
  -31.7690  -21.2670   20.8810 C   0  0  0  0  0  3  0  0  0  0  0  0
  -28.1720  -25.1160   20.9820 C   0  0  0  0  0  2  0  0  0  0  0  0
  -28.3170  -26.3880   20.1520 O   0  0  0  0  0  0  0  0  0  0  0  0
  -24.6160  -31.9590   23.2160 C   0  0  0  0  0  0  0  0  0  0  0  0
  -27.2390  -27.3280   20.1630 C   0  0  0  0  0  0  0  0  0  0  0  0
  -23.4140  -30.5420   21.5920 C   0  0  0  0  0  3  0  0  0  0  0  0
  -24.8730  -28.9890   20.1570 C   0  0  0  0  0  0  0  0  0  0  0  0
  -25.9580  -30.8620   21.3910 C   0  0  0  0  0  2  0  0  0  0  0  0
  -26.0490  -29.4710   20.7490 C   0  0  0  0  0  0  0  0  0  0  0  0
  -27.2380  -28.6570   20.7320 C   0  0  0  0  0  3  0  0  0  0  0  0
  -26.0390  -26.9320   19.5390 C   0  0  0  0  0  3  0  0  0  0  0  0
  -24.8750  -27.7320   19.5370 C   0  0  0  0  0  3  0  0  0  0  0  0
  -23.6290  -29.8620   20.2130 C   0  0  0  0  0  2  0  0  0  0  0  0
  -24.6820  -31.1430   22.1210 N   0  0  0  0  0  0  0  0  0  0  0  0
  -23.5340  -32.2260   23.7600 O   0  0  0  0  0  0  0  0  0  0  0  0
  -22.7660  -29.5270   22.5660 C   0  0  0  0  0  0  0  0  0  0  0  0
  -21.4400  -29.3310   22.4520 N   0  0  0  0  0  0  0  0  0  0  0  0
  -23.4580  -28.9140   23.3840 O   0  0  0  0  0  0  0  0  0  0  0  0
  -20.9390  -29.8780   21.7660 H   0  0  0  0  0  0  0  0  0  0  0  0
  -18.0860  -28.0770   22.9770 C   0  0  0  0  0  0  0  0  0  0  0  0
  -20.6410  -28.3870   23.2370 C   0  0  0  0  0  3  0  0  0  0  0  0
  -20.7650  -26.9520   22.6750 C   0  0  0  0  0  2  0  0  0  0  0  0
  -19.6670  -26.5990   21.6670 C   0  0  0  0  0  2  0  0  0  0  0  0
  -18.2850  -26.7270   22.3130 C   0  0  0  0  0  2  0  0  0  0  0  0
  -19.1910  -28.8640   23.3970 C   0  0  0  0  0  0  0  0  0  0  0  0
  -18.9490  -30.1280   23.9780 C   0  0  0  0  0  3  0  0  0  0  0  0
  -17.6340  -30.6040   24.1460 C   0  0  0  0  0  3  0  0  0  0  0  0
  -16.5440  -29.8130   23.7430 C   0  0  0  0  0  3  0  0  0  0  0  0
  -16.7710  -28.5520   23.1630 C   0  0  0  0  0  3  0  0  0  0  0  0
  -25.8940  -32.6120   23.8260 C   0  0  0  0  0  3  0  0  0  0  0  0
  -26.4330  -31.8490   25.0990 C   0  0  1  0  0  0  0  0  0  0  0  0
  -25.3530  -31.6070   26.1780 C   0  0  0  0  0  1  0  0  0  0  0  0
  -27.0270  -30.4780   24.7080 C   0  0  0  0  0  1  0  0  0  0  0  0
  -27.5820  -32.6590   25.7470 C   0  0  0  0  0  1  0  0  0  0  0  0
  -25.5730  -34.0060   24.1610 N   0  0  0  0  0  0  0  0  0  0  0  0
  -25.8970  -35.0670   23.4090 C   0  0  0  0  0  0  0  0  0  0  0  0
  -26.5710  -34.9730   22.3790 O   0  0  0  0  0  0  0  0  0  0  0  0
  -24.9780  -34.1540   24.9650 H   0  0  0  0  0  0  0  0  0  0  0  0
  -24.1720  -36.8590   23.0440 C   0  0  0  0  0  1  0  0  0  0  0  0
  -25.4010  -36.4490   23.8720 C   0  0  0  0  0  3  0  0  0  0  0  0
  -27.5180  -37.3330   24.7520 C   0  0  0  0  0  1  0  0  0  0  0  0
  -26.4330  -37.5060   23.7890 N   0  0  0  0  0  0  0  0  0  0  0  0
  -26.0190  -38.4220   23.9400 H   0  0  0  0  0  0  0  0  0  0  0  0
  -29.4230  -19.0500   21.1620 C   0  0  0  0  0  2  0  0  0  0  0  0
  -30.8080  -15.1680   20.7290 C   0  0  0  0  0  0  0  0  0  0  0  0
  -30.7390  -12.8000   19.8600 C   0  0  0  0  0  2  0  0  0  0  0  0
  -29.8900  -12.6810   18.5730 C   0  0  0  0  0  2  0  0  0  0  0  0
  -28.3890  -12.5120   18.9030 C   0  0  0  0  0  2  0  0  0  0  0  0
  -27.8960  -13.4470   20.0400 C   0  0  0  0  0  3  0  0  0  0  0  0
  -28.8870  -13.5200   21.2200 C   0  0  0  0  0  2  0  0  0  0  0  0
  -30.1910  -13.9190   20.6670 N   0  0  0  0  0  0  0  0  0  0  0  0
  -32.0430  -15.1880   20.7250 O   0  0  0  0  0  0  0  0  0  0  0  0
  -30.9350  -18.2470   19.2170 C   0  0  0  0  0  2  0  0  0  0  0  0
  -29.3390  -16.4160   19.2280 C   0  0  0  0  0  2  0  0  0  0  0  0
  -29.8680  -17.5800   18.3740 C   0  0  0  0  0  3  0  0  0  0  0  0
  -30.4920  -17.8890   20.6310 C   0  0  0  0  0  3  0  0  0  0  0  0
  -30.0680  -16.3760   20.5130 N   0  0  0  0  0  0  0  0  0  0  0  0
  -25.4710  -14.0390   20.5940 C   0  0  0  0  0  0  0  0  0  0  0  0
  -24.3850  -13.2630   20.8950 C   0  0  0  0  0  0  0  0  0  0  0  0
  -24.8610  -11.9180   20.9380 C   0  0  0  0  0  0  0  0  0  0  0  0
  -26.5330  -13.1600   20.4590 N   0  0  0  0  0  0  0  0  0  0  0  0
  -26.1720  -11.8830   20.7340 N   0  0  0  0  0  0  0  0  0  0  0  0
  -24.1360  -10.6540   21.1000 C   0  0  0  0  0  0  0  0  0  0  0  0
  -24.5160   -9.7090   22.0770 C   0  0  0  0  0  3  0  0  0  0  0  0
  -23.7900   -8.5080   22.2270 C   0  0  0  0  0  3  0  0  0  0  0  0
  -22.6720   -8.2460   21.4000 C   0  0  0  0  0  0  0  0  0  0  0  0
  -22.3140   -9.1810   20.4120 C   0  0  0  0  0  3  0  0  0  0  0  0
  -23.0420  -10.3720   20.2590 C   0  0  0  0  0  3  0  0  0  0  0  0
  -21.9230   -7.0970   21.4590 O   0  0  0  0  0  0  0  0  0  0  0  0
  -21.8100   -6.3710   22.6180 C   0  0  0  0  0  0  0  0  0  0  0  0
  -21.2910   -6.9350   23.8040 C   0  0  0  0  0  3  0  0  0  0  0  0
  -21.1280   -6.1350   24.9530 C   0  0  0  0  0  3  0  0  0  0  0  0
  -21.4720   -4.7710   24.9140 C   0  0  0  0  0  0  0  0  0  0  0  0
  -21.9850   -4.2060   23.7340 C   0  0  0  0  0  3  0  0  0  0  0  0
  -22.1500   -5.0030   22.5880 C   0  0  0  0  0  0  0  0  0  0  0  0
  -22.6240   -4.4480   21.4460 F   0  0  0  0  0  0  0  0  0  0  0  0
  -21.3080   -3.9980   26.0150 F   0  0  0  0  0  0  0  0  0  0  0  0
  -22.9680  -13.7350   21.0400 C   0  0  0  0  0  0  0  0  0  0  0  0
  -22.1830  -13.0650   21.8760 N   0  0  0  0  0  0  0  0  0  0  0  0
  -22.5610  -14.7330   20.4440 O   0  0  0  0  0  0  0  0  0  0  0  0
  -22.5260  -12.2600   22.3810 H   0  0  0  0  0  0  0  0  0  0  0  0
  -21.2280  -13.3610   22.0160 H   0  0  0  0  0  0  0  0  0  0  0  0
  -25.6380  -15.4070   20.3990 N   0  0  0  0  0  0  0  0  0  0  0  0
  -24.8640  -16.0600   20.4470 H   0  0  0  0  0  0  0  0  0  0  0  0
  -26.5190  -15.8520   20.1820 H   0  0  0  0  0  0  0  0  0  0  0  0
  -30.4030  -17.1480   17.1370 O   0  0  0  0  0  0  0  0  0  0  0  0
  -31.2010  -16.6560   17.3090 H   0  0  0  0  0  0  0  0  0  0  0  0
  1  2  1  0
  2 10  1  0
  3  1  2  0
  3 11  1  0
  4  2  2  0
  4 53  1  0
  5  7  2  0
  5  3  1  0
  6  5  1  0
  7  4  1  0
  9  8  1  0
 10  9  1  0
 10  8  1  0
 12 14  1  0
 12 11  1  0
 13 24  2  0
 14 19  1  0
 15 23  1  0
 15 25  1  0
 16 22  1  0
 16 18  1  0
 17 23  1  0
 18 17  1  0
 19 18  2  0
 20 14  2  0
 21 20  1  0
 21 16  2  0
 22 15  1  0
 23 13  1  0
 25 27  2  0
 26 25  1  0
 28 26  1  0
 29 38  2  0
 29 34  1  0
 30 26  1  0
 30 34  1  0
 31 30  1  0
 32 33  1  0
 32 31  1  0
 33 29  1  0
 34 35  2  0
 35 36  1  0
 37 36  2  0
 38 37  1  0
 39 13  1  0
 39 44  1  0
 39 40  1  0
 40 43  1  1
 40 41  1  0
 42 40  1  0
 44 47  1  0
 45 49  1  0
 45 44  1  0
 46 45  2  0
 49 48  1  0
 51 49  1  0
 51 52  1  0
 51 50  1  0
 55 60  1  0
 56 57  1  0
 56 55  1  0
 58 57  1  0
 58 70  1  0
 58 59  1  0
 60 54  1  0
 60 59  1  0
 61 54  2  0
 62 65  1  0
 63 66  1  0
 64 95  1  0
 64 62  1  0
 64 63  1  0
 65 53  1  0
 66 65  1  0
 66 54  1  0
 67 68  2  0
 68 69  1  0
 68 87  1  0
 69 72  1  0
 70 67  1  0
 70 71  1  0
 71 69  2  0
 72 73  1  0
 73 74  2  0
 75 78  1  0
 75 74  1  0
 76 75  2  0
 77 76  1  0
 77 72  2  0
 78 79  1  0
 79 80  1  0
 80 81  2  0
 82 81  1  0
 82 86  1  0
 83 82  2  0
 84 79  2  0
 84 83  1  0
 85 84  1  0
 87 88  1  0
 88 91  1  0
 88 90  1  0
 89 87  2  0
 92 93  1  0
 92 67  1  0
 94 92  1  0
 95 96  1  0
M  ISO  4  11 101  12 101  54 100  66 100
M  END
>  <TORSDO>  (80) 
F 20

>  <SCORE>  (80) 
-13.140

>  <name>  (80) 
79

>  <ligand_id>  (80) 
79

>  <original_smiles>  (80) 
[H]OC1([H])C([H])([H])N(C(=O)N2C([H])([H])C([H])([H])C([H])([H])C([H])(n3nc(-c4c([H])c([H])c(Oc5c([H])c([H])c(F)c([H])c5F)c([H])c4[H])c(C(=O)N([H])[H])c3N([H])[H])C2([H])[H])C([H])(C([H])([H])c2nc(C([H])([H])[H])c(C([H])([H])Oc3c([H])c([H])c4c(c3[H])C([H])([H])N(C(=O)C([H])(N([H])C(=O)C([H])(N([H])C([H])([H])[H])C([H])([H])[H])C(C([H])([H])[H])(C([H])([H])[H])C([H])([H])[H])C([H])(C(=O)N([H])C3([H])c5c([H])c([H])c([H])c([H])c5C([H])([H])C([H])([H])C3([H])[H])C4([H])[H])c([H])c2C2([H])C([H])([H])C2([H])[H])C1([H])[H]

>  <smiles>  (80) 
[H]OC1([H])C([H])([H])N(C(=O)N2C([H])([H])C([H])([H])C([H])([H])C([H])(n3nc(-c4c([H])c([H])c(Oc5c([H])c([H])c(F)c([H])c5F)c([H])c4[H])c(C(=O)N([H])[H])c3N([H])[H])C2([H])[H])C([H])(C([H])([H])c2nc(C([H])([H])[H])c(C([H])([H])Oc3c([H])c([H])c4c(c3[H])C([H])([H])N(C(=O)C([H])(N([H])C(=O)C([H])(N([H])C([H])([H])[H])C([H])([H])[H])C(C([H])([H])[H])(C([H])([H])[H])C([H])([H])[H])C([H])(C(=O)N([H])C3([H])c5c([H])c([H])c([H])c([H])c5C([H])([H])C([H])([H])C3([H])[H])C4([H])[H])c([H])c2C2([H])C([H])([H])C2([H])[H])C1([H])[H]

$$$$
80:0:0
     RDKit          3D

 91100  0  0  1  0  0  0  0  0999 V2000
  -29.8660  -21.6130   22.2300 C   0  0  0  0  0  3  0  0  0  0  0  0
  -29.3260  -22.7680   21.6170 C   0  0  0  0  0  3  0  0  0  0  0  0
  -30.0230  -20.3630   21.5730 C   0  0  0  0  0  0  0  0  0  0  0  0
  -29.5610  -20.1400   20.2540 C   0  0  0  0  0  0  0  0  0  0  0  0
  -28.9080  -22.7780   20.2780 C   0  0  0  0  0  0  0  0  0  0  0  0
  -31.9670  -18.7080   21.2990 C   0  0  0  0  0  2  0  0  0  0  0  0
  -31.6320  -18.7790   19.7880 C   0  0  0  0  0  2  0  0  0  0  0  0
  -30.8810  -19.2960   22.2470 C   0  0  0  0  0  3  0  0  0  0  0  0
  -30.1260  -18.5830   19.5800 C   0  0  0  0  0  3  0  0  0  0  0  0
  -29.0510  -21.4170   19.6490 N   0  0  0  0  0  0  0  0  0  0  0  0
  -29.8350  -18.0070   22.9060 Cl  0  0  0  0  0  0  0  0  0  0  0  0
  -30.6840  -15.6180   19.7550 C   0  0  0  0  0  0  0  0  0  0  0  0
  -30.6810  -13.1290   18.9470 C   0  0  0  0  0  2  0  0  0  0  0  0
  -29.6900  -12.8370   17.7920 C   0  0  0  0  0  2  0  0  0  0  0  0
  -28.2930  -12.5130   18.3470 C   0  0  0  0  0  2  0  0  0  0  0  0
  -27.8860  -13.4870   19.4800 C   0  0  0  0  0  3  0  0  0  0  0  0
  -29.0070  -13.7270   20.5160 C   0  0  0  0  0  2  0  0  0  0  0  0
  -30.1540  -14.2840   19.7790 N   0  0  0  0  0  0  0  0  0  0  0  0
  -31.8790  -15.5990   19.4180 O   0  0  0  0  0  0  0  0  0  0  0  0
  -29.9260  -16.9150   19.8980 N   0  0  0  0  0  0  0  0  0  0  0  0
  -28.9800  -16.7340   20.1980 H   0  0  0  0  0  0  0  0  0  0  0  0
  -25.6120  -13.9840   20.5110 C   0  0  0  0  0  0  0  0  0  0  0  0
  -24.5850  -13.1840   20.9230 C   0  0  0  0  0  0  0  0  0  0  0  0
  -25.0340  -11.8380   20.7440 C   0  0  0  0  0  0  0  0  0  0  0  0
  -26.6160  -13.1280   20.0970 N   0  0  0  0  0  0  0  0  0  0  0  0
  -26.2880  -11.8260   20.3040 N   0  0  0  0  0  0  0  0  0  0  0  0
  -24.3140  -10.5680   20.9090 C   0  0  0  0  0  0  0  0  0  0  0  0
  -24.6680   -9.6410   21.9150 C   0  0  0  0  0  3  0  0  0  0  0  0
  -23.9440   -8.4380   22.0660 C   0  0  0  0  0  3  0  0  0  0  0  0
  -22.8540   -8.1530   21.2110 C   0  0  0  0  0  0  0  0  0  0  0  0
  -22.5210   -9.0680   20.1960 C   0  0  0  0  0  3  0  0  0  0  0  0
  -23.2450  -10.2620   20.0420 C   0  0  0  0  0  3  0  0  0  0  0  0
  -22.1100   -6.9990   21.2670 O   0  0  0  0  0  0  0  0  0  0  0  0
  -21.7130   -6.4550   22.4640 C   0  0  0  0  0  0  0  0  0  0  0  0
  -20.8910   -7.1630   23.3680 C   0  0  0  0  0  3  0  0  0  0  0  0
  -20.4500   -6.5420   24.5540 C   0  0  0  0  0  3  0  0  0  0  0  0
  -20.8220   -5.2140   24.8330 C   0  0  0  0  0  0  0  0  0  0  0  0
  -21.6370   -4.5060   23.9320 C   0  0  0  0  0  3  0  0  0  0  0  0
  -22.0790   -5.1250   22.7490 C   0  0  0  0  0  0  0  0  0  0  0  0
  -22.8460   -4.4310   21.8740 F   0  0  0  0  0  0  0  0  0  0  0  0
  -20.3930   -4.6140   25.9670 F   0  0  0  0  0  0  0  0  0  0  0  0
  -23.2270  -13.6440   21.3610 C   0  0  0  0  0  0  0  0  0  0  0  0
  -22.5900  -12.9060   22.2630 N   0  0  0  0  0  0  0  0  0  0  0  0
  -22.7430  -14.6940   20.9390 O   0  0  0  0  0  0  0  0  0  0  0  0
  -22.9960  -12.0550   22.6240 H   0  0  0  0  0  0  0  0  0  0  0  0
  -21.6820  -13.1970   22.5990 H   0  0  0  0  0  0  0  0  0  0  0  0
  -25.7670  -15.3640   20.4210 N   0  0  0  0  0  0  0  0  0  0  0  0
  -25.0160  -16.0040   20.6590 H   0  0  0  0  0  0  0  0  0  0  0  0
  -26.5670  -15.8290   20.0150 H   0  0  0  0  0  0  0  0  0  0  0  0
  -28.1910  -24.3150   19.7270 C   0  0  0  0  0  2  0  0  0  0  0  0
  -28.2910  -25.9200   20.2260 O   0  0  0  0  0  0  0  0  0  0  0  0
  -24.6380  -31.8660   23.2450 C   0  0  0  0  0  0  0  0  0  0  0  0
  -27.2880  -27.0470   20.1330 C   0  0  0  0  0  0  0  0  0  0  0  0
  -23.4790  -30.4850   21.5700 C   0  0  0  0  0  3  0  0  0  0  0  0
  -24.9650  -28.9310   20.1150 C   0  0  0  0  0  0  0  0  0  0  0  0
  -26.0460  -30.7270   21.4500 C   0  0  0  0  0  2  0  0  0  0  0  0
  -26.1430  -29.3280   20.7600 C   0  0  0  0  0  0  0  0  0  0  0  0
  -27.2930  -28.4060   20.7460 C   0  0  0  0  0  3  0  0  0  0  0  0
  -26.0820  -26.8270   19.4290 C   0  0  0  0  0  3  0  0  0  0  0  0
  -24.9630  -27.7060   19.4290 C   0  0  0  0  0  3  0  0  0  0  0  0
  -23.7320  -29.8360   20.1800 C   0  0  0  0  0  2  0  0  0  0  0  0
  -24.7430  -31.0540   22.1420 N   0  0  0  0  0  0  0  0  0  0  0  0
  -23.5400  -32.1270   23.7650 O   0  0  0  0  0  0  0  0  0  0  0  0
  -22.7940  -29.4600   22.5120 C   0  0  0  0  0  0  0  0  0  0  0  0
  -21.4760  -29.2370   22.3440 N   0  0  0  0  0  0  0  0  0  0  0  0
  -23.4570  -28.8650   23.3650 O   0  0  0  0  0  0  0  0  0  0  0  0
  -20.9910  -29.7720   21.6370 H   0  0  0  0  0  0  0  0  0  0  0  0
  -18.1440  -27.8470   22.7180 C   0  0  0  0  0  0  0  0  0  0  0  0
  -20.6720  -28.2600   23.0870 C   0  0  0  0  0  3  0  0  0  0  0  0
  -20.8770  -26.8330   22.5300 C   0  0  0  0  0  2  0  0  0  0  0  0
  -19.8410  -26.4420   21.4720 C   0  0  0  0  0  2  0  0  0  0  0  0
  -18.4270  -26.5090   22.0560 C   0  0  0  0  0  2  0  0  0  0  0  0
  -19.1980  -28.6760   23.1870 C   0  0  0  0  0  0  0  0  0  0  0  0
  -18.8790  -29.9230   23.7680 C   0  0  0  0  0  3  0  0  0  0  0  0
  -17.5400  -30.3440   23.8820 C   0  0  0  0  0  3  0  0  0  0  0  0
  -16.5010  -29.5130   23.4280 C   0  0  0  0  0  3  0  0  0  0  0  0
  -16.8040  -28.2670   22.8510 C   0  0  0  0  0  3  0  0  0  0  0  0
  -25.8920  -32.5210   23.9000 C   0  0  0  0  0  3  0  0  0  0  0  0
  -25.5650  -33.9250   24.2090 N   0  0  0  0  0  0  0  0  0  0  0  0
  -25.8910  -34.9770   23.4460 C   0  0  0  0  0  0  0  0  0  0  0  0
  -26.5600  -34.8670   22.4140 O   0  0  0  0  0  0  0  0  0  0  0  0
  -24.9680  -34.0810   25.0080 H   0  0  0  0  0  0  0  0  0  0  0  0
  -24.1380  -36.7540   23.1090 C   0  0  0  0  0  1  0  0  0  0  0  0
  -25.4030  -36.3700   23.8940 C   0  0  0  0  0  3  0  0  0  0  0  0
  -27.5380  -37.3040   24.6730 C   0  0  0  0  0  1  0  0  0  0  0  0
  -26.4210  -37.4330   23.7400 N   0  0  0  0  0  0  0  0  0  0  0  0
  -26.0050  -38.3510   23.8700 H   0  0  0  0  0  0  0  0  0  0  0  0
  -26.3650  -31.7760   25.2100 C   0  0  1  0  0  0  0  0  0  0  0  0
  -25.2310  -31.5310   26.2330 C   0  0  0  0  0  1  0  0  0  0  0  0
  -26.9920  -30.4050   24.8750 C   0  0  0  0  0  1  0  0  0  0  0  0
  -27.4700  -32.6010   25.9110 C   0  0  0  0  0  1  0  0  0  0  0  0
  2  1  1  0
  3  1  2  0
  3  8  1  0
  4  3  1  0
  5  2  2  0
  6  8  1  0
  7  6  1  0
  8 11  1  0
  9  7  1  0
  9 20  1  0
  9  4  1  0
 10  4  2  0
 10  5  1  0
 12 18  1  0
 12 20  1  0
 13 18  1  0
 14 15  1  0
 14 13  1  0
 16 15  1  0
 16 25  1  0
 16 17  1  0
 18 17  1  0
 19 12  2  0
 20 21  1  0
 22 23  2  0
 23 42  1  0
 24 27  1  0
 24 23  1  0
 25 26  1  0
 25 22  1  0
 26 24  2  0
 27 28  1  0
 28 29  2  0
 30 33  1  0
 30 29  1  0
 31 30  2  0
 32 31  1  0
 32 27  2  0
 33 34  1  0
 34 39  2  0
 34 35  1  0
 35 36  2  0
 36 37  1  0
 37 41  1  0
 38 37  2  0
 39 38  1  0
 40 39  1  0
 42 43  1  0
 43 46  1  0
 43 45  1  0
 44 42  2  0
 47 22  1  0
 47 48  1  0
 49 47  1  0
 50 51  1  0
 50  5  1  0
 52 63  2  0
 53 51  1  0
 53 58  1  0
 54 62  1  0
 54 64  1  0
 55 61  1  0
 55 57  1  0
 56 62  1  0
 57 56  1  0
 58 57  2  0
 59 53  2  0
 60 59  1  0
 60 55  2  0
 61 54  1  0
 62 52  1  0
 64 66  2  0
 65 64  1  0
 67 65  1  0
 68 77  2  0
 68 73  1  0
 69 65  1  0
 69 73  1  0
 70 69  1  0
 71 72  1  0
 71 70  1  0
 72 68  1  0
 73 74  2  0
 74 75  1  0
 76 75  2  0
 77 76  1  0
 78 52  1  0
 78 79  1  0
 78 88  1  0
 79 82  1  0
 80 84  1  0
 80 79  1  0
 81 80  2  0
 84 83  1  0
 86 87  1  0
 86 84  1  0
 86 85  1  0
 88 91  1  1
 88 89  1  0
 90 88  1  0
M  ISO  4  12 100  20 100  50 101  51 101
M  END
>  <TORSDO>  (81) 
F 17

>  <SCORE>  (81) 
-14.451

>  <name>  (81) 
80

>  <ligand_id>  (81) 
80

>  <original_smiles>  (81) 
[H]c1c(C([H])([H])Oc2c([H])c([H])c3c(c2[H])C([H])([H])N(C(=O)C([H])(N([H])C(=O)C([H])(N([H])C([H])([H])[H])C([H])([H])[H])C(C([H])([H])[H])(C([H])([H])[H])C([H])([H])[H])C([H])(C(=O)N([H])C2([H])c4c([H])c([H])c([H])c([H])c4C([H])([H])C([H])([H])C2([H])[H])C3([H])[H])nc2c(c1[H])C([H])(Cl)C([H])([H])C([H])([H])C2([H])N([H])C(=O)N1C([H])([H])C([H])([H])C([H])([H])C([H])(n2nc(-c3c([H])c([H])c(Oc4c([H])c([H])c(F)c([H])c4F)c([H])c3[H])c(C(=O)N([H])[H])c2N([H])[H])C1([H])[H]

>  <smiles>  (81) 
[H]c1c(C([H])([H])Oc2c([H])c([H])c3c(c2[H])C([H])([H])N(C(=O)C([H])(N([H])C(=O)C([H])(N([H])C([H])([H])[H])C([H])([H])[H])C(C([H])([H])[H])(C([H])([H])[H])C([H])([H])[H])C([H])(C(=O)N([H])C2([H])c4c([H])c([H])c([H])c([H])c4C([H])([H])C([H])([H])C2([H])[H])C3([H])[H])nc2c(c1[H])C([H])(Cl)C([H])([H])C([H])([H])C2([H])N([H])C(=O)N1C([H])([H])C([H])([H])C([H])([H])C([H])(n2nc(-c3c([H])c([H])c(Oc4c([H])c([H])c(F)c([H])c4F)c([H])c3[H])c(C(=O)N([H])[H])c2N([H])[H])C1([H])[H]

$$$$
81:0:0
     RDKit          3D

 87 95  0  0  1  0  0  0  0  0999 V2000
  -29.0590  -20.6790   21.4080 C   0  0  0  0  0  3  0  0  0  0  0  0
  -28.8070  -21.9160   19.0830 C   0  0  0  0  0  3  0  0  0  0  0  0
  -29.3130  -19.7760   20.2830 C   0  0  0  0  0  0  0  0  0  0  0  0
  -28.5530  -22.8240   20.2040 C   0  0  0  0  0  0  0  0  0  0  0  0
  -29.1760  -20.5360   19.1180 N   0  0  0  0  0  0  0  0  0  0  0  0
  -28.6840  -22.0630   21.3740 N   0  0  0  0  0  0  0  0  0  0  0  0
  -30.0950  -18.2120   20.3000 C   0  0  0  0  0  2  0  0  0  0  0  0
  -30.4280  -15.3400   20.2050 C   0  0  0  0  0  0  0  0  0  0  0  0
  -30.3780  -12.9160   19.2990 C   0  0  0  0  0  2  0  0  0  0  0  0
  -29.4310  -12.7280   18.0880 C   0  0  0  0  0  2  0  0  0  0  0  0
  -27.9930  -12.4500   18.5600 C   0  0  0  0  0  2  0  0  0  0  0  0
  -27.5650  -13.3980   19.7080 C   0  0  0  0  0  3  0  0  0  0  0  0
  -28.6380  -13.5370   20.8090 C   0  0  0  0  0  2  0  0  0  0  0  0
  -29.8520  -14.0430   20.1510 N   0  0  0  0  0  0  0  0  0  0  0  0
  -31.6410  -15.3440   19.9570 O   0  0  0  0  0  0  0  0  0  0  0  0
  -29.6840  -16.6090   20.3350 N   0  0  0  0  0  0  0  0  0  0  0  0
  -28.6960  -16.4630   20.4750 H   0  0  0  0  0  0  0  0  0  0  0  0
  -25.2080  -13.9270   20.5280 C   0  0  0  0  0  0  0  0  0  0  0  0
  -24.1620  -13.1360   20.9100 C   0  0  0  0  0  0  0  0  0  0  0  0
  -24.6390  -11.7900   20.8470 C   0  0  0  0  0  0  0  0  0  0  0  0
  -26.2520  -13.0640   20.2460 N   0  0  0  0  0  0  0  0  0  0  0  0
  -25.9240  -11.7720   20.5050 N   0  0  0  0  0  0  0  0  0  0  0  0
  -23.9260  -10.5190   21.0310 C   0  0  0  0  0  0  0  0  0  0  0  0
  -24.3680   -9.5510   21.9590 C   0  0  0  0  0  3  0  0  0  0  0  0
  -23.6530   -8.3470   22.1340 C   0  0  0  0  0  3  0  0  0  0  0  0
  -22.4800   -8.1020   21.3800 C   0  0  0  0  0  0  0  0  0  0  0  0
  -22.0570   -9.0590   20.4410 C   0  0  0  0  0  3  0  0  0  0  0  0
  -22.7730  -10.2540   20.2650 C   0  0  0  0  0  3  0  0  0  0  0  0
  -21.7350   -6.9510   21.4660 O   0  0  0  0  0  0  0  0  0  0  0  0
  -21.6710   -6.2190   22.6240 C   0  0  0  0  0  0  0  0  0  0  0  0
  -21.1860   -6.7710   23.8290 C   0  0  0  0  0  3  0  0  0  0  0  0
  -21.0740   -5.9630   24.9780 C   0  0  0  0  0  3  0  0  0  0  0  0
  -21.4340   -4.6040   24.9220 C   0  0  0  0  0  0  0  0  0  0  0  0
  -21.9110   -4.0500   23.7210 C   0  0  0  0  0  3  0  0  0  0  0  0
  -22.0250   -4.8560   22.5740 C   0  0  0  0  0  0  0  0  0  0  0  0
  -22.4650   -4.3120   21.4140 F   0  0  0  0  0  0  0  0  0  0  0  0
  -21.3180   -3.8250   26.0240 F   0  0  0  0  0  0  0  0  0  0  0  0
  -22.7680  -13.5970   21.2150 C   0  0  0  0  0  0  0  0  0  0  0  0
  -22.0660  -12.8870   22.0900 N   0  0  0  0  0  0  0  0  0  0  0  0
  -22.3110  -14.6240   20.7130 O   0  0  0  0  0  0  0  0  0  0  0  0
  -22.4500  -12.0570   22.5180 H   0  0  0  0  0  0  0  0  0  0  0  0
  -21.1310  -13.1770   22.3390 H   0  0  0  0  0  0  0  0  0  0  0  0
  -25.3540  -15.3020   20.3660 N   0  0  0  0  0  0  0  0  0  0  0  0
  -24.5770  -15.9420   20.4950 H   0  0  0  0  0  0  0  0  0  0  0  0
  -26.1760  -15.7510   19.9850 H   0  0  0  0  0  0  0  0  0  0  0  0
  -27.7580  -24.3760   20.0950 C   0  0  0  0  0  2  0  0  0  0  0  0
  -28.1420  -25.9530   20.3050 O   0  0  0  0  0  0  0  0  0  0  0  0
  -24.6470  -31.9460   23.2640 C   0  0  0  0  0  0  0  0  0  0  0  0
  -27.1540  -27.0660   20.2370 C   0  0  0  0  0  0  0  0  0  0  0  0
  -23.4350  -30.5570   21.6320 C   0  0  0  0  0  3  0  0  0  0  0  0
  -24.8660  -28.9510   20.2020 C   0  0  0  0  0  0  0  0  0  0  0  0
  -26.0020  -30.7580   21.4730 C   0  0  0  0  0  2  0  0  0  0  0  0
  -26.0610  -29.3500   20.8160 C   0  0  0  0  0  0  0  0  0  0  0  0
  -27.2010  -28.4280   20.8110 C   0  0  0  0  0  3  0  0  0  0  0  0
  -25.9310  -26.8200   19.5720 C   0  0  0  0  0  3  0  0  0  0  0  0
  -24.8250  -27.7060   19.5590 C   0  0  0  0  0  3  0  0  0  0  0  0
  -23.6530  -29.8750   20.2550 C   0  0  0  0  0  2  0  0  0  0  0  0
  -24.7160  -31.1130   22.1760 N   0  0  0  0  0  0  0  0  0  0  0  0
  -23.5630  -32.2420   23.7910 O   0  0  0  0  0  0  0  0  0  0  0  0
  -22.7410  -29.5650   22.6020 C   0  0  0  0  0  0  0  0  0  0  0  0
  -21.4130  -29.3930   22.4700 N   0  0  0  0  0  0  0  0  0  0  0  0
  -23.4040  -28.9490   23.4400 O   0  0  0  0  0  0  0  0  0  0  0  0
  -20.9290  -29.9400   21.7720 H   0  0  0  0  0  0  0  0  0  0  0  0
  -18.0330  -28.1680   22.9640 C   0  0  0  0  0  0  0  0  0  0  0  0
  -20.5880  -28.4580   23.2460 C   0  0  0  0  0  3  0  0  0  0  0  0
  -20.7050  -27.0200   22.6900 C   0  0  0  0  0  2  0  0  0  0  0  0
  -19.6150  -26.6760   21.6700 C   0  0  0  0  0  2  0  0  0  0  0  0
  -18.2270  -26.8140   22.3020 C   0  0  0  0  0  2  0  0  0  0  0  0
  -19.1410  -28.9470   23.3930 C   0  0  0  0  0  0  0  0  0  0  0  0
  -18.9040  -30.2110   23.9760 C   0  0  0  0  0  3  0  0  0  0  0  0
  -17.5930  -30.6980   24.1310 C   0  0  0  0  0  3  0  0  0  0  0  0
  -16.4990  -29.9180   23.7160 C   0  0  0  0  0  3  0  0  0  0  0  0
  -16.7200  -28.6550   23.1390 C   0  0  0  0  0  3  0  0  0  0  0  0
  -25.9250  -32.5810   23.8890 C   0  0  0  0  0  3  0  0  0  0  0  0
  -25.6200  -33.9840   24.2180 N   0  0  0  0  0  0  0  0  0  0  0  0
  -25.9310  -35.0390   23.4530 C   0  0  0  0  0  0  0  0  0  0  0  0
  -26.5680  -34.9320   22.4020 O   0  0  0  0  0  0  0  0  0  0  0  0
  -25.0500  -34.1390   25.0370 H   0  0  0  0  0  0  0  0  0  0  0  0
  -24.1850  -36.8310   23.1710 C   0  0  0  0  0  1  0  0  0  0  0  0
  -25.4630  -36.4300   23.9250 C   0  0  0  0  0  3  0  0  0  0  0  0
  -27.6270  -37.3320   24.6580 C   0  0  0  0  0  1  0  0  0  0  0  0
  -26.4870  -37.4850   23.7580 N   0  0  0  0  0  0  0  0  0  0  0  0
  -26.0840  -38.4060   23.9120 H   0  0  0  0  0  0  0  0  0  0  0  0
  -26.4290  -31.8180   25.1760 C   0  0  1  0  0  0  0  0  0  0  0  0
  -25.3300  -31.5980   26.2410 C   0  0  0  0  0  1  0  0  0  0  0  0
  -27.0050  -30.4320   24.8080 C   0  0  0  0  0  1  0  0  0  0  0  0
  -27.5810  -32.6110   25.8370 C   0  0  0  0  0  1  0  0  0  0  0  0
  2  5  2  0
  2  4  1  0
  3  7  1  0
  3  1  2  0
  4  6  2  0
  5  3  1  0
  6  1  1  0
  7 16  1  0
  8 16  1  0
  9 14  1  0
 10 11  1  0
 10  9  1  0
 12 11  1  0
 12 21  1  0
 12 13  1  0
 14  8  1  0
 14 13  1  0
 15  8  2  0
 16 17  1  0
 18 19  2  0
 19 38  1  0
 20 19  1  0
 20 23  1  0
 21 22  1  0
 21 18  1  0
 22 20  2  0
 23 24  1  0
 24 25  2  0
 26 29  1  0
 26 25  1  0
 27 26  2  0
 28 27  1  0
 28 23  2  0
 29 30  1  0
 30 31  1  0
 31 32  2  0
 33 32  1  0
 33 37  1  0
 34 33  2  0
 35 30  2  0
 35 34  1  0
 36 35  1  0
 38 39  1  0
 39 42  1  0
 39 41  1  0
 40 38  2  0
 43 44  1  0
 43 18  1  0
 45 43  1  0
 46  4  1  0
 46 47  1  0
 48 59  2  0
 49 47  1  0
 49 54  1  0
 50 58  1  0
 50 60  1  0
 51 57  1  0
 51 53  1  0
 52 58  1  0
 53 52  1  0
 54 53  2  0
 55 49  2  0
 56 55  1  0
 56 51  2  0
 57 50  1  0
 58 48  1  0
 60 62  2  0
 61 60  1  0
 63 61  1  0
 64 73  2  0
 64 69  1  0
 65 61  1  0
 65 69  1  0
 66 65  1  0
 67 68  1  0
 67 66  1  0
 68 64  1  0
 69 70  2  0
 70 71  1  0
 72 71  2  0
 73 72  1  0
 74 48  1  0
 74 75  1  0
 74 84  1  0
 75 78  1  0
 76 80  1  0
 76 75  1  0
 77 76  2  0
 80 79  1  0
 82 83  1  0
 82 80  1  0
 82 81  1  0
 84 87  1  1
 84 85  1  0
 86 84  1  0
M  ISO  4   8 100  16 100  46 101  47 101
M  END
>  <TORSDO>  (82) 
F 18

>  <SCORE>  (82) 
-15.801

>  <name>  (82) 
81

>  <ligand_id>  (82) 
81

>  <original_smiles>  (82) 
[H]c1nc(C([H])([H])N([H])C(=O)N2C([H])([H])C([H])([H])C([H])([H])C([H])(n3nc(-c4c([H])c([H])c(Oc5c([H])c([H])c(F)c([H])c5F)c([H])c4[H])c(C(=O)N([H])[H])c3N([H])[H])C2([H])[H])c([H])nc1C([H])([H])Oc1c([H])c([H])c2c(c1[H])C([H])([H])N(C(=O)C([H])(N([H])C(=O)C([H])(N([H])C([H])([H])[H])C([H])([H])[H])C(C([H])([H])[H])(C([H])([H])[H])C([H])([H])[H])C([H])(C(=O)N([H])C1([H])c3c([H])c([H])c([H])c([H])c3C([H])([H])C([H])([H])C1([H])[H])C2([H])[H]

>  <smiles>  (82) 
[H]c1nc(C([H])([H])N([H])C(=O)N2C([H])([H])C([H])([H])C([H])([H])C([H])(n3nc(-c4c([H])c([H])c(Oc5c([H])c([H])c(F)c([H])c5F)c([H])c4[H])c(C(=O)N([H])[H])c3N([H])[H])C2([H])[H])c([H])nc1C([H])([H])Oc1c([H])c([H])c2c(c1[H])C([H])([H])N(C(=O)C([H])(N([H])C(=O)C([H])(N([H])C([H])([H])[H])C([H])([H])[H])C(C([H])([H])[H])(C([H])([H])[H])C([H])([H])[H])C([H])(C(=O)N([H])C1([H])c3c([H])c([H])c([H])c([H])c3C([H])([H])C([H])([H])C1([H])[H])C2([H])[H]

$$$$
82:0:0
     RDKit          3D

 87 95  0  0  1  0  0  0  0  0999 V2000
  -30.3260  -15.6850   20.2700 C   0  0  0  0  0  0  0  0  0  0  0  0
  -30.4450  -13.1130   19.5470 C   0  0  0  0  0  2  0  0  0  0  0  0
  -29.5750  -12.6880   18.3290 C   0  0  0  0  0  2  0  0  0  0  0  0
  -28.1390  -12.3540   18.7640 C   0  0  0  0  0  2  0  0  0  0  0  0
  -27.6130  -13.3880   19.7860 C   0  0  0  0  0  3  0  0  0  0  0  0
  -28.6220  -13.7230   20.9110 C   0  0  0  0  0  2  0  0  0  0  0  0
  -29.8170  -14.3140   20.2640 N   0  0  0  0  0  0  0  0  0  0  0  0
  -31.5590  -15.6330   20.0840 O   0  0  0  0  0  0  0  0  0  0  0  0
  -27.8810  -20.9780   20.5590 C   0  0  0  0  0  3  0  0  0  0  0  0
  -28.1880  -19.4950   20.6400 C   0  0  0  0  0  3  0  0  0  0  0  0
  -28.6760  -22.1190   20.0440 C   0  0  0  0  0  0  0  0  0  0  0  0
  -29.8660  -21.2880   19.6360 C   0  0  0  0  0  0  0  0  0  0  0  0
  -29.3820  -18.7270   20.2280 C   0  0  0  0  0  0  0  0  0  0  0  0
  -30.9910  -22.0310   18.9450 C   0  0  0  0  0  1  0  0  0  0  0  0
  -30.1640  -19.8340   19.7380 N   0  0  0  0  0  0  0  0  0  0  0  0
  -29.5080  -17.0090   20.3370 N   0  0  0  0  0  0  0  0  0  0  0  0
  -28.5810  -16.6730   20.5440 H   0  0  0  0  0  0  0  0  0  0  0  0
  -25.2450  -13.9480   20.5120 C   0  0  0  0  0  0  0  0  0  0  0  0
  -24.1740  -13.1810   20.8710 C   0  0  0  0  0  0  0  0  0  0  0  0
  -24.6330  -11.8280   20.8560 C   0  0  0  0  0  0  0  0  0  0  0  0
  -26.2850  -13.0670   20.2880 N   0  0  0  0  0  0  0  0  0  0  0  0
  -25.9290  -11.7840   20.5630 N   0  0  0  0  0  0  0  0  0  0  0  0
  -23.8900  -10.5730   21.0420 C   0  0  0  0  0  0  0  0  0  0  0  0
  -24.3010   -9.6020   21.9810 C   0  0  0  0  0  3  0  0  0  0  0  0
  -23.5560   -8.4170   22.1590 C   0  0  0  0  0  3  0  0  0  0  0  0
  -22.3850   -8.1930   21.3960 C   0  0  0  0  0  0  0  0  0  0  0  0
  -21.9920   -9.1520   20.4470 C   0  0  0  0  0  3  0  0  0  0  0  0
  -22.7370  -10.3290   20.2680 C   0  0  0  0  0  3  0  0  0  0  0  0
  -21.6130   -7.0590   21.4830 O   0  0  0  0  0  0  0  0  0  0  0  0
  -21.5510   -6.3160   22.6340 C   0  0  0  0  0  0  0  0  0  0  0  0
  -21.1230   -6.8740   23.8580 C   0  0  0  0  0  3  0  0  0  0  0  0
  -21.0070   -6.0580   25.0020 C   0  0  0  0  0  3  0  0  0  0  0  0
  -21.3080   -4.6860   24.9220 C   0  0  0  0  0  0  0  0  0  0  0  0
  -21.7290   -4.1270   23.7020 C   0  0  0  0  0  3  0  0  0  0  0  0
  -21.8460   -4.9400   22.5620 C   0  0  0  0  0  0  0  0  0  0  0  0
  -22.2310   -4.3920   21.3840 F   0  0  0  0  0  0  0  0  0  0  0  0
  -21.1900   -3.9000   26.0180 F   0  0  0  0  0  0  0  0  0  0  0  0
  -22.7760  -13.6720   21.1090 C   0  0  0  0  0  0  0  0  0  0  0  0
  -22.0300  -12.9990   21.9750 N   0  0  0  0  0  0  0  0  0  0  0  0
  -22.3570  -14.6920   20.5620 O   0  0  0  0  0  0  0  0  0  0  0  0
  -22.3840  -12.1730   22.4380 H   0  0  0  0  0  0  0  0  0  0  0  0
  -21.0910  -13.3120   22.1810 H   0  0  0  0  0  0  0  0  0  0  0  0
  -25.4150  -15.3160   20.3220 N   0  0  0  0  0  0  0  0  0  0  0  0
  -24.6340  -15.9610   20.3880 H   0  0  0  0  0  0  0  0  0  0  0  0
  -26.2440  -15.7410   19.9300 H   0  0  0  0  0  0  0  0  0  0  0  0
  -28.0330  -23.8530   19.7190 C   0  0  0  0  0  2  0  0  0  0  0  0
  -28.2610  -25.5590   20.0530 O   0  0  0  0  0  0  0  0  0  0  0  0
  -24.6900  -31.7730   23.0350 C   0  0  0  0  0  0  0  0  0  0  0  0
  -27.2900  -26.7720   19.9810 C   0  0  0  0  0  0  0  0  0  0  0  0
  -23.5220  -30.3830   21.3760 C   0  0  0  0  0  3  0  0  0  0  0  0
  -24.9940  -28.7740   19.9440 C   0  0  0  0  0  0  0  0  0  0  0  0
  -26.0980  -30.5600   21.2640 C   0  0  0  0  0  2  0  0  0  0  0  0
  -26.1830  -29.1370   20.5880 C   0  0  0  0  0  0  0  0  0  0  0  0
  -27.3130  -28.1630   20.5780 C   0  0  0  0  0  3  0  0  0  0  0  0
  -26.0670  -26.6230   19.2760 C   0  0  0  0  0  3  0  0  0  0  0  0
  -24.9760  -27.5430   19.2640 C   0  0  0  0  0  3  0  0  0  0  0  0
  -23.7730  -29.7060   19.9970 C   0  0  0  0  0  2  0  0  0  0  0  0
  -24.7940  -30.9380   21.9440 N   0  0  0  0  0  0  0  0  0  0  0  0
  -23.5920  -32.0520   23.5460 O   0  0  0  0  0  0  0  0  0  0  0  0
  -22.8160  -29.3850   22.3330 C   0  0  0  0  0  0  0  0  0  0  0  0
  -21.4790  -29.2490   22.2330 N   0  0  0  0  0  0  0  0  0  0  0  0
  -23.4830  -28.7310   23.1390 O   0  0  0  0  0  0  0  0  0  0  0  0
  -20.9910  -29.8220   21.5600 H   0  0  0  0  0  0  0  0  0  0  0  0
  -18.0840  -28.0980   22.8300 C   0  0  0  0  0  0  0  0  0  0  0  0
  -20.6600  -28.3010   23.0000 C   0  0  0  0  0  3  0  0  0  0  0  0
  -20.7040  -26.8910   22.3640 C   0  0  0  0  0  2  0  0  0  0  0  0
  -19.5560  -26.6380   21.3810 C   0  0  0  0  0  2  0  0  0  0  0  0
  -18.2040  -26.7800   22.0840 C   0  0  0  0  0  2  0  0  0  0  0  0
  -19.2360  -28.8200   23.2460 C   0  0  0  0  0  0  0  0  0  0  0  0
  -19.0650  -30.0540   23.9100 C   0  0  0  0  0  3  0  0  0  0  0  0
  -17.7780  -30.5660   24.1590 C   0  0  0  0  0  3  0  0  0  0  0  0
  -16.6430  -29.8430   23.7540 C   0  0  0  0  0  3  0  0  0  0  0  0
  -16.7970  -28.6100   23.0960 C   0  0  0  0  0  3  0  0  0  0  0  0
  -25.9430  -32.4310   23.6850 C   0  0  0  0  0  3  0  0  0  0  0  0
  -25.5960  -33.8170   24.0560 N   0  0  0  0  0  0  0  0  0  0  0  0
  -25.8990  -34.9080   23.3390 C   0  0  0  0  0  0  0  0  0  0  0  0
  -26.5590  -34.8530   22.2980 O   0  0  0  0  0  0  0  0  0  0  0  0
  -25.0050  -33.9290   24.8670 H   0  0  0  0  0  0  0  0  0  0  0  0
  -24.1300  -36.6860   23.0840 C   0  0  0  0  0  1  0  0  0  0  0  0
  -25.3960  -36.2740   23.8540 C   0  0  0  0  0  3  0  0  0  0  0  0
  -27.5280  -37.1820   24.6760 C   0  0  0  0  0  1  0  0  0  0  0  0
  -26.4060  -37.3520   23.7540 N   0  0  0  0  0  0  0  0  0  0  0  0
  -25.9850  -38.2580   23.9330 H   0  0  0  0  0  0  0  0  0  0  0  0
  -26.4580  -31.6520   24.9600 C   0  0  1  0  0  0  0  0  0  0  0  0
  -25.3600  -31.3950   26.0190 C   0  0  0  0  0  1  0  0  0  0  0  0
  -27.0590  -30.2830   24.5720 C   0  0  0  0  0  1  0  0  0  0  0  0
  -27.5950  -32.4520   25.6380 C   0  0  0  0  0  1  0  0  0  0  0  0
  1 16  1  0
  2  7  1  0
  3  4  1  0
  3  2  1  0
  5  4  1  0
  5 21  1  0
  5  6  1  0
  7  1  1  0
  7  6  1  0
  8  1  2  0
  9 10  1  0
 11  9  2  0
 12 15  2  0
 12 11  1  0
 13 16  1  0
 13 10  2  0
 14 12  1  0
 15 13  1  0
 16 17  1  0
 18 19  2  0
 19 38  1  0
 20 19  1  0
 20 23  1  0
 21 18  1  0
 21 22  1  0
 22 20  2  0
 23 24  1  0
 24 25  2  0
 26 29  1  0
 26 25  1  0
 27 26  2  0
 28 27  1  0
 28 23  2  0
 29 30  1  0
 30 31  1  0
 31 32  2  0
 33 32  1  0
 33 37  1  0
 34 33  2  0
 35 30  2  0
 35 34  1  0
 36 35  1  0
 38 39  1  0
 39 42  1  0
 39 41  1  0
 40 38  2  0
 43 44  1  0
 43 18  1  0
 45 43  1  0
 46 11  1  0
 46 47  1  0
 48 59  2  0
 49 47  1  0
 49 54  1  0
 50 58  1  0
 50 60  1  0
 51 57  1  0
 51 53  1  0
 52 58  1  0
 53 52  1  0
 54 53  2  0
 55 49  2  0
 56 55  1  0
 56 51  2  0
 57 50  1  0
 58 48  1  0
 60 62  2  0
 61 60  1  0
 63 61  1  0
 64 73  2  0
 64 69  1  0
 65 61  1  0
 65 69  1  0
 66 65  1  0
 67 68  1  0
 67 66  1  0
 68 64  1  0
 69 70  2  0
 70 71  1  0
 72 71  2  0
 73 72  1  0
 74 48  1  0
 74 75  1  0
 74 84  1  0
 75 78  1  0
 76 80  1  0
 76 75  1  0
 77 76  2  0
 80 79  1  0
 82 80  1  0
 82 83  1  0
 82 81  1  0
 84 87  1  1
 84 85  1  0
 86 84  1  0
M  ISO  4   1 100  16 100  46 101  47 101
M  END
>  <TORSDO>  (83) 
F 16

>  <SCORE>  (83) 
-16.119

>  <name>  (83) 
82

>  <ligand_id>  (83) 
82

>  <original_smiles>  (83) 
[H]c1c(N([H])C(=O)N2C([H])([H])C([H])([H])C([H])([H])C([H])(n3nc(-c4c([H])c([H])c(Oc5c([H])c([H])c(F)c([H])c5F)c([H])c4[H])c(C(=O)N([H])[H])c3N([H])[H])C2([H])[H])nc(C([H])([H])[H])c(C([H])([H])Oc2c([H])c([H])c3c(c2[H])C([H])([H])N(C(=O)C([H])(N([H])C(=O)C([H])(N([H])C([H])([H])[H])C([H])([H])[H])C(C([H])([H])[H])(C([H])([H])[H])C([H])([H])[H])C([H])(C(=O)N([H])C2([H])c4c([H])c([H])c([H])c([H])c4C([H])([H])C([H])([H])C2([H])[H])C3([H])[H])c1[H]

>  <smiles>  (83) 
[H]c1c(N([H])C(=O)N2C([H])([H])C([H])([H])C([H])([H])C([H])(n3nc(-c4c([H])c([H])c(Oc5c([H])c([H])c(F)c([H])c5F)c([H])c4[H])c(C(=O)N([H])[H])c3N([H])[H])C2([H])[H])nc(C([H])([H])[H])c(C([H])([H])Oc2c([H])c([H])c3c(c2[H])C([H])([H])N(C(=O)C([H])(N([H])C(=O)C([H])(N([H])C([H])([H])[H])C([H])([H])[H])C(C([H])([H])[H])(C([H])([H])[H])C([H])([H])[H])C([H])(C(=O)N([H])C2([H])c4c([H])c([H])c([H])c([H])c4C([H])([H])C([H])([H])C2([H])[H])C3([H])[H])c1[H]

$$$$
83:0:0
     RDKit          3D

 94103  0  0  1  0  0  0  0  0999 V2000
  -28.8290  -23.3700   19.7370 C   0  0  0  0  0  0  0  0  0  0  0  0
  -28.3450  -22.0270   19.6140 C   0  0  0  0  0  0  0  0  0  0  0  0
  -30.1600  -22.9960   20.1310 C   0  0  0  0  0  0  0  0  0  0  0  0
  -32.3820  -23.5540   21.0260 C   0  0  0  0  0  1  0  0  0  0  0  0
  -30.4290  -21.6680   20.2460 N   0  0  0  0  0  0  0  0  0  0  0  0
  -29.3000  -20.9660   19.9400 N   0  0  0  0  0  0  0  0  0  0  0  0
  -31.1420  -23.9570   20.3740 N   0  0  0  0  0  0  0  0  0  0  0  0
  -30.8760  -24.9380   20.3740 H   0  0  0  0  0  0  0  0  0  0  0  0
  -29.9230  -18.8280   21.2300 C   0  0  0  0  0  2  0  0  0  0  0  0
  -29.1610  -19.3530   20.0360 C   0  0  0  0  0  3  0  0  0  0  0  0
  -30.2380  -18.0430   19.9750 C   0  0  0  0  0  3  0  0  0  0  0  0
  -30.7390  -15.3100   19.8510 C   0  0  0  0  0  0  0  0  0  0  0  0
  -30.5910  -12.9350   18.9420 C   0  0  0  0  0  2  0  0  0  0  0  0
  -29.5830  -12.8520   17.7720 C   0  0  0  0  0  2  0  0  0  0  0  0
  -28.1520  -12.6290   18.2980 C   0  0  0  0  0  2  0  0  0  0  0  0
  -27.8080  -13.5650   19.4850 C   0  0  0  0  0  3  0  0  0  0  0  0
  -28.9320  -13.6100   20.5430 C   0  0  0  0  0  2  0  0  0  0  0  0
  -30.1550  -14.0390   19.8490 N   0  0  0  0  0  0  0  0  0  0  0  0
  -31.9190  -15.3760   19.4890 O   0  0  0  0  0  0  0  0  0  0  0  0
  -29.9620  -16.4930   20.0760 N   0  0  0  0  0  0  0  0  0  0  0  0
  -29.0080  -16.2740   20.3190 H   0  0  0  0  0  0  0  0  0  0  0  0
  -25.5010  -14.1390   20.4250 C   0  0  0  0  0  0  0  0  0  0  0  0
  -24.4530  -13.3620   20.8370 C   0  0  0  0  0  0  0  0  0  0  0  0
  -24.8920  -12.0080   20.7120 C   0  0  0  0  0  0  0  0  0  0  0  0
  -26.5070  -13.2580   20.0690 N   0  0  0  0  0  0  0  0  0  0  0  0
  -26.1570  -11.9680   20.3080 N   0  0  0  0  0  0  0  0  0  0  0  0
  -24.1590  -10.7470   20.8970 C   0  0  0  0  0  0  0  0  0  0  0  0
  -24.5580   -9.7950   21.8600 C   0  0  0  0  0  3  0  0  0  0  0  0
  -23.8240   -8.6020   22.0330 C   0  0  0  0  0  3  0  0  0  0  0  0
  -22.6770   -8.3520   21.2420 C   0  0  0  0  0  0  0  0  0  0  0  0
  -22.2970   -9.2940   20.2690 C   0  0  0  0  0  3  0  0  0  0  0  0
  -23.0320  -10.4780   20.0950 C   0  0  0  0  0  3  0  0  0  0  0  0
  -21.9180   -7.2090   21.3220 O   0  0  0  0  0  0  0  0  0  0  0  0
  -21.7240   -6.5560   22.5120 C   0  0  0  0  0  0  0  0  0  0  0  0
  -21.0990   -7.1810   23.6130 C   0  0  0  0  0  3  0  0  0  0  0  0
  -20.8590   -6.4510   24.7940 C   0  0  0  0  0  3  0  0  0  0  0  0
  -21.2320   -5.0970   24.8740 C   0  0  0  0  0  0  0  0  0  0  0  0
  -21.8500   -4.4710   23.7770 C   0  0  0  0  0  3  0  0  0  0  0  0
  -22.0920   -5.1980   22.5980 C   0  0  0  0  0  0  0  0  0  0  0  0
  -22.6690   -4.5840   21.5370 F   0  0  0  0  0  0  0  0  0  0  0  0
  -20.9950   -4.3920   26.0050 F   0  0  0  0  0  0  0  0  0  0  0  0
  -23.0870  -13.8450   21.2280 C   0  0  0  0  0  0  0  0  0  0  0  0
  -22.4130  -13.1230   22.1150 N   0  0  0  0  0  0  0  0  0  0  0  0
  -22.6310  -14.8970   20.7820 O   0  0  0  0  0  0  0  0  0  0  0  0
  -22.7970  -12.2710   22.4940 H   0  0  0  0  0  0  0  0  0  0  0  0
  -21.5000  -13.4280   22.4200 H   0  0  0  0  0  0  0  0  0  0  0  0
  -25.6710  -15.5140   20.2960 N   0  0  0  0  0  0  0  0  0  0  0  0
  -24.9140  -16.1640   20.4800 H   0  0  0  0  0  0  0  0  0  0  0  0
  -26.4760  -15.9540   19.8720 H   0  0  0  0  0  0  0  0  0  0  0  0
  -26.6410  -21.7540   17.7210 C   0  0  0  0  0  1  0  0  0  0  0  0
  -25.8890  -22.3460   20.0670 C   0  0  0  0  0  1  0  0  0  0  0  0
  -26.9450  -21.6200   19.2220 C   0  0  0  0  0  3  0  0  0  0  0  0
  -28.0490  -24.8370   19.4320 C   0  0  0  0  0  2  0  0  0  0  0  0
  -28.3570  -26.3350   19.8150 O   0  0  0  0  0  0  0  0  0  0  0  0
  -24.5540  -31.7900   23.1160 C   0  0  0  0  0  0  0  0  0  0  0  0
  -27.2900  -27.3310   19.7960 C   0  0  0  0  0  0  0  0  0  0  0  0
  -23.3960  -30.4330   21.4190 C   0  0  0  0  0  3  0  0  0  0  0  0
  -24.8920  -29.0080   19.8890 C   0  0  0  0  0  0  0  0  0  0  0  0
  -25.9390  -30.8080   21.2450 C   0  0  0  0  0  2  0  0  0  0  0  0
  -26.0630  -29.4570   20.5130 C   0  0  0  0  0  0  0  0  0  0  0  0
  -27.2600  -28.6360   20.4520 C   0  0  0  0  0  3  0  0  0  0  0  0
  -26.0850  -27.0100   19.1260 C   0  0  0  0  0  3  0  0  0  0  0  0
  -24.9180  -27.8010   19.1800 C   0  0  0  0  0  3  0  0  0  0  0  0
  -23.6290  -29.8470   20.0020 C   0  0  0  0  0  2  0  0  0  0  0  0
  -24.6500  -31.0310   21.9810 N   0  0  0  0  0  0  0  0  0  0  0  0
  -23.4620  -31.9960   23.6690 O   0  0  0  0  0  0  0  0  0  0  0  0
  -22.7750  -29.3460   22.3320 C   0  0  0  0  0  0  0  0  0  0  0  0
  -21.4570  -29.1070   22.1970 N   0  0  0  0  0  0  0  0  0  0  0  0
  -23.4800  -28.7220   23.1280 O   0  0  0  0  0  0  0  0  0  0  0  0
  -20.9410  -29.6650   21.5330 H   0  0  0  0  0  0  0  0  0  0  0  0
  -18.1480  -27.7010   22.6560 C   0  0  0  0  0  0  0  0  0  0  0  0
  -20.6920  -28.0900   22.9250 C   0  0  0  0  0  3  0  0  0  0  0  0
  -20.8660  -26.6950   22.2820 C   0  0  0  0  0  2  0  0  0  0  0  0
  -19.7770  -26.3610   21.2580 C   0  0  0  0  0  2  0  0  0  0  0  0
  -18.3930  -26.3990   21.9120 C   0  0  0  0  0  2  0  0  0  0  0  0
  -19.2260  -28.5020   23.1170 C   0  0  0  0  0  0  0  0  0  0  0  0
  -18.9410  -29.7190   23.7750 C   0  0  0  0  0  3  0  0  0  0  0  0
  -17.6100  -30.1360   23.9730 C   0  0  0  0  0  3  0  0  0  0  0  0
  -16.5470  -29.3320   23.5250 C   0  0  0  0  0  3  0  0  0  0  0  0
  -16.8170  -28.1160   22.8730 C   0  0  0  0  0  3  0  0  0  0  0  0
  -25.8090  -32.4520   23.7620 C   0  0  0  0  0  3  0  0  0  0  0  0
  -26.3120  -31.6940   25.0520 C   0  0  1  0  0  0  0  0  0  0  0  0
  -25.2010  -31.4360   26.0960 C   0  0  0  0  0  1  0  0  0  0  0  0
  -26.9340  -30.3280   24.6820 C   0  0  0  0  0  1  0  0  0  0  0  0
  -27.4320  -32.5150   25.7350 C   0  0  0  0  0  1  0  0  0  0  0  0
  -25.4630  -33.8440   24.0900 N   0  0  0  0  0  0  0  0  0  0  0  0
  -25.7470  -34.9050   23.3210 C   0  0  0  0  0  0  0  0  0  0  0  0
  -26.3930  -34.8140   22.2730 O   0  0  0  0  0  0  0  0  0  0  0  0
  -24.8860  -33.9850   24.9060 H   0  0  0  0  0  0  0  0  0  0  0  0
  -23.9470  -36.6390   23.0320 C   0  0  0  0  0  1  0  0  0  0  0  0
  -25.2370  -36.2830   23.7880 C   0  0  0  0  0  3  0  0  0  0  0  0
  -27.3660  -37.2580   24.5250 C   0  0  0  0  0  1  0  0  0  0  0  0
  -26.2270  -37.3680   23.6170 N   0  0  0  0  0  0  0  0  0  0  0  0
  -25.7940  -38.2770   23.7580 H   0  0  0  0  0  0  0  0  0  0  0  0
  1  3  1  0
  2  1  2  0
  2  6  1  0
  3  5  2  0
  3  7  1  0
  6  5  1  0
  7  8  1  0
  7  4  1  0
 10  6  1  0
 10  9  1  0
 11 10  1  0
 11 20  1  0
 11  9  1  0
 12 20  1  0
 13 18  1  0
 14 15  1  0
 14 13  1  0
 16 15  1  0
 16 25  1  0
 16 17  1  0
 18 12  1  0
 18 17  1  0
 19 12  2  0
 20 21  1  0
 22 23  2  0
 23 42  1  0
 24 23  1  0
 24 27  1  0
 25 26  1  0
 25 22  1  0
 26 24  2  0
 27 28  1  0
 28 29  2  0
 30 33  1  0
 30 29  1  0
 31 30  2  0
 32 31  1  0
 32 27  2  0
 33 34  1  0
 34 39  2  0
 34 35  1  0
 35 36  2  0
 36 37  1  0
 37 41  1  0
 38 37  2  0
 39 38  1  0
 40 39  1  0
 42 43  1  0
 43 46  1  0
 43 45  1  0
 44 42  2  0
 47 22  1  0
 47 48  1  0
 49 47  1  0
 50 52  1  0
 52  2  1  0
 52 51  1  0
 53  1  1  0
 53 54  1  0
 55 66  2  0
 56 54  1  0
 56 61  1  0
 57 65  1  0
 57 67  1  0
 58 64  1  0
 58 60  1  0
 59 65  1  0
 60 59  1  0
 61 60  2  0
 62 63  1  0
 62 56  2  0
 63 58  2  0
 64 57  1  0
 65 55  1  0
 67 69  2  0
 68 67  1  0
 70 68  1  0
 71 80  2  0
 71 76  1  0
 72 68  1  0
 72 76  1  0
 73 72  1  0
 74 75  1  0
 74 73  1  0
 75 71  1  0
 76 77  2  0
 77 78  1  0
 79 78  2  0
 80 79  1  0
 81 55  1  0
 81 86  1  0
 81 82  1  0
 82 85  1  1
 82 83  1  0
 84 82  1  0
 86 89  1  0
 87 91  1  0
 87 86  1  0
 88 87  2  0
 91 90  1  0
 93 94  1  0
 93 91  1  0
 93 92  1  0
M  ISO  4  12 100  20 100  53 101  54 101
M  END
>  <TORSDO>  (84) 
F 19

>  <SCORE>  (84) 
-12.272

>  <name>  (84) 
83

>  <ligand_id>  (84) 
83

>  <original_smiles>  (84) 
[H]c1c([H])c([H])c2c(c1[H])C([H])([H])C([H])([H])C([H])([H])C2([H])N([H])C(=O)C1([H])N(C(=O)C([H])(N([H])C(=O)C([H])(N([H])C([H])([H])[H])C([H])([H])[H])C(C([H])([H])[H])(C([H])([H])[H])C([H])([H])[H])C([H])([H])c2c([H])c(OC([H])([H])c3c(N([H])C([H])([H])[H])nn(C4([H])C([H])([H])C4([H])N([H])C(=O)N4C([H])([H])C([H])([H])C([H])([H])C([H])(n5nc(-c6c([H])c([H])c(Oc7c([H])c([H])c(F)c([H])c7F)c([H])c6[H])c(C(=O)N([H])[H])c5N([H])[H])C4([H])[H])c3C([H])(C([H])([H])[H])C([H])([H])[H])c([H])c([H])c2C1([H])[H]

>  <smiles>  (84) 
[H]c1c([H])c([H])c2c(c1[H])C([H])([H])C([H])([H])C([H])([H])C2([H])N([H])C(=O)C1([H])N(C(=O)C([H])(N([H])C(=O)C([H])(N([H])C([H])([H])[H])C([H])([H])[H])C(C([H])([H])[H])(C([H])([H])[H])C([H])([H])[H])C([H])([H])c2c([H])c(OC([H])([H])c3c(N([H])C([H])([H])[H])nn(C4([H])C([H])([H])C4([H])N([H])C(=O)N4C([H])([H])C([H])([H])C([H])([H])C([H])(n5nc(-c6c([H])c([H])c(Oc7c([H])c([H])c(F)c([H])c7F)c([H])c6[H])c(C(=O)N([H])[H])c5N([H])[H])C4([H])[H])c3C([H])(C([H])([H])[H])C([H])([H])[H])c([H])c([H])c2C1([H])[H]

$$$$
84:0:0
     RDKit          3D

 95105  0  0  1  0  0  0  0  0999 V2000
  -27.0490  -22.1220   20.4350 C   0  0  0  0  0  2  0  0  0  0  0  0
  -27.0600  -23.2770   18.3770 C   0  0  0  0  0  2  0  0  0  0  0  0
  -28.4560  -22.7370   20.3650 C   0  0  0  0  0  3  0  0  0  0  0  0
  -28.3520  -23.7280   19.1040 C   0  0  0  0  0  3  0  0  0  0  0  0
  -26.5750  -22.0620   19.0480 N   0  0  0  0  0  4  0  0  0  0  0  0
  -25.5690  -21.9960   19.0040 H   0  0  0  0  0  0  0  0  0  0  0  0
  -26.9660  -21.2490   18.6000 H   0  0  0  0  0  0  0  0  0  0  0  0
  -29.4780  -19.2580   18.8140 C   0  0  0  0  0  3  0  0  0  0  0  0
  -29.6660  -17.8410   19.0360 C   0  0  0  0  0  3  0  0  0  0  0  0
  -29.8950  -18.1210   21.4680 C   0  0  0  0  0  3  0  0  0  0  0  0
  -29.4470  -20.0960   19.9480 C   0  0  0  0  0  0  0  0  0  0  0  0
  -29.7020  -19.5070   21.2260 C   0  0  0  0  0  0  0  0  0  0  0  0
  -29.8650  -17.2360   20.3350 C   0  0  0  0  0  0  0  0  0  0  0  0
  -29.8240  -20.8730   21.8720 C   0  0  0  0  0  2  0  0  0  0  0  0
  -29.5930  -21.5880   20.4300 C   0  0  0  0  0  3  0  0  0  0  0  0
  -30.6290  -14.7500   19.9660 C   0  0  0  0  0  0  0  0  0  0  0  0
  -30.4030  -12.4830   18.9360 C   0  0  0  0  0  2  0  0  0  0  0  0
  -29.3890  -12.5810   17.7730 C   0  0  0  0  0  2  0  0  0  0  0  0
  -27.9460  -12.4030   18.2850 C   0  0  0  0  0  2  0  0  0  0  0  0
  -27.6530  -13.2730   19.5360 C   0  0  0  0  0  3  0  0  0  0  0  0
  -28.7730  -13.1390   20.5920 C   0  0  0  0  0  2  0  0  0  0  0  0
  -30.0430  -13.5050   19.9440 N   0  0  0  0  0  0  0  0  0  0  0  0
  -31.7260  -14.9350   19.4270 O   0  0  0  0  0  0  0  0  0  0  0  0
  -29.9100  -15.7740   20.5440 N   0  0  0  0  0  0  0  0  0  0  0  0
  -29.1840  -15.4270   21.1540 H   0  0  0  0  0  0  0  0  0  0  0  0
  -25.3200  -13.8710   20.4320 C   0  0  0  0  0  0  0  0  0  0  0  0
  -24.2700  -13.0950   20.8440 C   0  0  0  0  0  0  0  0  0  0  0  0
  -24.7090  -11.7410   20.7290 C   0  0  0  0  0  0  0  0  0  0  0  0
  -26.3350  -12.9870   20.0970 N   0  0  0  0  0  0  0  0  0  0  0  0
  -25.9760  -11.6990   20.3350 N   0  0  0  0  0  0  0  0  0  0  0  0
  -23.9790  -10.4800   20.9200 C   0  0  0  0  0  0  0  0  0  0  0  0
  -24.4160   -9.5060   21.8440 C   0  0  0  0  0  3  0  0  0  0  0  0
  -23.6870   -8.3120   22.0250 C   0  0  0  0  0  3  0  0  0  0  0  0
  -22.5050   -8.0820   21.2800 C   0  0  0  0  0  0  0  0  0  0  0  0
  -22.0850   -9.0450   20.3440 C   0  0  0  0  0  3  0  0  0  0  0  0
  -22.8170  -10.2320   20.1620 C   0  0  0  0  0  3  0  0  0  0  0  0
  -21.7460   -6.9410   21.3700 O   0  0  0  0  0  0  0  0  0  0  0  0
  -21.6410   -6.2350   22.5420 C   0  0  0  0  0  0  0  0  0  0  0  0
  -21.1500   -6.8280   23.7260 C   0  0  0  0  0  3  0  0  0  0  0  0
  -20.9950   -6.0500   24.8910 C   0  0  0  0  0  3  0  0  0  0  0  0
  -21.3170   -4.6790   24.8720 C   0  0  0  0  0  0  0  0  0  0  0  0
  -21.7990   -4.0860   23.6920 C   0  0  0  0  0  3  0  0  0  0  0  0
  -21.9570   -4.8620   22.5290 C   0  0  0  0  0  0  0  0  0  0  0  0
  -22.4010   -4.2800   21.3890 F   0  0  0  0  0  0  0  0  0  0  0  0
  -21.1610   -3.9300   25.9880 F   0  0  0  0  0  0  0  0  0  0  0  0
  -22.9020  -13.5780   21.2300 C   0  0  0  0  0  0  0  0  0  0  0  0
  -22.2280  -12.8620   22.1230 N   0  0  0  0  0  0  0  0  0  0  0  0
  -22.4410  -14.6220   20.7740 O   0  0  0  0  0  0  0  0  0  0  0  0
  -22.6120  -12.0120   22.5120 H   0  0  0  0  0  0  0  0  0  0  0  0
  -21.3130  -13.1670   22.4240 H   0  0  0  0  0  0  0  0  0  0  0  0
  -25.4940  -15.2450   20.2980 N   0  0  0  0  0  0  0  0  0  0  0  0
  -24.7500  -15.9100   20.4800 H   0  0  0  0  0  0  0  0  0  0  0  0
  -26.3370  -15.6830   19.9450 H   0  0  0  0  0  0  0  0  0  0  0  0
  -28.5330  -25.3580   19.0150 C   0  0  0  0  0  2  0  0  0  0  0  0
  -28.2590  -26.4750   19.9580 O   0  0  0  0  0  0  0  0  0  0  0  0
  -24.5180  -31.7760   23.1350 C   0  0  0  0  0  0  0  0  0  0  0  0
  -27.1480  -27.3350   19.8800 C   0  0  0  0  0  0  0  0  0  0  0  0
  -23.3130  -30.4130   21.4660 C   0  0  0  0  0  3  0  0  0  0  0  0
  -24.7660  -28.9310   19.9640 C   0  0  0  0  0  0  0  0  0  0  0  0
  -25.8490  -30.7660   21.2640 C   0  0  0  0  0  2  0  0  0  0  0  0
  -25.9350  -29.4100   20.5640 C   0  0  0  0  0  0  0  0  0  0  0  0
  -27.1240  -28.6180   20.5240 C   0  0  0  0  0  3  0  0  0  0  0  0
  -25.9550  -26.9200   19.2510 C   0  0  0  0  0  3  0  0  0  0  0  0
  -24.7770  -27.6910   19.3030 C   0  0  0  0  0  3  0  0  0  0  0  0
  -23.5190  -29.7900   20.0590 C   0  0  0  0  0  2  0  0  0  0  0  0
  -24.5790  -31.0020   22.0100 N   0  0  0  0  0  0  0  0  0  0  0  0
  -23.4380  -32.0180   23.6930 O   0  0  0  0  0  0  0  0  0  0  0  0
  -22.6810  -29.3540   22.4030 C   0  0  0  0  0  0  0  0  0  0  0  0
  -21.3630  -29.1340   22.2680 N   0  0  0  0  0  0  0  0  0  0  0  0
  -23.3760  -28.7340   23.2130 O   0  0  0  0  0  0  0  0  0  0  0  0
  -20.8590  -29.6900   21.5900 H   0  0  0  0  0  0  0  0  0  0  0  0
  -18.0340  -27.7790   22.7010 C   0  0  0  0  0  0  0  0  0  0  0  0
  -20.5730  -28.1550   23.0170 C   0  0  0  0  0  3  0  0  0  0  0  0
  -20.7500  -26.7330   22.4360 C   0  0  0  0  0  2  0  0  0  0  0  0
  -19.6830  -26.3670   21.3990 C   0  0  0  0  0  2  0  0  0  0  0  0
  -18.2850  -26.4440   22.0180 C   0  0  0  0  0  2  0  0  0  0  0  0
  -19.1090  -28.5880   23.1550 C   0  0  0  0  0  0  0  0  0  0  0  0
  -18.8220  -29.8340   23.7530 C   0  0  0  0  0  3  0  0  0  0  0  0
  -17.4930  -30.2750   23.8980 C   0  0  0  0  0  3  0  0  0  0  0  0
  -16.4320  -29.4630   23.4580 C   0  0  0  0  0  3  0  0  0  0  0  0
  -16.7040  -28.2160   22.8660 C   0  0  0  0  0  3  0  0  0  0  0  0
  -25.7980  -32.4140   23.7580 C   0  0  0  0  0  3  0  0  0  0  0  0
  -25.4690  -33.7970   24.1310 N   0  0  0  0  0  0  0  0  0  0  0  0
  -25.7610  -34.8760   23.3910 C   0  0  0  0  0  0  0  0  0  0  0  0
  -26.4050  -34.8130   22.3410 O   0  0  0  0  0  0  0  0  0  0  0  0
  -24.8930  -33.9210   24.9510 H   0  0  0  0  0  0  0  0  0  0  0  0
  -23.9860  -36.6400   23.1390 C   0  0  0  0  0  1  0  0  0  0  0  0
  -25.2610  -36.2430   23.9000 C   0  0  0  0  0  3  0  0  0  0  0  0
  -27.4030  -37.1530   24.6840 C   0  0  0  0  0  1  0  0  0  0  0  0
  -26.2680  -37.3210   23.7790 N   0  0  0  0  0  0  0  0  0  0  0  0
  -25.8480  -38.2290   23.9620 H   0  0  0  0  0  0  0  0  0  0  0  0
  -26.3420  -31.6210   25.0080 C   0  0  1  0  0  0  0  0  0  0  0  0
  -25.2690  -31.3400   26.0850 C   0  0  0  0  0  1  0  0  0  0  0  0
  -26.9410  -30.2610   24.5770 C   0  0  0  0  0  1  0  0  0  0  0  0
  -27.4910  -32.4170   25.6730 C   0  0  0  0  0  1  0  0  0  0  0  0
  2  5  1  0
  2  4  1  0
  3 15  1  0
  3  1  1  0
  4 54  1  0
  4  3  1  0
  5  1  1  0
  6  5  1  0
  7  5  1  0
  8  9  2  0
  8 11  1  0
  9 13  1  0
 11 15  1  0
 11 12  2  0
 12 10  1  0
 12 14  1  0
 13 24  1  0
 13 10  2  0
 15 14  1  0
 16 24  1  0
 17 22  1  0
 18 19  1  0
 18 17  1  0
 20 19  1  0
 20 29  1  0
 20 21  1  0
 22 16  1  0
 22 21  1  0
 23 16  2  0
 24 25  1  0
 26 27  2  0
 27 46  1  0
 28 27  1  0
 28 31  1  0
 29 30  1  0
 29 26  1  0
 30 28  2  0
 31 32  1  0
 32 33  2  0
 34 37  1  0
 34 33  1  0
 35 34  2  0
 36 35  1  0
 36 31  2  0
 37 38  1  0
 38 39  1  0
 39 40  2  0
 41 40  1  0
 41 45  1  0
 42 41  2  0
 43 38  2  0
 43 42  1  0
 44 43  1  0
 46 47  1  0
 47 50  1  0
 47 49  1  0
 48 46  2  0
 51 26  1  0
 51 52  1  0
 53 51  1  0
 54 55  1  0
 56 67  2  0
 57 55  1  0
 57 62  1  0
 58 66  1  0
 58 68  1  0
 59 65  1  0
 59 61  1  0
 60 66  1  0
 61 60  1  0
 62 61  2  0
 63 64  1  0
 63 57  2  0
 64 59  2  0
 65 58  1  0
 66 56  1  0
 68 70  2  0
 69 68  1  0
 71 69  1  0
 72 81  2  0
 72 77  1  0
 73 69  1  0
 73 77  1  0
 74 73  1  0
 75 76  1  0
 75 74  1  0
 76 72  1  0
 77 78  2  0
 78 79  1  0
 80 79  2  0
 81 80  1  0
 82 56  1  0
 82 83  1  0
 82 92  1  0
 83 86  1  0
 84 88  1  0
 84 83  1  0
 85 84  2  0
 88 87  1  0
 90 88  1  0
 90 91  1  0
 90 89  1  0
 92 95  1  1
 92 93  1  0
 94 92  1  0
M  ISO  4  16 100  24 100  54 101  55 101
M  END
>  <TORSDO>  (85) 
F 18

>  <SCORE>  (85) 
-14.104

>  <name>  (85) 
84

>  <ligand_id>  (85) 
84

>  <original_smiles>  (85) 
[H]c1c([H])c([H])c2c(c1[H])C([H])([H])C([H])([H])C([H])([H])C2([H])N([H])C(=O)C1([H])N(C(=O)C([H])(N([H])C(=O)C([H])(N([H])C([H])([H])[H])C([H])([H])[H])C(C([H])([H])[H])(C([H])([H])[H])C([H])([H])[H])C([H])([H])c2c([H])c(OC([H])([H])C3([H])C([H])(C4([H])c5c([H])c([H])c(N([H])C(=O)N6C([H])([H])C([H])([H])C([H])([H])C([H])(n7nc(-c8c([H])c([H])c(Oc9c([H])c([H])c(F)c([H])c9F)c([H])c8[H])c(C(=O)N([H])[H])c7N([H])[H])C6([H])[H])c([H])c5C4([H])[H])C([H])([H])[N+]([H])([H])C3([H])[H])c([H])c([H])c2C1([H])[H]

>  <smiles>  (85) 
[H]c1c([H])c([H])c2c(c1[H])C([H])([H])C([H])([H])C([H])([H])C2([H])N([H])C(=O)C1([H])N(C(=O)C([H])(N([H])C(=O)C([H])(N([H])C([H])([H])[H])C([H])([H])[H])C(C([H])([H])[H])(C([H])([H])[H])C([H])([H])[H])C([H])([H])c2c([H])c(OC([H])([H])C3([H])C([H])(C4([H])c5c([H])c([H])c(N([H])C(=O)N6C([H])([H])C([H])([H])C([H])([H])C([H])(n7nc(-c8c([H])c([H])c(Oc9c([H])c([H])c(F)c([H])c9F)c([H])c8[H])c(C(=O)N([H])[H])c7N([H])[H])C6([H])[H])c([H])c5C4([H])[H])C([H])([H])[N+]([H])([H])C3([H])[H])c([H])c([H])c2C1([H])[H]

$$$$
85:0:0
     RDKit          3D

 92101  0  0  1  0  0  0  0  0999 V2000
  -29.5810  -24.1910   19.9310 C   0  0  0  0  0  2  0  0  0  0  0  0
  -27.2970  -22.9420   20.5000 C   0  0  0  0  0  3  0  0  0  0  0  0
  -28.4640  -22.1150   20.2880 C   0  0  0  0  0  0  0  0  0  0  0  0
  -28.4160  -25.0120   20.1470 C   0  0  0  0  0  0  0  0  0  0  0  0
  -25.9500  -22.3220   20.8240 C   0  0  0  0  0  1  0  0  0  0  0  0
  -29.6190  -22.7970   19.9970 N   0  0  0  0  0  0  0  0  0  0  0  0
  -27.2740  -24.3240   20.4400 N   0  0  0  0  0  0  0  0  0  0  0  0
  -28.4240  -26.4650   20.1040 O   0  0  0  0  0  0  0  0  0  0  0  0
  -24.6690  -31.9050   23.2310 C   0  0  0  0  0  0  0  0  0  0  0  0
  -27.3040  -27.3450   20.1100 C   0  0  0  0  0  0  0  0  0  0  0  0
  -23.4870  -30.5440   21.5480 C   0  0  0  0  0  3  0  0  0  0  0  0
  -24.9540  -29.0170   20.1010 C   0  0  0  0  0  0  0  0  0  0  0  0
  -26.0330  -30.8460   21.4060 C   0  0  0  0  0  2  0  0  0  0  0  0
  -26.1180  -29.4730   20.7310 C   0  0  0  0  0  0  0  0  0  0  0  0
  -27.2940  -28.6500   20.7260 C   0  0  0  0  0  3  0  0  0  0  0  0
  -26.1220  -26.9740   19.4360 C   0  0  0  0  0  3  0  0  0  0  0  0
  -24.9620  -27.7770   19.4430 C   0  0  0  0  0  3  0  0  0  0  0  0
  -23.7190  -29.9000   20.1560 C   0  0  0  0  0  2  0  0  0  0  0  0
  -24.7480  -31.1180   22.1180 N   0  0  0  0  0  0  0  0  0  0  0  0
  -23.5780  -32.1710   23.7590 O   0  0  0  0  0  0  0  0  0  0  0  0
  -22.8120  -29.5070   22.4800 C   0  0  0  0  0  0  0  0  0  0  0  0
  -21.4840  -29.3430   22.3470 N   0  0  0  0  0  0  0  0  0  0  0  0
  -23.4820  -28.8540   23.2820 O   0  0  0  0  0  0  0  0  0  0  0  0
  -21.0000  -29.9220   21.6730 H   0  0  0  0  0  0  0  0  0  0  0  0
  -18.0920  -28.1810   22.8450 C   0  0  0  0  0  0  0  0  0  0  0  0
  -20.6580  -28.3890   23.0900 C   0  0  0  0  0  3  0  0  0  0  0  0
  -20.7290  -26.9800   22.4550 C   0  0  0  0  0  2  0  0  0  0  0  0
  -19.6090  -26.7180   21.4430 C   0  0  0  0  0  2  0  0  0  0  0  0
  -18.2370  -26.8590   22.1110 C   0  0  0  0  0  2  0  0  0  0  0  0
  -19.2290  -28.9070   23.2910 C   0  0  0  0  0  0  0  0  0  0  0  0
  -19.0380  -30.1470   23.9390 C   0  0  0  0  0  3  0  0  0  0  0  0
  -17.7440  -30.6600   24.1440 C   0  0  0  0  0  3  0  0  0  0  0  0
  -16.6220  -29.9310   23.7140 C   0  0  0  0  0  3  0  0  0  0  0  0
  -16.7970  -28.6920   23.0710 C   0  0  0  0  0  3  0  0  0  0  0  0
  -25.9420  -32.5290   23.8820 C   0  0  0  0  0  3  0  0  0  0  0  0
  -25.6280  -33.9240   24.2290 N   0  0  0  0  0  0  0  0  0  0  0  0
  -25.9470  -34.9870   23.4810 C   0  0  0  0  0  0  0  0  0  0  0  0
  -26.6030  -34.8980   22.4400 O   0  0  0  0  0  0  0  0  0  0  0  0
  -25.0420  -34.0660   25.0390 H   0  0  0  0  0  0  0  0  0  0  0  0
  -24.1900  -36.7670   23.1890 C   0  0  0  0  0  1  0  0  0  0  0  0
  -25.4600  -36.3690   23.9600 C   0  0  0  0  0  3  0  0  0  0  0  0
  -27.6060  -37.2750   24.7350 C   0  0  0  0  0  1  0  0  0  0  0  0
  -26.4770  -37.4340   23.8220 N   0  0  0  0  0  0  0  0  0  0  0  0
  -26.0650  -38.3480   23.9840 H   0  0  0  0  0  0  0  0  0  0  0  0
  -26.4360  -31.7410   25.1590 C   0  0  1  0  0  0  0  0  0  0  0  0
  -25.3250  -31.4910   26.2050 C   0  0  0  0  0  1  0  0  0  0  0  0
  -27.0250  -30.3680   24.7620 C   0  0  0  0  0  1  0  0  0  0  0  0
  -27.5750  -32.5260   25.8500 C   0  0  0  0  0  1  0  0  0  0  0  0
  -28.3530  -20.4960   20.4420 C   0  0  0  0  0  2  0  0  0  0  0  0
  -30.7760  -14.9540   19.9220 C   0  0  0  0  0  0  0  0  0  0  0  0
  -30.5380  -12.6570   18.9470 C   0  0  0  0  0  2  0  0  0  0  0  0
  -29.5350  -12.6770   17.7730 C   0  0  0  0  0  2  0  0  0  0  0  0
  -28.0980  -12.4780   18.2910 C   0  0  0  0  0  2  0  0  0  0  0  0
  -27.7730  -13.3750   19.5160 C   0  0  0  0  0  3  0  0  0  0  0  0
  -28.8950  -13.3550   20.5740 C   0  0  0  0  0  2  0  0  0  0  0  0
  -30.1360  -13.7310   19.8900 N   0  0  0  0  0  0  0  0  0  0  0  0
  -31.9560  -15.0090   19.5590 O   0  0  0  0  0  0  0  0  0  0  0  0
  -29.9260  -17.0790   18.9060 C   0  0  0  0  0  2  0  0  0  0  0  0
  -30.4240  -17.0950   21.1840 C   0  0  0  0  0  2  0  0  0  0  0  0
  -29.0620  -18.4210   19.0480 C   0  0  0  0  0  2  0  0  0  0  0  0
  -29.5600  -18.4260   21.3780 C   0  0  0  0  0  2  0  0  0  0  0  0
  -30.0510  -16.1550   20.0830 N   0  0  0  0  0  0  0  0  0  0  0  0
  -29.3890  -19.3500   20.1930 N   0  0  2  0  0  4  0  0  0  0  0  0
  -30.2780  -19.7920   20.0090 H   0  0  0  0  0  0  0  0  0  0  0  0
  -25.4470  -13.9260   20.4300 C   0  0  0  0  0  0  0  0  0  0  0  0
  -24.4080  -13.1350   20.8390 C   0  0  0  0  0  0  0  0  0  0  0  0
  -24.8680  -11.7870   20.7270 C   0  0  0  0  0  0  0  0  0  0  0  0
  -26.4710  -13.0600   20.0910 N   0  0  0  0  0  0  0  0  0  0  0  0
  -26.1370  -11.7650   20.3330 N   0  0  0  0  0  0  0  0  0  0  0  0
  -24.1540  -10.5170   20.9150 C   0  0  0  0  0  0  0  0  0  0  0  0
  -24.5790   -9.5650   21.8690 C   0  0  0  0  0  3  0  0  0  0  0  0
  -23.8630   -8.3610   22.0460 C   0  0  0  0  0  3  0  0  0  0  0  0
  -22.7090   -8.1000   21.2690 C   0  0  0  0  0  0  0  0  0  0  0  0
  -22.3050   -9.0400   20.3050 C   0  0  0  0  0  3  0  0  0  0  0  0
  -23.0210  -10.2350   20.1270 C   0  0  0  0  0  3  0  0  0  0  0  0
  -21.9670   -6.9470   21.3540 O   0  0  0  0  0  0  0  0  0  0  0  0
  -21.8120   -6.2760   22.5400 C   0  0  0  0  0  0  0  0  0  0  0  0
  -21.2400   -6.8910   23.6750 C   0  0  0  0  0  3  0  0  0  0  0  0
  -21.0350   -6.1450   24.8520 C   0  0  0  0  0  3  0  0  0  0  0  0
  -21.3940   -4.7840   24.8960 C   0  0  0  0  0  0  0  0  0  0  0  0
  -21.9580   -4.1690   23.7650 C   0  0  0  0  0  3  0  0  0  0  0  0
  -22.1650   -4.9120   22.5900 C   0  0  0  0  0  0  0  0  0  0  0  0
  -22.6890   -4.3090   21.4960 F   0  0  0  0  0  0  0  0  0  0  0  0
  -21.1900   -4.0640   26.0240 F   0  0  0  0  0  0  0  0  0  0  0  0
  -23.0310  -13.5980   21.2180 C   0  0  0  0  0  0  0  0  0  0  0  0
  -22.3580  -12.8640   22.0960 N   0  0  0  0  0  0  0  0  0  0  0  0
  -22.5650  -14.6450   20.7720 O   0  0  0  0  0  0  0  0  0  0  0  0
  -22.7520  -12.0160   22.4770 H   0  0  0  0  0  0  0  0  0  0  0  0
  -21.4370  -13.1530   22.3920 H   0  0  0  0  0  0  0  0  0  0  0  0
  -25.6010  -15.3030   20.2950 N   0  0  0  0  0  0  0  0  0  0  0  0
  -24.8440  -15.9520   20.4760 H   0  0  0  0  0  0  0  0  0  0  0  0
  -26.4320  -15.7490   19.9300 H   0  0  0  0  0  0  0  0  0  0  0  0
  1  6  1  0
  1  4  1  0
  2  5  1  0
  3 49  1  0
  3  2  1  0
  4  7  2  0
  6  3  2  0
  7  2  1  0
  8 10  1  0
  8  4  1  0
  9 20  2  0
 10 15  1  0
 11 19  1  0
 11 21  1  0
 12 18  1  0
 12 14  1  0
 13 19  1  0
 14 13  1  0
 15 14  2  0
 16 17  1  0
 16 10  2  0
 17 12  2  0
 18 11  1  0
 19  9  1  0
 21 23  2  0
 22 21  1  0
 24 22  1  0
 25 34  2  0
 25 30  1  0
 26 22  1  0
 26 30  1  0
 27 26  1  0
 28 29  1  0
 28 27  1  0
 29 25  1  0
 30 31  2  0
 31 32  1  0
 33 32  2  0
 34 33  1  0
 35  9  1  0
 35 36  1  0
 35 45  1  0
 36 39  1  0
 37 41  1  0
 37 36  1  0
 38 37  2  0
 41 40  1  0
 43 41  1  0
 43 44  1  0
 43 42  1  0
 45 48  1  1
 45 46  1  0
 47 45  1  0
 50 62  1  0
 51 56  1  0
 52 53  1  0
 52 51  1  0
 54 53  1  0
 54 68  1  0
 54 55  1  0
 56 50  1  0
 56 55  1  0
 57 50  2  0
 58 60  1  0
 58 62  1  0
 59 61  1  0
 60 63  1  0
 62 59  1  0
 63 49  1  0
 63 61  1  0
 63 64  1  6
 65 66  2  0
 66 85  1  0
 67 66  1  0
 67 70  1  0
 68 69  1  0
 68 65  1  0
 69 67  2  0
 70 71  1  0
 71 72  2  0
 73 76  1  0
 73 72  1  0
 74 73  2  0
 75 74  1  0
 75 70  2  0
 76 77  1  0
 77 82  2  0
 77 78  1  0
 78 79  2  0
 79 80  1  0
 80 84  1  0
 81 80  2  0
 82 81  1  0
 83 82  1  0
 85 86  1  0
 86 89  1  0
 86 88  1  0
 87 85  2  0
 90 65  1  0
 90 91  1  0
 92 90  1  0
M  ISO  4   4 101   8 101  50 100  62 100
M  END
>  <TORSDO>  (86) 
F 17

>  <SCORE>  (86) 
-13.823

>  <name>  (86) 
85

>  <ligand_id>  (86) 
85

>  <original_smiles>  (86) 
[H]c1nc(C([H])([H])[N+]2([H])C([H])([H])C([H])([H])N(C(=O)N3C([H])([H])C([H])([H])C([H])([H])C([H])(n4nc(-c5c([H])c([H])c(Oc6c([H])c([H])c(F)c([H])c6F)c([H])c5[H])c(C(=O)N([H])[H])c4N([H])[H])C3([H])[H])C([H])([H])C2([H])[H])c(C([H])([H])[H])nc1Oc1c([H])c([H])c2c(c1[H])C([H])([H])N(C(=O)C([H])(N([H])C(=O)C([H])(N([H])C([H])([H])[H])C([H])([H])[H])C(C([H])([H])[H])(C([H])([H])[H])C([H])([H])[H])C([H])(C(=O)N([H])C1([H])c3c([H])c([H])c([H])c([H])c3C([H])([H])C([H])([H])C1([H])[H])C2([H])[H]

>  <smiles>  (86) 
[H]c1nc(C([H])([H])[N+]2([H])C([H])([H])C([H])([H])N(C(=O)N3C([H])([H])C([H])([H])C([H])([H])C([H])(n4nc(-c5c([H])c([H])c(Oc6c([H])c([H])c(F)c([H])c6F)c([H])c5[H])c(C(=O)N([H])[H])c4N([H])[H])C3([H])[H])C([H])([H])C2([H])[H])c(C([H])([H])[H])nc1Oc1c([H])c([H])c2c(c1[H])C([H])([H])N(C(=O)C([H])(N([H])C(=O)C([H])(N([H])C([H])([H])[H])C([H])([H])[H])C(C([H])([H])[H])(C([H])([H])[H])C([H])([H])[H])C([H])(C(=O)N([H])C1([H])c3c([H])c([H])c([H])c([H])c3C([H])([H])C([H])([H])C1([H])[H])C2([H])[H]

$$$$
86:0:0
     RDKit          3D

 93102  0  0  1  0  0  0  0  0999 V2000
  -28.6360  -23.7170   19.7590 C   0  0  0  0  0  0  0  0  0  0  0  0
  -27.6020  -22.7520   19.5340 C   0  0  0  0  0  0  0  0  0  0  0  0
  -29.6810  -22.8620   20.1260 C   0  0  0  0  0  0  0  0  0  0  0  0
  -26.1860  -23.0180   19.1040 C   0  0  0  0  0  1  0  0  0  0  0  0
  -31.0550  -23.2880   20.5410 C   0  0  0  0  0  1  0  0  0  0  0  0
  -28.0040  -21.4730   19.6350 N   0  0  0  0  0  0  0  0  0  0  0  0
  -29.3180  -21.4840   19.9610 N   0  0  0  0  0  0  0  0  0  0  0  0
  -28.5940  -25.2760   19.3750 C   0  0  0  0  0  2  0  0  0  0  0  0
  -28.3160  -26.4030   20.3130 O   0  0  0  0  0  0  0  0  0  0  0  0
  -24.6050  -31.8690   23.2590 C   0  0  0  0  0  0  0  0  0  0  0  0
  -27.2050  -27.2720   20.1980 C   0  0  0  0  0  0  0  0  0  0  0  0
  -23.3990  -30.4790   21.6130 C   0  0  0  0  0  3  0  0  0  0  0  0
  -24.8470  -28.9200   20.1810 C   0  0  0  0  0  0  0  0  0  0  0  0
  -25.9410  -30.7750   21.4400 C   0  0  0  0  0  2  0  0  0  0  0  0
  -26.0160  -29.3950   20.7900 C   0  0  0  0  0  0  0  0  0  0  0  0
  -27.1900  -28.5780   20.7960 C   0  0  0  0  0  3  0  0  0  0  0  0
  -26.0110  -26.8600   19.5650 C   0  0  0  0  0  3  0  0  0  0  0  0
  -24.8490  -27.6600   19.5600 C   0  0  0  0  0  3  0  0  0  0  0  0
  -23.6140  -29.8040   20.2320 C   0  0  0  0  0  2  0  0  0  0  0  0
  -24.6670  -31.0590   22.1600 N   0  0  0  0  0  0  0  0  0  0  0  0
  -23.5210  -32.1530   23.7910 O   0  0  0  0  0  0  0  0  0  0  0  0
  -22.7270  -29.4660   22.5710 C   0  0  0  0  0  0  0  0  0  0  0  0
  -21.3990  -29.3000   22.4430 N   0  0  0  0  0  0  0  0  0  0  0  0
  -23.3980  -28.8350   23.3910 O   0  0  0  0  0  0  0  0  0  0  0  0
  -20.9180  -29.8590   21.7520 H   0  0  0  0  0  0  0  0  0  0  0  0
  -18.0120  -28.1300   22.9350 C   0  0  0  0  0  0  0  0  0  0  0  0
  -20.5710  -28.3680   23.2100 C   0  0  0  0  0  3  0  0  0  0  0  0
  -20.6620  -26.9380   22.6300 C   0  0  0  0  0  2  0  0  0  0  0  0
  -19.5590  -26.6280   21.6130 C   0  0  0  0  0  2  0  0  0  0  0  0
  -18.1780  -26.7830   22.2560 C   0  0  0  0  0  2  0  0  0  0  0  0
  -19.1350  -28.8830   23.3700 C   0  0  0  0  0  0  0  0  0  0  0  0
  -18.9250  -30.1460   23.9650 C   0  0  0  0  0  3  0  0  0  0  0  0
  -17.6230  -30.6540   24.1340 C   0  0  0  0  0  3  0  0  0  0  0  0
  -16.5130  -29.8980   23.7160 C   0  0  0  0  0  3  0  0  0  0  0  0
  -16.7080  -28.6390   23.1210 C   0  0  0  0  0  3  0  0  0  0  0  0
  -25.8890  -32.4950   23.8870 C   0  0  0  0  0  3  0  0  0  0  0  0
  -26.3920  -31.7230   25.1670 C   0  0  1  0  0  0  0  0  0  0  0  0
  -25.2910  -31.4940   26.2300 C   0  0  0  0  0  1  0  0  0  0  0  0
  -26.9680  -30.3400   24.7800 C   0  0  0  0  0  1  0  0  0  0  0  0
  -27.5440  -32.5100   25.8340 C   0  0  0  0  0  1  0  0  0  0  0  0
  -25.5860  -33.8960   24.2160 N   0  0  0  0  0  0  0  0  0  0  0  0
  -25.9190  -34.9460   23.4540 C   0  0  0  0  0  0  0  0  0  0  0  0
  -26.5820  -34.8370   22.4200 O   0  0  0  0  0  0  0  0  0  0  0  0
  -24.9960  -34.0510   25.0210 H   0  0  0  0  0  0  0  0  0  0  0  0
  -24.1950  -36.7470   23.1110 C   0  0  0  0  0  1  0  0  0  0  0  0
  -25.4420  -36.3380   23.9130 C   0  0  0  0  0  3  0  0  0  0  0  0
  -27.5860  -37.2170   24.7270 C   0  0  0  0  0  1  0  0  0  0  0  0
  -26.4770  -37.3870   23.7920 N   0  0  0  0  0  0  0  0  0  0  0  0
  -26.0760  -38.3080   23.9450 H   0  0  0  0  0  0  0  0  0  0  0  0
  -30.1590  -20.1810   19.9020 C   0  0  0  0  0  3  0  0  0  0  0  0
  -29.8170  -18.0820   21.5590 C   0  0  0  0  0  2  0  0  0  0  0  0
  -29.5400  -18.7270   20.2330 C   0  0  0  0  0  3  0  0  0  0  0  0
  -30.3860  -17.3440   20.3600 C   0  0  0  0  0  3  0  0  0  0  0  0
  -30.6960  -14.7670   19.9910 C   0  0  0  0  0  0  0  0  0  0  0  0
  -30.4460  -12.4980   18.9670 C   0  0  0  0  0  2  0  0  0  0  0  0
  -29.4510  -12.5790   17.7870 C   0  0  0  0  0  2  0  0  0  0  0  0
  -28.0020  -12.4080   18.2850 C   0  0  0  0  0  2  0  0  0  0  0  0
  -27.6890  -13.2820   19.5290 C   0  0  0  0  0  3  0  0  0  0  0  0
  -28.8010  -13.1780   20.5950 C   0  0  0  0  0  2  0  0  0  0  0  0
  -30.0610  -13.5450   19.9400 N   0  0  0  0  0  0  0  0  0  0  0  0
  -31.8670  -14.8630   19.6160 O   0  0  0  0  0  0  0  0  0  0  0  0
  -29.9470  -15.9030   20.2840 N   0  0  0  0  0  0  0  0  0  0  0  0
  -28.9820  -15.7240   20.5180 H   0  0  0  0  0  0  0  0  0  0  0  0
  -25.3430  -13.8700   20.3830 C   0  0  0  0  0  0  0  0  0  0  0  0
  -24.2920  -13.0950   20.7930 C   0  0  0  0  0  0  0  0  0  0  0  0
  -24.7490  -11.7430   20.7220 C   0  0  0  0  0  0  0  0  0  0  0  0
  -26.3700  -12.9900   20.0830 N   0  0  0  0  0  0  0  0  0  0  0  0
  -26.0220  -11.7050   20.3510 N   0  0  0  0  0  0  0  0  0  0  0  0
  -24.0260  -10.4800   20.9300 C   0  0  0  0  0  0  0  0  0  0  0  0
  -24.4650   -9.5230   21.8730 C   0  0  0  0  0  3  0  0  0  0  0  0
  -23.7400   -8.3280   22.0680 C   0  0  0  0  0  3  0  0  0  0  0  0
  -22.5620   -8.0810   21.3220 C   0  0  0  0  0  0  0  0  0  0  0  0
  -22.1430   -9.0250   20.3680 C   0  0  0  0  0  3  0  0  0  0  0  0
  -22.8700  -10.2120   20.1700 C   0  0  0  0  0  3  0  0  0  0  0  0
  -21.8090   -6.9360   21.4280 O   0  0  0  0  0  0  0  0  0  0  0  0
  -21.7270   -6.2320   22.6030 C   0  0  0  0  0  0  0  0  0  0  0  0
  -21.2430   -6.8190   23.7930 C   0  0  0  0  0  3  0  0  0  0  0  0
  -21.1110   -6.0410   24.9600 C   0  0  0  0  0  3  0  0  0  0  0  0
  -21.4530   -4.6750   24.9380 C   0  0  0  0  0  0  0  0  0  0  0  0
  -21.9330   -4.0880   23.7550 C   0  0  0  0  0  3  0  0  0  0  0  0
  -22.0660   -4.8640   22.5890 C   0  0  0  0  0  0  0  0  0  0  0  0
  -22.5090   -4.2880   21.4450 F   0  0  0  0  0  0  0  0  0  0  0  0
  -21.3180   -3.9260   26.0570 F   0  0  0  0  0  0  0  0  0  0  0  0
  -22.9120  -13.5750   21.1360 C   0  0  0  0  0  0  0  0  0  0  0  0
  -22.2200  -12.8740   22.0260 N   0  0  0  0  0  0  0  0  0  0  0  0
  -22.4560  -14.6080   20.6480 O   0  0  0  0  0  0  0  0  0  0  0  0
  -22.5980  -12.0380   22.4480 H   0  0  0  0  0  0  0  0  0  0  0  0
  -21.2960  -13.1820   22.2940 H   0  0  0  0  0  0  0  0  0  0  0  0
  -25.5020  -15.2430   20.2130 N   0  0  0  0  0  0  0  0  0  0  0  0
  -24.7400  -15.8930   20.3560 H   0  0  0  0  0  0  0  0  0  0  0  0
  -26.3200  -15.6820   19.8100 H   0  0  0  0  0  0  0  0  0  0  0  0
  -31.8150  -21.1320   18.0770 C   0  0  0  0  0  1  0  0  0  0  0  0
  -30.8220  -20.0410   18.5060 C   0  0  0  0  0  2  0  0  0  0  0  0
  1  3  2  0
  2  6  2  0
  2  1  1  0
  3  5  1  0
  4  2  1  0
  6  7  1  0
  7  3  1  0
  8  1  1  0
  8  9  1  0
 10 21  2  0
 11  9  1  0
 11 16  1  0
 12 20  1  0
 12 22  1  0
 13 19  1  0
 13 15  1  0
 14 20  1  0
 15 16  2  0
 15 14  1  0
 17 11  2  0
 18 17  1  0
 18 13  2  0
 19 12  1  0
 20 10  1  0
 22 24  2  0
 23 22  1  0
 25 23  1  0
 26 35  2  0
 26 31  1  0
 27 23  1  0
 27 31  1  0
 28 27  1  0
 29 30  1  0
 29 28  1  0
 30 26  1  0
 31 32  2  0
 32 33  1  0
 34 33  2  0
 35 34  1  0
 36 10  1  0
 36 41  1  0
 36 37  1  0
 37 40  1  1
 37 38  1  0
 39 37  1  0
 41 44  1  0
 42 46  1  0
 42 41  1  0
 43 42  2  0
 46 45  1  0
 48 46  1  0
 48 49  1  0
 48 47  1  0
 50 93  1  0
 50  7  1  0
 52 50  1  0
 52 53  1  0
 52 51  1  0
 53 62  1  0
 53 51  1  0
 54 62  1  0
 55 60  1  0
 56 57  1  0
 56 55  1  0
 58 57  1  0
 58 67  1  0
 58 59  1  0
 60 54  1  0
 60 59  1  0
 61 54  2  0
 62 63  1  0
 64 65  2  0
 65 84  1  0
 66 65  1  0
 66 69  1  0
 67 68  1  0
 67 64  1  0
 68 66  2  0
 69 70  1  0
 70 71  2  0
 72 75  1  0
 72 71  1  0
 73 72  2  0
 74 73  1  0
 74 69  2  0
 75 76  1  0
 76 77  1  0
 77 78  2  0
 79 78  1  0
 79 83  1  0
 80 79  2  0
 81 76  2  0
 81 80  1  0
 82 81  1  0
 84 85  1  0
 85 88  1  0
 85 87  1  0
 86 84  2  0
 89 90  1  0
 89 64  1  0
 91 89  1  0
 92 93  1  0
M  ISO  4   8 101   9 101  54 100  62 100
M  END
>  <TORSDO>  (87) 
F 20

>  <SCORE>  (87) 
-13.666

>  <name>  (87) 
86

>  <ligand_id>  (87) 
86

>  <original_smiles>  (87) 
[H]c1c([H])c([H])c2c(c1[H])C([H])([H])C([H])([H])C([H])([H])C2([H])N([H])C(=O)C1([H])N(C(=O)C([H])(N([H])C(=O)C([H])(N([H])C([H])([H])[H])C([H])([H])[H])C(C([H])([H])[H])(C([H])([H])[H])C([H])([H])[H])C([H])([H])c2c([H])c(OC([H])([H])c3c(C([H])([H])[H])nn(C([H])(C([H])([H])C([H])([H])[H])C4([H])C([H])([H])C4([H])N([H])C(=O)N4C([H])([H])C([H])([H])C([H])([H])C([H])(n5nc(-c6c([H])c([H])c(Oc7c([H])c([H])c(F)c([H])c7F)c([H])c6[H])c(C(=O)N([H])[H])c5N([H])[H])C4([H])[H])c3C([H])([H])[H])c([H])c([H])c2C1([H])[H]

>  <smiles>  (87) 
[H]c1c([H])c([H])c2c(c1[H])C([H])([H])C([H])([H])C([H])([H])C2([H])N([H])C(=O)C1([H])N(C(=O)C([H])(N([H])C(=O)C([H])(N([H])C([H])([H])[H])C([H])([H])[H])C(C([H])([H])[H])(C([H])([H])[H])C([H])([H])[H])C([H])([H])c2c([H])c(OC([H])([H])c3c(C([H])([H])[H])nn(C([H])(C([H])([H])C([H])([H])[H])C4([H])C([H])([H])C4([H])N([H])C(=O)N4C([H])([H])C([H])([H])C([H])([H])C([H])(n5nc(-c6c([H])c([H])c(Oc7c([H])c([H])c(F)c([H])c7F)c([H])c6[H])c(C(=O)N([H])[H])c5N([H])[H])C4([H])[H])c3C([H])([H])[H])c([H])c([H])c2C1([H])[H]

$$$$
87:0:0
     RDKit          3D

 98109  0  0  1  0  0  0  0  0999 V2000
  -28.6740  -20.8780   21.2210 C   0  0  0  0  0  3  0  0  0  0  0  0
  -28.1990  -22.2070   21.1710 C   0  0  0  0  0  0  0  0  0  0  0  0
  -29.4550  -20.3650   20.1650 C   0  0  0  0  0  0  0  0  0  0  0  0
  -28.4780  -23.0060   20.0320 C   0  0  0  0  0  0  0  0  0  0  0  0
  -29.7280  -21.2530   19.0880 C   0  0  0  0  0  0  0  0  0  0  0  0
  -27.3940  -22.7300   22.3530 C   0  0  0  0  0  2  0  0  0  0  0  0
  -26.5640  -23.9830   22.0520 C   0  0  0  0  0  2  0  0  0  0  0  0
  -27.3100  -24.9660   21.1370 C   0  0  0  0  0  2  0  0  0  0  0  0
  -27.7300  -24.3470   19.7790 C   0  0  2  0  0  0  0  0  0  0  0  0
  -26.4690  -23.9180   18.9840 C   0  0  0  0  0  1  0  0  0  0  0  0
  -29.2250  -22.5100   19.0240 N   0  0  0  0  0  0  0  0  0  0  0  0
  -31.0530  -14.7900   20.4040 C   0  0  0  0  0  0  0  0  0  0  0  0
  -30.7770  -12.5270   19.4800 C   0  0  0  0  0  2  0  0  0  0  0  0
  -29.8790  -12.6030   18.2330 C   0  0  0  0  0  2  0  0  0  0  0  0
  -28.3970  -12.4680   18.6310 C   0  0  0  0  0  2  0  0  0  0  0  0
  -27.9990  -13.4080   19.8000 C   0  0  0  0  0  3  0  0  0  0  0  0
  -29.0310  -13.3700   20.9490 C   0  0  0  0  0  2  0  0  0  0  0  0
  -30.3610  -13.6180   20.3760 N   0  0  0  0  0  0  0  0  0  0  0  0
  -32.2380  -14.8580   20.0640 O   0  0  0  0  0  0  0  0  0  0  0  0
  -30.2310  -18.3030   21.5970 C   0  0  0  0  0  2  0  0  0  0  0  0
  -29.1710  -17.8970   19.4380 C   0  0  0  0  0  2  0  0  0  0  0  0
  -30.9450  -16.9240   21.5190 C   0  0  0  0  0  2  0  0  0  0  0  0
  -29.9530  -16.5740   19.2900 C   0  0  0  0  0  2  0  0  0  0  0  0
  -30.0190  -18.9230   20.2020 C   0  0  0  0  0  3  0  0  0  0  0  0
  -30.3520  -15.9430   20.5720 N   0  0  0  0  0  0  0  0  0  0  0  0
  -25.6160  -14.0340   20.5220 C   0  0  0  0  0  0  0  0  0  0  0  0
  -24.5290  -13.2680   20.8510 C   0  0  0  0  0  0  0  0  0  0  0  0
  -24.9630  -11.9110   20.7710 C   0  0  0  0  0  0  0  0  0  0  0  0
  -26.6430  -13.1400   20.2670 N   0  0  0  0  0  0  0  0  0  0  0  0
  -26.2560  -11.8560   20.4770 N   0  0  0  0  0  0  0  0  0  0  0  0
  -24.2100  -10.6570   20.9060 C   0  0  0  0  0  0  0  0  0  0  0  0
  -24.6190   -9.6440   21.8000 C   0  0  0  0  0  3  0  0  0  0  0  0
  -23.8690   -8.4540   21.9250 C   0  0  0  0  0  3  0  0  0  0  0  0
  -22.6950   -8.2710   21.1570 C   0  0  0  0  0  0  0  0  0  0  0  0
  -22.3040   -9.2750   20.2520 C   0  0  0  0  0  3  0  0  0  0  0  0
  -23.0540  -10.4560   20.1250 C   0  0  0  0  0  3  0  0  0  0  0  0
  -21.9160   -7.1400   21.1950 O   0  0  0  0  0  0  0  0  0  0  0  0
  -21.8390   -6.3580   22.3190 C   0  0  0  0  0  0  0  0  0  0  0  0
  -21.3720   -6.8690   23.5500 C   0  0  0  0  0  3  0  0  0  0  0  0
  -21.2420   -6.0140   24.6620 C   0  0  0  0  0  3  0  0  0  0  0  0
  -21.5670   -4.6480   24.5440 C   0  0  0  0  0  0  0  0  0  0  0  0
  -22.0260   -4.1380   23.3170 C   0  0  0  0  0  3  0  0  0  0  0  0
  -22.1590   -4.9910   22.2070 C   0  0  0  0  0  0  0  0  0  0  0  0
  -22.5810   -4.4900   21.0220 F   0  0  0  0  0  0  0  0  0  0  0  0
  -21.4340   -3.8230   25.6090 F   0  0  0  0  0  0  0  0  0  0  0  0
  -23.1390  -13.7650   21.1290 C   0  0  0  0  0  0  0  0  0  0  0  0
  -22.3950  -13.0580   21.9740 N   0  0  0  0  0  0  0  0  0  0  0  0
  -22.7200  -14.8110   20.6360 O   0  0  0  0  0  0  0  0  0  0  0  0
  -22.7450  -12.2100   22.3930 H   0  0  0  0  0  0  0  0  0  0  0  0
  -21.4620  -13.3700   22.2060 H   0  0  0  0  0  0  0  0  0  0  0  0
  -25.8100  -15.4060   20.4000 N   0  0  0  0  0  0  0  0  0  0  0  0
  -25.0620  -16.0760   20.5420 H   0  0  0  0  0  0  0  0  0  0  0  0
  -26.6880  -15.8380   20.1410 H   0  0  0  0  0  0  0  0  0  0  0  0
  -30.4970  -21.5470   16.5770 C   0  0  0  0  0  2  0  0  0  0  0  0
  -30.2150  -20.0840   16.7720 C   0  0  0  0  0  2  0  0  0  0  0  0
  -30.6610  -20.9210   17.9520 C   0  0  0  0  0  3  0  0  0  0  0  0
  -28.5850  -25.4090   18.9560 C   0  0  0  0  0  2  0  0  0  0  0  0
  -28.5280  -26.8370   19.2470 O   0  0  0  0  0  0  0  0  0  0  0  0
  -24.6510  -31.5560   22.8940 C   0  0  0  0  0  0  0  0  0  0  0  0
  -27.3450  -27.5610   19.2620 C   0  0  0  0  0  0  0  0  0  0  0  0
  -23.4440  -30.2980   21.1380 C   0  0  0  0  0  3  0  0  0  0  0  0
  -24.9070  -28.9940   19.4990 C   0  0  0  0  0  0  0  0  0  0  0  0
  -25.9510  -30.7620   20.9190 C   0  0  0  0  0  2  0  0  0  0  0  0
  -26.0630  -29.4720   20.1300 C   0  0  0  0  0  0  0  0  0  0  0  0
  -27.2790  -28.7550   20.0220 C   0  0  0  0  0  3  0  0  0  0  0  0
  -26.1910  -27.1540   18.5640 C   0  0  0  0  0  3  0  0  0  0  0  0
  -24.9690  -27.8360   18.7090 C   0  0  0  0  0  3  0  0  0  0  0  0
  -23.6340  -29.7890   19.6840 C   0  0  0  0  0  2  0  0  0  0  0  0
  -24.7000  -30.8850   21.7090 N   0  0  0  0  0  0  0  0  0  0  0  0
  -23.5780  -31.7280   23.4900 O   0  0  0  0  0  0  0  0  0  0  0  0
  -22.8630  -29.1510   21.9970 C   0  0  0  0  0  0  0  0  0  0  0  0
  -21.5340  -28.9690   21.9260 N   0  0  0  0  0  0  0  0  0  0  0  0
  -23.5990  -28.4350   22.6790 O   0  0  0  0  0  0  0  0  0  0  0  0
  -21.0030  -29.6020   21.3440 H   0  0  0  0  0  0  0  0  0  0  0  0
  -18.1950  -27.7290   22.5340 C   0  0  0  0  0  0  0  0  0  0  0  0
  -20.7710  -27.9270   22.6150 C   0  0  0  0  0  3  0  0  0  0  0  0
  -20.7960  -26.6040   21.8180 C   0  0  0  0  0  2  0  0  0  0  0  0
  -19.6050  -26.4450   20.8690 C   0  0  0  0  0  2  0  0  0  0  0  0
  -18.2860  -26.4990   21.6460 C   0  0  0  0  0  2  0  0  0  0  0  0
  -19.3610  -28.4100   22.9740 C   0  0  0  0  0  0  0  0  0  0  0  0
  -19.2180  -29.5700   23.7650 C   0  0  0  0  0  3  0  0  0  0  0  0
  -17.9420  -30.0460   24.1210 C   0  0  0  0  0  3  0  0  0  0  0  0
  -16.7910  -29.3600   23.6940 C   0  0  0  0  0  3  0  0  0  0  0  0
  -16.9200  -28.2020   22.9070 C   0  0  0  0  0  3  0  0  0  0  0  0
  -25.9340  -32.1600   23.5460 C   0  0  0  0  0  3  0  0  0  0  0  0
  -25.5990  -33.5090   24.0200 N   0  0  0  0  0  0  0  0  0  0  0  0
  -25.8690  -34.6380   23.3520 C   0  0  0  0  0  0  0  0  0  0  0  0
  -26.5060  -34.6550   22.2950 O   0  0  0  0  0  0  0  0  0  0  0  0
  -25.0400  -33.5680   24.8590 H   0  0  0  0  0  0  0  0  0  0  0  0
  -24.0730  -36.3920   23.2230 C   0  0  0  0  0  1  0  0  0  0  0  0
  -25.3550  -35.9600   23.9540 C   0  0  0  0  0  3  0  0  0  0  0  0
  -27.4820  -36.8430   24.8040 C   0  0  0  0  0  1  0  0  0  0  0  0
  -26.3470  -37.0550   23.9080 N   0  0  0  0  0  0  0  0  0  0  0  0
  -25.9170  -37.9410   24.1540 H   0  0  0  0  0  0  0  0  0  0  0  0
  -26.5080  -31.2780   24.7220 C   0  0  1  0  0  0  0  0  0  0  0  0
  -25.4500  -30.9060   25.7870 C   0  0  0  0  0  1  0  0  0  0  0  0
  -27.1090  -29.9600   24.1760 C   0  0  0  0  0  1  0  0  0  0  0  0
  -27.6610  -32.0330   25.4260 C   0  0  0  0  0  1  0  0  0  0  0  0
  2  1  1  0
  2  6  1  0
  3  1  2  0
  4  2  2  0
  5  3  1  0
  7  6  1  0
  8  7  1  0
  9 10  1  6
  9  4  1  0
  9  8  1  0
 11  5  2  0
 11  4  1  0
 12 25  1  0
 13 18  1  0
 14 15  1  0
 14 13  1  0
 16 15  1  0
 16 29  1  0
 16 17  1  0
 18 12  1  0
 18 17  1  0
 19 12  2  0
 21 24  1  0
 22 20  1  0
 23 21  1  0
 23 25  1  0
 24  3  1  0
 24 20  1  0
 25 22  1  0
 26 27  2  0
 27 46  1  0
 28 27  1  0
 28 31  1  0
 29 30  1  0
 29 26  1  0
 30 28  2  0
 31 32  1  0
 32 33  2  0
 34 37  1  0
 34 33  1  0
 35 34  2  0
 36 35  1  0
 36 31  2  0
 37 38  1  0
 38 39  1  0
 39 40  2  0
 41 40  1  0
 41 45  1  0
 42 41  2  0
 43 38  2  0
 43 42  1  0
 44 43  1  0
 46 47  1  0
 47 50  1  0
 47 49  1  0
 48 46  2  0
 51 26  1  0
 51 52  1  0
 53 51  1  0
 54 55  1  0
 54 56  1  0
 55 56  1  0
 56  5  1  0
 57 58  1  0
 57  9  1  0
 58 60  1  0
 59 70  2  0
 60 65  1  0
 61 69  1  0
 61 71  1  0
 62 68  1  0
 62 64  1  0
 63 69  1  0
 64 63  1  0
 65 64  2  0
 66 67  1  0
 66 60  2  0
 67 62  2  0
 68 61  1  0
 69 59  1  0
 71 73  2  0
 72 71  1  0
 74 72  1  0
 75 84  2  0
 75 80  1  0
 76 72  1  0
 76 80  1  0
 77 76  1  0
 78 79  1  0
 78 77  1  0
 79 75  1  0
 80 81  2  0
 81 82  1  0
 83 82  2  0
 84 83  1  0
 85 59  1  0
 85 86  1  0
 85 95  1  0
 86 89  1  0
 87 91  1  0
 87 86  1  0
 88 87  2  0
 91 90  1  0
 93 91  1  0
 93 94  1  0
 93 92  1  0
 95 98  1  1
 95 96  1  0
 97 95  1  0
M  ISO  4  12 100  25 100  57 101  58 101
M  END
>  <TORSDO>  (88) 
F 18

>  <SCORE>  (88) 
-12.751

>  <name>  (88) 
87

>  <ligand_id>  (88) 
87

>  <original_smiles>  (88) 
[H]c1c([H])c([H])c2c(c1[H])C([H])([H])C([H])([H])C([H])([H])C2([H])N([H])C(=O)C1([H])N(C(=O)C([H])(N([H])C(=O)C([H])(N([H])C([H])([H])[H])C([H])([H])[H])C(C([H])([H])[H])(C([H])([H])[H])C([H])([H])[H])C([H])([H])c2c([H])c(OC([H])([H])C3(C([H])([H])[H])c4nc(C5([H])C([H])([H])C5([H])[H])c(C5([H])C([H])([H])C([H])([H])N(C(=O)N6C([H])([H])C([H])([H])C([H])([H])C([H])(n7nc(-c8c([H])c([H])c(Oc9c([H])c([H])c(F)c([H])c9F)c([H])c8[H])c(C(=O)N([H])[H])c7N([H])[H])C6([H])[H])C([H])([H])C5([H])[H])c([H])c4C([H])([H])C([H])([H])C3([H])[H])c([H])c([H])c2C1([H])[H]

>  <smiles>  (88) 
[H]c1c([H])c([H])c2c(c1[H])C([H])([H])C([H])([H])C([H])([H])C2([H])N([H])C(=O)C1([H])N(C(=O)C([H])(N([H])C(=O)C([H])(N([H])C([H])([H])[H])C([H])([H])[H])C(C([H])([H])[H])(C([H])([H])[H])C([H])([H])[H])C([H])([H])c2c([H])c(OC([H])([H])C3(C([H])([H])[H])c4nc(C5([H])C([H])([H])C5([H])[H])c(C5([H])C([H])([H])C([H])([H])N(C(=O)N6C([H])([H])C([H])([H])C([H])([H])C([H])(n7nc(-c8c([H])c([H])c(Oc9c([H])c([H])c(F)c([H])c9F)c([H])c8[H])c(C(=O)N([H])[H])c7N([H])[H])C6([H])[H])C([H])([H])C5([H])[H])c([H])c4C([H])([H])C([H])([H])C3([H])[H])c([H])c([H])c2C1([H])[H]

$$$$
88:0:0
     RDKit          3D

 92101  0  0  1  0  0  0  0  0999 V2000
  -29.3160  -22.6180   21.5180 C   0  0  0  0  0  0  0  0  0  0  0  0
  -29.8440  -21.4220   22.0120 C   0  0  0  0  0  0  0  0  0  0  0  0
  -28.7030  -22.7000   20.2500 C   0  0  0  0  0  0  0  0  0  0  0  0
  -29.3700  -20.0860   20.1840 C   0  0  0  0  0  0  0  0  0  0  0  0
  -29.4700  -23.6720   22.5570 C   0  0  0  0  0  0  0  0  0  0  0  0
  -30.3800  -21.6750   23.4010 C   0  0  0  0  0  2  0  0  0  0  0  0
  -29.8800  -20.2030   21.4100 N   0  0  0  0  0  0  0  0  0  0  0  0
  -28.7830  -21.3280   19.6280 N   0  0  0  0  0  0  0  0  0  0  0  0
  -30.0820  -23.0980   23.6000 N   0  0  0  0  0  0  0  0  0  0  0  0
  -29.1070  -24.8410   22.4770 O   0  0  0  0  0  0  0  0  0  0  0  0
  -30.3180  -23.5820   24.4560 H   0  0  0  0  0  0  0  0  0  0  0  0
  -27.8270  -24.1960   19.7960 C   0  0  0  0  0  2  0  0  0  0  0  0
  -28.0300  -25.8560   20.0300 O   0  0  0  0  0  0  0  0  0  0  0  0
  -24.6330  -31.9200   23.1160 C   0  0  0  0  0  0  0  0  0  0  0  0
  -27.0400  -26.9990   19.9640 C   0  0  0  0  0  0  0  0  0  0  0  0
  -23.3670  -30.5350   21.5230 C   0  0  0  0  0  3  0  0  0  0  0  0
  -24.7510  -28.9290   20.0230 C   0  0  0  0  0  0  0  0  0  0  0  0
  -25.9290  -30.7230   21.2730 C   0  0  0  0  0  2  0  0  0  0  0  0
  -25.9660  -29.3120   20.6030 C   0  0  0  0  0  0  0  0  0  0  0  0
  -27.0970  -28.3680   20.5530 C   0  0  0  0  0  3  0  0  0  0  0  0
  -25.7970  -26.7920   19.3210 C   0  0  0  0  0  3  0  0  0  0  0  0
  -24.6950  -27.6920   19.3580 C   0  0  0  0  0  3  0  0  0  0  0  0
  -23.5380  -29.8570   20.1330 C   0  0  0  0  0  2  0  0  0  0  0  0
  -24.6680  -31.0880   22.0230 N   0  0  0  0  0  0  0  0  0  0  0  0
  -23.5670  -32.2100   23.6830 O   0  0  0  0  0  0  0  0  0  0  0  0
  -22.7100  -29.5400   22.5140 C   0  0  0  0  0  0  0  0  0  0  0  0
  -21.3880  -29.3140   22.3920 N   0  0  0  0  0  0  0  0  0  0  0  0
  -23.3970  -28.9670   23.3650 O   0  0  0  0  0  0  0  0  0  0  0  0
  -20.8820  -29.8260   21.6820 H   0  0  0  0  0  0  0  0  0  0  0  0
  -18.0840  -27.8780   22.8500 C   0  0  0  0  0  0  0  0  0  0  0  0
  -20.6060  -28.3610   23.1880 C   0  0  0  0  0  3  0  0  0  0  0  0
  -20.8380  -26.9110   22.7020 C   0  0  0  0  0  2  0  0  0  0  0  0
  -19.8070  -26.4480   21.6690 C   0  0  0  0  0  2  0  0  0  0  0  0
  -18.3930  -26.5150   22.2550 C   0  0  0  0  0  2  0  0  0  0  0  0
  -19.1240  -28.7510   23.2730 C   0  0  0  0  0  0  0  0  0  0  0  0
  -18.7810  -30.0180   23.7920 C   0  0  0  0  0  3  0  0  0  0  0  0
  -17.4360  -30.4180   23.8900 C   0  0  0  0  0  3  0  0  0  0  0  0
  -16.4110  -29.5450   23.4820 C   0  0  0  0  0  3  0  0  0  0  0  0
  -16.7360  -28.2780   22.9680 C   0  0  0  0  0  3  0  0  0  0  0  0
  -25.9290  -32.5600   23.6980 C   0  0  0  0  0  3  0  0  0  0  0  0
  -25.6210  -33.9520   24.0750 N   0  0  0  0  0  0  0  0  0  0  0  0
  -25.9450  -35.0340   23.3560 C   0  0  0  0  0  0  0  0  0  0  0  0
  -26.5960  -34.9650   22.3090 O   0  0  0  0  0  0  0  0  0  0  0  0
  -25.0380  -34.0790   24.8890 H   0  0  0  0  0  0  0  0  0  0  0  0
  -24.2190  -36.8520   23.1110 C   0  0  0  0  0  1  0  0  0  0  0  0
  -25.4780  -36.4110   23.8750 C   0  0  0  0  0  3  0  0  0  0  0  0
  -27.6340  -37.2640   24.6840 C   0  0  0  0  0  1  0  0  0  0  0  0
  -26.5120  -37.4640   23.7710 N   0  0  0  0  0  0  0  0  0  0  0  0
  -26.1140  -38.3810   23.9540 H   0  0  0  0  0  0  0  0  0  0  0  0
  -26.4980  -31.7770   24.9470 C   0  0  1  0  0  0  0  0  0  0  0  0
  -25.4470  -31.5160   26.0510 C   0  0  0  0  0  1  0  0  0  0  0  0
  -27.0780  -30.4080   24.5250 C   0  0  0  0  0  1  0  0  0  0  0  0
  -27.6670  -32.5720   25.5740 C   0  0  0  0  0  1  0  0  0  0  0  0
  -29.6980  -18.4830   19.4860 C   0  0  0  0  0  2  0  0  0  0  0  0
  -30.3970  -15.5770   19.8810 C   0  0  0  0  0  0  0  0  0  0  0  0
  -30.4480  -13.0580   19.1680 C   0  0  0  0  0  2  0  0  0  0  0  0
  -29.5020  -12.7170   17.9850 C   0  0  0  0  0  2  0  0  0  0  0  0
  -28.0860  -12.4040   18.4950 C   0  0  0  0  0  2  0  0  0  0  0  0
  -27.6310  -13.4170   19.5730 C   0  0  0  0  0  3  0  0  0  0  0  0
  -28.7060  -13.7000   20.6450 C   0  0  0  0  0  2  0  0  0  0  0  0
  -29.8850  -14.2360   19.9410 N   0  0  0  0  0  0  0  0  0  0  0  0
  -31.5950  -15.5810   19.5570 O   0  0  0  0  0  0  0  0  0  0  0  0
  -29.6130  -16.8570   19.9850 N   0  0  0  0  0  0  0  0  0  0  0  0
  -28.6850  -16.6690   20.3330 H   0  0  0  0  0  0  0  0  0  0  0  0
  -25.3120  -13.9440   20.4820 C   0  0  0  0  0  0  0  0  0  0  0  0
  -24.2710  -13.1550   20.8850 C   0  0  0  0  0  0  0  0  0  0  0  0
  -24.7340  -11.8060   20.7830 C   0  0  0  0  0  0  0  0  0  0  0  0
  -26.3370  -13.0780   20.1490 N   0  0  0  0  0  0  0  0  0  0  0  0
  -26.0060  -11.7830   20.3980 N   0  0  0  0  0  0  0  0  0  0  0  0
  -24.0140  -10.5380   20.9710 C   0  0  0  0  0  0  0  0  0  0  0  0
  -24.4540   -9.5680   21.8980 C   0  0  0  0  0  3  0  0  0  0  0  0
  -23.7300   -8.3700   22.0780 C   0  0  0  0  0  3  0  0  0  0  0  0
  -22.5520   -8.1310   21.3300 C   0  0  0  0  0  0  0  0  0  0  0  0
  -22.1300   -9.0910   20.3930 C   0  0  0  0  0  3  0  0  0  0  0  0
  -22.8550  -10.2810   20.2110 C   0  0  0  0  0  3  0  0  0  0  0  0
  -21.7990   -6.9850   21.4190 O   0  0  0  0  0  0  0  0  0  0  0  0
  -21.7190   -6.2660   22.5840 C   0  0  0  0  0  0  0  0  0  0  0  0
  -21.2260   -6.8370   23.7790 C   0  0  0  0  0  3  0  0  0  0  0  0
  -21.0930   -6.0430   24.9350 C   0  0  0  0  0  3  0  0  0  0  0  0
  -21.4430   -4.6790   24.9000 C   0  0  0  0  0  0  0  0  0  0  0  0
  -21.9280   -4.1080   23.7100 C   0  0  0  0  0  3  0  0  0  0  0  0
  -22.0620   -4.8990   22.5550 C   0  0  0  0  0  0  0  0  0  0  0  0
  -22.5100   -4.3390   21.4050 F   0  0  0  0  0  0  0  0  0  0  0  0
  -21.3080   -3.9150   26.0080 F   0  0  0  0  0  0  0  0  0  0  0  0
  -22.8930  -13.6240   21.2470 C   0  0  0  0  0  0  0  0  0  0  0  0
  -22.2190  -12.9130   22.1440 N   0  0  0  0  0  0  0  0  0  0  0  0
  -22.4260  -14.6580   20.7700 O   0  0  0  0  0  0  0  0  0  0  0  0
  -22.6120  -12.0770   22.5480 H   0  0  0  0  0  0  0  0  0  0  0  0
  -21.2980  -13.2110   22.4310 H   0  0  0  0  0  0  0  0  0  0  0  0
  -25.4640  -15.3200   20.3390 N   0  0  0  0  0  0  0  0  0  0  0  0
  -24.6990  -15.9640   20.5090 H   0  0  0  0  0  0  0  0  0  0  0  0
  -26.2760  -15.7690   19.9380 H   0  0  0  0  0  0  0  0  0  0  0  0
  1  2  2  0
  1  5  1  0
  2  6  1  0
  3  1  1  0
  4  7  2  0
  5  9  1  0
  6  9  1  0
  7  2  1  0
  8  4  1  0
  8  3  2  0
  9 11  1  0
 10  5  2  0
 12 13  1  0
 12  3  1  0
 14 25  2  0
 15 13  1  0
 15 20  1  0
 16 24  1  0
 16 26  1  0
 17 23  1  0
 17 19  1  0
 18 24  1  0
 19 18  1  0
 20 19  2  0
 21 22  1  0
 21 15  2  0
 22 17  2  0
 23 16  1  0
 24 14  1  0
 26 28  2  0
 27 26  1  0
 29 27  1  0
 30 39  2  0
 30 35  1  0
 31 27  1  0
 31 35  1  0
 32 31  1  0
 33 34  1  0
 33 32  1  0
 34 30  1  0
 35 36  2  0
 36 37  1  0
 38 37  2  0
 39 38  1  0
 40 14  1  0
 40 41  1  0
 40 50  1  0
 41 44  1  0
 42 46  1  0
 42 41  1  0
 43 42  2  0
 46 45  1  0
 48 46  1  0
 48 49  1  0
 48 47  1  0
 50 53  1  1
 50 51  1  0
 52 50  1  0
 54 63  1  0
 54  4  1  0
 55 61  1  0
 55 63  1  0
 56 61  1  0
 57 58  1  0
 57 56  1  0
 59 58  1  0
 59 68  1  0
 59 60  1  0
 61 60  1  0
 62 55  2  0
 63 64  1  0
 65 66  2  0
 66 85  1  0
 67 66  1  0
 67 70  1  0
 68 69  1  0
 68 65  1  0
 69 67  2  0
 70 71  1  0
 71 72  2  0
 73 76  1  0
 73 72  1  0
 74 73  2  0
 75 74  1  0
 75 70  2  0
 76 77  1  0
 77 78  1  0
 78 79  2  0
 80 79  1  0
 80 84  1  0
 81 80  2  0
 82 77  2  0
 82 81  1  0
 83 82  1  0
 85 86  1  0
 86 89  1  0
 86 88  1  0
 87 85  2  0
 90 65  1  0
 90 91  1  0
 92 90  1  0
M  ISO  4  12 101  13 101  55 100  63 100
M  END
>  <TORSDO>  (89) 
F 18

>  <SCORE>  (89) 
-17.336

>  <name>  (89) 
88

>  <ligand_id>  (89) 
88

>  <original_smiles>  (89) 
[H]c1c([H])c([H])c2c(c1[H])C([H])([H])C([H])([H])C([H])([H])C2([H])N([H])C(=O)C1([H])N(C(=O)C([H])(N([H])C(=O)C([H])(N([H])C([H])([H])[H])C([H])([H])[H])C(C([H])([H])[H])(C([H])([H])[H])C([H])([H])[H])C([H])([H])c2c([H])c(OC([H])([H])c3nc(C([H])([H])N([H])C(=O)N4C([H])([H])C([H])([H])C([H])([H])C([H])(n5nc(-c6c([H])c([H])c(Oc7c([H])c([H])c(F)c([H])c7F)c([H])c6[H])c(C(=O)N([H])[H])c5N([H])[H])C4([H])[H])nc4c3C(=O)N([H])C4([H])[H])c([H])c([H])c2C1([H])[H]

>  <smiles>  (89) 
[H]c1c([H])c([H])c2c(c1[H])C([H])([H])C([H])([H])C([H])([H])C2([H])N([H])C(=O)C1([H])N(C(=O)C([H])(N([H])C(=O)C([H])(N([H])C([H])([H])[H])C([H])([H])[H])C(C([H])([H])[H])(C([H])([H])[H])C([H])([H])[H])C([H])([H])c2c([H])c(OC([H])([H])c3nc(C([H])([H])N([H])C(=O)N4C([H])([H])C([H])([H])C([H])([H])C([H])(n5nc(-c6c([H])c([H])c(Oc7c([H])c([H])c(F)c([H])c7F)c([H])c6[H])c(C(=O)N([H])[H])c5N([H])[H])C4([H])[H])nc4c3C(=O)N([H])C4([H])[H])c([H])c([H])c2C1([H])[H]

$$$$
89:0:0
     RDKit          3D

 92101  0  0  1  0  0  0  0  0999 V2000
  -28.8440  -20.0620   21.9770 C   0  0  0  0  0  3  0  0  0  0  0  0
  -29.0700  -18.6760   21.8010 C   0  0  0  0  0  3  0  0  0  0  0  0
  -29.6870  -19.0340   19.4650 C   0  0  0  0  0  3  0  0  0  0  0  0
  -29.0330  -20.9280   20.8850 C   0  0  0  0  0  0  0  0  0  0  0  0
  -29.4490  -20.4340   19.6520 C   0  0  0  0  0  0  0  0  0  0  0  0
  -29.4920  -18.1280   20.5600 C   0  0  0  0  0  0  0  0  0  0  0  0
  -28.8270  -22.3980   20.8280 C   0  0  0  0  0  0  0  0  0  0  0  0
  -29.1310  -22.8560   19.4480 C   0  0  0  0  0  0  0  0  0  0  0  0
  -29.0320  -24.1480   18.9940 C   0  0  0  0  0  3  0  0  0  0  0  0
  -29.5560  -21.5960   18.6570 C   0  0  0  0  0  2  0  0  0  0  0  0
  -28.4600  -23.1040   21.7710 O   0  0  0  0  0  0  0  0  0  0  0  0
  -29.6200  -16.5730   20.4960 C   0  0  0  0  0  2  0  0  0  0  0  0
  -31.1890  -14.7820   19.4950 C   0  0  0  0  0  0  0  0  0  0  0  0
  -30.7800  -12.5400   18.5340 C   0  0  0  0  0  2  0  0  0  0  0  0
  -29.7170  -12.6360   17.4210 C   0  0  0  0  0  2  0  0  0  0  0  0
  -28.3040  -12.4930   18.0160 C   0  0  0  0  0  2  0  0  0  0  0  0
  -28.0800  -13.4010   19.2560 C   0  0  0  0  0  3  0  0  0  0  0  0
  -29.2570  -13.3050   20.2520 C   0  0  0  0  0  2  0  0  0  0  0  0
  -30.4820  -13.6110   19.5060 N   0  0  0  0  0  0  0  0  0  0  0  0
  -32.3290  -14.8270   19.0360 O   0  0  0  0  0  0  0  0  0  0  0  0
  -30.5230  -15.9700   19.5020 N   0  0  0  0  0  0  0  0  0  0  0  0
  -31.0710  -16.6760   19.0370 H   0  0  0  0  0  0  0  0  0  0  0  0
  -25.8250  -14.0230   20.3130 C   0  0  0  0  0  0  0  0  0  0  0  0
  -24.7860  -13.2590   20.7720 C   0  0  0  0  0  0  0  0  0  0  0  0
  -25.1910  -11.8990   20.6020 C   0  0  0  0  0  0  0  0  0  0  0  0
  -26.7980  -13.1280   19.8970 N   0  0  0  0  0  0  0  0  0  0  0  0
  -26.4290  -11.8430   20.1300 N   0  0  0  0  0  0  0  0  0  0  0  0
  -24.4470  -10.6500   20.8070 C   0  0  0  0  0  0  0  0  0  0  0  0
  -24.8660   -9.6870   21.7510 C   0  0  0  0  0  3  0  0  0  0  0  0
  -24.1230   -8.5020   21.9430 C   0  0  0  0  0  3  0  0  0  0  0  0
  -22.9480   -8.2720   21.1890 C   0  0  0  0  0  0  0  0  0  0  0  0
  -22.5480   -9.2220   20.2340 C   0  0  0  0  0  3  0  0  0  0  0  0
  -23.2910  -10.3990   20.0400 C   0  0  0  0  0  3  0  0  0  0  0  0
  -22.1760   -7.1390   21.2900 O   0  0  0  0  0  0  0  0  0  0  0  0
  -21.9610   -6.5200   22.4960 C   0  0  0  0  0  0  0  0  0  0  0  0
  -21.3520   -7.1890   23.5790 C   0  0  0  0  0  3  0  0  0  0  0  0
  -21.0880   -6.4940   24.7760 C   0  0  0  0  0  3  0  0  0  0  0  0
  -21.4210   -5.1320   24.8900 C   0  0  0  0  0  0  0  0  0  0  0  0
  -22.0230   -4.4620   23.8100 C   0  0  0  0  0  3  0  0  0  0  0  0
  -22.2890   -5.1540   22.6150 C   0  0  0  0  0  0  0  0  0  0  0  0
  -22.8490   -4.4980   21.5700 F   0  0  0  0  0  0  0  0  0  0  0  0
  -21.1600   -4.4620   26.0370 F   0  0  0  0  0  0  0  0  0  0  0  0
  -23.4530  -13.7590   21.2470 C   0  0  0  0  0  0  0  0  0  0  0  0
  -22.8290  -13.0500   22.1810 N   0  0  0  0  0  0  0  0  0  0  0  0
  -22.9780  -14.8130   20.8250 O   0  0  0  0  0  0  0  0  0  0  0  0
  -23.2290  -12.1950   22.5410 H   0  0  0  0  0  0  0  0  0  0  0  0
  -21.9410  -13.3650   22.5420 H   0  0  0  0  0  0  0  0  0  0  0  0
  -26.0110  -15.3960   20.1910 N   0  0  0  0  0  0  0  0  0  0  0  0
  -25.2800  -16.0590   20.4240 H   0  0  0  0  0  0  0  0  0  0  0  0
  -26.8040  -15.8250   19.7310 H   0  0  0  0  0  0  0  0  0  0  0  0
  -28.5880  -25.4110   19.7800 C   0  0  0  0  0  2  0  0  0  0  0  0
  -28.5670  -26.6760   19.0400 O   0  0  0  0  0  0  0  0  0  0  0  0
  -24.6330  -31.3850   22.7780 C   0  0  0  0  0  0  0  0  0  0  0  0
  -27.3960  -27.4180   19.1480 C   0  0  0  0  0  0  0  0  0  0  0  0
  -23.4490  -30.0960   21.0320 C   0  0  0  0  0  3  0  0  0  0  0  0
  -24.9330  -28.8150   19.3940 C   0  0  0  0  0  0  0  0  0  0  0  0
  -25.9460  -30.6190   20.7940 C   0  0  0  0  0  2  0  0  0  0  0  0
  -26.0880  -29.3310   19.9980 C   0  0  0  0  0  0  0  0  0  0  0  0
  -27.3260  -28.6450   19.8650 C   0  0  0  0  0  3  0  0  0  0  0  0
  -26.2230  -26.9400   18.5290 C   0  0  0  0  0  3  0  0  0  0  0  0
  -24.9990  -27.6230   18.6530 C   0  0  0  0  0  3  0  0  0  0  0  0
  -23.6450  -29.5880   19.5800 C   0  0  0  0  0  2  0  0  0  0  0  0
  -24.6960  -30.7110   21.5920 N   0  0  0  0  0  0  0  0  0  0  0  0
  -23.5590  -31.5270   23.3800 O   0  0  0  0  0  0  0  0  0  0  0  0
  -22.8950  -28.9390   21.8950 C   0  0  0  0  0  0  0  0  0  0  0  0
  -21.5770  -28.6950   21.8040 N   0  0  0  0  0  0  0  0  0  0  0  0
  -23.6480  -28.2670   22.6060 O   0  0  0  0  0  0  0  0  0  0  0  0
  -21.0270  -29.2950   21.2060 H   0  0  0  0  0  0  0  0  0  0  0  0
  -18.2970  -27.2610   22.3090 C   0  0  0  0  0  0  0  0  0  0  0  0
  -20.8490  -27.6300   22.4940 C   0  0  0  0  0  3  0  0  0  0  0  0
  -20.9940  -26.2830   21.7470 C   0  0  0  0  0  2  0  0  0  0  0  0
  -19.8590  -26.0180   20.7540 C   0  0  0  0  0  2  0  0  0  0  0  0
  -18.5070  -26.0100   21.4720 C   0  0  0  0  0  2  0  0  0  0  0  0
  -19.3970  -28.0300   22.7760 C   0  0  0  0  0  0  0  0  0  0  0  0
  -19.1440  -29.2020   23.5220 C   0  0  0  0  0  3  0  0  0  0  0  0
  -17.8260  -29.6070   23.8030 C   0  0  0  0  0  3  0  0  0  0  0  0
  -16.7430  -28.8340   23.3520 C   0  0  0  0  0  3  0  0  0  0  0  0
  -16.9790  -27.6620   22.6120 C   0  0  0  0  0  3  0  0  0  0  0  0
  -25.9010  -32.0260   23.4210 C   0  0  0  0  0  3  0  0  0  0  0  0
  -25.5240  -33.3610   23.9070 N   0  0  0  0  0  0  0  0  0  0  0  0
  -25.7860  -34.5070   23.2650 C   0  0  0  0  0  0  0  0  0  0  0  0
  -26.4430  -34.5530   22.2200 O   0  0  0  0  0  0  0  0  0  0  0  0
  -24.9350  -33.3940   24.7260 H   0  0  0  0  0  0  0  0  0  0  0  0
  -23.9600  -36.2300   23.1300 C   0  0  0  0  0  1  0  0  0  0  0  0
  -25.2350  -35.8080   23.8770 C   0  0  0  0  0  3  0  0  0  0  0  0
  -27.3280  -36.7190   24.7840 C   0  0  0  0  0  1  0  0  0  0  0  0
  -26.2080  -36.9220   23.8680 N   0  0  0  0  0  0  0  0  0  0  0  0
  -25.7550  -37.7990   24.1110 H   0  0  0  0  0  0  0  0  0  0  0  0
  -26.5110  -31.1610   24.5910 C   0  0  1  0  0  0  0  0  0  0  0  0
  -25.4770  -30.7500   25.6650 C   0  0  0  0  0  1  0  0  0  0  0  0
  -27.1540  -29.8680   24.0360 C   0  0  0  0  0  1  0  0  0  0  0  0
  -27.6410  -31.9500   25.2930 C   0  0  0  0  0  1  0  0  0  0  0  0
  2  1  1  0
  3  5  2  0
  3  6  1  0
  4  1  2  0
  5  4  1  0
  6  2  2  0
  7  4  1  0
  7 11  2  0
  8  7  1  0
  9  8  2  0
  9 51  1  0
 10  8  1  0
 10  5  1  0
 12  6  1  0
 13 21  1  0
 13 19  1  0
 14 19  1  0
 15 16  1  0
 15 14  1  0
 17 16  1  0
 17 26  1  0
 17 18  1  0
 19 18  1  0
 20 13  2  0
 21 12  1  0
 22 21  1  0
 23 24  2  0
 24 43  1  0
 25 24  1  0
 25 28  1  0
 26 27  1  0
 26 23  1  0
 27 25  2  0
 28 29  1  0
 29 30  2  0
 31 34  1  0
 31 30  1  0
 32 31  2  0
 33 32  1  0
 33 28  2  0
 34 35  1  0
 35 40  2  0
 35 36  1  0
 36 37  2  0
 37 38  1  0
 38 42  1  0
 39 38  2  0
 40 39  1  0
 41 40  1  0
 43 44  1  0
 44 46  1  0
 44 47  1  0
 45 43  2  0
 48 23  1  0
 48 49  1  0
 50 48  1  0
 52 54  1  0
 52 51  1  0
 53 64  2  0
 54 59  1  0
 55 63  1  0
 55 65  1  0
 56 62  1  0
 56 58  1  0
 57 63  1  0
 58 57  1  0
 59 58  2  0
 60 61  1  0
 60 54  2  0
 61 56  2  0
 62 55  1  0
 63 53  1  0
 65 67  2  0
 66 65  1  0
 68 66  1  0
 69 78  2  0
 69 74  1  0
 70 66  1  0
 70 74  1  0
 71 70  1  0
 72 73  1  0
 72 71  1  0
 73 69  1  0
 74 75  2  0
 75 76  1  0
 77 76  2  0
 78 77  1  0
 79 53  1  0
 79 80  1  0
 79 89  1  0
 80 83  1  0
 81 85  1  0
 81 80  1  0
 82 81  2  0
 85 84  1  0
 87 85  1  0
 87 88  1  0
 87 86  1  0
 89 92  1  1
 89 90  1  0
 91 89  1  0
M  ISO  4  13 100  21 100  51 101  52 101
M  END
>  <TORSDO>  (90) 
F 18

>  <SCORE>  (90) 
-9.328

>  <name>  (90) 
89

>  <ligand_id>  (90) 
89

>  <original_smiles>  (90) 
[H]C(=C1C(=O)c2c([H])c([H])c(C([H])([H])N([H])C(=O)N3C([H])([H])C([H])([H])C([H])([H])C([H])(n4nc(-c5c([H])c([H])c(Oc6c([H])c([H])c(F)c([H])c6F)c([H])c5[H])c(C(=O)N([H])[H])c4N([H])[H])C3([H])[H])c([H])c2C1([H])[H])C([H])([H])Oc1c([H])c([H])c2c(c1[H])C([H])([H])N(C(=O)C([H])(N([H])C(=O)C([H])(N([H])C([H])([H])[H])C([H])([H])[H])C(C([H])([H])[H])(C([H])([H])[H])C([H])([H])[H])C([H])(C(=O)N([H])C1([H])c3c([H])c([H])c([H])c([H])c3C([H])([H])C([H])([H])C1([H])[H])C2([H])[H]

>  <smiles>  (90) 
[H]C(=C1C(=O)c2c([H])c([H])c(C([H])([H])N([H])C(=O)N3C([H])([H])C([H])([H])C([H])([H])C([H])(n4nc(-c5c([H])c([H])c(Oc6c([H])c([H])c(F)c([H])c6F)c([H])c5[H])c(C(=O)N([H])[H])c4N([H])[H])C3([H])[H])c([H])c2C1([H])[H])C([H])([H])Oc1c([H])c([H])c2c(c1[H])C([H])([H])N(C(=O)C([H])(N([H])C(=O)C([H])(N([H])C([H])([H])[H])C([H])([H])[H])C(C([H])([H])[H])(C([H])([H])[H])C([H])([H])[H])C([H])(C(=O)N([H])C1([H])c3c([H])c([H])c([H])c([H])c3C([H])([H])C([H])([H])C1([H])[H])C2([H])[H]

$$$$
90:0:0
     RDKit          3D

100109  0  0  1  0  0  0  0  0999 V2000
  -27.6260  -23.6580   18.5660 C   0  0  0  0  0  3  0  0  0  0  0  0
  -28.5960  -23.6510   19.5850 C   0  0  0  0  0  3  0  0  0  0  0  0
  -26.8810  -22.4700   18.4710 C   0  0  0  0  0  0  0  0  0  0  0  0
  -28.5350  -21.2190   19.4570 C   0  0  0  0  0  0  0  0  0  0  0  0
  -24.7510  -23.5130   18.7150 C   0  0  0  0  0  1  0  0  0  0  0  0
  -29.0910  -22.3800   19.9420 N   0  0  0  0  0  0  0  0  0  0  0  0
  -27.3480  -21.2630   18.8450 N   0  0  0  0  0  0  0  0  0  0  0  0
  -25.5830  -22.5490   17.9700 N   0  0  0  0  0  0  0  0  0  0  0  0
  -29.1870  -19.9110   19.5690 N   0  0  0  0  0  0  0  0  0  0  0  0
  -25.1480  -21.6410   17.8500 H   0  0  0  0  0  0  0  0  0  0  0  0
  -30.0860  -19.9810   20.0260 H   0  0  0  0  0  0  0  0  0  0  0  0
  -28.0820  -18.4100   21.1450 C   0  0  0  0  0  2  0  0  0  0  0  0
  -29.3340  -17.5350   21.4290 C   0  0  0  0  0  2  0  0  0  0  0  0
  -28.5270  -18.5150   19.6640 C   0  0  0  0  0  3  0  0  0  0  0  0
  -29.1020  -16.9820   20.0250 C   0  0  0  0  0  3  0  0  0  0  0  0
  -30.8200  -14.8800   19.5090 C   0  0  0  0  0  0  0  0  0  0  0  0
  -30.5330  -12.5170   18.6910 C   0  0  0  0  0  2  0  0  0  0  0  0
  -29.5160  -12.4220   17.5350 C   0  0  0  0  0  2  0  0  0  0  0  0
  -28.1030  -12.2160   18.1100 C   0  0  0  0  0  2  0  0  0  0  0  0
  -27.7940  -13.1980   19.2680 C   0  0  0  0  0  3  0  0  0  0  0  0
  -28.9370  -13.3210   20.3000 C   0  0  0  0  0  2  0  0  0  0  0  0
  -30.1370  -13.6800   19.5370 N   0  0  0  0  0  0  0  0  0  0  0  0
  -32.0120  -14.8350   19.1900 O   0  0  0  0  0  0  0  0  0  0  0  0
  -30.2340  -16.1600   19.3840 N   0  0  0  0  0  0  0  0  0  0  0  0
  -30.9200  -16.7680   18.9710 H   0  0  0  0  0  0  0  0  0  0  0  0
  -25.4990  -13.7800   20.2190 C   0  0  0  0  0  0  0  0  0  0  0  0
  -24.4630  -13.0080   20.6520 C   0  0  0  0  0  0  0  0  0  0  0  0
  -24.9120  -11.6500   20.5720 C   0  0  0  0  0  0  0  0  0  0  0  0
  -26.5110  -12.9020   19.8870 N   0  0  0  0  0  0  0  0  0  0  0  0
  -26.1760  -11.6170   20.1670 N   0  0  0  0  0  0  0  0  0  0  0  0
  -24.2040  -10.3850   20.8120 C   0  0  0  0  0  0  0  0  0  0  0  0
  -24.6230   -9.4650   21.7980 C   0  0  0  0  0  3  0  0  0  0  0  0
  -23.8950   -8.2790   22.0270 C   0  0  0  0  0  3  0  0  0  0  0  0
  -22.7410   -7.9900   21.2650 C   0  0  0  0  0  0  0  0  0  0  0  0
  -22.3340   -8.9020   20.2770 C   0  0  0  0  0  3  0  0  0  0  0  0
  -23.0610  -10.0830   20.0450 C   0  0  0  0  0  3  0  0  0  0  0  0
  -21.9960   -6.8440   21.3930 O   0  0  0  0  0  0  0  0  0  0  0  0
  -21.8070   -6.2440   22.6080 C   0  0  0  0  0  0  0  0  0  0  0  0
  -21.2210   -6.9300   23.6980 C   0  0  0  0  0  3  0  0  0  0  0  0
  -20.9900   -6.2520   24.9090 C   0  0  0  0  0  3  0  0  0  0  0  0
  -21.3260   -4.8920   25.0270 C   0  0  0  0  0  0  0  0  0  0  0  0
  -21.9140   -4.2100   23.9540 C   0  0  0  0  0  3  0  0  0  0  0  0
  -22.1570   -4.8840   22.7400 C   0  0  0  0  0  0  0  0  0  0  0  0
  -22.7060   -4.2200   21.6930 F   0  0  0  0  0  0  0  0  0  0  0  0
  -21.1000   -4.2370   26.1880 F   0  0  0  0  0  0  0  0  0  0  0  0
  -23.0970  -13.5020   21.0590 C   0  0  0  0  0  0  0  0  0  0  0  0
  -22.4500  -12.7930   21.9750 N   0  0  0  0  0  0  0  0  0  0  0  0
  -22.6310  -14.5490   20.5990 O   0  0  0  0  0  0  0  0  0  0  0  0
  -21.5710  -13.1150   22.3550 H   0  0  0  0  0  0  0  0  0  0  0  0
  -22.7980  -11.8870   22.2550 H   0  0  0  0  0  0  0  0  0  0  0  0
  -25.6660  -15.1520   20.0450 N   0  0  0  0  0  0  0  0  0  0  0  0
  -26.4980  -15.5670   19.6480 H   0  0  0  0  0  0  0  0  0  0  0  0
  -24.9430  -15.8350   20.2380 H   0  0  0  0  0  0  0  0  0  0  0  0
  -27.4320  -24.8070   17.5530 C   0  0  0  0  0  2  0  0  0  0  0  0
  -27.9130  -25.2900   15.1470 C   0  0  0  0  0  1  0  0  0  0  0  0
  -27.4670  -24.3150   16.1550 N   0  0  0  0  0  4  0  0  0  0  0  0
  -28.0380  -23.4890   16.0690 H   0  0  0  0  0  0  0  0  0  0  0  0
  -26.5180  -24.0380   15.9390 H   0  0  0  0  0  0  0  0  0  0  0  0
  -28.9680  -24.9890   20.4190 C   0  0  0  0  0  2  0  0  0  0  0  0
  -28.8350  -26.4220   19.9400 O   0  0  0  0  0  0  0  0  0  0  0  0
  -24.8170  -31.6220   23.1950 C   0  0  0  0  0  0  0  0  0  0  0  0
  -27.6650  -27.2190   20.0600 C   0  0  0  0  0  0  0  0  0  0  0  0
  -23.7160  -30.2440   21.4810 C   0  0  0  0  0  3  0  0  0  0  0  0
  -25.2520  -28.8010   20.0420 C   0  0  0  0  0  0  0  0  0  0  0  0
  -26.2510  -30.6550   21.3680 C   0  0  0  0  0  2  0  0  0  0  0  0
  -26.4010  -29.3020   20.6670 C   0  0  0  0  0  0  0  0  0  0  0  0
  -27.6190  -28.5410   20.6340 C   0  0  0  0  0  3  0  0  0  0  0  0
  -26.4620  -26.7580   19.4930 C   0  0  0  0  0  3  0  0  0  0  0  0
  -25.2850  -27.5370   19.4450 C   0  0  0  0  0  3  0  0  0  0  0  0
  -23.9900  -29.6350   20.0820 C   0  0  0  0  0  2  0  0  0  0  0  0
  -24.9470  -30.8580   22.0700 N   0  0  0  0  0  0  0  0  0  0  0  0
  -23.7100  -31.8370   23.7110 O   0  0  0  0  0  0  0  0  0  0  0  0
  -23.0660  -29.1670   22.3790 C   0  0  0  0  0  0  0  0  0  0  0  0
  -21.7460  -28.9540   22.2250 N   0  0  0  0  0  0  0  0  0  0  0  0
  -23.7490  -28.5220   23.1800 O   0  0  0  0  0  0  0  0  0  0  0  0
  -21.2540  -29.5220   21.5500 H   0  0  0  0  0  0  0  0  0  0  0  0
  -18.3960  -27.6410   22.6280 C   0  0  0  0  0  0  0  0  0  0  0  0
  -20.9450  -27.9620   22.9410 C   0  0  0  0  0  3  0  0  0  0  0  0
  -21.0930  -26.5620   22.3010 C   0  0  0  0  0  2  0  0  0  0  0  0
  -20.0120  -26.2540   21.2590 C   0  0  0  0  0  2  0  0  0  0  0  0
  -18.6200  -26.3290   21.8930 C   0  0  0  0  0  2  0  0  0  0  0  0
  -19.4890  -28.4120   23.1060 C   0  0  0  0  0  0  0  0  0  0  0  0
  -19.2260  -29.6390   23.7530 C   0  0  0  0  0  3  0  0  0  0  0  0
  -17.9060  -30.0950   23.9290 C   0  0  0  0  0  3  0  0  0  0  0  0
  -16.8280  -29.3200   23.4690 C   0  0  0  0  0  3  0  0  0  0  0  0
  -17.0740  -28.0950   22.8240 C   0  0  0  0  0  3  0  0  0  0  0  0
  -26.0560  -32.2830   23.8730 C   0  0  0  0  0  3  0  0  0  0  0  0
  -26.5340  -31.5140   25.1670 C   0  0  1  0  0  0  0  0  0  0  0  0
  -25.4050  -31.2500   26.1910 C   0  0  0  0  0  1  0  0  0  0  0  0
  -27.1630  -30.1510   24.7980 C   0  0  0  0  0  1  0  0  0  0  0  0
  -27.6430  -32.3310   25.8770 C   0  0  0  0  0  1  0  0  0  0  0  0
  -25.6980  -33.6710   24.2010 N   0  0  0  0  0  0  0  0  0  0  0  0
  -26.0090  -34.7340   23.4470 C   0  0  0  0  0  0  0  0  0  0  0  0
  -26.6990  -34.6510   22.4280 O   0  0  0  0  0  0  0  0  0  0  0  0
  -25.0810  -33.8070   24.9880 H   0  0  0  0  0  0  0  0  0  0  0  0
  -24.2380  -36.4770   23.0680 C   0  0  0  0  0  1  0  0  0  0  0  0
  -25.4770  -36.1070   23.8980 C   0  0  0  0  0  3  0  0  0  0  0  0
  -27.5680  -37.0550   24.7730 C   0  0  0  0  0  1  0  0  0  0  0  0
  -26.4820  -37.1900   23.8030 N   0  0  0  0  0  0  0  0  0  0  0  0
  -26.0470  -38.0980   23.9380 H   0  0  0  0  0  0  0  0  0  0  0  0
  1 54  1  0
  1  2  1  0
  2  6  1  0
  2 59  1  0
  3  1  1  0
  3  7  2  0
  4  9  1  0
  4  6  2  0
  7  4  1  0
  8  3  1  0
  8  5  1  0
  9 11  1  0
 10  8  1  0
 12 13  1  0
 14  9  1  0
 14 15  1  0
 14 12  1  0
 15 24  1  0
 15 13  1  0
 16 22  1  0
 17 22  1  0
 18 19  1  0
 18 17  1  0
 20 19  1  0
 20 29  1  0
 20 21  1  0
 22 21  1  0
 23 16  2  0
 24 16  1  0
 25 24  1  0
 26 27  2  0
 27 46  1  0
 28 27  1  0
 28 31  1  0
 29 30  1  0
 29 26  1  0
 30 28  2  0
 31 32  1  0
 32 33  2  0
 34 37  1  0
 34 33  1  0
 35 34  2  0
 36 35  1  0
 36 31  2  0
 37 38  1  0
 38 43  2  0
 38 39  1  0
 39 40  2  0
 40 41  1  0
 41 45  1  0
 42 41  2  0
 43 42  1  0
 44 43  1  0
 46 47  1  0
 47 50  1  0
 47 49  1  0
 48 46  2  0
 51 26  1  0
 51 53  1  0
 52 51  1  0
 55 56  1  0
 56 54  1  0
 57 56  1  0
 58 56  1  0
 60 62  1  0
 60 59  1  0
 61 72  2  0
 62 67  1  0
 63 71  1  0
 63 73  1  0
 64 70  1  0
 64 66  1  0
 65 71  1  0
 66 65  1  0
 67 66  2  0
 68 62  2  0
 69 68  1  0
 69 64  2  0
 70 63  1  0
 71 61  1  0
 73 75  2  0
 74 73  1  0
 76 74  1  0
 77 86  2  0
 77 82  1  0
 78 74  1  0
 78 82  1  0
 79 78  1  0
 80 81  1  0
 80 79  1  0
 81 77  1  0
 82 83  2  0
 83 84  1  0
 85 84  2  0
 86 85  1  0
 87 61  1  0
 87 92  1  0
 87 88  1  0
 88 91  1  1
 88 89  1  0
 90 88  1  0
 92 95  1  0
 93 97  1  0
 93 92  1  0
 94 93  2  0
 97 96  1  0
 99 97  1  0
 99100  1  0
 99 98  1  0
M  ISO  4  16 100  24 100  59 101  60 101
M  END
>  <TORSDO>  (91) 
F 20

>  <SCORE>  (91) 
-11.283

>  <name>  (91) 
90

>  <ligand_id>  (91) 
90

>  <original_smiles>  (91) 
[H]c1c([H])c([H])c2c(c1[H])C([H])([H])C([H])([H])C([H])([H])C2([H])N([H])C(=O)C1([H])N(C(=O)C([H])(N([H])C(=O)C([H])(N([H])C([H])([H])[H])C([H])([H])[H])C(C([H])([H])[H])(C([H])([H])[H])C([H])([H])[H])C([H])([H])c2c([H])c(OC([H])([H])c3nc(N([H])C4([H])C([H])([H])C([H])([H])C4([H])N([H])C(=O)N4C([H])([H])C([H])([H])C([H])([H])C([H])(n5nc(-c6c([H])c([H])c(Oc7c([H])c([H])c(F)c([H])c7F)c([H])c6[H])c(C(=O)N([H])[H])c5N([H])[H])C4([H])[H])nc(N([H])C([H])([H])[H])c3C([H])([H])[N+]([H])([H])C([H])([H])[H])c([H])c([H])c2C1([H])[H]

>  <smiles>  (91) 
[H]c1c([H])c([H])c2c(c1[H])C([H])([H])C([H])([H])C([H])([H])C2([H])N([H])C(=O)C1([H])N(C(=O)C([H])(N([H])C(=O)C([H])(N([H])C([H])([H])[H])C([H])([H])[H])C(C([H])([H])[H])(C([H])([H])[H])C([H])([H])[H])C([H])([H])c2c([H])c(OC([H])([H])c3nc(N([H])C4([H])C([H])([H])C([H])([H])C4([H])N([H])C(=O)N4C([H])([H])C([H])([H])C([H])([H])C([H])(n5nc(-c6c([H])c([H])c(Oc7c([H])c([H])c(F)c([H])c7F)c([H])c6[H])c(C(=O)N([H])[H])c5N([H])[H])C4([H])[H])nc(N([H])C([H])([H])[H])c3C([H])([H])[N+]([H])([H])C([H])([H])[H])c([H])c([H])c2C1([H])[H]

$$$$
91:0:0
     RDKit          3D

 91100  0  0  1  0  0  0  0  0999 V2000
  -28.3010  -20.1100   20.7530 C   0  0  0  0  0  2  0  0  0  0  0  0
  -29.0990  -19.0170   21.4930 C   0  0  0  0  0  2  0  0  0  0  0  0
  -30.4820  -21.2150   20.2600 C   0  0  0  0  0  2  0  0  0  0  0  0
  -31.2600  -20.1650   21.0330 C   0  0  0  0  0  3  0  0  0  0  0  0
  -30.0550  -18.8490   19.2540 C   0  0  0  0  0  3  0  0  0  0  0  0
  -29.2230  -20.5690   19.6230 C   0  0  1  0  0  0  0  0  0  0  0  0
  -30.4690  -18.8710   20.7750 C   0  0  2  0  0  0  0  0  0  0  0  0
  -32.7570  -20.1290   20.6550 C   0  0  0  0  0  1  0  0  0  0  0  0
  -31.2600  -17.6840   21.3860 C   0  0  0  0  0  1  0  0  0  0  0  0
  -30.6150  -15.7700   19.1270 C   0  0  0  0  0  0  0  0  0  0  0  0
  -30.6820  -13.1780   18.5330 C   0  0  0  0  0  2  0  0  0  0  0  0
  -29.6700  -12.6590   17.4750 C   0  0  0  0  0  2  0  0  0  0  0  0
  -28.3150  -12.3320   18.1200 C   0  0  0  0  0  2  0  0  0  0  0  0
  -27.8980  -13.4180   19.1400 C   0  0  0  0  0  3  0  0  0  0  0  0
  -29.0400  -13.8500   20.0890 C   0  0  0  0  0  2  0  0  0  0  0  0
  -30.1120  -14.4100   19.2350 N   0  0  0  0  0  0  0  0  0  0  0  0
  -31.8290  -15.7230   18.8660 O   0  0  0  0  0  0  0  0  0  0  0  0
  -29.8330  -17.1050   19.1320 N   0  0  0  0  0  0  0  0  0  0  0  0
  -28.8490  -16.8960   19.2050 H   0  0  0  0  0  0  0  0  0  0  0  0
  -25.7130  -13.9870   20.3060 C   0  0  0  0  0  0  0  0  0  0  0  0
  -24.6850  -13.2230   20.7810 C   0  0  0  0  0  0  0  0  0  0  0  0
  -25.0760  -11.8630   20.5830 C   0  0  0  0  0  0  0  0  0  0  0  0
  -26.6610  -13.0970   19.8390 N   0  0  0  0  0  0  0  0  0  0  0  0
  -26.3030  -11.8070   20.0710 N   0  0  0  0  0  0  0  0  0  0  0  0
  -24.3230  -10.6190   20.7960 C   0  0  0  0  0  0  0  0  0  0  0  0
  -24.7650   -9.6320   21.7050 C   0  0  0  0  0  3  0  0  0  0  0  0
  -24.0110   -8.4570   21.9110 C   0  0  0  0  0  3  0  0  0  0  0  0
  -22.7980   -8.2590   21.2080 C   0  0  0  0  0  0  0  0  0  0  0  0
  -22.3730   -9.2340   20.2870 C   0  0  0  0  0  3  0  0  0  0  0  0
  -23.1290  -10.4000   20.0790 C   0  0  0  0  0  3  0  0  0  0  0  0
  -22.0140   -7.1360   21.3240 O   0  0  0  0  0  0  0  0  0  0  0  0
  -21.8890   -6.4650   22.5140 C   0  0  0  0  0  0  0  0  0  0  0  0
  -21.3830   -7.0910   23.6730 C   0  0  0  0  0  3  0  0  0  0  0  0
  -21.2050   -6.3460   24.8550 C   0  0  0  0  0  3  0  0  0  0  0  0
  -21.5240   -4.9750   24.8810 C   0  0  0  0  0  0  0  0  0  0  0  0
  -22.0240   -4.3480   23.7240 C   0  0  0  0  0  3  0  0  0  0  0  0
  -22.2020   -5.0900   22.5440 C   0  0  0  0  0  0  0  0  0  0  0  0
  -22.6640   -4.4760   21.4280 F   0  0  0  0  0  0  0  0  0  0  0  0
  -21.3470   -4.2570   26.0140 F   0  0  0  0  0  0  0  0  0  0  0  0
  -23.3690  -13.7330   21.2910 C   0  0  0  0  0  0  0  0  0  0  0  0
  -22.7550  -13.0160   22.2260 N   0  0  0  0  0  0  0  0  0  0  0  0
  -22.9020  -14.8000   20.8960 O   0  0  0  0  0  0  0  0  0  0  0  0
  -23.1510  -12.1520   22.5650 H   0  0  0  0  0  0  0  0  0  0  0  0
  -21.8760  -13.3360   22.6080 H   0  0  0  0  0  0  0  0  0  0  0  0
  -25.9080  -15.3620   20.2020 N   0  0  0  0  0  0  0  0  0  0  0  0
  -25.1940  -16.0250   20.4850 H   0  0  0  0  0  0  0  0  0  0  0  0
  -26.6990  -15.8000   19.7510 H   0  0  0  0  0  0  0  0  0  0  0  0
  -29.4170  -22.5750   17.6930 C   0  0  0  0  0  1  0  0  0  0  0  0
  -28.5710  -22.2420   18.9330 C   0  0  0  0  0  3  0  0  0  0  0  0
  -28.0300  -23.9550   19.6300 C   0  0  0  0  0  2  0  0  0  0  0  0
  -28.0710  -25.6750   19.3310 O   0  0  0  0  0  0  0  0  0  0  0  0
  -24.7030  -31.6550   22.9600 C   0  0  0  0  0  0  0  0  0  0  0  0
  -27.0660  -26.8370   19.4960 C   0  0  0  0  0  0  0  0  0  0  0  0
  -23.4220  -30.3630   21.3060 C   0  0  0  0  0  3  0  0  0  0  0  0
  -24.7860  -28.8260   19.7070 C   0  0  0  0  0  0  0  0  0  0  0  0
  -25.9840  -30.5430   21.0370 C   0  0  0  0  0  2  0  0  0  0  0  0
  -26.0150  -29.1580   20.2890 C   0  0  0  0  0  0  0  0  0  0  0  0
  -27.1430  -28.1950   20.1460 C   0  0  0  0  0  3  0  0  0  0  0  0
  -25.7960  -26.7040   18.8830 C   0  0  0  0  0  3  0  0  0  0  0  0
  -24.7090  -27.6250   18.9810 C   0  0  0  0  0  3  0  0  0  0  0  0
  -23.5810  -29.7620   19.8800 C   0  0  0  0  0  2  0  0  0  0  0  0
  -24.7300  -30.8810   21.8230 N   0  0  0  0  0  0  0  0  0  0  0  0
  -23.6420  -31.9120   23.5560 O   0  0  0  0  0  0  0  0  0  0  0  0
  -22.7690  -29.3150   22.2480 C   0  0  0  0  0  0  0  0  0  0  0  0
  -21.4370  -29.1370   22.1660 N   0  0  0  0  0  0  0  0  0  0  0  0
  -23.4710  -28.6640   23.0240 O   0  0  0  0  0  0  0  0  0  0  0  0
  -20.9170  -29.7220   21.5260 H   0  0  0  0  0  0  0  0  0  0  0  0
  -18.1080  -27.7760   22.6950 C   0  0  0  0  0  0  0  0  0  0  0  0
  -20.6610  -28.1410   22.9160 C   0  0  0  0  0  3  0  0  0  0  0  0
  -20.8060  -26.7330   22.2890 C   0  0  0  0  0  2  0  0  0  0  0  0
  -19.6980  -26.4030   21.2830 C   0  0  0  0  0  2  0  0  0  0  0  0
  -18.3250  -26.4640   21.9590 C   0  0  0  0  0  2  0  0  0  0  0  0
  -19.2040  -28.5700   23.1280 C   0  0  0  0  0  0  0  0  0  0  0  0
  -18.9430  -29.7950   23.7820 C   0  0  0  0  0  3  0  0  0  0  0  0
  -17.6210  -30.2280   24.0000 C   0  0  0  0  0  3  0  0  0  0  0  0
  -16.5420  -29.4330   23.5790 C   0  0  0  0  0  3  0  0  0  0  0  0
  -16.7870  -28.2080   22.9330 C   0  0  0  0  0  3  0  0  0  0  0  0
  -26.0020  -32.2670   23.5660 C   0  0  0  0  0  3  0  0  0  0  0  0
  -25.6910  -33.6340   24.0310 N   0  0  0  0  0  0  0  0  0  0  0  0
  -26.0040  -34.7600   23.3760 C   0  0  0  0  0  0  0  0  0  0  0  0
  -26.6400  -34.7600   22.3200 O   0  0  0  0  0  0  0  0  0  0  0  0
  -25.1180  -33.7050   24.8580 H   0  0  0  0  0  0  0  0  0  0  0  0
  -24.2690  -36.5880   23.2770 C   0  0  0  0  0  1  0  0  0  0  0  0
  -25.5420  -36.1020   23.9880 C   0  0  0  0  0  3  0  0  0  0  0  0
  -27.7110  -36.9140   24.8160 C   0  0  0  0  0  1  0  0  0  0  0  0
  -26.5740  -37.1620   23.9320 N   0  0  0  0  0  0  0  0  0  0  0  0
  -26.1770  -38.0650   24.1790 H   0  0  0  0  0  0  0  0  0  0  0  0
  -26.5850  -31.4160   24.7630 C   0  0  1  0  0  0  0  0  0  0  0  0
  -25.5520  -31.1020   25.8710 C   0  0  0  0  0  1  0  0  0  0  0  0
  -27.1490  -30.0690   24.2590 C   0  0  0  0  0  1  0  0  0  0  0  0
  -27.7690  -32.1710   25.4140 C   0  0  0  0  0  1  0  0  0  0  0  0
  1  2  1  0
  3  4  1  0
  4  8  1  0
  5 18  1  0
  5  6  1  0
  5  7  1  0
  6 49  1  6
  6  3  1  0
  6  1  1  0
  7  4  1  0
  7  9  1  1
  7  2  1  0
 10 18  1  0
 10 16  1  0
 11 16  1  0
 12 13  1  0
 12 11  1  0
 14 13  1  0
 14 23  1  0
 14 15  1  0
 16 15  1  0
 17 10  2  0
 18 19  1  0
 20 21  2  0
 21 40  1  0
 22 21  1  0
 22 25  1  0
 23 24  1  0
 23 20  1  0
 24 22  2  0
 25 26  1  0
 26 27  2  0
 28 31  1  0
 28 27  1  0
 29 28  2  0
 30 29  1  0
 30 25  2  0
 31 32  1  0
 32 37  2  0
 32 33  1  0
 33 34  2  0
 34 35  1  0
 35 39  1  0
 36 35  2  0
 37 36  1  0
 38 37  1  0
 40 41  1  0
 41 43  1  0
 41 44  1  0
 42 40  2  0
 45 20  1  0
 45 46  1  0
 47 45  1  0
 49 48  1  0
 49 50  1  0
 51 53  1  0
 51 50  1  0
 52 63  2  0
 53 58  1  0
 54 62  1  0
 54 64  1  0
 55 61  1  0
 55 57  1  0
 56 62  1  0
 57 56  1  0
 58 57  2  0
 59 60  1  0
 59 53  2  0
 60 55  2  0
 61 54  1  0
 62 52  1  0
 64 66  2  0
 65 64  1  0
 67 65  1  0
 68 77  2  0
 68 73  1  0
 69 65  1  0
 69 73  1  0
 70 69  1  0
 71 72  1  0
 71 70  1  0
 72 68  1  0
 73 74  2  0
 74 75  1  0
 76 75  2  0
 77 76  1  0
 78 52  1  0
 78 79  1  0
 78 88  1  0
 79 82  1  0
 80 84  1  0
 80 79  1  0
 81 80  2  0
 84 83  1  0
 86 84  1  0
 86 87  1  0
 86 85  1  0
 88 91  1  1
 88 89  1  0
 90 88  1  0
M  ISO  4  10 100  18 100  50 101  51 101
M  END
>  <TORSDO>  (92) 
F 18

>  <SCORE>  (92) 
-14.585

>  <name>  (92) 
91

>  <ligand_id>  (92) 
91

>  <original_smiles>  (92) 
[H]c1c([H])c([H])c2c(c1[H])C([H])([H])C([H])([H])C([H])([H])C2([H])N([H])C(=O)C1([H])N(C(=O)C([H])(N([H])C(=O)C([H])(N([H])C([H])([H])[H])C([H])([H])[H])C(C([H])([H])[H])(C([H])([H])[H])C([H])([H])[H])C([H])([H])c2c([H])c(OC([H])([H])C([H])(C([H])([H])[H])C34C([H])([H])C([H])([H])C(C([H])([H])[H])(C3([H])N([H])C(=O)N3C([H])([H])C([H])([H])C([H])([H])C([H])(n5nc(-c6c([H])c([H])c(Oc7c([H])c([H])c(F)c([H])c7F)c([H])c6[H])c(C(=O)N([H])[H])c5N([H])[H])C3([H])[H])C([H])(C([H])([H])[H])C4([H])[H])c([H])c([H])c2C1([H])[H]

>  <smiles>  (92) 
[H]c1c([H])c([H])c2c(c1[H])C([H])([H])C([H])([H])C([H])([H])C2([H])N([H])C(=O)C1([H])N(C(=O)C([H])(N([H])C(=O)C([H])(N([H])C([H])([H])[H])C([H])([H])[H])C(C([H])([H])[H])(C([H])([H])[H])C([H])([H])[H])C([H])([H])c2c([H])c(OC([H])([H])C([H])(C([H])([H])[H])C34C([H])([H])C([H])([H])C(C([H])([H])[H])(C3([H])N([H])C(=O)N3C([H])([H])C([H])([H])C([H])([H])C([H])(n5nc(-c6c([H])c([H])c(Oc7c([H])c([H])c(F)c([H])c7F)c([H])c6[H])c(C(=O)N([H])[H])c5N([H])[H])C3([H])[H])C([H])(C([H])([H])[H])C4([H])[H])c([H])c([H])c2C1([H])[H]

$$$$
92:0:0
     RDKit          3D

 90 99  0  0  1  0  0  0  0  0999 V2000
  -29.2280  -20.5770   20.6760 C   0  0  0  0  0  3  0  0  0  0  0  0
  -31.2080  -20.6860   18.8680 C   0  0  0  0  0  3  0  0  0  0  0  0
  -29.5430  -21.9500   20.1970 C   0  0  0  0  0  0  0  0  0  0  0  0
  -30.6290  -21.9170   19.2810 C   0  0  0  0  0  0  0  0  0  0  0  0
  -29.9010  -19.3190   20.2400 C   0  0  0  0  0  0  0  0  0  0  0  0
  -31.2640  -23.1980   18.7590 C   0  0  0  0  0  1  0  0  0  0  0  0
  -30.8680  -19.4500   19.3110 N   0  0  0  0  0  0  0  0  0  0  0  0
  -30.5770  -15.0980   20.1990 C   0  0  0  0  0  0  0  0  0  0  0  0
  -30.3960  -12.7510   19.2340 C   0  0  0  0  0  2  0  0  0  0  0  0
  -29.4320  -12.6490   18.0320 C   0  0  0  0  0  2  0  0  0  0  0  0
  -27.9860  -12.4020   18.5070 C   0  0  0  0  0  2  0  0  0  0  0  0
  -27.5850  -13.3190   19.6900 C   0  0  0  0  0  3  0  0  0  0  0  0
  -28.6790  -13.4340   20.7740 C   0  0  0  0  0  2  0  0  0  0  0  0
  -29.9150  -13.8660   20.0970 N   0  0  0  0  0  0  0  0  0  0  0  0
  -31.8080  -15.0640   20.1270 O   0  0  0  0  0  0  0  0  0  0  0  0
  -28.1380  -17.3050   20.4910 C   0  0  0  0  0  2  0  0  0  0  0  0
  -28.8130  -16.7540   19.1970 C   0  0  0  0  0  2  0  0  0  0  0  0
  -29.6070  -17.7560   20.7490 C   0  0  0  0  0  3  0  0  0  0  0  0
  -29.9030  -16.3620   20.0600 N   0  0  0  0  0  0  0  0  0  0  0  0
  -25.2300  -13.9170   20.4720 C   0  0  0  0  0  0  0  0  0  0  0  0
  -24.1640  -13.1470   20.8370 C   0  0  0  0  0  0  0  0  0  0  0  0
  -24.6250  -11.7940   20.7950 C   0  0  0  0  0  0  0  0  0  0  0  0
  -26.2650  -13.0290   20.2190 N   0  0  0  0  0  0  0  0  0  0  0  0
  -25.9130  -11.7490   20.4800 N   0  0  0  0  0  0  0  0  0  0  0  0
  -23.8990  -10.5350   20.9780 C   0  0  0  0  0  0  0  0  0  0  0  0
  -24.3290   -9.5690   21.9130 C   0  0  0  0  0  3  0  0  0  0  0  0
  -23.6050   -8.3710   22.0870 C   0  0  0  0  0  3  0  0  0  0  0  0
  -22.4360   -8.1320   21.3260 C   0  0  0  0  0  0  0  0  0  0  0  0
  -22.0250   -9.0880   20.3790 C   0  0  0  0  0  3  0  0  0  0  0  0
  -22.7510  -10.2770   20.2030 C   0  0  0  0  0  3  0  0  0  0  0  0
  -21.6840   -6.9870   21.4080 O   0  0  0  0  0  0  0  0  0  0  0  0
  -21.6160   -6.2540   22.5660 C   0  0  0  0  0  0  0  0  0  0  0  0
  -21.1560   -6.8110   23.7780 C   0  0  0  0  0  3  0  0  0  0  0  0
  -21.0390   -6.0030   24.9270 C   0  0  0  0  0  3  0  0  0  0  0  0
  -21.3720   -4.6380   24.8630 C   0  0  0  0  0  0  0  0  0  0  0  0
  -21.8260   -4.0780   23.6560 C   0  0  0  0  0  3  0  0  0  0  0  0
  -21.9470   -4.8860   22.5110 C   0  0  0  0  0  0  0  0  0  0  0  0
  -22.3630   -4.3360   21.3440 F   0  0  0  0  0  0  0  0  0  0  0  0
  -21.2530   -3.8590   25.9640 F   0  0  0  0  0  0  0  0  0  0  0  0
  -22.7690  -13.6260   21.1150 C   0  0  0  0  0  0  0  0  0  0  0  0
  -22.0400  -12.9250   21.9740 N   0  0  0  0  0  0  0  0  0  0  0  0
  -22.3350  -14.6620   20.6090 O   0  0  0  0  0  0  0  0  0  0  0  0
  -22.4040  -12.0890   22.4080 H   0  0  0  0  0  0  0  0  0  0  0  0
  -21.1010  -13.2250   22.1970 H   0  0  0  0  0  0  0  0  0  0  0  0
  -25.4010  -15.2900   20.3070 N   0  0  0  0  0  0  0  0  0  0  0  0
  -24.6490  -15.9520   20.4560 H   0  0  0  0  0  0  0  0  0  0  0  0
  -26.2840  -15.7300   20.0790 H   0  0  0  0  0  0  0  0  0  0  0  0
  -28.9640  -23.4160   20.7500 C   0  0  0  0  0  2  0  0  0  0  0  0
  -28.3960  -24.7590   19.8790 C   0  0  0  0  0  2  0  0  0  0  0  0
  -28.3300  -26.2550   20.3430 O   0  0  0  0  0  0  0  0  0  0  0  0
  -24.6070  -31.9000   23.2320 C   0  0  0  0  0  0  0  0  0  0  0  0
  -27.2280  -27.1880   20.2210 C   0  0  0  0  0  0  0  0  0  0  0  0
  -23.4150  -30.4950   21.5910 C   0  0  0  0  0  3  0  0  0  0  0  0
  -24.8740  -28.9150   20.1720 C   0  0  0  0  0  0  0  0  0  0  0  0
  -25.9690  -30.7650   21.4370 C   0  0  0  0  0  2  0  0  0  0  0  0
  -26.0470  -29.3720   20.7890 C   0  0  0  0  0  0  0  0  0  0  0  0
  -27.2160  -28.5230   20.7950 C   0  0  0  0  0  3  0  0  0  0  0  0
  -26.0290  -26.8320   19.5600 C   0  0  0  0  0  3  0  0  0  0  0  0
  -24.8800  -27.6600   19.5430 C   0  0  0  0  0  3  0  0  0  0  0  0
  -23.6430  -29.8080   20.2150 C   0  0  0  0  0  2  0  0  0  0  0  0
  -24.6830  -31.0780   22.1400 N   0  0  0  0  0  0  0  0  0  0  0  0
  -23.5200  -32.1850   23.7570 O   0  0  0  0  0  0  0  0  0  0  0  0
  -22.7350  -29.4930   22.5580 C   0  0  0  0  0  0  0  0  0  0  0  0
  -21.4070  -29.3230   22.4290 N   0  0  0  0  0  0  0  0  0  0  0  0
  -23.4040  -28.8730   23.3880 O   0  0  0  0  0  0  0  0  0  0  0  0
  -20.9250  -29.8780   21.7350 H   0  0  0  0  0  0  0  0  0  0  0  0
  -18.0220  -28.1340   22.9430 C   0  0  0  0  0  0  0  0  0  0  0  0
  -20.5830  -28.3880   23.2010 C   0  0  0  0  0  3  0  0  0  0  0  0
  -20.6770  -26.9560   22.6240 C   0  0  0  0  0  2  0  0  0  0  0  0
  -19.5700  -26.6400   21.6140 C   0  0  0  0  0  2  0  0  0  0  0  0
  -18.1910  -26.7870   22.2630 C   0  0  0  0  0  2  0  0  0  0  0  0
  -19.1440  -28.8930   23.3680 C   0  0  0  0  0  0  0  0  0  0  0  0
  -18.9310  -30.1530   23.9680 C   0  0  0  0  0  3  0  0  0  0  0  0
  -17.6280  -30.6570   24.1450 C   0  0  0  0  0  3  0  0  0  0  0  0
  -16.5200  -29.8960   23.7320 C   0  0  0  0  0  3  0  0  0  0  0  0
  -16.7180  -28.6360   23.1400 C   0  0  0  0  0  3  0  0  0  0  0  0
  -25.8850  -32.5380   23.8630 C   0  0  0  0  0  3  0  0  0  0  0  0
  -25.5710  -33.9400   24.1840 N   0  0  0  0  0  0  0  0  0  0  0  0
  -25.9050  -34.9930   23.4260 C   0  0  0  0  0  0  0  0  0  0  0  0
  -26.5760  -34.8860   22.3970 O   0  0  0  0  0  0  0  0  0  0  0  0
  -24.9740  -34.0970   24.9840 H   0  0  0  0  0  0  0  0  0  0  0  0
  -24.1860  -36.7960   23.0630 C   0  0  0  0  0  1  0  0  0  0  0  0
  -25.4200  -36.3840   23.8800 C   0  0  0  0  0  3  0  0  0  0  0  0
  -27.5520  -37.2680   24.7240 C   0  0  0  0  0  1  0  0  0  0  0  0
  -26.4570  -37.4350   23.7710 N   0  0  0  0  0  0  0  0  0  0  0  0
  -26.0530  -38.3560   23.9110 H   0  0  0  0  0  0  0  0  0  0  0  0
  -26.3880  -31.7790   25.1530 C   0  0  1  0  0  0  0  0  0  0  0  0
  -25.2880  -31.5520   26.2140 C   0  0  0  0  0  1  0  0  0  0  0  0
  -26.9760  -30.3960   24.7850 C   0  0  0  0  0  1  0  0  0  0  0  0
  -27.5320  -32.5820   25.8170 C   0  0  0  0  0  1  0  0  0  0  0  0
  2  4  2  0
  2  7  1  0
  3  1  2  0
  3 48  1  0
  4  3  1  0
  5  1  1  0
  6  4  1  0
  7  5  2  0
  9 14  1  0
 10 11  1  0
 10  9  1  0
 12 11  1  0
 12 23  1  0
 12 13  1  0
 14  8  1  0
 14 13  1  0
 15  8  2  0
 16 18  1  0
 17 19  1  0
 17 16  1  0
 18  5  1  0
 19  8  1  0
 19 18  1  0
 20 21  2  0
 21 40  1  0
 22 21  1  0
 22 25  1  0
 23 20  1  0
 23 24  1  0
 24 22  2  0
 25 26  1  0
 26 27  2  0
 28 31  1  0
 28 27  1  0
 29 28  2  0
 30 29  1  0
 30 25  2  0
 31 32  1  0
 32 33  1  0
 33 34  2  0
 35 34  1  0
 35 39  1  0
 36 35  2  0
 37 32  2  0
 37 36  1  0
 38 37  1  0
 40 41  1  0
 41 44  1  0
 41 43  1  0
 42 40  2  0
 45 46  1  0
 45 20  1  0
 47 45  1  0
 49 50  1  0
 49 48  1  0
 51 62  2  0
 52 50  1  0
 52 57  1  0
 53 61  1  0
 53 63  1  0
 54 60  1  0
 54 56  1  0
 55 61  1  0
 56 57  2  0
 56 55  1  0
 58 52  2  0
 59 58  1  0
 59 54  2  0
 60 53  1  0
 61 51  1  0
 63 65  2  0
 64 63  1  0
 66 64  1  0
 67 76  2  0
 67 72  1  0
 68 64  1  0
 68 72  1  0
 69 68  1  0
 70 71  1  0
 70 69  1  0
 71 67  1  0
 72 73  2  0
 73 74  1  0
 75 74  2  0
 76 75  1  0
 77 51  1  0
 77 78  1  0
 77 87  1  0
 78 81  1  0
 79 83  1  0
 79 78  1  0
 80 79  2  0
 83 82  1  0
 85 83  1  0
 85 86  1  0
 85 84  1  0
 87 90  1  1
 87 88  1  0
 89 87  1  0
M  ISO  4   8 100  19 100  49 101  50 101
M  END
>  <TORSDO>  (93) 
F 18

>  <SCORE>  (93) 
-15.705

>  <name>  (93) 
92

>  <ligand_id>  (93) 
92

>  <original_smiles>  (93) 
[H]c1nc(C2([H])N(C(=O)N3C([H])([H])C([H])([H])C([H])([H])C([H])(n4nc(-c5c([H])c([H])c(Oc6c([H])c([H])c(F)c([H])c6F)c([H])c5[H])c(C(=O)N([H])[H])c4N([H])[H])C3([H])[H])C([H])([H])C2([H])[H])c([H])c(C([H])([H])C([H])([H])Oc2c([H])c([H])c3c(c2[H])C([H])([H])N(C(=O)C([H])(N([H])C(=O)C([H])(N([H])C([H])([H])[H])C([H])([H])[H])C(C([H])([H])[H])(C([H])([H])[H])C([H])([H])[H])C([H])(C(=O)N([H])C2([H])c4c([H])c([H])c([H])c([H])c4C([H])([H])C([H])([H])C2([H])[H])C3([H])[H])c1C([H])([H])[H]

>  <smiles>  (93) 
[H]c1nc(C2([H])N(C(=O)N3C([H])([H])C([H])([H])C([H])([H])C([H])(n4nc(-c5c([H])c([H])c(Oc6c([H])c([H])c(F)c([H])c6F)c([H])c5[H])c(C(=O)N([H])[H])c4N([H])[H])C3([H])[H])C([H])([H])C2([H])[H])c([H])c(C([H])([H])C([H])([H])Oc2c([H])c([H])c3c(c2[H])C([H])([H])N(C(=O)C([H])(N([H])C(=O)C([H])(N([H])C([H])([H])[H])C([H])([H])[H])C(C([H])([H])[H])(C([H])([H])[H])C([H])([H])[H])C([H])(C(=O)N([H])C2([H])c4c([H])c([H])c([H])c([H])c4C([H])([H])C([H])([H])C2([H])[H])C3([H])[H])c1C([H])([H])[H]

$$$$
93:0:0
     RDKit          3D

 93103  0  0  1  0  0  0  0  0999 V2000
  -29.4500  -21.5310   18.8510 C   0  0  0  0  0  3  0  0  0  0  0  0
  -29.7080  -20.8560   20.0810 C   0  0  0  0  0  0  0  0  0  0  0  0
  -29.3100  -23.1050   21.0450 C   0  0  0  0  0  0  0  0  0  0  0  0
  -29.6490  -21.7470   21.1840 C   0  0  0  0  0  0  0  0  0  0  0  0
  -29.0230  -23.7040   19.7940 C   0  0  0  0  0  0  0  0  0  0  0  0
  -29.2090  -23.7210   22.4000 C   0  0  0  0  0  3  0  0  0  0  0  0
  -29.7590  -22.5870   23.2960 C   0  0  0  0  0  3  0  0  0  0  0  0
  -29.1200  -22.8660   18.7160 N   0  0  0  0  0  0  0  0  0  0  0  0
  -29.8600  -21.4000   22.4890 O   0  0  0  0  0  0  0  0  0  0  0  0
  -31.0140  -14.8820   20.1750 C   0  0  0  0  0  0  0  0  0  0  0  0
  -30.7020  -12.6040   19.2090 C   0  0  0  0  0  2  0  0  0  0  0  0
  -29.7460  -12.6440   18.0010 C   0  0  0  0  0  2  0  0  0  0  0  0
  -28.2870  -12.4890   18.4690 C   0  0  0  0  0  2  0  0  0  0  0  0
  -27.9410  -13.4060   19.6730 C   0  0  0  0  0  3  0  0  0  0  0  0
  -29.0280  -13.3650   20.7670 C   0  0  0  0  0  2  0  0  0  0  0  0
  -30.2960  -13.7050   20.1150 N   0  0  0  0  0  0  0  0  0  0  0  0
  -32.2190  -14.8270   19.9070 O   0  0  0  0  0  0  0  0  0  0  0  0
  -29.1590  -18.3270   20.9280 C   0  0  0  0  0  2  0  0  0  0  0  0
  -30.4350  -18.5420   18.9050 C   0  0  0  0  0  2  0  0  0  0  0  0
  -29.6700  -16.8330   21.1500 C   0  0  0  0  0  2  0  0  0  0  0  0
  -31.0580  -17.1150   19.1270 C   0  0  0  0  0  2  0  0  0  0  0  0
  -30.1300  -19.3150   20.2110 C   0  0  0  0  0  3  0  0  0  0  0  0
  -30.3820  -16.1290   20.0380 N   0  0  0  0  0  0  0  0  0  0  0  0
  -25.5940  -14.0060   20.5120 C   0  0  0  0  0  0  0  0  0  0  0  0
  -24.5250  -13.2370   20.8800 C   0  0  0  0  0  0  0  0  0  0  0  0
  -24.9590  -11.8790   20.7770 C   0  0  0  0  0  0  0  0  0  0  0  0
  -26.6110  -13.1180   20.2040 N   0  0  0  0  0  0  0  0  0  0  0  0
  -26.2400  -11.8310   20.4280 N   0  0  0  0  0  0  0  0  0  0  0  0
  -24.2120  -10.6240   20.9350 C   0  0  0  0  0  0  0  0  0  0  0  0
  -24.6330   -9.6220   21.8360 C   0  0  0  0  0  3  0  0  0  0  0  0
  -23.8860   -8.4320   21.9850 C   0  0  0  0  0  3  0  0  0  0  0  0
  -22.7040   -8.2380   21.2310 C   0  0  0  0  0  0  0  0  0  0  0  0
  -22.3030   -9.2280   20.3180 C   0  0  0  0  0  3  0  0  0  0  0  0
  -23.0490  -10.4080   20.1670 C   0  0  0  0  0  3  0  0  0  0  0  0
  -21.9290   -7.1050   21.2900 O   0  0  0  0  0  0  0  0  0  0  0  0
  -21.7910   -6.3880   22.4520 C   0  0  0  0  0  0  0  0  0  0  0  0
  -21.2600   -6.9640   23.6260 C   0  0  0  0  0  3  0  0  0  0  0  0
  -21.0700   -6.1710   24.7760 C   0  0  0  0  0  3  0  0  0  0  0  0
  -21.4040   -4.8040   24.7530 C   0  0  0  0  0  0  0  0  0  0  0  0
  -21.9280   -4.2270   23.5820 C   0  0  0  0  0  3  0  0  0  0  0  0
  -22.1180   -5.0160   22.4350 C   0  0  0  0  0  0  0  0  0  0  0  0
  -22.6050   -4.4510   21.3040 F   0  0  0  0  0  0  0  0  0  0  0  0
  -21.2150   -4.0410   25.8550 F   0  0  0  0  0  0  0  0  0  0  0  0
  -23.1470  -13.7290   21.2130 C   0  0  0  0  0  0  0  0  0  0  0  0
  -22.4340  -13.0160   22.0790 N   0  0  0  0  0  0  0  0  0  0  0  0
  -22.7130  -14.7790   20.7440 O   0  0  0  0  0  0  0  0  0  0  0  0
  -22.8000  -12.1670   22.4820 H   0  0  0  0  0  0  0  0  0  0  0  0
  -21.5110  -13.3290   22.3460 H   0  0  0  0  0  0  0  0  0  0  0  0
  -25.7820  -15.3790   20.3900 N   0  0  0  0  0  0  0  0  0  0  0  0
  -25.0350  -16.0450   20.5560 H   0  0  0  0  0  0  0  0  0  0  0  0
  -26.6380  -15.8150   20.0690 H   0  0  0  0  0  0  0  0  0  0  0  0
  -28.1910  -25.0530   19.6090 C   0  0  0  0  0  2  0  0  0  0  0  0
  -28.5240  -26.4360   20.1090 O   0  0  0  0  0  0  0  0  0  0  0  0
  -24.7170  -31.7170   23.3920 C   0  0  0  0  0  0  0  0  0  0  0  0
  -27.4560  -27.3760   20.0690 C   0  0  0  0  0  0  0  0  0  0  0  0
  -23.5890  -30.4500   21.6050 C   0  0  0  0  0  3  0  0  0  0  0  0
  -25.1010  -29.0350   20.1120 C   0  0  0  0  0  0  0  0  0  0  0  0
  -26.1400  -30.7680   21.5570 C   0  0  0  0  0  2  0  0  0  0  0  0
  -26.2500  -29.4470   20.7990 C   0  0  0  0  0  0  0  0  0  0  0  0
  -27.4300  -28.6290   20.7760 C   0  0  0  0  0  3  0  0  0  0  0  0
  -26.2800  -27.0640   19.3370 C   0  0  0  0  0  3  0  0  0  0  0  0
  -25.1210  -27.8510   19.3740 C   0  0  0  0  0  3  0  0  0  0  0  0
  -23.8610  -29.9020   20.1840 C   0  0  0  0  0  2  0  0  0  0  0  0
  -24.8320  -30.9930   22.2410 N   0  0  0  0  0  0  0  0  0  0  0  0
  -23.6110  -31.9500   23.9010 O   0  0  0  0  0  0  0  0  0  0  0  0
  -22.8960  -29.3530   22.4500 C   0  0  0  0  0  0  0  0  0  0  0  0
  -21.5770  -29.1790   22.2560 N   0  0  0  0  0  0  0  0  0  0  0  0
  -23.5450  -28.6670   23.2440 O   0  0  0  0  0  0  0  0  0  0  0  0
  -21.1130  -29.7870   21.5960 H   0  0  0  0  0  0  0  0  0  0  0  0
  -18.1850  -27.9480   22.5540 C   0  0  0  0  0  0  0  0  0  0  0  0
  -20.7340  -28.1810   22.9180 C   0  0  0  0  0  3  0  0  0  0  0  0
  -20.8550  -26.8020   22.2290 C   0  0  0  0  0  2  0  0  0  0  0  0
  -19.7830  -26.5680   21.1580 C   0  0  0  0  0  2  0  0  0  0  0  0
  -18.3830  -26.6620   21.7690 C   0  0  0  0  0  2  0  0  0  0  0  0
  -19.2900  -28.6700   23.0790 C   0  0  0  0  0  0  0  0  0  0  0  0
  -19.0510  -29.8770   23.7710 C   0  0  0  0  0  3  0  0  0  0  0  0
  -17.7420  -30.3640   23.9410 C   0  0  0  0  0  3  0  0  0  0  0  0
  -16.6510  -29.6380   23.4300 C   0  0  0  0  0  3  0  0  0  0  0  0
  -16.8740  -28.4310   22.7430 C   0  0  0  0  0  3  0  0  0  0  0  0
  -25.9690  -32.3050   24.1120 C   0  0  0  0  0  3  0  0  0  0  0  0
  -25.6900  -33.7190   24.4020 N   0  0  0  0  0  0  0  0  0  0  0  0
  -26.0640  -34.7450   23.6270 C   0  0  0  0  0  0  0  0  0  0  0  0
  -26.7500  -34.6010   22.6120 O   0  0  0  0  0  0  0  0  0  0  0  0
  -25.0870  -33.9080   25.1900 H   0  0  0  0  0  0  0  0  0  0  0  0
  -24.3890  -36.5740   23.2000 C   0  0  0  0  0  1  0  0  0  0  0  0
  -25.6040  -36.1560   24.0430 C   0  0  0  0  0  3  0  0  0  0  0  0
  -27.7370  -37.0140   24.9050 C   0  0  0  0  0  1  0  0  0  0  0  0
  -26.6650  -37.1800   23.9280 N   0  0  0  0  0  0  0  0  0  0  0  0
  -26.2780  -38.1140   24.0390 H   0  0  0  0  0  0  0  0  0  0  0  0
  -26.3440  -31.5300   25.4350 C   0  0  1  0  0  0  0  0  0  0  0  0
  -25.1580  -31.3670   26.4150 C   0  0  0  0  0  1  0  0  0  0  0  0
  -26.8850  -30.1190   25.1120 C   0  0  0  0  0  1  0  0  0  0  0  0
  -27.4780  -32.2780   26.1750 C   0  0  0  0  0  1  0  0  0  0  0  0
  1  2  1  0
  2  4  2  0
  3  4  1  0
  3  6  1  0
  4  9  1  0
  5  3  2  0
  6  7  2  0
  8  1  2  0
  8  5  1  0
  9  7  1  0
 11 16  1  0
 12 13  1  0
 12 11  1  0
 14 13  1  0
 14 27  1  0
 14 15  1  0
 16 10  1  0
 16 15  1  0
 17 10  2  0
 18 20  1  0
 19 21  1  0
 19 22  1  0
 21 23  1  0
 22  2  1  0
 22 18  1  0
 23 10  1  0
 23 20  1  0
 24 25  2  0
 25 44  1  0
 26 25  1  0
 26 29  1  0
 27 28  1  0
 27 24  1  0
 28 26  2  0
 29 30  1  0
 30 31  2  0
 32 35  1  0
 32 31  1  0
 33 32  2  0
 34 33  1  0
 34 29  2  0
 35 36  1  0
 36 37  1  0
 37 38  2  0
 39 38  1  0
 39 43  1  0
 40 39  2  0
 41 36  2  0
 41 40  1  0
 42 41  1  0
 44 45  1  0
 45 48  1  0
 45 47  1  0
 46 44  2  0
 49 24  1  0
 49 50  1  0
 51 49  1  0
 52  5  1  0
 52 53  1  0
 54 65  2  0
 55 53  1  0
 55 60  1  0
 56 64  1  0
 56 66  1  0
 57 63  1  0
 57 59  1  0
 58 64  1  0
 59 58  1  0
 60 59  2  0
 61 62  1  0
 61 55  2  0
 62 57  2  0
 63 56  1  0
 64 54  1  0
 66 68  2  0
 67 66  1  0
 69 67  1  0
 70 79  2  0
 70 75  1  0
 71 67  1  0
 71 75  1  0
 72 71  1  0
 73 74  1  0
 73 72  1  0
 74 70  1  0
 75 76  2  0
 76 77  1  0
 78 77  2  0
 79 78  1  0
 80 54  1  0
 80 81  1  0
 80 90  1  0
 81 84  1  0
 82 86  1  0
 82 81  1  0
 83 82  2  0
 86 85  1  0
 88 89  1  0
 88 86  1  0
 88 87  1  0
 90 93  1  1
 90 91  1  0
 92 90  1  0
M  ISO  4  10 100  23 100  52 101  53 101
M  END
>  <TORSDO>  (94) 
F 17

>  <SCORE>  (94) 
-14.839

>  <name>  (94) 
93

>  <ligand_id>  (94) 
93

>  <original_smiles>  (94) 
[H]c1nc(C([H])([H])Oc2c([H])c([H])c3c(c2[H])C([H])([H])N(C(=O)C([H])(N([H])C(=O)C([H])(N([H])C([H])([H])[H])C([H])([H])[H])C(C([H])([H])[H])(C([H])([H])[H])C([H])([H])[H])C([H])(C(=O)N([H])C2([H])c4c([H])c([H])c([H])c([H])c4C([H])([H])C([H])([H])C2([H])[H])C3([H])[H])c2c(c1C1([H])C([H])([H])C([H])([H])N(C(=O)N3C([H])([H])C([H])([H])C([H])([H])C([H])(n4nc(-c5c([H])c([H])c(Oc6c([H])c([H])c(F)c([H])c6F)c([H])c5[H])c(C(=O)N([H])[H])c4N([H])[H])C3([H])[H])C([H])([H])C1([H])[H])OC([H])([H])C2([H])[H]

>  <smiles>  (94) 
[H]c1nc(C([H])([H])Oc2c([H])c([H])c3c(c2[H])C([H])([H])N(C(=O)C([H])(N([H])C(=O)C([H])(N([H])C([H])([H])[H])C([H])([H])[H])C(C([H])([H])[H])(C([H])([H])[H])C([H])([H])[H])C([H])(C(=O)N([H])C2([H])c4c([H])c([H])c([H])c([H])c4C([H])([H])C([H])([H])C2([H])[H])C3([H])[H])c2c(c1C1([H])C([H])([H])C([H])([H])N(C(=O)N3C([H])([H])C([H])([H])C([H])([H])C([H])(n4nc(-c5c([H])c([H])c(Oc6c([H])c([H])c(F)c([H])c6F)c([H])c5[H])c(C(=O)N([H])[H])c4N([H])[H])C3([H])[H])C([H])([H])C1([H])[H])OC([H])([H])C2([H])[H]

$$$$
94:0:0
     RDKit          3D

 89 98  0  0  1  0  0  0  0  0999 V2000
  -29.1680  -22.8210   21.8300 C   0  0  0  0  0  3  0  0  0  0  0  0
  -29.8200  -20.5440   21.8730 C   0  0  0  0  0  0  0  0  0  0  0  0
  -29.3100  -20.1850   20.6110 C   0  0  0  0  0  0  0  0  0  0  0  0
  -28.6640  -22.7760   20.5110 C   0  0  0  0  0  0  0  0  0  0  0  0
  -30.7460  -19.5000   22.4460 C   0  0  0  0  0  2  0  0  0  0  0  0
  -31.1440  -18.6180   21.2440 C   0  0  0  0  0  2  0  0  0  0  0  0
  -29.9420  -18.5410   20.2680 C   0  0  0  0  0  3  0  0  0  0  0  0
  -29.7390  -21.7630   22.4750 N   0  0  0  0  0  0  0  0  0  0  0  0
  -28.7610  -21.3920   19.9220 N   0  0  0  0  0  0  0  0  0  0  0  0
  -30.4260  -15.5550   20.0510 C   0  0  0  0  0  0  0  0  0  0  0  0
  -30.4420  -13.0800   19.1960 C   0  0  0  0  0  2  0  0  0  0  0  0
  -29.4950  -12.7790   18.0050 C   0  0  0  0  0  2  0  0  0  0  0  0
  -28.0890  -12.4290   18.5110 C   0  0  0  0  0  2  0  0  0  0  0  0
  -27.6260  -13.4290   19.5960 C   0  0  0  0  0  3  0  0  0  0  0  0
  -28.6910  -13.6850   20.6810 C   0  0  0  0  0  2  0  0  0  0  0  0
  -29.8750  -14.2330   19.9980 N   0  0  0  0  0  0  0  0  0  0  0  0
  -31.6510  -15.5360   19.8380 O   0  0  0  0  0  0  0  0  0  0  0  0
  -29.6650  -16.8580   20.1500 N   0  0  0  0  0  0  0  0  0  0  0  0
  -28.6740  -16.6730   20.1800 H   0  0  0  0  0  0  0  0  0  0  0  0
  -25.3030  -13.9600   20.4920 C   0  0  0  0  0  0  0  0  0  0  0  0
  -24.2600  -13.1710   20.8810 C   0  0  0  0  0  0  0  0  0  0  0  0
  -24.7220  -11.8210   20.7830 C   0  0  0  0  0  0  0  0  0  0  0  0
  -26.3300  -13.0910   20.1660 N   0  0  0  0  0  0  0  0  0  0  0  0
  -25.9970  -11.7960   20.4090 N   0  0  0  0  0  0  0  0  0  0  0  0
  -24.0070  -10.5540   20.9620 C   0  0  0  0  0  0  0  0  0  0  0  0
  -24.4450   -9.5750   21.8820 C   0  0  0  0  0  3  0  0  0  0  0  0
  -23.7220   -8.3750   22.0480 C   0  0  0  0  0  3  0  0  0  0  0  0
  -22.5490   -8.1440   21.2920 C   0  0  0  0  0  0  0  0  0  0  0  0
  -22.1310   -9.1080   20.3600 C   0  0  0  0  0  3  0  0  0  0  0  0
  -22.8540  -10.3000   20.1910 C   0  0  0  0  0  3  0  0  0  0  0  0
  -21.7940   -6.9970   21.3710 O   0  0  0  0  0  0  0  0  0  0  0  0
  -21.7040   -6.2730   22.5320 C   0  0  0  0  0  0  0  0  0  0  0  0
  -21.1970   -6.8330   23.7240 C   0  0  0  0  0  3  0  0  0  0  0  0
  -21.0560   -6.0320   24.8750 C   0  0  0  0  0  3  0  0  0  0  0  0
  -21.4170   -4.6720   24.8350 C   0  0  0  0  0  0  0  0  0  0  0  0
  -21.9200   -4.1110   23.6480 C   0  0  0  0  0  3  0  0  0  0  0  0
  -22.0600   -4.9100   22.4990 C   0  0  0  0  0  0  0  0  0  0  0  0
  -22.5250   -4.3580   21.3530 F   0  0  0  0  0  0  0  0  0  0  0  0
  -21.2750   -3.9010   25.9380 F   0  0  0  0  0  0  0  0  0  0  0  0
  -22.8780  -13.6350   21.2310 C   0  0  0  0  0  0  0  0  0  0  0  0
  -22.1950  -12.9050   22.1040 N   0  0  0  0  0  0  0  0  0  0  0  0
  -22.4170  -14.6770   20.7650 O   0  0  0  0  0  0  0  0  0  0  0  0
  -22.5870  -12.0570   22.4900 H   0  0  0  0  0  0  0  0  0  0  0  0
  -21.2670  -13.1860   22.3870 H   0  0  0  0  0  0  0  0  0  0  0  0
  -25.4650  -15.3380   20.3540 N   0  0  0  0  0  0  0  0  0  0  0  0
  -24.7050  -15.9930   20.4970 H   0  0  0  0  0  0  0  0  0  0  0  0
  -26.3060  -15.7780   20.0090 H   0  0  0  0  0  0  0  0  0  0  0  0
  -27.9310  -24.2840   19.9430 C   0  0  0  0  0  2  0  0  0  0  0  0
  -28.1120  -25.8950   20.3430 O   0  0  0  0  0  0  0  0  0  0  0  0
  -24.6300  -31.9540   23.2410 C   0  0  0  0  0  0  0  0  0  0  0  0
  -27.1280  -27.0270   20.2310 C   0  0  0  0  0  0  0  0  0  0  0  0
  -23.4190  -30.5590   21.6230 C   0  0  0  0  0  3  0  0  0  0  0  0
  -24.8410  -28.9430   20.1790 C   0  0  0  0  0  0  0  0  0  0  0  0
  -25.9840  -30.7520   21.4440 C   0  0  0  0  0  2  0  0  0  0  0  0
  -26.0390  -29.3370   20.7930 C   0  0  0  0  0  0  0  0  0  0  0  0
  -27.1750  -28.4050   20.7880 C   0  0  0  0  0  3  0  0  0  0  0  0
  -25.9070  -26.7950   19.5560 C   0  0  0  0  0  3  0  0  0  0  0  0
  -24.8080  -27.6960   19.5320 C   0  0  0  0  0  3  0  0  0  0  0  0
  -23.6260  -29.8690   20.2460 C   0  0  0  0  0  2  0  0  0  0  0  0
  -24.7030  -31.1150   22.1550 N   0  0  0  0  0  0  0  0  0  0  0  0
  -23.5450  -32.2470   23.7700 O   0  0  0  0  0  0  0  0  0  0  0  0
  -22.7310  -29.5670   22.5980 C   0  0  0  0  0  0  0  0  0  0  0  0
  -21.4010  -29.4010   22.4810 N   0  0  0  0  0  0  0  0  0  0  0  0
  -23.4030  -28.9470   23.4240 O   0  0  0  0  0  0  0  0  0  0  0  0
  -20.9040  -29.9850   21.8230 H   0  0  0  0  0  0  0  0  0  0  0  0
  -18.0360  -28.1370   22.9630 C   0  0  0  0  0  0  0  0  0  0  0  0
  -20.5840  -28.4660   23.2590 C   0  0  0  0  0  3  0  0  0  0  0  0
  -20.7170  -27.0230   22.7220 C   0  0  0  0  0  2  0  0  0  0  0  0
  -19.6490  -26.6840   21.6780 C   0  0  0  0  0  2  0  0  0  0  0  0
  -18.2610  -26.7800   22.3140 C   0  0  0  0  0  2  0  0  0  0  0  0
  -19.1300  -28.9390   23.3870 C   0  0  0  0  0  0  0  0  0  0  0  0
  -18.8710  -30.2090   23.9440 C   0  0  0  0  0  3  0  0  0  0  0  0
  -17.5510  -30.6730   24.0990 C   0  0  0  0  0  3  0  0  0  0  0  0
  -16.4720  -29.8620   23.7050 C   0  0  0  0  0  3  0  0  0  0  0  0
  -16.7170  -28.6000   23.1390 C   0  0  0  0  0  3  0  0  0  0  0  0
  -25.9030  -32.6010   23.8630 C   0  0  0  0  0  3  0  0  0  0  0  0
  -25.5830  -34.0020   24.1960 N   0  0  0  0  0  0  0  0  0  0  0  0
  -25.9000  -35.0630   23.4430 C   0  0  0  0  0  0  0  0  0  0  0  0
  -26.5510  -34.9670   22.3980 O   0  0  0  0  0  0  0  0  0  0  0  0
  -24.9870  -34.1470   24.9990 H   0  0  0  0  0  0  0  0  0  0  0  0
  -24.1530  -36.8610   23.1590 C   0  0  0  0  0  1  0  0  0  0  0  0
  -25.4250  -36.4540   23.9220 C   0  0  0  0  0  3  0  0  0  0  0  0
  -27.5780  -37.3540   24.6850 C   0  0  0  0  0  1  0  0  0  0  0  0
  -26.4500  -37.5110   23.7700 N   0  0  0  0  0  0  0  0  0  0  0  0
  -26.0460  -38.4320   23.9150 H   0  0  0  0  0  0  0  0  0  0  0  0
  -26.4150  -31.8470   25.1520 C   0  0  1  0  0  0  0  0  0  0  0  0
  -25.3180  -31.6030   26.2170 C   0  0  0  0  0  1  0  0  0  0  0  0
  -27.0110  -30.4730   24.7780 C   0  0  0  0  0  1  0  0  0  0  0  0
  -27.5520  -32.6580   25.8200 C   0  0  0  0  0  1  0  0  0  0  0  0
  1  8  1  0
  2  5  1  0
  2  8  2  0
  3  2  1  0
  4  1  2  0
  6  5  1  0
  7 18  1  0
  7  3  1  0
  7  6  1  0
  9  4  1  0
  9  3  2  0
 10 18  1  0
 11 16  1  0
 12 13  1  0
 12 11  1  0
 14 13  1  0
 14 23  1  0
 14 15  1  0
 16 10  1  0
 16 15  1  0
 17 10  2  0
 18 19  1  0
 20 21  2  0
 21 40  1  0
 22 21  1  0
 22 25  1  0
 23 24  1  0
 23 20  1  0
 24 22  2  0
 25 26  1  0
 26 27  2  0
 28 31  1  0
 28 27  1  0
 29 28  2  0
 30 29  1  0
 30 25  2  0
 31 32  1  0
 32 33  1  0
 33 34  2  0
 35 34  1  0
 35 39  1  0
 36 35  2  0
 37 32  2  0
 37 36  1  0
 38 37  1  0
 40 41  1  0
 41 44  1  0
 41 43  1  0
 42 40  2  0
 45 20  1  0
 45 46  1  0
 47 45  1  0
 48 49  1  0
 48  4  1  0
 50 61  2  0
 51 49  1  0
 51 56  1  0
 52 60  1  0
 52 62  1  0
 53 59  1  0
 53 55  1  0
 54 60  1  0
 55 54  1  0
 56 55  2  0
 57 51  2  0
 58 57  1  0
 58 53  2  0
 59 52  1  0
 60 50  1  0
 62 64  2  0
 63 62  1  0
 65 63  1  0
 66 75  2  0
 66 71  1  0
 67 63  1  0
 67 71  1  0
 68 67  1  0
 69 70  1  0
 69 68  1  0
 70 66  1  0
 71 72  2  0
 72 73  1  0
 74 73  2  0
 75 74  1  0
 76 50  1  0
 76 77  1  0
 76 86  1  0
 77 80  1  0
 78 82  1  0
 78 77  1  0
 79 78  2  0
 82 81  1  0
 84 85  1  0
 84 82  1  0
 84 83  1  0
 86 89  1  1
 86 87  1  0
 88 86  1  0
M  ISO  4  10 100  18 100  48 101  49 101
M  END
>  <TORSDO>  (95) 
F 17

>  <SCORE>  (95) 
-16.630

>  <name>  (95) 
94

>  <ligand_id>  (95) 
94

>  <original_smiles>  (95) 
[H]c1nc2c(nc1C([H])([H])Oc1c([H])c([H])c3c(c1[H])C([H])([H])N(C(=O)C([H])(N([H])C(=O)C([H])(N([H])C([H])([H])[H])C([H])([H])[H])C(C([H])([H])[H])(C([H])([H])[H])C([H])([H])[H])C([H])(C(=O)N([H])C1([H])c4c([H])c([H])c([H])c([H])c4C([H])([H])C([H])([H])C1([H])[H])C3([H])[H])C([H])(N([H])C(=O)N1C([H])([H])C([H])([H])C([H])([H])C([H])(n3nc(-c4c([H])c([H])c(Oc5c([H])c([H])c(F)c([H])c5F)c([H])c4[H])c(C(=O)N([H])[H])c3N([H])[H])C1([H])[H])C([H])([H])C2([H])[H]

>  <smiles>  (95) 
[H]c1nc2c(nc1C([H])([H])Oc1c([H])c([H])c3c(c1[H])C([H])([H])N(C(=O)C([H])(N([H])C(=O)C([H])(N([H])C([H])([H])[H])C([H])([H])[H])C(C([H])([H])[H])(C([H])([H])[H])C([H])([H])[H])C([H])(C(=O)N([H])C1([H])c4c([H])c([H])c([H])c([H])c4C([H])([H])C([H])([H])C1([H])[H])C3([H])[H])C([H])(N([H])C(=O)N1C([H])([H])C([H])([H])C([H])([H])C([H])(n3nc(-c4c([H])c([H])c(Oc5c([H])c([H])c(F)c([H])c5F)c([H])c4[H])c(C(=O)N([H])[H])c3N([H])[H])C1([H])[H])C([H])([H])C2([H])[H]

$$$$
95:0:0
     RDKit          3D

 85 93  0  0  1  0  0  0  0  0999 V2000
  -28.9040  -22.5320   20.3660 C   0  0  0  0  0  3  0  0  0  0  0  0
  -30.4260  -15.5300   20.0610 C   0  0  0  0  0  0  0  0  0  0  0  0
  -30.3600  -13.0510   19.2020 C   0  0  0  0  0  2  0  0  0  0  0  0
  -29.4280  -12.7440   18.0030 C   0  0  0  0  0  2  0  0  0  0  0  0
  -28.0090  -12.4310   18.4970 C   0  0  0  0  0  2  0  0  0  0  0  0
  -27.5570  -13.4170   19.6030 C   0  0  0  0  0  3  0  0  0  0  0  0
  -28.6270  -13.6750   20.6880 C   0  0  0  0  0  2  0  0  0  0  0  0
  -29.8030  -14.2310   19.9900 N   0  0  0  0  0  0  0  0  0  0  0  0
  -31.6440  -15.3990   19.8390 O   0  0  0  0  0  0  0  0  0  0  0  0
  -28.3480  -19.3880   20.7820 C   0  0  0  0  0  2  0  0  0  0  0  0
  -30.3450  -19.8460   19.8660 C   0  0  0  0  0  2  0  0  0  0  0  0
  -28.5350  -17.7050   20.4350 C   0  0  0  0  0  2  0  0  0  0  0  0
  -30.5650  -18.2090   19.4690 C   0  0  0  0  0  2  0  0  0  0  0  0
  -28.9390  -20.7010   19.9390 C   0  0  0  0  0  3  0  0  0  0  0  0
  -29.8530  -16.9530   20.0620 N   0  0  0  0  0  0  0  0  0  0  0  0
  -25.2190  -13.9350   20.4490 C   0  0  0  0  0  0  0  0  0  0  0  0
  -24.1740  -13.1450   20.8360 C   0  0  0  0  0  0  0  0  0  0  0  0
  -24.6490  -11.7980   20.7730 C   0  0  0  0  0  0  0  0  0  0  0  0
  -26.2580  -13.0720   20.1600 N   0  0  0  0  0  0  0  0  0  0  0  0
  -25.9330  -11.7790   20.4240 N   0  0  0  0  0  0  0  0  0  0  0  0
  -23.9350  -10.5290   20.9650 C   0  0  0  0  0  0  0  0  0  0  0  0
  -24.3720   -9.5680   21.9040 C   0  0  0  0  0  3  0  0  0  0  0  0
  -23.6530   -8.3680   22.0870 C   0  0  0  0  0  3  0  0  0  0  0  0
  -22.4840   -8.1180   21.3300 C   0  0  0  0  0  0  0  0  0  0  0  0
  -22.0670   -9.0660   20.3800 C   0  0  0  0  0  3  0  0  0  0  0  0
  -22.7860  -10.2580   20.1950 C   0  0  0  0  0  3  0  0  0  0  0  0
  -21.7360   -6.9680   21.4220 O   0  0  0  0  0  0  0  0  0  0  0  0
  -21.6520   -6.2550   22.5920 C   0  0  0  0  0  0  0  0  0  0  0  0
  -21.1480   -6.8290   23.7790 C   0  0  0  0  0  3  0  0  0  0  0  0
  -21.0140   -6.0410   24.9400 C   0  0  0  0  0  3  0  0  0  0  0  0
  -21.3730   -4.6810   24.9140 C   0  0  0  0  0  0  0  0  0  0  0  0
  -21.8700   -4.1060   23.7300 C   0  0  0  0  0  3  0  0  0  0  0  0
  -22.0050   -4.8910   22.5720 C   0  0  0  0  0  0  0  0  0  0  0  0
  -22.4650   -4.3270   21.4290 F   0  0  0  0  0  0  0  0  0  0  0  0
  -21.2380   -3.9220   26.0260 F   0  0  0  0  0  0  0  0  0  0  0  0
  -22.7820  -13.6090   21.1450 C   0  0  0  0  0  0  0  0  0  0  0  0
  -22.0820  -12.9040   22.0240 N   0  0  0  0  0  0  0  0  0  0  0  0
  -22.3260  -14.6360   20.6430 O   0  0  0  0  0  0  0  0  0  0  0  0
  -22.4660  -12.0730   22.4520 H   0  0  0  0  0  0  0  0  0  0  0  0
  -21.1490  -13.1980   22.2780 H   0  0  0  0  0  0  0  0  0  0  0  0
  -25.3670  -15.3100   20.2840 N   0  0  0  0  0  0  0  0  0  0  0  0
  -24.6010  -15.9580   20.4330 H   0  0  0  0  0  0  0  0  0  0  0  0
  -26.2050  -15.7580   19.9410 H   0  0  0  0  0  0  0  0  0  0  0  0
  -27.9840  -24.1150   19.9990 C   0  0  0  0  0  3  0  0  0  0  0  0
  -28.1630  -25.7820   20.2860 O   0  0  0  0  0  0  0  0  0  0  0  0
  -24.6520  -31.8790   23.2550 C   0  0  0  0  0  0  0  0  0  0  0  0
  -27.1750  -26.9330   20.2130 C   0  0  0  0  0  0  0  0  0  0  0  0
  -23.4540  -30.4980   21.6080 C   0  0  0  0  0  3  0  0  0  0  0  0
  -24.8970  -28.8820   20.1740 C   0  0  0  0  0  0  0  0  0  0  0  0
  -26.0260  -30.6750   21.4710 C   0  0  0  0  0  2  0  0  0  0  0  0
  -26.0890  -29.2610   20.8030 C   0  0  0  0  0  0  0  0  0  0  0  0
  -27.2190  -28.3100   20.7950 C   0  0  0  0  0  3  0  0  0  0  0  0
  -25.9540  -26.7310   19.5290 C   0  0  0  0  0  3  0  0  0  0  0  0
  -24.8600  -27.6420   19.5150 C   0  0  0  0  0  3  0  0  0  0  0  0
  -23.6850  -29.8180   20.2290 C   0  0  0  0  0  2  0  0  0  0  0  0
  -24.7340  -31.0470   22.1640 N   0  0  0  0  0  0  0  0  0  0  0  0
  -23.5610  -32.1720   23.7750 O   0  0  0  0  0  0  0  0  0  0  0  0
  -22.7510  -29.5040   22.5710 C   0  0  0  0  0  0  0  0  0  0  0  0
  -21.4210  -29.3390   22.4390 N   0  0  0  0  0  0  0  0  0  0  0  0
  -23.4100  -28.8800   23.4060 O   0  0  0  0  0  0  0  0  0  0  0  0
  -20.9400  -29.8920   21.7440 H   0  0  0  0  0  0  0  0  0  0  0  0
  -18.0400  -28.1070   22.9280 C   0  0  0  0  0  0  0  0  0  0  0  0
  -20.5970  -28.3960   23.2060 C   0  0  0  0  0  3  0  0  0  0  0  0
  -20.7120  -26.9640   22.6340 C   0  0  0  0  0  2  0  0  0  0  0  0
  -19.6190  -26.6320   21.6120 C   0  0  0  0  0  2  0  0  0  0  0  0
  -18.2330  -26.7630   22.2470 C   0  0  0  0  0  2  0  0  0  0  0  0
  -19.1490  -28.8810   23.3630 C   0  0  0  0  0  0  0  0  0  0  0  0
  -18.9120  -30.1370   23.9630 C   0  0  0  0  0  3  0  0  0  0  0  0
  -17.6010  -30.6210   24.1290 C   0  0  0  0  0  3  0  0  0  0  0  0
  -16.5060  -29.8460   23.7070 C   0  0  0  0  0  3  0  0  0  0  0  0
  -16.7270  -28.5910   23.1120 C   0  0  0  0  0  3  0  0  0  0  0  0
  -25.9220  -32.5180   23.8940 C   0  0  0  0  0  3  0  0  0  0  0  0
  -25.6110  -33.9230   24.2170 N   0  0  0  0  0  0  0  0  0  0  0  0
  -25.9250  -34.9780   23.4520 C   0  0  0  0  0  0  0  0  0  0  0  0
  -26.5650  -34.8700   22.4030 O   0  0  0  0  0  0  0  0  0  0  0  0
  -25.0380  -34.0800   25.0340 H   0  0  0  0  0  0  0  0  0  0  0  0
  -24.1740  -36.7680   23.1730 C   0  0  0  0  0  1  0  0  0  0  0  0
  -25.4570  -36.3720   23.9210 C   0  0  0  0  0  3  0  0  0  0  0  0
  -27.6230  -37.2830   24.6380 C   0  0  0  0  0  1  0  0  0  0  0  0
  -26.4780  -37.4280   23.7430 N   0  0  0  0  0  0  0  0  0  0  0  0
  -26.0740  -38.3490   23.8920 H   0  0  0  0  0  0  0  0  0  0  0  0
  -26.4070  -31.7620   25.1920 C   0  0  1  0  0  0  0  0  0  0  0  0
  -25.2940  -31.5510   26.2460 C   0  0  0  0  0  1  0  0  0  0  0  0
  -26.9860  -30.3720   24.8410 C   0  0  0  0  0  1  0  0  0  0  0  0
  -27.5540  -32.5560   25.8620 C   0  0  0  0  0  1  0  0  0  0  0  0
  2 15  1  0
  3  8  1  0
  4  5  1  0
  4  3  1  0
  6  5  1  0
  6 19  1  0
  6  7  1  0
  8  2  1  0
  8  7  1  0
  9  2  2  0
 11 14  1  0
 12 10  1  0
 13 11  1  0
 13 15  1  0
 14  1  1  0
 14 10  1  0
 15 12  1  0
 16 17  2  0
 17 36  1  0
 18 17  1  0
 18 21  1  0
 19 20  1  0
 19 16  1  0
 20 18  2  0
 21 22  1  0
 22 23  2  0
 24 27  1  0
 24 23  1  0
 25 24  2  0
 26 25  1  0
 26 21  2  0
 27 28  1  0
 28 29  1  0
 29 30  2  0
 31 30  1  0
 31 35  1  0
 32 31  2  0
 33 28  2  0
 33 32  1  0
 34 33  1  0
 36 37  1  0
 37 40  1  0
 37 39  1  0
 38 36  2  0
 41 42  1  0
 41 16  1  0
 43 41  1  0
 44 45  1  0
 44  1  2  0
 46 57  2  0
 47 45  1  0
 47 52  1  0
 48 56  1  0
 48 58  1  0
 49 55  1  0
 49 51  1  0
 50 56  1  0
 51 50  1  0
 52 51  2  0
 53 47  2  0
 54 53  1  0
 54 49  2  0
 55 48  1  0
 56 46  1  0
 58 60  2  0
 59 58  1  0
 61 59  1  0
 62 71  2  0
 62 67  1  0
 63 59  1  0
 63 67  1  0
 64 63  1  0
 65 66  1  0
 65 64  1  0
 66 62  1  0
 67 68  2  0
 68 69  1  0
 70 69  2  0
 71 70  1  0
 72 46  1  0
 72 73  1  0
 72 82  1  0
 73 76  1  0
 74 78  1  0
 74 73  1  0
 75 74  2  0
 78 77  1  0
 80 81  1  0
 80 78  1  0
 80 79  1  0
 82 85  1  1
 82 83  1  0
 84 82  1  0
M  ISO  4   2 100  15 100  44 101  45 101
M  END
>  <TORSDO>  (96) 
F 17

>  <SCORE>  (96) 
-16.380

>  <name>  (96) 
95

>  <ligand_id>  (96) 
95

>  <original_smiles>  (96) 
[H]c1c([H])c([H])c2c(c1[H])C([H])([H])C([H])([H])C([H])([H])C2([H])N([H])C(=O)C1([H])N(C(=O)C([H])(N([H])C(=O)C([H])(N([H])C([H])([H])[H])C([H])([H])[H])C(C([H])([H])[H])(C([H])([H])[H])C([H])([H])[H])C([H])([H])c2c([H])c(OC([H])([H])C([H])([H])C3([H])C([H])([H])C([H])([H])N(C(=O)N4C([H])([H])C([H])([H])C([H])([H])C([H])(n5nc(-c6c([H])c([H])c(Oc7c([H])c([H])c(F)c([H])c7F)c([H])c6[H])c(C(=O)N([H])[H])c5N([H])[H])C4([H])[H])C([H])([H])C3([H])[H])c([H])c([H])c2C1([H])[H]

>  <smiles>  (96) 
[H]c1c([H])c([H])c2c(c1[H])C([H])([H])C([H])([H])C([H])([H])C2([H])N([H])C(=O)C1([H])N(C(=O)C([H])(N([H])C(=O)C([H])(N([H])C([H])([H])[H])C([H])([H])[H])C(C([H])([H])[H])(C([H])([H])[H])C([H])([H])[H])C([H])([H])c2c([H])c(OC([H])([H])C([H])([H])C3([H])C([H])([H])C([H])([H])N(C(=O)N4C([H])([H])C([H])([H])C([H])([H])C([H])(n5nc(-c6c([H])c([H])c(Oc7c([H])c([H])c(F)c([H])c7F)c([H])c6[H])c(C(=O)N([H])[H])c5N([H])[H])C4([H])[H])C([H])([H])C3([H])[H])c([H])c([H])c2C1([H])[H]

$$$$
96:0:0
     RDKit          3D

 92101  0  0  1  0  0  0  0  0999 V2000
  -26.7560  -21.8120   20.0990 C   0  0  0  0  0  3  0  0  0  0  0  0
  -27.2670  -23.1060   19.9760 C   0  0  0  0  0  3  0  0  0  0  0  0
  -27.5480  -20.6680   19.8640 C   0  0  0  0  0  0  0  0  0  0  0  0
  -28.9340  -20.7670   19.5270 C   0  0  0  0  0  0  0  0  0  0  0  0
  -28.5740  -23.3110   19.5300 C   0  0  0  0  0  0  0  0  0  0  0  0
  -26.8200  -19.3350   20.0350 C   0  0  0  0  0  1  0  0  0  0  0  0
  -29.3940  -22.1270   19.3400 N   0  0  0  0  0  0  0  0  0  0  0  0
  -29.1260  -18.2880   18.7010 C   0  0  0  0  0  2  0  0  0  0  0  0
  -29.7880  -19.3030   19.6450 C   0  0  0  0  0  3  0  0  0  0  0  0
  -30.5210  -17.9080   18.9080 C   0  0  0  0  0  3  0  0  0  0  0  0
  -31.4150  -15.2820   18.9280 C   0  0  0  0  0  0  0  0  0  0  0  0
  -31.2030  -12.9210   17.9700 C   0  0  0  0  0  2  0  0  0  0  0  0
  -29.9820  -12.8040   17.0220 C   0  0  0  0  0  2  0  0  0  0  0  0
  -28.6850  -12.5300   17.8080 C   0  0  0  0  0  2  0  0  0  0  0  0
  -28.5590  -13.4330   19.0640 C   0  0  0  0  0  3  0  0  0  0  0  0
  -29.8680  -13.3990   19.8780 C   0  0  0  0  0  2  0  0  0  0  0  0
  -30.9050  -13.9680   19.0030 N   0  0  0  0  0  0  0  0  0  0  0  0
  -32.4280  -15.4120   18.2340 O   0  0  0  0  0  0  0  0  0  0  0  0
  -30.7470  -16.4460   19.4900 N   0  0  0  0  0  0  0  0  0  0  0  0
  -26.6130  -13.9400   20.6520 C   0  0  0  0  0  0  0  0  0  0  0  0
  -25.5950  -13.1650   21.1420 C   0  0  0  0  0  0  0  0  0  0  0  0
  -25.8190  -11.8480   20.6270 C   0  0  0  0  0  0  0  0  0  0  0  0
  -27.3910  -13.0980   19.8760 N   0  0  0  0  0  0  0  0  0  0  0  0
  -26.9390  -11.8190   19.9120 N   0  0  0  0  0  0  0  0  0  0  0  0
  -24.9970  -10.6360   20.7240 C   0  0  0  0  0  0  0  0  0  0  0  0
  -25.4550   -9.4860   21.4040 C   0  0  0  0  0  3  0  0  0  0  0  0
  -24.6400   -8.3380   21.5000 C   0  0  0  0  0  3  0  0  0  0  0  0
  -23.3510   -8.3330   20.9130 C   0  0  0  0  0  0  0  0  0  0  0  0
  -22.9110   -9.4720   20.2160 C   0  0  0  0  0  3  0  0  0  0  0  0
  -23.7260  -10.6110   20.1180 C   0  0  0  0  0  3  0  0  0  0  0  0
  -22.4970   -7.2550   20.9280 O   0  0  0  0  0  0  0  0  0  0  0  0
  -22.4230   -6.4160   22.0090 C   0  0  0  0  0  0  0  0  0  0  0  0
  -22.1410   -6.8960   23.3080 C   0  0  0  0  0  3  0  0  0  0  0  0
  -22.0110   -5.9910   24.3800 C   0  0  0  0  0  3  0  0  0  0  0  0
  -22.1440   -4.6070   24.1520 C   0  0  0  0  0  0  0  0  0  0  0  0
  -22.4210   -4.1280   22.8590 C   0  0  0  0  0  3  0  0  0  0  0  0
  -22.5560   -5.0300   21.7910 C   0  0  0  0  0  0  0  0  0  0  0  0
  -22.8030   -4.5630   20.5430 F   0  0  0  0  0  0  0  0  0  0  0  0
  -22.0060   -3.7360   25.1790 F   0  0  0  0  0  0  0  0  0  0  0  0
  -24.4330  -13.6330   21.9650 C   0  0  0  0  0  0  0  0  0  0  0  0
  -23.9190  -12.7760   22.8380 N   0  0  0  0  0  0  0  0  0  0  0  0
  -24.0070  -14.7840   21.8700 O   0  0  0  0  0  0  0  0  0  0  0  0
  -24.2800  -11.8400   22.9160 H   0  0  0  0  0  0  0  0  0  0  0  0
  -23.1560  -13.0600   23.4370 H   0  0  0  0  0  0  0  0  0  0  0  0
  -26.9370  -15.2870   20.7810 N   0  0  0  0  0  0  0  0  0  0  0  0
  -26.3650  -15.9440   21.3010 H   0  0  0  0  0  0  0  0  0  0  0  0
  -27.7330  -15.7110   20.3320 H   0  0  0  0  0  0  0  0  0  0  0  0
  -31.1220  -16.6590   20.9030 C   0  0  0  0  0  2  0  0  0  0  0  0
  -30.9250  -15.3630   23.0440 C   0  0  0  0  0  1  0  0  0  0  0  0
  -30.1370  -16.0940   21.9560 C   0  0  0  0  0  2  0  0  0  0  0  0
  -28.8530  -24.8740   19.0220 C   0  0  0  0  0  2  0  0  0  0  0  0
  -28.6530  -26.2570   19.7530 O   0  0  0  0  0  0  0  0  0  0  0  0
  -25.0340  -31.7120   23.1130 C   0  0  0  0  0  0  0  0  0  0  0  0
  -27.5800  -27.2270   19.6990 C   0  0  0  0  0  0  0  0  0  0  0  0
  -23.8040  -30.4210   21.4080 C   0  0  0  0  0  3  0  0  0  0  0  0
  -25.2350  -28.9640   19.8250 C   0  0  0  0  0  0  0  0  0  0  0  0
  -26.3500  -30.7190   21.2010 C   0  0  0  0  0  2  0  0  0  0  0  0
  -26.4190  -29.3730   20.4490 C   0  0  0  0  0  0  0  0  0  0  0  0
  -27.5830  -28.5170   20.3750 C   0  0  0  0  0  3  0  0  0  0  0  0
  -26.3760  -26.9290   19.0280 C   0  0  0  0  0  3  0  0  0  0  0  0
  -25.2310  -27.7590   19.0980 C   0  0  0  0  0  3  0  0  0  0  0  0
  -23.9970  -29.8420   19.9760 C   0  0  0  0  0  2  0  0  0  0  0  0
  -25.0850  -30.9700   21.9640 N   0  0  0  0  0  0  0  0  0  0  0  0
  -23.9600  -31.9410   23.6900 O   0  0  0  0  0  0  0  0  0  0  0  0
  -23.1640  -29.3400   22.3150 C   0  0  0  0  0  0  0  0  0  0  0  0
  -21.8360  -29.1500   22.2010 N   0  0  0  0  0  0  0  0  0  0  0  0
  -23.8650  -28.6780   23.0810 O   0  0  0  0  0  0  0  0  0  0  0  0
  -21.3250  -29.7380   21.5570 H   0  0  0  0  0  0  0  0  0  0  0  0
  -18.4950  -27.8340   22.6590 C   0  0  0  0  0  0  0  0  0  0  0  0
  -21.0490  -28.1480   22.9220 C   0  0  0  0  0  3  0  0  0  0  0  0
  -21.1810  -26.7560   22.2620 C   0  0  0  0  0  2  0  0  0  0  0  0
  -20.0810  -26.4620   21.2400 C   0  0  0  0  0  2  0  0  0  0  0  0
  -18.7010  -26.5330   21.8990 C   0  0  0  0  0  2  0  0  0  0  0  0
  -19.5970  -28.6010   23.1230 C   0  0  0  0  0  0  0  0  0  0  0  0
  -19.3460  -29.8180   23.7930 C   0  0  0  0  0  3  0  0  0  0  0  0
  -18.0290  -30.2680   23.9980 C   0  0  0  0  0  3  0  0  0  0  0  0
  -16.9440  -29.4980   23.5490 C   0  0  0  0  0  3  0  0  0  0  0  0
  -17.1780  -28.2820   22.8820 C   0  0  0  0  0  3  0  0  0  0  0  0
  -26.3220  -32.3160   23.7500 C   0  0  0  0  0  3  0  0  0  0  0  0
  -26.8690  -31.4710   24.9670 C   0  0  1  0  0  0  0  0  0  0  0  0
  -25.8010  -31.1640   26.0430 C   0  0  0  0  0  1  0  0  0  0  0  0
  -27.4450  -30.1190   24.4850 C   0  0  0  0  0  1  0  0  0  0  0  0
  -28.0350  -32.2260   25.6470 C   0  0  0  0  0  1  0  0  0  0  0  0
  -26.0110  -33.6870   24.1810 N   0  0  0  0  0  0  0  0  0  0  0  0
  -26.3440  -34.7960   23.5090 C   0  0  0  0  0  0  0  0  0  0  0  0
  -27.0160  -34.7720   22.4730 O   0  0  0  0  0  0  0  0  0  0  0  0
  -25.4110  -33.7780   24.9870 H   0  0  0  0  0  0  0  0  0  0  0  0
  -24.6260  -36.6250   23.2800 C   0  0  0  0  0  1  0  0  0  0  0  0
  -25.8570  -36.1480   24.0690 C   0  0  0  0  0  3  0  0  0  0  0  0
  -27.9800  -36.9620   24.9970 C   0  0  0  0  0  1  0  0  0  0  0  0
  -26.8930  -37.2040   24.0510 N   0  0  0  0  0  0  0  0  0  0  0  0
  -26.4890  -38.1130   24.2580 H   0  0  0  0  0  0  0  0  0  0  0  0
  2  1  1  0
  3  6  1  0
  3  1  2  0
  4  3  1  0
  5  2  2  0
  7  4  2  0
  7  5  1  0
  8 10  1  0
  8  9  1  0
  9  4  1  0
 10 19  1  0
 10  9  1  0
 11 17  1  0
 11 19  1  0
 12 17  1  0
 13 14  1  0
 13 12  1  0
 15 14  1  0
 15 23  1  0
 15 16  1  0
 17 16  1  0
 18 11  2  0
 19 48  1  0
 20 45  1  0
 20 21  2  0
 21 40  1  0
 22 25  1  0
 22 21  1  0
 23 24  1  0
 23 20  1  0
 24 22  2  0
 25 26  1  0
 26 27  2  0
 28 31  1  0
 28 27  1  0
 29 28  2  0
 30 29  1  0
 30 25  2  0
 31 32  1  0
 32 33  1  0
 33 34  2  0
 35 34  1  0
 35 39  1  0
 36 35  2  0
 37 32  2  0
 37 36  1  0
 38 37  1  0
 40 41  1  0
 41 43  1  0
 41 44  1  0
 42 40  2  0
 45 46  1  0
 47 45  1  0
 48 50  1  0
 50 49  1  0
 51  5  1  0
 51 52  1  0
 53 64  2  0
 54 52  1  0
 54 59  1  0
 55 63  1  0
 55 65  1  0
 56 62  1  0
 56 58  1  0
 57 63  1  0
 58 57  1  0
 59 58  2  0
 60 61  1  0
 60 54  2  0
 61 56  2  0
 62 55  1  0
 63 53  1  0
 65 67  2  0
 66 65  1  0
 68 66  1  0
 69 78  2  0
 69 74  1  0
 70 66  1  0
 70 74  1  0
 71 70  1  0
 72 73  1  0
 72 71  1  0
 73 69  1  0
 74 75  2  0
 75 76  1  0
 77 76  2  0
 78 77  1  0
 79 53  1  0
 79 84  1  0
 79 80  1  0
 80 83  1  1
 80 81  1  0
 82 80  1  0
 84 87  1  0
 85 89  1  0
 85 84  1  0
 86 85  2  0
 89 88  1  0
 91 89  1  0
 91 92  1  0
 91 90  1  0
M  ISO  4  11 100  19 100  51 101  52 101
M  END
>  <TORSDO>  (97) 
F 20

>  <SCORE>  (97) 
-5.204

>  <name>  (97) 
96

>  <ligand_id>  (97) 
96

>  <original_smiles>  (97) 
[H]c1c(C([H])([H])Oc2c([H])c([H])c3c(c2[H])C([H])([H])N(C(=O)C([H])(N([H])C(=O)C([H])(N([H])C([H])([H])[H])C([H])([H])[H])C(C([H])([H])[H])(C([H])([H])[H])C([H])([H])[H])C([H])(C(=O)N([H])C2([H])c4c([H])c([H])c([H])c([H])c4C([H])([H])C([H])([H])C2([H])[H])C3([H])[H])nc(C2([H])C([H])([H])C2([H])N(C(=O)N2C([H])([H])C([H])([H])C([H])([H])C([H])(n3nc(-c4c([H])c([H])c(Oc5c([H])c([H])c(F)c([H])c5F)c([H])c4[H])c(C(=O)N([H])[H])c3N([H])[H])C2([H])[H])C([H])([H])C([H])([H])C([H])([H])[H])c(C([H])([H])[H])c1[H]

>  <smiles>  (97) 
[H]c1c(C([H])([H])Oc2c([H])c([H])c3c(c2[H])C([H])([H])N(C(=O)C([H])(N([H])C(=O)C([H])(N([H])C([H])([H])[H])C([H])([H])[H])C(C([H])([H])[H])(C([H])([H])[H])C([H])([H])[H])C([H])(C(=O)N([H])C2([H])c4c([H])c([H])c([H])c([H])c4C([H])([H])C([H])([H])C2([H])[H])C3([H])[H])nc(C2([H])C([H])([H])C2([H])N(C(=O)N2C([H])([H])C([H])([H])C([H])([H])C([H])(n3nc(-c4c([H])c([H])c(Oc5c([H])c([H])c(F)c([H])c5F)c([H])c4[H])c(C(=O)N([H])[H])c3N([H])[H])C2([H])[H])C([H])([H])C([H])([H])C([H])([H])[H])c(C([H])([H])[H])c1[H]

$$$$
97:0:0
     RDKit          3D

 89 97  0  0  1  0  0  0  0  0999 V2000
  -29.4530  -20.8620   21.3670 C   0  0  0  0  0  0  0  0  0  0  0  0
  -28.4020  -21.8780   19.1510 C   0  0  0  0  0  0  0  0  0  0  0  0
  -29.3410  -19.8570   20.3030 C   0  0  0  0  0  0  0  0  0  0  0  0
  -28.5180  -22.8890   20.2080 C   0  0  0  0  0  0  0  0  0  0  0  0
  -30.1030  -20.4600   22.6760 C   0  0  0  0  0  1  0  0  0  0  0  0
  -27.7370  -22.2660   17.8440 C   0  0  0  0  0  1  0  0  0  0  0  0
  -28.8030  -20.5070   19.1920 N   0  0  0  0  0  0  0  0  0  0  0  0
  -29.0500  -22.2380   21.3270 N   0  0  0  0  0  0  0  0  0  0  0  0
  -30.1210  -18.2960   20.2020 C   0  0  0  0  0  2  0  0  0  0  0  0
  -30.4650  -15.4290   20.1250 C   0  0  0  0  0  0  0  0  0  0  0  0
  -30.4150  -13.0060   19.2200 C   0  0  0  0  0  2  0  0  0  0  0  0
  -29.4550  -12.8090   18.0200 C   0  0  0  0  0  2  0  0  0  0  0  0
  -28.0240  -12.5230   18.5090 C   0  0  0  0  0  2  0  0  0  0  0  0
  -27.6030  -13.4760   19.6570 C   0  0  0  0  0  3  0  0  0  0  0  0
  -28.6870  -13.6200   20.7450 C   0  0  0  0  0  2  0  0  0  0  0  0
  -29.8930  -14.1310   20.0770 N   0  0  0  0  0  0  0  0  0  0  0  0
  -31.6750  -15.4390   19.8560 O   0  0  0  0  0  0  0  0  0  0  0  0
  -29.7190  -16.6930   20.2690 N   0  0  0  0  0  0  0  0  0  0  0  0
  -28.7350  -16.5430   20.4320 H   0  0  0  0  0  0  0  0  0  0  0  0
  -25.2630  -14.0000   20.5240 C   0  0  0  0  0  0  0  0  0  0  0  0
  -24.2180  -13.2050   20.9070 C   0  0  0  0  0  0  0  0  0  0  0  0
  -24.6880  -11.8600   20.8100 C   0  0  0  0  0  0  0  0  0  0  0  0
  -26.2970  -13.1380   20.2080 N   0  0  0  0  0  0  0  0  0  0  0  0
  -25.9670  -11.8430   20.4490 N   0  0  0  0  0  0  0  0  0  0  0  0
  -23.9730  -10.5870   20.9820 C   0  0  0  0  0  0  0  0  0  0  0  0
  -24.4070   -9.6140   21.9080 C   0  0  0  0  0  3  0  0  0  0  0  0
  -23.6880   -8.4100   22.0720 C   0  0  0  0  0  3  0  0  0  0  0  0
  -22.5220   -8.1700   21.3070 C   0  0  0  0  0  0  0  0  0  0  0  0
  -22.1070   -9.1330   20.3690 C   0  0  0  0  0  3  0  0  0  0  0  0
  -22.8270  -10.3290   20.2050 C   0  0  0  0  0  3  0  0  0  0  0  0
  -21.7750   -7.0190   21.3780 O   0  0  0  0  0  0  0  0  0  0  0  0
  -21.6770   -6.2950   22.5390 C   0  0  0  0  0  0  0  0  0  0  0  0
  -21.1190   -6.8450   23.7150 C   0  0  0  0  0  3  0  0  0  0  0  0
  -20.9740   -6.0450   24.8660 C   0  0  0  0  0  3  0  0  0  0  0  0
  -21.3770   -4.6960   24.8420 C   0  0  0  0  0  0  0  0  0  0  0  0
  -21.9280   -4.1470   23.6710 C   0  0  0  0  0  3  0  0  0  0  0  0
  -22.0740   -4.9430   22.5220 C   0  0  0  0  0  0  0  0  0  0  0  0
  -22.5860   -4.4030   21.3900 F   0  0  0  0  0  0  0  0  0  0  0  0
  -21.2310   -3.9260   25.9450 F   0  0  0  0  0  0  0  0  0  0  0  0
  -22.8300  -13.6670   21.2420 C   0  0  0  0  0  0  0  0  0  0  0  0
  -22.1380  -12.9410   22.1130 N   0  0  0  0  0  0  0  0  0  0  0  0
  -22.3700  -14.7040   20.7670 O   0  0  0  0  0  0  0  0  0  0  0  0
  -22.5260  -12.1020   22.5180 H   0  0  0  0  0  0  0  0  0  0  0  0
  -21.2070  -13.2300   22.3800 H   0  0  0  0  0  0  0  0  0  0  0  0
  -25.4130  -15.3770   20.3880 N   0  0  0  0  0  0  0  0  0  0  0  0
  -24.6470  -16.0210   20.5540 H   0  0  0  0  0  0  0  0  0  0  0  0
  -26.2350  -15.8300   20.0120 H   0  0  0  0  0  0  0  0  0  0  0  0
  -27.7030  -24.4390   20.2490 C   0  0  0  0  0  2  0  0  0  0  0  0
  -28.1060  -26.0260   20.2780 O   0  0  0  0  0  0  0  0  0  0  0  0
  -24.5980  -31.9770   23.3190 C   0  0  0  0  0  0  0  0  0  0  0  0
  -27.1090  -27.1330   20.2360 C   0  0  0  0  0  0  0  0  0  0  0  0
  -23.3810  -30.5910   21.6890 C   0  0  0  0  0  3  0  0  0  0  0  0
  -24.8100  -29.0040   20.2350 C   0  0  0  0  0  0  0  0  0  0  0  0
  -25.9460  -30.8110   21.5030 C   0  0  0  0  0  2  0  0  0  0  0  0
  -26.0070  -29.4080   20.8390 C   0  0  0  0  0  0  0  0  0  0  0  0
  -27.1530  -28.4930   20.8170 C   0  0  0  0  0  3  0  0  0  0  0  0
  -25.8810  -26.8860   19.5800 C   0  0  0  0  0  3  0  0  0  0  0  0
  -24.7710  -27.7640   19.5850 C   0  0  0  0  0  3  0  0  0  0  0  0
  -23.5910  -29.9200   20.3050 C   0  0  0  0  0  2  0  0  0  0  0  0
  -24.6650  -31.1520   22.2240 N   0  0  0  0  0  0  0  0  0  0  0  0
  -23.5170  -32.2610   23.8570 O   0  0  0  0  0  0  0  0  0  0  0  0
  -22.7030  -29.5870   22.6570 C   0  0  0  0  0  0  0  0  0  0  0  0
  -21.3830  -29.3730   22.5090 N   0  0  0  0  0  0  0  0  0  0  0  0
  -23.3740  -28.9980   23.5090 O   0  0  0  0  0  0  0  0  0  0  0  0
  -20.8940  -29.8990   21.7980 H   0  0  0  0  0  0  0  0  0  0  0  0
  -18.0380  -28.0410   22.9550 C   0  0  0  0  0  0  0  0  0  0  0  0
  -20.5760  -28.4210   23.2800 C   0  0  0  0  0  3  0  0  0  0  0  0
  -20.7530  -26.9800   22.7450 C   0  0  0  0  0  2  0  0  0  0  0  0
  -19.6940  -26.5870   21.7100 C   0  0  0  0  0  2  0  0  0  0  0  0
  -18.2900  -26.6870   22.3120 C   0  0  0  0  0  2  0  0  0  0  0  0
  -19.1110  -28.8610   23.3940 C   0  0  0  0  0  0  0  0  0  0  0  0
  -18.8200  -30.1240   23.9550 C   0  0  0  0  0  3  0  0  0  0  0  0
  -17.4900  -30.5680   24.0790 C   0  0  0  0  0  3  0  0  0  0  0  0
  -16.4320  -29.7460   23.6540 C   0  0  0  0  0  3  0  0  0  0  0  0
  -16.7060  -28.4830   23.0980 C   0  0  0  0  0  3  0  0  0  0  0  0
  -25.8790  -32.6160   23.9360 C   0  0  0  0  0  3  0  0  0  0  0  0
  -25.5710  -34.0190   24.2670 N   0  0  0  0  0  0  0  0  0  0  0  0
  -25.8650  -35.0710   23.4930 C   0  0  0  0  0  0  0  0  0  0  0  0
  -26.4870  -34.9660   22.4340 O   0  0  0  0  0  0  0  0  0  0  0  0
  -25.0120  -34.1730   25.0930 H   0  0  0  0  0  0  0  0  0  0  0  0
  -24.1030  -36.8540   23.2300 C   0  0  0  0  0  1  0  0  0  0  0  0
  -25.3950  -36.4630   23.9670 C   0  0  0  0  0  3  0  0  0  0  0  0
  -27.5610  -37.3830   24.6700 C   0  0  0  0  0  1  0  0  0  0  0  0
  -26.4100  -37.5250   23.7830 N   0  0  0  0  0  0  0  0  0  0  0  0
  -26.0000  -38.4420   23.9390 H   0  0  0  0  0  0  0  0  0  0  0  0
  -26.3910  -31.8550   25.2210 C   0  0  1  0  0  0  0  0  0  0  0  0
  -25.2910  -31.6080   26.2800 C   0  0  0  0  0  1  0  0  0  0  0  0
  -26.9950  -30.4830   24.8440 C   0  0  0  0  0  1  0  0  0  0  0  0
  -27.5280  -32.6640   25.8900 C   0  0  0  0  0  1  0  0  0  0  0  0
  1  5  1  0
  2  7  2  0
  2  4  1  0
  3  1  2  0
  4 48  1  0
  4  8  2  0
  6  2  1  0
  7  3  1  0
  8  1  1  0
  9 18  1  0
  9  3  1  0
 10 18  1  0
 11 16  1  0
 12 13  1  0
 12 11  1  0
 14 13  1  0
 14 23  1  0
 14 15  1  0
 16 10  1  0
 16 15  1  0
 17 10  2  0
 18 19  1  0
 20 21  2  0
 21 40  1  0
 22 21  1  0
 22 25  1  0
 23 24  1  0
 23 20  1  0
 24 22  2  0
 25 26  1  0
 26 27  2  0
 28 31  1  0
 28 27  1  0
 29 28  2  0
 30 29  1  0
 30 25  2  0
 31 32  1  0
 32 33  1  0
 33 34  2  0
 35 34  1  0
 35 39  1  0
 36 35  2  0
 37 32  2  0
 37 36  1  0
 38 37  1  0
 40 41  1  0
 41 44  1  0
 41 43  1  0
 42 40  2  0
 45 20  1  0
 45 46  1  0
 47 45  1  0
 48 49  1  0
 50 61  2  0
 51 49  1  0
 51 56  1  0
 52 60  1  0
 52 62  1  0
 53 59  1  0
 53 55  1  0
 54 60  1  0
 55 54  1  0
 56 55  2  0
 57 58  1  0
 57 51  2  0
 58 53  2  0
 59 52  1  0
 60 50  1  0
 62 64  2  0
 63 62  1  0
 65 63  1  0
 66 75  2  0
 66 71  1  0
 67 63  1  0
 67 71  1  0
 68 67  1  0
 69 70  1  0
 69 68  1  0
 70 66  1  0
 71 72  2  0
 72 73  1  0
 74 73  2  0
 75 74  1  0
 76 50  1  0
 76 77  1  0
 76 86  1  0
 77 80  1  0
 78 82  1  0
 78 77  1  0
 79 78  2  0
 82 81  1  0
 84 85  1  0
 84 82  1  0
 84 83  1  0
 86 89  1  1
 86 87  1  0
 88 86  1  0
M  ISO  4  10 100  18 100  48 101  49 101
M  END
>  <TORSDO>  (98) 
F 18

>  <SCORE>  (98) 
-15.520

>  <name>  (98) 
97

>  <ligand_id>  (98) 
97

>  <original_smiles>  (98) 
[H]c1c([H])c([H])c2c(c1[H])C([H])([H])C([H])([H])C([H])([H])C2([H])N([H])C(=O)C1([H])N(C(=O)C([H])(N([H])C(=O)C([H])(N([H])C([H])([H])[H])C([H])([H])[H])C(C([H])([H])[H])(C([H])([H])[H])C([H])([H])[H])C([H])([H])c2c([H])c(OC([H])([H])c3nc(C([H])([H])[H])c(C([H])([H])N([H])C(=O)N4C([H])([H])C([H])([H])C([H])([H])C([H])(n5nc(-c6c([H])c([H])c(Oc7c([H])c([H])c(F)c([H])c7F)c([H])c6[H])c(C(=O)N([H])[H])c5N([H])[H])C4([H])[H])nc3C([H])([H])[H])c([H])c([H])c2C1([H])[H]

>  <smiles>  (98) 
[H]c1c([H])c([H])c2c(c1[H])C([H])([H])C([H])([H])C([H])([H])C2([H])N([H])C(=O)C1([H])N(C(=O)C([H])(N([H])C(=O)C([H])(N([H])C([H])([H])[H])C([H])([H])[H])C(C([H])([H])[H])(C([H])([H])[H])C([H])([H])[H])C([H])([H])c2c([H])c(OC([H])([H])c3nc(C([H])([H])[H])c(C([H])([H])N([H])C(=O)N4C([H])([H])C([H])([H])C([H])([H])C([H])(n5nc(-c6c([H])c([H])c(Oc7c([H])c([H])c(F)c([H])c7F)c([H])c6[H])c(C(=O)N([H])[H])c5N([H])[H])C4([H])[H])nc3C([H])([H])[H])c([H])c([H])c2C1([H])[H]

$$$$
98:0:0
     RDKit          3D

 94104  0  0  1  0  0  0  0  0999 V2000
  -29.3830  -20.5200   20.5590 C   0  0  0  0  0  3  0  0  0  0  0  0
  -29.0960  -21.9230   19.9550 C   0  0  0  0  0  0  0  0  0  0  0  0
  -29.0930  -21.9540   18.6100 C   0  0  0  0  0  0  0  0  0  0  0  0
  -29.7220  -19.3570   19.8300 C   0  0  0  0  0  0  0  0  0  0  0  0
  -29.2670  -20.7130   17.8110 C   0  0  0  0  0  0  0  0  0  0  0  0
  -28.9830  -23.4020   20.6620 C   0  0  0  0  0  3  0  0  0  0  0  0
  -29.1180  -23.3170   17.8750 C   0  0  0  0  0  3  0  0  0  0  0  0
  -28.1970  -24.4550   18.4200 C   0  0  0  0  0  3  0  0  0  0  0  0
  -28.1470  -24.6810   19.9570 C   0  0  0  0  0  0  0  0  0  0  0  0
  -29.8450  -19.6110   18.4240 N   0  0  0  0  0  0  0  0  0  0  0  0
  -28.9990  -20.6980   16.6030 O   0  0  0  0  0  0  0  0  0  0  0  0
  -31.6240  -19.2320   16.6590 C   0  0  0  0  0  2  0  0  0  0  0  0
  -31.9880  -18.2990   17.7790 C   0  0  0  0  0  2  0  0  0  0  0  0
  -30.5260  -18.6700   17.5650 C   0  0  0  0  0  3  0  0  0  0  0  0
  -28.2610  -26.2150   20.2980 O   0  0  0  0  0  0  0  0  0  0  0  0
  -24.6130  -31.9610   23.2540 C   0  0  0  0  0  0  0  0  0  0  0  0
  -27.1820  -27.1890   20.2320 C   0  0  0  0  0  0  0  0  0  0  0  0
  -23.4080  -30.5580   21.6260 C   0  0  0  0  0  3  0  0  0  0  0  0
  -24.8460  -28.9510   20.2160 C   0  0  0  0  0  0  0  0  0  0  0  0
  -25.9630  -30.7940   21.4640 C   0  0  0  0  0  2  0  0  0  0  0  0
  -26.0300  -29.3920   20.8190 C   0  0  0  0  0  0  0  0  0  0  0  0
  -27.1940  -28.5290   20.8080 C   0  0  0  0  0  3  0  0  0  0  0  0
  -25.9660  -26.8540   19.5910 C   0  0  0  0  0  3  0  0  0  0  0  0
  -24.8300  -27.6980   19.5850 C   0  0  0  0  0  3  0  0  0  0  0  0
  -23.6240  -29.8580   20.2570 C   0  0  0  0  0  2  0  0  0  0  0  0
  -24.6830  -31.1270   22.1700 N   0  0  0  0  0  0  0  0  0  0  0  0
  -23.5270  -32.2560   23.7740 O   0  0  0  0  0  0  0  0  0  0  0  0
  -22.7160  -29.5660   22.5950 C   0  0  0  0  0  0  0  0  0  0  0  0
  -21.3870  -29.4010   22.4630 N   0  0  0  0  0  0  0  0  0  0  0  0
  -23.3800  -28.9540   23.4350 O   0  0  0  0  0  0  0  0  0  0  0  0
  -20.9060  -29.9510   21.7650 H   0  0  0  0  0  0  0  0  0  0  0  0
  -17.9970  -28.2240   22.9740 C   0  0  0  0  0  0  0  0  0  0  0  0
  -20.5560  -28.4770   23.2430 C   0  0  0  0  0  3  0  0  0  0  0  0
  -20.6520  -27.0380   22.6850 C   0  0  0  0  0  2  0  0  0  0  0  0
  -19.5500  -26.7130   21.6700 C   0  0  0  0  0  2  0  0  0  0  0  0
  -18.1690  -26.8710   22.3080 C   0  0  0  0  0  2  0  0  0  0  0  0
  -19.1190  -28.9850   23.3970 C   0  0  0  0  0  0  0  0  0  0  0  0
  -18.9030  -30.2540   23.9780 C   0  0  0  0  0  3  0  0  0  0  0  0
  -17.5970  -30.7620   24.1410 C   0  0  0  0  0  3  0  0  0  0  0  0
  -16.4890  -29.9970   23.7320 C   0  0  0  0  0  3  0  0  0  0  0  0
  -16.6920  -28.7310   23.1550 C   0  0  0  0  0  3  0  0  0  0  0  0
  -25.8940  -32.5930   23.8800 C   0  0  0  0  0  3  0  0  0  0  0  0
  -25.5850  -33.9940   24.2100 N   0  0  0  0  0  0  0  0  0  0  0  0
  -25.9050  -35.0440   23.4410 C   0  0  0  0  0  0  0  0  0  0  0  0
  -26.5550  -34.9360   22.3980 O   0  0  0  0  0  0  0  0  0  0  0  0
  -25.0060  -34.1490   25.0220 H   0  0  0  0  0  0  0  0  0  0  0  0
  -24.1750  -36.8510   23.1240 C   0  0  0  0  0  1  0  0  0  0  0  0
  -25.4330  -36.4390   23.9050 C   0  0  0  0  0  3  0  0  0  0  0  0
  -27.5890  -37.3220   24.6940 C   0  0  0  0  0  1  0  0  0  0  0  0
  -26.4650  -37.4920   23.7730 N   0  0  0  0  0  0  0  0  0  0  0  0
  -26.0610  -38.4100   23.9370 H   0  0  0  0  0  0  0  0  0  0  0  0
  -26.4030  -31.8270   25.1650 C   0  0  1  0  0  0  0  0  0  0  0  0
  -25.3040  -31.6010   26.2330 C   0  0  0  0  0  1  0  0  0  0  0  0
  -26.9840  -30.4430   24.7930 C   0  0  0  0  0  1  0  0  0  0  0  0
  -27.5530  -32.6310   25.8210 C   0  0  0  0  0  1  0  0  0  0  0  0
  -30.2630  -17.8700   20.4190 C   0  0  0  0  0  2  0  0  0  0  0  0
  -30.5320  -15.1080   20.1790 C   0  0  0  0  0  0  0  0  0  0  0  0
  -30.3710  -12.7360   19.2810 C   0  0  0  0  0  2  0  0  0  0  0  0
  -29.4070  -12.6280   18.0810 C   0  0  0  0  0  2  0  0  0  0  0  0
  -27.9690  -12.3820   18.5780 C   0  0  0  0  0  2  0  0  0  0  0  0
  -27.5690  -13.3420   19.7310 C   0  0  0  0  0  3  0  0  0  0  0  0
  -28.6610  -13.4340   20.8150 C   0  0  0  0  0  2  0  0  0  0  0  0
  -29.8960  -13.8620   20.1350 N   0  0  0  0  0  0  0  0  0  0  0  0
  -31.7540  -15.1070   20.0220 O   0  0  0  0  0  0  0  0  0  0  0  0
  -29.8130  -16.3550   20.1660 N   0  0  0  0  0  0  0  0  0  0  0  0
  -28.8120  -16.2280   20.1350 H   0  0  0  0  0  0  0  0  0  0  0  0
  -25.2160  -13.8920   20.5640 C   0  0  0  0  0  0  0  0  0  0  0  0
  -24.1660  -13.1060   20.9470 C   0  0  0  0  0  0  0  0  0  0  0  0
  -24.6370  -11.7590   20.8840 C   0  0  0  0  0  0  0  0  0  0  0  0
  -26.2560  -13.0250   20.2780 N   0  0  0  0  0  0  0  0  0  0  0  0
  -25.9190  -11.7340   20.5410 N   0  0  0  0  0  0  0  0  0  0  0  0
  -23.9220  -10.4900   21.0680 C   0  0  0  0  0  0  0  0  0  0  0  0
  -24.3690   -9.5130   21.9860 C   0  0  0  0  0  3  0  0  0  0  0  0
  -23.6480   -8.3120   22.1590 C   0  0  0  0  0  3  0  0  0  0  0  0
  -22.4710   -8.0750   21.4100 C   0  0  0  0  0  0  0  0  0  0  0  0
  -22.0420   -9.0400   20.4820 C   0  0  0  0  0  3  0  0  0  0  0  0
  -22.7640  -10.2320   20.3080 C   0  0  0  0  0  3  0  0  0  0  0  0
  -21.7210   -6.9270   21.4940 O   0  0  0  0  0  0  0  0  0  0  0  0
  -21.6730   -6.1830   22.6470 C   0  0  0  0  0  0  0  0  0  0  0  0
  -21.1890   -6.7170   23.8600 C   0  0  0  0  0  3  0  0  0  0  0  0
  -21.0910   -5.8970   25.0010 C   0  0  0  0  0  3  0  0  0  0  0  0
  -21.4650   -4.5410   24.9300 C   0  0  0  0  0  0  0  0  0  0  0  0
  -21.9430   -4.0050   23.7220 C   0  0  0  0  0  3  0  0  0  0  0  0
  -22.0410   -4.8220   22.5820 C   0  0  0  0  0  0  0  0  0  0  0  0
  -22.4820   -4.2950   21.4140 F   0  0  0  0  0  0  0  0  0  0  0  0
  -21.3630   -3.7520   26.0230 F   0  0  0  0  0  0  0  0  0  0  0  0
  -22.7730  -13.5700   21.2560 C   0  0  0  0  0  0  0  0  0  0  0  0
  -22.0660  -12.8530   22.1190 N   0  0  0  0  0  0  0  0  0  0  0  0
  -22.3220  -14.6070   20.7650 O   0  0  0  0  0  0  0  0  0  0  0  0
  -22.4390  -12.0140   22.5380 H   0  0  0  0  0  0  0  0  0  0  0  0
  -21.1310  -13.1460   22.3720 H   0  0  0  0  0  0  0  0  0  0  0  0
  -25.3630  -15.2670   20.4010 N   0  0  0  0  0  0  0  0  0  0  0  0
  -24.5840  -15.9050   20.5280 H   0  0  0  0  0  0  0  0  0  0  0  0
  -26.1920  -15.7220   20.0400 H   0  0  0  0  0  0  0  0  0  0  0  0
  2  1  1  0
  2  6  1  0
  3  2  2  0
  4 56  1  0
  4  1  2  0
  5 10  1  0
  5  3  1  0
  7  8  2  0
  7  3  1  0
  8  9  1  0
  9 15  1  0
  9  6  2  0
 10  4  1  0
 11  5  2  0
 12 14  1  0
 12 13  1  0
 14 13  1  0
 14 10  1  0
 16 27  2  0
 17 15  1  0
 17 22  1  0
 18 26  1  0
 18 28  1  0
 19 25  1  0
 19 21  1  0
 20 26  1  0
 21 20  1  0
 22 21  2  0
 23 17  2  0
 24 23  1  0
 24 19  2  0
 25 18  1  0
 26 16  1  0
 28 30  2  0
 29 28  1  0
 31 29  1  0
 32 41  2  0
 32 37  1  0
 33 29  1  0
 33 37  1  0
 34 33  1  0
 35 36  1  0
 35 34  1  0
 36 32  1  0
 37 38  2  0
 38 39  1  0
 40 39  2  0
 41 40  1  0
 42 16  1  0
 42 43  1  0
 42 52  1  0
 43 46  1  0
 44 48  1  0
 44 43  1  0
 45 44  2  0
 48 47  1  0
 50 48  1  0
 50 51  1  0
 50 49  1  0
 52 55  1  1
 52 53  1  0
 54 52  1  0
 58 63  1  0
 59 60  1  0
 59 58  1  0
 61 60  1  0
 61 70  1  0
 61 62  1  0
 63 57  1  0
 63 62  1  0
 64 57  2  0
 65 57  1  0
 65 56  1  0
 66 65  1  0
 67 68  2  0
 68 87  1  0
 69 68  1  0
 69 72  1  0
 70 71  1  0
 70 67  1  0
 71 69  2  0
 72 73  1  0
 73 74  2  0
 75 78  1  0
 75 74  1  0
 76 75  2  0
 77 76  1  0
 77 72  2  0
 78 79  1  0
 79 80  1  0
 80 81  2  0
 82 81  1  0
 82 86  1  0
 83 82  2  0
 84 79  2  0
 84 83  1  0
 85 84  1  0
 87 88  1  0
 88 91  1  0
 88 90  1  0
 89 87  2  0
 92 93  1  0
 92 67  1  0
 94 92  1  0
M  ISO  4   9 101  15 101  57 100  65 100
M  END
>  <TORSDO>  (99) 
F 18

>  <SCORE>  (99) 
-14.881

>  <name>  (99) 
98

>  <ligand_id>  (99) 
98

>  <original_smiles>  (99) 
[H]c1c([H])c([H])c2c(c1[H])C([H])([H])C([H])([H])C([H])([H])C2([H])N([H])C(=O)C1([H])N(C(=O)C([H])(N([H])C(=O)C([H])(N([H])C([H])([H])[H])C([H])([H])[H])C(C([H])([H])[H])(C([H])([H])[H])C([H])([H])[H])C([H])([H])c2c([H])c(OC3([H])C([H])([H])c4c([H])c(C([H])([H])N([H])C(=O)N5C([H])([H])C([H])([H])C([H])([H])C([H])(n6nc(-c7c([H])c([H])c(Oc8c([H])c([H])c(F)c([H])c8F)c([H])c7[H])c(C(=O)N([H])[H])c6N([H])[H])C5([H])[H])n(C5([H])C([H])([H])C5([H])[H])c(=O)c4C([H])([H])C3([H])[H])c([H])c([H])c2C1([H])[H]

>  <smiles>  (99) 
[H]c1c([H])c([H])c2c(c1[H])C([H])([H])C([H])([H])C([H])([H])C2([H])N([H])C(=O)C1([H])N(C(=O)C([H])(N([H])C(=O)C([H])(N([H])C([H])([H])[H])C([H])([H])[H])C(C([H])([H])[H])(C([H])([H])[H])C([H])([H])[H])C([H])([H])c2c([H])c(OC3([H])C([H])([H])c4c([H])c(C([H])([H])N([H])C(=O)N5C([H])([H])C([H])([H])C([H])([H])C([H])(n6nc(-c7c([H])c([H])c(Oc8c([H])c([H])c(F)c([H])c8F)c([H])c7[H])c(C(=O)N([H])[H])c6N([H])[H])C5([H])[H])n(C5([H])C([H])([H])C5([H])[H])c(=O)c4C([H])([H])C3([H])[H])c([H])c([H])c2C1([H])[H]

$$$$
99:0:0
     RDKit          3D

 91100  0  0  1  0  0  0  0  0999 V2000
  -29.1430  -22.1250   21.2140 C   0  0  0  0  0  3  0  0  0  0  0  0
  -29.5310  -20.6950   21.1420 C   0  0  0  0  0  0  0  0  0  0  0  0
  -29.2410  -19.7760   20.0920 C   0  0  0  0  0  0  0  0  0  0  0  0
  -28.4240  -22.8420   20.1710 C   0  0  0  0  0  0  0  0  0  0  0  0
  -28.5340  -20.5420   19.0790 C   0  0  0  0  0  0  0  0  0  0  0  0
  -30.3670  -19.9550   22.1610 C   0  0  0  0  0  2  0  0  0  0  0  0
  -30.0230  -18.2500   20.2200 C   0  0  0  0  0  3  0  0  0  0  0  0
  -30.6300  -18.4840   21.6470 C   0  0  0  0  0  3  0  0  0  0  0  0
  -28.1630  -19.8540   17.7840 C   0  0  0  0  0  1  0  0  0  0  0  0
  -32.1170  -18.1070   21.7350 C   0  0  0  0  0  1  0  0  0  0  0  0
  -28.1540  -21.9190   19.1440 N   0  0  0  0  0  0  0  0  0  0  0  0
  -30.3960  -15.3770   19.9320 C   0  0  0  0  0  0  0  0  0  0  0  0
  -30.3250  -12.9470   19.0420 C   0  0  0  0  0  2  0  0  0  0  0  0
  -29.3400  -12.7450   17.8650 C   0  0  0  0  0  2  0  0  0  0  0  0
  -27.9200  -12.4650   18.3860 C   0  0  0  0  0  2  0  0  0  0  0  0
  -27.5250  -13.4200   19.5400 C   0  0  0  0  0  3  0  0  0  0  0  0
  -28.6330  -13.5730   20.6030 C   0  0  0  0  0  2  0  0  0  0  0  0
  -29.8220  -14.0790   19.8980 N   0  0  0  0  0  0  0  0  0  0  0  0
  -31.6040  -15.3780   19.6570 O   0  0  0  0  0  0  0  0  0  0  0  0
  -29.6460  -16.6430   20.0770 N   0  0  0  0  0  0  0  0  0  0  0  0
  -28.6580  -16.4690   20.1930 H   0  0  0  0  0  0  0  0  0  0  0  0
  -25.2080  -13.9500   20.4630 C   0  0  0  0  0  0  0  0  0  0  0  0
  -24.1710  -13.1590   20.8710 C   0  0  0  0  0  0  0  0  0  0  0  0
  -24.6350  -11.8110   20.7640 C   0  0  0  0  0  0  0  0  0  0  0  0
  -26.2330  -13.0860   20.1240 N   0  0  0  0  0  0  0  0  0  0  0  0
  -25.9050  -11.7910   20.3740 N   0  0  0  0  0  0  0  0  0  0  0  0
  -23.9210  -10.5420   20.9550 C   0  0  0  0  0  0  0  0  0  0  0  0
  -24.3640   -9.5760   21.8850 C   0  0  0  0  0  3  0  0  0  0  0  0
  -23.6460   -8.3730   22.0650 C   0  0  0  0  0  3  0  0  0  0  0  0
  -22.4710   -8.1280   21.3140 C   0  0  0  0  0  0  0  0  0  0  0  0
  -22.0480   -9.0840   20.3740 C   0  0  0  0  0  3  0  0  0  0  0  0
  -22.7650  -10.2780   20.1930 C   0  0  0  0  0  3  0  0  0  0  0  0
  -21.7240   -6.9780   21.4040 O   0  0  0  0  0  0  0  0  0  0  0  0
  -21.6330   -6.2700   22.5760 C   0  0  0  0  0  0  0  0  0  0  0  0
  -21.1220   -6.8480   23.7580 C   0  0  0  0  0  3  0  0  0  0  0  0
  -20.9800   -6.0630   24.9200 C   0  0  0  0  0  3  0  0  0  0  0  0
  -21.3380   -4.7030   24.9000 C   0  0  0  0  0  0  0  0  0  0  0  0
  -21.8410   -4.1240   23.7220 C   0  0  0  0  0  3  0  0  0  0  0  0
  -21.9840   -4.9050   22.5620 C   0  0  0  0  0  0  0  0  0  0  0  0
  -22.4500   -4.3370   21.4230 F   0  0  0  0  0  0  0  0  0  0  0  0
  -21.1940   -3.9470   26.0140 F   0  0  0  0  0  0  0  0  0  0  0  0
  -22.7920  -13.6240   21.2380 C   0  0  0  0  0  0  0  0  0  0  0  0
  -22.1170  -12.8990   22.1220 N   0  0  0  0  0  0  0  0  0  0  0  0
  -22.3260  -14.6650   20.7770 O   0  0  0  0  0  0  0  0  0  0  0  0
  -22.5100  -12.0570   22.5140 H   0  0  0  0  0  0  0  0  0  0  0  0
  -21.1950  -13.1920   22.4120 H   0  0  0  0  0  0  0  0  0  0  0  0
  -25.3560  -15.3260   20.3210 N   0  0  0  0  0  0  0  0  0  0  0  0
  -24.5910  -15.9690   20.4960 H   0  0  0  0  0  0  0  0  0  0  0  0
  -26.1670  -15.7790   19.9190 H   0  0  0  0  0  0  0  0  0  0  0  0
  -27.6160  -24.3930   20.2170 C   0  0  0  0  0  2  0  0  0  0  0  0
  -28.0160  -25.9760   20.3390 O   0  0  0  0  0  0  0  0  0  0  0  0
  -24.5260  -31.9740   23.2950 C   0  0  0  0  0  0  0  0  0  0  0  0
  -27.0240  -27.0840   20.2780 C   0  0  0  0  0  0  0  0  0  0  0  0
  -23.3050  -30.5730   21.6820 C   0  0  0  0  0  3  0  0  0  0  0  0
  -24.7300  -28.9630   20.2510 C   0  0  0  0  0  0  0  0  0  0  0  0
  -25.8700  -30.7800   21.5000 C   0  0  0  0  0  2  0  0  0  0  0  0
  -25.9270  -29.3680   20.8520 C   0  0  0  0  0  0  0  0  0  0  0  0
  -27.0700  -28.4500   20.8440 C   0  0  0  0  0  3  0  0  0  0  0  0
  -25.7960  -26.8310   19.6250 C   0  0  0  0  0  3  0  0  0  0  0  0
  -24.6890  -27.7130   19.6150 C   0  0  0  0  0  3  0  0  0  0  0  0
  -23.5130  -29.8830   20.3070 C   0  0  0  0  0  2  0  0  0  0  0  0
  -24.5900  -31.1340   22.2120 N   0  0  0  0  0  0  0  0  0  0  0  0
  -23.4450  -32.2700   23.8280 O   0  0  0  0  0  0  0  0  0  0  0  0
  -22.6220  -29.5830   22.6620 C   0  0  0  0  0  0  0  0  0  0  0  0
  -21.3010  -29.3780   22.5190 N   0  0  0  0  0  0  0  0  0  0  0  0
  -23.2900  -28.9990   23.5200 O   0  0  0  0  0  0  0  0  0  0  0  0
  -20.8140  -29.8990   21.8040 H   0  0  0  0  0  0  0  0  0  0  0  0
  -17.9560  -28.0420   22.9580 C   0  0  0  0  0  0  0  0  0  0  0  0
  -20.4900  -28.4400   23.3050 C   0  0  0  0  0  3  0  0  0  0  0  0
  -20.6770  -26.9890   22.8050 C   0  0  0  0  0  2  0  0  0  0  0  0
  -19.6320  -26.5670   21.7680 C   0  0  0  0  0  2  0  0  0  0  0  0
  -18.2200  -26.6750   22.3520 C   0  0  0  0  0  2  0  0  0  0  0  0
  -19.0200  -28.8770   23.3920 C   0  0  0  0  0  0  0  0  0  0  0  0
  -18.7190  -30.1510   23.9200 C   0  0  0  0  0  3  0  0  0  0  0  0
  -17.3860  -30.5920   24.0190 C   0  0  0  0  0  3  0  0  0  0  0  0
  -16.3350  -29.7570   23.6020 C   0  0  0  0  0  3  0  0  0  0  0  0
  -16.6210  -28.4830   23.0780 C   0  0  0  0  0  3  0  0  0  0  0  0
  -25.8090  -32.6160   23.9050 C   0  0  0  0  0  3  0  0  0  0  0  0
  -25.4980  -34.0180   24.2380 N   0  0  0  0  0  0  0  0  0  0  0  0
  -25.7990  -35.0750   23.4720 C   0  0  0  0  0  0  0  0  0  0  0  0
  -26.4290  -34.9730   22.4160 O   0  0  0  0  0  0  0  0  0  0  0  0
  -24.9320  -34.1710   25.0600 H   0  0  0  0  0  0  0  0  0  0  0  0
  -24.0400  -36.8580   23.2060 C   0  0  0  0  0  1  0  0  0  0  0  0
  -25.3270  -36.4650   23.9480 C   0  0  0  0  0  3  0  0  0  0  0  0
  -27.4930  -37.3790   24.6600 C   0  0  0  0  0  1  0  0  0  0  0  0
  -26.3430  -37.5250   23.7720 N   0  0  0  0  0  0  0  0  0  0  0  0
  -25.9370  -38.4430   23.9290 H   0  0  0  0  0  0  0  0  0  0  0  0
  -26.3320  -31.8570   25.1870 C   0  0  1  0  0  0  0  0  0  0  0  0
  -25.2410  -31.6190   26.2580 C   0  0  0  0  0  1  0  0  0  0  0  0
  -26.9250  -30.4800   24.8100 C   0  0  0  0  0  1  0  0  0  0  0  0
  -27.4790  -32.6630   25.8400 C   0  0  0  0  0  1  0  0  0  0  0  0
  2  1  1  0
  2  6  1  0
  3  7  1  0
  3  2  2  0
  4 50  1  0
  4  1  2  0
  5 11  2  0
  5  3  1  0
  7 20  1  0
  7  8  1  0
  8 10  1  0
  8  6  1  0
  9  5  1  0
 11  4  1  0
 12 20  1  0
 13 18  1  0
 14 15  1  0
 14 13  1  0
 16 15  1  0
 16 25  1  0
 16 17  1  0
 18 12  1  0
 18 17  1  0
 19 12  2  0
 20 21  1  0
 22 23  2  0
 23 42  1  0
 24 23  1  0
 24 27  1  0
 25 26  1  0
 25 22  1  0
 26 24  2  0
 27 28  1  0
 28 29  2  0
 30 33  1  0
 30 29  1  0
 31 30  2  0
 32 31  1  0
 32 27  2  0
 33 34  1  0
 34 35  1  0
 35 36  2  0
 37 36  1  0
 37 41  1  0
 38 37  2  0
 39 34  2  0
 39 38  1  0
 40 39  1  0
 42 43  1  0
 43 46  1  0
 43 45  1  0
 44 42  2  0
 47 22  1  0
 47 48  1  0
 49 47  1  0
 50 51  1  0
 52 63  2  0
 53 51  1  0
 53 58  1  0
 54 62  1  0
 54 64  1  0
 55 61  1  0
 55 57  1  0
 56 62  1  0
 57 56  1  0
 58 57  2  0
 59 53  2  0
 60 59  1  0
 60 55  2  0
 61 54  1  0
 62 52  1  0
 64 66  2  0
 65 64  1  0
 67 65  1  0
 68 77  2  0
 68 73  1  0
 69 65  1  0
 69 73  1  0
 70 69  1  0
 71 72  1  0
 71 70  1  0
 72 68  1  0
 73 74  2  0
 74 75  1  0
 76 75  2  0
 77 76  1  0
 78 52  1  0
 78 79  1  0
 78 88  1  0
 79 82  1  0
 80 84  1  0
 80 79  1  0
 81 80  2  0
 84 83  1  0
 86 87  1  0
 86 84  1  0
 86 85  1  0
 88 91  1  1
 88 89  1  0
 90 88  1  0
M  ISO  4  12 100  20 100  50 101  51 101
M  END
>  <TORSDO>  (100) 
F 17

>  <SCORE>  (100) 
-15.279

>  <name>  (100) 
99

>  <ligand_id>  (100) 
99

>  <original_smiles>  (100) 
[H]c1c([H])c([H])c2c(c1[H])C([H])([H])C([H])([H])C([H])([H])C2([H])N([H])C(=O)C1([H])N(C(=O)C([H])(N([H])C(=O)C([H])(N([H])C([H])([H])[H])C([H])([H])[H])C(C([H])([H])[H])(C([H])([H])[H])C([H])([H])[H])C([H])([H])c2c([H])c(OC([H])([H])c3nc(C([H])([H])[H])c4c(c3[H])C([H])([H])C([H])(C([H])([H])[H])C4([H])N([H])C(=O)N3C([H])([H])C([H])([H])C([H])([H])C([H])(n4nc(-c5c([H])c([H])c(Oc6c([H])c([H])c(F)c([H])c6F)c([H])c5[H])c(C(=O)N([H])[H])c4N([H])[H])C3([H])[H])c([H])c([H])c2C1([H])[H]

>  <smiles>  (100) 
[H]c1c([H])c([H])c2c(c1[H])C([H])([H])C([H])([H])C([H])([H])C2([H])N([H])C(=O)C1([H])N(C(=O)C([H])(N([H])C(=O)C([H])(N([H])C([H])([H])[H])C([H])([H])[H])C(C([H])([H])[H])(C([H])([H])[H])C([H])([H])[H])C([H])([H])c2c([H])c(OC([H])([H])c3nc(C([H])([H])[H])c4c(c3[H])C([H])([H])C([H])(C([H])([H])[H])C4([H])N([H])C(=O)N3C([H])([H])C([H])([H])C([H])([H])C([H])(n4nc(-c5c([H])c([H])c(Oc6c([H])c([H])c(F)c([H])c6F)c([H])c5[H])c(C(=O)N([H])[H])c4N([H])[H])C3([H])[H])c([H])c([H])c2C1([H])[H]

$$$$
