0:0:0
     RDKit          3D

 94103  0  0  1  0  0  0  0  0999 V2000
  -29.2690  -22.1890   23.3220 C   0  0  0  0  0  3  0  0  0  0  0  0
  -29.9880  -21.0880   22.7320 C   0  0  0  0  0  3  0  0  0  0  0  0
  -29.2250  -23.3500   22.6510 C   0  0  0  0  0  3  0  0  0  0  0  0
  -30.5210  -21.1760   21.4910 C   0  0  0  0  0  0  0  0  0  0  0  0
  -30.3900  -22.4400   20.7230 C   0  0  0  0  0  0  0  0  0  0  0  0
  -29.8160  -23.4990   21.3820 N   0  0  0  0  0  0  0  0  0  0  0  0
  -30.7950  -22.5500   19.5620 O   0  0  0  0  0  0  0  0  0  0  0  0
  -31.3930  -20.0420   20.9360 C   0  0  0  0  0  2  0  0  0  0  0  0
  -31.3790  -17.7200   19.9700 C   0  0  0  0  0  2  0  0  0  0  0  0
  -29.9350  -18.0210   21.3750 C   0  0  0  0  0  2  0  0  0  0  0  0
  -30.1160  -16.9310   20.3180 C   0  0  0  0  0  3  0  0  0  0  0  0
  -30.6070  -18.8990   20.4020 N   0  0  1  0  0  4  0  0  0  0  0  0
  -29.9690  -19.1860   19.6730 H   0  0  0  0  0  0  0  0  0  0  0  0
  -30.9560  -14.5560   20.2700 C   0  0  0  0  0  0  0  0  0  0  0  0
  -30.6420  -12.4090   19.1110 C   0  0  0  0  0  2  0  0  0  0  0  0
  -29.6950  -12.6600   17.9170 C   0  0  0  0  0  2  0  0  0  0  0  0
  -28.2200  -12.5390   18.3520 C   0  0  0  0  0  2  0  0  0  0  0  0
  -27.9020  -13.3570   19.6340 C   0  0  0  0  0  3  0  0  0  0  0  0
  -28.9610  -13.0860   20.7290 C   0  0  0  0  0  2  0  0  0  0  0  0
  -30.2930  -13.3740   20.1660 N   0  0  0  0  0  0  0  0  0  0  0  0
  -32.0500  -14.7710   19.7390 O   0  0  0  0  0  0  0  0  0  0  0  0
  -30.2270  -15.5470   20.8140 N   0  0  0  0  0  0  0  0  0  0  0  0
  -29.4150  -15.2130   21.3100 H   0  0  0  0  0  0  0  0  0  0  0  0
  -25.5070  -13.9920   20.3430 C   0  0  0  0  0  0  0  0  0  0  0  0
  -24.4370  -13.2300   20.7270 C   0  0  0  0  0  0  0  0  0  0  0  0
  -24.8870  -11.8760   20.7050 C   0  0  0  0  0  0  0  0  0  0  0  0
  -26.5470  -13.1000   20.1180 N   0  0  0  0  0  0  0  0  0  0  0  0
  -26.1740  -11.8230   20.3900 N   0  0  0  0  0  0  0  0  0  0  0  0
  -24.1530  -10.6220   20.9130 C   0  0  0  0  0  0  0  0  0  0  0  0
  -24.5560   -9.6820   21.8880 C   0  0  0  0  0  3  0  0  0  0  0  0
  -23.8250   -8.4910   22.0810 C   0  0  0  0  0  3  0  0  0  0  0  0
  -22.6750   -8.2290   21.2990 C   0  0  0  0  0  0  0  0  0  0  0  0
  -22.2910   -9.1560   20.3150 C   0  0  0  0  0  3  0  0  0  0  0  0
  -23.0230  -10.3390   20.1210 C   0  0  0  0  0  3  0  0  0  0  0  0
  -21.9160   -7.0880   21.4000 O   0  0  0  0  0  0  0  0  0  0  0  0
  -21.7980   -6.4060   22.5850 C   0  0  0  0  0  0  0  0  0  0  0  0
  -21.2750   -7.0150   23.7460 C   0  0  0  0  0  3  0  0  0  0  0  0
  -21.1040   -6.2580   24.9210 C   0  0  0  0  0  3  0  0  0  0  0  0
  -21.4420   -4.8910   24.9380 C   0  0  0  0  0  0  0  0  0  0  0  0
  -21.9540   -4.2810   23.7790 C   0  0  0  0  0  3  0  0  0  0  0  0
  -22.1280   -5.0350   22.6060 C   0  0  0  0  0  0  0  0  0  0  0  0
  -22.6030   -4.4360   21.4890 F   0  0  0  0  0  0  0  0  0  0  0  0
  -21.2700   -4.1630   26.0660 F   0  0  0  0  0  0  0  0  0  0  0  0
  -23.0430  -13.7200   21.0040 C   0  0  0  0  0  0  0  0  0  0  0  0
  -22.3160  -13.0420   21.8860 N   0  0  0  0  0  0  0  0  0  0  0  0
  -22.6070  -14.7400   20.4710 O   0  0  0  0  0  0  0  0  0  0  0  0
  -22.6760  -12.2190   22.3470 H   0  0  0  0  0  0  0  0  0  0  0  0
  -21.3800  -13.3530   22.1060 H   0  0  0  0  0  0  0  0  0  0  0  0
  -25.6760  -15.3600   20.1490 N   0  0  0  0  0  0  0  0  0  0  0  0
  -24.9070  -16.0130   20.2540 H   0  0  0  0  0  0  0  0  0  0  0  0
  -26.5210  -15.7970   19.8040 H   0  0  0  0  0  0  0  0  0  0  0  0
  -29.8450  -24.8720   20.8340 C   0  0  0  0  0  2  0  0  0  0  0  0
  -28.4810  -25.3780   20.3130 C   0  0  0  0  0  2  0  0  0  0  0  0
  -28.5550  -26.7930   20.0750 O   0  0  0  0  0  0  0  0  0  0  0  0
  -24.6060  -31.8050   23.2040 C   0  0  0  0  0  0  0  0  0  0  0  0
  -27.3600  -27.4810   20.0650 C   0  0  0  0  0  0  0  0  0  0  0  0
  -23.4360  -30.4100   21.5300 C   0  0  0  0  0  3  0  0  0  0  0  0
  -24.9280  -28.9270   20.0840 C   0  0  0  0  0  0  0  0  0  0  0  0
  -25.9510  -30.8270   21.3490 C   0  0  0  0  0  2  0  0  0  0  0  0
  -26.0700  -29.4700   20.6850 C   0  0  0  0  0  0  0  0  0  0  0  0
  -27.2890  -28.7560   20.6680 C   0  0  0  0  0  3  0  0  0  0  0  0
  -26.2010  -26.9510   19.4550 C   0  0  0  0  0  3  0  0  0  0  0  0
  -24.9880  -27.6680   19.4610 C   0  0  0  0  0  3  0  0  0  0  0  0
  -23.6640  -29.7560   20.1390 C   0  0  0  0  0  2  0  0  0  0  0  0
  -24.6820  -31.0290   22.0870 N   0  0  0  0  0  0  0  0  0  0  0  0
  -23.5180  -32.0450   23.7460 O   0  0  0  0  0  0  0  0  0  0  0  0
  -22.8010  -29.3600   22.4690 C   0  0  0  0  0  0  0  0  0  0  0  0
  -21.4850  -29.1390   22.3190 N   0  0  0  0  0  0  0  0  0  0  0  0
  -23.4900  -28.7440   23.2880 O   0  0  0  0  0  0  0  0  0  0  0  0
  -20.9880  -29.6880   21.6310 H   0  0  0  0  0  0  0  0  0  0  0  0
  -18.1440  -27.8260   22.7340 C   0  0  0  0  0  0  0  0  0  0  0  0
  -20.6840  -28.1690   23.0660 C   0  0  0  0  0  3  0  0  0  0  0  0
  -20.8500  -26.7460   22.4850 C   0  0  0  0  0  2  0  0  0  0  0  0
  -19.7850  -26.3930   21.4440 C   0  0  0  0  0  2  0  0  0  0  0  0
  -18.3830  -26.4870   22.0560 C   0  0  0  0  0  2  0  0  0  0  0  0
  -19.2270  -28.6240   23.1940 C   0  0  0  0  0  0  0  0  0  0  0  0
  -18.9510  -29.8760   23.7860 C   0  0  0  0  0  3  0  0  0  0  0  0
  -17.6280  -30.3330   23.9210 C   0  0  0  0  0  3  0  0  0  0  0  0
  -16.5590  -29.5330   23.4770 C   0  0  0  0  0  3  0  0  0  0  0  0
  -16.8190  -28.2820   22.8910 C   0  0  0  0  0  3  0  0  0  0  0  0
  -25.8780  -32.4480   23.8400 C   0  0  0  0  0  3  0  0  0  0  0  0
  -26.3930  -31.6770   25.1180 C   0  0  1  0  0  0  0  0  0  0  0  0
  -25.2950  -31.4170   26.1750 C   0  0  0  0  0  1  0  0  0  0  0  0
  -26.9950  -30.3090   24.7200 C   0  0  0  0  0  1  0  0  0  0  0  0
  -27.5290  -32.4810   25.7920 C   0  0  0  0  0  1  0  0  0  0  0  0
  -25.5550  -33.8430   24.1670 N   0  0  0  0  0  0  0  0  0  0  0  0
  -25.8920  -34.8970   23.4110 C   0  0  0  0  0  0  0  0  0  0  0  0
  -26.5770  -34.7980   22.3890 O   0  0  0  0  0  0  0  0  0  0  0  0
  -24.9500  -33.9930   24.9610 H   0  0  0  0  0  0  0  0  0  0  0  0
  -24.1600  -36.6760   23.0160 C   0  0  0  0  0  1  0  0  0  0  0  0
  -25.3840  -36.2820   23.8570 C   0  0  0  0  0  3  0  0  0  0  0  0
  -27.4910  -37.1830   24.7400 C   0  0  0  0  0  1  0  0  0  0  0  0
  -26.4130  -37.3420   23.7680 N   0  0  0  0  0  0  0  0  0  0  0  0
  -25.9970  -38.2600   23.9040 H   0  0  0  0  0  0  0  0  0  0  0  0
  2  1  1  0
  3  1  2  0
  4  2  2  0
  5  6  1  0
  5  4  1  0
  6  3  1  0
  7  5  2  0
  8  4  1  0
  9 11  1  0
  9 12  1  0
 11 22  1  0
 11 10  1  0
 12  8  1  0
 12 10  1  0
 12 13  1  6
 14 22  1  0
 15 20  1  0
 16 17  1  0
 16 15  1  0
 18 17  1  0
 18 27  1  0
 18 19  1  0
 20 14  1  0
 20 19  1  0
 21 14  2  0
 22 23  1  0
 24 25  2  0
 25 44  1  0
 26 25  1  0
 26 29  1  0
 27 24  1  0
 27 28  1  0
 28 26  2  0
 29 30  1  0
 30 31  2  0
 32 35  1  0
 32 31  1  0
 33 32  2  0
 34 33  1  0
 34 29  2  0
 35 36  1  0
 36 41  2  0
 36 37  1  0
 37 38  2  0
 38 39  1  0
 39 43  1  0
 40 39  2  0
 41 40  1  0
 42 41  1  0
 44 45  1  0
 45 48  1  0
 45 47  1  0
 46 44  2  0
 49 50  1  0
 49 24  1  0
 51 49  1  0
 52  6  1  0
 53 52  1  0
 54 53  1  0
 55 66  2  0
 56 54  1  0
 56 61  1  0
 57 65  1  0
 57 67  1  0
 58 64  1  0
 58 60  1  0
 59 65  1  0
 60 59  1  0
 61 60  2  0
 62 63  1  0
 62 56  2  0
 63 58  2  0
 64 57  1  0
 65 55  1  0
 67 69  2  0
 68 67  1  0
 70 68  1  0
 71 80  2  0
 71 76  1  0
 72 68  1  0
 72 76  1  0
 73 72  1  0
 74 75  1  0
 74 73  1  0
 75 71  1  0
 76 77  2  0
 77 78  1  0
 79 78  2  0
 80 79  1  0
 81 55  1  0
 81 86  1  0
 81 82  1  0
 82 85  1  1
 82 83  1  0
 84 82  1  0
 86 89  1  0
 87 91  1  0
 87 86  1  0
 88 87  2  0
 91 90  1  0
 93 91  1  0
 93 94  1  0
 93 92  1  0
M  ISO  4  14 100  22 100  53 101  54 101
M  END
>  <TORSDO>  (1) 
F 20

>  <SCORE>  (1) 
-13.388

>  <name>  (1) 
0

>  <ligand_id>  (1) 
0

>  <original_smiles>  (1) 
[H]c1c([H])c([H])c2c(c1[H])C([H])([H])C([H])([H])C([H])([H])C2([H])N([H])C(=O)C1([H])N(C(=O)C([H])(N([H])C(=O)C([H])(N([H])C([H])([H])[H])C([H])([H])[H])C(C([H])([H])[H])(C([H])([H])[H])C([H])([H])[H])C([H])([H])c2c([H])c(OC([H])([H])C([H])([H])n3c([H])c([H])c([H])c(C([H])([H])[N+]4([H])C([H])([H])C([H])(N([H])C(=O)N5C([H])([H])C([H])([H])C([H])([H])C([H])(n6nc(-c7c([H])c([H])c(Oc8c([H])c([H])c(F)c([H])c8F)c([H])c7[H])c(C(=O)N([H])[H])c6N([H])[H])C5([H])[H])C4([H])[H])c3=O)c([H])c([H])c2C1([H])[H]

>  <smiles>  (1) 
[H]c1c([H])c([H])c2c(c1[H])C([H])([H])C([H])([H])C([H])([H])C2([H])N([H])C(=O)C1([H])N(C(=O)C([H])(N([H])C(=O)C([H])(N([H])C([H])([H])[H])C([H])([H])[H])C(C([H])([H])[H])(C([H])([H])[H])C([H])([H])[H])C([H])([H])c2c([H])c(OC([H])([H])C([H])([H])n3c([H])c([H])c([H])c(C([H])([H])[N+]4([H])C([H])([H])C([H])(N([H])C(=O)N5C([H])([H])C([H])([H])C([H])([H])C([H])(n6nc(-c7c([H])c([H])c(Oc8c([H])c([H])c(F)c([H])c8F)c([H])c7[H])c(C(=O)N([H])[H])c6N([H])[H])C5([H])[H])C4([H])[H])c3=O)c([H])c([H])c2C1([H])[H]

$$$$
1:0:0
     RDKit          3D

 90 99  0  0  1  0  0  0  0  0999 V2000
  -30.2440  -18.4500   18.8290 C   0  0  0  0  0  3  0  0  0  0  0  0
  -29.7140  -20.7920   18.6950 C   0  0  0  0  0  0  0  0  0  0  0  0
  -29.1680  -20.8840   20.0070 C   0  0  0  0  0  0  0  0  0  0  0  0
  -29.6870  -18.2310   20.1080 C   0  0  0  0  0  0  0  0  0  0  0  0
  -30.2400  -19.6430   18.1680 N   0  0  0  0  0  0  0  0  0  0  0  0
  -29.1670  -19.5310   20.6570 N   0  0  0  0  0  0  0  0  0  0  0  0
  -30.3970  -15.3660   20.3040 C   0  0  0  0  0  0  0  0  0  0  0  0
  -30.4060  -12.8910   19.4660 C   0  0  0  0  0  2  0  0  0  0  0  0
  -29.5130  -12.6720   18.2170 C   0  0  0  0  0  2  0  0  0  0  0  0
  -28.0610  -12.3840   18.6340 C   0  0  0  0  0  2  0  0  0  0  0  0
  -27.5860  -13.3420   19.7540 C   0  0  0  0  0  3  0  0  0  0  0  0
  -28.6150  -13.5110   20.8950 C   0  0  0  0  0  2  0  0  0  0  0  0
  -29.8500  -14.0390   20.2890 N   0  0  0  0  0  0  0  0  0  0  0  0
  -31.6050  -15.3560   20.0180 O   0  0  0  0  0  0  0  0  0  0  0  0
  -29.6500  -16.6500   20.5430 N   0  0  0  0  0  0  0  0  0  0  0  0
  -28.7870  -16.4360   21.0140 H   0  0  0  0  0  0  0  0  0  0  0  0
  -25.2030  -13.8890   20.4660 C   0  0  0  0  0  0  0  0  0  0  0  0
  -24.1380  -13.1110   20.8220 C   0  0  0  0  0  0  0  0  0  0  0  0
  -24.6120  -11.7620   20.8100 C   0  0  0  0  0  0  0  0  0  0  0  0
  -26.2530  -13.0180   20.2430 N   0  0  0  0  0  0  0  0  0  0  0  0
  -25.9090  -11.7320   20.5180 N   0  0  0  0  0  0  0  0  0  0  0  0
  -23.8850  -10.4980   20.9960 C   0  0  0  0  0  0  0  0  0  0  0  0
  -24.2950   -9.5410   21.9500 C   0  0  0  0  0  3  0  0  0  0  0  0
  -23.5640   -8.3470   22.1250 C   0  0  0  0  0  3  0  0  0  0  0  0
  -22.4090   -8.1010   21.3470 C   0  0  0  0  0  0  0  0  0  0  0  0
  -22.0160   -9.0470   20.3840 C   0  0  0  0  0  3  0  0  0  0  0  0
  -22.7470  -10.2320   20.2070 C   0  0  0  0  0  3  0  0  0  0  0  0
  -21.6520   -6.9570   21.4300 O   0  0  0  0  0  0  0  0  0  0  0  0
  -21.5750   -6.2270   22.5890 C   0  0  0  0  0  0  0  0  0  0  0  0
  -21.1140   -6.7930   23.7970 C   0  0  0  0  0  3  0  0  0  0  0  0
  -20.9860   -5.9890   24.9470 C   0  0  0  0  0  3  0  0  0  0  0  0
  -21.3100   -4.6200   24.8900 C   0  0  0  0  0  0  0  0  0  0  0  0
  -21.7660   -4.0540   23.6870 C   0  0  0  0  0  3  0  0  0  0  0  0
  -21.8950   -4.8550   22.5390 C   0  0  0  0  0  0  0  0  0  0  0  0
  -22.3140   -4.2990   21.3760 F   0  0  0  0  0  0  0  0  0  0  0  0
  -21.1800   -3.8470   25.9930 F   0  0  0  0  0  0  0  0  0  0  0  0
  -22.7360  -13.5860   21.0590 C   0  0  0  0  0  0  0  0  0  0  0  0
  -21.9910  -12.8970   21.9160 N   0  0  0  0  0  0  0  0  0  0  0  0
  -22.3090  -14.6100   20.5230 O   0  0  0  0  0  0  0  0  0  0  0  0
  -22.3500  -12.0730   22.3730 H   0  0  0  0  0  0  0  0  0  0  0  0
  -21.0500  -13.2000   22.1180 H   0  0  0  0  0  0  0  0  0  0  0  0
  -25.3640  -15.2600   20.2820 N   0  0  0  0  0  0  0  0  0  0  0  0
  -24.5880  -15.9090   20.3730 H   0  0  0  0  0  0  0  0  0  0  0  0
  -26.2080  -15.7000   19.9400 H   0  0  0  0  0  0  0  0  0  0  0  0
  -28.6000  -22.4360   16.9860 C   0  0  0  0  0  2  0  0  0  0  0  0
  -29.7480  -21.8050   16.2570 C   0  0  0  0  0  2  0  0  0  0  0  0
  -29.8150  -21.9730   17.7670 C   0  0  0  0  0  3  0  0  0  0  0  0
  -28.8080  -22.5130   20.6500 C   0  0  0  0  0  2  0  0  0  0  0  0
  -28.1830  -24.1320   20.0130 C   0  0  0  0  0  2  0  0  0  0  0  0
  -28.2180  -25.7560   20.4590 O   0  0  0  0  0  0  0  0  0  0  0  0
  -24.6170  -31.8310   23.2530 C   0  0  0  0  0  0  0  0  0  0  0  0
  -27.2170  -26.8760   20.3250 C   0  0  0  0  0  0  0  0  0  0  0  0
  -23.4500  -30.4160   21.6120 C   0  0  0  0  0  3  0  0  0  0  0  0
  -24.9210  -28.7900   20.2240 C   0  0  0  0  0  0  0  0  0  0  0  0
  -26.0210  -30.6110   21.5090 C   0  0  0  0  0  2  0  0  0  0  0  0
  -26.0990  -29.1890   20.8650 C   0  0  0  0  0  0  0  0  0  0  0  0
  -27.2340  -28.2530   20.8930 C   0  0  0  0  0  3  0  0  0  0  0  0
  -26.0120  -26.6440   19.6210 C   0  0  0  0  0  3  0  0  0  0  0  0
  -24.9070  -27.5400   19.5800 C   0  0  0  0  0  3  0  0  0  0  0  0
  -23.7030  -29.7160   20.2470 C   0  0  0  0  0  2  0  0  0  0  0  0
  -24.7170  -30.9830   22.1770 N   0  0  0  0  0  0  0  0  0  0  0  0
  -23.5190  -32.1280   23.7510 O   0  0  0  0  0  0  0  0  0  0  0  0
  -22.7360  -29.4350   22.5790 C   0  0  0  0  0  0  0  0  0  0  0  0
  -21.4060  -29.2830   22.4460 N   0  0  0  0  0  0  0  0  0  0  0  0
  -23.3880  -28.8090   23.4180 O   0  0  0  0  0  0  0  0  0  0  0  0
  -20.9310  -29.8360   21.7470 H   0  0  0  0  0  0  0  0  0  0  0  0
  -18.0060  -28.1160   22.9540 C   0  0  0  0  0  0  0  0  0  0  0  0
  -20.5690  -28.3550   23.2170 C   0  0  0  0  0  3  0  0  0  0  0  0
  -20.6550  -26.9220   22.6430 C   0  0  0  0  0  2  0  0  0  0  0  0
  -19.5500  -26.6110   21.6280 C   0  0  0  0  0  2  0  0  0  0  0  0
  -18.1690  -26.7670   22.2720 C   0  0  0  0  0  2  0  0  0  0  0  0
  -19.1320  -28.8680   23.3820 C   0  0  0  0  0  0  0  0  0  0  0  0
  -18.9210  -30.1290   23.9840 C   0  0  0  0  0  3  0  0  0  0  0  0
  -17.6200  -30.6360   24.1570 C   0  0  0  0  0  3  0  0  0  0  0  0
  -16.5100  -29.8820   23.7410 C   0  0  0  0  0  3  0  0  0  0  0  0
  -16.7040  -28.6230   23.1460 C   0  0  0  0  0  3  0  0  0  0  0  0
  -25.8760  -32.4830   23.9020 C   0  0  0  0  0  3  0  0  0  0  0  0
  -26.3430  -31.7500   25.2210 C   0  0  1  0  0  0  0  0  0  0  0  0
  -25.2140  -31.5580   26.2600 C   0  0  0  0  0  1  0  0  0  0  0  0
  -26.9250  -30.3540   24.9030 C   0  0  0  0  0  1  0  0  0  0  0  0
  -27.4790  -32.5570   25.8920 C   0  0  0  0  0  1  0  0  0  0  0  0
  -25.5580  -33.8930   24.1930 N   0  0  0  0  0  0  0  0  0  0  0  0
  -25.9080  -34.9360   23.4290 C   0  0  0  0  0  0  0  0  0  0  0  0
  -26.5930  -34.8110   22.4090 O   0  0  0  0  0  0  0  0  0  0  0  0
  -24.9490  -34.0640   24.9810 H   0  0  0  0  0  0  0  0  0  0  0  0
  -24.1940  -36.7390   23.0310 C   0  0  0  0  0  1  0  0  0  0  0  0
  -25.4270  -36.3380   23.8580 C   0  0  0  0  0  3  0  0  0  0  0  0
  -27.5570  -37.2320   24.6940 C   0  0  0  0  0  1  0  0  0  0  0  0
  -26.4660  -37.3830   23.7350 N   0  0  0  0  0  0  0  0  0  0  0  0
  -26.0640  -38.3090   23.8520 H   0  0  0  0  0  0  0  0  0  0  0  0
  1  4  1  0
  2  3  2  0
  3 48  1  0
  3  6  1  0
  4 15  1  0
  4  6  2  0
  5  2  1  0
  5  1  2  0
  7 15  1  0
  8 13  1  0
  9 10  1  0
  9  8  1  0
 11 10  1  0
 11 20  1  0
 11 12  1  0
 13  7  1  0
 13 12  1  0
 14  7  2  0
 15 16  1  0
 17 18  2  0
 18 37  1  0
 19 18  1  0
 19 22  1  0
 20 17  1  0
 20 21  1  0
 21 19  2  0
 22 23  1  0
 23 24  2  0
 25 28  1  0
 25 24  1  0
 26 25  2  0
 27 26  1  0
 27 22  2  0
 28 29  1  0
 29 30  1  0
 30 31  2  0
 32 31  1  0
 32 36  1  0
 33 32  2  0
 34 29  2  0
 34 33  1  0
 35 34  1  0
 37 38  1  0
 38 41  1  0
 38 40  1  0
 39 37  2  0
 42 43  1  0
 42 17  1  0
 44 42  1  0
 45 47  1  0
 46 45  1  0
 46 47  1  0
 47  2  1  0
 49 50  1  0
 49 48  1  0
 51 62  2  0
 52 50  1  0
 52 57  1  0
 53 61  1  0
 53 63  1  0
 54 60  1  0
 54 56  1  0
 55 61  1  0
 56 57  2  0
 56 55  1  0
 58 52  2  0
 59 58  1  0
 59 54  2  0
 60 53  1  0
 61 51  1  0
 63 65  2  0
 64 63  1  0
 66 64  1  0
 67 76  2  0
 67 72  1  0
 68 64  1  0
 68 72  1  0
 69 68  1  0
 70 71  1  0
 70 69  1  0
 71 67  1  0
 72 73  2  0
 73 74  1  0
 75 74  2  0
 76 75  1  0
 77 51  1  0
 77 82  1  0
 77 78  1  0
 78 81  1  1
 78 79  1  0
 80 78  1  0
 82 85  1  0
 83 87  1  0
 83 82  1  0
 84 83  2  0
 87 86  1  0
 89 90  1  0
 89 87  1  0
 89 88  1  0
M  ISO  4   7 100  15 100  49 101  50 101
M  END
>  <TORSDO>  (2) 
F 19

>  <SCORE>  (2) 
-15.247

>  <name>  (2) 
1

>  <ligand_id>  (2) 
1

>  <original_smiles>  (2) 
[H]c1nc(C2([H])C([H])([H])C2([H])[H])c(C([H])([H])C([H])([H])Oc2c([H])c([H])c3c(c2[H])C([H])([H])N(C(=O)C([H])(N([H])C(=O)C([H])(N([H])C([H])([H])[H])C([H])([H])[H])C(C([H])([H])[H])(C([H])([H])[H])C([H])([H])[H])C([H])(C(=O)N([H])C2([H])c4c([H])c([H])c([H])c([H])c4C([H])([H])C([H])([H])C2([H])[H])C3([H])[H])nc1N([H])C(=O)N1C([H])([H])C([H])([H])C([H])([H])C([H])(n2nc(-c3c([H])c([H])c(Oc4c([H])c([H])c(F)c([H])c4F)c([H])c3[H])c(C(=O)N([H])[H])c2N([H])[H])C1([H])[H]

>  <smiles>  (2) 
[H]c1nc(C2([H])C([H])([H])C2([H])[H])c(C([H])([H])C([H])([H])Oc2c([H])c([H])c3c(c2[H])C([H])([H])N(C(=O)C([H])(N([H])C(=O)C([H])(N([H])C([H])([H])[H])C([H])([H])[H])C(C([H])([H])[H])(C([H])([H])[H])C([H])([H])[H])C([H])(C(=O)N([H])C2([H])c4c([H])c([H])c([H])c([H])c4C([H])([H])C([H])([H])C2([H])[H])C3([H])[H])nc1N([H])C(=O)N1C([H])([H])C([H])([H])C([H])([H])C([H])(n2nc(-c3c([H])c([H])c(Oc4c([H])c([H])c(F)c([H])c4F)c([H])c3[H])c(C(=O)N([H])[H])c2N([H])[H])C1([H])[H]

$$$$
2:0:0
     RDKit          3D

 94104  0  0  1  0  0  0  0  0999 V2000
  -29.0780  -22.4210   20.2000 C   0  0  0  0  0  3  0  0  0  0  0  0
  -28.3240  -20.9850   18.4010 C   0  0  0  0  0  3  0  0  0  0  0  0
  -28.9910  -21.0460   19.6400 C   0  0  0  0  0  0  0  0  0  0  0  0
  -28.5580  -23.6040   19.4790 C   0  0  0  0  0  0  0  0  0  0  0  0
  -28.0930  -23.2890   18.1980 C   0  0  0  0  0  0  0  0  0  0  0  0
  -28.5520  -25.6670   18.0710 C   0  0  0  0  0  2  0  0  0  0  0  0
  -28.7800  -25.2240   19.5400 C   0  0  0  0  0  3  0  0  0  0  0  0
  -27.9750  -24.4740   17.2580 C   0  0  1  0  0  0  0  0  0  0  0  0
  -28.8520  -24.2680   16.0020 C   0  0  0  0  0  1  0  0  0  0  0  0
  -26.5050  -24.6650   16.8270 C   0  0  0  0  0  1  0  0  0  0  0  0
  -27.8960  -22.0510   17.7010 N   0  0  0  0  0  0  0  0  0  0  0  0
  -30.8380  -14.9940   20.0130 C   0  0  0  0  0  0  0  0  0  0  0  0
  -30.5050  -12.7000   19.0230 C   0  0  0  0  0  2  0  0  0  0  0  0
  -29.5240  -12.7100   17.8340 C   0  0  0  0  0  2  0  0  0  0  0  0
  -28.0830  -12.5260   18.3370 C   0  0  0  0  0  2  0  0  0  0  0  0
  -27.7540  -13.4390   19.5470 C   0  0  0  0  0  3  0  0  0  0  0  0
  -28.8650  -13.4300   20.6180 C   0  0  0  0  0  2  0  0  0  0  0  0
  -30.1050  -13.8140   19.9310 N   0  0  0  0  0  0  0  0  0  0  0  0
  -32.0390  -14.8880   19.7430 O   0  0  0  0  0  0  0  0  0  0  0  0
  -28.5910  -18.3990   20.4070 C   0  0  0  0  0  2  0  0  0  0  0  0
  -30.5820  -18.8920   19.2040 C   0  0  0  0  0  2  0  0  0  0  0  0
  -29.1310  -16.9090   20.7630 C   0  0  0  0  0  2  0  0  0  0  0  0
  -31.1850  -17.4810   19.6460 C   0  0  0  0  0  2  0  0  0  0  0  0
  -29.5920  -19.6180   20.1790 C   0  0  0  0  0  3  0  0  0  0  0  0
  -30.2850  -16.3180   20.0000 N   0  0  0  0  0  0  0  0  0  0  0  0
  -25.4200  -14.0330   20.4040 C   0  0  0  0  0  0  0  0  0  0  0  0
  -24.3630  -13.2640   20.8040 C   0  0  0  0  0  0  0  0  0  0  0  0
  -24.8080  -11.9080   20.7280 C   0  0  0  0  0  0  0  0  0  0  0  0
  -26.4410  -13.1490   20.1050 N   0  0  0  0  0  0  0  0  0  0  0  0
  -26.0860  -11.8630   20.3660 N   0  0  0  0  0  0  0  0  0  0  0  0
  -24.0730  -10.6520   20.9170 C   0  0  0  0  0  0  0  0  0  0  0  0
  -24.4950   -9.6820   21.8550 C   0  0  0  0  0  3  0  0  0  0  0  0
  -23.7570   -8.4920   22.0360 C   0  0  0  0  0  3  0  0  0  0  0  0
  -22.5810   -8.2650   21.2800 C   0  0  0  0  0  0  0  0  0  0  0  0
  -22.1790   -9.2220   20.3320 C   0  0  0  0  0  3  0  0  0  0  0  0
  -22.9180  -10.4020   20.1480 C   0  0  0  0  0  3  0  0  0  0  0  0
  -21.8140   -7.1280   21.3700 O   0  0  0  0  0  0  0  0  0  0  0  0
  -21.7240   -6.4120   22.5380 C   0  0  0  0  0  0  0  0  0  0  0  0
  -21.2150   -6.9840   23.7250 C   0  0  0  0  0  3  0  0  0  0  0  0
  -21.0750   -6.1920   24.8820 C   0  0  0  0  0  3  0  0  0  0  0  0
  -21.4340   -4.8310   24.8530 C   0  0  0  0  0  0  0  0  0  0  0  0
  -21.9370   -4.2610   23.6710 C   0  0  0  0  0  3  0  0  0  0  0  0
  -22.0780   -5.0490   22.5160 C   0  0  0  0  0  0  0  0  0  0  0  0
  -22.5430   -4.4890   21.3730 F   0  0  0  0  0  0  0  0  0  0  0  0
  -21.2940   -4.0690   25.9630 F   0  0  0  0  0  0  0  0  0  0  0  0
  -22.9840  -13.7540   21.1380 C   0  0  0  0  0  0  0  0  0  0  0  0
  -22.2890  -13.0600   22.0310 N   0  0  0  0  0  0  0  0  0  0  0  0
  -22.5370  -14.7880   20.6440 O   0  0  0  0  0  0  0  0  0  0  0  0
  -22.6650  -12.2200   22.4480 H   0  0  0  0  0  0  0  0  0  0  0  0
  -21.3680  -13.3700   22.3040 H   0  0  0  0  0  0  0  0  0  0  0  0
  -25.5890  -15.4050   20.2410 N   0  0  0  0  0  0  0  0  0  0  0  0
  -24.8290  -16.0590   20.3950 H   0  0  0  0  0  0  0  0  0  0  0  0
  -26.4180  -15.8430   19.8630 H   0  0  0  0  0  0  0  0  0  0  0  0
  -28.3020  -26.3210   20.5090 O   0  0  0  0  0  0  0  0  0  0  0  0
  -24.5870  -31.9950   23.2690 C   0  0  0  0  0  0  0  0  0  0  0  0
  -27.2160  -27.2490   20.3770 C   0  0  0  0  0  0  0  0  0  0  0  0
  -23.4050  -30.5490   21.6620 C   0  0  0  0  0  3  0  0  0  0  0  0
  -24.8660  -28.9460   20.2920 C   0  0  0  0  0  0  0  0  0  0  0  0
  -25.9540  -30.8350   21.4980 C   0  0  0  0  0  2  0  0  0  0  0  0
  -26.0370  -29.4270   20.8900 C   0  0  0  0  0  0  0  0  0  0  0  0
  -27.2100  -28.5910   20.9210 C   0  0  0  0  0  3  0  0  0  0  0  0
  -26.0050  -26.8400   19.7910 C   0  0  0  0  0  3  0  0  0  0  0  0
  -24.8580  -27.6600   19.7300 C   0  0  0  0  0  3  0  0  0  0  0  0
  -23.6360  -29.8360   20.3030 C   0  0  0  0  0  2  0  0  0  0  0  0
  -24.6690  -31.1480   22.2000 N   0  0  0  0  0  0  0  0  0  0  0  0
  -23.4960  -32.2900   23.7820 O   0  0  0  0  0  0  0  0  0  0  0  0
  -22.7270  -29.5640   22.6470 C   0  0  0  0  0  0  0  0  0  0  0  0
  -21.4120  -29.3380   22.4770 N   0  0  0  0  0  0  0  0  0  0  0  0
  -23.3870  -29.0050   23.5260 O   0  0  0  0  0  0  0  0  0  0  0  0
  -20.9370  -29.8410   21.7420 H   0  0  0  0  0  0  0  0  0  0  0  0
  -18.0630  -28.0260   22.8850 C   0  0  0  0  0  0  0  0  0  0  0  0
  -20.5920  -28.4140   23.2630 C   0  0  0  0  0  3  0  0  0  0  0  0
  -20.7810  -26.9570   22.7820 C   0  0  0  0  0  2  0  0  0  0  0  0
  -19.7470  -26.5270   21.7380 C   0  0  0  0  0  2  0  0  0  0  0  0
  -18.3290  -26.6500   22.3020 C   0  0  0  0  0  2  0  0  0  0  0  0
  -19.1260  -28.8610   23.3220 C   0  0  0  0  0  0  0  0  0  0  0  0
  -18.8250  -30.1450   23.8270 C   0  0  0  0  0  3  0  0  0  0  0  0
  -17.4920  -30.5960   23.8990 C   0  0  0  0  0  3  0  0  0  0  0  0
  -16.4440  -29.7600   23.4770 C   0  0  0  0  0  3  0  0  0  0  0  0
  -16.7290  -28.4780   22.9760 C   0  0  0  0  0  3  0  0  0  0  0  0
  -25.8600  -32.6550   23.8860 C   0  0  0  0  0  3  0  0  0  0  0  0
  -25.5260  -34.0480   24.2190 N   0  0  0  0  0  0  0  0  0  0  0  0
  -25.8470  -35.1110   23.4690 C   0  0  0  0  0  0  0  0  0  0  0  0
  -26.5230  -35.0200   22.4410 O   0  0  0  0  0  0  0  0  0  0  0  0
  -24.9270  -34.1920   25.0200 H   0  0  0  0  0  0  0  0  0  0  0  0
  -24.1160  -36.8970   23.0920 C   0  0  0  0  0  1  0  0  0  0  0  0
  -25.3390  -36.4900   23.9310 C   0  0  0  0  0  3  0  0  0  0  0  0
  -27.4370  -37.3890   24.8360 C   0  0  0  0  0  1  0  0  0  0  0  0
  -26.3670  -37.5510   23.8550 N   0  0  0  0  0  0  0  0  0  0  0  0
  -25.9480  -38.4680   23.9920 H   0  0  0  0  0  0  0  0  0  0  0  0
  -26.3890  -31.8960   25.1660 C   0  0  1  0  0  0  0  0  0  0  0  0
  -25.2900  -31.5870   26.2080 C   0  0  0  0  0  1  0  0  0  0  0  0
  -27.0550  -30.5570   24.7710 C   0  0  0  0  0  1  0  0  0  0  0  0
  -27.4830  -32.7420   25.8600 C   0  0  0  0  0  1  0  0  0  0  0  0
  2  3  2  0
  3  1  1  0
  4  7  1  0
  4  1  2  0
  5  4  1  0
  6  7  1  0
  7 54  1  0
  8  6  1  0
  8  5  1  0
  8  9  1  6
 10  8  1  0
 11  5  2  0
 11  2  1  0
 13 18  1  0
 14 15  1  0
 14 13  1  0
 16 15  1  0
 16 29  1  0
 16 17  1  0
 18 12  1  0
 18 17  1  0
 19 12  2  0
 20 22  1  0
 21 23  1  0
 21 24  1  0
 23 25  1  0
 24  3  1  0
 24 20  1  0
 25 12  1  0
 25 22  1  0
 26 27  2  0
 27 46  1  0
 28 27  1  0
 28 31  1  0
 29 30  1  0
 29 26  1  0
 30 28  2  0
 31 32  1  0
 32 33  2  0
 34 37  1  0
 34 33  1  0
 35 34  2  0
 36 35  1  0
 36 31  2  0
 37 38  1  0
 38 39  1  0
 39 40  2  0
 41 40  1  0
 41 45  1  0
 42 41  2  0
 43 38  2  0
 43 42  1  0
 44 43  1  0
 46 47  1  0
 47 50  1  0
 47 49  1  0
 48 46  2  0
 51 52  1  0
 51 26  1  0
 53 51  1  0
 55 66  2  0
 56 54  1  0
 56 61  1  0
 57 65  1  0
 57 67  1  0
 58 64  1  0
 58 60  1  0
 59 65  1  0
 60 61  2  0
 60 59  1  0
 62 56  2  0
 63 62  1  0
 63 58  2  0
 64 57  1  0
 65 55  1  0
 67 69  2  0
 68 67  1  0
 70 68  1  0
 71 80  2  0
 71 76  1  0
 72 68  1  0
 72 76  1  0
 73 72  1  0
 74 75  1  0
 74 73  1  0
 75 71  1  0
 76 77  2  0
 77 78  1  0
 79 78  2  0
 80 79  1  0
 81 55  1  0
 81 82  1  0
 81 91  1  0
 82 85  1  0
 83 87  1  0
 83 82  1  0
 84 83  2  0
 87 86  1  0
 89 87  1  0
 89 90  1  0
 89 88  1  0
 91 94  1  1
 91 92  1  0
 93 91  1  0
M  ISO  4   7 101  12 100  25 100  54 101
M  END
>  <TORSDO>  (3) 
F 16

>  <SCORE>  (3) 
-15.519

>  <name>  (3) 
2

>  <ligand_id>  (3) 
2

>  <original_smiles>  (3) 
[H]c1nc2c(c([H])c1C1([H])C([H])([H])C([H])([H])N(C(=O)N3C([H])([H])C([H])([H])C([H])([H])C([H])(n4nc(-c5c([H])c([H])c(Oc6c([H])c([H])c(F)c([H])c6F)c([H])c5[H])c(C(=O)N([H])[H])c4N([H])[H])C3([H])[H])C([H])([H])C1([H])[H])C([H])(Oc1c([H])c([H])c3c(c1[H])C([H])([H])N(C(=O)C([H])(N([H])C(=O)C([H])(N([H])C([H])([H])[H])C([H])([H])[H])C(C([H])([H])[H])(C([H])([H])[H])C([H])([H])[H])C([H])(C(=O)N([H])C1([H])c4c([H])c([H])c([H])c([H])c4C([H])([H])C([H])([H])C1([H])[H])C3([H])[H])C([H])([H])C2(C([H])([H])[H])C([H])([H])[H]

>  <smiles>  (3) 
[H]c1nc2c(c([H])c1C1([H])C([H])([H])C([H])([H])N(C(=O)N3C([H])([H])C([H])([H])C([H])([H])C([H])(n4nc(-c5c([H])c([H])c(Oc6c([H])c([H])c(F)c([H])c6F)c([H])c5[H])c(C(=O)N([H])[H])c4N([H])[H])C3([H])[H])C([H])([H])C1([H])[H])C([H])(Oc1c([H])c([H])c3c(c1[H])C([H])([H])N(C(=O)C([H])(N([H])C(=O)C([H])(N([H])C([H])([H])[H])C([H])([H])[H])C(C([H])([H])[H])(C([H])([H])[H])C([H])([H])[H])C([H])(C(=O)N([H])C1([H])c4c([H])c([H])c([H])c([H])c4C([H])([H])C([H])([H])C1([H])[H])C3([H])[H])C([H])([H])C2(C([H])([H])[H])C([H])([H])[H]

$$$$
3:0:0
     RDKit          3D

 94103  0  0  1  0  0  0  0  0999 V2000
  -29.6080  -22.2970   20.7200 C   0  0  0  0  0  0  0  0  0  0  0  0
  -28.4100  -22.7810   20.0560 C   0  0  0  0  0  0  0  0  0  0  0  0
  -30.0460  -20.8730   20.7570 C   0  0  0  0  0  0  0  0  0  0  0  0
  -29.3520  -19.7380   20.1560 C   0  0  0  0  0  0  0  0  0  0  0  0
  -27.7860  -21.5800   19.4930 C   0  0  0  0  0  0  0  0  0  0  0  0
  -28.2150  -20.2170   19.5200 N   0  0  0  0  0  0  0  0  0  0  0  0
  -31.2200  -20.6060   21.3780 F   0  0  0  0  0  0  0  0  0  0  0  0
  -30.8280  -24.6260   20.7530 C   0  0  0  0  0  2  0  0  0  0  0  0
  -31.8910  -23.5770   20.9610 C   0  0  0  0  0  2  0  0  0  0  0  0
  -30.4710  -23.3120   21.4110 C   0  0  0  0  0  3  0  0  0  0  0  0
  -30.6240  -18.2420   18.4660 C   0  0  0  0  0  1  0  0  0  0  0  0
  -30.0690  -18.1690   19.8990 C   0  0  0  0  0  0  0  0  0  0  0  0
  -30.3910  -15.3020   20.0070 C   0  0  0  0  0  0  0  0  0  0  0  0
  -30.2900  -12.8880   19.0870 C   0  0  0  0  0  2  0  0  0  0  0  0
  -29.3090  -12.7240   17.9000 C   0  0  0  0  0  2  0  0  0  0  0  0
  -27.8850  -12.4480   18.4100 C   0  0  0  0  0  2  0  0  0  0  0  0
  -27.4950  -13.3860   19.5820 C   0  0  0  0  0  3  0  0  0  0  0  0
  -28.6000  -13.5070   20.6520 C   0  0  0  0  0  2  0  0  0  0  0  0
  -29.8000  -14.0110   19.9650 N   0  0  0  0  0  0  0  0  0  0  0  0
  -31.5950  -15.2880   19.7190 O   0  0  0  0  0  0  0  0  0  0  0  0
  -29.6690  -16.5820   20.1470 N   0  0  0  0  0  4  0  0  0  0  0  0
  -28.6930  -16.4610   20.3750 H   0  0  0  0  0  0  0  0  0  0  0  0
  -25.1650  -13.9140   20.4740 C   0  0  0  0  0  0  0  0  0  0  0  0
  -24.1270  -13.1230   20.8780 C   0  0  0  0  0  0  0  0  0  0  0  0
  -24.5960  -11.7760   20.7870 C   0  0  0  0  0  0  0  0  0  0  0  0
  -26.1970  -13.0510   20.1520 N   0  0  0  0  0  0  0  0  0  0  0  0
  -25.8700  -11.7560   20.4080 N   0  0  0  0  0  0  0  0  0  0  0  0
  -23.8830  -10.5060   20.9780 C   0  0  0  0  0  0  0  0  0  0  0  0
  -24.3380   -9.5330   21.8960 C   0  0  0  0  0  3  0  0  0  0  0  0
  -23.6220   -8.3300   22.0780 C   0  0  0  0  0  3  0  0  0  0  0  0
  -22.4360   -8.0920   21.3430 C   0  0  0  0  0  0  0  0  0  0  0  0
  -22.0000   -9.0520   20.4140 C   0  0  0  0  0  3  0  0  0  0  0  0
  -22.7180  -10.2470   20.2300 C   0  0  0  0  0  3  0  0  0  0  0  0
  -21.6890   -6.9420   21.4350 O   0  0  0  0  0  0  0  0  0  0  0  0
  -21.6380   -6.2070   22.5930 C   0  0  0  0  0  0  0  0  0  0  0  0
  -21.1490   -6.7530   23.8000 C   0  0  0  0  0  3  0  0  0  0  0  0
  -21.0490   -5.9420   24.9490 C   0  0  0  0  0  3  0  0  0  0  0  0
  -21.4290   -4.5880   24.8910 C   0  0  0  0  0  0  0  0  0  0  0  0
  -21.9130   -4.0420   23.6890 C   0  0  0  0  0  3  0  0  0  0  0  0
  -22.0140   -4.8490   22.5420 C   0  0  0  0  0  0  0  0  0  0  0  0
  -22.4600   -4.3140   21.3810 F   0  0  0  0  0  0  0  0  0  0  0  0
  -21.3270   -3.8070   25.9920 F   0  0  0  0  0  0  0  0  0  0  0  0
  -22.7440  -13.5860   21.2280 C   0  0  0  0  0  0  0  0  0  0  0  0
  -22.0580  -12.8640   22.1060 N   0  0  0  0  0  0  0  0  0  0  0  0
  -22.2810  -14.6250   20.7580 O   0  0  0  0  0  0  0  0  0  0  0  0
  -22.4470  -12.0230   22.5080 H   0  0  0  0  0  0  0  0  0  0  0  0
  -21.1320  -13.1550   22.3820 H   0  0  0  0  0  0  0  0  0  0  0  0
  -25.3120  -15.2900   20.3240 N   0  0  0  0  0  0  0  0  0  0  0  0
  -24.5450  -15.9330   20.4880 H   0  0  0  0  0  0  0  0  0  0  0  0
  -26.1260  -15.7400   19.9280 H   0  0  0  0  0  0  0  0  0  0  0  0
  -25.9440  -20.7310   18.1780 C   0  0  0  0  0  1  0  0  0  0  0  0
  -26.5970  -21.8150   18.8340 O   0  0  0  0  0  0  0  0  0  0  0  0
  -27.6560  -24.3540   19.9590 C   0  0  0  0  0  2  0  0  0  0  0  0
  -28.0470  -25.9220   20.1790 O   0  0  0  0  0  0  0  0  0  0  0  0
  -24.5300  -31.8700   23.1900 C   0  0  0  0  0  0  0  0  0  0  0  0
  -27.0530  -27.0290   20.1210 C   0  0  0  0  0  0  0  0  0  0  0  0
  -23.3180  -30.4830   21.5590 C   0  0  0  0  0  3  0  0  0  0  0  0
  -24.7520  -28.8950   20.1120 C   0  0  0  0  0  0  0  0  0  0  0  0
  -25.8830  -30.7030   21.3840 C   0  0  0  0  0  2  0  0  0  0  0  0
  -25.9460  -29.2990   20.7210 C   0  0  0  0  0  0  0  0  0  0  0  0
  -27.0920  -28.3860   20.7040 C   0  0  0  0  0  3  0  0  0  0  0  0
  -25.8280  -26.7780   19.4620 C   0  0  0  0  0  3  0  0  0  0  0  0
  -24.7160  -27.6530   19.4610 C   0  0  0  0  0  3  0  0  0  0  0  0
  -23.5320  -29.8100   20.1760 C   0  0  0  0  0  2  0  0  0  0  0  0
  -24.5990  -31.0450   22.0970 N   0  0  0  0  0  0  0  0  0  0  0  0
  -23.4460  -32.1570   23.7260 O   0  0  0  0  0  0  0  0  0  0  0  0
  -22.6370  -29.4790   22.5270 C   0  0  0  0  0  0  0  0  0  0  0  0
  -21.3110  -29.2890   22.3930 N   0  0  0  0  0  0  0  0  0  0  0  0
  -23.3080  -28.8720   23.3650 O   0  0  0  0  0  0  0  0  0  0  0  0
  -20.8220  -29.8300   21.6940 H   0  0  0  0  0  0  0  0  0  0  0  0
  -17.9460  -28.0250   22.8890 C   0  0  0  0  0  0  0  0  0  0  0  0
  -20.5000  -28.3430   23.1670 C   0  0  0  0  0  3  0  0  0  0  0  0
  -20.6320  -26.9080   22.6070 C   0  0  0  0  0  2  0  0  0  0  0  0
  -19.5430  -26.5540   21.5900 C   0  0  0  0  0  2  0  0  0  0  0  0
  -18.1540  -26.6760   22.2230 C   0  0  0  0  0  2  0  0  0  0  0  0
  -19.0460  -28.8140   23.3180 C   0  0  0  0  0  0  0  0  0  0  0  0
  -18.7950  -30.0740   23.9050 C   0  0  0  0  0  3  0  0  0  0  0  0
  -17.4790  -30.5460   24.0630 C   0  0  0  0  0  3  0  0  0  0  0  0
  -16.3940  -29.7550   23.6480 C   0  0  0  0  0  3  0  0  0  0  0  0
  -16.6280  -28.4960   23.0670 C   0  0  0  0  0  3  0  0  0  0  0  0
  -25.8080  -32.5110   23.8110 C   0  0  0  0  0  3  0  0  0  0  0  0
  -26.3080  -31.7610   25.1070 C   0  0  1  0  0  0  0  0  0  0  0  0
  -25.2050  -31.5510   26.1710 C   0  0  0  0  0  1  0  0  0  0  0  0
  -26.8870  -30.3730   24.7530 C   0  0  0  0  0  1  0  0  0  0  0  0
  -27.4590  -32.5610   25.7630 C   0  0  0  0  0  1  0  0  0  0  0  0
  -25.5030  -33.9170   24.1250 N   0  0  0  0  0  0  0  0  0  0  0  0
  -25.8290  -34.9640   23.3540 C   0  0  0  0  0  0  0  0  0  0  0  0
  -26.4780  -34.8470   22.3130 O   0  0  0  0  0  0  0  0  0  0  0  0
  -24.9250  -34.0830   24.9350 H   0  0  0  0  0  0  0  0  0  0  0  0
  -24.1040  -36.7690   23.0200 C   0  0  0  0  0  1  0  0  0  0  0  0
  -25.3590  -36.3620   23.8080 C   0  0  0  0  0  3  0  0  0  0  0  0
  -27.5070  -37.2550   24.5970 C   0  0  0  0  0  1  0  0  0  0  0  0
  -26.3950  -37.4080   23.6630 N   0  0  0  0  0  0  0  0  0  0  0  0
  -25.9950  -38.3320   23.7960 H   0  0  0  0  0  0  0  0  0  0  0  0
  1  3  1  0
  1 10  1  0
  2  1  2  0
  3  7  1  0
  4  3  2  0
  5  6  2  0
  5  2  1  0
  6  4  1  0
  8  9  1  0
  8 10  1  0
  9 10  1  0
 11 12  1  0
 12 21  2  0
 12  4  1  0
 13 21  1  0
 14 19  1  0
 15 16  1  0
 15 14  1  0
 17 16  1  0
 17 26  1  0
 17 18  1  0
 19 13  1  0
 19 18  1  0
 20 13  2  0
 21 22  1  0
 23 24  2  0
 24 43  1  0
 25 24  1  0
 25 28  1  0
 26 27  1  0
 26 23  1  0
 27 25  2  0
 28 29  1  0
 29 30  2  0
 31 34  1  0
 31 30  1  0
 32 31  2  0
 33 32  1  0
 33 28  2  0
 34 35  1  0
 35 36  1  0
 36 37  2  0
 38 37  1  0
 38 42  1  0
 39 38  2  0
 40 35  2  0
 40 39  1  0
 41 40  1  0
 43 44  1  0
 44 47  1  0
 44 46  1  0
 45 43  2  0
 48 23  1  0
 48 49  1  0
 50 48  1  0
 51 52  1  0
 52  5  1  0
 53  2  1  0
 53 54  1  0
 55 66  2  0
 56 54  1  0
 56 61  1  0
 57 65  1  0
 57 67  1  0
 58 64  1  0
 58 60  1  0
 59 65  1  0
 60 59  1  0
 61 60  2  0
 62 56  2  0
 63 62  1  0
 63 58  2  0
 64 57  1  0
 65 55  1  0
 67 69  2  0
 68 67  1  0
 70 68  1  0
 71 80  2  0
 71 76  1  0
 72 68  1  0
 72 76  1  0
 73 72  1  0
 74 75  1  0
 74 73  1  0
 75 71  1  0
 76 77  2  0
 77 78  1  0
 79 78  2  0
 80 79  1  0
 81 55  1  0
 81 86  1  0
 81 82  1  0
 82 85  1  1
 82 83  1  0
 84 82  1  0
 86 89  1  0
 87 91  1  0
 87 86  1  0
 88 87  2  0
 91 90  1  0
 93 94  1  0
 93 91  1  0
 93 92  1  0
M  ISO  4  13 100  21 100  53 101  54 101
M  END
>  <TORSDO>  (4) 
F 20

>  <SCORE>  (4) 
-14.944

>  <name>  (4) 
3

>  <ligand_id>  (4) 
3

>  <original_smiles>  (4) 
[H]c1c([H])c([H])c2c(c1[H])C([H])([H])C([H])([H])C([H])([H])C2([H])N([H])C(=O)C1([H])N(C(=O)C([H])(N([H])C(=O)C([H])(N([H])C([H])([H])[H])C([H])([H])[H])C(C([H])([H])[H])(C([H])([H])[H])C([H])([H])[H])C([H])([H])c2c([H])c(OC([H])([H])c3c(OC([H])([H])[H])nc(C([H])(N([H])C(=O)N4C([H])([H])C([H])([H])C([H])([H])C([H])(n5nc(-c6c([H])c([H])c(Oc7c([H])c([H])c(F)c([H])c7F)c([H])c6[H])c(C(=O)N([H])[H])c5N([H])[H])C4([H])[H])C([H])([H])[H])c(F)c3C3([H])C([H])([H])C3([H])[H])c([H])c([H])c2C1([H])[H]

>  <smiles>  (4) 
[H]c1c([H])c([H])c2c(c1[H])C([H])([H])C([H])([H])C([H])([H])C2([H])N([H])C(=O)C1([H])N(C(=O)C([H])(N([H])C(=O)C([H])(N([H])C([H])([H])[H])C([H])([H])[H])C(C([H])([H])[H])(C([H])([H])[H])C([H])([H])[H])C([H])([H])c2c([H])c(OC([H])([H])c3c(OC([H])([H])[H])nc(C([H])(N([H])C(=O)N4C([H])([H])C([H])([H])C([H])([H])C([H])(n5nc(-c6c([H])c([H])c(Oc7c([H])c([H])c(F)c([H])c7F)c([H])c6[H])c(C(=O)N([H])[H])c5N([H])[H])C4([H])[H])C([H])([H])[H])c(F)c3C3([H])C([H])([H])C3([H])[H])c([H])c([H])c2C1([H])[H]

$$$$
4:0:0
     RDKit          3D

 92101  0  0  1  0  0  0  0  0999 V2000
  -29.8680  -22.5490   21.7930 C   0  0  0  0  0  3  0  0  0  0  0  0
  -28.1840  -21.3390   20.0710 C   0  0  0  0  0  3  0  0  0  0  0  0
  -28.7330  -23.2470   21.2870 C   0  0  0  0  0  0  0  0  0  0  0  0
  -29.3410  -20.6610   20.5360 C   0  0  0  0  0  0  0  0  0  0  0  0
  -27.8820  -22.6170   20.4330 N   0  0  0  0  0  0  0  0  0  0  0  0
  -30.1700  -21.2680   21.4290 N   0  0  0  0  0  0  0  0  0  0  0  0
  -31.1710  -19.3450   19.3110 C   0  0  0  0  0  1  0  0  0  0  0  0
  -29.7560  -19.2950   19.9250 C   0  0  0  0  0  3  0  0  0  0  0  0
  -30.2170  -17.6830   22.0340 C   0  0  0  0  0  2  0  0  0  0  0  0
  -29.4920  -18.0140   20.7590 C   0  0  0  0  0  3  0  0  0  0  0  0
  -30.5150  -16.8560   20.8040 C   0  0  0  0  0  3  0  0  0  0  0  0
  -30.7670  -14.4620   20.1990 C   0  0  0  0  0  0  0  0  0  0  0  0
  -30.4010  -12.3390   18.9940 C   0  0  0  0  0  2  0  0  0  0  0  0
  -29.4180  -12.5910   17.8320 C   0  0  0  0  0  2  0  0  0  0  0  0
  -27.9600  -12.4610   18.3210 C   0  0  0  0  0  2  0  0  0  0  0  0
  -27.6910  -13.2720   19.6190 C   0  0  0  0  0  3  0  0  0  0  0  0
  -28.7810  -12.9840   20.6740 C   0  0  0  0  0  2  0  0  0  0  0  0
  -30.0810  -13.2960   20.0640 N   0  0  0  0  0  0  0  0  0  0  0  0
  -31.8850  -14.6360   19.7060 O   0  0  0  0  0  0  0  0  0  0  0  0
  -30.0800  -15.4810   20.7560 N   0  0  0  0  0  0  0  0  0  0  0  0
  -29.1500  -15.2680   21.0860 H   0  0  0  0  0  0  0  0  0  0  0  0
  -25.3290  -13.9010   20.4150 C   0  0  0  0  0  0  0  0  0  0  0  0
  -24.2680  -13.1340   20.8160 C   0  0  0  0  0  0  0  0  0  0  0  0
  -24.7160  -11.7810   20.7640 C   0  0  0  0  0  0  0  0  0  0  0  0
  -26.3550  -13.0110   20.1450 N   0  0  0  0  0  0  0  0  0  0  0  0
  -25.9920  -11.7300   20.4090 N   0  0  0  0  0  0  0  0  0  0  0  0
  -23.9890  -10.5250   20.9700 C   0  0  0  0  0  0  0  0  0  0  0  0
  -24.4330   -9.5490   21.8900 C   0  0  0  0  0  3  0  0  0  0  0  0
  -23.6980   -8.3590   22.0800 C   0  0  0  0  0  3  0  0  0  0  0  0
  -22.5050   -8.1390   21.3530 C   0  0  0  0  0  0  0  0  0  0  0  0
  -22.0820   -9.1000   20.4190 C   0  0  0  0  0  3  0  0  0  0  0  0
  -22.8170  -10.2800   20.2280 C   0  0  0  0  0  3  0  0  0  0  0  0
  -21.7380   -7.0030   21.4600 O   0  0  0  0  0  0  0  0  0  0  0  0
  -21.7000   -6.2680   22.6160 C   0  0  0  0  0  0  0  0  0  0  0  0
  -21.2950   -6.8310   23.8470 C   0  0  0  0  0  3  0  0  0  0  0  0
  -21.2070   -6.0190   24.9960 C   0  0  0  0  0  3  0  0  0  0  0  0
  -21.5110   -4.6470   24.9150 C   0  0  0  0  0  0  0  0  0  0  0  0
  -21.9080   -4.0860   23.6890 C   0  0  0  0  0  3  0  0  0  0  0  0
  -22.0000   -4.8940   22.5430 C   0  0  0  0  0  0  0  0  0  0  0  0
  -22.3650   -4.3430   21.3590 F   0  0  0  0  0  0  0  0  0  0  0  0
  -21.4150   -3.8650   26.0160 F   0  0  0  0  0  0  0  0  0  0  0  0
  -22.8860  -13.6250   21.1420 C   0  0  0  0  0  0  0  0  0  0  0  0
  -22.1860  -12.9280   22.0300 N   0  0  0  0  0  0  0  0  0  0  0  0
  -22.4420  -14.6600   20.6460 O   0  0  0  0  0  0  0  0  0  0  0  0
  -22.5600  -12.0860   22.4400 H   0  0  0  0  0  0  0  0  0  0  0  0
  -21.2620  -13.2380   22.3000 H   0  0  0  0  0  0  0  0  0  0  0  0
  -25.4940  -15.2700   20.2410 N   0  0  0  0  0  0  0  0  0  0  0  0
  -24.7190  -15.9120   20.3770 H   0  0  0  0  0  0  0  0  0  0  0  0
  -26.3260  -15.7200   19.8820 H   0  0  0  0  0  0  0  0  0  0  0  0
  -28.3140  -24.6460   21.8130 C   0  0  0  0  0  2  0  0  0  0  0  0
  -28.9740  -25.9560   21.2540 C   0  0  0  0  0  2  0  0  0  0  0  0
  -28.3940  -26.5800   20.0870 O   0  0  0  0  0  0  0  0  0  0  0  0
  -24.6060  -31.8780   23.2370 C   0  0  0  0  0  0  0  0  0  0  0  0
  -27.2580  -27.3680   20.2080 C   0  0  0  0  0  0  0  0  0  0  0  0
  -23.4100  -30.4610   21.6010 C   0  0  0  0  0  3  0  0  0  0  0  0
  -24.8720  -28.9080   20.2000 C   0  0  0  0  0  0  0  0  0  0  0  0
  -25.9410  -30.8080   21.4170 C   0  0  0  0  0  2  0  0  0  0  0  0
  -26.0320  -29.4240   20.7940 C   0  0  0  0  0  0  0  0  0  0  0  0
  -27.2310  -28.6610   20.8000 C   0  0  0  0  0  3  0  0  0  0  0  0
  -26.0840  -26.8840   19.6010 C   0  0  0  0  0  3  0  0  0  0  0  0
  -24.8930  -27.6380   19.6040 C   0  0  0  0  0  3  0  0  0  0  0  0
  -23.6300  -29.7730   20.2270 C   0  0  0  0  0  2  0  0  0  0  0  0
  -24.6690  -31.0670   22.1410 N   0  0  0  0  0  0  0  0  0  0  0  0
  -23.5230  -32.1530   23.7710 O   0  0  0  0  0  0  0  0  0  0  0  0
  -22.7550  -29.4470   22.5690 C   0  0  0  0  0  0  0  0  0  0  0  0
  -21.4290  -29.2670   22.4490 N   0  0  0  0  0  0  0  0  0  0  0  0
  -23.4380  -28.8250   23.3880 O   0  0  0  0  0  0  0  0  0  0  0  0
  -20.9400  -29.8200   21.7590 H   0  0  0  0  0  0  0  0  0  0  0  0
  -18.0510  -28.0780   22.9550 C   0  0  0  0  0  0  0  0  0  0  0  0
  -20.6100  -28.3340   23.2240 C   0  0  0  0  0  3  0  0  0  0  0  0
  -20.7110  -26.9000   22.6540 C   0  0  0  0  0  2  0  0  0  0  0  0
  -19.6070  -26.5740   21.6440 C   0  0  0  0  0  2  0  0  0  0  0  0
  -18.2260  -26.7230   22.2880 C   0  0  0  0  0  2  0  0  0  0  0  0
  -19.1720  -28.8410   23.3800 C   0  0  0  0  0  0  0  0  0  0  0  0
  -18.9550  -30.1060   23.9660 C   0  0  0  0  0  3  0  0  0  0  0  0
  -17.6530  -30.6110   24.1290 C   0  0  0  0  0  3  0  0  0  0  0  0
  -16.5460  -29.8440   23.7250 C   0  0  0  0  0  3  0  0  0  0  0  0
  -16.7470  -28.5790   23.1420 C   0  0  0  0  0  3  0  0  0  0  0  0
  -25.8880  -32.5190   23.8520 C   0  0  0  0  0  3  0  0  0  0  0  0
  -26.4140  -31.7560   25.1300 C   0  0  1  0  0  0  0  0  0  0  0  0
  -25.3230  -31.5150   26.2020 C   0  0  0  0  0  1  0  0  0  0  0  0
  -27.0060  -30.3830   24.7410 C   0  0  0  0  0  1  0  0  0  0  0  0
  -27.5630  -32.5560   25.7840 C   0  0  0  0  0  1  0  0  0  0  0  0
  -25.5770  -33.9170   24.1790 N   0  0  0  0  0  0  0  0  0  0  0  0
  -25.9080  -34.9680   23.4170 C   0  0  0  0  0  0  0  0  0  0  0  0
  -26.5780  -34.8610   22.3860 O   0  0  0  0  0  0  0  0  0  0  0  0
  -24.9810  -34.0710   24.9790 H   0  0  0  0  0  0  0  0  0  0  0  0
  -24.1780  -36.7570   23.0510 C   0  0  0  0  0  1  0  0  0  0  0  0
  -25.4150  -36.3570   23.8700 C   0  0  0  0  0  3  0  0  0  0  0  0
  -27.5420  -37.2450   24.7100 C   0  0  0  0  0  1  0  0  0  0  0  0
  -26.4470  -37.4110   23.7610 N   0  0  0  0  0  0  0  0  0  0  0  0
  -26.0390  -38.3320   23.9080 H   0  0  0  0  0  0  0  0  0  0  0  0
  2  5  2  0
  2  4  1  0
  3  1  2  0
  3 50  1  0
  4  6  2  0
  5  3  1  0
  6  1  1  0
  8  7  1  0
  8  4  1  0
 10  8  1  0
 10 11  1  0
 10  9  1  0
 11 20  1  0
 11  9  1  0
 12 20  1  0
 13 18  1  0
 14 15  1  0
 14 13  1  0
 16 15  1  0
 16 25  1  0
 16 17  1  0
 18 12  1  0
 18 17  1  0
 19 12  2  0
 20 21  1  0
 22 23  2  0
 23 42  1  0
 24 23  1  0
 24 27  1  0
 25 26  1  0
 25 22  1  0
 26 24  2  0
 27 28  1  0
 28 29  2  0
 30 33  1  0
 30 29  1  0
 31 30  2  0
 32 31  1  0
 32 27  2  0
 33 34  1  0
 34 35  1  0
 35 36  2  0
 37 36  1  0
 37 41  1  0
 38 37  2  0
 39 34  2  0
 39 38  1  0
 40 39  1  0
 42 43  1  0
 43 46  1  0
 43 45  1  0
 44 42  2  0
 47 48  1  0
 47 22  1  0
 49 47  1  0
 51 50  1  0
 52 54  1  0
 52 51  1  0
 53 64  2  0
 54 59  1  0
 55 63  1  0
 55 65  1  0
 56 62  1  0
 56 58  1  0
 57 63  1  0
 58 59  2  0
 58 57  1  0
 60 61  1  0
 60 54  2  0
 61 56  2  0
 62 55  1  0
 63 53  1  0
 65 67  2  0
 66 65  1  0
 68 66  1  0
 69 78  2  0
 69 74  1  0
 70 66  1  0
 70 74  1  0
 71 70  1  0
 72 73  1  0
 72 71  1  0
 73 69  1  0
 74 75  2  0
 75 76  1  0
 77 76  2  0
 78 77  1  0
 79 53  1  0
 79 84  1  0
 79 80  1  0
 80 83  1  1
 80 81  1  0
 82 80  1  0
 84 87  1  0
 85 89  1  0
 85 84  1  0
 86 85  2  0
 89 88  1  0
 91 89  1  0
 91 92  1  0
 91 90  1  0
M  ISO  4  12 100  20 100  51 101  52 101
M  END
>  <TORSDO>  (5) 
F 20

>  <SCORE>  (5) 
-13.969

>  <name>  (5) 
4

>  <ligand_id>  (5) 
4

>  <original_smiles>  (5) 
[H]c1nc(C([H])(C([H])([H])[H])C2([H])C([H])([H])C2([H])N([H])C(=O)N2C([H])([H])C([H])([H])C([H])([H])C([H])(n3nc(-c4c([H])c([H])c(Oc5c([H])c([H])c(F)c([H])c5F)c([H])c4[H])c(C(=O)N([H])[H])c3N([H])[H])C2([H])[H])c([H])nc1C([H])([H])C([H])([H])Oc1c([H])c([H])c2c(c1[H])C([H])([H])N(C(=O)C([H])(N([H])C(=O)C([H])(N([H])C([H])([H])[H])C([H])([H])[H])C(C([H])([H])[H])(C([H])([H])[H])C([H])([H])[H])C([H])(C(=O)N([H])C1([H])c3c([H])c([H])c([H])c([H])c3C([H])([H])C([H])([H])C1([H])[H])C2([H])[H]

>  <smiles>  (5) 
[H]c1nc(C([H])(C([H])([H])[H])C2([H])C([H])([H])C2([H])N([H])C(=O)N2C([H])([H])C([H])([H])C([H])([H])C([H])(n3nc(-c4c([H])c([H])c(Oc5c([H])c([H])c(F)c([H])c5F)c([H])c4[H])c(C(=O)N([H])[H])c3N([H])[H])C2([H])[H])c([H])nc1C([H])([H])C([H])([H])Oc1c([H])c([H])c2c(c1[H])C([H])([H])N(C(=O)C([H])(N([H])C(=O)C([H])(N([H])C([H])([H])[H])C([H])([H])[H])C(C([H])([H])[H])(C([H])([H])[H])C([H])([H])[H])C([H])(C(=O)N([H])C1([H])c3c([H])c([H])c([H])c([H])c3C([H])([H])C([H])([H])C1([H])[H])C2([H])[H]

$$$$
5:0:0
     RDKit          3D

 91100  0  0  1  0  0  0  0  0999 V2000
  -28.3890  -23.5270   18.5140 C   0  0  0  0  0  3  0  0  0  0  0  0
  -28.4980  -22.2860   17.8660 C   0  0  0  0  0  3  0  0  0  0  0  0
  -28.7420  -23.6030   19.8660 C   0  0  0  0  0  0  0  0  0  0  0  0
  -29.2780  -21.2500   19.7580 C   0  0  0  0  0  0  0  0  0  0  0  0
  -28.9250  -21.1650   18.4870 N   0  0  0  0  0  0  0  0  0  0  0  0
  -29.2060  -22.4230   20.4640 N   0  0  0  0  0  0  0  0  0  0  0  0
  -29.7930  -20.0330   20.3350 N   0  0  0  0  0  0  0  0  0  0  0  0
  -30.1370  -20.1740   21.2770 H   0  0  0  0  0  0  0  0  0  0  0  0
  -30.7650  -14.8180   19.9880 C   0  0  0  0  0  0  0  0  0  0  0  0
  -30.4790  -12.5350   18.9640 C   0  0  0  0  0  2  0  0  0  0  0  0
  -29.4780  -12.5680   17.7860 C   0  0  0  0  0  2  0  0  0  0  0  0
  -28.0330  -12.3870   18.2900 C   0  0  0  0  0  2  0  0  0  0  0  0
  -27.7210  -13.2840   19.5150 C   0  0  0  0  0  3  0  0  0  0  0  0
  -28.8370  -13.1930   20.5790 C   0  0  0  0  0  2  0  0  0  0  0  0
  -30.0880  -13.6060   19.9230 N   0  0  0  0  0  0  0  0  0  0  0  0
  -31.9340  -14.8370   19.5840 O   0  0  0  0  0  0  0  0  0  0  0  0
  -28.7150  -17.8740   21.1410 C   0  0  0  0  0  2  0  0  0  0  0  0
  -28.9030  -16.3380   20.9830 C   0  0  0  0  0  2  0  0  0  0  0  0
  -30.6160  -17.4510   19.8250 C   0  0  0  0  0  2  0  0  0  0  0  0
  -29.4780  -18.5690   20.0120 C   0  0  0  0  0  3  0  0  0  0  0  0
  -30.1090  -16.0570   20.1920 N   0  0  0  0  0  0  0  0  0  0  0  0
  -25.3850  -13.9050   20.3790 C   0  0  0  0  0  0  0  0  0  0  0  0
  -24.3300  -13.1440   20.7970 C   0  0  0  0  0  0  0  0  0  0  0  0
  -24.7680  -11.7870   20.7200 C   0  0  0  0  0  0  0  0  0  0  0  0
  -26.4020  -13.0130   20.0740 N   0  0  0  0  0  0  0  0  0  0  0  0
  -26.0390  -11.7320   20.3420 N   0  0  0  0  0  0  0  0  0  0  0  0
  -24.0290  -10.5350   20.9220 C   0  0  0  0  0  0  0  0  0  0  0  0
  -24.4580   -9.5670   21.8570 C   0  0  0  0  0  3  0  0  0  0  0  0
  -23.7190   -8.3810   22.0480 C   0  0  0  0  0  3  0  0  0  0  0  0
  -22.5360   -8.1550   21.3050 C   0  0  0  0  0  0  0  0  0  0  0  0
  -22.1260   -9.1110   20.3600 C   0  0  0  0  0  3  0  0  0  0  0  0
  -22.8660  -10.2880   20.1660 C   0  0  0  0  0  3  0  0  0  0  0  0
  -21.7670   -7.0210   21.4060 O   0  0  0  0  0  0  0  0  0  0  0  0
  -21.6700   -6.3210   22.5820 C   0  0  0  0  0  0  0  0  0  0  0  0
  -21.2010   -6.9210   23.7720 C   0  0  0  0  0  3  0  0  0  0  0  0
  -21.0510   -6.1480   24.9390 C   0  0  0  0  0  3  0  0  0  0  0  0
  -21.3600   -4.7750   24.9200 C   0  0  0  0  0  0  0  0  0  0  0  0
  -21.8220   -4.1730   23.7360 C   0  0  0  0  0  3  0  0  0  0  0  0
  -21.9740   -4.9450   22.5700 C   0  0  0  0  0  0  0  0  0  0  0  0
  -22.3990   -4.3550   21.4260 F   0  0  0  0  0  0  0  0  0  0  0  0
  -21.2080   -4.0290   26.0390 F   0  0  0  0  0  0  0  0  0  0  0  0
  -22.9580  -13.6420   21.1480 C   0  0  0  0  0  0  0  0  0  0  0  0
  -22.2630  -12.9500   22.0430 N   0  0  0  0  0  0  0  0  0  0  0  0
  -22.5130  -14.6830   20.6660 O   0  0  0  0  0  0  0  0  0  0  0  0
  -22.6360  -12.1070   22.4560 H   0  0  0  0  0  0  0  0  0  0  0  0
  -21.3450  -13.2660   22.3210 H   0  0  0  0  0  0  0  0  0  0  0  0
  -25.5470  -15.2740   20.2040 N   0  0  0  0  0  0  0  0  0  0  0  0
  -24.7890  -15.9290   20.3640 H   0  0  0  0  0  0  0  0  0  0  0  0
  -26.3650  -15.7100   19.8000 H   0  0  0  0  0  0  0  0  0  0  0  0
  -28.4420  -24.9530   20.6900 C   0  0  0  0  0  2  0  0  0  0  0  0
  -28.5800  -26.3510   20.1140 O   0  0  0  0  0  0  0  0  0  0  0  0
  -24.6350  -31.7080   23.1420 C   0  0  0  0  0  0  0  0  0  0  0  0
  -27.4560  -27.2140   20.1080 C   0  0  0  0  0  0  0  0  0  0  0  0
  -23.5150  -30.2870   21.4640 C   0  0  0  0  0  3  0  0  0  0  0  0
  -25.0480  -28.7910   20.0560 C   0  0  0  0  0  0  0  0  0  0  0  0
  -26.0490  -30.6790   21.3390 C   0  0  0  0  0  2  0  0  0  0  0  0
  -26.1910  -29.3030   20.6830 C   0  0  0  0  0  0  0  0  0  0  0  0
  -27.4010  -28.5290   20.6930 C   0  0  0  0  0  3  0  0  0  0  0  0
  -26.2870  -26.7710   19.4560 C   0  0  0  0  0  3  0  0  0  0  0  0
  -25.1010  -27.5340   19.4310 C   0  0  0  0  0  3  0  0  0  0  0  0
  -23.7830  -29.6310   20.0840 C   0  0  0  0  0  2  0  0  0  0  0  0
  -24.7510  -30.9110   22.0380 N   0  0  0  0  0  0  0  0  0  0  0  0
  -23.5310  -31.9430   23.6560 O   0  0  0  0  0  0  0  0  0  0  0  0
  -22.8640  -29.2410   22.4010 C   0  0  0  0  0  0  0  0  0  0  0  0
  -21.5440  -29.0270   22.2530 N   0  0  0  0  0  0  0  0  0  0  0  0
  -23.5460  -28.6240   23.2240 O   0  0  0  0  0  0  0  0  0  0  0  0
  -21.0500  -29.5780   21.5650 H   0  0  0  0  0  0  0  0  0  0  0  0
  -18.1970  -27.7180   22.6850 C   0  0  0  0  0  0  0  0  0  0  0  0
  -20.7420  -28.0540   22.9970 C   0  0  0  0  0  3  0  0  0  0  0  0
  -20.8970  -26.6340   22.4050 C   0  0  0  0  0  2  0  0  0  0  0  0
  -19.8200  -26.2920   21.3700 C   0  0  0  0  0  2  0  0  0  0  0  0
  -18.4260  -26.3850   21.9950 C   0  0  0  0  0  2  0  0  0  0  0  0
  -19.2850  -28.5100   23.1430 C   0  0  0  0  0  0  0  0  0  0  0  0
  -19.0180  -29.7560   23.7490 C   0  0  0  0  0  3  0  0  0  0  0  0
  -17.6950  -30.2130   23.9020 C   0  0  0  0  0  3  0  0  0  0  0  0
  -16.6220  -29.4200   23.4610 C   0  0  0  0  0  3  0  0  0  0  0  0
  -16.8730  -28.1750   22.8580 C   0  0  0  0  0  3  0  0  0  0  0  0
  -25.8800  -32.3800   23.7980 C   0  0  0  0  0  3  0  0  0  0  0  0
  -25.5120  -33.7620   24.1440 N   0  0  0  0  0  0  0  0  0  0  0  0
  -25.8070  -34.8370   23.4010 C   0  0  0  0  0  0  0  0  0  0  0  0
  -26.4850  -34.7730   22.3720 O   0  0  0  0  0  0  0  0  0  0  0  0
  -24.9090  -33.8820   24.9440 H   0  0  0  0  0  0  0  0  0  0  0  0
  -24.0040  -36.5610   23.0710 C   0  0  0  0  0  1  0  0  0  0  0  0
  -25.2630  -36.2000   23.8740 C   0  0  0  0  0  3  0  0  0  0  0  0
  -27.3580  -37.1660   24.7130 C   0  0  0  0  0  1  0  0  0  0  0  0
  -26.2510  -37.2960   23.7700 N   0  0  0  0  0  0  0  0  0  0  0  0
  -25.8050  -38.1970   23.9260 H   0  0  0  0  0  0  0  0  0  0  0  0
  -26.3980  -31.6100   25.0760 C   0  0  1  0  0  0  0  0  0  0  0  0
  -25.2950  -31.3230   26.1190 C   0  0  0  0  0  1  0  0  0  0  0  0
  -27.0350  -30.2580   24.6790 C   0  0  0  0  0  1  0  0  0  0  0  0
  -27.5070  -32.4350   25.7700 C   0  0  0  0  0  1  0  0  0  0  0  0
  1  3  1  0
  2  5  1  0
  2  1  2  0
  3  6  2  0
  3 50  1  0
  4  7  1  0
  4  6  1  0
  5  4  2  0
  7  8  1  0
  9 21  1  0
 10 15  1  0
 11 12  1  0
 11 10  1  0
 13 12  1  0
 13 25  1  0
 13 14  1  0
 15  9  1  0
 15 14  1  0
 16  9  2  0
 18 17  1  0
 19 20  1  0
 19 21  1  0
 20  7  1  0
 20 17  1  0
 21 18  1  0
 22 23  2  0
 23 42  1  0
 24 23  1  0
 24 27  1  0
 25 26  1  0
 25 22  1  0
 26 24  2  0
 27 28  1  0
 28 29  2  0
 30 33  1  0
 30 29  1  0
 31 30  2  0
 32 31  1  0
 32 27  2  0
 33 34  1  0
 34 35  1  0
 35 36  2  0
 37 36  1  0
 37 41  1  0
 38 37  2  0
 39 34  2  0
 39 38  1  0
 40 39  1  0
 42 43  1  0
 43 46  1  0
 43 45  1  0
 44 42  2  0
 47 48  1  0
 47 22  1  0
 49 47  1  0
 51 50  1  0
 52 63  2  0
 53 51  1  0
 53 58  1  0
 54 62  1  0
 54 64  1  0
 55 61  1  0
 55 57  1  0
 56 62  1  0
 57 58  2  0
 57 56  1  0
 59 53  2  0
 60 59  1  0
 60 55  2  0
 61 54  1  0
 62 52  1  0
 64 66  2  0
 65 64  1  0
 67 65  1  0
 68 77  2  0
 68 73  1  0
 69 65  1  0
 69 73  1  0
 70 69  1  0
 71 72  1  0
 71 70  1  0
 72 68  1  0
 73 74  2  0
 74 75  1  0
 76 75  2  0
 77 76  1  0
 78 52  1  0
 78 79  1  0
 78 88  1  0
 79 82  1  0
 80 84  1  0
 80 79  1  0
 81 80  2  0
 84 83  1  0
 86 84  1  0
 86 87  1  0
 86 85  1  0
 88 91  1  1
 88 89  1  0
 90 88  1  0
M  ISO  4   9 100  21 100  50 101  51 101
M  END
>  <TORSDO>  (6) 
F 17

>  <SCORE>  (6) 
-14.277

>  <name>  (6) 
5

>  <ligand_id>  (6) 
5

>  <original_smiles>  (6) 
[H]c1nc(N([H])C2([H])C([H])([H])N(C(=O)N3C([H])([H])C([H])([H])C([H])([H])C([H])(n4nc(-c5c([H])c([H])c(Oc6c([H])c([H])c(F)c([H])c6F)c([H])c5[H])c(C(=O)N([H])[H])c4N([H])[H])C3([H])[H])C([H])([H])C2([H])[H])nc(C([H])([H])Oc2c([H])c([H])c3c(c2[H])C([H])([H])N(C(=O)C([H])(N([H])C(=O)C([H])(N([H])C([H])([H])[H])C([H])([H])[H])C(C([H])([H])[H])(C([H])([H])[H])C([H])([H])[H])C([H])(C(=O)N([H])C2([H])c4c([H])c([H])c([H])c([H])c4C([H])([H])C([H])([H])C2([H])[H])C3([H])[H])c1[H]

>  <smiles>  (6) 
[H]c1nc(N([H])C2([H])C([H])([H])N(C(=O)N3C([H])([H])C([H])([H])C([H])([H])C([H])(n4nc(-c5c([H])c([H])c(Oc6c([H])c([H])c(F)c([H])c6F)c([H])c5[H])c(C(=O)N([H])[H])c4N([H])[H])C3([H])[H])C([H])([H])C2([H])[H])nc(C([H])([H])Oc2c([H])c([H])c3c(c2[H])C([H])([H])N(C(=O)C([H])(N([H])C(=O)C([H])(N([H])C([H])([H])[H])C([H])([H])[H])C(C([H])([H])[H])(C([H])([H])[H])C([H])([H])[H])C([H])(C(=O)N([H])C2([H])c4c([H])c([H])c([H])c([H])c4C([H])([H])C([H])([H])C2([H])[H])C3([H])[H])c1[H]

$$$$
6:0:0
     RDKit          3D

 87 92  0  0  1  0  0  0  0  0999 V2000
  -28.7750  -21.3700   20.4960 C   0  0  0  0  0  1  0  0  0  0  0  0
  -30.1740  -16.0550   20.2410 C   0  0  0  0  0  0  0  0  0  0  0  0
  -30.3260  -13.3890   19.5660 C   0  0  0  0  0  2  0  0  0  0  0  0
  -29.5260  -12.8140   18.3550 C   0  0  0  0  0  2  0  0  0  0  0  0
  -28.1050  -12.4140   18.7660 C   0  0  0  0  0  2  0  0  0  0  0  0
  -27.5230  -13.4310   19.7690 C   0  0  0  0  0  3  0  0  0  0  0  0
  -28.4940  -13.9290   20.8780 C   0  0  0  0  0  2  0  0  0  0  0  0
  -29.6370  -14.6390   20.2210 N   0  0  0  0  0  0  0  0  0  0  0  0
  -31.3950  -15.8060   20.0700 O   0  0  0  0  0  0  0  0  0  0  0  0
  -30.2450  -19.1650   19.0080 C   0  0  0  0  0  2  0  0  0  0  0  0
  -30.8470  -18.4880   20.2650 C   0  0  0  0  0  2  0  0  0  0  0  0
  -29.0380  -19.3700   19.8650 C   0  0  0  0  0  2  0  0  0  0  0  0
  -29.6250  -17.6310   20.4060 N   0  0  0  0  0  0  0  0  0  0  0  0
  -25.1580  -13.9190   20.5080 C   0  0  0  0  0  0  0  0  0  0  0  0
  -24.0980  -13.1340   20.8580 C   0  0  0  0  0  0  0  0  0  0  0  0
  -24.5820  -11.7870   20.8420 C   0  0  0  0  0  0  0  0  0  0  0  0
  -26.2110  -13.0580   20.2780 N   0  0  0  0  0  0  0  0  0  0  0  0
  -25.8820  -11.7660   20.5480 N   0  0  0  0  0  0  0  0  0  0  0  0
  -23.8560  -10.5210   21.0280 C   0  0  0  0  0  0  0  0  0  0  0  0
  -24.2750   -9.5600   21.9740 C   0  0  0  0  0  3  0  0  0  0  0  0
  -23.5440   -8.3640   22.1530 C   0  0  0  0  0  3  0  0  0  0  0  0
  -22.3790   -8.1190   21.3870 C   0  0  0  0  0  0  0  0  0  0  0  0
  -21.9790   -9.0700   20.4300 C   0  0  0  0  0  3  0  0  0  0  0  0
  -22.7100  -10.2580   20.2510 C   0  0  0  0  0  3  0  0  0  0  0  0
  -21.6240   -6.9750   21.4700 O   0  0  0  0  0  0  0  0  0  0  0  0
  -21.5640   -6.2290   22.6210 C   0  0  0  0  0  0  0  0  0  0  0  0
  -21.1290   -6.7830   23.8450 C   0  0  0  0  0  3  0  0  0  0  0  0
  -21.0190   -5.9670   24.9880 C   0  0  0  0  0  3  0  0  0  0  0  0
  -21.3280   -4.5960   24.9080 C   0  0  0  0  0  0  0  0  0  0  0  0
  -21.7510   -4.0410   23.6870 C   0  0  0  0  0  3  0  0  0  0  0  0
  -21.8650   -4.8540   22.5460 C   0  0  0  0  0  0  0  0  0  0  0  0
  -22.2550   -4.3080   21.3690 F   0  0  0  0  0  0  0  0  0  0  0  0
  -21.2180   -3.8080   26.0040 F   0  0  0  0  0  0  0  0  0  0  0  0
  -22.6930  -13.6030   21.0850 C   0  0  0  0  0  0  0  0  0  0  0  0
  -21.9470  -12.9190   21.9440 N   0  0  0  0  0  0  0  0  0  0  0  0
  -22.2620  -14.6160   20.5350 O   0  0  0  0  0  0  0  0  0  0  0  0
  -22.3100  -12.1060   22.4200 H   0  0  0  0  0  0  0  0  0  0  0  0
  -20.9970  -13.2140   22.1210 H   0  0  0  0  0  0  0  0  0  0  0  0
  -25.3190  -15.2900   20.3260 N   0  0  0  0  0  0  0  0  0  0  0  0
  -24.5580  -15.9530   20.4400 H   0  0  0  0  0  0  0  0  0  0  0  0
  -26.1790  -15.7200   20.0120 H   0  0  0  0  0  0  0  0  0  0  0  0
  -30.9850  -22.4550   20.8520 C   0  0  0  0  0  1  0  0  0  0  0  0
  -29.5350  -21.9350   22.7950 C   0  0  0  0  0  1  0  0  0  0  0  0
  -29.9270  -21.5780   21.4090 N   0  0  1  0  0  4  0  0  0  0  0  0
  -30.3580  -20.6710   21.4990 H   0  0  0  0  0  0  0  0  0  0  0  0
  -28.1320  -23.3060   19.9510 C   0  0  0  0  0 15  0  0  0  0  0  0
  -28.0920  -25.1680   20.3230 O   0  0  0  0  0  1  0  0  0  0  0  0
  -24.5830  -31.7900   23.1400 C   0  0  0  0  0  0  0  0  0  0  0  0
  -27.1610  -26.5000   20.2190 C   0  0  0  0  0  0  0  0  0  0  0  0
  -23.4350  -30.3670   21.5030 C   0  0  0  0  0  3  0  0  0  0  0  0
  -24.9150  -28.6770   20.1250 C   0  0  0  0  0  0  0  0  0  0  0  0
  -26.0260  -30.4550   21.4420 C   0  0  0  0  0  2  0  0  0  0  0  0
  -26.1040  -28.9970   20.7860 C   0  0  0  0  0  0  0  0  0  0  0  0
  -27.2000  -27.9410   20.7940 C   0  0  0  0  0  3  0  0  0  0  0  0
  -25.9370  -26.4590   19.4920 C   0  0  0  0  0  3  0  0  0  0  0  0
  -24.8850  -27.4410   19.4510 C   0  0  0  0  0  3  0  0  0  0  0  0
  -23.7110  -29.6490   20.1460 C   0  0  0  0  0  2  0  0  0  0  0  0
  -24.7070  -30.9090   22.0810 N   0  0  0  0  0  0  0  0  0  0  0  0
  -23.4770  -32.0990   23.6230 O   0  0  0  0  0  0  0  0  0  0  0  0
  -22.6910  -29.4120   22.4770 C   0  0  0  0  0  0  0  0  0  0  0  0
  -21.3540  -29.2850   22.3580 N   0  0  0  0  0  0  0  0  0  0  0  0
  -23.3330  -28.7780   23.3180 O   0  0  0  0  0  0  0  0  0  0  0  0
  -20.8800  -29.8440   21.6620 H   0  0  0  0  0  0  0  0  0  0  0  0
  -17.9500  -28.1220   22.9040 C   0  0  0  0  0  0  0  0  0  0  0  0
  -20.5170  -28.3560   23.1320 C   0  0  0  0  0  3  0  0  0  0  0  0
  -20.5900  -26.9260   22.5480 C   0  0  0  0  0  2  0  0  0  0  0  0
  -19.4740  -26.6270   21.5420 C   0  0  0  0  0  2  0  0  0  0  0  0
  -18.1010  -26.7800   22.2030 C   0  0  0  0  0  2  0  0  0  0  0  0
  -19.0840  -28.8680   23.3240 C   0  0  0  0  0  0  0  0  0  0  0  0
  -18.8830  -30.1190   23.9490 C   0  0  0  0  0  3  0  0  0  0  0  0
  -17.5850  -30.6230   24.1500 C   0  0  0  0  0  3  0  0  0  0  0  0
  -16.4670  -29.8760   23.7400 C   0  0  0  0  0  3  0  0  0  0  0  0
  -16.6500  -28.6260   23.1220 C   0  0  0  0  0  3  0  0  0  0  0  0
  -25.8270  -32.4650   23.7970 C   0  0  0  0  0  3  0  0  0  0  0  0
  -25.4810  -33.8640   24.1290 N   0  0  0  0  0  0  0  0  0  0  0  0
  -25.8130  -34.9380   23.4010 C   0  0  0  0  0  0  0  0  0  0  0  0
  -26.4910  -34.8570   22.3740 O   0  0  0  0  0  0  0  0  0  0  0  0
  -24.8690  -33.9990   24.9220 H   0  0  0  0  0  0  0  0  0  0  0  0
  -24.0660  -36.7300   23.0830 C   0  0  0  0  0  1  0  0  0  0  0  0
  -25.3160  -36.3220   23.8780 C   0  0  0  0  0  3  0  0  0  0  0  0
  -27.4440  -37.2260   24.7110 C   0  0  0  0  0  1  0  0  0  0  0  0
  -26.3370  -37.3880   23.7730 N   0  0  0  0  0  0  0  0  0  0  0  0
  -25.9200  -38.3010   23.9280 H   0  0  0  0  0  0  0  0  0  0  0  0
  -26.3120  -31.7190   25.1050 C   0  0  1  0  0  0  0  0  0  0  0  0
  -25.1870  -31.4980   26.1450 C   0  0  0  0  0  1  0  0  0  0  0  0
  -26.9150  -30.3360   24.7770 C   0  0  0  0  0  1  0  0  0  0  0  0
  -27.4420  -32.5310   25.7830 C   0  0  0  0  0  1  0  0  0  0  0  0
  1 44  1  0
  2 13  1  0
  3  8  1  0
  4  5  1  0
  4  3  1  0
  6  5  1  0
  6 17  1  0
  6  7  1  0
  8  2  1  0
  8  7  1  0
  9  2  2  0
 10 12  1  0
 10 11  1  0
 11 13  1  0
 12 13  1  0
 14 15  2  0
 15 34  1  0
 16 15  1  0
 16 19  1  0
 17 14  1  0
 17 18  1  0
 18 16  2  0
 19 20  1  0
 20 21  2  0
 22 25  1  0
 22 21  1  0
 23 22  2  0
 24 23  1  0
 24 19  2  0
 25 26  1  0
 26 27  1  0
 27 28  2  0
 29 28  1  0
 29 33  1  0
 30 29  2  0
 31 26  2  0
 31 30  1  0
 32 31  1  0
 34 35  1  0
 35 38  1  0
 35 37  1  0
 36 34  2  0
 39 40  1  0
 39 14  1  0
 41 39  1  0
 42 44  1  0
 44 45  1  1
 44 43  1  0
 48 59  2  0
 49 47  1  0
 49 54  1  0
 50 58  1  0
 50 60  1  0
 51 57  1  0
 51 53  1  0
 52 58  1  0
 53 54  2  0
 53 52  1  0
 55 49  2  0
 56 55  1  0
 56 51  2  0
 57 50  1  0
 58 48  1  0
 60 62  2  0
 61 60  1  0
 63 61  1  0
 64 73  2  0
 64 69  1  0
 65 61  1  0
 65 69  1  0
 66 65  1  0
 67 68  1  0
 67 66  1  0
 68 64  1  0
 69 70  2  0
 70 71  1  0
 72 71  2  0
 73 72  1  0
 74 48  1  0
 74 75  1  0
 74 84  1  0
 75 78  1  0
 76 80  1  0
 76 75  1  0
 77 76  2  0
 80 79  1  0
 82 80  1  0
 82 83  1  0
 82 81  1  0
 84 87  1  1
 84 85  1  0
 86 84  1  0
M  ISO  4   2 100  13 100  46 101  47 101
M  END
>  <TORSDO>  (7) 
F 18

>  <SCORE>  (7) 
-16.289

>  <name>  (7) 
6

>  <ligand_id>  (7) 
6

>  <original_smiles>  (7) 
[H]c1c([H])c([H])c2c(c1[H])C([H])([H])C([H])([H])C([H])([H])C2([H])N([H])C(=O)C1([H])N(C(=O)C([H])(N([H])C(=O)C([H])(N([H])C([H])([H])[H])C([H])([H])[H])C(C([H])([H])[H])(C([H])([H])[H])C([H])([H])[H])C([H])([H])c2c([H])c(OC([H])([H])C([H])(C3([H])N(C(=O)N4C([H])([H])C([H])([H])C([H])([H])C([H])(n5nc(-c6c([H])c([H])c(Oc7c([H])c([H])c(F)c([H])c7F)c([H])c6[H])c(C(=O)N([H])[H])c5N([H])[H])C4([H])[H])C([H])([H])C3([H])[H])[N+]([H])(C([H])([H])[H])C([H])([H])[H])c([H])c([H])c2C1([H])[H]

>  <smiles>  (7) 
[H]c1c([H])c([H])c2c(c1[H])C([H])([H])C([H])([H])C([H])([H])C2([H])N([H])C(=O)C1([H])N(C(=O)C([H])(N([H])C(=O)C([H])(N([H])C([H])([H])[H])C([H])([H])[H])C(C([H])([H])[H])(C([H])([H])[H])C([H])([H])[H])C([H])([H])c2c([H])c(OC([H])([H])C([H])(C3([H])N(C(=O)N4C([H])([H])C([H])([H])C([H])([H])C([H])(n5nc(-c6c([H])c([H])c(Oc7c([H])c([H])c(F)c([H])c7F)c([H])c6[H])c(C(=O)N([H])[H])c5N([H])[H])C4([H])[H])C([H])([H])C3([H])[H])[N+]([H])(C([H])([H])[H])C([H])([H])[H])c([H])c([H])c2C1([H])[H]

$$$$
7:0:0
     RDKit          3D

 93102  0  0  1  0  0  0  0  0999 V2000
  -28.6210  -22.4520   19.7870 C   0  0  0  0  0  3  0  0  0  0  0  0
  -29.2290  -21.3360   20.4210 C   0  0  0  0  0  0  0  0  0  0  0  0
  -28.6460  -23.7260   20.4210 C   0  0  0  0  0  0  0  0  0  0  0  0
  -29.7710  -22.7370   22.1670 C   0  0  0  0  0  0  0  0  0  0  0  0
  -30.4360  -22.9000   23.5180 C   0  0  0  0  0  1  0  0  0  0  0  0
  -29.7880  -21.5110   21.6360 N   0  0  0  0  0  0  0  0  0  0  0  0
  -29.2380  -23.8380   21.6280 N   0  0  0  0  0  0  0  0  0  0  0  0
  -29.4180  -19.9520   19.7200 C   0  0  0  0  0  2  0  0  0  0  0  0
  -30.4400  -14.4420   20.0630 C   0  0  0  0  0  0  0  0  0  0  0  0
  -30.0650  -12.2760   18.9150 C   0  0  0  0  0  2  0  0  0  0  0  0
  -29.0360  -12.4570   17.7810 C   0  0  0  0  0  2  0  0  0  0  0  0
  -27.6060  -12.2620   18.3180 C   0  0  0  0  0  2  0  0  0  0  0  0
  -27.3350  -13.0670   19.6170 C   0  0  0  0  0  3  0  0  0  0  0  0
  -28.4850  -12.9230   20.6410 C   0  0  0  0  0  2  0  0  0  0  0  0
  -29.7410  -13.2670   19.9590 N   0  0  0  0  0  0  0  0  0  0  0  0
  -31.5970  -14.5350   19.6480 O   0  0  0  0  0  0  0  0  0  0  0  0
  -30.3320  -16.5100   21.4450 C   0  0  0  0  0  2  0  0  0  0  0  0
  -29.1550  -16.3830   19.3240 C   0  0  0  0  0  2  0  0  0  0  0  0
  -30.4760  -18.0330   21.0410 C   0  0  0  0  0  2  0  0  0  0  0  0
  -28.3780  -17.6460   19.8190 C   0  0  0  0  0  2  0  0  0  0  0  0
  -29.7650  -15.5890   20.4160 N   0  0  0  0  0  0  0  0  0  0  0  0
  -29.2280  -18.6690   20.5080 N   0  0  2  0  0  4  0  0  0  0  0  0
  -28.6890  -18.9730   21.3070 H   0  0  0  0  0  0  0  0  0  0  0  0
  -24.9820  -13.6020   20.4890 C   0  0  0  0  0  0  0  0  0  0  0  0
  -23.9620  -12.8020   20.9240 C   0  0  0  0  0  0  0  0  0  0  0  0
  -24.4600  -11.4630   20.8680 C   0  0  0  0  0  0  0  0  0  0  0  0
  -26.0330  -12.7500   20.1940 N   0  0  0  0  0  0  0  0  0  0  0  0
  -25.7300  -11.4590   20.4820 N   0  0  0  0  0  0  0  0  0  0  0  0
  -23.7820  -10.1820   21.1030 C   0  0  0  0  0  0  0  0  0  0  0  0
  -24.2500   -9.2670   22.0710 C   0  0  0  0  0  3  0  0  0  0  0  0
  -23.5710   -8.0500   22.2920 C   0  0  0  0  0  3  0  0  0  0  0  0
  -22.4100   -7.7390   21.5450 C   0  0  0  0  0  0  0  0  0  0  0  0
  -21.9620   -8.6430   20.5660 C   0  0  0  0  0  3  0  0  0  0  0  0
  -22.6420   -9.8510   20.3430 C   0  0  0  0  0  3  0  0  0  0  0  0
  -21.7000   -6.5700   21.6750 O   0  0  0  0  0  0  0  0  0  0  0  0
  -21.6440   -5.8910   22.8650 C   0  0  0  0  0  0  0  0  0  0  0  0
  -21.0930   -6.4710   24.0280 C   0  0  0  0  0  3  0  0  0  0  0  0
  -20.9900   -5.7120   25.2120 C   0  0  0  0  0  3  0  0  0  0  0  0
  -21.4290   -4.3750   25.2330 C   0  0  0  0  0  0  0  0  0  0  0  0
  -21.9750   -3.7950   24.0740 C   0  0  0  0  0  3  0  0  0  0  0  0
  -22.0800   -4.5510   22.8930 C   0  0  0  0  0  0  0  0  0  0  0  0
  -22.5850   -3.9790   21.7730 F   0  0  0  0  0  0  0  0  0  0  0  0
  -21.3250   -3.6450   26.3690 F   0  0  0  0  0  0  0  0  0  0  0  0
  -22.5710  -13.2420   21.2760 C   0  0  0  0  0  0  0  0  0  0  0  0
  -21.9190  -12.5370   22.1950 N   0  0  0  0  0  0  0  0  0  0  0  0
  -22.0700  -14.2470   20.7720 O   0  0  0  0  0  0  0  0  0  0  0  0
  -22.3380  -11.7270   22.6250 H   0  0  0  0  0  0  0  0  0  0  0  0
  -20.9890  -12.8160   22.4740 H   0  0  0  0  0  0  0  0  0  0  0  0
  -25.0980  -14.9760   20.2980 N   0  0  0  0  0  0  0  0  0  0  0  0
  -24.3210  -15.6090   20.4500 H   0  0  0  0  0  0  0  0  0  0  0  0
  -25.9150  -15.4290   19.9140 H   0  0  0  0  0  0  0  0  0  0  0  0
  -27.9100  -24.9560   19.7980 C   0  0  0  0  0  2  0  0  0  0  0  0
  -28.1760  -26.3480   20.2210 O   0  0  0  0  0  0  0  0  0  0  0  0
  -24.5650  -31.8150   23.2190 C   0  0  0  0  0  0  0  0  0  0  0  0
  -27.0910  -27.2390   20.1320 C   0  0  0  0  0  0  0  0  0  0  0  0
  -23.3440  -30.4750   21.5450 C   0  0  0  0  0  3  0  0  0  0  0  0
  -24.7700  -28.9140   20.1130 C   0  0  0  0  0  0  0  0  0  0  0  0
  -25.8940  -30.7260   21.4020 C   0  0  0  0  0  2  0  0  0  0  0  0
  -25.9430  -29.3580   20.7360 C   0  0  0  0  0  0  0  0  0  0  0  0
  -27.1060  -28.5310   20.7400 C   0  0  0  0  0  3  0  0  0  0  0  0
  -25.8970  -26.8630   19.4650 C   0  0  0  0  0  3  0  0  0  0  0  0
  -24.7480  -27.6710   19.4690 C   0  0  0  0  0  3  0  0  0  0  0  0
  -23.5570  -29.8180   20.1570 C   0  0  0  0  0  2  0  0  0  0  0  0
  -24.6200  -31.0200   22.1120 N   0  0  0  0  0  0  0  0  0  0  0  0
  -23.4820  -32.1180   23.7420 O   0  0  0  0  0  0  0  0  0  0  0  0
  -22.6410  -29.4610   22.4790 C   0  0  0  0  0  0  0  0  0  0  0  0
  -21.3100  -29.3390   22.3450 N   0  0  0  0  0  0  0  0  0  0  0  0
  -23.2930  -28.7910   23.2860 O   0  0  0  0  0  0  0  0  0  0  0  0
  -20.8480  -29.9300   21.6680 H   0  0  0  0  0  0  0  0  0  0  0  0
  -17.8770  -28.3260   22.8650 C   0  0  0  0  0  0  0  0  0  0  0  0
  -20.4510  -28.4220   23.0950 C   0  0  0  0  0  3  0  0  0  0  0  0
  -20.4560  -27.0110   22.4620 C   0  0  0  0  0  2  0  0  0  0  0  0
  -19.3190  -26.7950   21.4570 C   0  0  0  0  0  2  0  0  0  0  0  0
  -17.9600  -26.9970   22.1340 C   0  0  0  0  0  2  0  0  0  0  0  0
  -19.0470  -29.0030   23.3020 C   0  0  0  0  0  0  0  0  0  0  0  0
  -18.9140  -30.2520   23.9470 C   0  0  0  0  0  3  0  0  0  0  0  0
  -17.6450  -30.8230   24.1580 C   0  0  0  0  0  3  0  0  0  0  0  0
  -16.4900  -30.1410   23.7370 C   0  0  0  0  0  3  0  0  0  0  0  0
  -16.6060  -28.8950   23.0970 C   0  0  0  0  0  3  0  0  0  0  0  0
  -25.8570  -32.4010   23.8650 C   0  0  0  0  0  3  0  0  0  0  0  0
  -25.5910  -33.8100   24.1900 N   0  0  0  0  0  0  0  0  0  0  0  0
  -25.9620  -34.8500   23.4310 C   0  0  0  0  0  0  0  0  0  0  0  0
  -26.6350  -34.7220   22.4050 O   0  0  0  0  0  0  0  0  0  0  0  0
  -24.9960  -33.9850   24.9870 H   0  0  0  0  0  0  0  0  0  0  0  0
  -24.2970  -36.6980   23.0600 C   0  0  0  0  0  1  0  0  0  0  0  0
  -25.5170  -36.2540   23.8830 C   0  0  0  0  0  3  0  0  0  0  0  0
  -27.6630  -37.0800   24.7450 C   0  0  0  0  0  1  0  0  0  0  0  0
  -26.5850  -37.2730   23.7790 N   0  0  0  0  0  0  0  0  0  0  0  0
  -26.2050  -38.2060   23.9070 H   0  0  0  0  0  0  0  0  0  0  0  0
  -26.3210  -31.6130   25.1500 C   0  0  1  0  0  0  0  0  0  0  0  0
  -25.1970  -31.4050   26.1930 C   0  0  0  0  0  1  0  0  0  0  0  0
  -26.8710  -30.2190   24.7690 C   0  0  0  0  0  1  0  0  0  0  0  0
  -27.4780  -32.3710   25.8410 C   0  0  0  0  0  1  0  0  0  0  0  0
  1  2  2  0
  1  3  1  0
  2  6  1  0
  3  7  2  0
  4  5  1  0
  6  4  2  0
  7  4  1  0
  8  2  1  0
  8 22  1  0
  9 21  1  0
 10 15  1  0
 11 12  1  0
 11 10  1  0
 13 12  1  0
 13 27  1  0
 13 14  1  0
 15  9  1  0
 15 14  1  0
 16  9  2  0
 18 20  1  0
 18 21  1  0
 19 17  1  0
 20 22  1  0
 21 17  1  0
 22 19  1  0
 22 23  1  1
 24 25  2  0
 25 44  1  0
 26 25  1  0
 26 29  1  0
 27 28  1  0
 27 24  1  0
 28 26  2  0
 29 30  1  0
 30 31  2  0
 32 35  1  0
 32 31  1  0
 33 32  2  0
 34 33  1  0
 34 29  2  0
 35 36  1  0
 36 41  2  0
 36 37  1  0
 37 38  2  0
 38 39  1  0
 39 43  1  0
 40 39  2  0
 41 40  1  0
 42 41  1  0
 44 45  1  0
 45 48  1  0
 45 47  1  0
 46 44  2  0
 49 50  1  0
 49 24  1  0
 51 49  1  0
 52 53  1  0
 52  3  1  0
 54 65  2  0
 55 53  1  0
 55 60  1  0
 56 64  1  0
 56 66  1  0
 57 63  1  0
 57 59  1  0
 58 64  1  0
 59 60  2  0
 59 58  1  0
 61 62  1  0
 61 55  2  0
 62 57  2  0
 63 56  1  0
 64 54  1  0
 66 68  2  0
 67 66  1  0
 69 67  1  0
 70 79  2  0
 70 75  1  0
 71 67  1  0
 71 75  1  0
 72 71  1  0
 73 74  1  0
 73 72  1  0
 74 70  1  0
 75 76  2  0
 76 77  1  0
 78 77  2  0
 79 78  1  0
 80 54  1  0
 80 81  1  0
 80 90  1  0
 81 84  1  0
 82 86  1  0
 82 81  1  0
 83 82  2  0
 86 85  1  0
 88 86  1  0
 88 89  1  0
 88 87  1  0
 90 93  1  1
 90 91  1  0
 92 90  1  0
M  ISO  4   9 100  21 100  52 101  53 101
M  END
>  <TORSDO>  (8) 
F 18

>  <SCORE>  (8) 
-14.317

>  <name>  (8) 
7

>  <ligand_id>  (8) 
7

>  <original_smiles>  (8) 
[H]c1c(C([H])([H])Oc2c([H])c([H])c3c(c2[H])C([H])([H])N(C(=O)C([H])(N([H])C(=O)C([H])(N([H])C([H])([H])[H])C([H])([H])[H])C(C([H])([H])[H])(C([H])([H])[H])C([H])([H])[H])C([H])(C(=O)N([H])C2([H])c4c([H])c([H])c([H])c([H])c4C([H])([H])C([H])([H])C2([H])[H])C3([H])[H])nc(C([H])([H])[H])nc1C([H])([H])[N+]1([H])C([H])([H])C([H])([H])N(C(=O)N2C([H])([H])C([H])([H])C([H])([H])C([H])(n3nc(-c4c([H])c([H])c(Oc5c([H])c([H])c(F)c([H])c5F)c([H])c4[H])c(C(=O)N([H])[H])c3N([H])[H])C2([H])[H])C([H])([H])C1([H])[H]

>  <smiles>  (8) 
[H]c1c(C([H])([H])Oc2c([H])c([H])c3c(c2[H])C([H])([H])N(C(=O)C([H])(N([H])C(=O)C([H])(N([H])C([H])([H])[H])C([H])([H])[H])C(C([H])([H])[H])(C([H])([H])[H])C([H])([H])[H])C([H])(C(=O)N([H])C2([H])c4c([H])c([H])c([H])c([H])c4C([H])([H])C([H])([H])C2([H])[H])C3([H])[H])nc(C([H])([H])[H])nc1C([H])([H])[N+]1([H])C([H])([H])C([H])([H])N(C(=O)N2C([H])([H])C([H])([H])C([H])([H])C([H])(n3nc(-c4c([H])c([H])c(Oc5c([H])c([H])c(F)c([H])c5F)c([H])c4[H])c(C(=O)N([H])[H])c3N([H])[H])C2([H])[H])C([H])([H])C1([H])[H]

$$$$
8:0:0
     RDKit          3D

 92101  0  0  1  0  0  0  0  0999 V2000
  -30.5780  -18.4210   19.0660 C   0  0  0  0  0  2  0  0  0  0  0  0
  -30.2120  -17.8060   21.2740 C   0  0  0  0  0  2  0  0  0  0  0  0
  -28.0870  -19.6840   19.8440 C   0  0  0  0  0  2  0  0  0  0  0  0
  -30.4460  -19.9030   19.7890 C   0  0  0  0  0  3  0  0  0  0  0  0
  -29.7930  -17.2430   19.8590 C   0  0  1  0  0  0  0  0  0  0  0  0
  -30.7410  -19.3130   21.2270 C   0  0  2  0  0  0  0  0  0  0  0  0
  -28.3280  -18.0030   19.5480 C   0  0  2  0  0  0  0  0  0  0  0  0
  -32.2810  -19.2500   21.4350 C   0  0  0  0  0  1  0  0  0  0  0  0
  -30.2270  -20.1790   22.4040 C   0  0  0  0  0  1  0  0  0  0  0  0
  -27.8880  -17.7400   18.0790 C   0  0  0  0  0  1  0  0  0  0  0  0
  -27.2480  -17.2980   20.3990 C   0  0  0  0  0  1  0  0  0  0  0  0
  -29.1490  -20.8000   19.5680 N   0  0  2  0  0  4  0  0  0  0  0  0
  -29.1360  -20.9130   18.5650 H   0  0  0  0  0  0  0  0  0  0  0  0
  -30.3350  -15.4850   19.7020 C   0  0  0  0  0  0  0  0  0  0  0  0
  -30.3050  -12.9460   18.9870 C   0  0  0  0  0  2  0  0  0  0  0  0
  -29.3370  -12.6180   17.8190 C   0  0  0  0  0  2  0  0  0  0  0  0
  -27.9300  -12.3070   18.3530 C   0  0  0  0  0  2  0  0  0  0  0  0
  -27.5060  -13.3140   19.4470 C   0  0  0  0  0  3  0  0  0  0  0  0
  -28.6090  -13.5920   20.4920 C   0  0  0  0  0  2  0  0  0  0  0  0
  -29.7740  -14.1470   19.7690 N   0  0  0  0  0  0  0  0  0  0  0  0
  -31.5330  -15.3560   19.3950 O   0  0  0  0  0  0  0  0  0  0  0  0
  -25.1990  -13.8590   20.3660 C   0  0  0  0  0  0  0  0  0  0  0  0
  -24.1650  -13.0840   20.8080 C   0  0  0  0  0  0  0  0  0  0  0  0
  -24.6200  -11.7340   20.7270 C   0  0  0  0  0  0  0  0  0  0  0  0
  -26.2220  -12.9850   20.0500 N   0  0  0  0  0  0  0  0  0  0  0  0
  -25.8900  -11.6980   20.3280 N   0  0  0  0  0  0  0  0  0  0  0  0
  -23.8950  -10.4760   20.9470 C   0  0  0  0  0  0  0  0  0  0  0  0
  -24.3650   -9.5020   21.8550 C   0  0  0  0  0  3  0  0  0  0  0  0
  -23.6330   -8.3110   22.0650 C   0  0  0  0  0  3  0  0  0  0  0  0
  -22.4210   -8.0900   21.3680 C   0  0  0  0  0  0  0  0  0  0  0  0
  -21.9710   -9.0550   20.4480 C   0  0  0  0  0  3  0  0  0  0  0  0
  -22.7020  -10.2350   20.2370 C   0  0  0  0  0  3  0  0  0  0  0  0
  -21.6580   -6.9550   21.4910 O   0  0  0  0  0  0  0  0  0  0  0  0
  -21.6460   -6.2160   22.6470 C   0  0  0  0  0  0  0  0  0  0  0  0
  -21.2410   -6.7710   23.8810 C   0  0  0  0  0  3  0  0  0  0  0  0
  -21.1800   -5.9570   25.0310 C   0  0  0  0  0  3  0  0  0  0  0  0
  -21.5100   -4.5910   24.9470 C   0  0  0  0  0  0  0  0  0  0  0  0
  -21.9030   -4.0360   23.7170 C   0  0  0  0  0  3  0  0  0  0  0  0
  -21.9700   -4.8460   22.5690 C   0  0  0  0  0  0  0  0  0  0  0  0
  -22.3340   -4.3020   21.3830 F   0  0  0  0  0  0  0  0  0  0  0  0
  -21.4400   -3.8080   26.0500 F   0  0  0  0  0  0  0  0  0  0  0  0
  -22.7950  -13.5720   21.1790 C   0  0  0  0  0  0  0  0  0  0  0  0
  -22.1280  -12.8840   22.0970 N   0  0  0  0  0  0  0  0  0  0  0  0
  -22.3300  -14.6030   20.6900 O   0  0  0  0  0  0  0  0  0  0  0  0
  -22.5230  -12.0560   22.5200 H   0  0  0  0  0  0  0  0  0  0  0  0
  -21.2070  -13.1880   22.3780 H   0  0  0  0  0  0  0  0  0  0  0  0
  -25.3360  -15.2250   20.1720 N   0  0  0  0  0  0  0  0  0  0  0  0
  -24.5810  -15.8740   20.3610 H   0  0  0  0  0  0  0  0  0  0  0  0
  -26.1720  -15.6750   19.8250 H   0  0  0  0  0  0  0  0  0  0  0  0
  -29.0200  -22.4430   20.1130 C   0  0  0  0  0  3  0  0  0  0  0  0
  -28.1880  -24.0390   19.5920 C   0  0  0  0  0  3  0  0  0  0  0  0
  -28.2770  -25.7040   19.9900 O   0  0  0  0  0  0  0  0  0  0  0  0
  -24.6390  -31.6850   23.1060 C   0  0  0  0  0  0  0  0  0  0  0  0
  -27.2680  -26.8470   19.9410 C   0  0  0  0  0  0  0  0  0  0  0  0
  -23.4790  -30.3340   21.4100 C   0  0  0  0  0  3  0  0  0  0  0  0
  -24.9600  -28.7760   19.9450 C   0  0  0  0  0  0  0  0  0  0  0  0
  -26.0510  -30.5420   21.3080 C   0  0  0  0  0  2  0  0  0  0  0  0
  -26.1400  -29.1480   20.5970 C   0  0  0  0  0  0  0  0  0  0  0  0
  -27.2820  -28.2080   20.5670 C   0  0  0  0  0  3  0  0  0  0  0  0
  -26.0510  -26.6560   19.2430 C   0  0  0  0  0  3  0  0  0  0  0  0
  -24.9470  -27.5560   19.2480 C   0  0  0  0  0  3  0  0  0  0  0  0
  -23.7330  -29.6920   20.0170 C   0  0  0  0  0  2  0  0  0  0  0  0
  -24.7460  -30.8830   21.9960 N   0  0  0  0  0  0  0  0  0  0  0  0
  -23.5400  -31.9500   23.6220 O   0  0  0  0  0  0  0  0  0  0  0  0
  -22.7760  -29.3090   22.3370 C   0  0  0  0  0  0  0  0  0  0  0  0
  -21.4450  -29.1490   22.2040 N   0  0  0  0  0  0  0  0  0  0  0  0
  -23.4350  -28.6530   23.1470 O   0  0  0  0  0  0  0  0  0  0  0  0
  -20.9660  -29.7280   21.5300 H   0  0  0  0  0  0  0  0  0  0  0  0
  -18.0560  -27.9390   22.6890 C   0  0  0  0  0  0  0  0  0  0  0  0
  -20.6210  -28.1810   22.9350 C   0  0  0  0  0  3  0  0  0  0  0  0
  -20.7060  -26.7780   22.2890 C   0  0  0  0  0  2  0  0  0  0  0  0
  -19.5930  -26.5140   21.2700 C   0  0  0  0  0  2  0  0  0  0  0  0
  -18.2190  -26.6300   21.9360 C   0  0  0  0  0  2  0  0  0  0  0  0
  -19.1840  -28.6770   23.1430 C   0  0  0  0  0  0  0  0  0  0  0  0
  -18.9740  -29.9010   23.8120 C   0  0  0  0  0  3  0  0  0  0  0  0
  -17.6720  -30.3920   24.0250 C   0  0  0  0  0  3  0  0  0  0  0  0
  -16.5610  -29.6540   23.5860 C   0  0  0  0  0  3  0  0  0  0  0  0
  -16.7540  -28.4270   22.9240 C   0  0  0  0  0  3  0  0  0  0  0  0
  -25.8930  -32.3240   23.7790 C   0  0  0  0  0  3  0  0  0  0  0  0
  -25.5680  -33.7230   24.1160 N   0  0  0  0  0  0  0  0  0  0  0  0
  -25.9170  -34.7930   23.3890 C   0  0  0  0  0  0  0  0  0  0  0  0
  -26.6060  -34.7060   22.3690 O   0  0  0  0  0  0  0  0  0  0  0  0
  -24.9560  -33.8640   24.9070 H   0  0  0  0  0  0  0  0  0  0  0  0
  -24.1890  -36.5970   23.0550 C   0  0  0  0  0  1  0  0  0  0  0  0
  -25.4280  -36.1780   23.8650 C   0  0  0  0  0  3  0  0  0  0  0  0
  -27.5530  -37.0610   24.7250 C   0  0  0  0  0  1  0  0  0  0  0  0
  -26.4610  -37.2340   23.7720 N   0  0  0  0  0  0  0  0  0  0  0  0
  -26.0500  -38.1520   23.9230 H   0  0  0  0  0  0  0  0  0  0  0  0
  -26.3590  -31.5530   25.0780 C   0  0  1  0  0  0  0  0  0  0  0  0
  -25.2280  -31.3250   26.1090 C   0  0  0  0  0  1  0  0  0  0  0  0
  -26.9470  -30.1700   24.7200 C   0  0  0  0  0  1  0  0  0  0  0  0
  -27.4910  -32.3400   25.7770 C   0  0  0  0  0  1  0  0  0  0  0  0
  1  5  1  0
  4  1  1  0
  4  6  1  0
  5 14  1  6
  5  2  1  0
  6  2  1  0
  6  8  1  1
  6  9  1  0
  7  3  1  0
  7  5  1  0
  7 11  1  1
 10  7  1  0
 12  4  1  0
 12  3  1  0
 12 50  1  0
 12 13  1  6
 14 20  1  0
 15 20  1  0
 16 17  1  0
 16 15  1  0
 18 17  1  0
 18 25  1  0
 18 19  1  0
 20 19  1  0
 21 14  2  0
 22 23  2  0
 23 42  1  0
 24 23  1  0
 24 27  1  0
 25 26  1  0
 25 22  1  0
 26 24  2  0
 27 28  1  0
 28 29  2  0
 30 33  1  0
 30 29  1  0
 31 30  2  0
 32 31  1  0
 32 27  2  0
 33 34  1  0
 34 35  1  0
 35 36  2  0
 37 36  1  0
 37 41  1  0
 38 37  2  0
 39 34  2  0
 39 38  1  0
 40 39  1  0
 42 43  1  0
 43 46  1  0
 43 45  1  0
 44 42  2  0
 47 48  1  0
 47 22  1  0
 49 47  1  0
 51 52  1  0
 51 50  2  0
 53 64  2  0
 54 52  1  0
 54 59  1  0
 55 63  1  0
 55 65  1  0
 56 62  1  0
 56 58  1  0
 57 63  1  0
 58 57  1  0
 59 58  2  0
 60 61  1  0
 60 54  2  0
 61 56  2  0
 62 55  1  0
 63 53  1  0
 65 67  2  0
 66 65  1  0
 68 66  1  0
 69 78  2  0
 69 74  1  0
 70 66  1  0
 70 74  1  0
 71 70  1  0
 72 73  1  0
 72 71  1  0
 73 69  1  0
 74 75  2  0
 75 76  1  0
 77 76  2  0
 78 77  1  0
 79 53  1  0
 79 80  1  0
 79 89  1  0
 80 83  1  0
 81 85  1  0
 81 80  1  0
 82 81  2  0
 85 84  1  0
 87 85  1  0
 87 88  1  0
 87 86  1  0
 89 92  1  1
 89 90  1  0
 91 89  1  0
M  ISO  4   5 100  14 100  51 101  52 101
M  END
>  <TORSDO>  (9) 
F 18

>  <SCORE>  (9) 
-16.475

>  <name>  (9) 
8

>  <ligand_id>  (9) 
8

>  <original_smiles>  (9) 
[H]c1c([H])c([H])c2c(c1[H])C([H])([H])C([H])([H])C([H])([H])C2([H])N([H])C(=O)C1([H])N(C(=O)C([H])(N([H])C(=O)C([H])(N([H])C([H])([H])[H])C([H])([H])[H])C(C([H])([H])[H])(C([H])([H])[H])C([H])([H])[H])C([H])([H])c2c([H])c(OC([H])([H])C([H])([H])[N+]3([H])C([H])([H])C(C([H])([H])[H])(C([H])([H])[H])C4(C(=O)N5C([H])([H])C([H])([H])C([H])([H])C([H])(n6nc(-c7c([H])c([H])c(Oc8c([H])c([H])c(F)c([H])c8F)c([H])c7[H])c(C(=O)N([H])[H])c6N([H])[H])C5([H])[H])C([H])([H])C(C([H])([H])[H])(C([H])([H])[H])C3([H])C4([H])[H])c([H])c([H])c2C1([H])[H]

>  <smiles>  (9) 
[H]c1c([H])c([H])c2c(c1[H])C([H])([H])C([H])([H])C([H])([H])C2([H])N([H])C(=O)C1([H])N(C(=O)C([H])(N([H])C(=O)C([H])(N([H])C([H])([H])[H])C([H])([H])[H])C(C([H])([H])[H])(C([H])([H])[H])C([H])([H])[H])C([H])([H])c2c([H])c(OC([H])([H])C([H])([H])[N+]3([H])C([H])([H])C(C([H])([H])[H])(C([H])([H])[H])C4(C(=O)N5C([H])([H])C([H])([H])C([H])([H])C([H])(n6nc(-c7c([H])c([H])c(Oc8c([H])c([H])c(F)c([H])c8F)c([H])c7[H])c(C(=O)N([H])[H])c6N([H])[H])C5([H])[H])C([H])([H])C(C([H])([H])[H])(C([H])([H])[H])C3([H])C4([H])[H])c([H])c([H])c2C1([H])[H]

$$$$
9:0:0
     RDKit          3D

 92101  0  0  1  0  0  0  0  0999 V2000
  -29.1030  -23.0160   21.3400 C   0  0  0  0  0  3  0  0  0  0  0  0
  -29.4040  -20.6160   20.5170 C   0  0  0  0  0  0  0  0  0  0  0  0
  -29.4510  -21.6280   21.5560 C   0  0  0  0  0  0  0  0  0  0  0  0
  -28.6770  -23.4990   20.0800 C   0  0  0  0  0  0  0  0  0  0  0  0
  -29.0220  -21.2290   19.2680 C   0  0  0  0  0  0  0  0  0  0  0  0
  -29.8470  -21.2570   22.9780 C   0  0  0  0  0  1  0  0  0  0  0  0
  -28.6760  -22.5580   19.0890 N   0  0  0  0  0  0  0  0  0  0  0  0
  -28.5120  -18.1280   20.6260 C   0  0  0  0  0  2  0  0  0  0  0  0
  -29.6810  -19.0240   20.8530 C   0  0  0  0  0  3  0  0  0  0  0  0
  -29.8060  -17.5550   20.0740 C   0  0  0  0  0  3  0  0  0  0  0  0
  -30.6310  -14.9670   20.1660 C   0  0  0  0  0  0  0  0  0  0  0  0
  -30.4830  -12.6640   19.1570 C   0  0  0  0  0  2  0  0  0  0  0  0
  -29.4970  -12.6750   17.9650 C   0  0  0  0  0  2  0  0  0  0  0  0
  -28.0470  -12.4610   18.4350 C   0  0  0  0  0  2  0  0  0  0  0  0
  -27.6880  -13.3440   19.6610 C   0  0  0  0  0  3  0  0  0  0  0  0
  -28.7820  -13.2810   20.7540 C   0  0  0  0  0  2  0  0  0  0  0  0
  -30.0490  -13.7000   20.1370 N   0  0  0  0  0  0  0  0  0  0  0  0
  -31.7640  -15.0980   19.6980 O   0  0  0  0  0  0  0  0  0  0  0  0
  -29.8730  -16.0890   20.5530 N   0  0  0  0  0  0  0  0  0  0  0  0
  -29.0580  -15.8230   21.0820 H   0  0  0  0  0  0  0  0  0  0  0  0
  -25.3240  -13.9120   20.4730 C   0  0  0  0  0  0  0  0  0  0  0  0
  -24.2700  -13.1340   20.8600 C   0  0  0  0  0  0  0  0  0  0  0  0
  -24.7290  -11.7820   20.7860 C   0  0  0  0  0  0  0  0  0  0  0  0
  -26.3620  -13.0380   20.1860 N   0  0  0  0  0  0  0  0  0  0  0  0
  -26.0090  -11.7500   20.4330 N   0  0  0  0  0  0  0  0  0  0  0  0
  -24.0050  -10.5180   20.9700 C   0  0  0  0  0  0  0  0  0  0  0  0
  -24.4350   -9.5540   21.9090 C   0  0  0  0  0  3  0  0  0  0  0  0
  -23.7140   -8.3520   22.0820 C   0  0  0  0  0  3  0  0  0  0  0  0
  -22.5460   -8.1070   21.3200 C   0  0  0  0  0  0  0  0  0  0  0  0
  -22.1350   -9.0610   20.3730 C   0  0  0  0  0  3  0  0  0  0  0  0
  -22.8560  -10.2540   20.1970 C   0  0  0  0  0  3  0  0  0  0  0  0
  -21.7920   -6.9610   21.4080 O   0  0  0  0  0  0  0  0  0  0  0  0
  -21.7000   -6.2480   22.5760 C   0  0  0  0  0  0  0  0  0  0  0  0
  -21.1960   -6.8210   23.7650 C   0  0  0  0  0  3  0  0  0  0  0  0
  -21.0550   -6.0300   24.9230 C   0  0  0  0  0  3  0  0  0  0  0  0
  -21.4080   -4.6670   24.8920 C   0  0  0  0  0  0  0  0  0  0  0  0
  -21.9020   -4.0930   23.7080 C   0  0  0  0  0  3  0  0  0  0  0  0
  -22.0470   -4.8820   22.5530 C   0  0  0  0  0  0  0  0  0  0  0  0
  -22.5040   -4.3190   21.4090 F   0  0  0  0  0  0  0  0  0  0  0  0
  -21.2650   -3.9050   26.0010 F   0  0  0  0  0  0  0  0  0  0  0  0
  -22.8810  -13.6060   21.1800 C   0  0  0  0  0  0  0  0  0  0  0  0
  -22.1680  -12.8940   22.0470 N   0  0  0  0  0  0  0  0  0  0  0  0
  -22.4330  -14.6440   20.6920 O   0  0  0  0  0  0  0  0  0  0  0  0
  -22.5410  -12.0600   22.4770 H   0  0  0  0  0  0  0  0  0  0  0  0
  -21.2300  -13.1850   22.2820 H   0  0  0  0  0  0  0  0  0  0  0  0
  -25.4870  -15.2870   20.3140 N   0  0  0  0  0  0  0  0  0  0  0  0
  -24.7210  -15.9400   20.4430 H   0  0  0  0  0  0  0  0  0  0  0  0
  -26.3180  -15.7240   19.9350 H   0  0  0  0  0  0  0  0  0  0  0  0
  -29.9890  -20.8400   16.9420 C   0  0  0  0  0  1  0  0  0  0  0  0
  -28.8970  -20.4570   17.9610 C   0  0  0  0  0  2  0  0  0  0  0  0
  -27.8960  -24.8900   19.7710 C   0  0  0  0  0  2  0  0  0  0  0  0
  -28.2270  -26.3140   20.1980 O   0  0  0  0  0  0  0  0  0  0  0  0
  -24.6250  -31.9080   23.2170 C   0  0  0  0  0  0  0  0  0  0  0  0
  -27.1740  -27.2810   20.1100 C   0  0  0  0  0  0  0  0  0  0  0  0
  -23.4060  -30.5170   21.5890 C   0  0  0  0  0  3  0  0  0  0  0  0
  -24.8410  -28.9820   20.1250 C   0  0  0  0  0  0  0  0  0  0  0  0
  -25.9510  -30.8090   21.3880 C   0  0  0  0  0  2  0  0  0  0  0  0
  -26.0220  -29.4290   20.7280 C   0  0  0  0  0  0  0  0  0  0  0  0
  -27.1920  -28.5930   20.7130 C   0  0  0  0  0  3  0  0  0  0  0  0
  -25.9740  -26.9460   19.4300 C   0  0  0  0  0  3  0  0  0  0  0  0
  -24.8260  -27.7550   19.4570 C   0  0  0  0  0  3  0  0  0  0  0  0
  -23.6100  -29.8660   20.1980 C   0  0  0  0  0  2  0  0  0  0  0  0
  -24.6810  -31.0930   22.1240 N   0  0  0  0  0  0  0  0  0  0  0  0
  -23.5440  -32.1910   23.7540 O   0  0  0  0  0  0  0  0  0  0  0  0
  -22.7490  -29.4930   22.5500 C   0  0  0  0  0  0  0  0  0  0  0  0
  -21.4230  -29.3090   22.4240 N   0  0  0  0  0  0  0  0  0  0  0  0
  -23.4280  -28.8730   23.3710 O   0  0  0  0  0  0  0  0  0  0  0  0
  -20.9340  -29.8530   21.7280 H   0  0  0  0  0  0  0  0  0  0  0  0
  -18.0490  -28.1110   22.9450 C   0  0  0  0  0  0  0  0  0  0  0  0
  -20.6080  -28.3740   23.2010 C   0  0  0  0  0  3  0  0  0  0  0  0
  -20.7120  -26.9430   22.6260 C   0  0  0  0  0  2  0  0  0  0  0  0
  -19.6060  -26.6170   21.6180 C   0  0  0  0  0  2  0  0  0  0  0  0
  -18.2260  -26.7640   22.2660 C   0  0  0  0  0  2  0  0  0  0  0  0
  -19.1680  -28.8740   23.3700 C   0  0  0  0  0  0  0  0  0  0  0  0
  -18.9480  -30.1360   23.9660 C   0  0  0  0  0  3  0  0  0  0  0  0
  -17.6420  -30.6290   24.1460 C   0  0  0  0  0  3  0  0  0  0  0  0
  -16.5370  -29.8600   23.7400 C   0  0  0  0  0  3  0  0  0  0  0  0
  -16.7420  -28.6040   23.1410 C   0  0  0  0  0  3  0  0  0  0  0  0
  -25.9120  -32.5440   23.8260 C   0  0  0  0  0  3  0  0  0  0  0  0
  -26.4450  -31.7670   25.0910 C   0  0  1  0  0  0  0  0  0  0  0  0
  -25.3640  -31.5080   26.1670 C   0  0  0  0  0  1  0  0  0  0  0  0
  -27.0330  -30.3970   24.6810 C   0  0  0  0  0  1  0  0  0  0  0  0
  -27.6010  -32.5600   25.7490 C   0  0  0  0  0  1  0  0  0  0  0  0
  -25.6030  -33.9390   24.1690 N   0  0  0  0  0  0  0  0  0  0  0  0
  -25.9050  -34.9980   23.4070 C   0  0  0  0  0  0  0  0  0  0  0  0
  -26.5460  -34.9040   22.3550 O   0  0  0  0  0  0  0  0  0  0  0  0
  -25.0400  -34.0880   24.9940 H   0  0  0  0  0  0  0  0  0  0  0  0
  -24.1560  -36.7790   23.1020 C   0  0  0  0  0  1  0  0  0  0  0  0
  -25.4180  -36.3800   23.8850 C   0  0  0  0  0  3  0  0  0  0  0  0
  -27.5660  -37.2690   24.6790 C   0  0  0  0  0  1  0  0  0  0  0  0
  -26.4390  -37.4440   23.7660 N   0  0  0  0  0  0  0  0  0  0  0  0
  -26.0250  -38.3560   23.9450 H   0  0  0  0  0  0  0  0  0  0  0  0
  1  3  1  0
  2  3  2  0
  3  6  1  0
  4  1  2  0
  5  2  1  0
  7  5  2  0
  7  4  1  0
  8  9  1  0
  9  2  1  0
 10 19  1  0
 10  8  1  0
 10  9  1  0
 11 19  1  0
 12 17  1  0
 13 14  1  0
 13 12  1  0
 15 14  1  0
 15 24  1  0
 15 16  1  0
 17 11  1  0
 17 16  1  0
 18 11  2  0
 19 20  1  0
 21 22  2  0
 22 41  1  0
 23 22  1  0
 23 26  1  0
 24 25  1  0
 24 21  1  0
 25 23  2  0
 26 27  1  0
 27 28  2  0
 29 32  1  0
 29 28  1  0
 30 29  2  0
 31 30  1  0
 31 26  2  0
 32 33  1  0
 33 34  1  0
 34 35  2  0
 36 35  1  0
 36 40  1  0
 37 36  2  0
 38 33  2  0
 38 37  1  0
 39 38  1  0
 41 42  1  0
 42 45  1  0
 42 44  1  0
 43 41  2  0
 46 47  1  0
 46 21  1  0
 48 46  1  0
 49 50  1  0
 50  5  1  0
 51  4  1  0
 51 52  1  0
 53 64  2  0
 54 52  1  0
 54 59  1  0
 55 63  1  0
 55 65  1  0
 56 62  1  0
 56 58  1  0
 57 63  1  0
 58 57  1  0
 59 58  2  0
 60 61  1  0
 60 54  2  0
 61 56  2  0
 62 55  1  0
 63 53  1  0
 65 67  2  0
 66 65  1  0
 68 66  1  0
 69 78  2  0
 69 74  1  0
 70 66  1  0
 70 74  1  0
 71 70  1  0
 72 73  1  0
 72 71  1  0
 73 69  1  0
 74 75  2  0
 75 76  1  0
 77 76  2  0
 78 77  1  0
 79 53  1  0
 79 84  1  0
 79 80  1  0
 80 83  1  1
 80 81  1  0
 82 80  1  0
 84 87  1  0
 85 89  1  0
 85 84  1  0
 86 85  2  0
 89 88  1  0
 91 89  1  0
 91 92  1  0
 91 90  1  0
M  ISO  4  11 100  19 100  51 101  52 101
M  END
>  <TORSDO>  (10) 
F 19

>  <SCORE>  (10) 
-14.327

>  <name>  (10) 
9

>  <ligand_id>  (10) 
9

>  <original_smiles>  (10) 
[H]c1c([H])c([H])c2c(c1[H])C([H])([H])C([H])([H])C([H])([H])C2([H])N([H])C(=O)C1([H])N(C(=O)C([H])(N([H])C(=O)C([H])(N([H])C([H])([H])[H])C([H])([H])[H])C(C([H])([H])[H])(C([H])([H])[H])C([H])([H])[H])C([H])([H])c2c([H])c(OC([H])([H])c3nc(C([H])([H])C([H])([H])[H])c(C4([H])C([H])([H])C4([H])N([H])C(=O)N4C([H])([H])C([H])([H])C([H])([H])C([H])(n5nc(-c6c([H])c([H])c(Oc7c([H])c([H])c(F)c([H])c7F)c([H])c6[H])c(C(=O)N([H])[H])c5N([H])[H])C4([H])[H])c(C([H])([H])[H])c3[H])c([H])c([H])c2C1([H])[H]

>  <smiles>  (10) 
[H]c1c([H])c([H])c2c(c1[H])C([H])([H])C([H])([H])C([H])([H])C2([H])N([H])C(=O)C1([H])N(C(=O)C([H])(N([H])C(=O)C([H])(N([H])C([H])([H])[H])C([H])([H])[H])C(C([H])([H])[H])(C([H])([H])[H])C([H])([H])[H])C([H])([H])c2c([H])c(OC([H])([H])c3nc(C([H])([H])C([H])([H])[H])c(C4([H])C([H])([H])C4([H])N([H])C(=O)N4C([H])([H])C([H])([H])C([H])([H])C([H])(n5nc(-c6c([H])c([H])c(Oc7c([H])c([H])c(F)c([H])c7F)c([H])c6[H])c(C(=O)N([H])[H])c5N([H])[H])C4([H])[H])c(C([H])([H])[H])c3[H])c([H])c([H])c2C1([H])[H]

$$$$
10:0:0
     RDKit          3D

 94103  0  0  1  0  0  0  0  0999 V2000
  -27.3030  -24.4030   20.4610 C   0  0  0  0  0  3  0  0  0  0  0  0
  -26.8820  -23.0810   20.6740 C   0  0  0  0  0  0  0  0  0  0  0  0
  -28.6700  -24.6560   20.2890 C   0  0  0  0  0  0  0  0  0  0  0  0
  -29.0010  -22.2600   20.3380 C   0  0  0  0  0  0  0  0  0  0  0  0
  -27.7240  -22.0290   20.5830 N   0  0  0  0  0  0  0  0  0  0  0  0
  -29.5130  -23.5300   20.2250 N   0  0  0  0  0  0  0  0  0  0  0  0
  -29.8090  -21.0690   20.2490 N   0  0  0  0  0  0  0  0  0  0  0  0
  -30.7840  -21.2270   20.0290 H   0  0  0  0  0  0  0  0  0  0  0  0
  -24.4650  -23.8740   21.2550 C   0  0  0  0  0  2  0  0  0  0  0  0
  -25.0380  -23.2980   22.5210 C   0  0  0  0  0  2  0  0  0  0  0  0
  -25.5030  -22.7710   21.1770 C   0  0  0  0  0  3  0  0  0  0  0  0
  -29.1830  -26.1500   20.6210 C   0  0  0  0  0  2  0  0  0  0  0  0
  -28.7400  -27.4650   20.0180 O   0  0  0  0  0  0  0  0  0  0  0  0
  -24.9010  -32.3080   23.9970 C   0  0  0  0  0  0  0  0  0  0  0  0
  -27.5830  -28.2230   20.3190 C   0  0  0  0  0  0  0  0  0  0  0  0
  -23.7370  -31.1400   22.1820 C   0  0  0  0  0  3  0  0  0  0  0  0
  -25.1920  -29.8110   20.5520 C   0  0  0  0  0  0  0  0  0  0  0  0
  -26.2610  -31.5100   22.0360 C   0  0  0  0  0  2  0  0  0  0  0  0
  -26.3590  -30.2240   21.2090 C   0  0  0  0  0  0  0  0  0  0  0  0
  -27.5540  -29.4460   21.0790 C   0  0  0  0  0  3  0  0  0  0  0  0
  -26.3910  -27.8740   19.6550 C   0  0  0  0  0  3  0  0  0  0  0  0
  -25.2120  -28.6410   19.7690 C   0  0  0  0  0  3  0  0  0  0  0  0
  -23.9510  -30.6660   20.7180 C   0  0  0  0  0  2  0  0  0  0  0  0
  -24.9880  -31.6650   22.7950 N   0  0  0  0  0  0  0  0  0  0  0  0
  -23.8100  -32.4840   24.5640 O   0  0  0  0  0  0  0  0  0  0  0  0
  -23.0900  -29.9980   22.9970 C   0  0  0  0  0  0  0  0  0  0  0  0
  -21.7910  -29.8520   22.7600 N   0  0  0  0  0  0  0  0  0  0  0  0
  -23.7390  -29.2740   23.7510 O   0  0  0  0  0  0  0  0  0  0  0  0
  -21.3840  -30.5810   22.1870 H   0  0  0  0  0  0  0  0  0  0  0  0
  -18.4680  -28.1310   22.7960 C   0  0  0  0  0  0  0  0  0  0  0  0
  -20.8970  -28.7420   22.9770 C   0  0  0  0  0  3  0  0  0  0  0  0
  -21.2980  -27.2970   22.6530 C   0  0  0  0  0  2  0  0  0  0  0  0
  -20.3180  -26.7470   21.5980 C   0  0  0  0  0  2  0  0  0  0  0  0
  -18.8500  -26.8430   22.0620 C   0  0  0  0  0  2  0  0  0  0  0  0
  -19.4520  -28.9930   23.3390 C   0  0  0  0  0  0  0  0  0  0  0  0
  -19.0740  -30.1630   24.0270 C   0  0  0  0  0  3  0  0  0  0  0  0
  -17.7120  -30.5050   24.1350 C   0  0  0  0  0  3  0  0  0  0  0  0
  -16.7320  -29.6680   23.5680 C   0  0  0  0  0  3  0  0  0  0  0  0
  -17.1080  -28.4820   22.9110 C   0  0  0  0  0  3  0  0  0  0  0  0
  -26.1640  -32.8690   24.7090 C   0  0  0  0  0  3  0  0  0  0  0  0
  -26.5870  -32.0170   25.9690 C   0  0  1  0  0  0  0  0  0  0  0  0
  -25.4250  -31.7300   26.9490 C   0  0  0  0  0  1  0  0  0  0  0  0
  -27.1840  -30.6560   25.5400 C   0  0  0  0  0  1  0  0  0  0  0  0
  -27.6970  -32.7610   26.7480 C   0  0  0  0  0  1  0  0  0  0  0  0
  -25.8790  -34.2580   25.0960 N   0  0  0  0  0  0  0  0  0  0  0  0
  -26.2770  -35.3360   24.4070 C   0  0  0  0  0  0  0  0  0  0  0  0
  -26.9900  -35.2580   23.4030 O   0  0  0  0  0  0  0  0  0  0  0  0
  -25.2480  -34.3940   25.8720 H   0  0  0  0  0  0  0  0  0  0  0  0
  -24.6260  -37.2030   24.0650 C   0  0  0  0  0  1  0  0  0  0  0  0
  -25.8130  -36.7150   24.9110 C   0  0  0  0  0  3  0  0  0  0  0  0
  -27.9400  -37.4810   25.8700 C   0  0  0  0  0  1  0  0  0  0  0  0
  -26.8840  -37.7370   24.8930 N   0  0  0  0  0  0  0  0  0  0  0  0
  -26.5040  -38.6650   25.0670 H   0  0  0  0  0  0  0  0  0  0  0  0
  -29.4080  -19.6210   20.5540 C   0  0  0  0  0  2  0  0  0  0  0  0
  -30.4260  -18.2770   18.5960 C   0  0  0  0  0  1  0  0  0  0  0  0
  -30.3700  -18.3590   20.1410 C   0  0  0  0  0  3  0  0  0  0  0  0
  -30.8760  -15.8080   20.7830 C   0  0  0  0  0  0  0  0  0  0  0  0
  -30.8770  -13.4250   20.0320 C   0  0  0  0  0  2  0  0  0  0  0  0
  -30.1070  -13.3130   18.6980 C   0  0  0  0  0  2  0  0  0  0  0  0
  -28.6010  -13.1290   18.9580 C   0  0  0  0  0  2  0  0  0  0  0  0
  -28.0430  -14.1380   20.0000 C   0  0  0  0  0  3  0  0  0  0  0  0
  -28.9390  -14.2260   21.2520 C   0  0  0  0  0  2  0  0  0  0  0  0
  -30.2950  -14.5590   20.7940 N   0  0  0  0  0  0  0  0  0  0  0  0
  -32.1000  -15.9020   20.6390 O   0  0  0  0  0  0  0  0  0  0  0  0
  -30.0610  -16.9380   20.6760 N   0  0  0  0  0  0  0  0  0  0  0  0
  -29.0820  -16.7360   20.8100 H   0  0  0  0  0  0  0  0  0  0  0  0
  -25.5830  -14.7280   20.4040 C   0  0  0  0  0  0  0  0  0  0  0  0
  -24.4820  -13.9630   20.6710 C   0  0  0  0  0  0  0  0  0  0  0  0
  -24.9520  -12.6150   20.7550 C   0  0  0  0  0  0  0  0  0  0  0  0
  -26.6530  -13.8520   20.3370 N   0  0  0  0  0  0  0  0  0  0  0  0
  -26.2720  -12.5770   20.6090 N   0  0  0  0  0  0  0  0  0  0  0  0
  -24.2110  -11.3530   20.9030 C   0  0  0  0  0  0  0  0  0  0  0  0
  -24.5670  -10.3970   21.8780 C   0  0  0  0  0  3  0  0  0  0  0  0
  -23.8280   -9.2020   22.0170 C   0  0  0  0  0  3  0  0  0  0  0  0
  -22.7200   -8.9510   21.1720 C   0  0  0  0  0  0  0  0  0  0  0  0
  -22.3840   -9.8950   20.1830 C   0  0  0  0  0  3  0  0  0  0  0  0
  -23.1250  -11.0820   20.0470 C   0  0  0  0  0  3  0  0  0  0  0  0
  -21.9640   -7.8040   21.2090 O   0  0  0  0  0  0  0  0  0  0  0  0
  -21.8610   -7.0530   22.3530 C   0  0  0  0  0  0  0  0  0  0  0  0
  -21.4090   -7.6060   23.5710 C   0  0  0  0  0  3  0  0  0  0  0  0
  -21.2530   -6.7800   24.7020 C   0  0  0  0  0  3  0  0  0  0  0  0
  -21.5380   -5.4050   24.6160 C   0  0  0  0  0  0  0  0  0  0  0  0
  -21.9820   -4.8510   23.4020 C   0  0  0  0  0  3  0  0  0  0  0  0
  -22.1410   -5.6740   22.2710 C   0  0  0  0  0  0  0  0  0  0  0  0
  -22.5480   -5.1340   21.0980 F   0  0  0  0  0  0  0  0  0  0  0  0
  -21.3770   -4.6090   25.6990 F   0  0  0  0  0  0  0  0  0  0  0  0
  -23.0590  -14.4370   20.7440 C   0  0  0  0  0  0  0  0  0  0  0  0
  -22.2380  -13.7850   21.5570 N   0  0  0  0  0  0  0  0  0  0  0  0
  -22.6810  -15.4220   20.1100 O   0  0  0  0  0  0  0  0  0  0  0  0
  -22.5590  -12.9970   22.1010 H   0  0  0  0  0  0  0  0  0  0  0  0
  -21.2760  -14.0840   21.6430 H   0  0  0  0  0  0  0  0  0  0  0  0
  -25.7690  -16.0900   20.1930 N   0  0  0  0  0  0  0  0  0  0  0  0
  -24.9950  -16.7440   20.1710 H   0  0  0  0  0  0  0  0  0  0  0  0
  -26.6480  -16.5070   19.9280 H   0  0  0  0  0  0  0  0  0  0  0  0
  1  2  2  0
  2 11  1  0
  3  1  1  0
  3 12  1  0
  4  5  2  0
  5  2  1  0
  6  3  2  0
  6  4  1  0
  7  4  1  0
  7 54  1  0
  8  7  1  0
  9 10  1  0
 11  9  1  0
 11 10  1  0
 13 15  1  0
 13 12  1  0
 14 25  2  0
 15 20  1  0
 16 24  1  0
 16 26  1  0
 17 23  1  0
 17 19  1  0
 18 24  1  0
 19 18  1  0
 20 19  2  0
 21 22  1  0
 21 15  2  0
 22 17  2  0
 23 16  1  0
 24 14  1  0
 26 28  2  0
 27 26  1  0
 29 27  1  0
 30 39  2  0
 30 35  1  0
 31 27  1  0
 31 35  1  0
 32 31  1  0
 33 34  1  0
 33 32  1  0
 34 30  1  0
 35 36  2  0
 36 37  1  0
 38 37  2  0
 39 38  1  0
 40 14  1  0
 40 45  1  0
 40 41  1  0
 41 44  1  1
 41 42  1  0
 43 41  1  0
 45 48  1  0
 46 50  1  0
 46 45  1  0
 47 46  2  0
 50 49  1  0
 52 50  1  0
 52 53  1  0
 52 51  1  0
 56 55  1  0
 56 54  1  0
 56 65  1  0
 57 63  1  0
 58 63  1  0
 59 60  1  0
 59 58  1  0
 61 60  1  0
 61 70  1  0
 61 62  1  0
 63 62  1  0
 64 57  2  0
 65 57  1  0
 65 66  1  0
 67 68  2  0
 68 87  1  0
 68 69  1  0
 69 72  1  0
 70 67  1  0
 70 71  1  0
 71 69  2  0
 72 73  1  0
 73 74  2  0
 75 78  1  0
 75 74  1  0
 76 75  2  0
 77 76  1  0
 77 72  2  0
 78 79  1  0
 79 80  1  0
 80 81  2  0
 82 81  1  0
 82 86  1  0
 83 82  2  0
 84 79  2  0
 84 83  1  0
 85 84  1  0
 87 88  1  0
 88 91  1  0
 88 90  1  0
 89 87  2  0
 92 67  1  0
 93 92  1  0
 94 92  1  0
M  ISO  4  12 101  13 101  57 100  65 100
M  END
>  <TORSDO>  (11) 
F 20

>  <SCORE>  (11) 
-10.186

>  <name>  (11) 
10

>  <ligand_id>  (11) 
10

>  <original_smiles>  (11) 
[H]c1c(C([H])([H])Oc2c([H])c([H])c3c(c2[H])C([H])([H])N(C(=O)C([H])(N([H])C(=O)C([H])(N([H])C([H])([H])[H])C([H])([H])[H])C(C([H])([H])[H])(C([H])([H])[H])C([H])([H])[H])C([H])(C(=O)N([H])C2([H])c4c([H])c([H])c([H])c([H])c4C([H])([H])C([H])([H])C2([H])[H])C3([H])[H])nc(N([H])C([H])([H])C([H])(N([H])C(=O)N2C([H])([H])C([H])([H])C([H])([H])C([H])(n3nc(-c4c([H])c([H])c(Oc5c([H])c([H])c(F)c([H])c5F)c([H])c4[H])c(C(=O)N([H])[H])c3N([H])[H])C2([H])[H])C([H])([H])[H])nc1C1([H])C([H])([H])C1([H])[H]

>  <smiles>  (11) 
[H]c1c(C([H])([H])Oc2c([H])c([H])c3c(c2[H])C([H])([H])N(C(=O)C([H])(N([H])C(=O)C([H])(N([H])C([H])([H])[H])C([H])([H])[H])C(C([H])([H])[H])(C([H])([H])[H])C([H])([H])[H])C([H])(C(=O)N([H])C2([H])c4c([H])c([H])c([H])c([H])c4C([H])([H])C([H])([H])C2([H])[H])C3([H])[H])nc(N([H])C([H])([H])C([H])(N([H])C(=O)N2C([H])([H])C([H])([H])C([H])([H])C([H])(n3nc(-c4c([H])c([H])c(Oc5c([H])c([H])c(F)c([H])c5F)c([H])c4[H])c(C(=O)N([H])[H])c3N([H])[H])C2([H])[H])C([H])([H])[H])nc1C1([H])C([H])([H])C1([H])[H]

$$$$
11:0:0
     RDKit          3D

 90100  0  0  1  0  0  0  0  0999 V2000
  -29.1200  -22.6160   20.5850 C   0  0  0  0  0  0  0  0  0  0  0  0
  -29.4690  -21.0100   20.4860 C   0  0  0  0  0  0  0  0  0  0  0  0
  -30.1170  -23.2570   21.3950 C   0  0  0  0  0  0  0  0  0  0  0  0
  -31.5260  -21.4750   21.5080 C   0  0  0  0  0  0  0  0  0  0  0  0
  -30.0050  -24.6540   21.9900 C   0  0  0  0  0  1  0  0  0  0  0  0
  -32.8650  -20.9130   21.9330 C   0  0  0  0  0  1  0  0  0  0  0  0
  -30.6930  -20.6580   20.9270 N   0  0  0  0  0  0  0  0  0  0  0  0
  -31.2730  -22.7180   21.7980 N   0  0  0  0  0  0  0  0  0  0  0  0
  -30.2710  -15.4560   19.9480 C   0  0  0  0  0  0  0  0  0  0  0  0
  -30.2530  -12.9800   19.0390 C   0  0  0  0  0  2  0  0  0  0  0  0
  -29.2810  -12.6760   17.8690 C   0  0  0  0  0  2  0  0  0  0  0  0
  -27.8790  -12.3410   18.3990 C   0  0  0  0  0  2  0  0  0  0  0  0
  -27.4560  -13.3010   19.5380 C   0  0  0  0  0  3  0  0  0  0  0  0
  -28.5580  -13.5400   20.5920 C   0  0  0  0  0  2  0  0  0  0  0  0
  -29.7030  -14.1300   19.8710 N   0  0  0  0  0  0  0  0  0  0  0  0
  -31.4850  -15.3980   19.6860 O   0  0  0  0  0  0  0  0  0  0  0  0
  -29.9180  -18.1550   19.2080 C   0  0  0  0  0  3  0  0  0  0  0  0
  -29.2520  -17.9130   21.0440 C   0  0  0  0  0  3  0  0  0  0  0  0
  -29.0780  -19.2920   20.1000 C   0  0  0  0  0  3  0  0  0  0  0  0
  -29.5570  -16.8130   19.9570 N   0  0  0  0  0  0  0  0  0  0  0  0
  -25.1430  -13.8030   20.4650 C   0  0  0  0  0  0  0  0  0  0  0  0
  -24.1120  -13.0040   20.8720 C   0  0  0  0  0  0  0  0  0  0  0  0
  -24.5880  -11.6600   20.7710 C   0  0  0  0  0  0  0  0  0  0  0  0
  -26.1740  -12.9460   20.1280 N   0  0  0  0  0  0  0  0  0  0  0  0
  -25.8590  -11.6480   20.3800 N   0  0  0  0  0  0  0  0  0  0  0  0
  -23.8830  -10.3860   20.9660 C   0  0  0  0  0  0  0  0  0  0  0  0
  -24.3370   -9.4210   21.8930 C   0  0  0  0  0  3  0  0  0  0  0  0
  -23.6270   -8.2160   22.0780 C   0  0  0  0  0  3  0  0  0  0  0  0
  -22.4480   -7.9650   21.3360 C   0  0  0  0  0  0  0  0  0  0  0  0
  -22.0120   -8.9170   20.3980 C   0  0  0  0  0  3  0  0  0  0  0  0
  -22.7230  -10.1150   20.2110 C   0  0  0  0  0  3  0  0  0  0  0  0
  -21.7070   -6.8100   21.4310 O   0  0  0  0  0  0  0  0  0  0  0  0
  -21.6380   -6.0930   22.5990 C   0  0  0  0  0  0  0  0  0  0  0  0
  -21.1380   -6.6580   23.7920 C   0  0  0  0  0  3  0  0  0  0  0  0
  -21.0190   -5.8650   24.9500 C   0  0  0  0  0  3  0  0  0  0  0  0
  -21.3920   -4.5070   24.9170 C   0  0  0  0  0  0  0  0  0  0  0  0
  -21.8850   -3.9420   23.7280 C   0  0  0  0  0  3  0  0  0  0  0  0
  -22.0060   -4.7330   22.5720 C   0  0  0  0  0  0  0  0  0  0  0  0
  -22.4610   -4.1770   21.4230 F   0  0  0  0  0  0  0  0  0  0  0  0
  -21.2710   -3.7440   26.0270 F   0  0  0  0  0  0  0  0  0  0  0  0
  -22.7310  -13.4610   21.2340 C   0  0  0  0  0  0  0  0  0  0  0  0
  -22.0600  -12.7360   22.1230 N   0  0  0  0  0  0  0  0  0  0  0  0
  -22.2580  -14.4960   20.7670 O   0  0  0  0  0  0  0  0  0  0  0  0
  -22.4580  -11.8990   22.5210 H   0  0  0  0  0  0  0  0  0  0  0  0
  -21.1350  -13.0230   22.4090 H   0  0  0  0  0  0  0  0  0  0  0  0
  -25.2870  -15.1800   20.3220 N   0  0  0  0  0  0  0  0  0  0  0  0
  -24.5310  -15.8280   20.5110 H   0  0  0  0  0  0  0  0  0  0  0  0
  -26.1230  -15.6360   19.9760 H   0  0  0  0  0  0  0  0  0  0  0  0
  -27.9760  -23.9440   20.1450 C   0  0  0  0  0  2  0  0  0  0  0  0
  -28.1220  -25.6520   20.2920 O   0  0  0  0  0  0  0  0  0  0  0  0
  -24.6550  -31.8090   23.2530 C   0  0  0  0  0  0  0  0  0  0  0  0
  -27.1340  -26.8100   20.2310 C   0  0  0  0  0  0  0  0  0  0  0  0
  -23.4470  -30.4330   21.6100 C   0  0  0  0  0  3  0  0  0  0  0  0
  -24.8740  -28.7940   20.1840 C   0  0  0  0  0  0  0  0  0  0  0  0
  -26.0220  -30.5800   21.4750 C   0  0  0  0  0  2  0  0  0  0  0  0
  -26.0700  -29.1610   20.8130 C   0  0  0  0  0  0  0  0  0  0  0  0
  -27.1900  -28.1930   20.8040 C   0  0  0  0  0  3  0  0  0  0  0  0
  -25.9060  -26.6230   19.5520 C   0  0  0  0  0  3  0  0  0  0  0  0
  -24.8240  -27.5500   19.5320 C   0  0  0  0  0  3  0  0  0  0  0  0
  -23.6730  -29.7460   20.2330 C   0  0  0  0  0  2  0  0  0  0  0  0
  -24.7310  -30.9700   22.1660 N   0  0  0  0  0  0  0  0  0  0  0  0
  -23.5670  -32.1140   23.7720 O   0  0  0  0  0  0  0  0  0  0  0  0
  -22.7310  -29.4510   22.5750 C   0  0  0  0  0  0  0  0  0  0  0  0
  -21.3990  -29.3010   22.4440 N   0  0  0  0  0  0  0  0  0  0  0  0
  -23.3840  -28.8220   23.4120 O   0  0  0  0  0  0  0  0  0  0  0  0
  -20.9250  -29.8600   21.7490 H   0  0  0  0  0  0  0  0  0  0  0  0
  -18.0030  -28.1120   22.9380 C   0  0  0  0  0  0  0  0  0  0  0  0
  -20.5640  -28.3700   23.2120 C   0  0  0  0  0  3  0  0  0  0  0  0
  -20.6600  -26.9360   22.6380 C   0  0  0  0  0  2  0  0  0  0  0  0
  -19.5620  -26.6180   21.6190 C   0  0  0  0  0  2  0  0  0  0  0  0
  -18.1780  -26.7650   22.2570 C   0  0  0  0  0  2  0  0  0  0  0  0
  -19.1230  -28.8720   23.3720 C   0  0  0  0  0  0  0  0  0  0  0  0
  -18.9020  -30.1310   23.9730 C   0  0  0  0  0  3  0  0  0  0  0  0
  -17.5970  -30.6310   24.1410 C   0  0  0  0  0  3  0  0  0  0  0  0
  -16.4930  -29.8690   23.7200 C   0  0  0  0  0  3  0  0  0  0  0  0
  -16.6970  -28.6110   23.1250 C   0  0  0  0  0  3  0  0  0  0  0  0
  -25.9300  -32.4380   23.8940 C   0  0  0  0  0  3  0  0  0  0  0  0
  -25.6290  -33.8430   24.2250 N   0  0  0  0  0  0  0  0  0  0  0  0
  -25.9480  -34.8990   23.4650 C   0  0  0  0  0  0  0  0  0  0  0  0
  -26.5850  -34.7920   22.4140 O   0  0  0  0  0  0  0  0  0  0  0  0
  -25.0560  -34.0000   25.0420 H   0  0  0  0  0  0  0  0  0  0  0  0
  -24.2070  -36.7020   23.2010 C   0  0  0  0  0  1  0  0  0  0  0  0
  -25.4900  -36.2950   23.9420 C   0  0  0  0  0  3  0  0  0  0  0  0
  -27.6640  -37.1930   24.6540 C   0  0  0  0  0  1  0  0  0  0  0  0
  -26.5170  -37.3460   23.7630 N   0  0  0  0  0  0  0  0  0  0  0  0
  -26.1180  -38.2680   23.9160 H   0  0  0  0  0  0  0  0  0  0  0  0
  -26.4140  -31.6730   25.1890 C   0  0  1  0  0  0  0  0  0  0  0  0
  -25.3000  -31.4620   26.2420 C   0  0  0  0  0  1  0  0  0  0  0  0
  -26.9830  -30.2820   24.8300 C   0  0  0  0  0  1  0  0  0  0  0  0
  -27.5650  -32.4560   25.8600 C   0  0  0  0  0  1  0  0  0  0  0  0
  1  3  1  0
  2  1  2  0
  2  7  1  0
  3  8  2  0
  3  5  1  0
  4  8  1  0
  4  6  1  0
  7  4  2  0
  9 20  1  0
 10 15  1  0
 11 12  1  0
 11 10  1  0
 13 12  1  0
 13 24  1  0
 13 14  1  0
 15  9  1  0
 15 14  1  0
 16  9  2  0
 17 20  1  0
 17 19  1  0
 17 18  1  0
 18 20  1  0
 19  2  1  0
 19 18  1  0
 21 22  2  0
 22 41  1  0
 23 22  1  0
 23 26  1  0
 24 25  1  0
 24 21  1  0
 25 23  2  0
 26 27  1  0
 27 28  2  0
 29 32  1  0
 29 28  1  0
 30 29  2  0
 31 30  1  0
 31 26  2  0
 32 33  1  0
 33 34  1  0
 34 35  2  0
 36 35  1  0
 36 40  1  0
 37 36  2  0
 38 33  2  0
 38 37  1  0
 39 38  1  0
 41 42  1  0
 42 45  1  0
 42 44  1  0
 43 41  2  0
 46 21  1  0
 46 47  1  0
 48 46  1  0
 49 50  1  0
 49  1  1  0
 51 62  2  0
 52 50  1  0
 52 57  1  0
 53 61  1  0
 53 63  1  0
 54 60  1  0
 54 56  1  0
 55 61  1  0
 56 55  1  0
 57 56  2  0
 58 52  2  0
 59 58  1  0
 59 54  2  0
 60 53  1  0
 61 51  1  0
 63 65  2  0
 64 63  1  0
 66 64  1  0
 67 76  2  0
 67 72  1  0
 68 64  1  0
 68 72  1  0
 69 68  1  0
 70 71  1  0
 70 69  1  0
 71 67  1  0
 72 73  2  0
 73 74  1  0
 75 74  2  0
 76 75  1  0
 77 51  1  0
 77 78  1  0
 77 87  1  0
 78 81  1  0
 79 83  1  0
 79 78  1  0
 80 79  2  0
 83 82  1  0
 85 86  1  0
 85 83  1  0
 85 84  1  0
 87 90  1  1
 87 88  1  0
 89 87  1  0
M  ISO  4   9 100  20 100  49 101  50 101
M  END
>  <TORSDO>  (12) 
F 17

>  <SCORE>  (12) 
-16.578

>  <name>  (12) 
11

>  <ligand_id>  (12) 
11

>  <original_smiles>  (12) 
[H]c1c([H])c([H])c2c(c1[H])C([H])([H])C([H])([H])C([H])([H])C2([H])N([H])C(=O)C1([H])N(C(=O)C([H])(N([H])C(=O)C([H])(N([H])C([H])([H])[H])C([H])([H])[H])C(C([H])([H])[H])(C([H])([H])[H])C([H])([H])[H])C([H])([H])c2c([H])c(OC([H])([H])c3c(C([H])([H])[H])nc(C([H])([H])[H])nc3C3([H])C([H])([H])N(C(=O)N4C([H])([H])C([H])([H])C([H])([H])C([H])(n5nc(-c6c([H])c([H])c(Oc7c([H])c([H])c(F)c([H])c7F)c([H])c6[H])c(C(=O)N([H])[H])c5N([H])[H])C4([H])[H])C3([H])[H])c([H])c([H])c2C1([H])[H]

>  <smiles>  (12) 
[H]c1c([H])c([H])c2c(c1[H])C([H])([H])C([H])([H])C([H])([H])C2([H])N([H])C(=O)C1([H])N(C(=O)C([H])(N([H])C(=O)C([H])(N([H])C([H])([H])[H])C([H])([H])[H])C(C([H])([H])[H])(C([H])([H])[H])C([H])([H])[H])C([H])([H])c2c([H])c(OC([H])([H])c3c(C([H])([H])[H])nc(C([H])([H])[H])nc3C3([H])C([H])([H])N(C(=O)N4C([H])([H])C([H])([H])C([H])([H])C([H])(n5nc(-c6c([H])c([H])c(Oc7c([H])c([H])c(F)c([H])c7F)c([H])c6[H])c(C(=O)N([H])[H])c5N([H])[H])C4([H])[H])C3([H])[H])c([H])c([H])c2C1([H])[H]

$$$$
12:0:0
     RDKit          3D

 95104  0  0  1  0  0  0  0  0999 V2000
  -27.5110  -23.5490   19.4240 C   0  0  0  0  0  3  0  0  0  0  0  0
  -28.7440  -24.0830   19.8370 C   0  0  0  0  0  0  0  0  0  0  0  0
  -27.4120  -22.1590   19.2250 C   0  0  0  0  0  0  0  0  0  0  0  0
  -29.6180  -21.8600   19.8430 C   0  0  0  0  0  0  0  0  0  0  0  0
  -29.7820  -23.2000   20.0420 N   0  0  0  0  0  0  0  0  0  0  0  0
  -28.4670  -21.3320   19.4270 N   0  0  0  0  0  0  0  0  0  0  0  0
  -26.1430  -21.5310   18.6540 C   0  0  0  0  0  3  0  0  0  0  0  0
  -26.0790  -20.2350   18.9780 F   0  0  0  0  0  0  0  0  0  0  0  0
  -26.1270  -21.6620   17.3220 F   0  0  0  0  0  0  0  0  0  0  0  0
  -29.0170  -25.6420   19.8020 C   0  0  0  0  0  2  0  0  0  0  0  0
  -28.4570  -26.5760   20.7960 O   0  0  0  0  0  0  0  0  0  0  0  0
  -24.5150  -31.9750   23.4130 C   0  0  0  0  0  0  0  0  0  0  0  0
  -27.3040  -27.3520   20.6090 C   0  0  0  0  0  0  0  0  0  0  0  0
  -23.3920  -30.5150   21.7620 C   0  0  0  0  0  3  0  0  0  0  0  0
  -24.9130  -28.9180   20.4500 C   0  0  0  0  0  0  0  0  0  0  0  0
  -25.9290  -30.8380   21.6880 C   0  0  0  0  0  2  0  0  0  0  0  0
  -26.0400  -29.4410   21.0910 C   0  0  0  0  0  0  0  0  0  0  0  0
  -27.2290  -28.6640   21.1680 C   0  0  0  0  0  3  0  0  0  0  0  0
  -26.1630  -26.8810   19.9210 C   0  0  0  0  0  3  0  0  0  0  0  0
  -24.9740  -27.6420   19.8610 C   0  0  0  0  0  3  0  0  0  0  0  0
  -23.6640  -29.7800   20.4180 C   0  0  0  0  0  2  0  0  0  0  0  0
  -24.6300  -31.1300   22.3430 N   0  0  0  0  0  0  0  0  0  0  0  0
  -23.4100  -32.2720   23.8870 O   0  0  0  0  0  0  0  0  0  0  0  0
  -22.6840  -29.5360   22.7270 C   0  0  0  0  0  0  0  0  0  0  0  0
  -21.3660  -29.3630   22.5490 N   0  0  0  0  0  0  0  0  0  0  0  0
  -23.3210  -28.9330   23.5960 O   0  0  0  0  0  0  0  0  0  0  0  0
  -20.9130  -29.9010   21.8230 H   0  0  0  0  0  0  0  0  0  0  0  0
  -17.9520  -28.2450   22.9770 C   0  0  0  0  0  0  0  0  0  0  0  0
  -20.5080  -28.4560   23.3110 C   0  0  0  0  0  3  0  0  0  0  0  0
  -20.5920  -27.0110   22.7590 C   0  0  0  0  0  2  0  0  0  0  0  0
  -19.5120  -26.6980   21.7200 C   0  0  0  0  0  2  0  0  0  0  0  0
  -18.1170  -26.8820   22.3280 C   0  0  0  0  0  2  0  0  0  0  0  0
  -19.0750  -28.9920   23.4260 C   0  0  0  0  0  0  0  0  0  0  0  0
  -18.8660  -30.2670   23.9930 C   0  0  0  0  0  3  0  0  0  0  0  0
  -17.5670  -30.7950   24.1190 C   0  0  0  0  0  3  0  0  0  0  0  0
  -16.4600  -30.0470   23.6830 C   0  0  0  0  0  3  0  0  0  0  0  0
  -16.6530  -28.7740   23.1180 C   0  0  0  0  0  3  0  0  0  0  0  0
  -25.7720  -32.6230   24.0770 C   0  0  0  0  0  3  0  0  0  0  0  0
  -26.1950  -31.9180   25.4240 C   0  0  1  0  0  0  0  0  0  0  0  0
  -25.0250  -31.7080   26.4130 C   0  0  0  0  0  1  0  0  0  0  0  0
  -26.8230  -30.5350   25.1400 C   0  0  0  0  0  1  0  0  0  0  0  0
  -27.2860  -32.7560   26.1310 C   0  0  0  0  0  1  0  0  0  0  0  0
  -25.4650  -34.0400   24.3120 N   0  0  0  0  0  0  0  0  0  0  0  0
  -25.8390  -35.0460   23.5090 C   0  0  0  0  0  0  0  0  0  0  0  0
  -26.5500  -34.8780   22.5140 O   0  0  0  0  0  0  0  0  0  0  0  0
  -24.8360  -34.2470   25.0740 H   0  0  0  0  0  0  0  0  0  0  0  0
  -24.1320  -36.8180   22.9840 C   0  0  0  0  0  1  0  0  0  0  0  0
  -25.3430  -36.4640   23.8610 C   0  0  0  0  0  3  0  0  0  0  0  0
  -27.4540  -37.3920   24.7060 C   0  0  0  0  0  1  0  0  0  0  0  0
  -26.3860  -37.5030   23.7160 N   0  0  0  0  0  0  0  0  0  0  0  0
  -25.9860  -38.4340   23.7830 H   0  0  0  0  0  0  0  0  0  0  0  0
  -30.8890  -20.9360   19.9240 C   0  0  0  0  0  2  0  0  0  0  0  0
  -29.9510  -18.6890   21.1430 C   0  0  0  0  0  2  0  0  0  0  0  0
  -31.1490  -18.3380   19.5600 C   0  0  0  0  0  2  0  0  0  0  0  0
  -30.8870  -17.4690   20.8150 C   0  0  0  0  0  3  0  0  0  0  0  0
  -30.9900  -19.5090   20.4730 N   0  0  1  0  0  4  0  0  0  0  0  0
  -31.7920  -19.5160   21.0820 H   0  0  0  0  0  0  0  0  0  0  0  0
  -31.0100  -14.9130   20.4180 C   0  0  0  0  0  0  0  0  0  0  0  0
  -30.7220  -12.6470   19.4360 C   0  0  0  0  0  2  0  0  0  0  0  0
  -29.8150  -12.7460   18.1910 C   0  0  0  0  0  2  0  0  0  0  0  0
  -28.3360  -12.6010   18.6020 C   0  0  0  0  0  2  0  0  0  0  0  0
  -27.9570  -13.5060   19.7990 C   0  0  0  0  0  3  0  0  0  0  0  0
  -29.0030  -13.4400   20.9380 C   0  0  0  0  0  2  0  0  0  0  0  0
  -30.3180  -13.7300   20.3550 N   0  0  0  0  0  0  0  0  0  0  0  0
  -32.1960  -14.9740   20.0850 O   0  0  0  0  0  0  0  0  0  0  0  0
  -30.3230  -16.0690   20.6730 N   0  0  0  0  0  0  0  0  0  0  0  0
  -29.3410  -15.9480   20.8850 H   0  0  0  0  0  0  0  0  0  0  0  0
  -25.5840  -14.1370   20.5350 C   0  0  0  0  0  0  0  0  0  0  0  0
  -24.4910  -13.3820   20.8610 C   0  0  0  0  0  0  0  0  0  0  0  0
  -24.9150  -12.0190   20.7770 C   0  0  0  0  0  0  0  0  0  0  0  0
  -26.6010  -13.2380   20.2680 N   0  0  0  0  0  0  0  0  0  0  0  0
  -26.2060  -11.9560   20.4790 N   0  0  0  0  0  0  0  0  0  0  0  0
  -24.1470  -10.7740   20.9080 C   0  0  0  0  0  0  0  0  0  0  0  0
  -24.5080   -9.7800   21.8460 C   0  0  0  0  0  3  0  0  0  0  0  0
  -23.7460   -8.5990   21.9700 C   0  0  0  0  0  3  0  0  0  0  0  0
  -22.6060   -8.4030   21.1530 C   0  0  0  0  0  0  0  0  0  0  0  0
  -22.2630   -9.3840   20.2050 C   0  0  0  0  0  3  0  0  0  0  0  0
  -23.0270  -10.5550   20.0810 C   0  0  0  0  0  3  0  0  0  0  0  0
  -21.8230   -7.2750   21.1800 O   0  0  0  0  0  0  0  0  0  0  0  0
  -21.6570   -6.5430   22.3290 C   0  0  0  0  0  0  0  0  0  0  0  0
  -21.1190   -7.1120   23.5040 C   0  0  0  0  0  3  0  0  0  0  0  0
  -20.8990   -6.3070   24.6380 C   0  0  0  0  0  3  0  0  0  0  0  0
  -21.2130   -4.9360   24.6030 C   0  0  0  0  0  0  0  0  0  0  0  0
  -21.7470   -4.3670   23.4330 C   0  0  0  0  0  3  0  0  0  0  0  0
  -21.9690   -5.1690   22.3000 C   0  0  0  0  0  0  0  0  0  0  0  0
  -22.4640   -4.6100   21.1690 F   0  0  0  0  0  0  0  0  0  0  0  0
  -20.9980   -4.1620   25.6910 F   0  0  0  0  0  0  0  0  0  0  0  0
  -23.1070  -13.8880   21.1450 C   0  0  0  0  0  0  0  0  0  0  0  0
  -22.3650  -13.1940   21.9960 N   0  0  0  0  0  0  0  0  0  0  0  0
  -22.6920  -14.9360   20.6450 O   0  0  0  0  0  0  0  0  0  0  0  0
  -22.7040  -12.3420   22.4180 H   0  0  0  0  0  0  0  0  0  0  0  0
  -21.4420  -13.5220   22.2320 H   0  0  0  0  0  0  0  0  0  0  0  0
  -25.7840  -15.5130   20.4250 N   0  0  0  0  0  0  0  0  0  0  0  0
  -25.0320  -16.1670   20.6140 H   0  0  0  0  0  0  0  0  0  0  0  0
  -26.6330  -15.9650   20.1080 H   0  0  0  0  0  0  0  0  0  0  0  0
  1  2  2  0
  2  5  1  0
  3  1  1  0
  3  6  2  0
  4 52  1  0
  4  5  2  0
  6  4  1  0
  7  8  1  0
  7  3  1  0
  9  7  1  0
 10  2  1  0
 10 11  1  0
 12 23  2  0
 13 11  1  0
 13 18  1  0
 14 22  1  0
 14 24  1  0
 15 17  1  0
 16 22  1  0
 17 18  2  0
 17 16  1  0
 19 13  2  0
 20 19  1  0
 20 15  2  0
 21 15  1  0
 21 14  1  0
 22 12  1  0
 24 26  2  0
 25 24  1  0
 27 25  1  0
 28 37  2  0
 28 33  1  0
 29 25  1  0
 29 33  1  0
 30 29  1  0
 31 32  1  0
 31 30  1  0
 32 28  1  0
 33 34  2  0
 34 35  1  0
 36 35  2  0
 37 36  1  0
 38 12  1  0
 38 43  1  0
 38 39  1  0
 39 42  1  1
 39 40  1  0
 41 39  1  0
 43 46  1  0
 44 48  1  0
 44 43  1  0
 45 44  2  0
 48 47  1  0
 50 51  1  0
 50 48  1  0
 50 49  1  0
 52 56  1  0
 54 56  1  0
 54 55  1  0
 55 66  1  0
 55 53  1  0
 56 57  1  1
 56 53  1  0
 58 66  1  0
 59 64  1  0
 60 61  1  0
 60 59  1  0
 62 61  1  0
 62 71  1  0
 62 63  1  0
 64 58  1  0
 64 63  1  0
 65 58  2  0
 66 67  1  0
 68 69  2  0
 69 88  1  0
 70 69  1  0
 70 73  1  0
 71 72  1  0
 71 68  1  0
 72 70  2  0
 73 74  1  0
 74 75  2  0
 76 79  1  0
 76 75  1  0
 77 76  2  0
 78 77  1  0
 78 73  2  0
 79 80  1  0
 80 81  1  0
 81 82  2  0
 83 82  1  0
 83 87  1  0
 84 83  2  0
 85 80  2  0
 85 84  1  0
 86 85  1  0
 88 89  1  0
 89 92  1  0
 89 91  1  0
 90 88  2  0
 93 68  1  0
 93 94  1  0
 95 93  1  0
M  ISO  4  10 101  11 101  58 100  66 100
M  END
>  <TORSDO>  (13) 
F 20

>  <SCORE>  (13) 
-13.182

>  <name>  (13) 
12

>  <ligand_id>  (13) 
12

>  <original_smiles>  (13) 
[H]c1c(C([H])(F)F)nc(C([H])([H])[N+]2([H])C([H])([H])C([H])(N([H])C(=O)N3C([H])([H])C([H])([H])C([H])([H])C([H])(n4nc(-c5c([H])c([H])c(Oc6c([H])c([H])c(F)c([H])c6F)c([H])c5[H])c(C(=O)N([H])[H])c4N([H])[H])C3([H])[H])C2([H])[H])nc1C([H])([H])Oc1c([H])c([H])c2c(c1[H])C([H])([H])N(C(=O)C([H])(N([H])C(=O)C([H])(N([H])C([H])([H])[H])C([H])([H])[H])C(C([H])([H])[H])(C([H])([H])[H])C([H])([H])[H])C([H])(C(=O)N([H])C1([H])c3c([H])c([H])c([H])c([H])c3C([H])([H])C([H])([H])C1([H])[H])C2([H])[H]

>  <smiles>  (13) 
[H]c1c(C([H])(F)F)nc(C([H])([H])[N+]2([H])C([H])([H])C([H])(N([H])C(=O)N3C([H])([H])C([H])([H])C([H])([H])C([H])(n4nc(-c5c([H])c([H])c(Oc6c([H])c([H])c(F)c([H])c6F)c([H])c5[H])c(C(=O)N([H])[H])c4N([H])[H])C3([H])[H])C2([H])[H])nc1C([H])([H])Oc1c([H])c([H])c2c(c1[H])C([H])([H])N(C(=O)C([H])(N([H])C(=O)C([H])(N([H])C([H])([H])[H])C([H])([H])[H])C(C([H])([H])[H])(C([H])([H])[H])C([H])([H])[H])C([H])(C(=O)N([H])C1([H])c3c([H])c([H])c([H])c([H])c3C([H])([H])C([H])([H])C1([H])[H])C2([H])[H]

$$$$
13:0:0
     RDKit          3D

 93103  0  0  1  0  0  0  0  0999 V2000
  -30.8140  -20.7720   19.8130 C   0  0  0  0  0  3  0  0  0  0  0  0
  -30.2450  -22.0430   20.0370 C   0  0  0  0  0  3  0  0  0  0  0  0
  -28.6300  -19.7540   20.1380 C   0  0  0  0  0  3  0  0  0  0  0  0
  -30.0040  -19.6190   19.8560 C   0  0  0  0  0  0  0  0  0  0  0  0
  -28.8670  -22.1800   20.3210 C   0  0  0  0  0  0  0  0  0  0  0  0
  -28.0580  -21.0180   20.3800 C   0  0  0  0  0  0  0  0  0  0  0  0
  -26.5690  -21.0960   20.6810 C   0  0  0  0  0  1  0  0  0  0  0  0
  -31.0420  -14.8160   20.3520 C   0  0  0  0  0  0  0  0  0  0  0  0
  -30.7330  -12.5240   19.5860 C   0  0  0  0  0  2  0  0  0  0  0  0
  -29.8930  -12.5500   18.2840 C   0  0  0  0  0  2  0  0  0  0  0  0
  -28.3830  -12.8040   18.5150 C   0  0  0  0  0  2  0  0  0  0  0  0
  -28.0190  -12.9620   19.9950 C   0  0  0  0  0  3  0  0  0  0  0  0
  -28.9830  -13.5960   20.9950 C   0  0  0  0  0  2  0  0  0  0  0  0
  -30.3280  -13.6720   20.4080 N   0  0  0  0  0  0  0  0  0  0  0  0
  -32.2640  -14.8630   20.2390 O   0  0  0  0  0  0  0  0  0  0  0  0
  -29.8240  -17.5970   18.3640 C   0  0  0  0  0  2  0  0  0  0  0  0
  -30.0350  -16.1050   18.5820 C   0  0  0  0  0  2  0  0  0  0  0  0
  -30.5310  -17.2060   20.6390 C   0  0  0  0  0  2  0  0  0  0  0  0
  -30.5790  -18.2510   19.5090 C   0  0  0  0  0  3  0  0  0  0  0  0
  -30.3120  -15.8980   20.0110 N   0  0  0  0  0  0  0  0  0  0  0  0
  -25.5970  -13.9790   20.4200 C   0  0  0  0  0  0  0  0  0  0  0  0
  -24.4630  -13.2720   20.7560 C   0  0  0  0  0  0  0  0  0  0  0  0
  -24.8520  -11.9050   20.7990 C   0  0  0  0  0  0  0  0  0  0  0  0
  -26.6020  -13.0090   20.3160 N   0  0  0  0  0  0  0  0  0  0  0  0
  -26.1250  -11.7810   20.5590 N   0  0  0  0  0  0  0  0  0  0  0  0
  -24.1230  -10.6630   20.9910 C   0  0  0  0  0  0  0  0  0  0  0  0
  -24.5390   -9.7180   21.9530 C   0  0  0  0  0  3  0  0  0  0  0  0
  -23.8260   -8.5150   22.1190 C   0  0  0  0  0  3  0  0  0  0  0  0
  -22.6890   -8.2560   21.3190 C   0  0  0  0  0  0  0  0  0  0  0  0
  -22.3020   -9.1880   20.3410 C   0  0  0  0  0  3  0  0  0  0  0  0
  -23.0180  -10.3820   20.1710 C   0  0  0  0  0  3  0  0  0  0  0  0
  -21.9420   -7.1090   21.4000 O   0  0  0  0  0  0  0  0  0  0  0  0
  -21.8550   -6.3940   22.5670 C   0  0  0  0  0  0  0  0  0  0  0  0
  -21.3820   -6.9680   23.7660 C   0  0  0  0  0  3  0  0  0  0  0  0
  -21.2460   -6.1710   24.9210 C   0  0  0  0  0  3  0  0  0  0  0  0
  -21.5760   -4.8040   24.8760 C   0  0  0  0  0  0  0  0  0  0  0  0
  -22.0490   -4.2320   23.6820 C   0  0  0  0  0  3  0  0  0  0  0  0
  -22.1870   -5.0270   22.5300 C   0  0  0  0  0  0  0  0  0  0  0  0
  -22.6230   -4.4670   21.3780 F   0  0  0  0  0  0  0  0  0  0  0  0
  -21.4380   -4.0340   25.9800 F   0  0  0  0  0  0  0  0  0  0  0  0
  -23.0660  -13.7900   20.9520 C   0  0  0  0  0  0  0  0  0  0  0  0
  -22.2830  -13.1250   21.7980 N   0  0  0  0  0  0  0  0  0  0  0  0
  -22.6720  -14.8040   20.3840 O   0  0  0  0  0  0  0  0  0  0  0  0
  -22.6080  -12.2970   22.2730 H   0  0  0  0  0  0  0  0  0  0  0  0
  -21.3370  -13.4420   21.9640 H   0  0  0  0  0  0  0  0  0  0  0  0
  -25.8400  -15.3320   20.1990 N   0  0  0  0  0  0  0  0  0  0  0  0
  -25.1090  -16.0330   20.2110 H   0  0  0  0  0  0  0  0  0  0  0  0
  -26.7370  -15.6930   19.9030 H   0  0  0  0  0  0  0  0  0  0  0  0
  -27.2170  -24.1270   19.6800 C   0  0  0  0  0  2  0  0  0  0  0  0
  -28.2890  -23.5430   20.5670 C   0  0  0  0  0  3  0  0  0  0  0  0
  -28.6080  -24.7150   19.6610 C   0  0  0  0  0  3  0  0  0  0  0  0
  -28.9140  -26.0620   20.2870 C   0  0  0  0  0  2  0  0  0  0  0  0
  -28.6770  -27.1170   19.3650 O   0  0  0  0  0  0  0  0  0  0  0  0
  -24.7150  -31.6970   23.0960 C   0  0  0  0  0  0  0  0  0  0  0  0
  -27.4680  -27.7480   19.5090 C   0  0  0  0  0  0  0  0  0  0  0  0
  -23.5250  -30.4250   21.3380 C   0  0  0  0  0  3  0  0  0  0  0  0
  -25.0050  -29.1010   19.7360 C   0  0  0  0  0  0  0  0  0  0  0  0
  -26.0260  -30.9140   21.1300 C   0  0  0  0  0  2  0  0  0  0  0  0
  -26.1500  -29.6220   20.3520 C   0  0  0  0  0  0  0  0  0  0  0  0
  -27.3840  -28.9510   20.2390 C   0  0  0  0  0  3  0  0  0  0  0  0
  -26.3110  -27.2240   18.8990 C   0  0  0  0  0  3  0  0  0  0  0  0
  -25.0780  -27.8960   19.0110 C   0  0  0  0  0  3  0  0  0  0  0  0
  -23.7290  -29.8940   19.8930 C   0  0  0  0  0  2  0  0  0  0  0  0
  -24.7760  -31.0200   21.9150 N   0  0  0  0  0  0  0  0  0  0  0  0
  -23.6370  -31.8690   23.6820 O   0  0  0  0  0  0  0  0  0  0  0  0
  -22.9360  -29.2860   22.2000 C   0  0  0  0  0  0  0  0  0  0  0  0
  -21.6150  -29.0720   22.0830 N   0  0  0  0  0  0  0  0  0  0  0  0
  -23.6610  -28.6030   22.9260 O   0  0  0  0  0  0  0  0  0  0  0  0
  -21.0870  -29.6780   21.4720 H   0  0  0  0  0  0  0  0  0  0  0  0
  -18.2920  -27.7340   22.5430 C   0  0  0  0  0  0  0  0  0  0  0  0
  -20.8510  -28.0290   22.7650 C   0  0  0  0  0  3  0  0  0  0  0  0
  -20.9700  -26.6780   22.0230 C   0  0  0  0  0  2  0  0  0  0  0  0
  -19.8410  -26.4440   21.0130 C   0  0  0  0  0  2  0  0  0  0  0  0
  -18.4790  -26.4740   21.7130 C   0  0  0  0  0  2  0  0  0  0  0  0
  -19.4070  -28.4710   23.0240 C   0  0  0  0  0  0  0  0  0  0  0  0
  -19.1790  -29.6530   23.7620 C   0  0  0  0  0  3  0  0  0  0  0  0
  -17.8700  -30.0970   24.0230 C   0  0  0  0  0  3  0  0  0  0  0  0
  -16.7700  -29.3540   23.5610 C   0  0  0  0  0  3  0  0  0  0  0  0
  -16.9820  -28.1740   22.8240 C   0  0  0  0  0  3  0  0  0  0  0  0
  -25.9910  -32.3090   23.7560 C   0  0  0  0  0  3  0  0  0  0  0  0
  -25.6560  -33.6730   24.1840 N   0  0  0  0  0  0  0  0  0  0  0  0
  -25.9710  -34.7810   23.5020 C   0  0  0  0  0  0  0  0  0  0  0  0
  -26.6440  -34.7620   22.4680 O   0  0  0  0  0  0  0  0  0  0  0  0
  -25.0520  -33.7580   24.9880 H   0  0  0  0  0  0  0  0  0  0  0  0
  -24.2060  -36.5560   23.2710 C   0  0  0  0  0  1  0  0  0  0  0  0
  -25.4560  -36.1250   24.0540 C   0  0  0  0  0  3  0  0  0  0  0  0
  -27.5730  -36.9960   24.9450 C   0  0  0  0  0  1  0  0  0  0  0  0
  -26.4680  -37.2030   24.0110 N   0  0  0  0  0  0  0  0  0  0  0  0
  -26.0440  -38.1050   24.2130 H   0  0  0  0  0  0  0  0  0  0  0  0
  -26.5320  -31.4570   24.9690 C   0  0  1  0  0  0  0  0  0  0  0  0
  -25.4530  -31.1260   26.0270 C   0  0  0  0  0  1  0  0  0  0  0  0
  -27.1340  -30.1230   24.4720 C   0  0  0  0  0  1  0  0  0  0  0  0
  -27.6760  -32.2220   25.6740 C   0  0  0  0  0  1  0  0  0  0  0  0
  1  4  2  0
  1  2  1  0
  2  5  2  0
  3  6  2  0
  4  3  1  0
  5  6  1  0
  6  7  1  0
  8 14  1  0
  9 14  1  0
 10 11  1  0
 10  9  1  0
 12 11  1  0
 12 24  1  0
 12 13  1  0
 14 13  1  0
 15  8  2  0
 16 17  1  0
 16 19  1  0
 17 20  1  0
 19  4  1  0
 19 18  1  0
 20  8  1  0
 20 18  1  0
 21 22  2  0
 22 23  1  0
 22 41  1  0
 23 26  1  0
 24 21  1  0
 24 25  1  0
 25 23  2  0
 26 27  1  0
 27 28  2  0
 29 32  1  0
 29 28  1  0
 30 29  2  0
 31 30  1  0
 31 26  2  0
 32 33  1  0
 33 34  1  0
 34 35  2  0
 36 35  1  0
 36 40  1  0
 37 36  2  0
 38 33  2  0
 38 37  1  0
 39 38  1  0
 41 42  1  0
 42 45  1  0
 42 44  1  0
 43 41  2  0
 46 47  1  0
 46 21  1  0
 48 46  1  0
 49 50  1  0
 50  5  1  0
 51 49  1  0
 51 52  1  0
 51 50  1  0
 53 55  1  0
 53 52  1  0
 54 65  2  0
 55 60  1  0
 56 64  1  0
 56 66  1  0
 57 63  1  0
 57 59  1  0
 58 64  1  0
 59 58  1  0
 60 59  2  0
 61 62  1  0
 61 55  2  0
 62 57  2  0
 63 56  1  0
 64 54  1  0
 66 68  2  0
 67 66  1  0
 69 67  1  0
 70 79  2  0
 70 75  1  0
 71 67  1  0
 71 75  1  0
 72 71  1  0
 73 74  1  0
 73 72  1  0
 74 70  1  0
 75 76  2  0
 76 77  1  0
 78 77  2  0
 79 78  1  0
 80 54  1  0
 80 81  1  0
 80 90  1  0
 81 84  1  0
 82 86  1  0
 82 81  1  0
 83 82  2  0
 86 85  1  0
 88 86  1  0
 88 89  1  0
 88 87  1  0
 90 93  1  1
 90 91  1  0
 92 90  1  0
M  ISO  4   8 100  20 100  52 101  53 101
M  END
>  <TORSDO>  (14) 
F 18

>  <SCORE>  (14) 
-11.662

>  <name>  (14) 
13

>  <ligand_id>  (14) 
13

>  <original_smiles>  (14) 
[H]c1c([H])c([H])c2c(c1[H])C([H])([H])C([H])([H])C([H])([H])C2([H])N([H])C(=O)C1([H])N(C(=O)C([H])(N([H])C(=O)C([H])(N([H])C([H])([H])[H])C([H])([H])[H])C(C([H])([H])[H])(C([H])([H])[H])C([H])([H])[H])C([H])([H])c2c([H])c(OC([H])([H])C3([H])C([H])([H])C3([H])c3c([H])c([H])c(C4([H])C([H])([H])N(C(=O)N5C([H])([H])C([H])([H])C([H])([H])C([H])(n6nc(-c7c([H])c([H])c(Oc8c([H])c([H])c(F)c([H])c8F)c([H])c7[H])c(C(=O)N([H])[H])c6N([H])[H])C5([H])[H])C([H])([H])C4([H])[H])c([H])c3C([H])([H])[H])c([H])c([H])c2C1([H])[H]

>  <smiles>  (14) 
[H]c1c([H])c([H])c2c(c1[H])C([H])([H])C([H])([H])C([H])([H])C2([H])N([H])C(=O)C1([H])N(C(=O)C([H])(N([H])C(=O)C([H])(N([H])C([H])([H])[H])C([H])([H])[H])C(C([H])([H])[H])(C([H])([H])[H])C([H])([H])[H])C([H])([H])c2c([H])c(OC([H])([H])C3([H])C([H])([H])C3([H])c3c([H])c([H])c(C4([H])C([H])([H])N(C(=O)N5C([H])([H])C([H])([H])C([H])([H])C([H])(n6nc(-c7c([H])c([H])c(Oc8c([H])c([H])c(F)c([H])c8F)c([H])c7[H])c(C(=O)N([H])[H])c6N([H])[H])C5([H])[H])C([H])([H])C4([H])[H])c([H])c3C([H])([H])[H])c([H])c([H])c2C1([H])[H]

$$$$
14:0:0
     RDKit          3D

 93102  0  0  1  0  0  0  0  0999 V2000
  -29.3150  -21.5740   21.0000 C   0  0  0  0  0  3  0  0  0  0  0  0
  -27.9680  -21.2110   19.1180 C   0  0  0  0  0  3  0  0  0  0  0  0
  -29.0980  -23.0000   20.8530 C   0  0  0  0  0  0  0  0  0  0  0  0
  -28.7940  -20.5870   20.1040 C   0  0  0  0  0  0  0  0  0  0  0  0
  -28.2730  -23.5110   19.7990 C   0  0  0  0  0  0  0  0  0  0  0  0
  -27.7250  -22.5620   18.9800 N   0  0  0  0  0  0  0  0  0  0  0  0
  -30.5170  -14.8410   19.9090 C   0  0  0  0  0  0  0  0  0  0  0  0
  -30.2630  -12.5470   18.9160 C   0  0  0  0  0  2  0  0  0  0  0  0
  -29.2430  -12.5740   17.7580 C   0  0  0  0  0  2  0  0  0  0  0  0
  -27.8130  -12.3660   18.2940 C   0  0  0  0  0  2  0  0  0  0  0  0
  -27.5070  -13.2460   19.5340 C   0  0  0  0  0  3  0  0  0  0  0  0
  -28.6470  -13.2270   20.5740 C   0  0  0  0  0  2  0  0  0  0  0  0
  -29.8750  -13.6160   19.8710 N   0  0  0  0  0  0  0  0  0  0  0  0
  -31.6980  -14.8890   19.5410 O   0  0  0  0  0  0  0  0  0  0  0  0
  -29.7290  -18.4600   21.3210 C   0  0  0  0  0  3  0  0  0  0  0  0
  -28.9290  -18.1960   19.0410 C   0  0  0  0  0  3  0  0  0  0  0  0
  -30.5630  -17.1460   20.9580 C   0  0  0  0  0  3  0  0  0  0  0  0
  -28.7610  -16.6570   19.4390 C   0  0  0  0  0  3  0  0  0  0  0  0
  -29.0750  -19.1390   20.1770 N   0  0  0  0  0  0  0  0  0  0  0  0
  -29.8460  -16.0300   20.2600 N   0  0  0  0  0  0  0  0  0  0  0  0
  -25.2020  -13.7890   20.5080 C   0  0  0  0  0  0  0  0  0  0  0  0
  -24.1710  -12.9950   20.9270 C   0  0  0  0  0  0  0  0  0  0  0  0
  -24.6260  -11.6490   20.7870 C   0  0  0  0  0  0  0  0  0  0  0  0
  -26.2160  -12.9250   20.1320 N   0  0  0  0  0  0  0  0  0  0  0  0
  -25.8850  -11.6280   20.3640 N   0  0  0  0  0  0  0  0  0  0  0  0
  -23.9160  -10.3770   20.9760 C   0  0  0  0  0  0  0  0  0  0  0  0
  -24.3650   -9.4100   21.9020 C   0  0  0  0  0  3  0  0  0  0  0  0
  -23.6530   -8.2030   22.0780 C   0  0  0  0  0  3  0  0  0  0  0  0
  -22.4790   -7.9570   21.3280 C   0  0  0  0  0  0  0  0  0  0  0  0
  -22.0490   -8.9140   20.3930 C   0  0  0  0  0  3  0  0  0  0  0  0
  -22.7620  -10.1110   20.2150 C   0  0  0  0  0  3  0  0  0  0  0  0
  -21.7380   -6.8030   21.4120 O   0  0  0  0  0  0  0  0  0  0  0  0
  -21.6330   -6.1010   22.5860 C   0  0  0  0  0  0  0  0  0  0  0  0
  -21.0320   -6.6600   23.7360 C   0  0  0  0  0  3  0  0  0  0  0  0
  -20.8790   -5.8810   24.9000 C   0  0  0  0  0  3  0  0  0  0  0  0
  -21.3170   -4.5420   24.9150 C   0  0  0  0  0  0  0  0  0  0  0  0
  -21.9090   -3.9830   23.7700 C   0  0  0  0  0  3  0  0  0  0  0  0
  -22.0640   -4.7600   22.6080 C   0  0  0  0  0  0  0  0  0  0  0  0
  -22.6170   -4.2090   21.5000 F   0  0  0  0  0  0  0  0  0  0  0  0
  -21.1640   -3.7920   26.0310 F   0  0  0  0  0  0  0  0  0  0  0  0
  -22.8050  -13.4580   21.3420 C   0  0  0  0  0  0  0  0  0  0  0  0
  -22.1490  -12.7170   22.2260 N   0  0  0  0  0  0  0  0  0  0  0  0
  -22.3320  -14.5130   20.9210 O   0  0  0  0  0  0  0  0  0  0  0  0
  -22.5460  -11.8620   22.5880 H   0  0  0  0  0  0  0  0  0  0  0  0
  -21.2400  -13.0130   22.5530 H   0  0  0  0  0  0  0  0  0  0  0  0
  -25.3550  -15.1670   20.3890 N   0  0  0  0  0  0  0  0  0  0  0  0
  -24.6080  -15.8150   20.6170 H   0  0  0  0  0  0  0  0  0  0  0  0
  -26.1830  -15.6200   20.0290 H   0  0  0  0  0  0  0  0  0  0  0  0
  -31.3320  -23.9520   21.5190 C   0  0  0  0  0  1  0  0  0  0  0  0
  -29.5340  -23.5690   23.2780 C   0  0  0  0  0  1  0  0  0  0  0  0
  -29.8230  -23.9360   21.8140 C   0  0  0  0  0  3  0  0  0  0  0  0
  -28.1150  -25.0410   19.2660 C   0  0  0  0  0  2  0  0  0  0  0  0
  -28.0070  -26.3210   20.0680 O   0  0  0  0  0  0  0  0  0  0  0  0
  -24.5140  -31.8720   23.1760 C   0  0  0  0  0  0  0  0  0  0  0  0
  -26.9270  -27.2420   19.9860 C   0  0  0  0  0  0  0  0  0  0  0  0
  -23.2300  -30.5150   21.5620 C   0  0  0  0  0  3  0  0  0  0  0  0
  -24.6040  -28.9540   20.0580 C   0  0  0  0  0  0  0  0  0  0  0  0
  -25.7710  -30.7760   21.2950 C   0  0  0  0  0  2  0  0  0  0  0  0
  -25.8030  -29.3970   20.6290 C   0  0  0  0  0  0  0  0  0  0  0  0
  -26.9600  -28.5520   20.5870 C   0  0  0  0  0  3  0  0  0  0  0  0
  -25.7040  -26.8740   19.3830 C   0  0  0  0  0  3  0  0  0  0  0  0
  -24.5640  -27.7050   19.4200 C   0  0  0  0  0  3  0  0  0  0  0  0
  -23.3850  -29.8520   20.1660 C   0  0  0  0  0  2  0  0  0  0  0  0
  -24.5280  -31.0730   22.0660 N   0  0  0  0  0  0  0  0  0  0  0  0
  -23.4510  -32.1620   23.7480 O   0  0  0  0  0  0  0  0  0  0  0  0
  -22.5810  -29.5010   22.5350 C   0  0  0  0  0  0  0  0  0  0  0  0
  -21.2530  -29.3180   22.4270 N   0  0  0  0  0  0  0  0  0  0  0  0
  -23.2710  -28.8810   23.3470 O   0  0  0  0  0  0  0  0  0  0  0  0
  -20.7510  -29.8720   21.7470 H   0  0  0  0  0  0  0  0  0  0  0  0
  -17.8940  -28.0680   22.9460 C   0  0  0  0  0  0  0  0  0  0  0  0
  -20.4500  -28.3760   23.2100 C   0  0  0  0  0  3  0  0  0  0  0  0
  -20.5740  -26.9380   22.6540 C   0  0  0  0  0  2  0  0  0  0  0  0
  -19.4780  -26.5820   21.6440 C   0  0  0  0  0  2  0  0  0  0  0  0
  -18.0930  -26.7130   22.2870 C   0  0  0  0  0  2  0  0  0  0  0  0
  -19.0010  -28.8550   23.3650 C   0  0  0  0  0  0  0  0  0  0  0  0
  -18.7600  -30.1190   23.9440 C   0  0  0  0  0  3  0  0  0  0  0  0
  -17.4480  -30.6010   24.1030 C   0  0  0  0  0  3  0  0  0  0  0  0
  -16.3560  -29.8130   23.6980 C   0  0  0  0  0  3  0  0  0  0  0  0
  -16.5800  -28.5470   23.1260 C   0  0  0  0  0  3  0  0  0  0  0  0
  -25.8250  -32.4770   23.7630 C   0  0  0  0  0  3  0  0  0  0  0  0
  -25.5450  -33.8740   24.1280 N   0  0  0  0  0  0  0  0  0  0  0  0
  -25.8670  -34.9370   23.3770 C   0  0  0  0  0  0  0  0  0  0  0  0
  -26.4970  -34.8420   22.3210 O   0  0  0  0  0  0  0  0  0  0  0  0
  -24.9770  -34.0250   24.9480 H   0  0  0  0  0  0  0  0  0  0  0  0
  -24.1760  -36.7820   23.0980 C   0  0  0  0  0  1  0  0  0  0  0  0
  -25.4200  -36.3260   23.8770 C   0  0  0  0  0  3  0  0  0  0  0  0
  -27.5800  -37.1550   24.7050 C   0  0  0  0  0  1  0  0  0  0  0  0
  -26.4760  -37.3560   23.7700 N   0  0  0  0  0  0  0  0  0  0  0  0
  -26.0910  -38.2830   23.9240 H   0  0  0  0  0  0  0  0  0  0  0  0
  -26.3730  -31.6790   25.0100 C   0  0  1  0  0  0  0  0  0  0  0  0
  -25.3110  -31.4350   26.1100 C   0  0  0  0  0  1  0  0  0  0  0  0
  -26.9260  -30.3010   24.5810 C   0  0  0  0  0  1  0  0  0  0  0  0
  -27.5530  -32.4510   25.6470 C   0  0  0  0  0  1  0  0  0  0  0  0
  2  4  1  0
  3  1  1  0
  3 51  1  0
  4 19  1  0
  4  1  2  0
  5  3  2  0
  6  2  2  0
  6  5  1  0
  7 20  1  0
  8 13  1  0
  9 10  1  0
  9  8  1  0
 11 10  1  0
 11 24  1  0
 11 12  1  0
 13  7  1  0
 13 12  1  0
 14  7  2  0
 16 18  2  0
 16 19  1  0
 17 15  2  0
 18 20  1  0
 19 15  1  0
 20 17  1  0
 21 22  2  0
 22 41  1  0
 23 22  1  0
 23 26  1  0
 24 25  1  0
 24 21  1  0
 25 23  2  0
 26 27  1  0
 27 28  2  0
 29 32  1  0
 29 28  1  0
 30 29  2  0
 31 30  1  0
 31 26  2  0
 32 33  1  0
 33 38  2  0
 33 34  1  0
 34 35  2  0
 35 36  1  0
 36 40  1  0
 37 36  2  0
 38 37  1  0
 39 38  1  0
 41 42  1  0
 42 45  1  0
 42 44  1  0
 43 41  2  0
 46 21  1  0
 46 47  1  0
 48 46  1  0
 49 51  1  0
 51 50  1  0
 52  5  1  0
 52 53  1  0
 54 65  2  0
 55 53  1  0
 55 60  1  0
 56 64  1  0
 56 66  1  0
 57 63  1  0
 57 59  1  0
 58 64  1  0
 59 58  1  0
 60 59  2  0
 61 62  1  0
 61 55  2  0
 62 57  2  0
 63 56  1  0
 64 54  1  0
 66 68  2  0
 67 66  1  0
 69 67  1  0
 70 79  2  0
 70 75  1  0
 71 67  1  0
 71 75  1  0
 72 71  1  0
 73 74  1  0
 73 72  1  0
 74 70  1  0
 75 76  2  0
 76 77  1  0
 78 77  2  0
 79 78  1  0
 80 54  1  0
 80 81  1  0
 80 90  1  0
 81 84  1  0
 82 86  1  0
 82 81  1  0
 83 82  2  0
 86 85  1  0
 88 86  1  0
 88 89  1  0
 88 87  1  0
 90 93  1  1
 90 91  1  0
 92 90  1  0
M  ISO  4   7 100  20 100  52 101  53 101
M  END
>  <TORSDO>  (15) 
F 18

>  <SCORE>  (15) 
-13.940

>  <name>  (15) 
14

>  <ligand_id>  (15) 
14

>  <original_smiles>  (15) 
[H]c1nc(C([H])([H])Oc2c([H])c([H])c3c(c2[H])C([H])([H])N(C(=O)C([H])(N([H])C(=O)C([H])(N([H])C([H])([H])[H])C([H])([H])[H])C(C([H])([H])[H])(C([H])([H])[H])C([H])([H])[H])C([H])(C(=O)N([H])C2([H])c4c([H])c([H])c([H])c([H])c4C([H])([H])C([H])([H])C2([H])[H])C3([H])[H])c(C([H])(C([H])([H])[H])C([H])([H])[H])c([H])c1N1C([H])([H])C([H])([H])N(C(=O)N2C([H])([H])C([H])([H])C([H])([H])C([H])(n3nc(-c4c([H])c([H])c(Oc5c([H])c([H])c(F)c([H])c5F)c([H])c4[H])c(C(=O)N([H])[H])c3N([H])[H])C2([H])[H])C([H])([H])C1([H])[H]

>  <smiles>  (15) 
[H]c1nc(C([H])([H])Oc2c([H])c([H])c3c(c2[H])C([H])([H])N(C(=O)C([H])(N([H])C(=O)C([H])(N([H])C([H])([H])[H])C([H])([H])[H])C(C([H])([H])[H])(C([H])([H])[H])C([H])([H])[H])C([H])(C(=O)N([H])C2([H])c4c([H])c([H])c([H])c([H])c4C([H])([H])C([H])([H])C2([H])[H])C3([H])[H])c(C([H])(C([H])([H])[H])C([H])([H])[H])c([H])c1N1C([H])([H])C([H])([H])N(C(=O)N2C([H])([H])C([H])([H])C([H])([H])C([H])(n3nc(-c4c([H])c([H])c(Oc5c([H])c([H])c(F)c([H])c5F)c([H])c4[H])c(C(=O)N([H])[H])c3N([H])[H])C2([H])[H])C([H])([H])C1([H])[H]

$$$$
15:0:0
     RDKit          3D

 88 97  0  0  1  0  0  0  0  0999 V2000
  -28.2990  -21.0940   19.8540 C   0  0  0  0  0  3  0  0  0  0  0  0
  -29.2160  -20.0470   20.3080 C   0  0  0  0  0  0  0  0  0  0  0  0
  -28.5850  -22.5520   20.3100 C   0  0  0  0  0  0  0  0  0  0  0  0
  -31.0520  -18.7620   21.3670 C   0  0  0  0  0  2  0  0  0  0  0  0
  -31.1630  -20.3110   21.6270 C   0  0  0  0  0  2  0  0  0  0  0  0
  -29.9700  -18.4460   20.2910 C   0  0  0  0  0  3  0  0  0  0  0  0
  -29.6900  -22.3030   21.0580 N   0  0  0  0  0  0  0  0  0  0  0  0
  -30.0030  -20.9230   21.0170 N   0  0  0  0  0  0  0  0  0  0  0  0
  -30.3290  -15.4710   20.2540 C   0  0  0  0  0  0  0  0  0  0  0  0
  -30.3180  -13.0110   19.3520 C   0  0  0  0  0  2  0  0  0  0  0  0
  -29.3830  -12.7610   18.1400 C   0  0  0  0  0  2  0  0  0  0  0  0
  -27.9520  -12.4530   18.6090 C   0  0  0  0  0  2  0  0  0  0  0  0
  -27.5020  -13.4080   19.7420 C   0  0  0  0  0  3  0  0  0  0  0  0
  -28.5670  -13.5980   20.8450 C   0  0  0  0  0  2  0  0  0  0  0  0
  -29.7630  -14.1530   20.1850 N   0  0  0  0  0  0  0  0  0  0  0  0
  -31.5480  -15.4410   20.0180 O   0  0  0  0  0  0  0  0  0  0  0  0
  -29.5970  -16.7860   20.3840 N   0  0  0  0  0  0  0  0  0  0  0  0
  -28.6100  -16.6380   20.5270 H   0  0  0  0  0  0  0  0  0  0  0  0
  -25.1480  -13.9300   20.5580 C   0  0  0  0  0  0  0  0  0  0  0  0
  -24.1000  -13.1380   20.9320 C   0  0  0  0  0  0  0  0  0  0  0  0
  -24.5750  -11.7930   20.8680 C   0  0  0  0  0  0  0  0  0  0  0  0
  -26.1910  -13.0670   20.2760 N   0  0  0  0  0  0  0  0  0  0  0  0
  -25.8620  -11.7740   20.5310 N   0  0  0  0  0  0  0  0  0  0  0  0
  -23.8580  -10.5220   21.0450 C   0  0  0  0  0  0  0  0  0  0  0  0
  -24.2940   -9.5500   21.9720 C   0  0  0  0  0  3  0  0  0  0  0  0
  -23.5740   -8.3480   22.1410 C   0  0  0  0  0  3  0  0  0  0  0  0
  -22.4030   -8.1090   21.3830 C   0  0  0  0  0  0  0  0  0  0  0  0
  -21.9850   -9.0710   20.4460 C   0  0  0  0  0  3  0  0  0  0  0  0
  -22.7070  -10.2640   20.2740 C   0  0  0  0  0  3  0  0  0  0  0  0
  -21.6540   -6.9600   21.4620 O   0  0  0  0  0  0  0  0  0  0  0  0
  -21.5820   -6.2250   22.6180 C   0  0  0  0  0  0  0  0  0  0  0  0
  -21.0720   -6.7690   23.8170 C   0  0  0  0  0  3  0  0  0  0  0  0
  -20.9510   -5.9580   24.9630 C   0  0  0  0  0  3  0  0  0  0  0  0
  -21.3310   -4.6040   24.9110 C   0  0  0  0  0  0  0  0  0  0  0  0
  -21.8360   -4.0590   23.7170 C   0  0  0  0  0  3  0  0  0  0  0  0
  -21.9570   -4.8670   22.5730 C   0  0  0  0  0  0  0  0  0  0  0  0
  -22.4230   -4.3310   21.4190 F   0  0  0  0  0  0  0  0  0  0  0  0
  -21.2100   -3.8230   26.0090 F   0  0  0  0  0  0  0  0  0  0  0  0
  -22.7040  -13.6020   21.2310 C   0  0  0  0  0  0  0  0  0  0  0  0
  -21.9960  -12.8920   22.1000 N   0  0  0  0  0  0  0  0  0  0  0  0
  -22.2530  -14.6320   20.7300 O   0  0  0  0  0  0  0  0  0  0  0  0
  -22.3760  -12.0600   22.5270 H   0  0  0  0  0  0  0  0  0  0  0  0
  -21.0610  -13.1840   22.3450 H   0  0  0  0  0  0  0  0  0  0  0  0
  -25.2970  -15.3050   20.4000 N   0  0  0  0  0  0  0  0  0  0  0  0
  -24.5230  -15.9470   20.5310 H   0  0  0  0  0  0  0  0  0  0  0  0
  -26.1220  -15.7530   20.0270 H   0  0  0  0  0  0  0  0  0  0  0  0
  -27.7960  -24.1620   20.0770 C   0  0  0  0  0  2  0  0  0  0  0  0
  -28.1190  -25.7890   20.3590 O   0  0  0  0  0  0  0  0  0  0  0  0
  -24.6200  -31.9120   23.2610 C   0  0  0  0  0  0  0  0  0  0  0  0
  -27.1470  -26.9480   20.2750 C   0  0  0  0  0  0  0  0  0  0  0  0
  -23.4250  -30.5170   21.6250 C   0  0  0  0  0  3  0  0  0  0  0  0
  -24.8700  -28.8900   20.2120 C   0  0  0  0  0  0  0  0  0  0  0  0
  -25.9980  -30.6930   21.4930 C   0  0  0  0  0  2  0  0  0  0  0  0
  -26.0610  -29.2740   20.8400 C   0  0  0  0  0  0  0  0  0  0  0  0
  -27.1920  -28.3250   20.8460 C   0  0  0  0  0  3  0  0  0  0  0  0
  -25.9260  -26.7380   19.5910 C   0  0  0  0  0  3  0  0  0  0  0  0
  -24.8320  -27.6450   19.5650 C   0  0  0  0  0  3  0  0  0  0  0  0
  -23.6580  -29.8260   20.2530 C   0  0  0  0  0  2  0  0  0  0  0  0
  -24.7030  -31.0700   22.1790 N   0  0  0  0  0  0  0  0  0  0  0  0
  -23.5290  -32.2130   23.7750 O   0  0  0  0  0  0  0  0  0  0  0  0
  -22.7170  -29.5330   22.5930 C   0  0  0  0  0  0  0  0  0  0  0  0
  -21.3880  -29.3640   22.4530 N   0  0  0  0  0  0  0  0  0  0  0  0
  -23.3720  -28.9210   23.4410 O   0  0  0  0  0  0  0  0  0  0  0  0
  -20.9130  -29.9080   21.7480 H   0  0  0  0  0  0  0  0  0  0  0  0
  -18.0030  -28.1460   22.9370 C   0  0  0  0  0  0  0  0  0  0  0  0
  -20.5590  -28.4310   23.2250 C   0  0  0  0  0  3  0  0  0  0  0  0
  -20.6740  -26.9930   22.6670 C   0  0  0  0  0  2  0  0  0  0  0  0
  -19.5850  -26.6530   21.6450 C   0  0  0  0  0  2  0  0  0  0  0  0
  -18.1960  -26.7920   22.2720 C   0  0  0  0  0  2  0  0  0  0  0  0
  -19.1110  -28.9210   23.3700 C   0  0  0  0  0  0  0  0  0  0  0  0
  -18.8740  -30.1840   23.9550 C   0  0  0  0  0  3  0  0  0  0  0  0
  -17.5630  -30.6720   24.1090 C   0  0  0  0  0  3  0  0  0  0  0  0
  -16.4690  -29.8950   23.6910 C   0  0  0  0  0  3  0  0  0  0  0  0
  -16.6900  -28.6330   23.1110 C   0  0  0  0  0  3  0  0  0  0  0  0
  -25.8900  -32.5540   23.8970 C   0  0  0  0  0  3  0  0  0  0  0  0
  -25.5830  -33.9620   24.2080 N   0  0  0  0  0  0  0  0  0  0  0  0
  -25.9120  -35.0100   23.4410 C   0  0  0  0  0  0  0  0  0  0  0  0
  -26.5670  -34.8920   22.4030 O   0  0  0  0  0  0  0  0  0  0  0  0
  -24.9980  -34.1260   25.0160 H   0  0  0  0  0  0  0  0  0  0  0  0
  -24.1860  -36.8150   23.1080 C   0  0  0  0  0  1  0  0  0  0  0  0
  -25.4440  -36.4080   23.8940 C   0  0  0  0  0  3  0  0  0  0  0  0
  -27.5950  -37.3030   24.6760 C   0  0  0  0  0  1  0  0  0  0  0  0
  -26.4780  -37.4560   23.7450 N   0  0  0  0  0  0  0  0  0  0  0  0
  -26.0780  -38.3800   23.8810 H   0  0  0  0  0  0  0  0  0  0  0  0
  -26.3720  -31.8070   25.2030 C   0  0  1  0  0  0  0  0  0  0  0  0
  -25.2560  -31.6040   26.2550 C   0  0  0  0  0  1  0  0  0  0  0  0
  -26.9500  -30.4140   24.8630 C   0  0  0  0  0  1  0  0  0  0  0  0
  -27.5180  -32.6040   25.8690 C   0  0  0  0  0  1  0  0  0  0  0  0
  1  2  2  0
  1  3  1  0
  2  8  1  0
  3  7  2  0
  4  5  1  0
  6  2  1  0
  6 17  1  0
  6  4  1  0
  8  7  1  0
  8  5  1  0
  9 17  1  0
 10 15  1  0
 11 12  1  0
 11 10  1  0
 13 12  1  0
 13 22  1  0
 13 14  1  0
 15  9  1  0
 15 14  1  0
 16  9  2  0
 17 18  1  0
 19 20  2  0
 20 39  1  0
 21 20  1  0
 21 24  1  0
 22 23  1  0
 22 19  1  0
 23 21  2  0
 24 25  1  0
 25 26  2  0
 27 30  1  0
 27 26  1  0
 28 27  2  0
 29 28  1  0
 29 24  2  0
 30 31  1  0
 31 32  1  0
 32 33  2  0
 34 33  1  0
 34 38  1  0
 35 34  2  0
 36 31  2  0
 36 35  1  0
 37 36  1  0
 39 40  1  0
 40 43  1  0
 40 42  1  0
 41 39  2  0
 44 45  1  0
 44 19  1  0
 46 44  1  0
 47  3  1  0
 47 48  1  0
 49 60  2  0
 50 48  1  0
 50 55  1  0
 51 59  1  0
 51 61  1  0
 52 58  1  0
 52 54  1  0
 53 59  1  0
 54 55  2  0
 54 53  1  0
 56 50  2  0
 57 56  1  0
 57 52  2  0
 58 51  1  0
 59 49  1  0
 61 63  2  0
 62 61  1  0
 64 62  1  0
 65 74  2  0
 65 70  1  0
 66 62  1  0
 66 70  1  0
 67 66  1  0
 68 69  1  0
 68 67  1  0
 69 65  1  0
 70 71  2  0
 71 72  1  0
 73 72  2  0
 74 73  1  0
 75 49  1  0
 75 76  1  0
 75 85  1  0
 76 79  1  0
 77 81  1  0
 77 76  1  0
 78 77  2  0
 81 80  1  0
 83 84  1  0
 83 81  1  0
 83 82  1  0
 85 88  1  1
 85 86  1  0
 87 85  1  0
M  ISO  4   9 100  17 100  47 101  48 101
M  END
>  <TORSDO>  (16) 
F 17

>  <SCORE>  (16) 
-16.842

>  <name>  (16) 
15

>  <ligand_id>  (16) 
15

>  <original_smiles>  (16) 
[H]c1c([H])c([H])c2c(c1[H])C([H])([H])C([H])([H])C([H])([H])C2([H])N([H])C(=O)C1([H])N(C(=O)C([H])(N([H])C(=O)C([H])(N([H])C([H])([H])[H])C([H])([H])[H])C(C([H])([H])[H])(C([H])([H])[H])C([H])([H])[H])C([H])([H])c2c([H])c(OC([H])([H])c3nn4c(c3[H])C([H])(N([H])C(=O)N3C([H])([H])C([H])([H])C([H])([H])C([H])(n5nc(-c6c([H])c([H])c(Oc7c([H])c([H])c(F)c([H])c7F)c([H])c6[H])c(C(=O)N([H])[H])c5N([H])[H])C3([H])[H])C([H])([H])C4([H])[H])c([H])c([H])c2C1([H])[H]

>  <smiles>  (16) 
[H]c1c([H])c([H])c2c(c1[H])C([H])([H])C([H])([H])C([H])([H])C2([H])N([H])C(=O)C1([H])N(C(=O)C([H])(N([H])C(=O)C([H])(N([H])C([H])([H])[H])C([H])([H])[H])C(C([H])([H])[H])(C([H])([H])[H])C([H])([H])[H])C([H])([H])c2c([H])c(OC([H])([H])c3nn4c(c3[H])C([H])(N([H])C(=O)N3C([H])([H])C([H])([H])C([H])([H])C([H])(n5nc(-c6c([H])c([H])c(Oc7c([H])c([H])c(F)c([H])c7F)c([H])c6[H])c(C(=O)N([H])[H])c5N([H])[H])C3([H])[H])C([H])([H])C4([H])[H])c([H])c([H])c2C1([H])[H]

$$$$
16:0:0
     RDKit          3D

 89 98  0  0  1  0  0  0  0  0999 V2000
  -28.2310  -23.2790   19.0160 C   0  0  0  0  0  2  0  0  0  0  0  0
  -29.3640  -22.6140   19.7910 C   0  0  0  0  0  3  0  0  0  0  0  0
  -28.4220  -24.0980   20.2810 C   0  0  2  0  0  0  0  0  0  0  0  0
  -27.4930  -23.9160   21.4620 C   0  0  0  0  0  1  0  0  0  0  0  0
  -29.5090  -19.4810   19.2390 C   0  0  0  0  0  3  0  0  0  0  0  0
  -29.5370  -20.8200   20.0310 C   0  0  0  0  0  0  0  0  0  0  0  0
  -29.9730  -18.2690   19.9360 C   0  0  0  0  0  0  0  0  0  0  0  0
  -30.5360  -18.2630   22.4180 C   0  0  0  0  0  1  0  0  0  0  0  0
  -29.9930  -20.3090   21.1990 N   0  0  0  0  0  0  0  0  0  0  0  0
  -30.1900  -18.9090   21.1660 N   0  0  0  0  0  0  0  0  0  0  0  0
  -30.7240  -15.4600   19.7640 C   0  0  0  0  0  0  0  0  0  0  0  0
  -30.6520  -12.9620   18.9440 C   0  0  0  0  0  2  0  0  0  0  0  0
  -29.6700  -12.6820   17.7770 C   0  0  0  0  0  2  0  0  0  0  0  0
  -28.2500  -12.4210   18.3120 C   0  0  0  0  0  2  0  0  0  0  0  0
  -27.8580  -13.4340   19.4160 C   0  0  0  0  0  3  0  0  0  0  0  0
  -28.9670  -13.6400   20.4700 C   0  0  0  0  0  2  0  0  0  0  0  0
  -30.1460  -14.1450   19.7440 N   0  0  0  0  0  0  0  0  0  0  0  0
  -31.9490  -15.4140   19.5520 O   0  0  0  0  0  0  0  0  0  0  0  0
  -29.9370  -16.7500   19.7270 N   0  0  0  0  0  0  0  0  0  0  0  0
  -28.9730  -16.4620   19.6780 H   0  0  0  0  0  0  0  0  0  0  0  0
  -25.5760  -14.0660   20.3480 C   0  0  0  0  0  0  0  0  0  0  0  0
  -24.5080  -13.3250   20.7620 C   0  0  0  0  0  0  0  0  0  0  0  0
  -24.9120  -11.9570   20.6680 C   0  0  0  0  0  0  0  0  0  0  0  0
  -26.5590  -13.1550   20.0110 N   0  0  0  0  0  0  0  0  0  0  0  0
  -26.1790  -11.8770   20.2730 N   0  0  0  0  0  0  0  0  0  0  0  0
  -24.1420  -10.7230   20.8730 C   0  0  0  0  0  0  0  0  0  0  0  0
  -24.5450   -9.7500   21.8130 C   0  0  0  0  0  3  0  0  0  0  0  0
  -23.7750   -8.5830   22.0080 C   0  0  0  0  0  3  0  0  0  0  0  0
  -22.5870   -8.3830   21.2620 C   0  0  0  0  0  0  0  0  0  0  0  0
  -22.2040   -9.3450   20.3110 C   0  0  0  0  0  3  0  0  0  0  0  0
  -22.9740  -10.5030   20.1160 C   0  0  0  0  0  3  0  0  0  0  0  0
  -21.7900   -7.2680   21.3670 O   0  0  0  0  0  0  0  0  0  0  0  0
  -21.6640   -6.5780   22.5470 C   0  0  0  0  0  0  0  0  0  0  0  0
  -21.2120   -7.2040   23.7290 C   0  0  0  0  0  3  0  0  0  0  0  0
  -21.0300   -6.4440   24.9020 C   0  0  0  0  0  3  0  0  0  0  0  0
  -21.2920   -5.0620   24.8930 C   0  0  0  0  0  0  0  0  0  0  0  0
  -21.7360   -4.4360   23.7160 C   0  0  0  0  0  3  0  0  0  0  0  0
  -21.9210   -5.1920   22.5450 C   0  0  0  0  0  0  0  0  0  0  0  0
  -22.3290   -4.5820   21.4060 F   0  0  0  0  0  0  0  0  0  0  0  0
  -21.1110   -4.3290   26.0170 F   0  0  0  0  0  0  0  0  0  0  0  0
  -23.1530  -13.8550   21.1300 C   0  0  0  0  0  0  0  0  0  0  0  0
  -22.4590  -13.1830   22.0380 N   0  0  0  0  0  0  0  0  0  0  0  0
  -22.7270  -14.9030   20.6440 O   0  0  0  0  0  0  0  0  0  0  0  0
  -22.8220  -12.3380   22.4550 H   0  0  0  0  0  0  0  0  0  0  0  0
  -21.5510  -13.5200   22.3260 H   0  0  0  0  0  0  0  0  0  0  0  0
  -25.7850  -15.4340   20.1940 N   0  0  0  0  0  0  0  0  0  0  0  0
  -25.0420  -16.1050   20.3520 H   0  0  0  0  0  0  0  0  0  0  0  0
  -26.6180  -15.8550   19.8110 H   0  0  0  0  0  0  0  0  0  0  0  0
  -28.5170  -25.7790   20.0740 O   0  0  0  0  0  0  0  0  0  0  0  0
  -24.6010  -31.6340   23.0230 C   0  0  0  0  0  0  0  0  0  0  0  0
  -27.4430  -26.8460   20.0330 C   0  0  0  0  0  0  0  0  0  0  0  0
  -23.5030  -30.1810   21.3680 C   0  0  0  0  0  3  0  0  0  0  0  0
  -25.0490  -28.6450   19.9640 C   0  0  0  0  0  0  0  0  0  0  0  0
  -26.0610  -30.5040   21.2580 C   0  0  0  0  0  2  0  0  0  0  0  0
  -26.2120  -29.0970   20.5990 C   0  0  0  0  0  0  0  0  0  0  0  0
  -27.4010  -28.2240   20.6000 C   0  0  0  0  0  3  0  0  0  0  0  0
  -26.2380  -26.5580   19.3520 C   0  0  0  0  0  3  0  0  0  0  0  0
  -25.0890  -27.3970   19.3210 C   0  0  0  0  0  3  0  0  0  0  0  0
  -23.7880  -29.5120   19.9950 C   0  0  0  0  0  2  0  0  0  0  0  0
  -24.7430  -30.8030   21.9370 N   0  0  0  0  0  0  0  0  0  0  0  0
  -23.4920  -31.8700   23.5270 O   0  0  0  0  0  0  0  0  0  0  0  0
  -22.8380  -29.1550   22.3260 C   0  0  0  0  0  0  0  0  0  0  0  0
  -21.5130  -28.9510   22.2080 N   0  0  0  0  0  0  0  0  0  0  0  0
  -23.5240  -28.5440   23.1480 O   0  0  0  0  0  0  0  0  0  0  0  0
  -21.0010  -29.5100   21.5400 H   0  0  0  0  0  0  0  0  0  0  0  0
  -18.1820  -27.5970   22.7180 C   0  0  0  0  0  0  0  0  0  0  0  0
  -20.7300  -27.9730   22.9730 C   0  0  0  0  0  3  0  0  0  0  0  0
  -20.8880  -26.5480   22.3910 C   0  0  0  0  0  2  0  0  0  0  0  0
  -19.7990  -26.1860   21.3740 C   0  0  0  0  0  2  0  0  0  0  0  0
  -18.4150  -26.2640   22.0250 C   0  0  0  0  0  2  0  0  0  0  0  0
  -19.2690  -28.4060   23.1490 C   0  0  0  0  0  0  0  0  0  0  0  0
  -18.9970  -29.6460   23.7640 C   0  0  0  0  0  3  0  0  0  0  0  0
  -17.6720  -30.0840   23.9470 C   0  0  0  0  0  3  0  0  0  0  0  0
  -16.5990  -29.2770   23.5270 C   0  0  0  0  0  3  0  0  0  0  0  0
  -16.8550  -28.0340   22.9200 C   0  0  0  0  0  3  0  0  0  0  0  0
  -25.8270  -32.3460   23.6730 C   0  0  0  0  0  3  0  0  0  0  0  0
  -26.3790  -31.5910   24.9480 C   0  0  1  0  0  0  0  0  0  0  0  0
  -25.2960  -31.2770   26.0070 C   0  0  0  0  0  1  0  0  0  0  0  0
  -27.0430  -30.2530   24.5550 C   0  0  0  0  0  1  0  0  0  0  0  0
  -27.4770  -32.4450   25.6260 C   0  0  0  0  0  1  0  0  0  0  0  0
  -25.4220  -33.7180   24.0370 N   0  0  0  0  0  0  0  0  0  0  0  0
  -25.6900  -34.8160   23.3170 C   0  0  0  0  0  0  0  0  0  0  0  0
  -26.3620  -34.7860   22.2840 O   0  0  0  0  0  0  0  0  0  0  0  0
  -24.8220  -33.8130   24.8430 H   0  0  0  0  0  0  0  0  0  0  0  0
  -23.8530  -36.5200   23.0340 C   0  0  0  0  0  1  0  0  0  0  0  0
  -25.1240  -36.1610   23.8210 C   0  0  0  0  0  3  0  0  0  0  0  0
  -27.2060  -37.1610   24.6580 C   0  0  0  0  0  1  0  0  0  0  0  0
  -26.0870  -37.2800   23.7270 N   0  0  0  0  0  0  0  0  0  0  0  0
  -25.6240  -38.1670   23.9020 H   0  0  0  0  0  0  0  0  0  0  0  0
  1  2  1  0
  1  3  1  0
  2  6  1  0
  2  3  1  0
  3  4  1  1
  5  7  2  0
  5  6  1  0
  6  9  2  0
  7 10  1  0
 10  9  1  0
 10  8  1  0
 12 17  1  0
 13 14  1  0
 13 12  1  0
 15 14  1  0
 15 24  1  0
 15 16  1  0
 17 11  1  0
 17 16  1  0
 18 11  2  0
 19 11  1  0
 19  7  1  0
 20 19  1  0
 21 22  2  0
 22 41  1  0
 23 22  1  0
 23 26  1  0
 24 25  1  0
 24 21  1  0
 25 23  2  0
 26 27  1  0
 27 28  2  0
 29 32  1  0
 29 28  1  0
 30 29  2  0
 31 30  1  0
 31 26  2  0
 32 33  1  0
 33 34  1  0
 34 35  2  0
 36 35  1  0
 36 40  1  0
 37 36  2  0
 38 33  2  0
 38 37  1  0
 39 38  1  0
 41 42  1  0
 42 45  1  0
 42 44  1  0
 43 41  2  0
 46 21  1  0
 46 47  1  0
 48 46  1  0
 49  3  1  0
 50 61  2  0
 51 49  1  0
 51 56  1  0
 52 60  1  0
 52 62  1  0
 53 59  1  0
 53 55  1  0
 54 60  1  0
 55 56  2  0
 55 54  1  0
 57 51  2  0
 58 57  1  0
 58 53  2  0
 59 52  1  0
 60 50  1  0
 62 64  2  0
 63 62  1  0
 65 63  1  0
 66 75  2  0
 66 71  1  0
 67 63  1  0
 67 71  1  0
 68 67  1  0
 69 70  1  0
 69 68  1  0
 70 66  1  0
 71 72  2  0
 72 73  1  0
 74 73  2  0
 75 74  1  0
 76 50  1  0
 76 81  1  0
 76 77  1  0
 77 80  1  1
 77 78  1  0
 79 77  1  0
 81 84  1  0
 82 86  1  0
 82 81  1  0
 83 82  2  0
 86 85  1  0
 88 86  1  0
 88 89  1  0
 88 87  1  0
M  ISO  4   3 101  11 100  19 100  49 101
M  END
>  <TORSDO>  (17) 
F 17

>  <SCORE>  (17) 
-15.206

>  <name>  (17) 
16

>  <ligand_id>  (17) 
16

>  <original_smiles>  (17) 
[H]c1c([H])c([H])c2c(c1[H])C([H])([H])C([H])([H])C([H])([H])C2([H])N([H])C(=O)C1([H])N(C(=O)C([H])(N([H])C(=O)C([H])(N([H])C([H])([H])[H])C([H])([H])[H])C(C([H])([H])[H])(C([H])([H])[H])C([H])([H])[H])C([H])([H])c2c([H])c(OC3(C([H])([H])[H])C([H])([H])C3([H])c3nn(C([H])([H])[H])c(N([H])C(=O)N4C([H])([H])C([H])([H])C([H])([H])C([H])(n5nc(-c6c([H])c([H])c(Oc7c([H])c([H])c(F)c([H])c7F)c([H])c6[H])c(C(=O)N([H])[H])c5N([H])[H])C4([H])[H])c3[H])c([H])c([H])c2C1([H])[H]

>  <smiles>  (17) 
[H]c1c([H])c([H])c2c(c1[H])C([H])([H])C([H])([H])C([H])([H])C2([H])N([H])C(=O)C1([H])N(C(=O)C([H])(N([H])C(=O)C([H])(N([H])C([H])([H])[H])C([H])([H])[H])C(C([H])([H])[H])(C([H])([H])[H])C([H])([H])[H])C([H])([H])c2c([H])c(OC3(C([H])([H])[H])C([H])([H])C3([H])c3nn(C([H])([H])[H])c(N([H])C(=O)N4C([H])([H])C([H])([H])C([H])([H])C([H])(n5nc(-c6c([H])c([H])c(Oc7c([H])c([H])c(F)c([H])c7F)c([H])c6[H])c(C(=O)N([H])[H])c5N([H])[H])C4([H])[H])c3[H])c([H])c([H])c2C1([H])[H]

$$$$
17:0:0
     RDKit          3D

 93102  0  0  1  0  0  0  0  0999 V2000
  -30.2940  -21.0480   18.8290 C   0  0  0  0  0  1  0  0  0  0  0  0
  -29.7520  -21.2840   20.2490 C   0  0  0  0  0  3  0  0  0  0  0  0
  -28.7750  -22.4730   20.2480 N   0  0  0  0  0  4  0  0  0  0  0  0
  -28.1190  -22.3140   19.5000 H   0  0  0  0  0  0  0  0  0  0  0  0
  -28.2310  -22.4120   21.0950 H   0  0  0  0  0  0  0  0  0  0  0  0
  -29.2800  -23.9240   20.1180 C   0  0  0  0  0  3  0  0  0  0  0  0
  -28.1750  -25.0740   19.8910 C   0  0  0  0  0  3  0  0  0  0  0  0
  -28.4520  -26.5470   19.9700 O   0  0  0  0  0  0  0  0  0  0  0  0
  -24.6270  -31.8740   23.1010 C   0  0  0  0  0  0  0  0  0  0  0  0
  -27.3340  -27.4110   19.9450 C   0  0  0  0  0  0  0  0  0  0  0  0
  -23.4610  -30.4830   21.4340 C   0  0  0  0  0  3  0  0  0  0  0  0
  -24.9500  -29.0000   19.9880 C   0  0  0  0  0  0  0  0  0  0  0  0
  -25.9980  -30.8560   21.2640 C   0  0  0  0  0  2  0  0  0  0  0  0
  -26.1130  -29.4910   20.5920 C   0  0  0  0  0  0  0  0  0  0  0  0
  -27.3090  -28.7050   20.5690 C   0  0  0  0  0  3  0  0  0  0  0  0
  -26.1390  -26.9930   19.3140 C   0  0  0  0  0  3  0  0  0  0  0  0
  -24.9600  -27.7530   19.3540 C   0  0  0  0  0  3  0  0  0  0  0  0
  -23.7000  -29.8480   20.0430 C   0  0  0  0  0  2  0  0  0  0  0  0
  -24.7150  -31.0850   21.9910 N   0  0  0  0  0  0  0  0  0  0  0  0
  -23.5340  -32.1180   23.6370 O   0  0  0  0  0  0  0  0  0  0  0  0
  -22.8170  -29.4270   22.3700 C   0  0  0  0  0  0  0  0  0  0  0  0
  -21.4930  -29.2330   22.2490 N   0  0  0  0  0  0  0  0  0  0  0  0
  -23.5090  -28.7870   23.1630 O   0  0  0  0  0  0  0  0  0  0  0  0
  -20.9840  -29.8020   21.5870 H   0  0  0  0  0  0  0  0  0  0  0  0
  -18.1390  -27.9710   22.7490 C   0  0  0  0  0  0  0  0  0  0  0  0
  -20.6970  -28.2590   23.0020 C   0  0  0  0  0  3  0  0  0  0  0  0
  -20.8160  -26.8460   22.3860 C   0  0  0  0  0  2  0  0  0  0  0  0
  -19.7090  -26.5360   21.3750 C   0  0  0  0  0  2  0  0  0  0  0  0
  -18.3310  -26.6430   22.0340 C   0  0  0  0  0  2  0  0  0  0  0  0
  -19.2520  -28.7370   23.1900 C   0  0  0  0  0  0  0  0  0  0  0  0
  -19.0190  -29.9800   23.8170 C   0  0  0  0  0  3  0  0  0  0  0  0
  -17.7100  -30.4560   24.0130 C   0  0  0  0  0  3  0  0  0  0  0  0
  -16.6130  -29.6880   23.5860 C   0  0  0  0  0  3  0  0  0  0  0  0
  -16.8290  -28.4480   22.9610 C   0  0  0  0  0  3  0  0  0  0  0  0
  -25.8900  -32.5260   23.7380 C   0  0  0  0  0  3  0  0  0  0  0  0
  -25.5340  -33.8940   24.1380 N   0  0  0  0  0  0  0  0  0  0  0  0
  -25.8160  -34.9930   23.4250 C   0  0  0  0  0  0  0  0  0  0  0  0
  -26.4720  -34.9650   22.3810 O   0  0  0  0  0  0  0  0  0  0  0  0
  -24.9480  -33.9910   24.9550 H   0  0  0  0  0  0  0  0  0  0  0  0
  -24.0140  -36.7330   23.1900 C   0  0  0  0  0  1  0  0  0  0  0  0
  -25.2870  -36.3380   23.9570 C   0  0  0  0  0  3  0  0  0  0  0  0
  -27.4030  -37.2650   24.7910 C   0  0  0  0  0  1  0  0  0  0  0  0
  -26.2750  -37.4370   23.8770 N   0  0  0  0  0  0  0  0  0  0  0  0
  -25.8360  -38.3290   24.0860 H   0  0  0  0  0  0  0  0  0  0  0  0
  -26.4540  -31.7130   24.9670 C   0  0  1  0  0  0  0  0  0  0  0  0
  -25.3820  -31.3850   26.0310 C   0  0  0  0  0  1  0  0  0  0  0  0
  -27.0820  -30.3770   24.5010 C   0  0  0  0  0  1  0  0  0  0  0  0
  -27.5820  -32.5150   25.6570 C   0  0  0  0  0  1  0  0  0  0  0  0
  -29.2250  -19.9310   20.9730 C   0  0  0  0  0  2  0  0  0  0  0  0
  -29.0670  -16.6880   19.1830 C   0  0  0  0  0  3  0  0  0  0  0  0
  -28.7830  -18.0180   19.3420 C   0  0  0  0  0  3  0  0  0  0  0  0
  -29.9910  -16.2650   20.1820 C   0  0  0  0  0  0  0  0  0  0  0  0
  -30.2050  -17.4050   20.9740 C   0  0  0  0  0  0  0  0  0  0  0  0
  -29.4610  -18.5180   20.4440 N   0  0  0  0  0  0  0  0  0  0  0  0
  -30.7300  -14.9030   20.1590 C   0  0  0  0  0  0  0  0  0  0  0  0
  -30.4230  -12.7650   18.9320 C   0  0  0  0  0  2  0  0  0  0  0  0
  -29.3970  -12.9530   17.7940 C   0  0  0  0  0  2  0  0  0  0  0  0
  -27.9650  -12.7280   18.3160 C   0  0  0  0  0  2  0  0  0  0  0  0
  -27.6760  -13.4990   19.6320 C   0  0  0  0  0  3  0  0  0  0  0  0
  -28.8110  -13.3370   20.6590 C   0  0  0  0  0  2  0  0  0  0  0  0
  -30.0730  -13.7100   20.0140 N   0  0  0  0  0  0  0  0  0  0  0  0
  -31.9280  -14.9640   19.8800 O   0  0  0  0  0  0  0  0  0  0  0  0
  -25.3530  -13.9920   20.5880 C   0  0  0  0  0  0  0  0  0  0  0  0
  -24.3180  -13.1730   20.9640 C   0  0  0  0  0  0  0  0  0  0  0  0
  -24.7870  -11.8370   20.7860 C   0  0  0  0  0  0  0  0  0  0  0  0
  -26.3800  -13.1460   20.2040 N   0  0  0  0  0  0  0  0  0  0  0  0
  -26.0530  -11.8400   20.3860 N   0  0  0  0  0  0  0  0  0  0  0  0
  -24.0860  -10.5510   20.9210 C   0  0  0  0  0  0  0  0  0  0  0  0
  -24.5470   -9.5450   21.7990 C   0  0  0  0  0  3  0  0  0  0  0  0
  -23.8470   -8.3250   21.9220 C   0  0  0  0  0  3  0  0  0  0  0  0
  -22.6690   -8.1030   21.1690 C   0  0  0  0  0  0  0  0  0  0  0  0
  -22.2260   -9.1010   20.2820 C   0  0  0  0  0  3  0  0  0  0  0  0
  -22.9250  -10.3110   20.1570 C   0  0  0  0  0  3  0  0  0  0  0  0
  -21.9380   -6.9410   21.2070 O   0  0  0  0  0  0  0  0  0  0  0  0
  -21.8760   -6.1650   22.3360 C   0  0  0  0  0  0  0  0  0  0  0  0
  -21.4190   -6.6810   23.5680 C   0  0  0  0  0  3  0  0  0  0  0  0
  -21.3020   -5.8340   24.6890 C   0  0  0  0  0  3  0  0  0  0  0  0
  -21.6320   -4.4680   24.5770 C   0  0  0  0  0  0  0  0  0  0  0  0
  -22.0760   -3.9510   23.3480 C   0  0  0  0  0  3  0  0  0  0  0  0
  -22.1950   -4.7960   22.2300 C   0  0  0  0  0  0  0  0  0  0  0  0
  -22.6020   -4.2860   21.0430 F   0  0  0  0  0  0  0  0  0  0  0  0
  -21.5190   -3.6520   25.6530 F   0  0  0  0  0  0  0  0  0  0  0  0
  -22.9400  -13.6060   21.3720 C   0  0  0  0  0  0  0  0  0  0  0  0
  -22.2960  -12.8500   22.2580 N   0  0  0  0  0  0  0  0  0  0  0  0
  -22.4400  -14.6450   20.9420 O   0  0  0  0  0  0  0  0  0  0  0  0
  -22.7150  -12.0140   22.6360 H   0  0  0  0  0  0  0  0  0  0  0  0
  -21.3630  -13.1060   22.5490 H   0  0  0  0  0  0  0  0  0  0  0  0
  -25.5080  -15.3730   20.5160 N   0  0  0  0  0  0  0  0  0  0  0  0
  -24.7650  -16.0180   20.7540 H   0  0  0  0  0  0  0  0  0  0  0  0
  -26.3640  -15.8430   20.2340 H   0  0  0  0  0  0  0  0  0  0  0  0
  -30.9830  -16.6340   23.3810 C   0  0  0  0  0  2  0  0  0  0  0  0
  -30.6460  -18.0980   23.5220 C   0  0  0  0  0  2  0  0  0  0  0  0
  -31.1050  -17.5570   22.1770 C   0  0  0  0  0  3  0  0  0  0  0  0
  2  1  1  0
  2 49  1  0
  3  2  1  0
  3  5  1  0
  4  3  1  0
  6  3  1  0
  7  8  1  0
  7  6  2  0
  9 20  2  0
 10  8  1  0
 10 15  1  0
 11 19  1  0
 11 21  1  0
 12 18  1  0
 12 14  1  0
 13 19  1  0
 14 13  1  0
 15 14  2  0
 16 17  1  0
 16 10  2  0
 17 12  2  0
 18 11  1  0
 19  9  1  0
 21 23  2  0
 22 21  1  0
 24 22  1  0
 25 34  2  0
 25 30  1  0
 26 22  1  0
 26 30  1  0
 27 26  1  0
 28 29  1  0
 28 27  1  0
 29 25  1  0
 30 31  2  0
 31 32  1  0
 33 32  2  0
 34 33  1  0
 35  9  1  0
 35 36  1  0
 35 45  1  0
 36 39  1  0
 37 41  1  0
 37 36  1  0
 38 37  2  0
 41 40  1  0
 43 41  1  0
 43 44  1  0
 43 42  1  0
 45 48  1  1
 45 46  1  0
 47 45  1  0
 50 51  2  0
 50 52  1  0
 51 54  1  0
 52 53  2  0
 53 93  1  0
 54 49  1  0
 54 53  1  0
 55 52  1  0
 56 61  1  0
 57 58  1  0
 57 56  1  0
 59 58  1  0
 59 66  1  0
 59 60  1  0
 61 55  1  0
 61 60  1  0
 62 55  2  0
 63 64  2  0
 64 83  1  0
 65 68  1  0
 65 64  1  0
 66 67  1  0
 66 63  1  0
 67 65  2  0
 68 69  1  0
 69 70  2  0
 71 74  1  0
 71 70  1  0
 72 71  2  0
 73 72  1  0
 73 68  2  0
 74 75  1  0
 75 76  1  0
 76 77  2  0
 78 77  1  0
 78 82  1  0
 79 78  2  0
 80 75  2  0
 80 79  1  0
 81 80  1  0
 83 84  1  0
 84 87  1  0
 84 86  1  0
 85 83  2  0
 88 63  1  0
 88 89  1  0
 90 88  1  0
 91 92  1  0
 93 91  1  0
 93 92  1  0
M  ISO  4   7 101   8 101  52 100  55 100
M  END
>  <TORSDO>  (18) 
F 22

>  <SCORE>  (18) 
-11.190

>  <name>  (18) 
17

>  <ligand_id>  (18) 
17

>  <original_smiles>  (18) 
[H]c1c([H])c([H])c2c(c1[H])C([H])([H])C([H])([H])C([H])([H])C2([H])N([H])C(=O)C1([H])N(C(=O)C([H])(N([H])C(=O)C([H])(N([H])C([H])([H])[H])C([H])([H])[H])C(C([H])([H])[H])(C([H])([H])[H])C([H])([H])[H])C([H])([H])c2c([H])c(OC([H])([H])C([H])([H])[N+]([H])([H])C([H])(C([H])([H])[H])C([H])([H])n3c([H])c([H])c(C(=O)N4C([H])([H])C([H])([H])C([H])([H])C([H])(n5nc(-c6c([H])c([H])c(Oc7c([H])c([H])c(F)c([H])c7F)c([H])c6[H])c(C(=O)N([H])[H])c5N([H])[H])C4([H])[H])c3C3([H])C([H])([H])C3([H])[H])c([H])c([H])c2C1([H])[H]

>  <smiles>  (18) 
[H]c1c([H])c([H])c2c(c1[H])C([H])([H])C([H])([H])C([H])([H])C2([H])N([H])C(=O)C1([H])N(C(=O)C([H])(N([H])C(=O)C([H])(N([H])C([H])([H])[H])C([H])([H])[H])C(C([H])([H])[H])(C([H])([H])[H])C([H])([H])[H])C([H])([H])c2c([H])c(OC([H])([H])C([H])([H])[N+]([H])([H])C([H])(C([H])([H])[H])C([H])([H])n3c([H])c([H])c(C(=O)N4C([H])([H])C([H])([H])C([H])([H])C([H])(n5nc(-c6c([H])c([H])c(Oc7c([H])c([H])c(F)c([H])c7F)c([H])c6[H])c(C(=O)N([H])[H])c5N([H])[H])C4([H])[H])c3C3([H])C([H])([H])C3([H])[H])c([H])c([H])c2C1([H])[H]

$$$$
18:0:0
     RDKit          3D

 93102  0  0  1  0  0  0  0  0999 V2000
  -27.3440  -21.1240   19.7120 C   0  0  0  0  0  3  0  0  0  0  0  0
  -26.5740  -22.2600   19.4180 C   0  0  0  0  0  0  0  0  0  0  0  0
  -28.5660  -21.2950   20.3670 C   0  0  0  0  0  0  0  0  0  0  0  0
  -28.1310  -23.6730   20.3700 C   0  0  0  0  0  0  0  0  0  0  0  0
  -25.2110  -22.1370   18.7690 C   0  0  0  0  0  1  0  0  0  0  0  0
  -26.9740  -23.5080   19.7310 N   0  0  0  0  0  0  0  0  0  0  0  0
  -28.9330  -22.5940   20.6960 N   0  0  0  0  0  0  0  0  0  0  0  0
  -29.3760  -20.1370   20.7030 N   0  0  0  0  0  0  0  0  0  0  0  0
  -30.2430  -20.3280   21.1930 H   0  0  0  0  0  0  0  0  0  0  0  0
  -29.3360  -18.4150   18.8490 C   0  0  0  0  0  2  0  0  0  0  0  0
  -30.7330  -17.8860   19.2110 C   0  0  0  0  0  2  0  0  0  0  0  0
  -29.0890  -18.6750   20.3430 C   0  0  0  0  0  3  0  0  0  0  0  0
  -30.1900  -17.4910   20.5970 C   0  0  0  0  0  3  0  0  0  0  0  0
  -30.5350  -14.8500   20.4070 C   0  0  0  0  0  0  0  0  0  0  0  0
  -30.3490  -12.5780   19.3630 C   0  0  0  0  0  2  0  0  0  0  0  0
  -29.4070  -12.6400   18.1410 C   0  0  0  0  0  2  0  0  0  0  0  0
  -27.9380  -12.4560   18.5730 C   0  0  0  0  0  2  0  0  0  0  0  0
  -27.5600  -13.3330   19.7950 C   0  0  0  0  0  3  0  0  0  0  0  0
  -28.6200  -13.2460   20.9140 C   0  0  0  0  0  2  0  0  0  0  0  0
  -29.9070  -13.6240   20.3180 N   0  0  0  0  0  0  0  0  0  0  0  0
  -31.7300  -14.9340   20.1080 O   0  0  0  0  0  0  0  0  0  0  0  0
  -29.7710  -16.0010   20.6180 N   0  0  0  0  0  0  0  0  0  0  0  0
  -28.7930  -15.8350   20.8000 H   0  0  0  0  0  0  0  0  0  0  0  0
  -25.1680  -13.9030   20.5190 C   0  0  0  0  0  0  0  0  0  0  0  0
  -24.1080  -13.1220   20.8890 C   0  0  0  0  0  0  0  0  0  0  0  0
  -24.5790  -11.7750   20.8570 C   0  0  0  0  0  0  0  0  0  0  0  0
  -26.2180  -13.0320   20.2840 N   0  0  0  0  0  0  0  0  0  0  0  0
  -25.8710  -11.7460   20.5520 N   0  0  0  0  0  0  0  0  0  0  0  0
  -23.8590  -10.5070   21.0410 C   0  0  0  0  0  0  0  0  0  0  0  0
  -24.2860   -9.5470   21.9850 C   0  0  0  0  0  3  0  0  0  0  0  0
  -23.5650   -8.3450   22.1570 C   0  0  0  0  0  3  0  0  0  0  0  0
  -22.4050   -8.0960   21.3860 C   0  0  0  0  0  0  0  0  0  0  0  0
  -21.9980   -9.0460   20.4330 C   0  0  0  0  0  3  0  0  0  0  0  0
  -22.7190  -10.2380   20.2580 C   0  0  0  0  0  3  0  0  0  0  0  0
  -21.6590   -6.9450   21.4680 O   0  0  0  0  0  0  0  0  0  0  0  0
  -21.5860   -6.2140   22.6270 C   0  0  0  0  0  0  0  0  0  0  0  0
  -21.1070   -6.7730   23.8320 C   0  0  0  0  0  3  0  0  0  0  0  0
  -20.9840   -5.9670   24.9830 C   0  0  0  0  0  3  0  0  0  0  0  0
  -21.3320   -4.6040   24.9270 C   0  0  0  0  0  0  0  0  0  0  0  0
  -21.8040   -4.0440   23.7260 C   0  0  0  0  0  3  0  0  0  0  0  0
  -21.9280   -4.8470   22.5800 C   0  0  0  0  0  0  0  0  0  0  0  0
  -22.3630   -4.2990   21.4190 F   0  0  0  0  0  0  0  0  0  0  0  0
  -21.2070   -3.8270   26.0280 F   0  0  0  0  0  0  0  0  0  0  0  0
  -22.7070  -13.5920   21.1560 C   0  0  0  0  0  0  0  0  0  0  0  0
  -21.9770  -12.8890   22.0150 N   0  0  0  0  0  0  0  0  0  0  0  0
  -22.2680  -14.6170   20.6370 O   0  0  0  0  0  0  0  0  0  0  0  0
  -22.3450  -12.0610   22.4600 H   0  0  0  0  0  0  0  0  0  0  0  0
  -21.0370  -13.1860   22.2350 H   0  0  0  0  0  0  0  0  0  0  0  0
  -25.3190  -15.2750   20.3340 N   0  0  0  0  0  0  0  0  0  0  0  0
  -24.5310  -15.9110   20.3970 H   0  0  0  0  0  0  0  0  0  0  0  0
  -26.1420  -15.7040   19.9310 H   0  0  0  0  0  0  0  0  0  0  0  0
  -28.3540  -25.1420   20.9880 C   0  0  0  0  0  2  0  0  0  0  0  0
  -28.3410  -26.4380   20.2120 O   0  0  0  0  0  0  0  0  0  0  0  0
  -24.5770  -31.9100   23.2490 C   0  0  0  0  0  0  0  0  0  0  0  0
  -27.2310  -27.3110   20.2440 C   0  0  0  0  0  0  0  0  0  0  0  0
  -23.4020  -30.5090   21.5900 C   0  0  0  0  0  3  0  0  0  0  0  0
  -24.8770  -28.9560   20.1860 C   0  0  0  0  0  0  0  0  0  0  0  0
  -25.9450  -30.8250   21.4440 C   0  0  0  0  0  2  0  0  0  0  0  0
  -26.0390  -29.4390   20.8020 C   0  0  0  0  0  0  0  0  0  0  0  0
  -27.2230  -28.6320   20.8120 C   0  0  0  0  0  3  0  0  0  0  0  0
  -26.0500  -26.8910   19.6050 C   0  0  0  0  0  3  0  0  0  0  0  0
  -24.8890  -27.6910   19.5730 C   0  0  0  0  0  3  0  0  0  0  0  0
  -23.6390  -29.8340   20.2130 C   0  0  0  0  0  2  0  0  0  0  0  0
  -24.6600  -31.1000   22.1510 N   0  0  0  0  0  0  0  0  0  0  0  0
  -23.4860  -32.1820   23.7730 O   0  0  0  0  0  0  0  0  0  0  0  0
  -22.7290  -29.4900   22.5410 C   0  0  0  0  0  0  0  0  0  0  0  0
  -21.4070  -29.3010   22.3920 N   0  0  0  0  0  0  0  0  0  0  0  0
  -23.3970  -28.8710   23.3730 O   0  0  0  0  0  0  0  0  0  0  0  0
  -20.9260  -29.8530   21.6960 H   0  0  0  0  0  0  0  0  0  0  0  0
  -18.0310  -28.0700   22.8320 C   0  0  0  0  0  0  0  0  0  0  0  0
  -20.5820  -28.3560   23.1470 C   0  0  0  0  0  3  0  0  0  0  0  0
  -20.7090  -26.9250   22.5750 C   0  0  0  0  0  2  0  0  0  0  0  0
  -19.6290  -26.5910   21.5410 C   0  0  0  0  0  2  0  0  0  0  0  0
  -18.2340  -26.7230   22.1600 C   0  0  0  0  0  2  0  0  0  0  0  0
  -19.1350  -28.8430   23.2820 C   0  0  0  0  0  0  0  0  0  0  0  0
  -18.8930  -30.1040   23.8700 C   0  0  0  0  0  3  0  0  0  0  0  0
  -17.5800  -30.5920   24.0140 C   0  0  0  0  0  3  0  0  0  0  0  0
  -16.4910  -29.8160   23.5810 C   0  0  0  0  0  3  0  0  0  0  0  0
  -16.7170  -28.5570   22.9960 C   0  0  0  0  0  3  0  0  0  0  0  0
  -25.8480  -32.5470   23.8930 C   0  0  0  0  0  3  0  0  0  0  0  0
  -25.5380  -33.9510   24.2010 N   0  0  0  0  0  0  0  0  0  0  0  0
  -25.8890  -34.9950   23.4380 C   0  0  0  0  0  0  0  0  0  0  0  0
  -26.5790  -34.8770   22.4210 O   0  0  0  0  0  0  0  0  0  0  0  0
  -24.9300  -34.1140   24.9890 H   0  0  0  0  0  0  0  0  0  0  0  0
  -24.1810  -36.7960   23.0230 C   0  0  0  0  0  1  0  0  0  0  0  0
  -25.3990  -36.3910   23.8700 C   0  0  0  0  0  3  0  0  0  0  0  0
  -27.5150  -37.2750   24.7500 C   0  0  0  0  0  1  0  0  0  0  0  0
  -26.4410  -37.4370   23.7730 N   0  0  0  0  0  0  0  0  0  0  0  0
  -26.0370  -38.3610   23.8990 H   0  0  0  0  0  0  0  0  0  0  0  0
  -26.3340  -31.7910   25.1920 C   0  0  1  0  0  0  0  0  0  0  0  0
  -25.2160  -31.5740   26.2380 C   0  0  0  0  0  1  0  0  0  0  0  0
  -26.9200  -30.4040   24.8350 C   0  0  0  0  0  1  0  0  0  0  0  0
  -27.4730  -32.5900   25.8680 C   0  0  0  0  0  1  0  0  0  0  0  0
  1  3  1  0
  2  1  2  0
  2  6  1  0
  3  7  2  0
  3  8  1  0
  4  7  1  0
  4 52  1  0
  5  2  1  0
  6  4  2  0
  8  9  1  0
 10 11  1  0
 10 12  1  0
 11 13  1  0
 12 13  1  0
 12  8  1  0
 13 22  1  0
 14 22  1  0
 15 20  1  0
 16 17  1  0
 16 15  1  0
 18 17  1  0
 18 27  1  0
 18 19  1  0
 20 14  1  0
 20 19  1  0
 21 14  2  0
 22 23  1  0
 24 25  2  0
 25 44  1  0
 26 25  1  0
 26 29  1  0
 27 24  1  0
 27 28  1  0
 28 26  2  0
 29 30  1  0
 30 31  2  0
 32 35  1  0
 32 31  1  0
 33 32  2  0
 34 33  1  0
 34 29  2  0
 35 36  1  0
 36 37  1  0
 37 38  2  0
 39 38  1  0
 39 43  1  0
 40 39  2  0
 41 36  2  0
 41 40  1  0
 42 41  1  0
 44 45  1  0
 45 48  1  0
 45 47  1  0
 46 44  2  0
 49 50  1  0
 49 24  1  0
 51 49  1  0
 53 55  1  0
 53 52  1  0
 54 65  2  0
 55 60  1  0
 56 64  1  0
 56 66  1  0
 57 63  1  0
 57 59  1  0
 58 64  1  0
 59 60  2  0
 59 58  1  0
 61 55  2  0
 62 61  1  0
 62 57  2  0
 63 56  1  0
 64 54  1  0
 66 68  2  0
 67 66  1  0
 69 67  1  0
 70 79  2  0
 70 75  1  0
 71 67  1  0
 71 75  1  0
 72 71  1  0
 73 74  1  0
 73 72  1  0
 74 70  1  0
 75 76  2  0
 76 77  1  0
 78 77  2  0
 79 78  1  0
 80 54  1  0
 80 81  1  0
 80 90  1  0
 81 84  1  0
 82 86  1  0
 82 81  1  0
 83 82  2  0
 86 85  1  0
 88 86  1  0
 88 89  1  0
 88 87  1  0
 90 93  1  1
 90 91  1  0
 92 90  1  0
M  ISO  4  14 100  22 100  52 101  53 101
M  END
>  <TORSDO>  (19) 
F 18

>  <SCORE>  (19) 
-14.677

>  <name>  (19) 
18

>  <ligand_id>  (19) 
18

>  <original_smiles>  (19) 
[H]c1c(N([H])C2([H])C([H])([H])C([H])([H])C2([H])N([H])C(=O)N2C([H])([H])C([H])([H])C([H])([H])C([H])(n3nc(-c4c([H])c([H])c(Oc5c([H])c([H])c(F)c([H])c5F)c([H])c4[H])c(C(=O)N([H])[H])c3N([H])[H])C2([H])[H])nc(C([H])([H])Oc2c([H])c([H])c3c(c2[H])C([H])([H])N(C(=O)C([H])(N([H])C(=O)C([H])(N([H])C([H])([H])[H])C([H])([H])[H])C(C([H])([H])[H])(C([H])([H])[H])C([H])([H])[H])C([H])(C(=O)N([H])C2([H])c4c([H])c([H])c([H])c([H])c4C([H])([H])C([H])([H])C2([H])[H])C3([H])[H])nc1C([H])([H])[H]

>  <smiles>  (19) 
[H]c1c(N([H])C2([H])C([H])([H])C([H])([H])C2([H])N([H])C(=O)N2C([H])([H])C([H])([H])C([H])([H])C([H])(n3nc(-c4c([H])c([H])c(Oc5c([H])c([H])c(F)c([H])c5F)c([H])c4[H])c(C(=O)N([H])[H])c3N([H])[H])C2([H])[H])nc(C([H])([H])Oc2c([H])c([H])c3c(c2[H])C([H])([H])N(C(=O)C([H])(N([H])C(=O)C([H])(N([H])C([H])([H])[H])C([H])([H])[H])C(C([H])([H])[H])(C([H])([H])[H])C([H])([H])[H])C([H])(C(=O)N([H])C2([H])c4c([H])c([H])c([H])c([H])c4C([H])([H])C([H])([H])C2([H])[H])C3([H])[H])nc1C([H])([H])[H]

$$$$
19:0:0
     RDKit          3D

 90 99  0  0  1  0  0  0  0  0999 V2000
  -29.3230  -19.7610   20.1880 C   0  0  0  0  0  0  0  0  0  0  0  0
  -29.7250  -20.7530   21.1250 C   0  0  0  0  0  0  0  0  0  0  0  0
  -28.5170  -20.4810   19.2270 C   0  0  0  0  0  0  0  0  0  0  0  0
  -28.5950  -22.7720   20.2450 C   0  0  0  0  0  0  0  0  0  0  0  0
  -30.7090  -20.0920   22.0670 C   0  0  0  0  0  2  0  0  0  0  0  0
  -30.8030  -18.5580   21.6930 C   0  0  0  0  0  2  0  0  0  0  0  0
  -30.1130  -18.2380   20.3290 C   0  0  0  0  0  3  0  0  0  0  0  0
  -27.9920  -19.7490   18.0120 C   0  0  0  0  0  1  0  0  0  0  0  0
  -29.3790  -22.1350   21.1910 N   0  0  0  0  0  0  0  0  0  0  0  0
  -28.1790  -21.8610   19.2920 N   0  0  0  0  0  0  0  0  0  0  0  0
  -30.4820  -15.3380   20.1620 C   0  0  0  0  0  0  0  0  0  0  0  0
  -30.4260  -12.8990   19.2880 C   0  0  0  0  0  2  0  0  0  0  0  0
  -29.4730  -12.6900   18.0860 C   0  0  0  0  0  2  0  0  0  0  0  0
  -28.0370  -12.4180   18.5700 C   0  0  0  0  0  2  0  0  0  0  0  0
  -27.6150  -13.3810   19.7090 C   0  0  0  0  0  3  0  0  0  0  0  0
  -28.6970  -13.5370   20.7990 C   0  0  0  0  0  2  0  0  0  0  0  0
  -29.9040  -14.0410   20.1220 N   0  0  0  0  0  0  0  0  0  0  0  0
  -31.6970  -15.3310   19.9260 O   0  0  0  0  0  0  0  0  0  0  0  0
  -29.7350  -16.6170   20.2690 N   0  0  0  0  0  0  0  0  0  0  0  0
  -28.7470  -16.4430   20.3760 H   0  0  0  0  0  0  0  0  0  0  0  0
  -25.2720  -13.9240   20.5550 C   0  0  0  0  0  0  0  0  0  0  0  0
  -24.2230  -13.1400   20.9460 C   0  0  0  0  0  0  0  0  0  0  0  0
  -24.6900  -11.7900   20.8740 C   0  0  0  0  0  0  0  0  0  0  0  0
  -26.3060  -13.0540   20.2590 N   0  0  0  0  0  0  0  0  0  0  0  0
  -25.9700  -11.7630   20.5190 N   0  0  0  0  0  0  0  0  0  0  0  0
  -23.9680  -10.5240   21.0610 C   0  0  0  0  0  0  0  0  0  0  0  0
  -24.4130   -9.5480   21.9800 C   0  0  0  0  0  3  0  0  0  0  0  0
  -23.6890   -8.3500   22.1580 C   0  0  0  0  0  3  0  0  0  0  0  0
  -22.5050   -8.1190   21.4180 C   0  0  0  0  0  0  0  0  0  0  0  0
  -22.0780   -9.0830   20.4890 C   0  0  0  0  0  3  0  0  0  0  0  0
  -22.8040  -10.2720   20.3080 C   0  0  0  0  0  3  0  0  0  0  0  0
  -21.7510   -6.9730   21.5060 O   0  0  0  0  0  0  0  0  0  0  0  0
  -21.6980   -6.2330   22.6600 C   0  0  0  0  0  0  0  0  0  0  0  0
  -21.2260   -6.7790   23.8740 C   0  0  0  0  0  3  0  0  0  0  0  0
  -21.1240   -5.9630   25.0190 C   0  0  0  0  0  3  0  0  0  0  0  0
  -21.4830   -4.6040   24.9510 C   0  0  0  0  0  0  0  0  0  0  0  0
  -21.9490   -4.0580   23.7420 C   0  0  0  0  0  3  0  0  0  0  0  0
  -22.0530   -4.8700   22.5990 C   0  0  0  0  0  0  0  0  0  0  0  0
  -22.4810   -4.3340   21.4310 F   0  0  0  0  0  0  0  0  0  0  0  0
  -21.3790   -3.8180   26.0480 F   0  0  0  0  0  0  0  0  0  0  0  0
  -22.8360  -13.6110   21.2670 C   0  0  0  0  0  0  0  0  0  0  0  0
  -22.1370  -12.9050   22.1470 N   0  0  0  0  0  0  0  0  0  0  0  0
  -22.3820  -14.6420   20.7720 O   0  0  0  0  0  0  0  0  0  0  0  0
  -22.5170  -12.0700   22.5680 H   0  0  0  0  0  0  0  0  0  0  0  0
  -21.2070  -13.2030   22.4050 H   0  0  0  0  0  0  0  0  0  0  0  0
  -25.4260  -15.2980   20.3950 N   0  0  0  0  0  0  0  0  0  0  0  0
  -24.6530  -15.9430   20.5260 H   0  0  0  0  0  0  0  0  0  0  0  0
  -26.2460  -15.7390   20.0000 H   0  0  0  0  0  0  0  0  0  0  0  0
  -27.8000  -24.3310   20.3950 C   0  0  0  0  0  2  0  0  0  0  0  0
  -28.1980  -25.9270   20.3640 O   0  0  0  0  0  0  0  0  0  0  0  0
  -24.6420  -31.9400   23.2610 C   0  0  0  0  0  0  0  0  0  0  0  0
  -27.2020  -27.0360   20.3030 C   0  0  0  0  0  0  0  0  0  0  0  0
  -23.4550  -30.5320   21.6290 C   0  0  0  0  0  3  0  0  0  0  0  0
  -24.9080  -28.9200   20.2300 C   0  0  0  0  0  0  0  0  0  0  0  0
  -26.0240  -30.7390   21.4960 C   0  0  0  0  0  2  0  0  0  0  0  0
  -26.0950  -29.3250   20.8520 C   0  0  0  0  0  0  0  0  0  0  0  0
  -27.2380  -28.4050   20.8640 C   0  0  0  0  0  3  0  0  0  0  0  0
  -25.9830  -26.7860   19.6280 C   0  0  0  0  0  3  0  0  0  0  0  0
  -24.8770  -27.6690   19.5970 C   0  0  0  0  0  3  0  0  0  0  0  0
  -23.6900  -29.8400   20.2600 C   0  0  0  0  0  2  0  0  0  0  0  0
  -24.7280  -31.0980   22.1810 N   0  0  0  0  0  0  0  0  0  0  0  0
  -23.5500  -32.2350   23.7730 O   0  0  0  0  0  0  0  0  0  0  0  0
  -22.7530  -29.5450   22.5980 C   0  0  0  0  0  0  0  0  0  0  0  0
  -21.4270  -29.3670   22.4530 N   0  0  0  0  0  0  0  0  0  0  0  0
  -23.4090  -28.9400   23.4490 O   0  0  0  0  0  0  0  0  0  0  0  0
  -20.9500  -29.9040   21.7420 H   0  0  0  0  0  0  0  0  0  0  0  0
  -18.0460  -28.1330   22.9200 C   0  0  0  0  0  0  0  0  0  0  0  0
  -20.5980  -28.4350   23.2260 C   0  0  0  0  0  3  0  0  0  0  0  0
  -20.7270  -26.9930   22.6830 C   0  0  0  0  0  2  0  0  0  0  0  0
  -19.6480  -26.6380   21.6540 C   0  0  0  0  0  2  0  0  0  0  0  0
  -18.2520  -26.7750   22.2700 C   0  0  0  0  0  2  0  0  0  0  0  0
  -19.1470  -28.9190   23.3540 C   0  0  0  0  0  0  0  0  0  0  0  0
  -18.8980  -30.1860   23.9250 C   0  0  0  0  0  3  0  0  0  0  0  0
  -17.5840  -30.6690   24.0630 C   0  0  0  0  0  3  0  0  0  0  0  0
  -16.4980  -29.8820   23.6430 C   0  0  0  0  0  3  0  0  0  0  0  0
  -16.7290  -28.6140   23.0780 C   0  0  0  0  0  3  0  0  0  0  0  0
  -25.9110  -32.5850   23.8960 C   0  0  0  0  0  3  0  0  0  0  0  0
  -25.5930  -33.9870   24.2170 N   0  0  0  0  0  0  0  0  0  0  0  0
  -25.9030  -35.0410   23.4500 C   0  0  0  0  0  0  0  0  0  0  0  0
  -26.5500  -34.9340   22.4050 O   0  0  0  0  0  0  0  0  0  0  0  0
  -25.0160  -34.1420   25.0300 H   0  0  0  0  0  0  0  0  0  0  0  0
  -24.1500  -36.8230   23.1420 C   0  0  0  0  0  1  0  0  0  0  0  0
  -25.4230  -36.4320   23.9120 C   0  0  0  0  0  3  0  0  0  0  0  0
  -27.5720  -37.3480   24.6680 C   0  0  0  0  0  1  0  0  0  0  0  0
  -26.4430  -37.4920   23.7520 N   0  0  0  0  0  0  0  0  0  0  0  0
  -26.0330  -38.4100   23.8970 H   0  0  0  0  0  0  0  0  0  0  0  0
  -26.4060  -31.8300   25.1910 C   0  0  1  0  0  0  0  0  0  0  0  0
  -25.2950  -31.6090   26.2460 C   0  0  0  0  0  1  0  0  0  0  0  0
  -26.9940  -30.4470   24.8350 C   0  0  0  0  0  1  0  0  0  0  0  0
  -27.5470  -32.6320   25.8610 C   0  0  0  0  0  1  0  0  0  0  0  0
  1  7  1  0
  1  2  2  0
  2  9  1  0
  2  5  1  0
  3 10  2  0
  3  1  1  0
  4 49  1  0
  4  9  2  0
  6  5  1  0
  7 19  1  0
  7  6  1  0
  8  3  1  0
 10  4  1  0
 11 19  1  0
 12 17  1  0
 13 14  1  0
 13 12  1  0
 15 14  1  0
 15 24  1  0
 15 16  1  0
 17 11  1  0
 17 16  1  0
 18 11  2  0
 19 20  1  0
 21 22  2  0
 22 41  1  0
 23 22  1  0
 23 26  1  0
 24 25  1  0
 24 21  1  0
 25 23  2  0
 26 27  1  0
 27 28  2  0
 29 32  1  0
 29 28  1  0
 30 29  2  0
 31 30  1  0
 31 26  2  0
 32 33  1  0
 33 34  1  0
 34 35  2  0
 36 35  1  0
 36 40  1  0
 37 36  2  0
 38 33  2  0
 38 37  1  0
 39 38  1  0
 41 42  1  0
 42 45  1  0
 42 44  1  0
 43 41  2  0
 46 47  1  0
 46 21  1  0
 48 46  1  0
 50 49  1  0
 51 62  2  0
 52 50  1  0
 52 57  1  0
 53 61  1  0
 53 63  1  0
 54 60  1  0
 54 56  1  0
 55 61  1  0
 56 57  2  0
 56 55  1  0
 58 52  2  0
 59 58  1  0
 59 54  2  0
 60 53  1  0
 61 51  1  0
 63 65  2  0
 64 63  1  0
 66 64  1  0
 67 76  2  0
 67 72  1  0
 68 64  1  0
 68 72  1  0
 69 68  1  0
 70 71  1  0
 70 69  1  0
 71 67  1  0
 72 73  2  0
 73 74  1  0
 75 74  2  0
 76 75  1  0
 77 51  1  0
 77 78  1  0
 77 87  1  0
 78 81  1  0
 79 83  1  0
 79 78  1  0
 80 79  2  0
 83 82  1  0
 85 86  1  0
 85 83  1  0
 85 84  1  0
 87 90  1  1
 87 88  1  0
 89 87  1  0
M  ISO  4  11 100  19 100  49 101  50 101
M  END
>  <TORSDO>  (20) 
F 17

>  <SCORE>  (20) 
-15.943

>  <name>  (20) 
19

>  <ligand_id>  (20) 
19

>  <original_smiles>  (20) 
[H]c1c([H])c([H])c2c(c1[H])C([H])([H])C([H])([H])C([H])([H])C2([H])N([H])C(=O)C1([H])N(C(=O)C([H])(N([H])C(=O)C([H])(N([H])C([H])([H])[H])C([H])([H])[H])C(C([H])([H])[H])(C([H])([H])[H])C([H])([H])[H])C([H])([H])c2c([H])c(OC([H])([H])c3nc(C([H])([H])[H])c4c(n3)C([H])([H])C([H])([H])C4([H])N([H])C(=O)N3C([H])([H])C([H])([H])C([H])([H])C([H])(n4nc(-c5c([H])c([H])c(Oc6c([H])c([H])c(F)c([H])c6F)c([H])c5[H])c(C(=O)N([H])[H])c4N([H])[H])C3([H])[H])c([H])c([H])c2C1([H])[H]

>  <smiles>  (20) 
[H]c1c([H])c([H])c2c(c1[H])C([H])([H])C([H])([H])C([H])([H])C2([H])N([H])C(=O)C1([H])N(C(=O)C([H])(N([H])C(=O)C([H])(N([H])C([H])([H])[H])C([H])([H])[H])C(C([H])([H])[H])(C([H])([H])[H])C([H])([H])[H])C([H])([H])c2c([H])c(OC([H])([H])c3nc(C([H])([H])[H])c4c(n3)C([H])([H])C([H])([H])C4([H])N([H])C(=O)N3C([H])([H])C([H])([H])C([H])([H])C([H])(n4nc(-c5c([H])c([H])c(Oc6c([H])c([H])c(F)c([H])c6F)c([H])c5[H])c(C(=O)N([H])[H])c4N([H])[H])C3([H])[H])c([H])c([H])c2C1([H])[H]

$$$$
20:0:0
     RDKit          3D

 94102  0  0  1  0  0  0  0  0999 V2000
  -30.0090  -20.1010   21.6410 C   0  0  0  0  0  0  0  0  0  0  0  0
  -28.9810  -19.0130   19.8010 C   0  0  0  0  0  2  0  0  0  0  0  0
  -29.4370  -20.5300   20.2710 C   0  0  0  0  0  3  0  0  0  0  0  0
  -30.2130  -18.5320   21.7630 C   0  0  0  0  0  3  0  0  0  0  0  0
  -29.9930  -17.8410   20.3750 C   0  0  0  0  0  3  0  0  0  0  0  0
  -30.2890  -20.8930   22.5470 O   0  0  0  0  0  0  0  0  0  0  0  0
  -30.4610  -15.0840   20.2500 C   0  0  0  0  0  0  0  0  0  0  0  0
  -30.3480  -12.7300   19.3000 C   0  0  0  0  0  2  0  0  0  0  0  0
  -29.3960  -12.6650   18.0810 C   0  0  0  0  0  2  0  0  0  0  0  0
  -27.9430  -12.4370   18.5380 C   0  0  0  0  0  2  0  0  0  0  0  0
  -27.5430  -13.3640   19.7140 C   0  0  0  0  0  3  0  0  0  0  0  0
  -28.6130  -13.3940   20.8260 C   0  0  0  0  0  2  0  0  0  0  0  0
  -29.8700  -13.8210   20.1990 N   0  0  0  0  0  0  0  0  0  0  0  0
  -31.6610  -15.1520   19.9650 O   0  0  0  0  0  0  0  0  0  0  0  0
  -29.6830  -16.2710   20.4220 N   0  0  0  0  0  0  0  0  0  0  0  0
  -28.7110  -16.0600   20.5960 H   0  0  0  0  0  0  0  0  0  0  0  0
  -25.1740  -13.9260   20.4980 C   0  0  0  0  0  0  0  0  0  0  0  0
  -24.1180  -13.1440   20.8760 C   0  0  0  0  0  0  0  0  0  0  0  0
  -24.5860  -11.7950   20.8230 C   0  0  0  0  0  0  0  0  0  0  0  0
  -26.2150  -13.0550   20.2320 N   0  0  0  0  0  0  0  0  0  0  0  0
  -25.8730  -11.7670   20.4950 N   0  0  0  0  0  0  0  0  0  0  0  0
  -23.8660  -10.5280   21.0080 C   0  0  0  0  0  0  0  0  0  0  0  0
  -24.2930   -9.5670   21.9500 C   0  0  0  0  0  3  0  0  0  0  0  0
  -23.5710   -8.3660   22.1230 C   0  0  0  0  0  3  0  0  0  0  0  0
  -22.4090   -8.1180   21.3550 C   0  0  0  0  0  0  0  0  0  0  0  0
  -22.0010   -9.0680   20.4030 C   0  0  0  0  0  3  0  0  0  0  0  0
  -22.7230  -10.2610   20.2280 C   0  0  0  0  0  3  0  0  0  0  0  0
  -21.6590   -6.9700   21.4390 O   0  0  0  0  0  0  0  0  0  0  0  0
  -21.5710   -6.2500   22.6030 C   0  0  0  0  0  0  0  0  0  0  0  0
  -21.0740   -6.8200   23.7960 C   0  0  0  0  0  3  0  0  0  0  0  0
  -20.9370   -6.0240   24.9510 C   0  0  0  0  0  3  0  0  0  0  0  0
  -21.2870   -4.6620   24.9140 C   0  0  0  0  0  0  0  0  0  0  0  0
  -21.7770   -4.0920   23.7270 C   0  0  0  0  0  3  0  0  0  0  0  0
  -21.9160   -4.8840   22.5730 C   0  0  0  0  0  0  0  0  0  0  0  0
  -22.3690   -4.3250   21.4250 F   0  0  0  0  0  0  0  0  0  0  0  0
  -21.1470   -3.8960   26.0220 F   0  0  0  0  0  0  0  0  0  0  0  0
  -22.7230  -13.6140   21.1690 C   0  0  0  0  0  0  0  0  0  0  0  0
  -22.0070  -12.9040   22.0320 N   0  0  0  0  0  0  0  0  0  0  0  0
  -22.2790  -14.6470   20.6680 O   0  0  0  0  0  0  0  0  0  0  0  0
  -22.3810  -12.0690   22.4580 H   0  0  0  0  0  0  0  0  0  0  0  0
  -21.0710  -13.1990   22.2730 H   0  0  0  0  0  0  0  0  0  0  0  0
  -25.3290  -15.3000   20.3300 N   0  0  0  0  0  0  0  0  0  0  0  0
  -24.5480  -15.9400   20.4340 H   0  0  0  0  0  0  0  0  0  0  0  0
  -26.1470  -15.7370   19.9270 H   0  0  0  0  0  0  0  0  0  0  0  0
  -31.5300  -18.2720   22.3670 N   0  0  0  0  0  4  0  0  0  0  0  0
  -32.2730  -18.5970   21.7760 H   0  0  0  0  0  0  0  0  0  0  0  0
  -31.6550  -17.2930   22.5490 H   0  0  0  0  0  0  0  0  0  0  0  0
  -31.5870  -18.7710   23.2380 H   0  0  0  0  0  0  0  0  0  0  0  0
  -28.4850  -21.8220   20.3160 N   0  0  0  0  0  4  0  0  0  0  0  0
  -27.8680  -21.6930   21.1030 H   0  0  0  0  0  0  0  0  0  0  0  0
  -27.9060  -21.7380   19.4970 H   0  0  0  0  0  0  0  0  0  0  0  0
  -28.9540  -23.3560   20.3380 C   0  0  0  0  0  3  0  0  0  0  0  0
  -27.8970  -24.6790   20.1580 C   0  0  0  0  0  3  0  0  0  0  0  0
  -28.1920  -26.2230   20.2500 O   0  0  0  0  0  0  0  0  0  0  0  0
  -24.6260  -31.9640   23.2470 C   0  0  0  0  0  0  0  0  0  0  0  0
  -27.1450  -27.2230   20.1930 C   0  0  0  0  0  0  0  0  0  0  0  0
  -23.4040  -30.5800   21.6160 C   0  0  0  0  0  3  0  0  0  0  0  0
  -24.8310  -28.9970   20.1780 C   0  0  0  0  0  0  0  0  0  0  0  0
  -25.9600  -30.8260   21.4310 C   0  0  0  0  0  2  0  0  0  0  0  0
  -26.0200  -29.4320   20.7780 C   0  0  0  0  0  0  0  0  0  0  0  0
  -27.1780  -28.5630   20.7650 C   0  0  0  0  0  3  0  0  0  0  0  0
  -25.9280  -26.8980   19.5540 C   0  0  0  0  0  3  0  0  0  0  0  0
  -24.7990  -27.7440   19.5490 C   0  0  0  0  0  3  0  0  0  0  0  0
  -23.6110  -29.9040   20.2340 C   0  0  0  0  0  2  0  0  0  0  0  0
  -24.6840  -31.1460   22.1520 N   0  0  0  0  0  0  0  0  0  0  0  0
  -23.5460  -32.2540   23.7840 O   0  0  0  0  0  0  0  0  0  0  0  0
  -22.7260  -29.5750   22.5820 C   0  0  0  0  0  0  0  0  0  0  0  0
  -21.3990  -29.4000   22.4550 N   0  0  0  0  0  0  0  0  0  0  0  0
  -23.3980  -28.9560   23.4110 O   0  0  0  0  0  0  0  0  0  0  0  0
  -20.9130  -29.9510   21.7610 H   0  0  0  0  0  0  0  0  0  0  0  0
  -18.0210  -28.1860   22.9560 C   0  0  0  0  0  0  0  0  0  0  0  0
  -20.5780  -28.4640   23.2290 C   0  0  0  0  0  3  0  0  0  0  0  0
  -20.6880  -27.0280   22.6670 C   0  0  0  0  0  2  0  0  0  0  0  0
  -19.5920  -26.6910   21.6520 C   0  0  0  0  0  2  0  0  0  0  0  0
  -18.2070  -26.8330   22.2890 C   0  0  0  0  0  2  0  0  0  0  0  0
  -19.1350  -28.9580   23.3820 C   0  0  0  0  0  0  0  0  0  0  0  0
  -18.9050  -30.2230   23.9670 C   0  0  0  0  0  3  0  0  0  0  0  0
  -17.5960  -30.7160   24.1280 C   0  0  0  0  0  3  0  0  0  0  0  0
  -16.4980  -29.9420   23.7160 C   0  0  0  0  0  3  0  0  0  0  0  0
  -16.7110  -28.6790   23.1350 C   0  0  0  0  0  3  0  0  0  0  0  0
  -25.9120  -32.5920   23.8650 C   0  0  0  0  0  3  0  0  0  0  0  0
  -26.4300  -31.8170   25.1390 C   0  0  1  0  0  0  0  0  0  0  0  0
  -25.3380  -31.5780   26.2100 C   0  0  0  0  0  1  0  0  0  0  0  0
  -27.0100  -30.4380   24.7480 C   0  0  0  0  0  1  0  0  0  0  0  0
  -27.5850  -32.6060   25.7990 C   0  0  0  0  0  1  0  0  0  0  0  0
  -25.6100  -33.9910   24.2040 N   0  0  0  0  0  0  0  0  0  0  0  0
  -25.9170  -35.0480   23.4400 C   0  0  0  0  0  0  0  0  0  0  0  0
  -26.5520  -34.9470   22.3870 O   0  0  0  0  0  0  0  0  0  0  0  0
  -25.0430  -34.1440   25.0260 H   0  0  0  0  0  0  0  0  0  0  0  0
  -24.1680  -36.8380   23.1670 C   0  0  0  0  0  1  0  0  0  0  0  0
  -25.4470  -36.4360   23.9190 C   0  0  0  0  0  3  0  0  0  0  0  0
  -27.6120  -37.3350   24.6520 C   0  0  0  0  0  1  0  0  0  0  0  0
  -26.4700  -37.4930   23.7560 N   0  0  0  0  0  0  0  0  0  0  0  0
  -26.0670  -38.4120   23.9170 H   0  0  0  0  0  0  0  0  0  0  0  0
  1  4  1  0
  1  6  2  0
  2  3  1  0
  2  5  1  0
  3 49  1  0
  3  1  1  0
  4 45  1  0
  5 15  1  0
  5  4  1  0
  7 15  1  0
  8 13  1  0
  9 10  1  0
  9  8  1  0
 11 10  1  0
 11 20  1  0
 11 12  1  0
 13  7  1  0
 13 12  1  0
 14  7  2  0
 15 16  1  0
 17 18  2  0
 18 37  1  0
 19 18  1  0
 19 22  1  0
 20 21  1  0
 20 17  1  0
 21 19  2  0
 22 23  1  0
 23 24  2  0
 25 28  1  0
 25 24  1  0
 26 25  2  0
 27 26  1  0
 27 22  2  0
 28 29  1  0
 29 30  1  0
 30 31  2  0
 32 31  1  0
 32 36  1  0
 33 32  2  0
 34 29  2  0
 34 33  1  0
 35 34  1  0
 37 38  1  0
 38 41  1  0
 38 40  1  0
 39 37  2  0
 42 43  1  0
 42 17  1  0
 44 42  1  0
 45 47  1  0
 45 48  1  0
 46 45  1  0
 49 52  1  0
 49 50  1  0
 51 49  1  0
 53 54  1  0
 53 52  2  0
 55 66  2  0
 56 54  1  0
 56 61  1  0
 57 65  1  0
 57 67  1  0
 58 64  1  0
 58 60  1  0
 59 65  1  0
 60 59  1  0
 61 60  2  0
 62 56  2  0
 63 62  1  0
 63 58  2  0
 64 57  1  0
 65 55  1  0
 67 69  2  0
 68 67  1  0
 70 68  1  0
 71 80  2  0
 71 76  1  0
 72 68  1  0
 72 76  1  0
 73 72  1  0
 74 75  1  0
 74 73  1  0
 75 71  1  0
 76 77  2  0
 77 78  1  0
 79 78  2  0
 80 79  1  0
 81 55  1  0
 81 86  1  0
 81 82  1  0
 82 85  1  1
 82 83  1  0
 84 82  1  0
 86 89  1  0
 87 91  1  0
 87 86  1  0
 88 87  2  0
 91 90  1  0
 93 94  1  0
 93 91  1  0
 93 92  1  0
M  ISO  4   7 100  15 100  53 101  54 101
M  END
>  <TORSDO>  (21) 
F 20

>  <SCORE>  (21) 
-14.308

>  <name>  (21) 
20

>  <ligand_id>  (21) 
20

>  <original_smiles>  (21) 
[H]c1c([H])c([H])c2c(c1[H])C([H])([H])C([H])([H])C([H])([H])C2([H])N([H])C(=O)C1([H])N(C(=O)C([H])(N([H])C(=O)C([H])(N([H])C([H])([H])[H])C([H])([H])[H])C(C([H])([H])[H])(C([H])([H])[H])C([H])([H])[H])C([H])([H])c2c([H])c(OC([H])([H])C([H])([H])[N+]([H])([H])C3([H])C(=O)C([H])([N+]([H])([H])[H])C([H])(N([H])C(=O)N4C([H])([H])C([H])([H])C([H])([H])C([H])(n5nc(-c6c([H])c([H])c(Oc7c([H])c([H])c(F)c([H])c7F)c([H])c6[H])c(C(=O)N([H])[H])c5N([H])[H])C4([H])[H])C3([H])[H])c([H])c([H])c2C1([H])[H]

>  <smiles>  (21) 
[H]c1c([H])c([H])c2c(c1[H])C([H])([H])C([H])([H])C([H])([H])C2([H])N([H])C(=O)C1([H])N(C(=O)C([H])(N([H])C(=O)C([H])(N([H])C([H])([H])[H])C([H])([H])[H])C(C([H])([H])[H])(C([H])([H])[H])C([H])([H])[H])C([H])([H])c2c([H])c(OC([H])([H])C([H])([H])[N+]([H])([H])C3([H])C(=O)C([H])([N+]([H])([H])[H])C([H])(N([H])C(=O)N4C([H])([H])C([H])([H])C([H])([H])C([H])(n5nc(-c6c([H])c([H])c(Oc7c([H])c([H])c(F)c([H])c7F)c([H])c6[H])c(C(=O)N([H])[H])c5N([H])[H])C4([H])[H])C3([H])[H])c([H])c([H])c2C1([H])[H]

$$$$
21:0:0
     RDKit          3D

 89 98  0  0  1  0  0  0  0  0999 V2000
  -30.5030  -15.3930   20.2430 C   0  0  0  0  0  0  0  0  0  0  0  0
  -30.4830  -12.8980   19.4920 C   0  0  0  0  0  2  0  0  0  0  0  0
  -29.5990  -12.5740   18.2630 C   0  0  0  0  0  2  0  0  0  0  0  0
  -28.1470  -12.3030   18.6920 C   0  0  0  0  0  2  0  0  0  0  0  0
  -27.6570  -13.3280   19.7460 C   0  0  0  0  0  3  0  0  0  0  0  0
  -28.6800  -13.5830   20.8730 C   0  0  0  0  0  2  0  0  0  0  0  0
  -29.8990  -14.0930   20.2200 N   0  0  0  0  0  0  0  0  0  0  0  0
  -31.7310  -15.3060   20.0770 O   0  0  0  0  0  0  0  0  0  0  0  0
  -27.9830  -21.3700   20.1820 C   0  0  0  0  0  3  0  0  0  0  0  0
  -29.9450  -22.2880   19.3470 C   0  0  0  0  0  3  0  0  0  0  0  0
  -28.5780  -19.9800   20.2170 C   0  0  0  0  0  0  0  0  0  0  0  0
  -29.8960  -19.7010   19.8150 C   0  0  0  0  0  0  0  0  0  0  0  0
  -28.6070  -22.6600   19.7500 C   0  0  0  0  0  0  0  0  0  0  0  0
  -30.5480  -20.9350   19.3890 C   0  0  0  0  0  3  0  0  0  0  0  0
  -27.9190  -18.6720   20.7780 C   0  0  0  0  0  3  0  0  0  0  0  0
  -30.5690  -18.1580   19.9100 C   0  0  0  0  0  3  0  0  0  0  0  0
  -28.4080  -17.1580   20.3530 C   0  0  0  0  0  3  0  0  0  0  0  0
  -31.9970  -20.8370   18.9470 C   0  0  0  0  0  1  0  0  0  0  0  0
  -29.8610  -16.7580   20.2060 N   0  0  0  0  0  0  0  0  0  0  0  0
  -25.2870  -13.8990   20.4870 C   0  0  0  0  0  0  0  0  0  0  0  0
  -24.2200  -13.1320   20.8580 C   0  0  0  0  0  0  0  0  0  0  0  0
  -24.6810  -11.7790   20.8370 C   0  0  0  0  0  0  0  0  0  0  0  0
  -26.3270  -13.0180   20.2540 N   0  0  0  0  0  0  0  0  0  0  0  0
  -25.9740  -11.7360   20.5340 N   0  0  0  0  0  0  0  0  0  0  0  0
  -23.9430  -10.5220   21.0260 C   0  0  0  0  0  0  0  0  0  0  0  0
  -24.3640   -9.5520   21.9620 C   0  0  0  0  0  3  0  0  0  0  0  0
  -23.6240   -8.3630   22.1410 C   0  0  0  0  0  3  0  0  0  0  0  0
  -22.4490   -8.1360   21.3850 C   0  0  0  0  0  0  0  0  0  0  0  0
  -22.0500   -9.0940   20.4360 C   0  0  0  0  0  3  0  0  0  0  0  0
  -22.7900  -10.2750   20.2550 C   0  0  0  0  0  3  0  0  0  0  0  0
  -21.6810   -7.0010   21.4740 O   0  0  0  0  0  0  0  0  0  0  0  0
  -21.6200   -6.2600   22.6280 C   0  0  0  0  0  0  0  0  0  0  0  0
  -21.1740   -6.8150   23.8470 C   0  0  0  0  0  3  0  0  0  0  0  0
  -21.0630   -6.0010   24.9920 C   0  0  0  0  0  3  0  0  0  0  0  0
  -21.3860   -4.6340   24.9180 C   0  0  0  0  0  0  0  0  0  0  0  0
  -21.8230   -4.0770   23.7030 C   0  0  0  0  0  3  0  0  0  0  0  0
  -21.9370   -4.8890   22.5610 C   0  0  0  0  0  0  0  0  0  0  0  0
  -22.3390   -4.3430   21.3870 F   0  0  0  0  0  0  0  0  0  0  0  0
  -21.2730   -3.8480   26.0150 F   0  0  0  0  0  0  0  0  0  0  0  0
  -22.8240  -13.6200   21.1100 C   0  0  0  0  0  0  0  0  0  0  0  0
  -22.0850  -12.9450   21.9830 N   0  0  0  0  0  0  0  0  0  0  0  0
  -22.3970  -14.6380   20.5670 O   0  0  0  0  0  0  0  0  0  0  0  0
  -22.4460  -12.1240   22.4470 H   0  0  0  0  0  0  0  0  0  0  0  0
  -21.1470  -13.2550   22.1940 H   0  0  0  0  0  0  0  0  0  0  0  0
  -25.4540  -15.2660   20.2920 N   0  0  0  0  0  0  0  0  0  0  0  0
  -24.6750  -15.9140   20.3540 H   0  0  0  0  0  0  0  0  0  0  0  0
  -26.2880  -15.6880   19.9080 H   0  0  0  0  0  0  0  0  0  0  0  0
  -27.7950  -24.2220   19.5850 C   0  0  0  0  0  2  0  0  0  0  0  0
  -28.1760  -25.8320   19.6590 O   0  0  0  0  0  0  0  0  0  0  0  0
  -24.6730  -31.6810   22.9770 C   0  0  0  0  0  0  0  0  0  0  0  0
  -27.1770  -26.9510   19.6780 C   0  0  0  0  0  0  0  0  0  0  0  0
  -23.4470  -30.3520   21.3100 C   0  0  0  0  0  3  0  0  0  0  0  0
  -24.8690  -28.8280   19.7760 C   0  0  0  0  0  0  0  0  0  0  0  0
  -26.0080  -30.5880   21.1040 C   0  0  0  0  0  2  0  0  0  0  0  0
  -26.0720  -29.2090   20.3830 C   0  0  0  0  0  0  0  0  0  0  0  0
  -27.2200  -28.2950   20.3090 C   0  0  0  0  0  3  0  0  0  0  0  0
  -25.9390  -26.7340   19.0310 C   0  0  0  0  0  3  0  0  0  0  0  0
  -24.8280  -27.6130   19.0780 C   0  0  0  0  0  3  0  0  0  0  0  0
  -23.6440  -29.7380   19.8970 C   0  0  0  0  0  2  0  0  0  0  0  0
  -24.7340  -30.8990   21.8520 N   0  0  0  0  0  0  0  0  0  0  0  0
  -23.5960  -31.9360   23.5400 O   0  0  0  0  0  0  0  0  0  0  0  0
  -22.7850  -29.3060   22.2460 C   0  0  0  0  0  0  0  0  0  0  0  0
  -21.4520  -29.1500   22.1610 N   0  0  0  0  0  0  0  0  0  0  0  0
  -23.4800  -28.6360   23.0150 O   0  0  0  0  0  0  0  0  0  0  0  0
  -20.9430  -29.7410   21.5190 H   0  0  0  0  0  0  0  0  0  0  0  0
  -18.0800  -27.9470   22.7640 C   0  0  0  0  0  0  0  0  0  0  0  0
  -20.6540  -28.1730   22.9130 C   0  0  0  0  0  3  0  0  0  0  0  0
  -20.7080  -26.7790   22.2460 C   0  0  0  0  0  2  0  0  0  0  0  0
  -19.5520  -26.5330   21.2700 C   0  0  0  0  0  2  0  0  0  0  0  0
  -18.2060  -26.6470   21.9900 C   0  0  0  0  0  2  0  0  0  0  0  0
  -19.2290  -28.6720   23.1820 C   0  0  0  0  0  0  0  0  0  0  0  0
  -19.0520  -29.8920   23.8720 C   0  0  0  0  0  3  0  0  0  0  0  0
  -17.7620  -30.3870   24.1440 C   0  0  0  0  0  3  0  0  0  0  0  0
  -16.6300  -29.6600   23.7370 C   0  0  0  0  0  3  0  0  0  0  0  0
  -16.7910  -28.4420   23.0530 C   0  0  0  0  0  3  0  0  0  0  0  0
  -25.9540  -32.3060   23.6060 C   0  0  0  0  0  3  0  0  0  0  0  0
  -25.6260  -33.6770   24.0350 N   0  0  0  0  0  0  0  0  0  0  0  0
  -25.9050  -34.7890   23.3400 C   0  0  0  0  0  0  0  0  0  0  0  0
  -26.5290  -34.7680   22.2760 O   0  0  0  0  0  0  0  0  0  0  0  0
  -25.0660  -33.7650   24.8700 H   0  0  0  0  0  0  0  0  0  0  0  0
  -24.1290  -36.5680   23.1930 C   0  0  0  0  0  1  0  0  0  0  0  0
  -25.4160  -36.1350   23.9130 C   0  0  0  0  0  3  0  0  0  0  0  0
  -27.5710  -37.0150   24.6970 C   0  0  0  0  0  1  0  0  0  0  0  0
  -26.4210  -37.2180   23.8210 N   0  0  0  0  0  0  0  0  0  0  0  0
  -26.0030  -38.1160   24.0470 H   0  0  0  0  0  0  0  0  0  0  0  0
  -26.5090  -31.4760   24.8280 C   0  0  1  0  0  0  0  0  0  0  0  0
  -25.4490  -31.1810   25.9140 C   0  0  0  0  0  1  0  0  0  0  0  0
  -27.0880  -30.1230   24.3580 C   0  0  0  0  0  1  0  0  0  0  0  0
  -27.6730  -32.2460   25.4970 C   0  0  0  0  0  1  0  0  0  0  0  0
  2  7  1  0
  3  4  1  0
  3  2  1  0
  5  4  1  0
  5 23  1  0
  5  6  1  0
  7  1  1  0
  7  6  1  0
  8  1  2  0
  9 11  2  0
 10 14  1  0
 10 13  2  0
 11 15  1  0
 12 16  2  0
 12 11  1  0
 13  9  1  0
 14 18  1  0
 14 12  1  0
 16 19  1  0
 17 15  2  0
 19  1  1  0
 19 17  1  0
 20 21  2  0
 21 40  1  0
 22 21  1  0
 22 25  1  0
 23 20  1  0
 23 24  1  0
 24 22  2  0
 25 26  1  0
 26 27  2  0
 28 31  1  0
 28 27  1  0
 29 28  2  0
 30 29  1  0
 30 25  2  0
 31 32  1  0
 32 33  1  0
 33 34  2  0
 35 34  1  0
 35 39  1  0
 36 35  2  0
 37 32  2  0
 37 36  1  0
 38 37  1  0
 40 41  1  0
 41 44  1  0
 41 43  1  0
 42 40  2  0
 45 46  1  0
 45 20  1  0
 47 45  1  0
 48 49  1  0
 48 13  1  0
 49 51  1  0
 50 61  2  0
 51 56  1  0
 52 60  1  0
 52 62  1  0
 53 59  1  0
 53 55  1  0
 54 60  1  0
 55 54  1  0
 56 55  2  0
 57 58  1  0
 57 51  2  0
 58 53  2  0
 59 52  1  0
 60 50  1  0
 62 64  2  0
 63 62  1  0
 65 63  1  0
 66 75  2  0
 66 71  1  0
 67 63  1  0
 67 71  1  0
 68 67  1  0
 69 70  1  0
 69 68  1  0
 70 66  1  0
 71 72  2  0
 72 73  1  0
 74 73  2  0
 75 74  1  0
 76 50  1  0
 76 77  1  0
 76 86  1  0
 77 80  1  0
 78 82  1  0
 78 77  1  0
 79 78  2  0
 82 81  1  0
 84 82  1  0
 84 85  1  0
 84 83  1  0
 86 89  1  1
 86 87  1  0
 88 86  1  0
M  ISO  4   1 100  19 100  48 101  49 101
M  END
>  <TORSDO>  (22) 
F 16

>  <SCORE>  (22) 
-16.014

>  <name>  (22) 
21

>  <ligand_id>  (22) 
21

>  <original_smiles>  (22) 
[H]c1c([H])c([H])c2c(c1[H])C([H])([H])C([H])([H])C([H])([H])C2([H])N([H])C(=O)C1([H])N(C(=O)C([H])(N([H])C(=O)C([H])(N([H])C([H])([H])[H])C([H])([H])[H])C(C([H])([H])[H])(C([H])([H])[H])C([H])([H])[H])C([H])([H])c2c([H])c(OC([H])([H])c3c([H])c(C([H])([H])[H])c4c(c3[H])C([H])([H])C([H])([H])N(C(=O)N3C([H])([H])C([H])([H])C([H])([H])C([H])(n5nc(-c6c([H])c([H])c(Oc7c([H])c([H])c(F)c([H])c7F)c([H])c6[H])c(C(=O)N([H])[H])c5N([H])[H])C3([H])[H])C4([H])[H])c([H])c([H])c2C1([H])[H]

>  <smiles>  (22) 
[H]c1c([H])c([H])c2c(c1[H])C([H])([H])C([H])([H])C([H])([H])C2([H])N([H])C(=O)C1([H])N(C(=O)C([H])(N([H])C(=O)C([H])(N([H])C([H])([H])[H])C([H])([H])[H])C(C([H])([H])[H])(C([H])([H])[H])C([H])([H])[H])C([H])([H])c2c([H])c(OC([H])([H])c3c([H])c(C([H])([H])[H])c4c(c3[H])C([H])([H])C([H])([H])N(C(=O)N3C([H])([H])C([H])([H])C([H])([H])C([H])(n5nc(-c6c([H])c([H])c(Oc7c([H])c([H])c(F)c([H])c7F)c([H])c6[H])c(C(=O)N([H])[H])c5N([H])[H])C3([H])[H])C4([H])[H])c([H])c([H])c2C1([H])[H]

$$$$
22:0:0
     RDKit          3D

 93102  0  0  1  0  0  0  0  0999 V2000
  -28.2960  -20.6880   20.9060 C   0  0  0  0  0  2  0  0  0  0  0  0
  -30.0140  -22.1000   19.8190 C   0  0  0  0  0  2  0  0  0  0  0  0
  -27.2900  -21.8320   20.6050 C   0  0  0  0  0  3  0  0  0  0  0  0
  -28.9680  -23.4410   19.7950 C   0  0  0  0  0  3  0  0  0  0  0  0
  -26.6060  -21.6250   19.2270 C   0  0  0  0  0  1  0  0  0  0  0  0
  -29.4570  -20.6400   19.9980 N   0  0  0  0  0  0  0  0  0  0  0  0
  -27.8970  -23.1820   20.7780 N   0  0  0  0  0  4  0  0  0  0  0  0
  -28.2810  -23.2420   21.7100 H   0  0  0  0  0  0  0  0  0  0  0  0
  -27.1730  -23.8770   20.7130 H   0  0  0  0  0  0  0  0  0  0  0  0
  -29.9470  -19.1880   19.5410 C   0  0  0  0  0  2  0  0  0  0  0  0
  -31.2790  -15.2420   19.5840 C   0  0  0  0  0  0  0  0  0  0  0  0
  -31.0080  -12.9070   18.5900 C   0  0  0  0  0  2  0  0  0  0  0  0
  -29.9410  -12.9080   17.4710 C   0  0  0  0  0  2  0  0  0  0  0  0
  -28.5250  -12.7190   18.0500 C   0  0  0  0  0  2  0  0  0  0  0  0
  -28.2710  -13.6370   19.2690 C   0  0  0  0  0  3  0  0  0  0  0  0
  -29.4330  -13.5800   20.2710 C   0  0  0  0  0  2  0  0  0  0  0  0
  -30.6610  -13.9820   19.5650 N   0  0  0  0  0  0  0  0  0  0  0  0
  -32.3300  -15.3690   18.9450 O   0  0  0  0  0  0  0  0  0  0  0  0
  -30.1710  -16.7280   22.6020 C   0  0  0  0  0  2  0  0  0  0  0  0
  -30.0800  -18.0720   21.9100 C   0  0  0  0  0  2  0  0  0  0  0  0
  -31.1210  -15.9810   21.7170 C   0  0  0  0  0  2  0  0  0  0  0  0
  -30.6430  -17.9340   20.4740 C   0  0  0  0  0  3  0  0  0  0  0  0
  -30.7100  -16.3150   20.3350 N   0  0  0  0  0  0  0  0  0  0  0  0
  -26.0340  -14.2640   20.3510 C   0  0  0  0  0  0  0  0  0  0  0  0
  -24.9880  -13.5100   20.8100 C   0  0  0  0  0  0  0  0  0  0  0  0
  -25.3820  -12.1450   20.6390 C   0  0  0  0  0  0  0  0  0  0  0  0
  -26.9910  -13.3630   19.9150 N   0  0  0  0  0  0  0  0  0  0  0  0
  -26.6180  -12.0800   20.1570 N   0  0  0  0  0  0  0  0  0  0  0  0
  -24.6260  -10.9020   20.8440 C   0  0  0  0  0  0  0  0  0  0  0  0
  -25.0200   -9.9460   21.8070 C   0  0  0  0  0  3  0  0  0  0  0  0
  -24.2660   -8.7680   21.9960 C   0  0  0  0  0  3  0  0  0  0  0  0
  -23.1030   -8.5400   21.2240 C   0  0  0  0  0  0  0  0  0  0  0  0
  -22.7290   -9.4810   20.2490 C   0  0  0  0  0  3  0  0  0  0  0  0
  -23.4830  -10.6510   20.0590 C   0  0  0  0  0  3  0  0  0  0  0  0
  -22.3180   -7.4180   21.3260 O   0  0  0  0  0  0  0  0  0  0  0  0
  -22.0800   -6.8120   22.5330 C   0  0  0  0  0  0  0  0  0  0  0  0
  -21.4960   -7.5070   23.6150 C   0  0  0  0  0  3  0  0  0  0  0  0
  -21.2060   -6.8270   24.8150 C   0  0  0  0  0  3  0  0  0  0  0  0
  -21.4910   -5.4540   24.9330 C   0  0  0  0  0  0  0  0  0  0  0  0
  -22.0660   -4.7590   23.8550 C   0  0  0  0  0  3  0  0  0  0  0  0
  -22.3570   -5.4360   22.6580 C   0  0  0  0  0  0  0  0  0  0  0  0
  -22.8940   -4.7570   21.6160 F   0  0  0  0  0  0  0  0  0  0  0  0
  -21.2030   -4.7970   26.0820 F   0  0  0  0  0  0  0  0  0  0  0  0
  -23.6600  -14.0160   21.2940 C   0  0  0  0  0  0  0  0  0  0  0  0
  -23.0430  -13.3170   22.2370 N   0  0  0  0  0  0  0  0  0  0  0  0
  -23.1860  -15.0690   20.8660 O   0  0  0  0  0  0  0  0  0  0  0  0
  -23.4390  -12.4570   22.5940 H   0  0  0  0  0  0  0  0  0  0  0  0
  -22.1610  -13.6370   22.6170 H   0  0  0  0  0  0  0  0  0  0  0  0
  -26.2560  -15.6360   20.2370 N   0  0  0  0  0  0  0  0  0  0  0  0
  -25.5680  -16.3420   20.4670 H   0  0  0  0  0  0  0  0  0  0  0  0
  -27.1070  -16.0190   19.8480 H   0  0  0  0  0  0  0  0  0  0  0  0
  -29.2330  -25.1070   19.5020 C   0  0  0  0  0  2  0  0  0  0  0  0
  -28.8980  -26.4480   20.2410 O   0  0  0  0  0  0  0  0  0  0  0  0
  -24.7090  -31.7380   23.1820 C   0  0  0  0  0  0  0  0  0  0  0  0
  -27.7480  -27.3180   20.1040 C   0  0  0  0  0  0  0  0  0  0  0  0
  -23.6640  -30.2750   21.4890 C   0  0  0  0  0  3  0  0  0  0  0  0
  -25.2710  -28.8500   20.0670 C   0  0  0  0  0  0  0  0  0  0  0  0
  -26.1870  -30.7600   21.3820 C   0  0  0  0  0  2  0  0  0  0  0  0
  -26.3920  -29.3860   20.7120 C   0  0  0  0  0  0  0  0  0  0  0  0
  -27.6230  -28.6300   20.7230 C   0  0  0  0  0  3  0  0  0  0  0  0
  -26.5980  -26.8870   19.4080 C   0  0  0  0  0  3  0  0  0  0  0  0
  -25.3840  -27.6140   19.4080 C   0  0  0  0  0  3  0  0  0  0  0  0
  -23.9720  -29.6400   20.1040 C   0  0  0  0  0  2  0  0  0  0  0  0
  -24.8720  -30.9450   22.0780 N   0  0  0  0  0  0  0  0  0  0  0  0
  -23.5940  -31.9180   23.6940 O   0  0  0  0  0  0  0  0  0  0  0  0
  -23.0510  -29.2020   22.4210 C   0  0  0  0  0  0  0  0  0  0  0  0
  -21.7560  -28.8930   22.2350 N   0  0  0  0  0  0  0  0  0  0  0  0
  -23.7450  -28.6480   23.2790 O   0  0  0  0  0  0  0  0  0  0  0  0
  -21.2460  -29.3970   21.5230 H   0  0  0  0  0  0  0  0  0  0  0  0
  -18.5190  -27.3020   22.5570 C   0  0  0  0  0  0  0  0  0  0  0  0
  -21.0080  -27.8690   22.9680 C   0  0  0  0  0  3  0  0  0  0  0  0
  -21.3090  -26.4570   22.4170 C   0  0  0  0  0  2  0  0  0  0  0  0
  -20.3170  -26.0050   21.3420 C   0  0  0  0  0  2  0  0  0  0  0  0
  -18.8930  -25.9800   21.9060 C   0  0  0  0  0  2  0  0  0  0  0  0
  -19.5120  -28.1940   23.0440 C   0  0  0  0  0  0  0  0  0  0  0  0
  -19.1080  -29.4180   23.6190 C   0  0  0  0  0  3  0  0  0  0  0  0
  -17.7470  -29.7600   23.7080 C   0  0  0  0  0  3  0  0  0  0  0  0
  -16.7670  -28.8710   23.2330 C   0  0  0  0  0  3  0  0  0  0  0  0
  -17.1530  -27.6430   22.6630 C   0  0  0  0  0  3  0  0  0  0  0  0
  -25.9160  -32.4660   23.8520 C   0  0  0  0  0  3  0  0  0  0  0  0
  -25.4840  -33.8310   24.1950 N   0  0  0  0  0  0  0  0  0  0  0  0
  -25.7380  -34.9210   23.4590 C   0  0  0  0  0  0  0  0  0  0  0  0
  -26.4260  -34.8880   22.4350 O   0  0  0  0  0  0  0  0  0  0  0  0
  -24.8670  -33.9250   24.9890 H   0  0  0  0  0  0  0  0  0  0  0  0
  -23.8680  -36.5750   23.1240 C   0  0  0  0  0  1  0  0  0  0  0  0
  -25.1370  -36.2610   23.9320 C   0  0  0  0  0  3  0  0  0  0  0  0
  -27.1920  -37.3110   24.7750 C   0  0  0  0  0  1  0  0  0  0  0  0
  -26.0790  -37.3970   23.8320 N   0  0  0  0  0  0  0  0  0  0  0  0
  -25.5970  -38.2780   23.9910 H   0  0  0  0  0  0  0  0  0  0  0  0
  -26.4560  -31.7230   25.1380 C   0  0  1  0  0  0  0  0  0  0  0  0
  -25.3510  -31.3440   26.1510 C   0  0  0  0  0  1  0  0  0  0  0  0
  -27.1970  -30.4250   24.7460 C   0  0  0  0  0  1  0  0  0  0  0  0
  -27.4830  -32.6200   25.8700 C   0  0  0  0  0  1  0  0  0  0  0  0
  2  6  1  0
  3  5  1  0
  3  7  1  0
  3  1  1  0
  4 52  1  0
  4  2  1  0
  4  7  1  0
  6  1  1  0
  7  8  1  0
  9  7  1  0
 10  6  1  0
 11 23  1  0
 12 17  1  0
 13 14  1  0
 13 12  1  0
 15 14  1  0
 15 27  1  0
 15 16  1  0
 17 11  1  0
 17 16  1  0
 18 11  2  0
 20 19  1  0
 21 19  1  0
 22 10  1  0
 22 20  1  0
 23 22  1  0
 23 21  1  0
 24 25  2  0
 25 44  1  0
 26 25  1  0
 26 29  1  0
 27 28  1  0
 27 24  1  0
 28 26  2  0
 29 30  1  0
 30 31  2  0
 32 35  1  0
 32 31  1  0
 33 32  2  0
 34 33  1  0
 34 29  2  0
 35 36  1  0
 36 41  2  0
 36 37  1  0
 37 38  2  0
 38 39  1  0
 39 43  1  0
 40 39  2  0
 41 40  1  0
 42 41  1  0
 44 45  1  0
 45 47  1  0
 45 48  1  0
 46 44  2  0
 49 24  1  0
 49 50  1  0
 51 49  1  0
 52 53  1  0
 54 65  2  0
 55 53  1  0
 55 60  1  0
 56 64  1  0
 56 66  1  0
 57 63  1  0
 57 59  1  0
 58 64  1  0
 59 60  2  0
 59 58  1  0
 61 55  2  0
 62 61  1  0
 62 57  2  0
 63 56  1  0
 64 54  1  0
 66 68  2  0
 67 66  1  0
 69 67  1  0
 70 79  2  0
 70 75  1  0
 71 67  1  0
 71 75  1  0
 72 71  1  0
 73 74  1  0
 73 72  1  0
 74 70  1  0
 75 76  2  0
 76 77  1  0
 78 77  2  0
 79 78  1  0
 80 54  1  0
 80 81  1  0
 80 90  1  0
 81 84  1  0
 82 86  1  0
 82 81  1  0
 83 82  2  0
 86 85  1  0
 88 86  1  0
 88 89  1  0
 88 87  1  0
 90 93  1  1
 90 91  1  0
 92 90  1  0
M  ISO  4  11 100  23 100  52 101  53 101
M  END
>  <TORSDO>  (23) 
F 18

>  <SCORE>  (23) 
-12.704

>  <name>  (23) 
22

>  <ligand_id>  (23) 
22

>  <original_smiles>  (23) 
[H]c1c([H])c([H])c2c(c1[H])C([H])([H])C([H])([H])C([H])([H])C2([H])N([H])C(=O)C1([H])N(C(=O)C([H])(N([H])C(=O)C([H])(N([H])C([H])([H])[H])C([H])([H])[H])C(C([H])([H])[H])(C([H])([H])[H])C([H])([H])[H])C([H])([H])c2c([H])c(OC([H])([H])C3([H])C([H])([H])N(C([H])([H])C4([H])N(C(=O)N5C([H])([H])C([H])([H])C([H])([H])C([H])(n6nc(-c7c([H])c([H])c(Oc8c([H])c([H])c(F)c([H])c8F)c([H])c7[H])c(C(=O)N([H])[H])c6N([H])[H])C5([H])[H])C([H])([H])C([H])([H])C4([H])[H])C([H])([H])C([H])(C([H])([H])[H])[N+]3([H])[H])c([H])c([H])c2C1([H])[H]

>  <smiles>  (23) 
[H]c1c([H])c([H])c2c(c1[H])C([H])([H])C([H])([H])C([H])([H])C2([H])N([H])C(=O)C1([H])N(C(=O)C([H])(N([H])C(=O)C([H])(N([H])C([H])([H])[H])C([H])([H])[H])C(C([H])([H])[H])(C([H])([H])[H])C([H])([H])[H])C([H])([H])c2c([H])c(OC([H])([H])C3([H])C([H])([H])N(C([H])([H])C4([H])N(C(=O)N5C([H])([H])C([H])([H])C([H])([H])C([H])(n6nc(-c7c([H])c([H])c(Oc8c([H])c([H])c(F)c([H])c8F)c([H])c7[H])c(C(=O)N([H])[H])c6N([H])[H])C5([H])[H])C([H])([H])C([H])([H])C4([H])[H])C([H])([H])C([H])(C([H])([H])[H])[N+]3([H])[H])c([H])c([H])c2C1([H])[H]

$$$$
23:0:0
     RDKit          3D

 91100  0  0  1  0  0  0  0  0999 V2000
  -28.6130  -22.1340   20.6150 C   0  0  0  0  0  3  0  0  0  0  0  0
  -30.2600  -22.4380   18.4960 C   0  0  0  0  0  3  0  0  0  0  0  0
  -28.7540  -23.5070   20.0930 C   0  0  0  0  0  0  0  0  0  0  0  0
  -29.6190  -23.6020   18.9860 C   0  0  0  0  0  0  0  0  0  0  0  0
  -29.3090  -20.9690   20.0560 C   0  0  0  0  0  0  0  0  0  0  0  0
  -30.1210  -21.1830   18.9990 N   0  0  0  0  0  0  0  0  0  0  0  0
  -29.8350  -24.7940   18.3750 F   0  0  0  0  0  0  0  0  0  0  0  0
  -30.6360  -14.9140   20.3520 C   0  0  0  0  0  0  0  0  0  0  0  0
  -30.4200  -12.6030   19.3740 C   0  0  0  0  0  2  0  0  0  0  0  0
  -29.4910  -12.5820   18.1420 C   0  0  0  0  0  2  0  0  0  0  0  0
  -28.0300  -12.3720   18.5780 C   0  0  0  0  0  2  0  0  0  0  0  0
  -27.6240  -13.2920   19.7590 C   0  0  0  0  0  3  0  0  0  0  0  0
  -28.6830  -13.3270   20.8820 C   0  0  0  0  0  2  0  0  0  0  0  0
  -29.9570  -13.7060   20.2600 N   0  0  0  0  0  0  0  0  0  0  0  0
  -31.8500  -14.8930   20.1300 O   0  0  0  0  0  0  0  0  0  0  0  0
  -28.7890  -18.3110   19.5110 C   0  0  0  0  0  2  0  0  0  0  0  0
  -30.6190  -18.7640   20.9910 C   0  0  0  0  0  2  0  0  0  0  0  0
  -28.8000  -16.7530   19.9330 C   0  0  0  0  0  2  0  0  0  0  0  0
  -30.6220  -17.2340   21.4680 C   0  0  0  0  0  2  0  0  0  0  0  0
  -29.2630  -19.4090   20.5430 C   0  0  0  0  0  3  0  0  0  0  0  0
  -30.0040  -16.1630   20.6080 N   0  0  0  0  0  0  0  0  0  0  0  0
  -25.2440  -13.8630   20.4950 C   0  0  0  0  0  0  0  0  0  0  0  0
  -24.1820  -13.0820   20.8590 C   0  0  0  0  0  0  0  0  0  0  0  0
  -24.6570  -11.7340   20.8340 C   0  0  0  0  0  0  0  0  0  0  0  0
  -26.2920  -12.9890   20.2610 N   0  0  0  0  0  0  0  0  0  0  0  0
  -25.9490  -11.7050   20.5340 N   0  0  0  0  0  0  0  0  0  0  0  0
  -23.9380  -10.4670   21.0180 C   0  0  0  0  0  0  0  0  0  0  0  0
  -24.3600   -9.5100   21.9670 C   0  0  0  0  0  3  0  0  0  0  0  0
  -23.6380   -8.3090   22.1410 C   0  0  0  0  0  3  0  0  0  0  0  0
  -22.4820   -8.0580   21.3650 C   0  0  0  0  0  0  0  0  0  0  0  0
  -22.0810   -9.0030   20.4060 C   0  0  0  0  0  3  0  0  0  0  0  0
  -22.8030  -10.1960   20.2300 C   0  0  0  0  0  3  0  0  0  0  0  0
  -21.7340   -6.9090   21.4480 O   0  0  0  0  0  0  0  0  0  0  0  0
  -21.6570   -6.1830   22.6090 C   0  0  0  0  0  0  0  0  0  0  0  0
  -21.1740   -6.7460   23.8100 C   0  0  0  0  0  3  0  0  0  0  0  0
  -21.0460   -5.9460   24.9630 C   0  0  0  0  0  3  0  0  0  0  0  0
  -21.3910   -4.5830   24.9160 C   0  0  0  0  0  0  0  0  0  0  0  0
  -21.8670   -4.0170   23.7200 C   0  0  0  0  0  3  0  0  0  0  0  0
  -21.9970   -4.8160   22.5690 C   0  0  0  0  0  0  0  0  0  0  0  0
  -22.4360   -4.2610   21.4130 F   0  0  0  0  0  0  0  0  0  0  0  0
  -21.2610   -3.8110   26.0200 F   0  0  0  0  0  0  0  0  0  0  0  0
  -22.7800  -13.5510   21.1170 C   0  0  0  0  0  0  0  0  0  0  0  0
  -22.0490  -12.8500   21.9760 N   0  0  0  0  0  0  0  0  0  0  0  0
  -22.3420  -14.5750   20.5920 O   0  0  0  0  0  0  0  0  0  0  0  0
  -22.4150  -12.0230   22.4230 H   0  0  0  0  0  0  0  0  0  0  0  0
  -21.1080  -13.1480   22.1920 H   0  0  0  0  0  0  0  0  0  0  0  0
  -25.3970  -15.2340   20.3160 N   0  0  0  0  0  0  0  0  0  0  0  0
  -24.6270  -15.8850   20.4290 H   0  0  0  0  0  0  0  0  0  0  0  0
  -26.2460  -15.6760   19.9890 H   0  0  0  0  0  0  0  0  0  0  0  0
  -27.9740  -24.8260   20.6340 C   0  0  0  0  0  2  0  0  0  0  0  0
  -28.2610  -26.2790   20.2190 O   0  0  0  0  0  0  0  0  0  0  0  0
  -24.6070  -31.8860   23.2360 C   0  0  0  0  0  0  0  0  0  0  0  0
  -27.1940  -27.2280   20.2010 C   0  0  0  0  0  0  0  0  0  0  0  0
  -23.4040  -30.4870   21.6000 C   0  0  0  0  0  3  0  0  0  0  0  0
  -24.8530  -28.9220   20.1750 C   0  0  0  0  0  0  0  0  0  0  0  0
  -25.9530  -30.7760   21.4220 C   0  0  0  0  0  2  0  0  0  0  0  0
  -26.0310  -29.3880   20.7750 C   0  0  0  0  0  0  0  0  0  0  0  0
  -27.2070  -28.5550   20.7720 C   0  0  0  0  0  3  0  0  0  0  0  0
  -25.9940  -26.8530   19.5580 C   0  0  0  0  0  3  0  0  0  0  0  0
  -24.8440  -27.6650   19.5530 C   0  0  0  0  0  3  0  0  0  0  0  0
  -23.6210  -29.8090   20.2210 C   0  0  0  0  0  2  0  0  0  0  0  0
  -24.6750  -31.0710   22.1410 N   0  0  0  0  0  0  0  0  0  0  0  0
  -23.5230  -32.1660   23.7700 O   0  0  0  0  0  0  0  0  0  0  0  0
  -22.7370  -29.4760   22.5640 C   0  0  0  0  0  0  0  0  0  0  0  0
  -21.4090  -29.2960   22.4390 N   0  0  0  0  0  0  0  0  0  0  0  0
  -23.4140  -28.8530   23.3860 O   0  0  0  0  0  0  0  0  0  0  0  0
  -20.9180  -29.8490   21.7490 H   0  0  0  0  0  0  0  0  0  0  0  0
  -18.0330  -28.0940   22.9550 C   0  0  0  0  0  0  0  0  0  0  0  0
  -20.5930  -28.3580   23.2130 C   0  0  0  0  0  3  0  0  0  0  0  0
  -20.6950  -26.9260   22.6390 C   0  0  0  0  0  2  0  0  0  0  0  0
  -19.5890  -26.6020   21.6300 C   0  0  0  0  0  2  0  0  0  0  0  0
  -18.2090  -26.7450   22.2770 C   0  0  0  0  0  2  0  0  0  0  0  0
  -19.1530  -28.8580   23.3800 C   0  0  0  0  0  0  0  0  0  0  0  0
  -18.9340  -30.1190   23.9740 C   0  0  0  0  0  3  0  0  0  0  0  0
  -17.6290  -30.6180   24.1450 C   0  0  0  0  0  3  0  0  0  0  0  0
  -16.5240  -29.8510   23.7360 C   0  0  0  0  0  3  0  0  0  0  0  0
  -16.7280  -28.5910   23.1470 C   0  0  0  0  0  3  0  0  0  0  0  0
  -25.8870  -32.5250   23.8580 C   0  0  0  0  0  3  0  0  0  0  0  0
  -25.5740  -33.9260   24.1820 N   0  0  0  0  0  0  0  0  0  0  0  0
  -25.9060  -34.9780   23.4220 C   0  0  0  0  0  0  0  0  0  0  0  0
  -26.5750  -34.8720   22.3910 O   0  0  0  0  0  0  0  0  0  0  0  0
  -24.9810  -34.0830   24.9830 H   0  0  0  0  0  0  0  0  0  0  0  0
  -24.1820  -36.7760   23.0610 C   0  0  0  0  0  1  0  0  0  0  0  0
  -25.4200  -36.3680   23.8780 C   0  0  0  0  0  3  0  0  0  0  0  0
  -27.5510  -37.2510   24.7190 C   0  0  0  0  0  1  0  0  0  0  0  0
  -26.4550  -37.4200   23.7690 N   0  0  0  0  0  0  0  0  0  0  0  0
  -26.0480  -38.3410   23.9140 H   0  0  0  0  0  0  0  0  0  0  0  0
  -26.3990  -31.7640   25.1420 C   0  0  1  0  0  0  0  0  0  0  0  0
  -25.3030  -31.5360   26.2090 C   0  0  0  0  0  1  0  0  0  0  0  0
  -26.9830  -30.3840   24.7660 C   0  0  0  0  0  1  0  0  0  0  0  0
  -27.5460  -32.5640   25.8010 C   0  0  0  0  0  1  0  0  0  0  0  0
  2  4  1  0
  2  6  2  0
  3  1  1  0
  3 50  1  0
  4  3  2  0
  5  1  2  0
  6  5  1  0
  7  4  1  0
  8 21  1  0
  9 14  1  0
 10 11  1  0
 10  9  1  0
 12 11  1  0
 12 25  1  0
 12 13  1  0
 14  8  1  0
 14 13  1  0
 15  8  2  0
 16 18  1  0
 16 20  1  0
 17 19  1  0
 18 21  1  0
 20  5  1  0
 20 17  1  0
 21 19  1  0
 22 23  2  0
 23 42  1  0
 24 23  1  0
 24 27  1  0
 25 22  1  0
 25 26  1  0
 26 24  2  0
 27 28  1  0
 28 29  2  0
 30 33  1  0
 30 29  1  0
 31 30  2  0
 32 31  1  0
 32 27  2  0
 33 34  1  0
 34 35  1  0
 35 36  2  0
 37 36  1  0
 37 41  1  0
 38 37  2  0
 39 34  2  0
 39 38  1  0
 40 39  1  0
 42 43  1  0
 43 46  1  0
 43 45  1  0
 44 42  2  0
 47 48  1  0
 47 22  1  0
 49 47  1  0
 51 50  1  0
 52 63  2  0
 53 51  1  0
 53 58  1  0
 54 62  1  0
 54 64  1  0
 55 61  1  0
 55 57  1  0
 56 62  1  0
 57 56  1  0
 58 57  2  0
 59 53  2  0
 60 59  1  0
 60 55  2  0
 61 54  1  0
 62 52  1  0
 64 66  2  0
 65 64  1  0
 67 65  1  0
 68 77  2  0
 68 73  1  0
 69 65  1  0
 69 73  1  0
 70 69  1  0
 71 72  1  0
 71 70  1  0
 72 68  1  0
 73 74  2  0
 74 75  1  0
 76 75  2  0
 77 76  1  0
 78 52  1  0
 78 79  1  0
 78 88  1  0
 79 82  1  0
 80 84  1  0
 80 79  1  0
 81 80  2  0
 84 83  1  0
 86 84  1  0
 86 87  1  0
 86 85  1  0
 88 91  1  1
 88 89  1  0
 90 88  1  0
M  ISO  4   8 100  21 100  50 101  51 101
M  END
>  <TORSDO>  (24) 
F 17

>  <SCORE>  (24) 
-15.250

>  <name>  (24) 
23

>  <ligand_id>  (24) 
23

>  <original_smiles>  (24) 
[H]c1nc(C2([H])C([H])([H])C([H])([H])N(C(=O)N3C([H])([H])C([H])([H])C([H])([H])C([H])(n4nc(-c5c([H])c([H])c(Oc6c([H])c([H])c(F)c([H])c6F)c([H])c5[H])c(C(=O)N([H])[H])c4N([H])[H])C3([H])[H])C([H])([H])C2([H])[H])c([H])c(C([H])([H])Oc2c([H])c([H])c3c(c2[H])C([H])([H])N(C(=O)C([H])(N([H])C(=O)C([H])(N([H])C([H])([H])[H])C([H])([H])[H])C(C([H])([H])[H])(C([H])([H])[H])C([H])([H])[H])C([H])(C(=O)N([H])C2([H])c4c([H])c([H])c([H])c([H])c4C([H])([H])C([H])([H])C2([H])[H])C3([H])[H])c1F

>  <smiles>  (24) 
[H]c1nc(C2([H])C([H])([H])C([H])([H])N(C(=O)N3C([H])([H])C([H])([H])C([H])([H])C([H])(n4nc(-c5c([H])c([H])c(Oc6c([H])c([H])c(F)c([H])c6F)c([H])c5[H])c(C(=O)N([H])[H])c4N([H])[H])C3([H])[H])C([H])([H])C2([H])[H])c([H])c(C([H])([H])Oc2c([H])c([H])c3c(c2[H])C([H])([H])N(C(=O)C([H])(N([H])C(=O)C([H])(N([H])C([H])([H])[H])C([H])([H])[H])C(C([H])([H])[H])(C([H])([H])[H])C([H])([H])[H])C([H])(C(=O)N([H])C2([H])c4c([H])c([H])c([H])c([H])c4C([H])([H])C([H])([H])C2([H])[H])C3([H])[H])c1F

$$$$
24:0:0
     RDKit          3D

 93102  0  0  1  0  0  0  0  0999 V2000
  -28.9640  -23.2310   21.7190 C   0  0  0  0  0  3  0  0  0  0  0  0
  -28.5640  -24.5950   21.6080 C   0  0  0  0  0  3  0  0  0  0  0  0
  -29.2020  -22.4380   20.5650 C   0  0  0  0  0  0  0  0  0  0  0  0
  -28.9310  -23.1050   19.3340 C   0  0  0  0  0  0  0  0  0  0  0  0
  -28.3940  -25.1910   20.3390 C   0  0  0  0  0  0  0  0  0  0  0  0
  -29.1160  -22.3990   18.0030 C   0  0  0  0  0  1  0  0  0  0  0  0
  -28.5600  -24.4220   19.2300 N   0  0  0  0  0  0  0  0  0  0  0  0
  -28.3370  -26.5890   20.1470 O   0  0  0  0  0  0  0  0  0  0  0  0
  -24.5570  -31.9060   23.2390 C   0  0  0  0  0  0  0  0  0  0  0  0
  -27.1700  -27.3570   20.1900 C   0  0  0  0  0  0  0  0  0  0  0  0
  -23.3460  -30.5030   21.6020 C   0  0  0  0  0  3  0  0  0  0  0  0
  -24.7940  -28.9420   20.1820 C   0  0  0  0  0  0  0  0  0  0  0  0
  -25.8810  -30.8260   21.4100 C   0  0  0  0  0  2  0  0  0  0  0  0
  -25.9580  -29.4430   20.7750 C   0  0  0  0  0  0  0  0  0  0  0  0
  -27.1470  -28.6600   20.7730 C   0  0  0  0  0  3  0  0  0  0  0  0
  -25.9840  -26.8950   19.5800 C   0  0  0  0  0  3  0  0  0  0  0  0
  -24.8060  -27.6720   19.5780 C   0  0  0  0  0  3  0  0  0  0  0  0
  -23.5560  -29.8160   20.2250 C   0  0  0  0  0  2  0  0  0  0  0  0
  -24.6130  -31.0970   22.1400 N   0  0  0  0  0  0  0  0  0  0  0  0
  -23.4760  -32.1850   23.7780 O   0  0  0  0  0  0  0  0  0  0  0  0
  -22.6880  -29.4910   22.5670 C   0  0  0  0  0  0  0  0  0  0  0  0
  -21.3640  -29.3070   22.4370 N   0  0  0  0  0  0  0  0  0  0  0  0
  -23.3670  -28.8720   23.3910 O   0  0  0  0  0  0  0  0  0  0  0  0
  -20.8740  -29.8590   21.7470 H   0  0  0  0  0  0  0  0  0  0  0  0
  -17.9900  -28.1030   22.9310 C   0  0  0  0  0  0  0  0  0  0  0  0
  -20.5470  -28.3690   23.2100 C   0  0  0  0  0  3  0  0  0  0  0  0
  -20.6540  -26.9360   22.6390 C   0  0  0  0  0  2  0  0  0  0  0  0
  -19.5570  -26.6070   21.6220 C   0  0  0  0  0  2  0  0  0  0  0  0
  -18.1720  -26.7510   22.2610 C   0  0  0  0  0  2  0  0  0  0  0  0
  -19.1050  -28.8690   23.3630 C   0  0  0  0  0  0  0  0  0  0  0  0
  -18.8820  -30.1330   23.9490 C   0  0  0  0  0  3  0  0  0  0  0  0
  -17.5750  -30.6320   24.1080 C   0  0  0  0  0  3  0  0  0  0  0  0
  -16.4740  -29.8620   23.6950 C   0  0  0  0  0  3  0  0  0  0  0  0
  -16.6830  -28.6000   23.1120 C   0  0  0  0  0  3  0  0  0  0  0  0
  -25.8430  -32.5370   23.8560 C   0  0  0  0  0  3  0  0  0  0  0  0
  -26.3640  -31.7650   25.1300 C   0  0  1  0  0  0  0  0  0  0  0  0
  -25.2740  -31.5270   26.2010 C   0  0  0  0  0  1  0  0  0  0  0  0
  -26.9460  -30.3880   24.7360 C   0  0  0  0  0  1  0  0  0  0  0  0
  -27.5150  -32.5600   25.7910 C   0  0  0  0  0  1  0  0  0  0  0  0
  -25.5350  -33.9350   24.1900 N   0  0  0  0  0  0  0  0  0  0  0  0
  -25.8530  -34.9870   23.4240 C   0  0  0  0  0  0  0  0  0  0  0  0
  -26.5040  -34.8840   22.3810 O   0  0  0  0  0  0  0  0  0  0  0  0
  -24.9520  -34.0890   24.9980 H   0  0  0  0  0  0  0  0  0  0  0  0
  -24.1110  -36.7740   23.1030 C   0  0  0  0  0  1  0  0  0  0  0  0
  -25.3710  -36.3750   23.8890 C   0  0  0  0  0  3  0  0  0  0  0  0
  -27.5160  -37.2730   24.6760 C   0  0  0  0  0  1  0  0  0  0  0  0
  -26.3980  -37.4320   23.7520 N   0  0  0  0  0  0  0  0  0  0  0  0
  -25.9910  -38.3510   23.9000 H   0  0  0  0  0  0  0  0  0  0  0  0
  -29.9580  -21.0420   20.6620 C   0  0  0  0  0  2  0  0  0  0  0  0
  -29.2270  -19.7270   20.8500 N   0  0  0  0  0  4  0  0  0  0  0  0
  -28.5140  -19.6710   20.1440 H   0  0  0  0  0  0  0  0  0  0  0  0
  -28.7580  -19.7480   21.7410 H   0  0  0  0  0  0  0  0  0  0  0  0
  -30.0490  -18.4370   20.7800 C   0  0  0  0  0  2  0  0  0  0  0  0
  -30.5920  -14.7640   20.5780 C   0  0  0  0  0  0  0  0  0  0  0  0
  -30.4740  -12.4610   19.6450 C   0  0  0  0  0  2  0  0  0  0  0  0
  -29.5760  -12.4820   18.3870 C   0  0  0  0  0  2  0  0  0  0  0  0
  -28.0830  -12.3610   18.7620 C   0  0  0  0  0  2  0  0  0  0  0  0
  -27.6620  -13.2630   19.9540 C   0  0  0  0  0  3  0  0  0  0  0  0
  -28.6860  -13.1970   21.1090 C   0  0  0  0  0  2  0  0  0  0  0  0
  -30.0010  -13.5270   20.5480 N   0  0  0  0  0  0  0  0  0  0  0  0
  -31.8120  -14.8890   20.4300 O   0  0  0  0  0  0  0  0  0  0  0  0
  -28.4460  -17.0560   19.2550 C   0  0  0  0  0  2  0  0  0  0  0  0
  -29.6080  -16.1980   18.7710 C   0  0  0  0  0  2  0  0  0  0  0  0
  -29.1690  -17.1280   20.5990 C   0  0  0  0  0  3  0  0  0  0  0  0
  -29.7570  -15.7850   20.1690 N   0  0  0  0  0  0  0  0  0  0  0  0
  -25.2480  -13.8590   20.6000 C   0  0  0  0  0  0  0  0  0  0  0  0
  -24.1720  -13.0840   20.9330 C   0  0  0  0  0  0  0  0  0  0  0  0
  -24.6420  -11.7350   20.9290 C   0  0  0  0  0  0  0  0  0  0  0  0
  -26.3030  -12.9810   20.4040 N   0  0  0  0  0  0  0  0  0  0  0  0
  -25.9430  -11.7010   20.6690 N   0  0  0  0  0  0  0  0  0  0  0  0
  -23.9180  -10.4710   21.1000 C   0  0  0  0  0  0  0  0  0  0  0  0
  -24.3220   -9.5120   22.0540 C   0  0  0  0  0  3  0  0  0  0  0  0
  -23.5980   -8.3110   22.2110 C   0  0  0  0  0  3  0  0  0  0  0  0
  -22.4540   -8.0620   21.4150 C   0  0  0  0  0  0  0  0  0  0  0  0
  -22.0700   -9.0110   20.4510 C   0  0  0  0  0  3  0  0  0  0  0  0
  -22.7960  -10.2030   20.2920 C   0  0  0  0  0  3  0  0  0  0  0  0
  -21.7030   -6.9140   21.4820 O   0  0  0  0  0  0  0  0  0  0  0  0
  -21.6140   -6.1800   22.6370 C   0  0  0  0  0  0  0  0  0  0  0  0
  -21.1100   -6.7330   23.8350 C   0  0  0  0  0  3  0  0  0  0  0  0
  -20.9690   -5.9230   24.9800 C   0  0  0  0  0  3  0  0  0  0  0  0
  -21.3240   -4.5610   24.9270 C   0  0  0  0  0  0  0  0  0  0  0  0
  -21.8210   -4.0080   23.7340 C   0  0  0  0  0  3  0  0  0  0  0  0
  -21.9630   -4.8150   22.5910 C   0  0  0  0  0  0  0  0  0  0  0  0
  -22.4220   -4.2730   21.4380 F   0  0  0  0  0  0  0  0  0  0  0  0
  -21.1820   -3.7810   26.0240 F   0  0  0  0  0  0  0  0  0  0  0  0
  -22.7640  -13.5560   21.1490 C   0  0  0  0  0  0  0  0  0  0  0  0
  -22.0110  -12.8640   21.9970 N   0  0  0  0  0  0  0  0  0  0  0  0
  -22.3370  -14.5720   20.6020 O   0  0  0  0  0  0  0  0  0  0  0  0
  -22.3680  -12.0430   22.4630 H   0  0  0  0  0  0  0  0  0  0  0  0
  -21.0630  -13.1600   22.1860 H   0  0  0  0  0  0  0  0  0  0  0  0
  -25.4080  -15.2290   20.4260 N   0  0  0  0  0  0  0  0  0  0  0  0
  -24.6310  -15.8770   20.5020 H   0  0  0  0  0  0  0  0  0  0  0  0
  -26.2720  -15.6710   20.1470 H   0  0  0  0  0  0  0  0  0  0  0  0
  2  1  2  0
  3 49  1  0
  3  1  1  0
  4  3  2  0
  5  2  1  0
  6  4  1  0
  7  4  1  0
  7  5  2  0
  8 10  1  0
  8  5  1  0
  9 20  2  0
 10 15  1  0
 11 19  1  0
 11 21  1  0
 12 18  1  0
 12 14  1  0
 13 19  1  0
 14 13  1  0
 15 14  2  0
 16 10  2  0
 17 16  1  0
 17 12  2  0
 18 11  1  0
 19  9  1  0
 21 23  2  0
 22 21  1  0
 24 22  1  0
 25 34  2  0
 25 30  1  0
 26 22  1  0
 26 30  1  0
 27 26  1  0
 28 29  1  0
 28 27  1  0
 29 25  1  0
 30 31  2  0
 31 32  1  0
 33 32  2  0
 34 33  1  0
 35  9  1  0
 35 40  1  0
 35 36  1  0
 36 39  1  1
 36 37  1  0
 38 36  1  0
 40 43  1  0
 41 45  1  0
 41 40  1  0
 42 41  2  0
 45 44  1  0
 47 45  1  0
 47 48  1  0
 47 46  1  0
 49 50  1  0
 50 52  1  0
 51 50  1  0
 53 50  1  0
 55 60  1  0
 56 57  1  0
 56 55  1  0
 58 57  1  0
 58 69  1  0
 58 59  1  0
 60 54  1  0
 60 59  1  0
 61 54  2  0
 62 64  1  0
 63 62  1  0
 63 65  1  0
 64 53  1  0
 65 54  1  0
 65 64  1  0
 66 67  2  0
 67 86  1  0
 68 67  1  0
 68 71  1  0
 69 66  1  0
 69 70  1  0
 70 68  2  0
 71 72  1  0
 72 73  2  0
 74 77  1  0
 74 73  1  0
 75 74  2  0
 76 75  1  0
 76 71  2  0
 77 78  1  0
 78 79  1  0
 79 80  2  0
 81 80  1  0
 81 85  1  0
 82 81  2  0
 83 78  2  0
 83 82  1  0
 84 83  1  0
 86 87  1  0
 87 90  1  0
 87 89  1  0
 88 86  2  0
 91 92  1  0
 91 66  1  0
 93 91  1  0
M  ISO  4   5 101   8 101  54 100  65 100
M  END
>  <TORSDO>  (25) 
F 19

>  <SCORE>  (25) 
-14.333

>  <name>  (25) 
24

>  <ligand_id>  (25) 
24

>  <original_smiles>  (25) 
[H]c1c(Oc2c([H])c([H])c3c(c2[H])C([H])([H])N(C(=O)C([H])(N([H])C(=O)C([H])(N([H])C([H])([H])[H])C([H])([H])[H])C(C([H])([H])[H])(C([H])([H])[H])C([H])([H])[H])C([H])(C(=O)N([H])C2([H])c4c([H])c([H])c([H])c([H])c4C([H])([H])C([H])([H])C2([H])[H])C3([H])[H])nc(C([H])([H])[H])c(C([H])([H])[N+]([H])([H])C([H])([H])C2([H])N(C(=O)N3C([H])([H])C([H])([H])C([H])([H])C([H])(n4nc(-c5c([H])c([H])c(Oc6c([H])c([H])c(F)c([H])c6F)c([H])c5[H])c(C(=O)N([H])[H])c4N([H])[H])C3([H])[H])C([H])([H])C2([H])[H])c1[H]

>  <smiles>  (25) 
[H]c1c(Oc2c([H])c([H])c3c(c2[H])C([H])([H])N(C(=O)C([H])(N([H])C(=O)C([H])(N([H])C([H])([H])[H])C([H])([H])[H])C(C([H])([H])[H])(C([H])([H])[H])C([H])([H])[H])C([H])(C(=O)N([H])C2([H])c4c([H])c([H])c([H])c([H])c4C([H])([H])C([H])([H])C2([H])[H])C3([H])[H])nc(C([H])([H])[H])c(C([H])([H])[N+]([H])([H])C([H])([H])C2([H])N(C(=O)N3C([H])([H])C([H])([H])C([H])([H])C([H])(n4nc(-c5c([H])c([H])c(Oc6c([H])c([H])c(F)c([H])c6F)c([H])c5[H])c(C(=O)N([H])[H])c4N([H])[H])C3([H])[H])C([H])([H])C2([H])[H])c1[H]

$$$$
25:0:0
     RDKit          3D

 94103  0  0  1  0  0  0  0  0999 V2000
  -27.8400  -22.3290   19.9300 C   0  0  0  0  0  0  0  0  0  0  0  0
  -28.5630  -23.5660   19.8100 C   0  0  0  0  0  0  0  0  0  0  0  0
  -30.4970  -22.2510   19.6060 C   0  0  0  0  0  0  0  0  0  0  0  0
  -29.7630  -21.0170   19.7250 C   0  0  0  0  0  0  0  0  0  0  0  0
  -26.3280  -22.2910   20.0730 C   0  0  0  0  0  1  0  0  0  0  0  0
  -29.9140  -23.5000   19.6490 N   0  0  0  0  0  0  0  0  0  0  0  0
  -28.4240  -21.0920   19.8950 N   0  0  0  0  0  0  0  0  0  0  0  0
  -30.3790  -19.7210   19.6610 N   0  0  0  0  0  0  0  0  0  0  0  0
  -31.3870  -19.7270   19.5410 H   0  0  0  0  0  0  0  0  0  0  0  0
  -30.8810  -14.6970   19.8040 C   0  0  0  0  0  0  0  0  0  0  0  0
  -30.5770  -12.3860   18.9230 C   0  0  0  0  0  2  0  0  0  0  0  0
  -29.5670  -12.3880   17.7560 C   0  0  0  0  0  2  0  0  0  0  0  0
  -28.1270  -12.2380   18.2860 C   0  0  0  0  0  2  0  0  0  0  0  0
  -27.8250  -13.1910   19.4750 C   0  0  0  0  0  3  0  0  0  0  0  0
  -28.9560  -13.1540   20.5270 C   0  0  0  0  0  2  0  0  0  0  0  0
  -30.2050  -13.4950   19.8330 N   0  0  0  0  0  0  0  0  0  0  0  0
  -32.0230  -14.7300   19.3370 O   0  0  0  0  0  0  0  0  0  0  0  0
  -29.3330  -17.8750   21.0710 C   0  0  0  0  0  2  0  0  0  0  0  0
  -29.2820  -16.3250   20.9820 C   0  0  0  0  0  2  0  0  0  0  0  0
  -30.6320  -17.1630   19.2320 C   0  0  0  0  0  2  0  0  0  0  0  0
  -29.7310  -18.3700   19.6800 C   0  0  0  0  0  3  0  0  0  0  0  0
  -30.1940  -15.8990   19.9120 N   0  0  0  0  0  0  0  0  0  0  0  0
  -25.5220  -13.8150   20.4210 C   0  0  0  0  0  0  0  0  0  0  0  0
  -24.4680  -13.0540   20.8470 C   0  0  0  0  0  0  0  0  0  0  0  0
  -24.8840  -11.6940   20.7170 C   0  0  0  0  0  0  0  0  0  0  0  0
  -26.5170  -12.9200   20.0620 N   0  0  0  0  0  0  0  0  0  0  0  0
  -26.1430  -11.6350   20.2990 N   0  0  0  0  0  0  0  0  0  0  0  0
  -24.1360  -10.4450   20.9100 C   0  0  0  0  0  0  0  0  0  0  0  0
  -24.5630   -9.4620   21.8300 C   0  0  0  0  0  3  0  0  0  0  0  0
  -23.8150   -8.2790   22.0130 C   0  0  0  0  0  3  0  0  0  0  0  0
  -22.6260   -8.0690   21.2750 C   0  0  0  0  0  0  0  0  0  0  0  0
  -22.2170   -9.0400   20.3440 C   0  0  0  0  0  3  0  0  0  0  0  0
  -22.9650  -10.2150   20.1600 C   0  0  0  0  0  3  0  0  0  0  0  0
  -21.8500   -6.9390   21.3680 O   0  0  0  0  0  0  0  0  0  0  0  0
  -21.7440   -6.2330   22.5400 C   0  0  0  0  0  0  0  0  0  0  0  0
  -21.2460   -6.8220   23.7220 C   0  0  0  0  0  3  0  0  0  0  0  0
  -21.0890   -6.0420   24.8850 C   0  0  0  0  0  3  0  0  0  0  0  0
  -21.4190   -4.6740   24.8660 C   0  0  0  0  0  0  0  0  0  0  0  0
  -21.9100   -4.0840   23.6870 C   0  0  0  0  0  3  0  0  0  0  0  0
  -22.0680   -4.8610   22.5270 C   0  0  0  0  0  0  0  0  0  0  0  0
  -22.5210   -4.2830   21.3890 F   0  0  0  0  0  0  0  0  0  0  0  0
  -21.2610   -3.9220   25.9810 F   0  0  0  0  0  0  0  0  0  0  0  0
  -23.1140  -13.5560   21.2570 C   0  0  0  0  0  0  0  0  0  0  0  0
  -22.4500  -12.8540   22.1690 N   0  0  0  0  0  0  0  0  0  0  0  0
  -22.6580  -14.6050   20.8050 O   0  0  0  0  0  0  0  0  0  0  0  0
  -22.8340  -12.0060   22.5570 H   0  0  0  0  0  0  0  0  0  0  0  0
  -21.5440  -13.1720   22.4850 H   0  0  0  0  0  0  0  0  0  0  0  0
  -25.7090  -15.1870   20.2870 N   0  0  0  0  0  0  0  0  0  0  0  0
  -24.9690  -15.8520   20.4840 H   0  0  0  0  0  0  0  0  0  0  0  0
  -26.5320  -15.6180   19.8870 H   0  0  0  0  0  0  0  0  0  0  0  0
  -32.7680  -22.2920   20.7440 C   0  0  0  0  0  1  0  0  0  0  0  0
  -32.0060  -22.2680   19.4130 C   0  0  0  0  0  2  0  0  0  0  0  0
  -27.7500  -24.9220   19.7150 C   0  0  0  0  0  2  0  0  0  0  0  0
  -28.1790  -26.3170   20.0430 O   0  0  0  0  0  0  0  0  0  0  0  0
  -24.5900  -31.7860   23.1980 C   0  0  0  0  0  0  0  0  0  0  0  0
  -27.1220  -27.2640   19.9870 C   0  0  0  0  0  0  0  0  0  0  0  0
  -23.3610  -30.4390   21.5420 C   0  0  0  0  0  3  0  0  0  0  0  0
  -24.7840  -28.9350   20.0520 C   0  0  0  0  0  0  0  0  0  0  0  0
  -25.9080  -30.7330   21.3450 C   0  0  0  0  0  2  0  0  0  0  0  0
  -25.9690  -29.3730   20.6570 C   0  0  0  0  0  0  0  0  0  0  0  0
  -27.1410  -28.5500   20.6240 C   0  0  0  0  0  3  0  0  0  0  0  0
  -25.9140  -26.9240   19.3220 C   0  0  0  0  0  3  0  0  0  0  0  0
  -24.7600  -27.7140   19.3760 C   0  0  0  0  0  3  0  0  0  0  0  0
  -23.5560  -29.8140   20.1400 C   0  0  0  0  0  2  0  0  0  0  0  0
  -24.6400  -31.0010   22.0830 N   0  0  0  0  0  0  0  0  0  0  0  0
  -23.5140  -32.0570   23.7500 O   0  0  0  0  0  0  0  0  0  0  0  0
  -22.7030  -29.3960   22.4780 C   0  0  0  0  0  0  0  0  0  0  0  0
  -21.3790  -29.2090   22.3420 N   0  0  0  0  0  0  0  0  0  0  0  0
  -23.3840  -28.7610   23.2880 O   0  0  0  0  0  0  0  0  0  0  0  0
  -20.8890  -29.7730   21.6620 H   0  0  0  0  0  0  0  0  0  0  0  0
  -18.0070  -27.9820   22.8140 C   0  0  0  0  0  0  0  0  0  0  0  0
  -20.5640  -28.2540   23.0960 C   0  0  0  0  0  3  0  0  0  0  0  0
  -20.6760  -26.8320   22.5000 C   0  0  0  0  0  2  0  0  0  0  0  0
  -19.5790  -26.5160   21.4790 C   0  0  0  0  0  2  0  0  0  0  0  0
  -18.1950  -26.6430   22.1200 C   0  0  0  0  0  2  0  0  0  0  0  0
  -19.1200  -28.7450   23.2580 C   0  0  0  0  0  0  0  0  0  0  0  0
  -18.8900  -29.9980   23.8670 C   0  0  0  0  0  3  0  0  0  0  0  0
  -17.5800  -30.4870   24.0360 C   0  0  0  0  0  3  0  0  0  0  0  0
  -16.4840  -29.7210   23.6080 C   0  0  0  0  0  3  0  0  0  0  0  0
  -16.6980  -28.4700   23.0020 C   0  0  0  0  0  3  0  0  0  0  0  0
  -25.8830  -32.3960   23.8190 C   0  0  0  0  0  3  0  0  0  0  0  0
  -25.6040  -33.8050   24.1290 N   0  0  0  0  0  0  0  0  0  0  0  0
  -25.9270  -34.8370   23.3390 C   0  0  0  0  0  0  0  0  0  0  0  0
  -26.5650  -34.7040   22.2910 O   0  0  0  0  0  0  0  0  0  0  0  0
  -25.0350  -33.9840   24.9440 H   0  0  0  0  0  0  0  0  0  0  0  0
  -24.2020  -36.6400   23.0170 C   0  0  0  0  0  1  0  0  0  0  0  0
  -25.4740  -36.2420   23.7830 C   0  0  0  0  0  3  0  0  0  0  0  0
  -27.6450  -37.1310   24.5070 C   0  0  0  0  0  1  0  0  0  0  0  0
  -26.5100  -37.2810   23.5990 N   0  0  0  0  0  0  0  0  0  0  0  0
  -26.1170  -38.2100   23.7330 H   0  0  0  0  0  0  0  0  0  0  0  0
  -26.3720  -31.6290   25.1090 C   0  0  1  0  0  0  0  0  0  0  0  0
  -25.2650  -31.4240   26.1690 C   0  0  0  0  0  1  0  0  0  0  0  0
  -26.9340  -30.2360   24.7410 C   0  0  0  0  0  1  0  0  0  0  0  0
  -27.5320  -32.4100   25.7720 C   0  0  0  0  0  1  0  0  0  0  0  0
  1  5  1  0
  2  1  2  0
  3  6  2  0
  3  4  1  0
  4  7  2  0
  6  2  1  0
  7  1  1  0
  8  4  1  0
  9  8  1  0
 10 16  1  0
 10 22  1  0
 11 16  1  0
 12 13  1  0
 12 11  1  0
 14 13  1  0
 14 26  1  0
 14 15  1  0
 16 15  1  0
 17 10  2  0
 19 18  1  0
 20 21  1  0
 20 22  1  0
 21  8  1  0
 21 18  1  0
 22 19  1  0
 23 24  2  0
 24 43  1  0
 25 24  1  0
 25 28  1  0
 26 27  1  0
 26 23  1  0
 27 25  2  0
 28 29  1  0
 29 30  2  0
 31 34  1  0
 31 30  1  0
 32 31  2  0
 33 32  1  0
 33 28  2  0
 34 35  1  0
 35 36  1  0
 36 37  2  0
 38 37  1  0
 38 42  1  0
 39 38  2  0
 40 35  2  0
 40 39  1  0
 41 40  1  0
 43 44  1  0
 44 47  1  0
 44 46  1  0
 45 43  2  0
 48 23  1  0
 48 49  1  0
 50 48  1  0
 52  3  1  0
 52 51  1  0
 53  2  1  0
 53 54  1  0
 55 66  2  0
 56 54  1  0
 56 61  1  0
 57 65  1  0
 57 67  1  0
 58 64  1  0
 58 60  1  0
 59 65  1  0
 60 59  1  0
 61 60  2  0
 62 63  1  0
 62 56  2  0
 63 58  2  0
 64 57  1  0
 65 55  1  0
 67 69  2  0
 68 67  1  0
 70 68  1  0
 71 80  2  0
 71 76  1  0
 72 68  1  0
 72 76  1  0
 73 72  1  0
 74 75  1  0
 74 73  1  0
 75 71  1  0
 76 77  2  0
 77 78  1  0
 79 78  2  0
 80 79  1  0
 81 55  1  0
 81 82  1  0
 81 91  1  0
 82 85  1  0
 83 87  1  0
 83 82  1  0
 84 83  2  0
 87 86  1  0
 89 90  1  0
 89 87  1  0
 89 88  1  0
 91 94  1  1
 91 92  1  0
 93 91  1  0
M  ISO  4  10 100  22 100  53 101  54 101
M  END
>  <TORSDO>  (26) 
F 18

>  <SCORE>  (26) 
-13.861

>  <name>  (26) 
25

>  <ligand_id>  (26) 
25

>  <original_smiles>  (26) 
[H]c1c([H])c([H])c2c(c1[H])C([H])([H])C([H])([H])C([H])([H])C2([H])N([H])C(=O)C1([H])N(C(=O)C([H])(N([H])C(=O)C([H])(N([H])C([H])([H])[H])C([H])([H])[H])C(C([H])([H])[H])(C([H])([H])[H])C([H])([H])[H])C([H])([H])c2c([H])c(OC([H])([H])c3nc(C([H])([H])C([H])([H])[H])c(N([H])C4([H])C([H])([H])N(C(=O)N5C([H])([H])C([H])([H])C([H])([H])C([H])(n6nc(-c7c([H])c([H])c(Oc8c([H])c([H])c(F)c([H])c8F)c([H])c7[H])c(C(=O)N([H])[H])c6N([H])[H])C5([H])[H])C([H])([H])C4([H])[H])nc3C([H])([H])[H])c([H])c([H])c2C1([H])[H]

>  <smiles>  (26) 
[H]c1c([H])c([H])c2c(c1[H])C([H])([H])C([H])([H])C([H])([H])C2([H])N([H])C(=O)C1([H])N(C(=O)C([H])(N([H])C(=O)C([H])(N([H])C([H])([H])[H])C([H])([H])[H])C(C([H])([H])[H])(C([H])([H])[H])C([H])([H])[H])C([H])([H])c2c([H])c(OC([H])([H])c3nc(C([H])([H])C([H])([H])[H])c(N([H])C4([H])C([H])([H])N(C(=O)N5C([H])([H])C([H])([H])C([H])([H])C([H])(n6nc(-c7c([H])c([H])c(Oc8c([H])c([H])c(F)c([H])c8F)c([H])c7[H])c(C(=O)N([H])[H])c6N([H])[H])C5([H])[H])C([H])([H])C4([H])[H])nc3C([H])([H])[H])c([H])c([H])c2C1([H])[H]

$$$$
26:0:0
     RDKit          3D

 89 98  0  0  1  0  0  0  0  0999 V2000
  -30.5130  -15.4390   20.2560 C   0  0  0  0  0  0  0  0  0  0  0  0
  -30.4860  -12.9840   19.3140 C   0  0  0  0  0  2  0  0  0  0  0  0
  -29.5380  -12.7070   18.1170 C   0  0  0  0  0  2  0  0  0  0  0  0
  -28.0990  -12.4370   18.5940 C   0  0  0  0  0  2  0  0  0  0  0  0
  -27.6640  -13.4000   19.7270 C   0  0  0  0  0  3  0  0  0  0  0  0
  -28.7450  -13.5820   20.8130 C   0  0  0  0  0  2  0  0  0  0  0  0
  -29.9300  -14.1330   20.1290 N   0  0  0  0  0  0  0  0  0  0  0  0
  -31.7490  -15.3850   20.1090 O   0  0  0  0  0  0  0  0  0  0  0  0
  -30.4250  -18.5510   21.9200 C   0  0  0  0  0  3  0  0  0  0  0  0
  -30.4340  -19.8240   22.5400 C   0  0  0  0  0  0  0  0  0  0  0  0
  -29.8560  -18.3290   20.6540 C   0  0  0  0  0  0  0  0  0  0  0  0
  -29.3720  -20.9640   20.7650 C   0  0  0  0  0  0  0  0  0  0  0  0
  -31.0460  -19.9700   23.9320 C   0  0  0  0  0  1  0  0  0  0  0  0
  -29.9330  -20.9640   21.9790 N   0  0  0  0  0  0  0  0  0  0  0  0
  -29.3450  -19.6360   20.1270 N   0  0  0  0  0  0  0  0  0  0  0  0
  -29.7650  -16.7470   20.2110 N   0  0  0  0  0  0  0  0  0  0  0  0
  -28.8500  -16.5590   19.8340 H   0  0  0  0  0  0  0  0  0  0  0  0
  -25.3330  -13.9530   20.5910 C   0  0  0  0  0  0  0  0  0  0  0  0
  -24.2730  -13.1780   20.9670 C   0  0  0  0  0  0  0  0  0  0  0  0
  -24.7220  -11.8220   20.8760 C   0  0  0  0  0  0  0  0  0  0  0  0
  -26.3550  -13.0750   20.2790 N   0  0  0  0  0  0  0  0  0  0  0  0
  -26.0010  -11.7840   20.5180 N   0  0  0  0  0  0  0  0  0  0  0  0
  -23.9810  -10.5660   21.0490 C   0  0  0  0  0  0  0  0  0  0  0  0
  -24.4040   -9.5760   21.9610 C   0  0  0  0  0  3  0  0  0  0  0  0
  -23.6600   -8.3880   22.1250 C   0  0  0  0  0  3  0  0  0  0  0  0
  -22.4740   -8.1800   21.3790 C   0  0  0  0  0  0  0  0  0  0  0  0
  -22.0670   -9.1620   20.4570 C   0  0  0  0  0  3  0  0  0  0  0  0
  -22.8140  -10.3410   20.2890 C   0  0  0  0  0  3  0  0  0  0  0  0
  -21.7050   -7.0440   21.4520 O   0  0  0  0  0  0  0  0  0  0  0  0
  -21.6400   -6.2920   22.5990 C   0  0  0  0  0  0  0  0  0  0  0  0
  -21.1890   -6.8380   23.8210 C   0  0  0  0  0  3  0  0  0  0  0  0
  -21.0660   -6.0150   24.9570 C   0  0  0  0  0  3  0  0  0  0  0  0
  -21.3780   -4.6460   24.8750 C   0  0  0  0  0  0  0  0  0  0  0  0
  -21.8230   -4.1000   23.6580 C   0  0  0  0  0  3  0  0  0  0  0  0
  -21.9510   -4.9190   22.5230 C   0  0  0  0  0  0  0  0  0  0  0  0
  -22.3570   -4.3810   21.3480 F   0  0  0  0  0  0  0  0  0  0  0  0
  -21.2560   -3.8530   25.9670 F   0  0  0  0  0  0  0  0  0  0  0  0
  -22.8910  -13.6670   21.2940 C   0  0  0  0  0  0  0  0  0  0  0  0
  -22.1800  -12.9630   22.1660 N   0  0  0  0  0  0  0  0  0  0  0  0
  -22.4540  -14.7100   20.8110 O   0  0  0  0  0  0  0  0  0  0  0  0
  -22.5420  -12.1200   22.5840 H   0  0  0  0  0  0  0  0  0  0  0  0
  -21.2540  -13.2810   22.4250 H   0  0  0  0  0  0  0  0  0  0  0  0
  -25.5080  -15.3290   20.4640 N   0  0  0  0  0  0  0  0  0  0  0  0
  -24.7510  -15.9780   20.6560 H   0  0  0  0  0  0  0  0  0  0  0  0
  -26.3540  -15.7910   20.1620 H   0  0  0  0  0  0  0  0  0  0  0  0
  -27.7040  -23.2030   19.7500 C   0  0  0  0  0  2  0  0  0  0  0  0
  -29.0670  -22.6410   20.1770 C   0  0  0  0  0  3  0  0  0  0  0  0
  -28.3190  -24.2060   20.7070 C   0  0  0  0  0  3  0  0  0  0  0  0
  -28.3730  -25.8440   20.3080 O   0  0  0  0  0  0  0  0  0  0  0  0
  -24.6050  -31.8220   23.1560 C   0  0  0  0  0  0  0  0  0  0  0  0
  -27.3200  -26.9280   20.2790 C   0  0  0  0  0  0  0  0  0  0  0  0
  -23.4880  -30.4140   21.4720 C   0  0  0  0  0  3  0  0  0  0  0  0
  -25.0080  -28.8150   20.1160 C   0  0  0  0  0  0  0  0  0  0  0  0
  -26.0560  -30.6510   21.4240 C   0  0  0  0  0  2  0  0  0  0  0  0
  -26.1690  -29.2330   20.7790 C   0  0  0  0  0  0  0  0  0  0  0  0
  -27.3210  -28.3120   20.8210 C   0  0  0  0  0  3  0  0  0  0  0  0
  -26.1270  -26.6730   19.5620 C   0  0  0  0  0  3  0  0  0  0  0  0
  -25.0160  -27.5600   19.4810 C   0  0  0  0  0  3  0  0  0  0  0  0
  -23.7860  -29.7340   20.1050 C   0  0  0  0  0  2  0  0  0  0  0  0
  -24.7350  -30.9920   22.0720 N   0  0  0  0  0  0  0  0  0  0  0  0
  -23.4930  -32.1000   23.6390 O   0  0  0  0  0  0  0  0  0  0  0  0
  -22.7710  -29.4110   22.4150 C   0  0  0  0  0  0  0  0  0  0  0  0
  -21.4390  -29.2630   22.2730 N   0  0  0  0  0  0  0  0  0  0  0  0
  -23.4180  -28.7700   23.2480 O   0  0  0  0  0  0  0  0  0  0  0  0
  -20.9690  -29.8300   21.5800 H   0  0  0  0  0  0  0  0  0  0  0  0
  -18.0290  -28.1250   22.7810 C   0  0  0  0  0  0  0  0  0  0  0  0
  -20.5980  -28.3200   23.0210 C   0  0  0  0  0  3  0  0  0  0  0  0
  -20.6560  -26.9070   22.3960 C   0  0  0  0  0  2  0  0  0  0  0  0
  -19.5340  -26.6490   21.3850 C   0  0  0  0  0  2  0  0  0  0  0  0
  -18.1630  -26.8000   22.0500 C   0  0  0  0  0  2  0  0  0  0  0  0
  -19.1710  -28.8470   23.2230 C   0  0  0  0  0  0  0  0  0  0  0  0
  -18.9900  -30.0830   23.8750 C   0  0  0  0  0  3  0  0  0  0  0  0
  -17.6980  -30.6040   24.0860 C   0  0  0  0  0  3  0  0  0  0  0  0
  -16.5720  -29.8820   23.6530 C   0  0  0  0  0  3  0  0  0  0  0  0
  -16.7360  -28.6440   23.0080 C   0  0  0  0  0  3  0  0  0  0  0  0
  -25.8450  -32.4810   23.8340 C   0  0  0  0  0  3  0  0  0  0  0  0
  -26.3040  -31.7310   25.1440 C   0  0  1  0  0  0  0  0  0  0  0  0
  -25.1620  -31.5060   26.1660 C   0  0  0  0  0  1  0  0  0  0  0  0
  -26.9140  -30.3530   24.8050 C   0  0  0  0  0  1  0  0  0  0  0  0
  -27.4190  -32.5390   25.8500 C   0  0  0  0  0  1  0  0  0  0  0  0
  -25.5020  -33.8760   24.1500 N   0  0  0  0  0  0  0  0  0  0  0  0
  -25.8290  -34.9390   23.4020 C   0  0  0  0  0  0  0  0  0  0  0  0
  -26.5150  -34.8450   22.3810 O   0  0  0  0  0  0  0  0  0  0  0  0
  -24.8990  -34.0200   24.9480 H   0  0  0  0  0  0  0  0  0  0  0  0
  -24.0750  -36.7060   23.0460 C   0  0  0  0  0  1  0  0  0  0  0  0
  -25.3210  -36.3220   23.8580 C   0  0  0  0  0  3  0  0  0  0  0  0
  -27.4340  -37.2460   24.6940 C   0  0  0  0  0  1  0  0  0  0  0  0
  -26.3330  -37.3950   23.7470 N   0  0  0  0  0  0  0  0  0  0  0  0
  -25.9050  -38.3040   23.9040 H   0  0  0  0  0  0  0  0  0  0  0  0
  2  7  1  0
  3  4  1  0
  3  2  1  0
  5  4  1  0
  5 21  1  0
  5  6  1  0
  7  1  1  0
  7  6  1  0
  8  1  2  0
  9 10  2  0
 10 13  1  0
 11  9  1  0
 12 14  2  0
 14 10  1  0
 15 11  2  0
 15 12  1  0
 16  1  1  0
 16 11  1  0
 17 16  1  0
 18 19  2  0
 19 38  1  0
 20 19  1  0
 20 23  1  0
 21 22  1  0
 21 18  1  0
 22 20  2  0
 23 24  1  0
 24 25  2  0
 26 29  1  0
 26 25  1  0
 27 26  2  0
 28 27  1  0
 28 23  2  0
 29 30  1  0
 30 31  1  0
 31 32  2  0
 33 32  1  0
 33 37  1  0
 34 33  2  0
 35 30  2  0
 35 34  1  0
 36 35  1  0
 38 39  1  0
 39 42  1  0
 39 41  1  0
 40 38  2  0
 43 18  1  0
 43 44  1  0
 45 43  1  0
 46 47  1  0
 46 48  1  0
 47 48  1  0
 47 12  1  0
 48 49  1  0
 50 61  2  0
 51 49  1  0
 51 56  1  0
 52 60  1  0
 52 62  1  0
 53 55  1  0
 54 60  1  0
 55 56  2  0
 55 54  1  0
 57 51  2  0
 58 57  1  0
 58 53  2  0
 59 53  1  0
 59 52  1  0
 60 50  1  0
 62 64  2  0
 63 62  1  0
 65 63  1  0
 66 75  2  0
 66 71  1  0
 67 63  1  0
 67 71  1  0
 68 67  1  0
 69 70  1  0
 69 68  1  0
 70 66  1  0
 71 72  2  0
 72 73  1  0
 74 73  2  0
 75 74  1  0
 76 50  1  0
 76 81  1  0
 76 77  1  0
 77 80  1  1
 77 78  1  0
 79 77  1  0
 81 84  1  0
 82 86  1  0
 82 81  1  0
 83 82  2  0
 86 85  1  0
 88 86  1  0
 88 89  1  0
 88 87  1  0
M  ISO  4   1 100  16 100  48 101  49 101
M  END
>  <TORSDO>  (27) 
F 16

>  <SCORE>  (27) 
-16.193

>  <name>  (27) 
26

>  <ligand_id>  (27) 
26

>  <original_smiles>  (27) 
[H]c1c(N([H])C(=O)N2C([H])([H])C([H])([H])C([H])([H])C([H])(n3nc(-c4c([H])c([H])c(Oc5c([H])c([H])c(F)c([H])c5F)c([H])c4[H])c(C(=O)N([H])[H])c3N([H])[H])C2([H])[H])nc(C2([H])C([H])([H])C2([H])Oc2c([H])c([H])c3c(c2[H])C([H])([H])N(C(=O)C([H])(N([H])C(=O)C([H])(N([H])C([H])([H])[H])C([H])([H])[H])C(C([H])([H])[H])(C([H])([H])[H])C([H])([H])[H])C([H])(C(=O)N([H])C2([H])c4c([H])c([H])c([H])c([H])c4C([H])([H])C([H])([H])C2([H])[H])C3([H])[H])nc1C([H])([H])[H]

>  <smiles>  (27) 
[H]c1c(N([H])C(=O)N2C([H])([H])C([H])([H])C([H])([H])C([H])(n3nc(-c4c([H])c([H])c(Oc5c([H])c([H])c(F)c([H])c5F)c([H])c4[H])c(C(=O)N([H])[H])c3N([H])[H])C2([H])[H])nc(C2([H])C([H])([H])C2([H])Oc2c([H])c([H])c3c(c2[H])C([H])([H])N(C(=O)C([H])(N([H])C(=O)C([H])(N([H])C([H])([H])[H])C([H])([H])[H])C(C([H])([H])[H])(C([H])([H])[H])C([H])([H])[H])C([H])(C(=O)N([H])C2([H])c4c([H])c([H])c([H])c([H])c4C([H])([H])C([H])([H])C2([H])[H])C3([H])[H])nc1C([H])([H])[H]

$$$$
27:0:0
     RDKit          3D

 90 99  0  0  1  0  0  0  0  0999 V2000
  -30.4320  -15.2380   20.2900 C   0  0  0  0  0  0  0  0  0  0  0  0
  -30.4700  -12.7530   19.5660 C   0  0  0  0  0  2  0  0  0  0  0  0
  -29.5850  -12.5140   18.3170 C   0  0  0  0  0  2  0  0  0  0  0  0
  -28.1160  -12.2770   18.7180 C   0  0  0  0  0  2  0  0  0  0  0  0
  -27.6370  -13.2840   19.7940 C   0  0  0  0  0  3  0  0  0  0  0  0
  -28.6500  -13.4610   20.9450 C   0  0  0  0  0  2  0  0  0  0  0  0
  -29.9090  -13.9200   20.3370 N   0  0  0  0  0  0  0  0  0  0  0  0
  -31.6450  -15.2770   20.0250 O   0  0  0  0  0  0  0  0  0  0  0  0
  -28.5020  -20.3390   20.8940 C   0  0  0  0  0  3  0  0  0  0  0  0
  -28.7010  -18.8800   21.0360 C   0  0  0  0  0  3  0  0  0  0  0  0
  -29.0900  -21.1860   19.8730 C   0  0  0  0  0  0  0  0  0  0  0  0
  -29.9020  -20.2580   19.0690 C   0  0  0  0  0  0  0  0  0  0  0  0
  -29.5350  -18.0250   20.2120 C   0  0  0  0  0  0  0  0  0  0  0  0
  -30.0810  -18.8460   19.2280 N   0  0  0  0  0  0  0  0  0  0  0  0
  -29.5920  -16.4350   20.4270 N   0  0  0  0  0  0  0  0  0  0  0  0
  -28.7060  -16.1210   20.7900 H   0  0  0  0  0  0  0  0  0  0  0  0
  -25.2550  -13.8770   20.4960 C   0  0  0  0  0  0  0  0  0  0  0  0
  -24.1760  -13.1160   20.8470 C   0  0  0  0  0  0  0  0  0  0  0  0
  -24.6290  -11.7610   20.8360 C   0  0  0  0  0  0  0  0  0  0  0  0
  -26.2930  -12.9900   20.2730 N   0  0  0  0  0  0  0  0  0  0  0  0
  -25.9270  -11.7110   20.5480 N   0  0  0  0  0  0  0  0  0  0  0  0
  -23.8870  -10.5060   21.0250 C   0  0  0  0  0  0  0  0  0  0  0  0
  -24.2920   -9.5400   21.9710 C   0  0  0  0  0  3  0  0  0  0  0  0
  -23.5470   -8.3540   22.1490 C   0  0  0  0  0  3  0  0  0  0  0  0
  -22.3810   -8.1260   21.3800 C   0  0  0  0  0  0  0  0  0  0  0  0
  -21.9920   -9.0810   20.4250 C   0  0  0  0  0  3  0  0  0  0  0  0
  -22.7390  -10.2580   20.2460 C   0  0  0  0  0  3  0  0  0  0  0  0
  -21.6130   -6.9880   21.4620 O   0  0  0  0  0  0  0  0  0  0  0  0
  -21.5380   -6.2530   22.6180 C   0  0  0  0  0  0  0  0  0  0  0  0
  -21.1150   -6.8240   23.8380 C   0  0  0  0  0  3  0  0  0  0  0  0
  -20.9850   -6.0160   24.9870 C   0  0  0  0  0  3  0  0  0  0  0  0
  -21.2700   -4.6400   24.9150 C   0  0  0  0  0  0  0  0  0  0  0  0
  -21.6880   -4.0700   23.7000 C   0  0  0  0  0  3  0  0  0  0  0  0
  -21.8190   -4.8750   22.5550 C   0  0  0  0  0  0  0  0  0  0  0  0
  -22.2010   -4.3170   21.3810 F   0  0  0  0  0  0  0  0  0  0  0  0
  -21.1400   -3.8610   26.0150 F   0  0  0  0  0  0  0  0  0  0  0  0
  -22.7780  -13.6110   21.0770 C   0  0  0  0  0  0  0  0  0  0  0  0
  -22.0240  -12.9440   21.9440 N   0  0  0  0  0  0  0  0  0  0  0  0
  -22.3590  -14.6280   20.5260 O   0  0  0  0  0  0  0  0  0  0  0  0
  -22.3710  -12.1230   22.4160 H   0  0  0  0  0  0  0  0  0  0  0  0
  -21.0870  -13.2620   22.1410 H   0  0  0  0  0  0  0  0  0  0  0  0
  -25.4390  -15.2460   20.3220 N   0  0  0  0  0  0  0  0  0  0  0  0
  -24.6860  -15.9090   20.4690 H   0  0  0  0  0  0  0  0  0  0  0  0
  -26.2910  -15.6830   20.0020 H   0  0  0  0  0  0  0  0  0  0  0  0
  -31.9860  -20.1680   17.4360 C   0  0  0  0  0  2  0  0  0  0  0  0
  -31.9910  -21.5220   18.0880 C   0  0  0  0  0  2  0  0  0  0  0  0
  -30.6750  -20.7930   17.8910 C   0  0  0  0  0  3  0  0  0  0  0  0
  -29.1160  -22.9350   19.8020 C   0  0  0  0  0  3  0  0  0  0  0  0
  -27.9830  -24.2990   19.6590 C   0  0  0  0  0  3  0  0  0  0  0  0
  -28.2130  -25.9170   19.7440 O   0  0  0  0  0  0  0  0  0  0  0  0
  -24.6530  -31.6840   23.0100 C   0  0  0  0  0  0  0  0  0  0  0  0
  -27.1800  -26.9810   19.7530 C   0  0  0  0  0  0  0  0  0  0  0  0
  -23.4380  -30.3550   21.3320 C   0  0  0  0  0  3  0  0  0  0  0  0
  -24.8680  -28.8250   19.8190 C   0  0  0  0  0  0  0  0  0  0  0  0
  -25.9970  -30.5940   21.1520 C   0  0  0  0  0  2  0  0  0  0  0  0
  -26.0630  -29.2170   20.4370 C   0  0  0  0  0  0  0  0  0  0  0  0
  -27.2150  -28.3190   20.3780 C   0  0  0  0  0  3  0  0  0  0  0  0
  -25.9530  -26.7280   19.1010 C   0  0  0  0  0  3  0  0  0  0  0  0
  -24.8370  -27.6000   19.1320 C   0  0  0  0  0  3  0  0  0  0  0  0
  -23.6460  -29.7330   19.9240 C   0  0  0  0  0  2  0  0  0  0  0  0
  -24.7190  -30.9020   21.8860 N   0  0  0  0  0  0  0  0  0  0  0  0
  -23.5730  -31.9480   23.5610 O   0  0  0  0  0  0  0  0  0  0  0  0
  -22.7650  -29.3150   22.2660 C   0  0  0  0  0  0  0  0  0  0  0  0
  -21.4290  -29.1720   22.1770 N   0  0  0  0  0  0  0  0  0  0  0  0
  -23.4490  -28.6360   23.0360 O   0  0  0  0  0  0  0  0  0  0  0  0
  -20.9290  -29.7730   21.5370 H   0  0  0  0  0  0  0  0  0  0  0  0
  -18.0470  -27.9970   22.7570 C   0  0  0  0  0  0  0  0  0  0  0  0
  -20.6190  -28.2020   22.9230 C   0  0  0  0  0  3  0  0  0  0  0  0
  -20.6680  -26.8050   22.2600 C   0  0  0  0  0  2  0  0  0  0  0  0
  -19.5170  -26.5650   21.2750 C   0  0  0  0  0  2  0  0  0  0  0  0
  -18.1660  -26.6920   21.9870 C   0  0  0  0  0  2  0  0  0  0  0  0
  -19.1980  -28.7130   23.1820 C   0  0  0  0  0  0  0  0  0  0  0  0
  -19.0280  -29.9350   23.8680 C   0  0  0  0  0  3  0  0  0  0  0  0
  -17.7410  -30.4430   24.1270 C   0  0  0  0  0  3  0  0  0  0  0  0
  -16.6050  -29.7240   23.7140 C   0  0  0  0  0  3  0  0  0  0  0  0
  -16.7590  -28.5020   23.0360 C   0  0  0  0  0  3  0  0  0  0  0  0
  -25.9340  -32.3040   23.6500 C   0  0  0  0  0  3  0  0  0  0  0  0
  -25.6030  -33.6720   24.0900 N   0  0  0  0  0  0  0  0  0  0  0  0
  -25.8890  -34.7880   23.4070 C   0  0  0  0  0  0  0  0  0  0  0  0
  -26.5220  -34.7770   22.3490 O   0  0  0  0  0  0  0  0  0  0  0  0
  -25.0320  -33.7500   24.9180 H   0  0  0  0  0  0  0  0  0  0  0  0
  -24.1140  -36.5700   23.2630 C   0  0  0  0  0  1  0  0  0  0  0  0
  -25.3970  -36.1320   23.9870 C   0  0  0  0  0  3  0  0  0  0  0  0
  -27.5510  -37.0030   24.7840 C   0  0  0  0  0  1  0  0  0  0  0  0
  -26.4040  -37.2130   23.9060 N   0  0  0  0  0  0  0  0  0  0  0  0
  -25.9880  -38.1120   24.1330 H   0  0  0  0  0  0  0  0  0  0  0  0
  -26.4860  -31.4620   24.8660 C   0  0  1  0  0  0  0  0  0  0  0  0
  -25.4210  -31.1540   25.9460 C   0  0  0  0  0  1  0  0  0  0  0  0
  -27.0710  -30.1150   24.3870 C   0  0  0  0  0  1  0  0  0  0  0  0
  -27.6470  -32.2260   25.5460 C   0  0  0  0  0  1  0  0  0  0  0  0
  1  7  1  0
  1 15  1  0
  2  7  1  0
  3  4  1  0
  3  2  1  0
  5  4  1  0
  5 20  1  0
  5  6  1  0
  7  6  1  0
  8  1  2  0
  9 10  1  0
 11  9  2  0
 12 14  2  0
 12 11  1  0
 13 15  1  0
 13 10  2  0
 14 13  1  0
 15 16  1  0
 17 18  2  0
 18 37  1  0
 19 18  1  0
 19 22  1  0
 20 17  1  0
 20 21  1  0
 21 19  2  0
 22 23  1  0
 23 24  2  0
 25 28  1  0
 25 24  1  0
 26 25  2  0
 27 26  1  0
 27 22  2  0
 28 29  1  0
 29 30  1  0
 30 31  2  0
 32 31  1  0
 32 36  1  0
 33 32  2  0
 34 29  2  0
 34 33  1  0
 35 34  1  0
 37 38  1  0
 38 41  1  0
 38 40  1  0
 39 37  2  0
 42 43  1  0
 42 17  1  0
 44 42  1  0
 45 47  1  0
 45 46  1  0
 47 46  1  0
 47 12  1  0
 48 11  1  0
 49 50  1  0
 49 48  2  0
 50 52  1  0
 51 62  2  0
 52 57  1  0
 53 61  1  0
 53 63  1  0
 54 60  1  0
 54 56  1  0
 55 61  1  0
 56 55  1  0
 57 56  2  0
 58 59  1  0
 58 52  2  0
 59 54  2  0
 60 53  1  0
 61 51  1  0
 63 65  2  0
 64 63  1  0
 66 64  1  0
 67 76  2  0
 67 72  1  0
 68 64  1  0
 68 72  1  0
 69 68  1  0
 70 71  1  0
 70 69  1  0
 71 67  1  0
 72 73  2  0
 73 74  1  0
 75 74  2  0
 76 75  1  0
 77 51  1  0
 77 78  1  0
 77 87  1  0
 78 81  1  0
 79 83  1  0
 79 78  1  0
 80 79  2  0
 83 82  1  0
 85 83  1  0
 85 86  1  0
 85 84  1  0
 87 90  1  1
 87 88  1  0
 89 87  1  0
M  ISO  4   1 100  15 100  49 101  50 101
M  END
>  <TORSDO>  (28) 
F 18

>  <SCORE>  (28) 
-14.787

>  <name>  (28) 
27

>  <ligand_id>  (28) 
27

>  <original_smiles>  (28) 
[H]c1c(N([H])C(=O)N2C([H])([H])C([H])([H])C([H])([H])C([H])(n3nc(-c4c([H])c([H])c(Oc5c([H])c([H])c(F)c([H])c5F)c([H])c4[H])c(C(=O)N([H])[H])c3N([H])[H])C2([H])[H])nc(C2([H])C([H])([H])C2([H])[H])c(C([H])([H])C([H])([H])Oc2c([H])c([H])c3c(c2[H])C([H])([H])N(C(=O)C([H])(N([H])C(=O)C([H])(N([H])C([H])([H])[H])C([H])([H])[H])C(C([H])([H])[H])(C([H])([H])[H])C([H])([H])[H])C([H])(C(=O)N([H])C2([H])c4c([H])c([H])c([H])c([H])c4C([H])([H])C([H])([H])C2([H])[H])C3([H])[H])c1[H]

>  <smiles>  (28) 
[H]c1c(N([H])C(=O)N2C([H])([H])C([H])([H])C([H])([H])C([H])(n3nc(-c4c([H])c([H])c(Oc5c([H])c([H])c(F)c([H])c5F)c([H])c4[H])c(C(=O)N([H])[H])c3N([H])[H])C2([H])[H])nc(C2([H])C([H])([H])C2([H])[H])c(C([H])([H])C([H])([H])Oc2c([H])c([H])c3c(c2[H])C([H])([H])N(C(=O)C([H])(N([H])C(=O)C([H])(N([H])C([H])([H])[H])C([H])([H])[H])C(C([H])([H])[H])(C([H])([H])[H])C([H])([H])[H])C([H])(C(=O)N([H])C2([H])c4c([H])c([H])c([H])c([H])c4C([H])([H])C([H])([H])C2([H])[H])C3([H])[H])c1[H]

$$$$
28:0:0
     RDKit          3D

 93102  0  0  1  0  0  0  0  0999 V2000
  -26.6770  -23.4830   21.3380 C   0  0  0  0  0  0  0  0  0  0  0  0
  -28.7000  -22.7770   20.6870 C   0  0  0  0  0  3  0  0  0  0  0  0
  -28.0710  -25.0490   20.5310 C   0  0  0  0  0  0  0  0  0  0  0  0
  -25.3350  -23.1610   21.9570 C   0  0  0  0  0  1  0  0  0  0  0  0
  -27.4980  -22.4570   21.1480 N   0  0  0  0  0  0  0  0  0  0  0  0
  -26.8950  -24.7630   21.0820 N   0  0  0  0  0  0  0  0  0  0  0  0
  -29.0380  -24.0800   20.3460 N   0  0  0  0  0  0  0  0  0  0  0  0
  -28.2910  -26.4220   20.1980 O   0  0  0  0  0  0  0  0  0  0  0  0
  -24.6250  -31.9690   23.2720 C   0  0  0  0  0  0  0  0  0  0  0  0
  -27.2200  -27.3770   20.1570 C   0  0  0  0  0  0  0  0  0  0  0  0
  -23.4230  -30.6010   21.6090 C   0  0  0  0  0  3  0  0  0  0  0  0
  -24.8780  -29.0740   20.1450 C   0  0  0  0  0  0  0  0  0  0  0  0
  -25.9690  -30.8950   21.4420 C   0  0  0  0  0  2  0  0  0  0  0  0
  -26.0490  -29.5210   20.7710 C   0  0  0  0  0  0  0  0  0  0  0  0
  -27.2180  -28.6850   20.7700 C   0  0  0  0  0  3  0  0  0  0  0  0
  -26.0380  -27.0430   19.4510 C   0  0  0  0  0  3  0  0  0  0  0  0
  -24.8810  -27.8470   19.4690 C   0  0  0  0  0  3  0  0  0  0  0  0
  -23.6410  -29.9540   20.2150 C   0  0  0  0  0  2  0  0  0  0  0  0
  -24.6900  -31.1750   22.1640 N   0  0  0  0  0  0  0  0  0  0  0  0
  -23.5400  -32.2380   23.8120 O   0  0  0  0  0  0  0  0  0  0  0  0
  -22.7550  -29.5680   22.5500 C   0  0  0  0  0  0  0  0  0  0  0  0
  -21.4260  -29.3950   22.4270 N   0  0  0  0  0  0  0  0  0  0  0  0
  -23.4330  -28.9280   23.3570 O   0  0  0  0  0  0  0  0  0  0  0  0
  -20.9290  -29.9840   21.7730 H   0  0  0  0  0  0  0  0  0  0  0  0
  -18.0560  -28.1670   22.9110 C   0  0  0  0  0  0  0  0  0  0  0  0
  -20.6120  -28.4370   23.1770 C   0  0  0  0  0  3  0  0  0  0  0  0
  -20.7200  -27.0150   22.5760 C   0  0  0  0  0  2  0  0  0  0  0  0
  -19.6150  -26.6990   21.5630 C   0  0  0  0  0  2  0  0  0  0  0  0
  -18.2360  -26.8270   22.2170 C   0  0  0  0  0  2  0  0  0  0  0  0
  -19.1710  -28.9290   23.3500 C   0  0  0  0  0  0  0  0  0  0  0  0
  -18.9450  -30.1780   23.9670 C   0  0  0  0  0  3  0  0  0  0  0  0
  -17.6370  -30.6690   24.1440 C   0  0  0  0  0  3  0  0  0  0  0  0
  -16.5380  -29.9060   23.7140 C   0  0  0  0  0  3  0  0  0  0  0  0
  -16.7470  -28.6560   23.1080 C   0  0  0  0  0  3  0  0  0  0  0  0
  -25.9050  -32.5960   23.9030 C   0  0  0  0  0  3  0  0  0  0  0  0
  -25.6080  -33.9990   24.2230 N   0  0  0  0  0  0  0  0  0  0  0  0
  -25.9440  -35.0460   23.4540 C   0  0  0  0  0  0  0  0  0  0  0  0
  -26.6060  -34.9290   22.4220 O   0  0  0  0  0  0  0  0  0  0  0  0
  -25.0160  -34.1650   25.0240 H   0  0  0  0  0  0  0  0  0  0  0  0
  -24.2250  -36.8500   23.1010 C   0  0  0  0  0  1  0  0  0  0  0  0
  -25.4700  -36.4410   23.9050 C   0  0  0  0  0  3  0  0  0  0  0  0
  -27.6130  -37.3230   24.7180 C   0  0  0  0  0  1  0  0  0  0  0  0
  -26.5090  -37.4860   23.7760 N   0  0  0  0  0  0  0  0  0  0  0  0
  -26.1090  -38.4100   23.9150 H   0  0  0  0  0  0  0  0  0  0  0  0
  -26.3990  -31.8310   25.1930 C   0  0  1  0  0  0  0  0  0  0  0  0
  -25.2920  -31.6220   26.2540 C   0  0  0  0  0  1  0  0  0  0  0  0
  -26.9650  -30.4390   24.8270 C   0  0  0  0  0  1  0  0  0  0  0  0
  -27.5550  -32.6160   25.8580 C   0  0  0  0  0  1  0  0  0  0  0  0
  -29.7620  -21.5700   20.8650 C   0  0  0  0  0  2  0  0  0  0  0  0
  -28.5210  -18.0520   19.5780 C   0  0  0  0  0  2  0  0  0  0  0  0
  -28.3260  -19.5910   19.8500 C   0  0  0  0  0  2  0  0  0  0  0  0
  -30.2300  -18.9040   21.0080 C   0  0  0  0  0  2  0  0  0  0  0  0
  -29.8940  -17.5890   20.1470 C   0  0  0  0  0  3  0  0  0  0  0  0
  -29.6340  -20.1230   20.2880 N   0  0  2  0  0  4  0  0  0  0  0  0
  -30.1620  -20.2030   19.4330 H   0  0  0  0  0  0  0  0  0  0  0  0
  -30.6750  -15.0100   20.3830 C   0  0  0  0  0  0  0  0  0  0  0  0
  -30.5350  -12.7030   19.3940 C   0  0  0  0  0  2  0  0  0  0  0  0
  -29.6130  -12.7410   18.1520 C   0  0  0  0  0  2  0  0  0  0  0  0
  -28.1400  -12.5480   18.5600 C   0  0  0  0  0  2  0  0  0  0  0  0
  -27.7380  -13.4410   19.7640 C   0  0  0  0  0  3  0  0  0  0  0  0
  -28.7810  -13.3750   20.9050 C   0  0  0  0  0  2  0  0  0  0  0  0
  -30.0810  -13.7600   20.3390 N   0  0  0  0  0  0  0  0  0  0  0  0
  -31.8310  -15.1400   19.9740 O   0  0  0  0  0  0  0  0  0  0  0  0
  -29.8900  -16.1280   20.6850 N   0  0  0  0  0  0  0  0  0  0  0  0
  -29.0240  -15.8680   21.1330 H   0  0  0  0  0  0  0  0  0  0  0  0
  -25.3350  -14.0170   20.4490 C   0  0  0  0  0  0  0  0  0  0  0  0
  -24.2690  -13.2370   20.8090 C   0  0  0  0  0  0  0  0  0  0  0  0
  -24.7420  -11.8890   20.7960 C   0  0  0  0  0  0  0  0  0  0  0  0
  -26.3880  -13.1430   20.2340 N   0  0  0  0  0  0  0  0  0  0  0  0
  -26.0380  -11.8590   20.5050 N   0  0  0  0  0  0  0  0  0  0  0  0
  -24.0220  -10.6240   20.9840 C   0  0  0  0  0  0  0  0  0  0  0  0
  -24.4340   -9.6750   21.9450 C   0  0  0  0  0  3  0  0  0  0  0  0
  -23.7120   -8.4750   22.1230 C   0  0  0  0  0  3  0  0  0  0  0  0
  -22.5630   -8.2160   21.3380 C   0  0  0  0  0  0  0  0  0  0  0  0
  -22.1690   -9.1550   20.3680 C   0  0  0  0  0  3  0  0  0  0  0  0
  -22.8930  -10.3450   20.1890 C   0  0  0  0  0  3  0  0  0  0  0  0
  -21.8140   -7.0670   21.4230 O   0  0  0  0  0  0  0  0  0  0  0  0
  -21.7240   -6.3500   22.5900 C   0  0  0  0  0  0  0  0  0  0  0  0
  -21.2210   -6.9240   23.7780 C   0  0  0  0  0  3  0  0  0  0  0  0
  -21.0800   -6.1330   24.9350 C   0  0  0  0  0  3  0  0  0  0  0  0
  -21.4330   -4.7700   24.9050 C   0  0  0  0  0  0  0  0  0  0  0  0
  -21.9290   -4.1960   23.7200 C   0  0  0  0  0  3  0  0  0  0  0  0
  -22.0720   -4.9860   22.5660 C   0  0  0  0  0  0  0  0  0  0  0  0
  -22.5300   -4.4230   21.4210 F   0  0  0  0  0  0  0  0  0  0  0  0
  -21.2910   -4.0070   26.0150 F   0  0  0  0  0  0  0  0  0  0  0  0
  -22.8650  -13.7080   21.0550 C   0  0  0  0  0  0  0  0  0  0  0  0
  -22.1270  -13.0130   21.9130 N   0  0  0  0  0  0  0  0  0  0  0  0
  -22.4290  -14.7270   20.5200 O   0  0  0  0  0  0  0  0  0  0  0  0
  -22.4890  -12.1890   22.3680 H   0  0  0  0  0  0  0  0  0  0  0  0
  -21.1850  -13.3120   22.1190 H   0  0  0  0  0  0  0  0  0  0  0  0
  -25.4920  -15.3880   20.2600 N   0  0  0  0  0  0  0  0  0  0  0  0
  -24.7190  -16.0380   20.3540 H   0  0  0  0  0  0  0  0  0  0  0  0
  -26.3340  -15.8170   19.8960 H   0  0  0  0  0  0  0  0  0  0  0  0
  1  4  1  0
  2 49  1  0
  2  5  1  0
  3  6  2  0
  5  1  2  0
  6  1  1  0
  7  3  2  0
  7  2  1  0
  8  3  1  0
  9 20  2  0
 10  8  1  0
 10 15  1  0
 11 19  1  0
 11 21  1  0
 12 18  1  0
 12 14  1  0
 13 19  1  0
 14 13  1  0
 15 14  2  0
 16 17  1  0
 16 10  2  0
 17 12  2  0
 18 11  1  0
 19  9  1  0
 21 23  2  0
 22 21  1  0
 24 22  1  0
 25 34  2  0
 25 30  1  0
 26 22  1  0
 26 30  1  0
 27 26  1  0
 28 29  1  0
 28 27  1  0
 29 25  1  0
 30 31  2  0
 31 32  1  0
 33 32  2  0
 34 33  1  0
 35  9  1  0
 35 36  1  0
 35 45  1  0
 36 39  1  0
 37 41  1  0
 37 36  1  0
 38 37  2  0
 41 40  1  0
 43 41  1  0
 43 44  1  0
 43 42  1  0
 45 48  1  1
 45 46  1  0
 47 45  1  0
 50 51  1  0
 50 53  1  0
 51 54  1  0
 53 64  1  0
 53 52  1  0
 54 49  1  0
 54 52  1  0
 54 55  1  6
 56 64  1  0
 57 62  1  0
 58 59  1  0
 58 57  1  0
 60 59  1  0
 60 69  1  0
 60 61  1  0
 62 56  1  0
 62 61  1  0
 63 56  2  0
 64 65  1  0
 66 67  2  0
 67 86  1  0
 68 67  1  0
 68 71  1  0
 69 66  1  0
 69 70  1  0
 70 68  2  0
 71 72  1  0
 72 73  2  0
 74 77  1  0
 74 73  1  0
 75 74  2  0
 76 75  1  0
 76 71  2  0
 77 78  1  0
 78 79  1  0
 79 80  2  0
 81 80  1  0
 81 85  1  0
 82 81  2  0
 83 78  2  0
 83 82  1  0
 84 83  1  0
 86 87  1  0
 87 90  1  0
 87 89  1  0
 88 86  2  0
 91 92  1  0
 91 66  1  0
 93 91  1  0
M  ISO  4   3 101   8 101  56 100  64 100
M  END
>  <TORSDO>  (29) 
F 18

>  <SCORE>  (29) 
-14.733

>  <name>  (29) 
28

>  <ligand_id>  (29) 
28

>  <original_smiles>  (29) 
[H]c1c([H])c([H])c2c(c1[H])C([H])([H])C([H])([H])C([H])([H])C2([H])N([H])C(=O)C1([H])N(C(=O)C([H])(N([H])C(=O)C([H])(N([H])C([H])([H])[H])C([H])([H])[H])C(C([H])([H])[H])(C([H])([H])[H])C([H])([H])[H])C([H])([H])c2c([H])c(Oc3nc(C([H])([H])[H])nc(C([H])([H])[N+]4([H])C([H])([H])C([H])([H])C([H])(N([H])C(=O)N5C([H])([H])C([H])([H])C([H])([H])C([H])(n6nc(-c7c([H])c([H])c(Oc8c([H])c([H])c(F)c([H])c8F)c([H])c7[H])c(C(=O)N([H])[H])c6N([H])[H])C5([H])[H])C4([H])[H])n3)c([H])c([H])c2C1([H])[H]

>  <smiles>  (29) 
[H]c1c([H])c([H])c2c(c1[H])C([H])([H])C([H])([H])C([H])([H])C2([H])N([H])C(=O)C1([H])N(C(=O)C([H])(N([H])C(=O)C([H])(N([H])C([H])([H])[H])C([H])([H])[H])C(C([H])([H])[H])(C([H])([H])[H])C([H])([H])[H])C([H])([H])c2c([H])c(Oc3nc(C([H])([H])[H])nc(C([H])([H])[N+]4([H])C([H])([H])C([H])([H])C([H])(N([H])C(=O)N5C([H])([H])C([H])([H])C([H])([H])C([H])(n6nc(-c7c([H])c([H])c(Oc8c([H])c([H])c(F)c([H])c8F)c([H])c7[H])c(C(=O)N([H])[H])c6N([H])[H])C5([H])[H])C4([H])[H])n3)c([H])c([H])c2C1([H])[H]

$$$$
29:0:0
     RDKit          3D

 89 98  0  0  1  0  0  0  0  0999 V2000
  -30.4170  -15.5500   20.3450 C   0  0  0  0  0  0  0  0  0  0  0  0
  -30.3980  -13.0450   19.5120 C   0  0  0  0  0  2  0  0  0  0  0  0
  -29.5250  -12.6620   18.2910 C   0  0  0  0  0  2  0  0  0  0  0  0
  -28.0970  -12.3280   18.7400 C   0  0  0  0  0  2  0  0  0  0  0  0
  -27.5810  -13.3370   19.7940 C   0  0  0  0  0  3  0  0  0  0  0  0
  -28.6030  -13.6660   20.9080 C   0  0  0  0  0  2  0  0  0  0  0  0
  -29.7830  -14.2480   20.2340 N   0  0  0  0  0  0  0  0  0  0  0  0
  -31.6450  -15.3640   20.2520 O   0  0  0  0  0  0  0  0  0  0  0  0
  -28.1230  -20.8250   20.2290 C   0  0  0  0  0  3  0  0  0  0  0  0
  -28.9300  -19.5010   20.2950 C   0  0  0  0  0  0  0  0  0  0  0  0
  -30.2730  -19.6680   20.3930 C   0  0  0  0  0  0  0  0  0  0  0  0
  -28.6480  -22.2860   20.2680 C   0  0  0  0  0  0  0  0  0  0  0  0
  -30.7760  -21.0240   20.4270 C   0  0  0  0  0  0  0  0  0  0  0  0
  -28.7370  -17.8560   20.2770 C   0  0  0  0  0  0  0  0  0  0  0  0
  -30.9390  -18.2040   20.4350 C   0  0  0  0  0  2  0  0  0  0  0  0
  -32.2700  -21.2480   20.5360 C   0  0  0  0  0  1  0  0  0  0  0  0
  -30.0260  -22.2140   20.3710 N   0  0  0  0  0  0  0  0  0  0  0  0
  -29.9350  -17.0220   20.3650 N   0  0  0  0  0  0  0  0  0  0  0  0
  -27.6040  -17.3720   20.1830 O   0  0  0  0  0  0  0  0  0  0  0  0
  -25.2070  -13.8450   20.5270 C   0  0  0  0  0  0  0  0  0  0  0  0
  -24.1530  -13.0510   20.8830 C   0  0  0  0  0  0  0  0  0  0  0  0
  -24.6460  -11.7100   20.8760 C   0  0  0  0  0  0  0  0  0  0  0  0
  -26.2670  -12.9880   20.3090 N   0  0  0  0  0  0  0  0  0  0  0  0
  -25.9440  -11.6970   20.5880 N   0  0  0  0  0  0  0  0  0  0  0  0
  -23.9350  -10.4380   21.0680 C   0  0  0  0  0  0  0  0  0  0  0  0
  -24.3740   -9.4770   22.0060 C   0  0  0  0  0  3  0  0  0  0  0  0
  -23.6580   -8.2750   22.1880 C   0  0  0  0  0  3  0  0  0  0  0  0
  -22.4880   -8.0230   21.4330 C   0  0  0  0  0  0  0  0  0  0  0  0
  -22.0680   -8.9720   20.4850 C   0  0  0  0  0  3  0  0  0  0  0  0
  -22.7850  -10.1650   20.3000 C   0  0  0  0  0  3  0  0  0  0  0  0
  -21.7430   -6.8720   21.5250 O   0  0  0  0  0  0  0  0  0  0  0  0
  -21.7110   -6.1240   22.6750 C   0  0  0  0  0  0  0  0  0  0  0  0
  -21.3040   -6.6740   23.9100 C   0  0  0  0  0  3  0  0  0  0  0  0
  -21.2200   -5.8540   25.0530 C   0  0  0  0  0  3  0  0  0  0  0  0
  -21.5320   -4.4840   24.9610 C   0  0  0  0  0  0  0  0  0  0  0  0
  -21.9320   -3.9330   23.7310 C   0  0  0  0  0  3  0  0  0  0  0  0
  -22.0180   -4.7510   22.5910 C   0  0  0  0  0  0  0  0  0  0  0  0
  -22.3830   -4.2110   21.4030 F   0  0  0  0  0  0  0  0  0  0  0  0
  -21.4430   -3.6930   26.0560 F   0  0  0  0  0  0  0  0  0  0  0  0
  -22.7440  -13.5090   21.1170 C   0  0  0  0  0  0  0  0  0  0  0  0
  -22.0140  -12.8200   21.9860 N   0  0  0  0  0  0  0  0  0  0  0  0
  -22.3000  -14.5150   20.5660 O   0  0  0  0  0  0  0  0  0  0  0  0
  -22.3870  -12.0070   22.4540 H   0  0  0  0  0  0  0  0  0  0  0  0
  -21.0680  -13.1100   22.1870 H   0  0  0  0  0  0  0  0  0  0  0  0
  -25.3450  -15.2180   20.3420 N   0  0  0  0  0  0  0  0  0  0  0  0
  -24.5630  -15.8530   20.4600 H   0  0  0  0  0  0  0  0  0  0  0  0
  -26.2060  -15.7040   20.1050 H   0  0  0  0  0  0  0  0  0  0  0  0
  -27.7900  -23.9090   20.1500 C   0  0  0  0  0  2  0  0  0  0  0  0
  -28.1130  -25.5990   20.2740 O   0  0  0  0  0  0  0  0  0  0  0  0
  -24.6410  -31.8390   23.1780 C   0  0  0  0  0  0  0  0  0  0  0  0
  -27.1500  -26.7940   20.2100 C   0  0  0  0  0  0  0  0  0  0  0  0
  -23.4430  -30.4320   21.5560 C   0  0  0  0  0  3  0  0  0  0  0  0
  -24.8810  -28.7870   20.1470 C   0  0  0  0  0  0  0  0  0  0  0  0
  -26.0180  -30.5900   21.4180 C   0  0  0  0  0  2  0  0  0  0  0  0
  -26.0790  -29.1600   20.7700 C   0  0  0  0  0  0  0  0  0  0  0  0
  -27.2020  -28.1880   20.7720 C   0  0  0  0  0  3  0  0  0  0  0  0
  -25.9210  -26.6160   19.5300 C   0  0  0  0  0  3  0  0  0  0  0  0
  -24.8370  -27.5400   19.5040 C   0  0  0  0  0  3  0  0  0  0  0  0
  -23.6730  -29.7310   20.1880 C   0  0  0  0  0  2  0  0  0  0  0  0
  -24.7240  -30.9860   22.1030 N   0  0  0  0  0  0  0  0  0  0  0  0
  -23.5510  -32.1420   23.6940 O   0  0  0  0  0  0  0  0  0  0  0  0
  -22.7360  -29.4570   22.5350 C   0  0  0  0  0  0  0  0  0  0  0  0
  -21.4020  -29.3070   22.4220 N   0  0  0  0  0  0  0  0  0  0  0  0
  -23.3980  -28.8330   23.3680 O   0  0  0  0  0  0  0  0  0  0  0  0
  -20.9190  -29.8600   21.7280 H   0  0  0  0  0  0  0  0  0  0  0  0
  -18.0140  -28.1130   22.9610 C   0  0  0  0  0  0  0  0  0  0  0  0
  -20.5770  -28.3800   23.2060 C   0  0  0  0  0  3  0  0  0  0  0  0
  -20.6700  -26.9410   22.6430 C   0  0  0  0  0  2  0  0  0  0  0  0
  -19.5630  -26.6140   21.6380 C   0  0  0  0  0  2  0  0  0  0  0  0
  -18.1850  -26.7620   22.2880 C   0  0  0  0  0  2  0  0  0  0  0  0
  -19.1360  -28.8800   23.3770 C   0  0  0  0  0  0  0  0  0  0  0  0
  -18.9180  -30.1420   23.9710 C   0  0  0  0  0  3  0  0  0  0  0  0
  -17.6130  -30.6390   24.1500 C   0  0  0  0  0  3  0  0  0  0  0  0
  -16.5070  -29.8720   23.7470 C   0  0  0  0  0  3  0  0  0  0  0  0
  -16.7080  -28.6100   23.1590 C   0  0  0  0  0  3  0  0  0  0  0  0
  -25.9090  -32.4900   23.8070 C   0  0  0  0  0  3  0  0  0  0  0  0
  -25.5840  -33.8870   24.1550 N   0  0  0  0  0  0  0  0  0  0  0  0
  -25.8960  -34.9590   23.4140 C   0  0  0  0  0  0  0  0  0  0  0  0
  -26.5480  -34.8760   22.3710 O   0  0  0  0  0  0  0  0  0  0  0  0
  -25.0010  -34.0220   24.9670 H   0  0  0  0  0  0  0  0  0  0  0  0
  -24.1430  -36.7490   23.1420 C   0  0  0  0  0  1  0  0  0  0  0  0
  -25.4130  -36.3410   23.9060 C   0  0  0  0  0  3  0  0  0  0  0  0
  -27.5660  -37.2380   24.6780 C   0  0  0  0  0  1  0  0  0  0  0  0
  -26.4330  -37.4050   23.7720 N   0  0  0  0  0  0  0  0  0  0  0  0
  -26.0240  -38.3190   23.9420 H   0  0  0  0  0  0  0  0  0  0  0  0
  -26.4250  -31.7250   25.0900 C   0  0  1  0  0  0  0  0  0  0  0  0
  -25.3320  -31.4950   26.1610 C   0  0  0  0  0  1  0  0  0  0  0  0
  -27.0070  -30.3440   24.7160 C   0  0  0  0  0  1  0  0  0  0  0  0
  -27.5760  -32.5220   25.7480 C   0  0  0  0  0  1  0  0  0  0  0  0
  1 18  1  0
  2  7  1  0
  3  4  1  0
  3  2  1  0
  5  4  1  0
  5 23  1  0
  5  6  1  0
  7  1  1  0
  7  6  1  0
  8  1  2  0
  9 12  2  0
  9 10  1  0
 10 11  2  0
 11 13  1  0
 11 15  1  0
 12 17  1  0
 13 16  1  0
 14 10  1  0
 14 18  1  0
 17 13  2  0
 18 15  1  0
 19 14  2  0
 20 21  2  0
 21 40  1  0
 22 21  1  0
 22 25  1  0
 23 20  1  0
 23 24  1  0
 24 22  2  0
 25 26  1  0
 26 27  2  0
 28 31  1  0
 28 27  1  0
 29 28  2  0
 30 29  1  0
 30 25  2  0
 31 32  1  0
 32 33  1  0
 33 34  2  0
 35 34  1  0
 35 39  1  0
 36 35  2  0
 37 32  2  0
 37 36  1  0
 38 37  1  0
 40 41  1  0
 41 44  1  0
 41 43  1  0
 42 40  2  0
 45 46  1  0
 45 20  1  0
 47 45  1  0
 48 12  1  0
 48 49  1  0
 50 61  2  0
 51 49  1  0
 51 56  1  0
 52 60  1  0
 52 62  1  0
 53 59  1  0
 53 55  1  0
 54 60  1  0
 55 56  2  0
 55 54  1  0
 57 51  2  0
 58 57  1  0
 58 53  2  0
 59 52  1  0
 60 50  1  0
 62 64  2  0
 63 62  1  0
 65 63  1  0
 66 75  2  0
 66 71  1  0
 67 63  1  0
 67 71  1  0
 68 67  1  0
 69 70  1  0
 69 68  1  0
 70 66  1  0
 71 72  2  0
 72 73  1  0
 74 73  2  0
 75 74  1  0
 76 50  1  0
 76 77  1  0
 76 86  1  0
 77 80  1  0
 78 82  1  0
 78 77  1  0
 79 78  2  0
 82 81  1  0
 84 82  1  0
 84 85  1  0
 84 83  1  0
 86 89  1  1
 86 87  1  0
 88 86  1  0
M  ISO  4   1 100  18 100  48 101  49 101
M  END
>  <TORSDO>  (30) 
F 16

>  <SCORE>  (30) 
-16.967

>  <name>  (30) 
29

>  <ligand_id>  (30) 
29

>  <original_smiles>  (30) 
[H]c1c([H])c([H])c2c(c1[H])C([H])([H])C([H])([H])C([H])([H])C2([H])N([H])C(=O)C1([H])N(C(=O)C([H])(N([H])C(=O)C([H])(N([H])C([H])([H])[H])C([H])([H])[H])C(C([H])([H])[H])(C([H])([H])[H])C([H])([H])[H])C([H])([H])c2c([H])c(OC([H])([H])c3nc(C([H])([H])[H])c4c(c3[H])C(=O)N(C(=O)N3C([H])([H])C([H])([H])C([H])([H])C([H])(n5nc(-c6c([H])c([H])c(Oc7c([H])c([H])c(F)c([H])c7F)c([H])c6[H])c(C(=O)N([H])[H])c5N([H])[H])C3([H])[H])C4([H])[H])c([H])c([H])c2C1([H])[H]

>  <smiles>  (30) 
[H]c1c([H])c([H])c2c(c1[H])C([H])([H])C([H])([H])C([H])([H])C2([H])N([H])C(=O)C1([H])N(C(=O)C([H])(N([H])C(=O)C([H])(N([H])C([H])([H])[H])C([H])([H])[H])C(C([H])([H])[H])(C([H])([H])[H])C([H])([H])[H])C([H])([H])c2c([H])c(OC([H])([H])c3nc(C([H])([H])[H])c4c(c3[H])C(=O)N(C(=O)N3C([H])([H])C([H])([H])C([H])([H])C([H])(n5nc(-c6c([H])c([H])c(Oc7c([H])c([H])c(F)c([H])c7F)c([H])c6[H])c(C(=O)N([H])[H])c5N([H])[H])C3([H])[H])C4([H])[H])c([H])c([H])c2C1([H])[H]

$$$$
30:0:0
     RDKit          3D

 89 98  0  0  1  0  0  0  0  0999 V2000
  -27.5670  -22.1370   19.9450 C   0  0  0  0  0  2  0  0  0  0  0  0
  -28.7970  -21.3440   20.0290 C   0  0  0  0  0  0  0  0  0  0  0  0
  -29.7980  -22.3760   20.2320 C   0  0  0  0  0  0  0  0  0  0  0  0
  -28.3800  -24.4310   20.2160 C   0  0  0  0  0  0  0  0  0  0  0  0
  -31.2480  -21.9650   20.3710 C   0  0  0  0  0  1  0  0  0  0  0  0
  -27.3610  -23.5460   20.0280 N   0  0  0  0  0  0  0  0  0  0  0  0
  -29.5890  -23.7830   20.3110 N   0  0  0  0  0  0  0  0  0  0  0  0
  -28.3220  -25.9360   20.2640 O   0  0  0  0  0  0  0  0  0  0  0  0
  -24.6720  -31.8390   23.2380 C   0  0  0  0  0  0  0  0  0  0  0  0
  -27.2350  -26.9550   20.2430 C   0  0  0  0  0  0  0  0  0  0  0  0
  -23.4800  -30.4380   21.6020 C   0  0  0  0  0  3  0  0  0  0  0  0
  -24.9270  -28.8240   20.1870 C   0  0  0  0  0  0  0  0  0  0  0  0
  -26.0430  -30.6510   21.4550 C   0  0  0  0  0  2  0  0  0  0  0  0
  -26.1100  -29.2380   20.8090 C   0  0  0  0  0  0  0  0  0  0  0  0
  -27.2540  -28.3240   20.8120 C   0  0  0  0  0  3  0  0  0  0  0  0
  -26.0210  -26.6890   19.5690 C   0  0  0  0  0  3  0  0  0  0  0  0
  -24.9050  -27.5700   19.5490 C   0  0  0  0  0  3  0  0  0  0  0  0
  -23.7100  -29.7470   20.2270 C   0  0  0  0  0  2  0  0  0  0  0  0
  -24.7540  -31.0040   22.1520 N   0  0  0  0  0  0  0  0  0  0  0  0
  -23.5830  -32.1290   23.7590 O   0  0  0  0  0  0  0  0  0  0  0  0
  -22.7860  -29.4450   22.5700 C   0  0  0  0  0  0  0  0  0  0  0  0
  -21.4560  -29.2820   22.4470 N   0  0  0  0  0  0  0  0  0  0  0  0
  -23.4520  -28.8210   23.4000 O   0  0  0  0  0  0  0  0  0  0  0  0
  -20.9720  -29.8360   21.7550 H   0  0  0  0  0  0  0  0  0  0  0  0
  -18.0750  -28.0690   22.9530 C   0  0  0  0  0  0  0  0  0  0  0  0
  -20.6330  -28.3460   23.2200 C   0  0  0  0  0  3  0  0  0  0  0  0
  -20.7400  -26.9110   22.6520 C   0  0  0  0  0  2  0  0  0  0  0  0
  -19.6410  -26.5800   21.6360 C   0  0  0  0  0  2  0  0  0  0  0  0
  -18.2580  -26.7210   22.2780 C   0  0  0  0  0  2  0  0  0  0  0  0
  -19.1890  -28.8390   23.3810 C   0  0  0  0  0  0  0  0  0  0  0  0
  -18.9620  -30.0990   23.9750 C   0  0  0  0  0  3  0  0  0  0  0  0
  -17.6530  -30.5910   24.1440 C   0  0  0  0  0  3  0  0  0  0  0  0
  -16.5540  -29.8200   23.7300 C   0  0  0  0  0  3  0  0  0  0  0  0
  -16.7650  -28.5600   23.1410 C   0  0  0  0  0  3  0  0  0  0  0  0
  -25.9440  -32.4840   23.8710 C   0  0  0  0  0  3  0  0  0  0  0  0
  -25.6260  -33.8850   24.2000 N   0  0  0  0  0  0  0  0  0  0  0  0
  -25.9430  -34.9440   23.4420 C   0  0  0  0  0  0  0  0  0  0  0  0
  -26.5960  -34.8430   22.4000 O   0  0  0  0  0  0  0  0  0  0  0  0
  -25.0440  -34.0350   25.0110 H   0  0  0  0  0  0  0  0  0  0  0  0
  -24.1970  -36.7320   23.1360 C   0  0  0  0  0  1  0  0  0  0  0  0
  -25.4630  -36.3320   23.9110 C   0  0  0  0  0  3  0  0  0  0  0  0
  -27.6130  -37.2370   24.6810 C   0  0  0  0  0  1  0  0  0  0  0  0
  -26.4850  -37.3920   23.7650 N   0  0  0  0  0  0  0  0  0  0  0  0
  -26.0780  -38.3100   23.9170 H   0  0  0  0  0  0  0  0  0  0  0  0
  -26.4450  -31.7250   25.1620 C   0  0  1  0  0  0  0  0  0  0  0  0
  -25.3430  -31.5020   26.2240 C   0  0  0  0  0  1  0  0  0  0  0  0
  -27.0300  -30.3420   24.7980 C   0  0  0  0  0  1  0  0  0  0  0  0
  -27.5920  -32.5240   25.8260 C   0  0  0  0  0  1  0  0  0  0  0  0
  -28.8780  -19.5980   19.7930 C   0  0  0  0  0  2  0  0  0  0  0  0
  -30.5070  -15.3080   19.8630 C   0  0  0  0  0  0  0  0  0  0  0  0
  -30.4280  -12.8770   18.9330 C   0  0  0  0  0  2  0  0  0  0  0  0
  -29.4190  -12.6770   17.7740 C   0  0  0  0  0  2  0  0  0  0  0  0
  -28.0070  -12.3960   18.3180 C   0  0  0  0  0  2  0  0  0  0  0  0
  -27.6410  -13.3380   19.4920 C   0  0  0  0  0  3  0  0  0  0  0  0
  -28.7690  -13.4600   20.5340 C   0  0  0  0  0  2  0  0  0  0  0  0
  -29.9410  -13.9990   19.8200 N   0  0  0  0  0  0  0  0  0  0  0  0
  -31.6870  -15.3200   19.4800 O   0  0  0  0  0  0  0  0  0  0  0  0
  -30.2240  -17.9820   21.6120 C   0  0  0  0  0  2  0  0  0  0  0  0
  -29.2760  -16.7780   21.4860 C   0  0  0  0  0  2  0  0  0  0  0  0
  -30.0000  -18.2440   20.1360 C   0  0  0  0  0  3  0  0  0  0  0  0
  -29.7610  -16.5810   20.1130 N   0  0  0  0  0  0  0  0  0  0  0  0
  -25.3480  -13.8740   20.4670 C   0  0  0  0  0  0  0  0  0  0  0  0
  -24.3120  -13.0870   20.8850 C   0  0  0  0  0  0  0  0  0  0  0  0
  -24.7640  -11.7370   20.7570 C   0  0  0  0  0  0  0  0  0  0  0  0
  -26.3580  -13.0050   20.0960 N   0  0  0  0  0  0  0  0  0  0  0  0
  -26.0260  -11.7110   20.3390 N   0  0  0  0  0  0  0  0  0  0  0  0
  -24.0460  -10.4710   20.9530 C   0  0  0  0  0  0  0  0  0  0  0  0
  -24.5020   -9.4930   21.8650 C   0  0  0  0  0  3  0  0  0  0  0  0
  -23.7800   -8.2950   22.0500 C   0  0  0  0  0  3  0  0  0  0  0  0
  -22.5890   -8.0640   21.3220 C   0  0  0  0  0  0  0  0  0  0  0  0
  -22.1520   -9.0290   20.3990 C   0  0  0  0  0  3  0  0  0  0  0  0
  -22.8730  -10.2200   20.2120 C   0  0  0  0  0  3  0  0  0  0  0  0
  -21.8360   -6.9170   21.4180 O   0  0  0  0  0  0  0  0  0  0  0  0
  -21.7550   -6.2050   22.5870 C   0  0  0  0  0  0  0  0  0  0  0  0
  -21.2910   -6.7880   23.7870 C   0  0  0  0  0  3  0  0  0  0  0  0
  -21.1590   -6.0000   24.9480 C   0  0  0  0  0  3  0  0  0  0  0  0
  -21.4810   -4.6300   24.9100 C   0  0  0  0  0  0  0  0  0  0  0  0
  -21.9380   -4.0460   23.7160 C   0  0  0  0  0  3  0  0  0  0  0  0
  -22.0730   -4.8310   22.5580 C   0  0  0  0  0  0  0  0  0  0  0  0
  -22.4940   -4.2590   21.4040 F   0  0  0  0  0  0  0  0  0  0  0  0
  -21.3480   -3.8710   26.0230 F   0  0  0  0  0  0  0  0  0  0  0  0
  -22.9450  -13.5570   21.2850 C   0  0  0  0  0  0  0  0  0  0  0  0
  -22.2890  -12.8390   22.1890 N   0  0  0  0  0  0  0  0  0  0  0  0
  -22.4700  -14.6000   20.8330 O   0  0  0  0  0  0  0  0  0  0  0  0
  -22.6890  -11.9970   22.5760 H   0  0  0  0  0  0  0  0  0  0  0  0
  -21.3750  -13.1340   22.5000 H   0  0  0  0  0  0  0  0  0  0  0  0
  -25.5110  -15.2510   20.3440 N   0  0  0  0  0  0  0  0  0  0  0  0
  -24.7710  -15.9080   20.5640 H   0  0  0  0  0  0  0  0  0  0  0  0
  -26.3520  -15.6990   20.0000 H   0  0  0  0  0  0  0  0  0  0  0  0
  1  6  1  0
  1  2  1  0
  2  3  2  0
  3  7  1  0
  3  5  1  0
  4  8  1  0
  4  7  2  0
  6  4  2  0
  9 20  2  0
 10  8  1  0
 10 15  1  0
 11 19  1  0
 11 21  1  0
 12 18  1  0
 12 14  1  0
 13 19  1  0
 14 15  2  0
 14 13  1  0
 16 10  2  0
 17 16  1  0
 17 12  2  0
 18 11  1  0
 19  9  1  0
 21 23  2  0
 22 21  1  0
 24 22  1  0
 25 34  2  0
 25 30  1  0
 26 22  1  0
 26 30  1  0
 27 26  1  0
 28 29  1  0
 28 27  1  0
 29 25  1  0
 30 31  2  0
 31 32  1  0
 33 32  2  0
 34 33  1  0
 35  9  1  0
 35 36  1  0
 35 45  1  0
 36 39  1  0
 37 41  1  0
 37 36  1  0
 38 37  2  0
 41 40  1  0
 43 41  1  0
 43 44  1  0
 43 42  1  0
 45 48  1  1
 45 46  1  0
 47 45  1  0
 49  2  1  0
 50 61  1  0
 51 56  1  0
 52 53  1  0
 52 51  1  0
 54 53  1  0
 54 65  1  0
 54 55  1  0
 56 50  1  0
 56 55  1  0
 57 50  2  0
 59 58  1  0
 60 49  1  0
 60 58  1  0
 61 60  1  0
 61 59  1  0
 62 63  2  0
 63 82  1  0
 64 63  1  0
 64 67  1  0
 65 66  1  0
 65 62  1  0
 66 64  2  0
 67 68  1  0
 68 69  2  0
 70 73  1  0
 70 69  1  0
 71 70  2  0
 72 71  1  0
 72 67  2  0
 73 74  1  0
 74 75  1  0
 75 76  2  0
 77 76  1  0
 77 81  1  0
 78 77  2  0
 79 74  2  0
 79 78  1  0
 80 79  1  0
 82 83  1  0
 83 86  1  0
 83 85  1  0
 84 82  2  0
 87 62  1  0
 87 88  1  0
 89 87  1  0
M  ISO  4   4 101   8 101  50 100  61 100
M  END
>  <TORSDO>  (31) 
F 17

>  <SCORE>  (31) 
-15.467

>  <name>  (31) 
30

>  <ligand_id>  (31) 
30

>  <original_smiles>  (31) 
[H]c1nc(Oc2c([H])c([H])c3c(c2[H])C([H])([H])N(C(=O)C([H])(N([H])C(=O)C([H])(N([H])C([H])([H])[H])C([H])([H])[H])C(C([H])([H])[H])(C([H])([H])[H])C([H])([H])[H])C([H])(C(=O)N([H])C2([H])c4c([H])c([H])c([H])c([H])c4C([H])([H])C([H])([H])C2([H])[H])C3([H])[H])nc(C([H])([H])[H])c1C([H])([H])C1([H])N(C(=O)N2C([H])([H])C([H])([H])C([H])([H])C([H])(n3nc(-c4c([H])c([H])c(Oc5c([H])c([H])c(F)c([H])c5F)c([H])c4[H])c(C(=O)N([H])[H])c3N([H])[H])C2([H])[H])C([H])([H])C1([H])[H]

>  <smiles>  (31) 
[H]c1nc(Oc2c([H])c([H])c3c(c2[H])C([H])([H])N(C(=O)C([H])(N([H])C(=O)C([H])(N([H])C([H])([H])[H])C([H])([H])[H])C(C([H])([H])[H])(C([H])([H])[H])C([H])([H])[H])C([H])(C(=O)N([H])C2([H])c4c([H])c([H])c([H])c([H])c4C([H])([H])C([H])([H])C2([H])[H])C3([H])[H])nc(C([H])([H])[H])c1C([H])([H])C1([H])N(C(=O)N2C([H])([H])C([H])([H])C([H])([H])C([H])(n3nc(-c4c([H])c([H])c(Oc5c([H])c([H])c(F)c([H])c5F)c([H])c4[H])c(C(=O)N([H])[H])c3N([H])[H])C2([H])[H])C([H])([H])C1([H])[H]

$$$$
31:0:0
     RDKit          3D

 90 99  0  0  1  0  0  0  0  0999 V2000
  -29.8630  -22.7060   19.8460 C   0  0  0  0  0  2  0  0  0  0  0  0
  -28.7850  -21.6420   20.1860 C   0  0  0  0  0  3  0  0  0  0  0  0
  -28.8360  -23.3240   20.6260 C   0  0  1  0  0  0  0  0  0  0  0  0
  -29.1040  -23.6260   22.0920 C   0  0  0  0  0  1  0  0  0  0  0  0
  -30.5150  -15.0110   20.3130 C   0  0  0  0  0  0  0  0  0  0  0  0
  -30.3610  -12.6510   19.3980 C   0  0  0  0  0  2  0  0  0  0  0  0
  -29.4310  -12.6170   18.1640 C   0  0  0  0  0  2  0  0  0  0  0  0
  -27.9680  -12.4120   18.5950 C   0  0  0  0  0  2  0  0  0  0  0  0
  -27.5670  -13.3350   19.7770 C   0  0  0  0  0  3  0  0  0  0  0  0
  -28.6250  -13.3540   20.9010 C   0  0  0  0  0  2  0  0  0  0  0  0
  -29.8970  -13.7580   20.2890 N   0  0  0  0  0  0  0  0  0  0  0  0
  -31.7190  -15.0150   20.0270 O   0  0  0  0  0  0  0  0  0  0  0  0
  -30.9920  -17.9140   19.1210 C   0  0  0  0  0  3  0  0  0  0  0  0
  -31.2050  -19.1890   18.5910 C   0  0  0  0  0  3  0  0  0  0  0  0
  -30.0080  -17.7010   20.0970 C   0  0  0  0  0  0  0  0  0  0  0  0
  -29.6060  -20.1880   19.9490 C   0  0  0  0  0  0  0  0  0  0  0  0
  -30.5080  -20.2700   18.9730 N   0  0  0  0  0  0  0  0  0  0  0  0
  -29.3280  -18.9070   20.4830 N   0  0  0  0  0  0  0  0  0  0  0  0
  -29.7780  -16.2290   20.5000 N   0  0  0  0  0  0  0  0  0  0  0  0
  -28.8590  -16.0650   20.8810 H   0  0  0  0  0  0  0  0  0  0  0  0
  -25.1890  -13.9080   20.5280 C   0  0  0  0  0  0  0  0  0  0  0  0
  -24.1270  -13.1330   20.9010 C   0  0  0  0  0  0  0  0  0  0  0  0
  -24.5910  -11.7820   20.8650 C   0  0  0  0  0  0  0  0  0  0  0  0
  -26.2310  -13.0310   20.2810 N   0  0  0  0  0  0  0  0  0  0  0  0
  -25.8820  -11.7460   20.5500 N   0  0  0  0  0  0  0  0  0  0  0  0
  -23.8650  -10.5190   21.0540 C   0  0  0  0  0  0  0  0  0  0  0  0
  -24.2920   -9.5500   21.9880 C   0  0  0  0  0  3  0  0  0  0  0  0
  -23.5620   -8.3550   22.1660 C   0  0  0  0  0  3  0  0  0  0  0  0
  -22.3900   -8.1190   21.4070 C   0  0  0  0  0  0  0  0  0  0  0  0
  -21.9810   -9.0770   20.4640 C   0  0  0  0  0  3  0  0  0  0  0  0
  -22.7110  -10.2630   20.2840 C   0  0  0  0  0  3  0  0  0  0  0  0
  -21.6320   -6.9760   21.4940 O   0  0  0  0  0  0  0  0  0  0  0  0
  -21.5750   -6.2360   22.6480 C   0  0  0  0  0  0  0  0  0  0  0  0
  -21.1240   -6.7900   23.8670 C   0  0  0  0  0  3  0  0  0  0  0  0
  -21.0140   -5.9760   25.0120 C   0  0  0  0  0  3  0  0  0  0  0  0
  -21.3450   -4.6100   24.9390 C   0  0  0  0  0  0  0  0  0  0  0  0
  -21.7880   -4.0550   23.7250 C   0  0  0  0  0  3  0  0  0  0  0  0
  -21.8990   -4.8660   22.5830 C   0  0  0  0  0  0  0  0  0  0  0  0
  -22.3060   -4.3220   21.4110 F   0  0  0  0  0  0  0  0  0  0  0  0
  -21.2330   -3.8250   26.0370 F   0  0  0  0  0  0  0  0  0  0  0  0
  -22.7310  -13.6100   21.1760 C   0  0  0  0  0  0  0  0  0  0  0  0
  -22.0020  -12.9120   22.0390 N   0  0  0  0  0  0  0  0  0  0  0  0
  -22.2960  -14.6400   20.6620 O   0  0  0  0  0  0  0  0  0  0  0  0
  -22.3670  -12.0820   22.4800 H   0  0  0  0  0  0  0  0  0  0  0  0
  -21.0650  -13.2160   22.2650 H   0  0  0  0  0  0  0  0  0  0  0  0
  -25.3500  -15.2800   20.3540 N   0  0  0  0  0  0  0  0  0  0  0  0
  -24.5760  -15.9260   20.4670 H   0  0  0  0  0  0  0  0  0  0  0  0
  -26.1850  -15.7240   19.9950 H   0  0  0  0  0  0  0  0  0  0  0  0
  -28.0190  -24.6650   20.0420 C   0  0  0  0  0  2  0  0  0  0  0  0
  -28.2580  -26.1860   20.3300 O   0  0  0  0  0  0  0  0  0  0  0  0
  -24.6410  -31.9000   23.2800 C   0  0  0  0  0  0  0  0  0  0  0  0
  -27.2120  -27.1810   20.2420 C   0  0  0  0  0  0  0  0  0  0  0  0
  -23.4420  -30.5110   21.6360 C   0  0  0  0  0  3  0  0  0  0  0  0
  -24.8900  -28.9390   20.2060 C   0  0  0  0  0  0  0  0  0  0  0  0
  -25.9980  -30.7670   21.4810 C   0  0  0  0  0  2  0  0  0  0  0  0
  -26.0690  -29.3770   20.8230 C   0  0  0  0  0  0  0  0  0  0  0  0
  -27.2290  -28.5140   20.8260 C   0  0  0  0  0  3  0  0  0  0  0  0
  -26.0110  -26.8520   19.5750 C   0  0  0  0  0  3  0  0  0  0  0  0
  -24.8750  -27.6910   19.5660 C   0  0  0  0  0  3  0  0  0  0  0  0
  -23.6640  -29.8390   20.2550 C   0  0  0  0  0  2  0  0  0  0  0  0
  -24.7130  -31.0820   22.1870 N   0  0  0  0  0  0  0  0  0  0  0  0
  -23.5540  -32.1860   23.8060 O   0  0  0  0  0  0  0  0  0  0  0  0
  -22.7590  -29.5020   22.5940 C   0  0  0  0  0  0  0  0  0  0  0  0
  -21.4320  -29.3310   22.4620 N   0  0  0  0  0  0  0  0  0  0  0  0
  -23.4280  -28.8760   23.4200 O   0  0  0  0  0  0  0  0  0  0  0  0
  -20.9480  -29.8880   21.7720 H   0  0  0  0  0  0  0  0  0  0  0  0
  -18.0480  -28.1290   22.9550 C   0  0  0  0  0  0  0  0  0  0  0  0
  -20.6070  -28.3920   23.2300 C   0  0  0  0  0  3  0  0  0  0  0  0
  -20.7110  -26.9600   22.6560 C   0  0  0  0  0  2  0  0  0  0  0  0
  -19.6120  -26.6370   21.6380 C   0  0  0  0  0  2  0  0  0  0  0  0
  -18.2290  -26.7810   22.2770 C   0  0  0  0  0  2  0  0  0  0  0  0
  -19.1650  -28.8930   23.3880 C   0  0  0  0  0  0  0  0  0  0  0  0
  -18.9420  -30.1530   23.9840 C   0  0  0  0  0  3  0  0  0  0  0  0
  -17.6370  -30.6510   24.1480 C   0  0  0  0  0  3  0  0  0  0  0  0
  -16.5350  -29.8850   23.7300 C   0  0  0  0  0  3  0  0  0  0  0  0
  -16.7410  -28.6260   23.1400 C   0  0  0  0  0  3  0  0  0  0  0  0
  -25.9180  -32.5320   23.9110 C   0  0  0  0  0  3  0  0  0  0  0  0
  -25.6100  -33.9330   24.2410 N   0  0  0  0  0  0  0  0  0  0  0  0
  -25.9310  -34.9870   23.4790 C   0  0  0  0  0  0  0  0  0  0  0  0
  -26.5860  -34.8830   22.4390 O   0  0  0  0  0  0  0  0  0  0  0  0
  -25.0240  -34.0880   25.0490 H   0  0  0  0  0  0  0  0  0  0  0  0
  -24.1930  -36.7800   23.1590 C   0  0  0  0  0  1  0  0  0  0  0  0
  -25.4520  -36.3780   23.9430 C   0  0  0  0  0  3  0  0  0  0  0  0
  -27.6010  -37.2730   24.7270 C   0  0  0  0  0  1  0  0  0  0  0  0
  -26.4810  -37.4320   23.8040 N   0  0  0  0  0  0  0  0  0  0  0  0
  -26.0760  -38.3530   23.9520 H   0  0  0  0  0  0  0  0  0  0  0  0
  -26.4210  -31.7650   25.1970 C   0  0  1  0  0  0  0  0  0  0  0  0
  -25.3180  -31.5370   26.2570 C   0  0  0  0  0  1  0  0  0  0  0  0
  -27.0030  -30.3820   24.8220 C   0  0  0  0  0  1  0  0  0  0  0  0
  -27.5700  -32.5580   25.8640 C   0  0  0  0  0  1  0  0  0  0  0  0
  1  2  1  0
  1  3  1  0
  2 16  1  0
  2  3  1  0
  3  4  1  1
  5 19  1  0
  6 11  1  0
  7  8  1  0
  7  6  1  0
  9  8  1  0
  9 24  1  0
  9 10  1  0
 11  5  1  0
 11 10  1  0
 12  5  2  0
 13 15  1  0
 14 17  1  0
 14 13  2  0
 15 18  2  0
 15 19  1  0
 16 18  1  0
 17 16  2  0
 19 20  1  0
 21 22  2  0
 22 41  1  0
 23 22  1  0
 23 26  1  0
 24 21  1  0
 24 25  1  0
 25 23  2  0
 26 27  1  0
 27 28  2  0
 29 32  1  0
 29 28  1  0
 30 29  2  0
 31 30  1  0
 31 26  2  0
 32 33  1  0
 33 34  1  0
 34 35  2  0
 36 35  1  0
 36 40  1  0
 37 36  2  0
 38 33  2  0
 38 37  1  0
 39 38  1  0
 41 42  1  0
 42 45  1  0
 42 44  1  0
 43 41  2  0
 46 47  1  0
 46 21  1  0
 48 46  1  0
 49 50  1  0
 49  3  1  0
 51 62  2  0
 52 50  1  0
 52 57  1  0
 53 61  1  0
 53 63  1  0
 54 60  1  0
 54 56  1  0
 55 61  1  0
 56 57  2  0
 56 55  1  0
 58 52  2  0
 59 58  1  0
 59 54  2  0
 60 53  1  0
 61 51  1  0
 63 65  2  0
 64 63  1  0
 66 64  1  0
 67 76  2  0
 67 72  1  0
 68 64  1  0
 68 72  1  0
 69 68  1  0
 70 71  1  0
 70 69  1  0
 71 67  1  0
 72 73  2  0
 73 74  1  0
 75 74  2  0
 76 75  1  0
 77 51  1  0
 77 78  1  0
 77 87  1  0
 78 81  1  0
 79 83  1  0
 79 78  1  0
 80 79  2  0
 83 82  1  0
 85 83  1  0
 85 86  1  0
 85 84  1  0
 87 90  1  1
 87 88  1  0
 89 87  1  0
M  ISO  4   5 100  19 100  49 101  50 101
M  END
>  <TORSDO>  (32) 
F 17

>  <SCORE>  (32) 
-15.055

>  <name>  (32) 
31

>  <ligand_id>  (32) 
31

>  <original_smiles>  (32) 
[H]c1nc(C2([H])C([H])([H])C2(C([H])([H])[H])C([H])([H])Oc2c([H])c([H])c3c(c2[H])C([H])([H])N(C(=O)C([H])(N([H])C(=O)C([H])(N([H])C([H])([H])[H])C([H])([H])[H])C(C([H])([H])[H])(C([H])([H])[H])C([H])([H])[H])C([H])(C(=O)N([H])C2([H])c4c([H])c([H])c([H])c([H])c4C([H])([H])C([H])([H])C2([H])[H])C3([H])[H])nc(N([H])C(=O)N2C([H])([H])C([H])([H])C([H])([H])C([H])(n3nc(-c4c([H])c([H])c(Oc5c([H])c([H])c(F)c([H])c5F)c([H])c4[H])c(C(=O)N([H])[H])c3N([H])[H])C2([H])[H])c1[H]

>  <smiles>  (32) 
[H]c1nc(C2([H])C([H])([H])C2(C([H])([H])[H])C([H])([H])Oc2c([H])c([H])c3c(c2[H])C([H])([H])N(C(=O)C([H])(N([H])C(=O)C([H])(N([H])C([H])([H])[H])C([H])([H])[H])C(C([H])([H])[H])(C([H])([H])[H])C([H])([H])[H])C([H])(C(=O)N([H])C2([H])c4c([H])c([H])c([H])c([H])c4C([H])([H])C([H])([H])C2([H])[H])C3([H])[H])nc(N([H])C(=O)N2C([H])([H])C([H])([H])C([H])([H])C([H])(n3nc(-c4c([H])c([H])c(Oc5c([H])c([H])c(F)c([H])c5F)c([H])c4[H])c(C(=O)N([H])[H])c3N([H])[H])C2([H])[H])c1[H]

$$$$
32:0:0
     RDKit          3D

 93102  0  0  1  0  0  0  0  0999 V2000
  -30.8290  -14.9510   20.0660 C   0  0  0  0  0  0  0  0  0  0  0  0
  -30.6180  -12.5190   19.4090 C   0  0  0  0  0  2  0  0  0  0  0  0
  -29.7080  -12.3370   18.1760 C   0  0  0  0  0  2  0  0  0  0  0  0
  -28.2400  -12.2020   18.6120 C   0  0  0  0  0  2  0  0  0  0  0  0
  -27.8300  -13.2700   19.6620 C   0  0  0  0  0  3  0  0  0  0  0  0
  -28.8740  -13.4360   20.7870 C   0  0  0  0  0  2  0  0  0  0  0  0
  -30.1510  -13.7370   20.1340 N   0  0  0  0  0  0  0  0  0  0  0  0
  -32.0360  -14.8840   19.8120 O   0  0  0  0  0  0  0  0  0  0  0  0
  -28.6620  -21.9130   19.0620 C   0  0  0  0  0  0  0  0  0  0  0  0
  -29.0810  -23.3230   18.9290 C   0  0  0  0  0  0  0  0  0  0  0  0
  -29.6230  -20.8460   19.3590 C   0  0  0  0  0  0  0  0  0  0  0  0
  -31.2110  -22.5360   19.3590 C   0  0  0  0  0  0  0  0  0  0  0  0
  -29.8880  -18.4830   18.4200 C   0  0  0  0  0  2  0  0  0  0  0  0
  -30.7400  -17.1790   18.8300 C   0  0  0  0  0  2  0  0  0  0  0  0
  -29.3610  -17.0370   20.7680 C   0  0  0  0  0  2  0  0  0  0  0  0
  -29.6030  -18.6500   20.7920 C   0  0  0  0  0  3  0  0  0  0  0  0
  -27.1940  -21.5650   18.8810 C   0  0  0  0  0  1  0  0  0  0  0  0
  -32.6790  -22.8770   19.4860 C   0  0  0  0  0  1  0  0  0  0  0  0
  -28.7580  -19.2810   21.9090 C   0  0  0  0  0  1  0  0  0  0  0  0
  -30.3960  -23.5610   19.0930 N   0  0  0  0  0  0  0  0  0  0  0  0
  -30.8980  -21.2420   19.4940 N   0  0  0  0  0  0  0  0  0  0  0  0
  -29.3990  -19.3850   19.5010 N   0  0  0  0  0  0  0  0  0  0  0  0
  -30.1730  -16.1970   19.8220 N   0  0  0  0  0  0  0  0  0  0  0  0
  -25.5090  -13.9640   20.4750 C   0  0  0  0  0  0  0  0  0  0  0  0
  -24.4040  -13.2440   20.8350 C   0  0  0  0  0  0  0  0  0  0  0  0
  -24.7810  -11.8680   20.7440 C   0  0  0  0  0  0  0  0  0  0  0  0
  -26.4890  -13.0330   20.1810 N   0  0  0  0  0  0  0  0  0  0  0  0
  -26.0620  -11.7640   20.4080 N   0  0  0  0  0  0  0  0  0  0  0  0
  -23.9790  -10.6480   20.8990 C   0  0  0  0  0  0  0  0  0  0  0  0
  -24.3700   -9.6120   21.7760 C   0  0  0  0  0  3  0  0  0  0  0  0
  -23.5710   -8.4580   21.9240 C   0  0  0  0  0  3  0  0  0  0  0  0
  -22.3640   -8.3330   21.1950 C   0  0  0  0  0  0  0  0  0  0  0  0
  -21.9910   -9.3560   20.3060 C   0  0  0  0  0  3  0  0  0  0  0  0
  -22.7900  -10.5010   20.1560 C   0  0  0  0  0  3  0  0  0  0  0  0
  -21.5360   -7.2380   21.2560 O   0  0  0  0  0  0  0  0  0  0  0  0
  -21.4840   -6.4370   22.3680 C   0  0  0  0  0  0  0  0  0  0  0  0
  -21.1320   -6.9470   23.6380 C   0  0  0  0  0  3  0  0  0  0  0  0
  -21.0210   -6.0760   24.7400 C   0  0  0  0  0  3  0  0  0  0  0  0
  -21.2520   -4.6970   24.5750 C   0  0  0  0  0  0  0  0  0  0  0  0
  -21.5960   -4.1860   23.3110 C   0  0  0  0  0  3  0  0  0  0  0  0
  -21.7090   -5.0540   22.2110 C   0  0  0  0  0  0  0  0  0  0  0  0
  -22.0210   -4.5530   20.9910 F   0  0  0  0  0  0  0  0  0  0  0  0
  -21.1380   -3.8600   25.6330 F   0  0  0  0  0  0  0  0  0  0  0  0
  -23.0460  -13.7980   21.1480 C   0  0  0  0  0  0  0  0  0  0  0  0
  -22.2910  -13.1180   22.0040 N   0  0  0  0  0  0  0  0  0  0  0  0
  -22.6650  -14.8670   20.6720 O   0  0  0  0  0  0  0  0  0  0  0  0
  -22.6130  -12.2510   22.4080 H   0  0  0  0  0  0  0  0  0  0  0  0
  -21.3800  -13.4710   22.2610 H   0  0  0  0  0  0  0  0  0  0  0  0
  -25.7600  -15.3280   20.3440 N   0  0  0  0  0  0  0  0  0  0  0  0
  -25.0440  -16.0290   20.4990 H   0  0  0  0  0  0  0  0  0  0  0  0
  -26.6340  -15.7190   20.0150 H   0  0  0  0  0  0  0  0  0  0  0  0
  -28.1430  -24.6130   18.5370 C   0  0  0  0  0  2  0  0  0  0  0  0
  -28.4420  -26.1200   18.7610 O   0  0  0  0  0  0  0  0  0  0  0  0
  -24.6220  -31.0600   22.6660 C   0  0  0  0  0  0  0  0  0  0  0  0
  -27.3440  -27.0470   18.8680 C   0  0  0  0  0  0  0  0  0  0  0  0
  -23.4420  -29.8560   20.8700 C   0  0  0  0  0  3  0  0  0  0  0  0
  -24.9220  -28.6210   19.1770 C   0  0  0  0  0  0  0  0  0  0  0  0
  -25.9680  -30.3090   20.6730 C   0  0  0  0  0  2  0  0  0  0  0  0
  -26.0970  -29.0430   19.8110 C   0  0  0  0  0  0  0  0  0  0  0  0
  -27.3080  -28.2730   19.6450 C   0  0  0  0  0  3  0  0  0  0  0  0
  -26.1330  -26.7360   18.2060 C   0  0  0  0  0  3  0  0  0  0  0  0
  -24.9500  -27.4830   18.3610 C   0  0  0  0  0  3  0  0  0  0  0  0
  -23.6470  -29.4170   19.3970 C   0  0  0  0  0  2  0  0  0  0  0  0
  -24.6980  -30.4210   21.4590 N   0  0  0  0  0  0  0  0  0  0  0  0
  -23.5410  -31.1920   23.2620 O   0  0  0  0  0  0  0  0  0  0  0  0
  -22.8650  -28.6690   21.6830 C   0  0  0  0  0  0  0  0  0  0  0  0
  -21.5410  -28.4550   21.5960 N   0  0  0  0  0  0  0  0  0  0  0  0
  -23.6090  -27.9520   22.3570 O   0  0  0  0  0  0  0  0  0  0  0  0
  -20.9940  -29.0900   21.0320 H   0  0  0  0  0  0  0  0  0  0  0  0
  -18.2380  -27.0560   22.1070 C   0  0  0  0  0  0  0  0  0  0  0  0
  -20.8020  -27.3670   22.2430 C   0  0  0  0  0  3  0  0  0  0  0  0
  -20.8980  -26.0620   21.4200 C   0  0  0  0  0  2  0  0  0  0  0  0
  -19.7340  -25.8770   20.4410 C   0  0  0  0  0  2  0  0  0  0  0  0
  -18.3990  -25.8530   21.1930 C   0  0  0  0  0  2  0  0  0  0  0  0
  -19.3650  -27.7760   22.5880 C   0  0  0  0  0  0  0  0  0  0  0  0
  -19.1550  -28.9060   23.4080 C   0  0  0  0  0  3  0  0  0  0  0  0
  -17.8520  -29.3170   23.7490 C   0  0  0  0  0  3  0  0  0  0  0  0
  -16.7410  -28.5920   23.2820 C   0  0  0  0  0  3  0  0  0  0  0  0
  -16.9360  -27.4630   22.4680 C   0  0  0  0  0  3  0  0  0  0  0  0
  -25.8840  -31.6750   23.3430 C   0  0  0  0  0  3  0  0  0  0  0  0
  -25.4990  -32.9790   23.9030 N   0  0  0  0  0  0  0  0  0  0  0  0
  -25.7430  -34.1620   23.3220 C   0  0  0  0  0  0  0  0  0  0  0  0
  -26.3820  -34.2710   22.2730 O   0  0  0  0  0  0  0  0  0  0  0  0
  -24.9240  -32.9630   24.7320 H   0  0  0  0  0  0  0  0  0  0  0  0
  -23.9010  -35.8780   23.3100 C   0  0  0  0  0  1  0  0  0  0  0  0
  -25.1910  -35.4240   24.0140 C   0  0  0  0  0  3  0  0  0  0  0  0
  -27.2950  -36.2970   24.9310 C   0  0  0  0  0  1  0  0  0  0  0  0
  -26.1550  -36.5450   24.0510 N   0  0  0  0  0  0  0  0  0  0  0  0
  -25.7010  -37.4030   24.3550 H   0  0  0  0  0  0  0  0  0  0  0  0
  -26.4930  -30.7500   24.4690 C   0  0  1  0  0  0  0  0  0  0  0  0
  -25.4590  -30.2890   25.5240 C   0  0  0  0  0  1  0  0  0  0  0  0
  -27.1320  -29.4830   23.8570 C   0  0  0  0  0  1  0  0  0  0  0  0
  -27.6260  -31.5030   25.2060 C   0  0  0  0  0  1  0  0  0  0  0  0
  1  7  1  0
  2  7  1  0
  3  4  1  0
  3  2  1  0
  5  4  1  0
  5 27  1  0
  5  6  1  0
  7  6  1  0
  8  1  2  0
  9 11  1  0
 10  9  2  0
 10 20  1  0
 11 21  2  0
 11 22  1  0
 12 18  1  0
 12 21  1  0
 13 14  1  0
 13 22  1  0
 14 23  1  0
 15 16  1  0
 16 19  1  0
 17  9  1  0
 20 12  2  0
 22 16  1  0
 23  1  1  0
 23 15  1  0
 24 25  2  0
 25 44  1  0
 26 25  1  0
 26 29  1  0
 27 28  1  0
 27 24  1  0
 28 26  2  0
 29 30  1  0
 30 31  2  0
 32 35  1  0
 32 31  1  0
 33 32  2  0
 34 33  1  0
 34 29  2  0
 35 36  1  0
 36 37  1  0
 37 38  2  0
 39 38  1  0
 39 43  1  0
 40 39  2  0
 41 36  2  0
 41 40  1  0
 42 41  1  0
 44 45  1  0
 45 48  1  0
 45 47  1  0
 46 44  2  0
 49 24  1  0
 49 50  1  0
 51 49  1  0
 52 53  1  0
 52 10  1  0
 53 55  1  0
 54 65  2  0
 55 60  1  0
 56 64  1  0
 56 66  1  0
 57 63  1  0
 57 59  1  0
 58 64  1  0
 59 58  1  0
 60 59  2  0
 61 62  1  0
 61 55  2  0
 62 57  2  0
 63 56  1  0
 64 54  1  0
 66 68  2  0
 67 66  1  0
 69 67  1  0
 70 79  2  0
 70 75  1  0
 71 67  1  0
 71 75  1  0
 72 71  1  0
 73 74  1  0
 73 72  1  0
 74 70  1  0
 75 76  2  0
 76 77  1  0
 78 77  2  0
 79 78  1  0
 80 54  1  0
 80 81  1  0
 80 90  1  0
 81 84  1  0
 82 81  1  0
 82 86  1  0
 83 82  2  0
 86 85  1  0
 86 88  1  0
 88 89  1  0
 88 87  1  0
 90 93  1  1
 90 91  1  0
 92 90  1  0
M  ISO  4   1 100  23 100  52 101  53 101
M  END
>  <TORSDO>  (33) 
F 16

>  <SCORE>  (33) 
-10.967

>  <name>  (33) 
32

>  <ligand_id>  (33) 
32

>  <original_smiles>  (33) 
[H]c1c([H])c([H])c2c(c1[H])C([H])([H])C([H])([H])C([H])([H])C2([H])N([H])C(=O)C1([H])N(C(=O)C([H])(N([H])C(=O)C([H])(N([H])C([H])([H])[H])C([H])([H])[H])C(C([H])([H])[H])(C([H])([H])[H])C([H])([H])[H])C([H])([H])c2c([H])c(OC([H])([H])c3nc(C([H])([H])[H])nc(N4C([H])([H])C([H])([H])N(C(=O)N5C([H])([H])C([H])([H])C([H])([H])C([H])(n6nc(-c7c([H])c([H])c(Oc8c([H])c([H])c(F)c([H])c8F)c([H])c7[H])c(C(=O)N([H])[H])c6N([H])[H])C5([H])[H])C([H])([H])C4([H])C([H])([H])[H])c3C([H])([H])[H])c([H])c([H])c2C1([H])[H]

>  <smiles>  (33) 
[H]c1c([H])c([H])c2c(c1[H])C([H])([H])C([H])([H])C([H])([H])C2([H])N([H])C(=O)C1([H])N(C(=O)C([H])(N([H])C(=O)C([H])(N([H])C([H])([H])[H])C([H])([H])[H])C(C([H])([H])[H])(C([H])([H])[H])C([H])([H])[H])C([H])([H])c2c([H])c(OC([H])([H])c3nc(C([H])([H])[H])nc(N4C([H])([H])C([H])([H])N(C(=O)N5C([H])([H])C([H])([H])C([H])([H])C([H])(n6nc(-c7c([H])c([H])c(Oc8c([H])c([H])c(F)c([H])c8F)c([H])c7[H])c(C(=O)N([H])[H])c6N([H])[H])C5([H])[H])C([H])([H])C4([H])C([H])([H])[H])c3C([H])([H])[H])c([H])c([H])c2C1([H])[H]

$$$$
33:0:0
     RDKit          3D

 89 98  0  0  1  0  0  0  0  0999 V2000
  -27.7080  -21.8140   20.3640 C   0  0  0  0  0  2  0  0  0  0  0  0
  -29.0560  -21.2120   20.6160 C   0  0  0  0  0  3  0  0  0  0  0  0
  -28.7210  -22.8590   19.9440 C   0  0  0  0  0  3  0  0  0  0  0  0
  -29.6890  -17.0220   20.1990 C   0  0  0  0  0  0  0  0  0  0  0  0
  -28.5870  -17.4350   19.4460 C   0  0  0  0  0  0  0  0  0  0  0  0
  -29.1970  -19.5060   20.2300 C   0  0  0  0  0  0  0  0  0  0  0  0
  -27.7350  -16.5920   18.5490 C   0  0  0  0  0  1  0  0  0  0  0  0
  -28.3040  -18.8410   19.4840 N   0  0  0  0  0  0  0  0  0  0  0  0
  -30.0620  -18.4170   20.6630 N   0  0  0  0  0  0  0  0  0  0  0  0
  -30.4600  -15.4950   20.2720 C   0  0  0  0  0  0  0  0  0  0  0  0
  -30.4700  -13.0710   19.3390 C   0  0  0  0  0  2  0  0  0  0  0  0
  -29.5320  -12.8670   18.1230 C   0  0  0  0  0  2  0  0  0  0  0  0
  -28.0930  -12.5620   18.5790 C   0  0  0  0  0  2  0  0  0  0  0  0
  -27.6400  -13.4780   19.7420 C   0  0  0  0  0  3  0  0  0  0  0  0
  -28.7060  -13.6390   20.8400 C   0  0  0  0  0  2  0  0  0  0  0  0
  -29.9140  -14.1800   20.1980 N   0  0  0  0  0  0  0  0  0  0  0  0
  -31.6930  -15.4750   20.1480 O   0  0  0  0  0  0  0  0  0  0  0  0
  -25.2810  -13.9550   20.5800 C   0  0  0  0  0  0  0  0  0  0  0  0
  -24.2430  -13.1400   20.9350 C   0  0  0  0  0  0  0  0  0  0  0  0
  -24.7390  -11.8030   20.8390 C   0  0  0  0  0  0  0  0  0  0  0  0
  -26.3360  -13.1120   20.2750 N   0  0  0  0  0  0  0  0  0  0  0  0
  -26.0240  -11.8090   20.5000 N   0  0  0  0  0  0  0  0  0  0  0  0
  -24.0430  -10.5180   20.9890 C   0  0  0  0  0  0  0  0  0  0  0  0
  -24.4300   -9.5770   21.9680 C   0  0  0  0  0  3  0  0  0  0  0  0
  -23.7310   -8.3590   22.1070 C   0  0  0  0  0  3  0  0  0  0  0  0
  -22.6290   -8.0730   21.2650 C   0  0  0  0  0  0  0  0  0  0  0  0
  -22.2620   -9.0040   20.2770 C   0  0  0  0  0  3  0  0  0  0  0  0
  -22.9630  -10.2130   20.1370 C   0  0  0  0  0  3  0  0  0  0  0  0
  -21.9060   -6.9060   21.3110 O   0  0  0  0  0  0  0  0  0  0  0  0
  -21.6370   -6.2720   22.4980 C   0  0  0  0  0  0  0  0  0  0  0  0
  -20.8870   -6.8930   23.5210 C   0  0  0  0  0  3  0  0  0  0  0  0
  -20.5740   -6.1800   24.6960 C   0  0  0  0  0  3  0  0  0  0  0  0
  -21.0000   -4.8460   24.8450 C   0  0  0  0  0  0  0  0  0  0  0  0
  -21.7420   -4.2250   23.8250 C   0  0  0  0  0  3  0  0  0  0  0  0
  -22.0560   -4.9350   22.6530 C   0  0  0  0  0  0  0  0  0  0  0  0
  -22.7520   -4.3250   21.6640 F   0  0  0  0  0  0  0  0  0  0  0  0
  -20.6940   -4.1580   25.9700 F   0  0  0  0  0  0  0  0  0  0  0  0
  -22.8420  -13.5750   21.2480 C   0  0  0  0  0  0  0  0  0  0  0  0
  -22.1510  -12.8420   22.1130 N   0  0  0  0  0  0  0  0  0  0  0  0
  -22.3680  -14.6010   20.7620 O   0  0  0  0  0  0  0  0  0  0  0  0
  -22.5480  -12.0120   22.5290 H   0  0  0  0  0  0  0  0  0  0  0  0
  -21.2120  -13.1140   22.3670 H   0  0  0  0  0  0  0  0  0  0  0  0
  -25.4130  -15.3360   20.4630 N   0  0  0  0  0  0  0  0  0  0  0  0
  -24.6400  -15.9680   20.6410 H   0  0  0  0  0  0  0  0  0  0  0  0
  -26.2650  -15.8150   20.2030 H   0  0  0  0  0  0  0  0  0  0  0  0
  -30.8810  -18.3220   22.9870 C   0  0  0  0  0  1  0  0  0  0  0  0
  -31.2040  -18.6570   21.5260 C   0  0  0  0  0  2  0  0  0  0  0  0
  -28.1420  -24.4890   20.4020 C   0  0  0  0  0  2  0  0  0  0  0  0
  -28.3160  -26.0670   19.9570 O   0  0  0  0  0  0  0  0  0  0  0  0
  -24.6850  -31.9130   23.1100 C   0  0  0  0  0  0  0  0  0  0  0  0
  -27.2770  -27.1380   19.9780 C   0  0  0  0  0  0  0  0  0  0  0  0
  -23.4910  -30.5270   21.4640 C   0  0  0  0  0  3  0  0  0  0  0  0
  -24.9450  -28.9740   19.9950 C   0  0  0  0  0  0  0  0  0  0  0  0
  -26.0510  -30.7880   21.2840 C   0  0  0  0  0  2  0  0  0  0  0  0
  -26.1350  -29.3910   20.6040 C   0  0  0  0  0  0  0  0  0  0  0  0
  -27.2970  -28.4960   20.5680 C   0  0  0  0  0  3  0  0  0  0  0  0
  -26.0530  -26.8730   19.3240 C   0  0  0  0  0  3  0  0  0  0  0  0
  -24.9280  -27.7370   19.3330 C   0  0  0  0  0  3  0  0  0  0  0  0
  -23.7130  -29.8730   20.0720 C   0  0  0  0  0  2  0  0  0  0  0  0
  -24.7650  -31.1020   22.0070 N   0  0  0  0  0  0  0  0  0  0  0  0
  -23.5980  -32.1750   23.6520 O   0  0  0  0  0  0  0  0  0  0  0  0
  -22.8280  -29.5030   22.4200 C   0  0  0  0  0  0  0  0  0  0  0  0
  -21.5000  -29.3130   22.3060 N   0  0  0  0  0  0  0  0  0  0  0  0
  -23.5140  -28.8770   23.2320 O   0  0  0  0  0  0  0  0  0  0  0  0
  -20.9970  -29.8720   21.6290 H   0  0  0  0  0  0  0  0  0  0  0  0
  -18.1390  -28.0650   22.8650 C   0  0  0  0  0  0  0  0  0  0  0  0
  -20.7030  -28.3490   23.0700 C   0  0  0  0  0  3  0  0  0  0  0  0
  -20.8010  -26.9340   22.4530 C   0  0  0  0  0  2  0  0  0  0  0  0
  -19.6760  -26.6300   21.4590 C   0  0  0  0  0  2  0  0  0  0  0  0
  -18.3100  -26.7400   22.1410 C   0  0  0  0  0  2  0  0  0  0  0  0
  -19.2600  -28.8280   23.2860 C   0  0  0  0  0  0  0  0  0  0  0  0
  -19.0420  -30.0670   23.9260 C   0  0  0  0  0  3  0  0  0  0  0  0
  -17.7370  -30.5450   24.1470 C   0  0  0  0  0  3  0  0  0  0  0  0
  -16.6310  -29.7800   23.7380 C   0  0  0  0  0  3  0  0  0  0  0  0
  -16.8330  -28.5420   23.1030 C   0  0  0  0  0  3  0  0  0  0  0  0
  -25.9540  -32.5650   23.7380 C   0  0  0  0  0  3  0  0  0  0  0  0
  -26.4960  -31.7780   24.9950 C   0  0  1  0  0  0  0  0  0  0  0  0
  -25.4180  -31.4990   26.0690 C   0  0  0  0  0  1  0  0  0  0  0  0
  -27.1010  -30.4190   24.5770 C   0  0  0  0  0  1  0  0  0  0  0  0
  -27.6380  -32.5790   25.6620 C   0  0  0  0  0  1  0  0  0  0  0  0
  -25.6140  -33.9480   24.1160 N   0  0  0  0  0  0  0  0  0  0  0  0
  -25.8890  -35.0350   23.3820 C   0  0  0  0  0  0  0  0  0  0  0  0
  -26.5180  -34.9800   22.3220 O   0  0  0  0  0  0  0  0  0  0  0  0
  -25.0500  -34.0620   24.9450 H   0  0  0  0  0  0  0  0  0  0  0  0
  -24.1000  -36.7940   23.1650 C   0  0  0  0  0  1  0  0  0  0  0  0
  -25.3890  -36.3990   23.9040 C   0  0  0  0  0  3  0  0  0  0  0  0
  -27.5280  -37.3320   24.6680 C   0  0  0  0  0  1  0  0  0  0  0  0
  -26.3860  -37.4830   23.7710 N   0  0  0  0  0  0  0  0  0  0  0  0
  -25.9610  -38.3890   23.9490 H   0  0  0  0  0  0  0  0  0  0  0  0
  1  2  1  0
  2  6  1  0
  3  1  1  0
  3 48  1  0
  3  2  1  0
  4 10  1  0
  4  9  1  0
  5  8  1  0
  5  4  2  0
  6  9  1  0
  7  5  1  0
  8  6  2  0
  9 47  1  0
 11 16  1  0
 12 13  1  0
 12 11  1  0
 14 13  1  0
 14 21  1  0
 14 15  1  0
 16 10  1  0
 16 15  1  0
 17 10  2  0
 18 19  2  0
 19 38  1  0
 20 19  1  0
 20 23  1  0
 21 22  1  0
 21 18  1  0
 22 20  2  0
 23 24  1  0
 24 25  2  0
 26 29  1  0
 26 25  1  0
 27 26  2  0
 28 27  1  0
 28 23  2  0
 29 30  1  0
 30 35  2  0
 30 31  1  0
 31 32  2  0
 32 33  1  0
 33 37  1  0
 34 33  2  0
 35 34  1  0
 36 35  1  0
 38 39  1  0
 39 42  1  0
 39 41  1  0
 40 38  2  0
 43 18  1  0
 43 44  1  0
 45 43  1  0
 47 46  1  0
 49 51  1  0
 49 48  1  0
 50 61  2  0
 51 56  1  0
 52 60  1  0
 52 62  1  0
 53 59  1  0
 53 55  1  0
 54 60  1  0
 55 54  1  0
 56 55  2  0
 57 58  1  0
 57 51  2  0
 58 53  2  0
 59 52  1  0
 60 50  1  0
 62 64  2  0
 63 62  1  0
 65 63  1  0
 66 75  2  0
 66 71  1  0
 67 63  1  0
 67 71  1  0
 68 67  1  0
 69 70  1  0
 69 68  1  0
 70 66  1  0
 71 72  2  0
 72 73  1  0
 74 73  2  0
 75 74  1  0
 76 50  1  0
 76 81  1  0
 76 77  1  0
 77 80  1  1
 77 78  1  0
 79 77  1  0
 81 84  1  0
 82 86  1  0
 82 81  1  0
 83 82  2  0
 86 85  1  0
 88 86  1  0
 88 89  1  0
 88 87  1  0
M  ISO  4   4 100  10 100  48 101  49 101
M  END
>  <TORSDO>  (34) 
F 19

>  <SCORE>  (34) 
-14.939

>  <name>  (34) 
33

>  <ligand_id>  (34) 
33

>  <original_smiles>  (34) 
[H]c1c([H])c([H])c2c(c1[H])C([H])([H])C([H])([H])C([H])([H])C2([H])N([H])C(=O)C1([H])N(C(=O)C([H])(N([H])C(=O)C([H])(N([H])C([H])([H])[H])C([H])([H])[H])C(C([H])([H])[H])(C([H])([H])[H])C([H])([H])[H])C([H])([H])c2c([H])c(OC([H])([H])C3([H])C([H])([H])C3([H])c3nc(C([H])([H])[H])c(C(=O)N4C([H])([H])C([H])([H])C([H])([H])C([H])(n5nc(-c6c([H])c([H])c(Oc7c([H])c([H])c(F)c([H])c7F)c([H])c6[H])c(C(=O)N([H])[H])c5N([H])[H])C4([H])[H])n3C([H])([H])C([H])([H])[H])c([H])c([H])c2C1([H])[H]

>  <smiles>  (34) 
[H]c1c([H])c([H])c2c(c1[H])C([H])([H])C([H])([H])C([H])([H])C2([H])N([H])C(=O)C1([H])N(C(=O)C([H])(N([H])C(=O)C([H])(N([H])C([H])([H])[H])C([H])([H])[H])C(C([H])([H])[H])(C([H])([H])[H])C([H])([H])[H])C([H])([H])c2c([H])c(OC([H])([H])C3([H])C([H])([H])C3([H])c3nc(C([H])([H])[H])c(C(=O)N4C([H])([H])C([H])([H])C([H])([H])C([H])(n5nc(-c6c([H])c([H])c(Oc7c([H])c([H])c(F)c([H])c7F)c([H])c6[H])c(C(=O)N([H])[H])c5N([H])[H])C4([H])[H])n3C([H])([H])C([H])([H])[H])c([H])c([H])c2C1([H])[H]

$$$$
34:0:0
     RDKit          3D

 91100  0  0  1  0  0  0  0  0999 V2000
  -30.0980  -21.2490   21.9710 C   0  0  0  0  0  3  0  0  0  0  0  0
  -30.8440  -18.9290   21.8970 C   0  0  0  0  0  3  0  0  0  0  0  0
  -30.6810  -20.1330   22.6040 C   0  0  0  0  0  0  0  0  0  0  0  0
  -29.6890  -21.1660   20.6290 C   0  0  0  0  0  0  0  0  0  0  0  0
  -30.4290  -18.8530   20.5580 C   0  0  0  0  0  0  0  0  0  0  0  0
  -29.8670  -19.9670   19.9450 N   0  0  0  0  0  0  0  0  0  0  0  0
  -31.2030  -20.2440   24.2480 Cl  0  0  0  0  0  0  0  0  0  0  0  0
  -29.8190  -23.3360   19.0360 C   0  0  0  0  0  2  0  0  0  0  0  0
  -29.0200  -22.4080   19.9210 C   0  0  0  0  0  3  0  0  0  0  0  0
  -29.1600  -23.9670   20.2500 C   0  0  0  0  0  3  0  0  0  0  0  0
  -27.9950  -25.0450   20.1060 C   0  0  0  0  0  2  0  0  0  0  0  0
  -28.2210  -26.5290   20.0930 O   0  0  0  0  0  0  0  0  0  0  0  0
  -24.5610  -31.9200   23.2690 C   0  0  0  0  0  0  0  0  0  0  0  0
  -27.1030  -27.3980   20.0680 C   0  0  0  0  0  0  0  0  0  0  0  0
  -23.3100  -30.5170   21.6700 C   0  0  0  0  0  3  0  0  0  0  0  0
  -24.7220  -29.0010   20.1630 C   0  0  0  0  0  0  0  0  0  0  0  0
  -25.8370  -30.8670   21.3850 C   0  0  0  0  0  2  0  0  0  0  0  0
  -25.9100  -29.4930   20.7210 C   0  0  0  0  0  0  0  0  0  0  0  0
  -27.1010  -28.7010   20.6670 C   0  0  0  0  0  3  0  0  0  0  0  0
  -25.8910  -26.9790   19.4710 C   0  0  0  0  0  3  0  0  0  0  0  0
  -24.7180  -27.7530   19.5280 C   0  0  0  0  0  3  0  0  0  0  0  0
  -23.4750  -29.8540   20.2770 C   0  0  0  0  0  2  0  0  0  0  0  0
  -24.5900  -31.1190   22.1640 N   0  0  0  0  0  0  0  0  0  0  0  0
  -23.4970  -32.1770   23.8520 O   0  0  0  0  0  0  0  0  0  0  0  0
  -22.7000  -29.4860   22.6500 C   0  0  0  0  0  0  0  0  0  0  0  0
  -21.3980  -29.1930   22.4930 N   0  0  0  0  0  0  0  0  0  0  0  0
  -23.3990  -28.9510   23.5140 O   0  0  0  0  0  0  0  0  0  0  0  0
  -20.8900  -29.6710   21.7630 H   0  0  0  0  0  0  0  0  0  0  0  0
  -18.1540  -27.6300   22.8500 C   0  0  0  0  0  0  0  0  0  0  0  0
  -20.6350  -28.2200   23.2780 C   0  0  0  0  0  3  0  0  0  0  0  0
  -20.9510  -26.7750   22.8260 C   0  0  0  0  0  2  0  0  0  0  0  0
  -19.9790  -26.2500   21.7650 C   0  0  0  0  0  2  0  0  0  0  0  0
  -18.5420  -26.2700   22.2960 C   0  0  0  0  0  2  0  0  0  0  0  0
  -19.1380  -28.5530   23.2960 C   0  0  0  0  0  0  0  0  0  0  0  0
  -18.7250  -29.8180   23.7680 C   0  0  0  0  0  3  0  0  0  0  0  0
  -17.3620  -30.1650   23.8020 C   0  0  0  0  0  3  0  0  0  0  0  0
  -16.3910  -29.2430   23.3740 C   0  0  0  0  0  3  0  0  0  0  0  0
  -16.7880  -27.9780   22.9050 C   0  0  0  0  0  3  0  0  0  0  0  0
  -25.8600  -32.5680   23.8390 C   0  0  0  0  0  3  0  0  0  0  0  0
  -26.4300  -31.8070   25.0990 C   0  0  1  0  0  0  0  0  0  0  0  0
  -25.3740  -31.5410   26.1980 C   0  0  0  0  0  1  0  0  0  0  0  0
  -27.0350  -30.4440   24.6910 C   0  0  0  0  0  1  0  0  0  0  0  0
  -27.5820  -32.6260   25.7270 C   0  0  0  0  0  1  0  0  0  0  0  0
  -25.5510  -33.9650   24.1780 N   0  0  0  0  0  0  0  0  0  0  0  0
  -25.8810  -35.0220   23.4240 C   0  0  0  0  0  0  0  0  0  0  0  0
  -26.5480  -34.9240   22.3900 O   0  0  0  0  0  0  0  0  0  0  0  0
  -24.9590  -34.1110   24.9820 H   0  0  0  0  0  0  0  0  0  0  0  0
  -24.1600  -36.8230   23.0790 C   0  0  0  0  0  1  0  0  0  0  0  0
  -25.3980  -36.4100   23.8910 C   0  0  0  0  0  3  0  0  0  0  0  0
  -27.5260  -37.2900   24.7410 C   0  0  0  0  0  1  0  0  0  0  0  0
  -26.4340  -37.4600   23.7880 N   0  0  0  0  0  0  0  0  0  0  0  0
  -26.0290  -38.3820   23.9330 H   0  0  0  0  0  0  0  0  0  0  0  0
  -30.7030  -17.5290   19.7400 C   0  0  0  0  0  2  0  0  0  0  0  0
  -31.1080  -15.0000   20.0680 C   0  0  0  0  0  0  0  0  0  0  0  0
  -30.8290  -12.7150   19.1300 C   0  0  0  0  0  2  0  0  0  0  0  0
  -29.8590  -12.7960   17.9310 C   0  0  0  0  0  2  0  0  0  0  0  0
  -28.4010  -12.6400   18.4080 C   0  0  0  0  0  2  0  0  0  0  0  0
  -28.0740  -13.5470   19.6260 C   0  0  0  0  0  3  0  0  0  0  0  0
  -29.1720  -13.4730   20.7140 C   0  0  0  0  0  2  0  0  0  0  0  0
  -30.4550  -13.7910   20.0750 N   0  0  0  0  0  0  0  0  0  0  0  0
  -32.2610  -15.0750   19.6400 O   0  0  0  0  0  0  0  0  0  0  0  0
  -30.3850  -16.1490   20.2980 N   0  0  0  0  0  0  0  0  0  0  0  0
  -29.4570  -16.0300   20.6700 H   0  0  0  0  0  0  0  0  0  0  0  0
  -25.7360  -14.1620   20.4880 C   0  0  0  0  0  0  0  0  0  0  0  0
  -24.6690  -13.4000   20.8770 C   0  0  0  0  0  0  0  0  0  0  0  0
  -25.0940  -12.0400   20.7660 C   0  0  0  0  0  0  0  0  0  0  0  0
  -26.7460  -13.2690   20.1660 N   0  0  0  0  0  0  0  0  0  0  0  0
  -26.3680  -11.9830   20.3910 N   0  0  0  0  0  0  0  0  0  0  0  0
  -24.3420  -10.7880   20.9390 C   0  0  0  0  0  0  0  0  0  0  0  0
  -24.7240   -9.8270   21.9020 C   0  0  0  0  0  3  0  0  0  0  0  0
  -23.9750   -8.6410   22.0650 C   0  0  0  0  0  3  0  0  0  0  0  0
  -22.8300   -8.4090   21.2630 C   0  0  0  0  0  0  0  0  0  0  0  0
  -22.4680   -9.3580   20.2920 C   0  0  0  0  0  3  0  0  0  0  0  0
  -23.2170  -10.5360   20.1280 C   0  0  0  0  0  3  0  0  0  0  0  0
  -22.0600   -7.2730   21.3330 O   0  0  0  0  0  0  0  0  0  0  0  0
  -21.8560   -6.6090   22.5160 C   0  0  0  0  0  0  0  0  0  0  0  0
  -21.2340   -7.2300   23.6210 C   0  0  0  0  0  3  0  0  0  0  0  0
  -20.9850   -6.4900   24.7960 C   0  0  0  0  0  3  0  0  0  0  0  0
  -21.3460   -5.1310   24.8620 C   0  0  0  0  0  0  0  0  0  0  0  0
  -21.9630   -4.5100   23.7620 C   0  0  0  0  0  3  0  0  0  0  0  0
  -22.2140   -5.2480   22.5900 C   0  0  0  0  0  0  0  0  0  0  0  0
  -22.7870   -4.6400   21.5240 F   0  0  0  0  0  0  0  0  0  0  0  0
  -21.1020   -4.4180   25.9860 F   0  0  0  0  0  0  0  0  0  0  0  0
  -23.2990  -13.8990   21.2370 C   0  0  0  0  0  0  0  0  0  0  0  0
  -22.6040  -13.1960   22.1240 N   0  0  0  0  0  0  0  0  0  0  0  0
  -22.8570  -14.9480   20.7690 O   0  0  0  0  0  0  0  0  0  0  0  0
  -22.9760  -12.3500   22.5280 H   0  0  0  0  0  0  0  0  0  0  0  0
  -21.6850  -13.5090   22.4040 H   0  0  0  0  0  0  0  0  0  0  0  0
  -25.9230  -15.5350   20.3560 N   0  0  0  0  0  0  0  0  0  0  0  0
  -25.1660  -16.1940   20.5020 H   0  0  0  0  0  0  0  0  0  0  0  0
  -26.7580  -15.9700   19.9830 H   0  0  0  0  0  0  0  0  0  0  0  0
  1  3  1  0
  2  3  2  0
  3  7  1  0
  4  1  2  0
  5  2  1  0
  6  5  2  0
  6  4  1  0
  8  9  1  0
  8 10  1  0
  9 10  1  0
  9  4  1  0
 10 11  1  0
 12 11  1  0
 13 24  2  0
 14 12  1  0
 14 19  1  0
 15 23  1  0
 15 25  1  0
 16 22  1  0
 16 18  1  0
 17 23  1  0
 18 17  1  0
 19 18  2  0
 20 21  1  0
 20 14  2  0
 21 16  2  0
 22 15  1  0
 23 13  1  0
 25 27  2  0
 26 25  1  0
 28 26  1  0
 29 38  2  0
 29 34  1  0
 30 26  1  0
 30 34  1  0
 31 30  1  0
 32 33  1  0
 32 31  1  0
 33 29  1  0
 34 35  2  0
 35 36  1  0
 37 36  2  0
 38 37  1  0
 39 13  1  0
 39 44  1  0
 39 40  1  0
 40 43  1  1
 40 41  1  0
 42 40  1  0
 44 47  1  0
 45 49  1  0
 45 44  1  0
 46 45  2  0
 49 48  1  0
 51 49  1  0
 51 52  1  0
 51 50  1  0
 53 62  1  0
 53  5  1  0
 54 60  1  0
 54 62  1  0
 55 60  1  0
 56 57  1  0
 56 55  1  0
 58 57  1  0
 58 67  1  0
 58 59  1  0
 60 59  1  0
 61 54  2  0
 62 63  1  0
 64 65  2  0
 65 84  1  0
 66 65  1  0
 66 69  1  0
 67 68  1  0
 67 64  1  0
 68 66  2  0
 69 70  1  0
 70 71  2  0
 72 75  1  0
 72 71  1  0
 73 72  2  0
 74 73  1  0
 74 69  2  0
 75 76  1  0
 76 81  2  0
 76 77  1  0
 77 78  2  0
 78 79  1  0
 79 83  1  0
 80 79  2  0
 81 80  1  0
 82 81  1  0
 84 85  1  0
 85 88  1  0
 85 87  1  0
 86 84  2  0
 89 64  1  0
 89 90  1  0
 91 89  1  0
M  ISO  4  11 101  12 101  54 100  62 100
M  END
>  <TORSDO>  (35) 
F 19

>  <SCORE>  (35) 
-13.549

>  <name>  (35) 
34

>  <ligand_id>  (35) 
34

>  <original_smiles>  (35) 
[H]c1c([H])c([H])c2c(c1[H])C([H])([H])C([H])([H])C([H])([H])C2([H])N([H])C(=O)C1([H])N(C(=O)C([H])(N([H])C(=O)C([H])(N([H])C([H])([H])[H])C([H])([H])[H])C(C([H])([H])[H])(C([H])([H])[H])C([H])([H])[H])C([H])([H])c2c([H])c(OC([H])([H])C3([H])C([H])([H])C3([H])c3nc(C([H])([H])N([H])C(=O)N4C([H])([H])C([H])([H])C([H])([H])C([H])(n5nc(-c6c([H])c([H])c(Oc7c([H])c([H])c(F)c([H])c7F)c([H])c6[H])c(C(=O)N([H])[H])c5N([H])[H])C4([H])[H])c([H])c(Cl)c3[H])c([H])c([H])c2C1([H])[H]

>  <smiles>  (35) 
[H]c1c([H])c([H])c2c(c1[H])C([H])([H])C([H])([H])C([H])([H])C2([H])N([H])C(=O)C1([H])N(C(=O)C([H])(N([H])C(=O)C([H])(N([H])C([H])([H])[H])C([H])([H])[H])C(C([H])([H])[H])(C([H])([H])[H])C([H])([H])[H])C([H])([H])c2c([H])c(OC([H])([H])C3([H])C([H])([H])C3([H])c3nc(C([H])([H])N([H])C(=O)N4C([H])([H])C([H])([H])C([H])([H])C([H])(n5nc(-c6c([H])c([H])c(Oc7c([H])c([H])c(F)c([H])c7F)c([H])c6[H])c(C(=O)N([H])[H])c5N([H])[H])C4([H])[H])c([H])c(Cl)c3[H])c([H])c([H])c2C1([H])[H]

$$$$
35:0:0
     RDKit          3D

 94103  0  0  1  0  0  0  0  0999 V2000
  -30.1690  -22.5600   21.2680 C   0  0  0  0  0  3  0  0  0  0  0  0
  -28.2150  -22.9180   19.4130 C   0  0  0  0  0  3  0  0  0  0  0  0
  -29.8470  -23.8880   20.8830 C   0  0  0  0  0  0  0  0  0  0  0  0
  -28.8320  -24.0960   19.9150 C   0  0  0  0  0  0  0  0  0  0  0  0
  -29.5170  -21.4510   20.6870 C   0  0  0  0  0  0  0  0  0  0  0  0
  -28.5380  -21.6400   19.7770 N   0  0  0  0  0  0  0  0  0  0  0  0
  -29.9210  -20.1470   21.0770 N   0  0  0  0  0  0  0  0  0  0  0  0
  -30.6540  -20.1120   21.7770 H   0  0  0  0  0  0  0  0  0  0  0  0
  -30.6960  -14.6850   20.0400 C   0  0  0  0  0  0  0  0  0  0  0  0
  -30.3940  -12.4910   18.9320 C   0  0  0  0  0  2  0  0  0  0  0  0
  -29.3800  -12.6570   17.7790 C   0  0  0  0  0  2  0  0  0  0  0  0
  -27.9370  -12.4780   18.2930 C   0  0  0  0  0  2  0  0  0  0  0  0
  -27.6520  -13.2980   19.5800 C   0  0  0  0  0  3  0  0  0  0  0  0
  -28.7800  -13.1150   20.6190 C   0  0  0  0  0  2  0  0  0  0  0  0
  -30.0430  -13.4830   19.9660 N   0  0  0  0  0  0  0  0  0  0  0  0
  -31.8440  -14.8020   19.5990 O   0  0  0  0  0  0  0  0  0  0  0  0
  -29.5540  -17.7620   21.7410 C   0  0  0  0  0  2  0  0  0  0  0  0
  -30.2730  -18.2610   19.4360 C   0  0  0  0  0  2  0  0  0  0  0  0
  -29.2110  -16.2920   21.3360 C   0  0  0  0  0  2  0  0  0  0  0  0
  -29.8680  -16.8120   19.0290 C   0  0  0  0  0  2  0  0  0  0  0  0
  -29.4400  -18.8230   20.6100 C   0  0  0  0  0  3  0  0  0  0  0  0
  -29.9110  -15.8120   20.1250 N   0  0  0  0  0  0  0  0  0  0  0  0
  -25.3060  -13.8470   20.4730 C   0  0  0  0  0  0  0  0  0  0  0  0
  -24.2710  -13.0510   20.8820 C   0  0  0  0  0  0  0  0  0  0  0  0
  -24.7400  -11.7060   20.7690 C   0  0  0  0  0  0  0  0  0  0  0  0
  -26.3400  -12.9870   20.1400 N   0  0  0  0  0  0  0  0  0  0  0  0
  -26.0080  -11.6910   20.3770 N   0  0  0  0  0  0  0  0  0  0  0  0
  -24.0370  -10.4300   20.9580 C   0  0  0  0  0  0  0  0  0  0  0  0
  -24.4900   -9.4680   21.8870 C   0  0  0  0  0  3  0  0  0  0  0  0
  -23.7850   -8.2570   22.0630 C   0  0  0  0  0  3  0  0  0  0  0  0
  -22.6160   -8.0000   21.3100 C   0  0  0  0  0  0  0  0  0  0  0  0
  -22.1830   -8.9520   20.3710 C   0  0  0  0  0  3  0  0  0  0  0  0
  -22.8870  -10.1540   20.1920 C   0  0  0  0  0  3  0  0  0  0  0  0
  -21.8830   -6.8410   21.3960 O   0  0  0  0  0  0  0  0  0  0  0  0
  -21.7720   -6.1450   22.5720 C   0  0  0  0  0  0  0  0  0  0  0  0
  -21.2310   -6.7310   23.7380 C   0  0  0  0  0  3  0  0  0  0  0  0
  -21.0710   -5.9600   24.9050 C   0  0  0  0  0  3  0  0  0  0  0  0
  -21.4420   -4.6010   24.9090 C   0  0  0  0  0  0  0  0  0  0  0  0
  -21.9760   -4.0140   23.7490 C   0  0  0  0  0  3  0  0  0  0  0  0
  -22.1380   -4.7840   22.5830 C   0  0  0  0  0  0  0  0  0  0  0  0
  -22.6330   -4.2070   21.4620 F   0  0  0  0  0  0  0  0  0  0  0  0
  -21.2810   -3.8580   26.0280 F   0  0  0  0  0  0  0  0  0  0  0  0
  -22.8920  -13.5040   21.2610 C   0  0  0  0  0  0  0  0  0  0  0  0
  -22.2290  -12.7730   22.1500 N   0  0  0  0  0  0  0  0  0  0  0  0
  -22.4110  -14.5400   20.8040 O   0  0  0  0  0  0  0  0  0  0  0  0
  -22.6310  -11.9340   22.5410 H   0  0  0  0  0  0  0  0  0  0  0  0
  -21.3050  -13.0570   22.4450 H   0  0  0  0  0  0  0  0  0  0  0  0
  -25.4470  -15.2250   20.3360 N   0  0  0  0  0  0  0  0  0  0  0  0
  -24.6830  -15.8660   20.5180 H   0  0  0  0  0  0  0  0  0  0  0  0
  -26.2700  -15.6830   19.9640 H   0  0  0  0  0  0  0  0  0  0  0  0
  -29.9410  -25.5820   22.7630 C   0  0  0  0  0  1  0  0  0  0  0  0
  -30.6230  -25.0390   21.5020 C   0  0  0  0  0  2  0  0  0  0  0  0
  -28.5160  -25.4810   19.2650 C   0  0  0  0  0  2  0  0  0  0  0  0
  -28.3200  -26.6500   20.1190 O   0  0  0  0  0  0  0  0  0  0  0  0
  -24.5240  -31.9080   23.1790 C   0  0  0  0  0  0  0  0  0  0  0  0
  -27.1530  -27.4180   20.0720 C   0  0  0  0  0  0  0  0  0  0  0  0
  -23.3200  -30.5200   21.5290 C   0  0  0  0  0  3  0  0  0  0  0  0
  -24.7700  -28.9870   20.0920 C   0  0  0  0  0  0  0  0  0  0  0  0
  -25.8540  -30.8560   21.3430 C   0  0  0  0  0  2  0  0  0  0  0  0
  -25.9340  -29.4860   20.6880 C   0  0  0  0  0  0  0  0  0  0  0  0
  -27.1250  -28.7090   20.6750 C   0  0  0  0  0  3  0  0  0  0  0  0
  -25.9550  -26.9480   19.4860 C   0  0  0  0  0  3  0  0  0  0  0  0
  -24.7790  -27.7210   19.4890 C   0  0  0  0  0  3  0  0  0  0  0  0
  -23.5320  -29.8550   20.1440 C   0  0  0  0  0  2  0  0  0  0  0  0
  -24.5850  -31.1100   22.0750 N   0  0  0  0  0  0  0  0  0  0  0  0
  -23.4410  -32.1790   23.7180 O   0  0  0  0  0  0  0  0  0  0  0  0
  -22.6620  -29.4930   22.4810 C   0  0  0  0  0  0  0  0  0  0  0  0
  -21.3370  -29.3180   22.3550 N   0  0  0  0  0  0  0  0  0  0  0  0
  -23.3440  -28.8580   23.2900 O   0  0  0  0  0  0  0  0  0  0  0  0
  -20.8470  -29.8820   21.6750 H   0  0  0  0  0  0  0  0  0  0  0  0
  -17.9570  -28.1370   22.8570 C   0  0  0  0  0  0  0  0  0  0  0  0
  -20.5180  -28.3760   23.1190 C   0  0  0  0  0  3  0  0  0  0  0  0
  -20.6080  -26.9510   22.5260 C   0  0  0  0  0  2  0  0  0  0  0  0
  -19.4990  -26.6470   21.5130 C   0  0  0  0  0  2  0  0  0  0  0  0
  -18.1220  -26.7940   22.1650 C   0  0  0  0  0  2  0  0  0  0  0  0
  -19.0820  -28.8870   23.2910 C   0  0  0  0  0  0  0  0  0  0  0  0
  -18.8750  -30.1450   23.8980 C   0  0  0  0  0  3  0  0  0  0  0  0
  -17.5740  -30.6520   24.0740 C   0  0  0  0  0  3  0  0  0  0  0  0
  -16.4630  -29.8990   23.6580 C   0  0  0  0  0  3  0  0  0  0  0  0
  -16.6550  -28.6440   23.0550 C   0  0  0  0  0  3  0  0  0  0  0  0
  -25.8080  -32.5360   23.8050 C   0  0  0  0  0  3  0  0  0  0  0  0
  -25.4960  -33.9310   24.1470 N   0  0  0  0  0  0  0  0  0  0  0  0
  -25.8280  -34.9900   23.3970 C   0  0  0  0  0  0  0  0  0  0  0  0
  -26.4990  -34.8960   22.3660 O   0  0  0  0  0  0  0  0  0  0  0  0
  -24.9010  -34.0780   24.9490 H   0  0  0  0  0  0  0  0  0  0  0  0
  -24.1040  -36.7880   23.0510 C   0  0  0  0  0  1  0  0  0  0  0  0
  -25.3400  -36.3740   23.8650 C   0  0  0  0  0  3  0  0  0  0  0  0
  -27.4660  -37.2530   24.7230 C   0  0  0  0  0  1  0  0  0  0  0  0
  -26.3740  -37.4270   23.7690 N   0  0  0  0  0  0  0  0  0  0  0  0
  -25.9660  -38.3470   23.9170 H   0  0  0  0  0  0  0  0  0  0  0  0
  -26.3260  -31.7550   25.0750 C   0  0  1  0  0  0  0  0  0  0  0  0
  -25.2310  -31.5020   26.1390 C   0  0  0  0  0  1  0  0  0  0  0  0
  -26.9140  -30.3830   24.6700 C   0  0  0  0  0  1  0  0  0  0  0  0
  -27.4710  -32.5470   25.7470 C   0  0  0  0  0  1  0  0  0  0  0  0
  2  6  2  0
  2  4  1  0
  3  1  1  0
  3 52  1  0
  4  3  2  0
  5  7  1  0
  5  1  2  0
  6  5  1  0
  7  8  1  0
  9 22  1  0
 10 15  1  0
 11 12  1  0
 11 10  1  0
 13 12  1  0
 13 26  1  0
 13 14  1  0
 15  9  1  0
 15 14  1  0
 16  9  2  0
 18 21  1  0
 19 17  1  0
 20 18  1  0
 20 22  1  0
 21  7  1  0
 21 17  1  0
 22 19  1  0
 23 24  2  0
 24 43  1  0
 25 24  1  0
 25 28  1  0
 26 27  1  0
 26 23  1  0
 27 25  2  0
 28 29  1  0
 29 30  2  0
 31 34  1  0
 31 30  1  0
 32 31  2  0
 33 32  1  0
 33 28  2  0
 34 35  1  0
 35 40  2  0
 35 36  1  0
 36 37  2  0
 37 38  1  0
 38 42  1  0
 39 38  2  0
 40 39  1  0
 41 40  1  0
 43 44  1  0
 44 47  1  0
 44 46  1  0
 45 43  2  0
 48 23  1  0
 48 49  1  0
 50 48  1  0
 52 51  1  0
 53  4  1  0
 53 54  1  0
 55 66  2  0
 56 54  1  0
 56 61  1  0
 57 65  1  0
 57 67  1  0
 58 64  1  0
 58 60  1  0
 59 65  1  0
 60 59  1  0
 61 60  2  0
 62 63  1  0
 62 56  2  0
 63 58  2  0
 64 57  1  0
 65 55  1  0
 67 69  2  0
 68 67  1  0
 70 68  1  0
 71 80  2  0
 71 76  1  0
 72 68  1  0
 72 76  1  0
 73 72  1  0
 74 75  1  0
 74 73  1  0
 75 71  1  0
 76 77  2  0
 77 78  1  0
 79 78  2  0
 80 79  1  0
 81 55  1  0
 81 82  1  0
 81 91  1  0
 82 85  1  0
 83 87  1  0
 83 82  1  0
 84 83  2  0
 87 86  1  0
 89 87  1  0
 89 90  1  0
 89 88  1  0
 91 94  1  1
 91 92  1  0
 93 91  1  0
M  ISO  4   9 100  22 100  53 101  54 101
M  END
>  <TORSDO>  (36) 
F 18

>  <SCORE>  (36) 
-14.106

>  <name>  (36) 
35

>  <ligand_id>  (36) 
35

>  <original_smiles>  (36) 
[H]c1nc(N([H])C2([H])C([H])([H])C([H])([H])N(C(=O)N3C([H])([H])C([H])([H])C([H])([H])C([H])(n4nc(-c5c([H])c([H])c(Oc6c([H])c([H])c(F)c([H])c6F)c([H])c5[H])c(C(=O)N([H])[H])c4N([H])[H])C3([H])[H])C([H])([H])C2([H])[H])c([H])c(C([H])([H])C([H])([H])[H])c1C([H])([H])Oc1c([H])c([H])c2c(c1[H])C([H])([H])N(C(=O)C([H])(N([H])C(=O)C([H])(N([H])C([H])([H])[H])C([H])([H])[H])C(C([H])([H])[H])(C([H])([H])[H])C([H])([H])[H])C([H])(C(=O)N([H])C1([H])c3c([H])c([H])c([H])c([H])c3C([H])([H])C([H])([H])C1([H])[H])C2([H])[H]

>  <smiles>  (36) 
[H]c1nc(N([H])C2([H])C([H])([H])C([H])([H])N(C(=O)N3C([H])([H])C([H])([H])C([H])([H])C([H])(n4nc(-c5c([H])c([H])c(Oc6c([H])c([H])c(F)c([H])c6F)c([H])c5[H])c(C(=O)N([H])[H])c4N([H])[H])C3([H])[H])C([H])([H])C2([H])[H])c([H])c(C([H])([H])C([H])([H])[H])c1C([H])([H])Oc1c([H])c([H])c2c(c1[H])C([H])([H])N(C(=O)C([H])(N([H])C(=O)C([H])(N([H])C([H])([H])[H])C([H])([H])[H])C(C([H])([H])[H])(C([H])([H])[H])C([H])([H])[H])C([H])(C(=O)N([H])C1([H])c3c([H])c([H])c([H])c([H])c3C([H])([H])C([H])([H])C1([H])[H])C2([H])[H]

$$$$
36:0:0
     RDKit          3D

 96105  0  0  1  0  0  0  0  0999 V2000
  -29.1380  -23.9260   20.4390 C   0  0  0  0  0  0  0  0  0  0  0  0
  -28.7770  -22.5070   20.5280 C   0  0  0  0  0  0  0  0  0  0  0  0
  -28.0990  -24.9430   20.3620 C   0  0  0  0  0  0  0  0  0  0  0  0
  -26.5790  -23.1910   20.5020 C   0  0  0  0  0  0  0  0  0  0  0  0
  -25.1190  -22.7960   20.5360 C   0  0  0  0  0  1  0  0  0  0  0  0
  -27.4670  -22.2050   20.5390 N   0  0  0  0  0  0  0  0  0  0  0  0
  -26.8320  -24.4920   20.4420 N   0  0  0  0  0  0  0  0  0  0  0  0
  -31.2540  -24.4740   19.1250 C   0  0  0  0  0  1  0  0  0  0  0  0
  -30.5890  -24.3780   20.5030 C   0  0  0  0  0  2  0  0  0  0  0  0
  -28.2790  -26.3820   20.2260 O   0  0  0  0  0  0  0  0  0  0  0  0
  -24.6620  -31.9430   23.2820 C   0  0  0  0  0  0  0  0  0  0  0  0
  -27.2160  -27.3370   20.1690 C   0  0  0  0  0  0  0  0  0  0  0  0
  -23.4500  -30.5800   21.6210 C   0  0  0  0  0  3  0  0  0  0  0  0
  -24.8900  -29.0450   20.1610 C   0  0  0  0  0  0  0  0  0  0  0  0
  -26.0000  -30.8540   21.4590 C   0  0  0  0  0  2  0  0  0  0  0  0
  -26.0630  -29.4790   20.7910 C   0  0  0  0  0  0  0  0  0  0  0  0
  -27.2240  -28.6330   20.7980 C   0  0  0  0  0  3  0  0  0  0  0  0
  -26.0430  -27.0270   19.4400 C   0  0  0  0  0  3  0  0  0  0  0  0
  -24.8870  -27.8260   19.4730 C   0  0  0  0  0  3  0  0  0  0  0  0
  -23.6620  -29.9330   20.2280 C   0  0  0  0  0  2  0  0  0  0  0  0
  -24.7220  -31.1450   22.1760 N   0  0  0  0  0  0  0  0  0  0  0  0
  -23.5800  -32.2220   23.8170 O   0  0  0  0  0  0  0  0  0  0  0  0
  -22.7770  -29.5510   22.5640 C   0  0  0  0  0  0  0  0  0  0  0  0
  -21.4490  -29.3850   22.4350 N   0  0  0  0  0  0  0  0  0  0  0  0
  -23.4500  -28.9100   23.3750 O   0  0  0  0  0  0  0  0  0  0  0  0
  -20.9650  -29.9540   21.7550 H   0  0  0  0  0  0  0  0  0  0  0  0
  -18.0640  -28.2000   22.9220 C   0  0  0  0  0  0  0  0  0  0  0  0
  -20.6230  -28.4420   23.1930 C   0  0  0  0  0  3  0  0  0  0  0  0
  -20.7180  -27.0170   22.5990 C   0  0  0  0  0  2  0  0  0  0  0  0
  -19.6140  -26.7150   21.5810 C   0  0  0  0  0  2  0  0  0  0  0  0
  -18.2330  -26.8580   22.2270 C   0  0  0  0  0  2  0  0  0  0  0  0
  -19.1860  -28.9500   23.3610 C   0  0  0  0  0  0  0  0  0  0  0  0
  -18.9740  -30.2050   23.9720 C   0  0  0  0  0  3  0  0  0  0  0  0
  -17.6720  -30.7110   24.1460 C   0  0  0  0  0  3  0  0  0  0  0  0
  -16.5630  -29.9570   23.7220 C   0  0  0  0  0  3  0  0  0  0  0  0
  -16.7600  -28.7040   23.1150 C   0  0  0  0  0  3  0  0  0  0  0  0
  -25.9480  -32.5590   23.9120 C   0  0  0  0  0  3  0  0  0  0  0  0
  -26.4680  -31.7580   25.1700 C   0  0  1  0  0  0  0  0  0  0  0  0
  -25.3780  -31.5010   26.2370 C   0  0  0  0  0  1  0  0  0  0  0  0
  -27.0440  -30.3860   24.7500 C   0  0  0  0  0  1  0  0  0  0  0  0
  -27.6230  -32.5340   25.8420 C   0  0  0  0  0  1  0  0  0  0  0  0
  -25.6420  -33.9490   24.2770 N   0  0  0  0  0  0  0  0  0  0  0  0
  -25.9460  -35.0190   23.5290 C   0  0  0  0  0  0  0  0  0  0  0  0
  -26.5840  -34.9390   22.4770 O   0  0  0  0  0  0  0  0  0  0  0  0
  -25.0740  -34.0860   25.1000 H   0  0  0  0  0  0  0  0  0  0  0  0
  -24.1880  -36.8010   23.2820 C   0  0  0  0  0  1  0  0  0  0  0  0
  -25.4690  -36.3960   24.0290 C   0  0  0  0  0  3  0  0  0  0  0  0
  -27.6310  -37.2900   24.7750 C   0  0  0  0  0  1  0  0  0  0  0  0
  -26.4860  -37.4610   23.8850 N   0  0  0  0  0  0  0  0  0  0  0  0
  -26.0780  -38.3740   24.0640 H   0  0  0  0  0  0  0  0  0  0  0  0
  -29.7330  -21.2380   20.7930 C   0  0  0  0  0  2  0  0  0  0  0  0
  -29.8400  -17.3780   18.7440 C   0  0  0  0  0  3  0  0  0  0  0  0
  -29.5720  -19.6930   18.6780 C   0  0  0  0  0  0  0  0  0  0  0  0
  -29.6200  -19.7900   20.0940 C   0  0  0  0  0  0  0  0  0  0  0  0
  -29.8850  -17.3500   20.1590 C   0  0  0  0  0  0  0  0  0  0  0  0
  -29.4580  -20.9100   17.7800 C   0  0  0  0  0  1  0  0  0  0  0  0
  -29.6760  -18.5120   18.0230 N   0  0  0  0  0  0  0  0  0  0  0  0
  -29.7660  -18.5890   20.8160 N   0  0  0  0  0  0  0  0  0  0  0  0
  -30.6290  -14.8680   20.3740 C   0  0  0  0  0  0  0  0  0  0  0  0
  -30.4370  -12.5820   19.3800 C   0  0  0  0  0  2  0  0  0  0  0  0
  -29.5180  -12.6590   18.1390 C   0  0  0  0  0  2  0  0  0  0  0  0
  -28.0420  -12.4860   18.5460 C   0  0  0  0  0  2  0  0  0  0  0  0
  -27.6550  -13.3720   19.7600 C   0  0  0  0  0  3  0  0  0  0  0  0
  -28.6970  -13.2850   20.8990 C   0  0  0  0  0  2  0  0  0  0  0  0
  -30.0070  -13.6370   20.3330 N   0  0  0  0  0  0  0  0  0  0  0  0
  -31.7890  -14.9730   19.9620 O   0  0  0  0  0  0  0  0  0  0  0  0
  -29.9140  -15.9940   20.7680 N   0  0  0  0  0  0  0  0  0  0  0  0
  -29.1010  -15.7840   21.3270 H   0  0  0  0  0  0  0  0  0  0  0  0
  -25.2520  -13.9600   20.4370 C   0  0  0  0  0  0  0  0  0  0  0  0
  -24.1830  -13.1880   20.8020 C   0  0  0  0  0  0  0  0  0  0  0  0
  -24.6510  -11.8380   20.8000 C   0  0  0  0  0  0  0  0  0  0  0  0
  -26.3020  -13.0830   20.2310 N   0  0  0  0  0  0  0  0  0  0  0  0
  -25.9470  -11.8010   20.5110 N   0  0  0  0  0  0  0  0  0  0  0  0
  -23.9260  -10.5760   21.0000 C   0  0  0  0  0  0  0  0  0  0  0  0
  -24.3530   -9.6190   21.9470 C   0  0  0  0  0  3  0  0  0  0  0  0
  -23.6290   -8.4230   22.1330 C   0  0  0  0  0  3  0  0  0  0  0  0
  -22.4610   -8.1740   21.3730 C   0  0  0  0  0  0  0  0  0  0  0  0
  -22.0520   -9.1190   20.4150 C   0  0  0  0  0  3  0  0  0  0  0  0
  -22.7780  -10.3070   20.2270 C   0  0  0  0  0  3  0  0  0  0  0  0
  -21.7070   -7.0290   21.4690 O   0  0  0  0  0  0  0  0  0  0  0  0
  -21.6630   -6.2900   22.6240 C   0  0  0  0  0  0  0  0  0  0  0  0
  -21.2400   -6.8490   23.8490 C   0  0  0  0  0  3  0  0  0  0  0  0
  -21.1430   -6.0370   24.9970 C   0  0  0  0  0  3  0  0  0  0  0  0
  -21.4600   -4.6670   24.9200 C   0  0  0  0  0  0  0  0  0  0  0  0
  -21.8760   -4.1080   23.6990 C   0  0  0  0  0  3  0  0  0  0  0  0
  -21.9750   -4.9170   22.5540 C   0  0  0  0  0  0  0  0  0  0  0  0
  -22.3570   -4.3700   21.3760 F   0  0  0  0  0  0  0  0  0  0  0  0
  -21.3590   -3.8850   26.0200 F   0  0  0  0  0  0  0  0  0  0  0  0
  -22.7800  -13.6640   21.0450 C   0  0  0  0  0  0  0  0  0  0  0  0
  -22.0420  -12.9810   21.9130 N   0  0  0  0  0  0  0  0  0  0  0  0
  -22.3470  -14.6780   20.5010 O   0  0  0  0  0  0  0  0  0  0  0  0
  -22.4040  -12.1610   22.3770 H   0  0  0  0  0  0  0  0  0  0  0  0
  -21.1000  -13.2830   22.1180 H   0  0  0  0  0  0  0  0  0  0  0  0
  -25.4120  -15.3290   20.2400 N   0  0  0  0  0  0  0  0  0  0  0  0
  -24.6370  -15.9790   20.3250 H   0  0  0  0  0  0  0  0  0  0  0  0
  -26.2600  -15.7670   19.9070 H   0  0  0  0  0  0  0  0  0  0  0  0
  1  9  1  0
  1  2  2  0
  2  6  1  0
  2 51  1  0
  3  1  1  0
  3  7  2  0
  4  5  1  0
  4  6  2  0
  7  4  1  0
  8  9  1  0
 10  3  1  0
 11 22  2  0
 12 10  1  0
 12 17  1  0
 13 21  1  0
 13 23  1  0
 14 20  1  0
 14 16  1  0
 15 21  1  0
 16 17  2  0
 16 15  1  0
 18 19  1  0
 18 12  2  0
 19 14  2  0
 20 13  1  0
 21 11  1  0
 23 25  2  0
 24 23  1  0
 26 24  1  0
 27 36  2  0
 27 32  1  0
 28 24  1  0
 28 32  1  0
 29 28  1  0
 30 31  1  0
 30 29  1  0
 31 27  1  0
 32 33  2  0
 33 34  1  0
 35 34  2  0
 36 35  1  0
 37 11  1  0
 37 42  1  0
 37 38  1  0
 38 41  1  1
 38 39  1  0
 40 38  1  0
 42 45  1  0
 43 47  1  0
 43 42  1  0
 44 43  2  0
 47 46  1  0
 49 47  1  0
 49 50  1  0
 49 48  1  0
 52 55  1  0
 53 54  2  0
 54 51  1  0
 54 58  1  0
 55 67  1  0
 55 58  2  0
 56 53  1  0
 57 53  1  0
 57 52  2  0
 59 67  1  0
 60 65  1  0
 61 62  1  0
 61 60  1  0
 63 62  1  0
 63 72  1  0
 63 64  1  0
 65 59  1  0
 65 64  1  0
 66 59  2  0
 67 68  1  0
 69 70  2  0
 70 89  1  0
 71 70  1  0
 71 74  1  0
 72 69  1  0
 72 73  1  0
 73 71  2  0
 74 75  1  0
 75 76  2  0
 77 80  1  0
 77 76  1  0
 78 77  2  0
 79 78  1  0
 79 74  2  0
 80 81  1  0
 81 82  1  0
 82 83  2  0
 84 83  1  0
 84 88  1  0
 85 84  2  0
 86 81  2  0
 86 85  1  0
 87 86  1  0
 89 90  1  0
 90 93  1  0
 90 92  1  0
 91 89  2  0
 94 95  1  0
 94 69  1  0
 96 94  1  0
M  ISO  4   3 101  10 101  59 100  67 100
M  END
>  <TORSDO>  (37) 
F 19

>  <SCORE>  (37) 
-14.212

>  <name>  (37) 
36

>  <ligand_id>  (37) 
36

>  <original_smiles>  (37) 
[H]c1nc(C([H])([H])[H])c(C([H])([H])c2nc(C([H])([H])[H])nc(Oc3c([H])c([H])c4c(c3[H])C([H])([H])N(C(=O)C([H])(N([H])C(=O)C([H])(N([H])C([H])([H])[H])C([H])([H])[H])C(C([H])([H])[H])(C([H])([H])[H])C([H])([H])[H])C([H])(C(=O)N([H])C3([H])c5c([H])c([H])c([H])c([H])c5C([H])([H])C([H])([H])C3([H])[H])C4([H])[H])c2C([H])([H])C([H])([H])[H])nc1N([H])C(=O)N1C([H])([H])C([H])([H])C([H])([H])C([H])(n2nc(-c3c([H])c([H])c(Oc4c([H])c([H])c(F)c([H])c4F)c([H])c3[H])c(C(=O)N([H])[H])c2N([H])[H])C1([H])[H]

>  <smiles>  (37) 
[H]c1nc(C([H])([H])[H])c(C([H])([H])c2nc(C([H])([H])[H])nc(Oc3c([H])c([H])c4c(c3[H])C([H])([H])N(C(=O)C([H])(N([H])C(=O)C([H])(N([H])C([H])([H])[H])C([H])([H])[H])C(C([H])([H])[H])(C([H])([H])[H])C([H])([H])[H])C([H])(C(=O)N([H])C3([H])c5c([H])c([H])c([H])c([H])c5C([H])([H])C([H])([H])C3([H])[H])C4([H])[H])c2C([H])([H])C([H])([H])[H])nc1N([H])C(=O)N1C([H])([H])C([H])([H])C([H])([H])C([H])(n2nc(-c3c([H])c([H])c(Oc4c([H])c([H])c(F)c([H])c4F)c([H])c3[H])c(C(=O)N([H])[H])c2N([H])[H])C1([H])[H]

$$$$
37:0:0
     RDKit          3D

 92101  0  0  1  0  0  0  0  0999 V2000
  -30.0110  -23.3530   20.8240 C   0  0  0  0  0  3  0  0  0  0  0  0
  -28.7010  -23.7650   20.4960 C   0  0  0  0  0  0  0  0  0  0  0  0
  -27.9040  -22.6850   20.0160 C   0  0  0  0  0  0  0  0  0  0  0  0
  -29.5980  -21.1170   20.3130 C   0  0  0  0  0  0  0  0  0  0  0  0
  -26.4600  -22.8890   19.6010 C   0  0  0  0  0  1  0  0  0  0  0  0
  -30.4430  -22.0590   20.7220 N   0  0  0  0  0  0  0  0  0  0  0  0
  -28.3520  -21.3890   19.9360 N   0  0  0  0  0  0  0  0  0  0  0  0
  -30.1160  -19.7940   20.2820 N   0  0  0  0  0  0  0  0  0  0  0  0
  -31.0940  -19.7670   20.5370 H   0  0  0  0  0  0  0  0  0  0  0  0
  -30.7080  -14.7510   20.0230 C   0  0  0  0  0  0  0  0  0  0  0  0
  -30.3940  -12.5330   18.9250 C   0  0  0  0  0  2  0  0  0  0  0  0
  -29.3820  -12.6640   17.7670 C   0  0  0  0  0  2  0  0  0  0  0  0
  -27.9380  -12.4870   18.2810 C   0  0  0  0  0  2  0  0  0  0  0  0
  -27.6540  -13.3150   19.5610 C   0  0  0  0  0  3  0  0  0  0  0  0
  -28.7830  -13.1510   20.6020 C   0  0  0  0  0  2  0  0  0  0  0  0
  -30.0350  -13.5490   19.9430 N   0  0  0  0  0  0  0  0  0  0  0  0
  -31.8580  -14.8200   19.5780 O   0  0  0  0  0  0  0  0  0  0  0  0
  -29.1070  -17.8130   21.5260 C   0  0  0  0  0  2  0  0  0  0  0  0
  -29.1040  -16.2710   21.3280 C   0  0  0  0  0  2  0  0  0  0  0  0
  -30.4010  -17.2670   19.6260 C   0  0  0  0  0  2  0  0  0  0  0  0
  -29.4870  -18.4320   20.1790 C   0  0  0  0  0  3  0  0  0  0  0  0
  -30.0050  -15.9400   20.2140 N   0  0  0  0  0  0  0  0  0  0  0  0
  -25.3100  -13.8800   20.4380 C   0  0  0  0  0  0  0  0  0  0  0  0
  -24.2690  -13.0930   20.8500 C   0  0  0  0  0  0  0  0  0  0  0  0
  -24.7320  -11.7450   20.7540 C   0  0  0  0  0  0  0  0  0  0  0  0
  -26.3410  -13.0110   20.1210 N   0  0  0  0  0  0  0  0  0  0  0  0
  -26.0030  -11.7190   20.3700 N   0  0  0  0  0  0  0  0  0  0  0  0
  -24.0180  -10.4760   20.9470 C   0  0  0  0  0  0  0  0  0  0  0  0
  -24.4610   -9.5150   21.8830 C   0  0  0  0  0  3  0  0  0  0  0  0
  -23.7460   -8.3120   22.0650 C   0  0  0  0  0  3  0  0  0  0  0  0
  -22.5750   -8.0600   21.3120 C   0  0  0  0  0  0  0  0  0  0  0  0
  -22.1530   -9.0090   20.3640 C   0  0  0  0  0  3  0  0  0  0  0  0
  -22.8680  -10.2050   20.1800 C   0  0  0  0  0  3  0  0  0  0  0  0
  -21.8310   -6.9090   21.4040 O   0  0  0  0  0  0  0  0  0  0  0  0
  -21.7240   -6.2140   22.5830 C   0  0  0  0  0  0  0  0  0  0  0  0
  -21.2150   -6.8130   23.7560 C   0  0  0  0  0  3  0  0  0  0  0  0
  -21.0560   -6.0430   24.9260 C   0  0  0  0  0  3  0  0  0  0  0  0
  -21.3950   -4.6770   24.9230 C   0  0  0  0  0  0  0  0  0  0  0  0
  -21.8970   -4.0780   23.7540 C   0  0  0  0  0  3  0  0  0  0  0  0
  -22.0580   -4.8450   22.5860 C   0  0  0  0  0  0  0  0  0  0  0  0
  -22.5220   -4.2590   21.4570 F   0  0  0  0  0  0  0  0  0  0  0  0
  -21.2360   -3.9360   26.0440 F   0  0  0  0  0  0  0  0  0  0  0  0
  -22.8900  -13.5580   21.2170 C   0  0  0  0  0  0  0  0  0  0  0  0
  -22.2200  -12.8420   22.1130 N   0  0  0  0  0  0  0  0  0  0  0  0
  -22.4180  -14.5930   20.7480 O   0  0  0  0  0  0  0  0  0  0  0  0
  -22.6160  -12.0040   22.5120 H   0  0  0  0  0  0  0  0  0  0  0  0
  -21.2980  -13.1350   22.4030 H   0  0  0  0  0  0  0  0  0  0  0  0
  -25.4550  -15.2550   20.2820 N   0  0  0  0  0  0  0  0  0  0  0  0
  -24.6810  -15.8940   20.4280 H   0  0  0  0  0  0  0  0  0  0  0  0
  -26.2710  -15.7040   19.8880 H   0  0  0  0  0  0  0  0  0  0  0  0
  -28.1190  -25.1790   20.9290 C   0  0  0  0  0  2  0  0  0  0  0  0
  -28.4160  -26.4620   20.2380 O   0  0  0  0  0  0  0  0  0  0  0  0
  -24.6260  -31.8750   23.2200 C   0  0  0  0  0  0  0  0  0  0  0  0
  -27.3310  -27.3530   20.1890 C   0  0  0  0  0  0  0  0  0  0  0  0
  -23.4600  -30.4620   21.5650 C   0  0  0  0  0  3  0  0  0  0  0  0
  -24.9500  -28.9360   20.1500 C   0  0  0  0  0  0  0  0  0  0  0  0
  -25.9990  -30.8140   21.4120 C   0  0  0  0  0  2  0  0  0  0  0  0
  -26.1070  -29.4380   20.7640 C   0  0  0  0  0  0  0  0  0  0  0  0
  -27.3050  -28.6580   20.7740 C   0  0  0  0  0  3  0  0  0  0  0  0
  -26.1590  -26.9130   19.5400 C   0  0  0  0  0  3  0  0  0  0  0  0
  -24.9790  -27.6800   19.5280 C   0  0  0  0  0  3  0  0  0  0  0  0
  -23.7010  -29.7930   20.1860 C   0  0  0  0  0  2  0  0  0  0  0  0
  -24.7130  -31.0690   22.1220 N   0  0  0  0  0  0  0  0  0  0  0  0
  -23.5330  -32.1380   23.7420 O   0  0  0  0  0  0  0  0  0  0  0  0
  -22.8010  -29.4350   22.5160 C   0  0  0  0  0  0  0  0  0  0  0  0
  -21.4770  -29.2480   22.3810 N   0  0  0  0  0  0  0  0  0  0  0  0
  -23.4800  -28.8110   23.3360 O   0  0  0  0  0  0  0  0  0  0  0  0
  -20.9870  -29.8030   21.6940 H   0  0  0  0  0  0  0  0  0  0  0  0
  -18.1060  -28.0240   22.8610 C   0  0  0  0  0  0  0  0  0  0  0  0
  -20.6610  -28.3000   23.1440 C   0  0  0  0  0  3  0  0  0  0  0  0
  -20.7750  -26.8710   22.5630 C   0  0  0  0  0  2  0  0  0  0  0  0
  -19.6820  -26.5460   21.5410 C   0  0  0  0  0  2  0  0  0  0  0  0
  -18.2960  -26.6790   22.1770 C   0  0  0  0  0  2  0  0  0  0  0  0
  -19.2170  -28.7910   23.3000 C   0  0  0  0  0  0  0  0  0  0  0  0
  -18.9860  -30.0490   23.8970 C   0  0  0  0  0  3  0  0  0  0  0  0
  -17.6770  -30.5400   24.0590 C   0  0  0  0  0  3  0  0  0  0  0  0
  -16.5800  -29.7690   23.6380 C   0  0  0  0  0  3  0  0  0  0  0  0
  -16.7950  -28.5120   23.0440 C   0  0  0  0  0  3  0  0  0  0  0  0
  -25.8930  -32.5260   23.8560 C   0  0  0  0  0  3  0  0  0  0  0  0
  -25.5620  -33.9210   24.1810 N   0  0  0  0  0  0  0  0  0  0  0  0
  -25.8980  -34.9780   23.4300 C   0  0  0  0  0  0  0  0  0  0  0  0
  -26.5910  -34.8830   22.4120 O   0  0  0  0  0  0  0  0  0  0  0  0
  -24.9520  -34.0680   24.9730 H   0  0  0  0  0  0  0  0  0  0  0  0
  -24.1700  -36.7600   23.0280 C   0  0  0  0  0  1  0  0  0  0  0  0
  -25.3870  -36.3600   23.8790 C   0  0  0  0  0  3  0  0  0  0  0  0
  -27.4860  -37.2570   24.7850 C   0  0  0  0  0  1  0  0  0  0  0  0
  -26.4160  -37.4220   23.8050 N   0  0  0  0  0  0  0  0  0  0  0  0
  -25.9980  -38.3380   23.9420 H   0  0  0  0  0  0  0  0  0  0  0  0
  -26.4030  -31.7630   25.1410 C   0  0  1  0  0  0  0  0  0  0  0  0
  -25.2990  -31.5100   26.1940 C   0  0  0  0  0  1  0  0  0  0  0  0
  -27.0100  -30.3930   24.7610 C   0  0  0  0  0  1  0  0  0  0  0  0
  -27.5330  -32.5740   25.8180 C   0  0  0  0  0  1  0  0  0  0  0  0
  2  1  2  0
  2 51  1  0
  3  2  1  0
  4  6  2  0
  5  3  1  0
  6  1  1  0
  7  3  2  0
  7  4  1  0
  8  4  1  0
  8  9  1  0
 10 22  1  0
 11 16  1  0
 12 13  1  0
 12 11  1  0
 14 13  1  0
 14 26  1  0
 14 15  1  0
 16 10  1  0
 16 15  1  0
 17 10  2  0
 19 18  1  0
 20 21  1  0
 20 22  1  0
 21  8  1  0
 21 18  1  0
 22 19  1  0
 23 24  2  0
 24 43  1  0
 25 24  1  0
 25 28  1  0
 26 27  1  0
 26 23  1  0
 27 25  2  0
 28 29  1  0
 29 30  2  0
 31 34  1  0
 31 30  1  0
 32 31  2  0
 33 32  1  0
 33 28  2  0
 34 35  1  0
 35 40  2  0
 35 36  1  0
 36 37  2  0
 38 37  1  0
 38 42  1  0
 39 38  2  0
 40 39  1  0
 41 40  1  0
 43 44  1  0
 44 47  1  0
 44 46  1  0
 45 43  2  0
 48 49  1  0
 48 23  1  0
 50 48  1  0
 52 51  1  0
 53 64  2  0
 54 52  1  0
 54 59  1  0
 55 63  1  0
 55 65  1  0
 56 62  1  0
 56 58  1  0
 57 63  1  0
 58 59  2  0
 58 57  1  0
 60 54  2  0
 61 60  1  0
 61 56  2  0
 62 55  1  0
 63 53  1  0
 65 67  2  0
 66 65  1  0
 68 66  1  0
 69 78  2  0
 69 74  1  0
 70 66  1  0
 70 74  1  0
 71 70  1  0
 72 73  1  0
 72 71  1  0
 73 69  1  0
 74 75  2  0
 75 76  1  0
 77 76  2  0
 78 77  1  0
 79 53  1  0
 79 80  1  0
 79 89  1  0
 80 83  1  0
 81 85  1  0
 81 80  1  0
 82 81  2  0
 85 84  1  0
 87 85  1  0
 87 88  1  0
 87 86  1  0
 89 92  1  1
 89 90  1  0
 91 89  1  0
M  ISO  4  10 100  22 100  51 101  52 101
M  END
>  <TORSDO>  (38) 
F 17

>  <SCORE>  (38) 
-14.309

>  <name>  (38) 
37

>  <ligand_id>  (38) 
37

>  <original_smiles>  (38) 
[H]c1nc(N([H])C2([H])C([H])([H])N(C(=O)N3C([H])([H])C([H])([H])C([H])([H])C([H])(n4nc(-c5c([H])c([H])c(Oc6c([H])c([H])c(F)c([H])c6F)c([H])c5[H])c(C(=O)N([H])[H])c4N([H])[H])C3([H])[H])C([H])([H])C2([H])[H])nc(C([H])([H])[H])c1C([H])([H])Oc1c([H])c([H])c2c(c1[H])C([H])([H])N(C(=O)C([H])(N([H])C(=O)C([H])(N([H])C([H])([H])[H])C([H])([H])[H])C(C([H])([H])[H])(C([H])([H])[H])C([H])([H])[H])C([H])(C(=O)N([H])C1([H])c3c([H])c([H])c([H])c([H])c3C([H])([H])C([H])([H])C1([H])[H])C2([H])[H]

>  <smiles>  (38) 
[H]c1nc(N([H])C2([H])C([H])([H])N(C(=O)N3C([H])([H])C([H])([H])C([H])([H])C([H])(n4nc(-c5c([H])c([H])c(Oc6c([H])c([H])c(F)c([H])c6F)c([H])c5[H])c(C(=O)N([H])[H])c4N([H])[H])C3([H])[H])C([H])([H])C2([H])[H])nc(C([H])([H])[H])c1C([H])([H])Oc1c([H])c([H])c2c(c1[H])C([H])([H])N(C(=O)C([H])(N([H])C(=O)C([H])(N([H])C([H])([H])[H])C([H])([H])[H])C(C([H])([H])[H])(C([H])([H])[H])C([H])([H])[H])C([H])(C(=O)N([H])C1([H])c3c([H])c([H])c([H])c([H])c3C([H])([H])C([H])([H])C1([H])[H])C2([H])[H]

$$$$
38:0:0
     RDKit          3D

 94103  0  0  1  0  0  0  0  0999 V2000
  -29.0090  -23.3850   22.0920 C   0  0  0  0  0  3  0  0  0  0  0  0
  -29.6200  -22.1160   21.9980 C   0  0  0  0  0  0  0  0  0  0  0  0
  -30.1490  -21.6910   20.7510 C   0  0  0  0  0  0  0  0  0  0  0  0
  -28.9250  -24.2390   20.9730 C   0  0  0  0  0  0  0  0  0  0  0  0
  -29.9900  -22.6040   19.6630 C   0  0  0  0  0  0  0  0  0  0  0  0
  -29.7280  -21.2660   23.2540 C   0  0  0  0  0  1  0  0  0  0  0  0
  -30.5170  -22.2820   18.2750 C   0  0  0  0  0  1  0  0  0  0  0  0
  -29.3990  -23.8300   19.7700 N   0  0  0  0  0  0  0  0  0  0  0  0
  -31.0130  -20.3870   20.6440 C   0  0  0  0  0  2  0  0  0  0  0  0
  -31.3380  -17.9810   19.9310 C   0  0  0  0  0  2  0  0  0  0  0  0
  -29.6270  -18.2310   20.9830 C   0  0  0  0  0  2  0  0  0  0  0  0
  -30.0990  -17.0890   20.0570 C   0  0  0  0  0  3  0  0  0  0  0  0
  -30.4050  -19.1270   20.0960 N   0  0  1  0  0  4  0  0  0  0  0  0
  -29.9140  -19.2900   19.2320 H   0  0  0  0  0  0  0  0  0  0  0  0
  -30.9580  -14.6890   20.1690 C   0  0  0  0  0  0  0  0  0  0  0  0
  -30.6770  -12.4930   19.0690 C   0  0  0  0  0  2  0  0  0  0  0  0
  -29.7160  -12.6880   17.8750 C   0  0  0  0  0  2  0  0  0  0  0  0
  -28.2470  -12.5550   18.3240 C   0  0  0  0  0  2  0  0  0  0  0  0
  -27.9310  -13.3930   19.5910 C   0  0  0  0  0  3  0  0  0  0  0  0
  -29.0030  -13.1750   20.6850 C   0  0  0  0  0  2  0  0  0  0  0  0
  -30.3200  -13.4840   20.1010 N   0  0  0  0  0  0  0  0  0  0  0  0
  -32.0650  -14.8820   19.6590 O   0  0  0  0  0  0  0  0  0  0  0  0
  -30.2040  -15.7170   20.6310 N   0  0  0  0  0  0  0  0  0  0  0  0
  -29.3790  -15.4040   21.1230 H   0  0  0  0  0  0  0  0  0  0  0  0
  -25.5450  -14.0170   20.3270 C   0  0  0  0  0  0  0  0  0  0  0  0
  -24.4780  -13.2540   20.7160 C   0  0  0  0  0  0  0  0  0  0  0  0
  -24.9300  -11.8990   20.6850 C   0  0  0  0  0  0  0  0  0  0  0  0
  -26.5820  -13.1280   20.0870 N   0  0  0  0  0  0  0  0  0  0  0  0
  -26.2170  -11.8490   20.3590 N   0  0  0  0  0  0  0  0  0  0  0  0
  -24.1990  -10.6420   20.8920 C   0  0  0  0  0  0  0  0  0  0  0  0
  -24.6040   -9.7050   21.8680 C   0  0  0  0  0  3  0  0  0  0  0  0
  -23.8750   -8.5120   22.0630 C   0  0  0  0  0  3  0  0  0  0  0  0
  -22.7280   -8.2470   21.2790 C   0  0  0  0  0  0  0  0  0  0  0  0
  -22.3410   -9.1720   20.2930 C   0  0  0  0  0  3  0  0  0  0  0  0
  -23.0710  -10.3570   20.0980 C   0  0  0  0  0  3  0  0  0  0  0  0
  -21.9730   -7.1040   21.3790 O   0  0  0  0  0  0  0  0  0  0  0  0
  -21.8440   -6.4280   22.5650 C   0  0  0  0  0  0  0  0  0  0  0  0
  -21.2930   -7.0370   23.7130 C   0  0  0  0  0  3  0  0  0  0  0  0
  -21.1150   -6.2850   24.8920 C   0  0  0  0  0  3  0  0  0  0  0  0
  -21.4780   -4.9240   24.9220 C   0  0  0  0  0  0  0  0  0  0  0  0
  -22.0210   -4.3150   23.7780 C   0  0  0  0  0  3  0  0  0  0  0  0
  -22.2010   -5.0650   22.6020 C   0  0  0  0  0  0  0  0  0  0  0  0
  -22.7050   -4.4670   21.4960 F   0  0  0  0  0  0  0  0  0  0  0  0
  -21.2990   -4.2000   26.0520 F   0  0  0  0  0  0  0  0  0  0  0  0
  -23.0880  -13.7410   21.0070 C   0  0  0  0  0  0  0  0  0  0  0  0
  -22.3700  -13.0530   21.8880 N   0  0  0  0  0  0  0  0  0  0  0  0
  -22.6470  -14.7650   20.4900 O   0  0  0  0  0  0  0  0  0  0  0  0
  -22.7410  -12.2230   22.3290 H   0  0  0  0  0  0  0  0  0  0  0  0
  -21.4370  -13.3580   22.1260 H   0  0  0  0  0  0  0  0  0  0  0  0
  -25.7170  -15.3850   20.1390 N   0  0  0  0  0  0  0  0  0  0  0  0
  -24.9500  -16.0420   20.2420 H   0  0  0  0  0  0  0  0  0  0  0  0
  -26.5580  -15.8140   19.7760 H   0  0  0  0  0  0  0  0  0  0  0  0
  -28.2480  -25.6260   21.1550 C   0  0  0  0  0  2  0  0  0  0  0  0
  -28.3830  -26.6570   20.1380 O   0  0  0  0  0  0  0  0  0  0  0  0
  -24.5760  -31.8880   23.2160 C   0  0  0  0  0  0  0  0  0  0  0  0
  -27.2730  -27.4840   20.0950 C   0  0  0  0  0  0  0  0  0  0  0  0
  -23.3930  -30.4990   21.5470 C   0  0  0  0  0  3  0  0  0  0  0  0
  -24.8730  -28.9960   20.1020 C   0  0  0  0  0  0  0  0  0  0  0  0
  -25.9200  -30.8760   21.3720 C   0  0  0  0  0  2  0  0  0  0  0  0
  -26.0250  -29.5140   20.7100 C   0  0  0  0  0  0  0  0  0  0  0  0
  -27.2320  -28.7660   20.7030 C   0  0  0  0  0  3  0  0  0  0  0  0
  -26.1070  -26.9960   19.4700 C   0  0  0  0  0  3  0  0  0  0  0  0
  -24.9100  -27.7390   19.4760 C   0  0  0  0  0  3  0  0  0  0  0  0
  -23.6190  -29.8430   20.1580 C   0  0  0  0  0  2  0  0  0  0  0  0
  -24.6480  -31.1020   22.1040 N   0  0  0  0  0  0  0  0  0  0  0  0
  -23.4890  -32.1430   23.7540 O   0  0  0  0  0  0  0  0  0  0  0  0
  -22.7430  -29.4590   22.4900 C   0  0  0  0  0  0  0  0  0  0  0  0
  -21.4210  -29.2690   22.3560 N   0  0  0  0  0  0  0  0  0  0  0  0
  -23.4290  -28.8290   23.3010 O   0  0  0  0  0  0  0  0  0  0  0  0
  -20.9290  -29.8290   21.6740 H   0  0  0  0  0  0  0  0  0  0  0  0
  -18.0560  -28.0310   22.8170 C   0  0  0  0  0  0  0  0  0  0  0  0
  -20.6090  -28.3120   23.1090 C   0  0  0  0  0  3  0  0  0  0  0  0
  -20.7300  -26.8890   22.5160 C   0  0  0  0  0  2  0  0  0  0  0  0
  -19.6400  -26.5690   21.4900 C   0  0  0  0  0  2  0  0  0  0  0  0
  -18.2510  -26.6930   22.1250 C   0  0  0  0  0  2  0  0  0  0  0  0
  -19.1630  -28.7990   23.2640 C   0  0  0  0  0  0  0  0  0  0  0  0
  -18.9270  -30.0520   23.8700 C   0  0  0  0  0  3  0  0  0  0  0  0
  -17.6160  -30.5370   24.0330 C   0  0  0  0  0  3  0  0  0  0  0  0
  -16.5230  -29.7660   23.6020 C   0  0  0  0  0  3  0  0  0  0  0  0
  -16.7440  -28.5150   22.9990 C   0  0  0  0  0  3  0  0  0  0  0  0
  -25.8520  -32.5230   23.8510 C   0  0  0  0  0  3  0  0  0  0  0  0
  -26.3590  -31.7510   25.1300 C   0  0  1  0  0  0  0  0  0  0  0  0
  -25.2560  -31.5040   26.1850 C   0  0  0  0  0  1  0  0  0  0  0  0
  -26.9540  -30.3770   24.7410 C   0  0  0  0  0  1  0  0  0  0  0  0
  -27.4960  -32.5500   25.8090 C   0  0  0  0  0  1  0  0  0  0  0  0
  -25.5350  -33.9200   24.1790 N   0  0  0  0  0  0  0  0  0  0  0  0
  -25.8850  -34.9760   23.4310 C   0  0  0  0  0  0  0  0  0  0  0  0
  -26.5790  -34.8760   22.4160 O   0  0  0  0  0  0  0  0  0  0  0  0
  -24.9220  -34.0710   24.9670 H   0  0  0  0  0  0  0  0  0  0  0  0
  -24.1810  -36.7800   23.0260 C   0  0  0  0  0  1  0  0  0  0  0  0
  -25.3860  -36.3620   23.8830 C   0  0  0  0  0  3  0  0  0  0  0  0
  -27.4860  -37.2310   24.8130 C   0  0  0  0  0  1  0  0  0  0  0  0
  -26.4260  -37.4100   23.8230 N   0  0  0  0  0  0  0  0  0  0  0  0
  -26.0180  -38.3310   23.9610 H   0  0  0  0  0  0  0  0  0  0  0  0
  2  1  1  0
  2  6  1  0
  3  2  2  0
  4 53  1  0
  4  1  2  0
  5  8  2  0
  5  3  1  0
  7  5  1  0
  8  4  1  0
  9  3  1  0
 10 12  1  0
 10 13  1  0
 12 23  1  0
 12 11  1  0
 13  9  1  0
 13 11  1  0
 13 14  1  6
 15 23  1  0
 16 21  1  0
 17 18  1  0
 17 16  1  0
 19 18  1  0
 19 28  1  0
 19 20  1  0
 21 15  1  0
 21 20  1  0
 22 15  2  0
 23 24  1  0
 25 26  2  0
 26 45  1  0
 27 26  1  0
 27 30  1  0
 28 25  1  0
 28 29  1  0
 29 27  2  0
 30 31  1  0
 31 32  2  0
 33 36  1  0
 33 32  1  0
 34 33  2  0
 35 34  1  0
 35 30  2  0
 36 37  1  0
 37 42  2  0
 37 38  1  0
 38 39  2  0
 39 40  1  0
 40 44  1  0
 41 40  2  0
 42 41  1  0
 43 42  1  0
 45 46  1  0
 46 49  1  0
 46 48  1  0
 47 45  2  0
 50 51  1  0
 50 25  1  0
 52 50  1  0
 54 53  1  0
 55 66  2  0
 56 54  1  0
 56 61  1  0
 57 65  1  0
 57 67  1  0
 58 64  1  0
 58 60  1  0
 59 65  1  0
 60 59  1  0
 61 60  2  0
 62 63  1  0
 62 56  2  0
 63 58  2  0
 64 57  1  0
 65 55  1  0
 67 69  2  0
 68 67  1  0
 70 68  1  0
 71 80  2  0
 71 76  1  0
 72 68  1  0
 72 76  1  0
 73 72  1  0
 74 75  1  0
 74 73  1  0
 75 71  1  0
 76 77  2  0
 77 78  1  0
 79 78  2  0
 80 79  1  0
 81 55  1  0
 81 86  1  0
 81 82  1  0
 82 85  1  1
 82 83  1  0
 84 82  1  0
 86 89  1  0
 87 91  1  0
 87 86  1  0
 88 87  2  0
 91 90  1  0
 93 91  1  0
 93 94  1  0
 93 92  1  0
M  ISO  4  15 100  23 100  53 101  54 101
M  END
>  <TORSDO>  (39) 
F 19

>  <SCORE>  (39) 
-14.047

>  <name>  (39) 
38

>  <ligand_id>  (39) 
38

>  <original_smiles>  (39) 
[H]c1c([H])c([H])c2c(c1[H])C([H])([H])C([H])([H])C([H])([H])C2([H])N([H])C(=O)C1([H])N(C(=O)C([H])(N([H])C(=O)C([H])(N([H])C([H])([H])[H])C([H])([H])[H])C(C([H])([H])[H])(C([H])([H])[H])C([H])([H])[H])C([H])([H])c2c([H])c(OC([H])([H])c3nc(C([H])([H])[H])c(C([H])([H])[N+]4([H])C([H])([H])C([H])(N([H])C(=O)N5C([H])([H])C([H])([H])C([H])([H])C([H])(n6nc(-c7c([H])c([H])c(Oc8c([H])c([H])c(F)c([H])c8F)c([H])c7[H])c(C(=O)N([H])[H])c6N([H])[H])C5([H])[H])C4([H])[H])c(C([H])([H])[H])c3[H])c([H])c([H])c2C1([H])[H]

>  <smiles>  (39) 
[H]c1c([H])c([H])c2c(c1[H])C([H])([H])C([H])([H])C([H])([H])C2([H])N([H])C(=O)C1([H])N(C(=O)C([H])(N([H])C(=O)C([H])(N([H])C([H])([H])[H])C([H])([H])[H])C(C([H])([H])[H])(C([H])([H])[H])C([H])([H])[H])C([H])([H])c2c([H])c(OC([H])([H])c3nc(C([H])([H])[H])c(C([H])([H])[N+]4([H])C([H])([H])C([H])(N([H])C(=O)N5C([H])([H])C([H])([H])C([H])([H])C([H])(n6nc(-c7c([H])c([H])c(Oc8c([H])c([H])c(F)c([H])c8F)c([H])c7[H])c(C(=O)N([H])[H])c6N([H])[H])C5([H])[H])C4([H])[H])c(C([H])([H])[H])c3[H])c([H])c([H])c2C1([H])[H]

$$$$
39:0:0
     RDKit          3D

 92100  0  0  1  0  0  0  0  0999 V2000
  -29.2460  -21.1500   20.9720 C   0  0  0  0  0  2  0  0  0  0  0  0
  -30.6590  -19.9060   19.2210 C   0  0  0  0  0  3  0  0  0  0  0  0
  -29.4930  -18.4500   20.7570 C   0  0  0  0  0  3  0  0  0  0  0  0
  -29.7570  -19.8050   20.2970 C   0  0  0  0  0  0  0  0  0  0  0  0
  -31.2350  -18.7440   18.6810 C   0  0  0  0  0  0  0  0  0  0  0  0
  -30.1340  -17.2830   20.1730 C   0  0  0  0  0  0  0  0  0  0  0  0
  -32.2280  -18.8430   17.5430 C   0  0  0  0  0  1  0  0  0  0  0  0
  -30.9760  -17.5000   19.1360 N   0  0  0  0  0  0  0  0  0  0  0  0
  -30.6050  -14.7400   20.3640 C   0  0  0  0  0  0  0  0  0  0  0  0
  -30.3620  -12.4710   19.3650 C   0  0  0  0  0  2  0  0  0  0  0  0
  -29.4440  -12.5750   18.1290 C   0  0  0  0  0  2  0  0  0  0  0  0
  -27.9670  -12.4200   18.5410 C   0  0  0  0  0  2  0  0  0  0  0  0
  -27.5910  -13.3010   19.7640 C   0  0  0  0  0  3  0  0  0  0  0  0
  -28.6400  -13.2030   20.8940 C   0  0  0  0  0  2  0  0  0  0  0  0
  -29.9490  -13.5310   20.3150 N   0  0  0  0  0  0  0  0  0  0  0  0
  -31.7970  -14.7820   20.0430 O   0  0  0  0  0  0  0  0  0  0  0  0
  -29.8820  -15.8960   20.6260 N   0  0  0  0  0  0  0  0  0  0  0  0
  -28.9820  -15.7440   21.0530 H   0  0  0  0  0  0  0  0  0  0  0  0
  -25.1970  -13.8930   20.4660 C   0  0  0  0  0  0  0  0  0  0  0  0
  -24.1280  -13.1200   20.8290 C   0  0  0  0  0  0  0  0  0  0  0  0
  -24.5910  -11.7680   20.8090 C   0  0  0  0  0  0  0  0  0  0  0  0
  -26.2430  -13.0140   20.2430 N   0  0  0  0  0  0  0  0  0  0  0  0
  -25.8860  -11.7300   20.5120 N   0  0  0  0  0  0  0  0  0  0  0  0
  -23.8620  -10.5060   20.9970 C   0  0  0  0  0  0  0  0  0  0  0  0
  -24.2770   -9.5480   21.9460 C   0  0  0  0  0  3  0  0  0  0  0  0
  -23.5480   -8.3520   22.1230 C   0  0  0  0  0  3  0  0  0  0  0  0
  -22.3900   -8.1070   21.3490 C   0  0  0  0  0  0  0  0  0  0  0  0
  -21.9940   -9.0540   20.3880 C   0  0  0  0  0  3  0  0  0  0  0  0
  -22.7240  -10.2410   20.2090 C   0  0  0  0  0  3  0  0  0  0  0  0
  -21.6330   -6.9630   21.4320 O   0  0  0  0  0  0  0  0  0  0  0  0
  -21.5520   -6.2360   22.5940 C   0  0  0  0  0  0  0  0  0  0  0  0
  -21.0720   -6.8030   23.7950 C   0  0  0  0  0  3  0  0  0  0  0  0
  -20.9400   -6.0020   24.9470 C   0  0  0  0  0  3  0  0  0  0  0  0
  -21.2780   -4.6360   24.8990 C   0  0  0  0  0  0  0  0  0  0  0  0
  -21.7500   -4.0700   23.7030 C   0  0  0  0  0  3  0  0  0  0  0  0
  -21.8840   -4.8670   22.5530 C   0  0  0  0  0  0  0  0  0  0  0  0
  -22.3210   -4.3110   21.3970 F   0  0  0  0  0  0  0  0  0  0  0  0
  -21.1440   -3.8650   26.0030 F   0  0  0  0  0  0  0  0  0  0  0  0
  -22.7280  -13.5990   21.0850 C   0  0  0  0  0  0  0  0  0  0  0  0
  -21.9900  -12.9010   21.9410 N   0  0  0  0  0  0  0  0  0  0  0  0
  -22.2980  -14.6250   20.5620 O   0  0  0  0  0  0  0  0  0  0  0  0
  -22.3510  -12.0710   22.3870 H   0  0  0  0  0  0  0  0  0  0  0  0
  -21.0490  -13.2020   22.1530 H   0  0  0  0  0  0  0  0  0  0  0  0
  -25.3610  -15.2630   20.2820 N   0  0  0  0  0  0  0  0  0  0  0  0
  -24.5890  -15.9140   20.3750 H   0  0  0  0  0  0  0  0  0  0  0  0
  -26.2040  -15.6990   19.9290 H   0  0  0  0  0  0  0  0  0  0  0  0
  -28.8680  -22.3480   20.0960 N   0  0  0  0  0  4  0  0  0  0  0  0
  -27.9330  -22.1630   19.7700 H   0  0  0  0  0  0  0  0  0  0  0  0
  -29.4620  -22.3110   19.2840 H   0  0  0  0  0  0  0  0  0  0  0  0
  -28.9380  -23.7790   20.6740 C   0  0  0  0  0  3  0  0  0  0  0  0
  -28.1180  -24.9510   19.9240 C   0  0  0  0  0  3  0  0  0  0  0  0
  -28.2810  -26.4070   20.2780 O   0  0  0  0  0  0  0  0  0  0  0  0
  -24.5950  -31.9070   23.2270 C   0  0  0  0  0  0  0  0  0  0  0  0
  -27.1860  -27.2980   20.1840 C   0  0  0  0  0  0  0  0  0  0  0  0
  -23.3900  -30.5080   21.5920 C   0  0  0  0  0  3  0  0  0  0  0  0
  -24.8360  -28.9520   20.1640 C   0  0  0  0  0  0  0  0  0  0  0  0
  -25.9350  -30.8060   21.4160 C   0  0  0  0  0  2  0  0  0  0  0  0
  -26.0070  -29.4240   20.7700 C   0  0  0  0  0  0  0  0  0  0  0  0
  -27.1820  -28.6060   20.7750 C   0  0  0  0  0  3  0  0  0  0  0  0
  -25.9970  -26.9080   19.5230 C   0  0  0  0  0  3  0  0  0  0  0  0
  -24.8360  -27.7030   19.5290 C   0  0  0  0  0  3  0  0  0  0  0  0
  -23.6030  -29.8330   20.2120 C   0  0  0  0  0  2  0  0  0  0  0  0
  -24.6590  -31.0930   22.1340 N   0  0  0  0  0  0  0  0  0  0  0  0
  -23.5130  -32.1890   23.7600 O   0  0  0  0  0  0  0  0  0  0  0  0
  -22.7250  -29.4950   22.5540 C   0  0  0  0  0  0  0  0  0  0  0  0
  -21.3970  -29.3210   22.4300 N   0  0  0  0  0  0  0  0  0  0  0  0
  -23.4010  -28.8670   23.3730 O   0  0  0  0  0  0  0  0  0  0  0  0
  -20.9100  -29.8790   21.7430 H   0  0  0  0  0  0  0  0  0  0  0  0
  -18.0150  -28.1460   22.9470 C   0  0  0  0  0  0  0  0  0  0  0  0
  -20.5760  -28.3900   23.2040 C   0  0  0  0  0  3  0  0  0  0  0  0
  -20.6650  -26.9570   22.6290 C   0  0  0  0  0  2  0  0  0  0  0  0
  -19.5570  -26.6420   21.6200 C   0  0  0  0  0  2  0  0  0  0  0  0
  -18.1790  -26.7950   22.2710 C   0  0  0  0  0  2  0  0  0  0  0  0
  -19.1400  -28.9010   23.3720 C   0  0  0  0  0  0  0  0  0  0  0  0
  -18.9320  -30.1640   23.9670 C   0  0  0  0  0  3  0  0  0  0  0  0
  -17.6320  -30.6730   24.1410 C   0  0  0  0  0  3  0  0  0  0  0  0
  -16.5200  -29.9160   23.7320 C   0  0  0  0  0  3  0  0  0  0  0  0
  -16.7130  -28.6540   23.1420 C   0  0  0  0  0  3  0  0  0  0  0  0
  -25.8790  -32.5400   23.8480 C   0  0  0  0  0  3  0  0  0  0  0  0
  -26.3960  -31.7690   25.1240 C   0  0  1  0  0  0  0  0  0  0  0  0
  -25.3030  -31.5300   26.1910 C   0  0  0  0  0  1  0  0  0  0  0  0
  -26.9810  -30.3920   24.7340 C   0  0  0  0  0  1  0  0  0  0  0  0
  -27.5440  -32.5650   25.7870 C   0  0  0  0  0  1  0  0  0  0  0  0
  -25.5690  -33.9380   24.1800 N   0  0  0  0  0  0  0  0  0  0  0  0
  -25.8970  -34.9920   23.4210 C   0  0  0  0  0  0  0  0  0  0  0  0
  -26.5620  -34.8900   22.3860 O   0  0  0  0  0  0  0  0  0  0  0  0
  -24.9770  -34.0900   24.9820 H   0  0  0  0  0  0  0  0  0  0  0  0
  -24.1720  -36.7910   23.0710 C   0  0  0  0  0  1  0  0  0  0  0  0
  -25.4110  -36.3800   23.8830 C   0  0  0  0  0  3  0  0  0  0  0  0
  -27.5430  -37.2610   24.7250 C   0  0  0  0  0  1  0  0  0  0  0  0
  -26.4470  -37.4320   23.7770 N   0  0  0  0  0  0  0  0  0  0  0  0
  -26.0410  -38.3530   23.9230 H   0  0  0  0  0  0  0  0  0  0  0  0
  2  4  1  0
  4  3  2  0
  4  1  1  0
  5  8  1  0
  5  2  2  0
  6 17  1  0
  6  3  1  0
  7  5  1  0
  8  6  2  0
  9 17  1  0
 10 15  1  0
 11 12  1  0
 11 10  1  0
 13 12  1  0
 13 22  1  0
 13 14  1  0
 15  9  1  0
 15 14  1  0
 16  9  2  0
 17 18  1  0
 19 20  2  0
 20 39  1  0
 21 20  1  0
 21 24  1  0
 22 19  1  0
 22 23  1  0
 23 21  2  0
 24 25  1  0
 25 26  2  0
 27 30  1  0
 27 26  1  0
 28 27  2  0
 29 28  1  0
 29 24  2  0
 30 31  1  0
 31 32  1  0
 32 33  2  0
 34 33  1  0
 34 38  1  0
 35 34  2  0
 36 31  2  0
 36 35  1  0
 37 36  1  0
 39 40  1  0
 40 43  1  0
 40 42  1  0
 41 39  2  0
 44 45  1  0
 44 19  1  0
 46 44  1  0
 47 50  1  0
 47  1  1  0
 48 47  1  0
 49 47  1  0
 51 52  1  0
 51 50  2  0
 53 64  2  0
 54 52  1  0
 54 59  1  0
 55 63  1  0
 55 65  1  0
 56 62  1  0
 56 58  1  0
 57 63  1  0
 58 59  2  0
 58 57  1  0
 60 61  1  0
 60 54  2  0
 61 56  2  0
 62 55  1  0
 63 53  1  0
 65 67  2  0
 66 65  1  0
 68 66  1  0
 69 78  2  0
 69 74  1  0
 70 66  1  0
 70 74  1  0
 71 70  1  0
 72 73  1  0
 72 71  1  0
 73 69  1  0
 74 75  2  0
 75 76  1  0
 77 76  2  0
 78 77  1  0
 79 53  1  0
 79 84  1  0
 79 80  1  0
 80 83  1  1
 80 81  1  0
 82 80  1  0
 84 87  1  0
 85 89  1  0
 85 84  1  0
 86 85  2  0
 89 88  1  0
 91 89  1  0
 91 92  1  0
 91 90  1  0
M  ISO  4   9 100  17 100  51 101  52 101
M  END
>  <TORSDO>  (40) 
F 20

>  <SCORE>  (40) 
-13.810

>  <name>  (40) 
39

>  <ligand_id>  (40) 
39

>  <original_smiles>  (40) 
[H]c1c([H])c([H])c2c(c1[H])C([H])([H])C([H])([H])C([H])([H])C2([H])N([H])C(=O)C1([H])N(C(=O)C([H])(N([H])C(=O)C([H])(N([H])C([H])([H])[H])C([H])([H])[H])C(C([H])([H])[H])(C([H])([H])[H])C([H])([H])[H])C([H])([H])c2c([H])c(OC([H])([H])C([H])([H])[N+]([H])([H])C([H])([H])c3c([H])c(N([H])C(=O)N4C([H])([H])C([H])([H])C([H])([H])C([H])(n5nc(-c6c([H])c([H])c(Oc7c([H])c([H])c(F)c([H])c7F)c([H])c6[H])c(C(=O)N([H])[H])c5N([H])[H])C4([H])[H])nc(C([H])([H])[H])c3[H])c([H])c([H])c2C1([H])[H]

>  <smiles>  (40) 
[H]c1c([H])c([H])c2c(c1[H])C([H])([H])C([H])([H])C([H])([H])C2([H])N([H])C(=O)C1([H])N(C(=O)C([H])(N([H])C(=O)C([H])(N([H])C([H])([H])[H])C([H])([H])[H])C(C([H])([H])[H])(C([H])([H])[H])C([H])([H])[H])C([H])([H])c2c([H])c(OC([H])([H])C([H])([H])[N+]([H])([H])C([H])([H])c3c([H])c(N([H])C(=O)N4C([H])([H])C([H])([H])C([H])([H])C([H])(n5nc(-c6c([H])c([H])c(Oc7c([H])c([H])c(F)c([H])c7F)c([H])c6[H])c(C(=O)N([H])[H])c5N([H])[H])C4([H])[H])nc(C([H])([H])[H])c3[H])c([H])c([H])c2C1([H])[H]

$$$$
40:0:0
     RDKit          3D

 94104  0  0  1  0  0  0  0  0999 V2000
  -27.9860  -22.4170   19.0460 C   0  0  0  0  0  3  0  0  0  0  0  0
  -28.6950  -23.3210   19.8850 C   0  0  0  0  0  0  0  0  0  0  0  0
  -29.6670  -22.6140   20.6150 C   0  0  0  0  0  0  0  0  0  0  0  0
  -29.1950  -20.4420   19.7510 C   0  0  0  0  0  0  0  0  0  0  0  0
  -29.6860  -24.9560   21.3180 C   0  0  0  0  0  2  0  0  0  0  0  0
  -28.4050  -24.8350   20.4330 C   0  0  2  0  0  0  0  0  0  0  0  0
  -30.3390  -23.5480   21.6040 C   0  0  2  0  0  0  0  0  0  0  0  0
  -27.1640  -24.7460   21.3490 C   0  0  0  0  0  1  0  0  0  0  0  0
  -31.8600  -23.5910   21.3610 C   0  0  0  0  0  1  0  0  0  0  0  0
  -30.0500  -23.1050   23.0510 C   0  0  0  0  0  1  0  0  0  0  0  0
  -28.2430  -21.0500   18.9930 N   0  0  0  0  0  0  0  0  0  0  0  0
  -29.9250  -21.2440   20.5650 N   0  0  0  0  0  0  0  0  0  0  0  0
  -30.6840  -14.9900   19.8530 C   0  0  0  0  0  0  0  0  0  0  0  0
  -30.4730  -12.6260   18.9400 C   0  0  0  0  0  2  0  0  0  0  0  0
  -29.4620  -12.5490   17.7720 C   0  0  0  0  0  2  0  0  0  0  0  0
  -28.0310  -12.3420   18.2990 C   0  0  0  0  0  2  0  0  0  0  0  0
  -27.7000  -13.2840   19.4870 C   0  0  0  0  0  3  0  0  0  0  0  0
  -28.8290  -13.3010   20.5400 C   0  0  0  0  0  2  0  0  0  0  0  0
  -30.0490  -13.7400   19.8450 N   0  0  0  0  0  0  0  0  0  0  0  0
  -31.8510  -15.0020   19.4400 O   0  0  0  0  0  0  0  0  0  0  0  0
  -28.6380  -18.0900   21.0640 C   0  0  0  0  0  2  0  0  0  0  0  0
  -28.8680  -16.5380   20.9160 C   0  0  0  0  0  2  0  0  0  0  0  0
  -30.3890  -17.6770   19.5370 C   0  0  0  0  0  2  0  0  0  0  0  0
  -29.2150  -18.7750   19.8240 C   0  0  0  0  0  3  0  0  0  0  0  0
  -29.9960  -16.2450   20.0060 N   0  0  0  0  0  0  0  0  0  0  0  0
  -25.3880  -13.8740   20.4150 C   0  0  0  0  0  0  0  0  0  0  0  0
  -24.3420  -13.1040   20.8410 C   0  0  0  0  0  0  0  0  0  0  0  0
  -24.7780  -11.7490   20.7280 C   0  0  0  0  0  0  0  0  0  0  0  0
  -26.3970  -12.9900   20.0720 N   0  0  0  0  0  0  0  0  0  0  0  0
  -26.0430  -11.7030   20.3240 N   0  0  0  0  0  0  0  0  0  0  0  0
  -24.0420  -10.4940   20.9240 C   0  0  0  0  0  0  0  0  0  0  0  0
  -24.4590   -9.5320   21.8710 C   0  0  0  0  0  3  0  0  0  0  0  0
  -23.7210   -8.3430   22.0560 C   0  0  0  0  0  3  0  0  0  0  0  0
  -22.5510   -8.1080   21.2950 C   0  0  0  0  0  0  0  0  0  0  0  0
  -22.1540   -9.0570   20.3370 C   0  0  0  0  0  3  0  0  0  0  0  0
  -22.8930  -10.2380   20.1500 C   0  0  0  0  0  3  0  0  0  0  0  0
  -21.7860   -6.9710   21.3880 O   0  0  0  0  0  0  0  0  0  0  0  0
  -21.6520   -6.2900   22.5720 C   0  0  0  0  0  0  0  0  0  0  0  0
  -21.0890   -6.8910   23.7180 C   0  0  0  0  0  3  0  0  0  0  0  0
  -20.9060   -6.1340   24.8930 C   0  0  0  0  0  3  0  0  0  0  0  0
  -21.2760   -4.7760   24.9210 C   0  0  0  0  0  0  0  0  0  0  0  0
  -21.8320   -4.1740   23.7780 C   0  0  0  0  0  3  0  0  0  0  0  0
  -22.0160   -4.9280   22.6060 C   0  0  0  0  0  0  0  0  0  0  0  0
  -22.5330   -4.3380   21.5010 F   0  0  0  0  0  0  0  0  0  0  0  0
  -21.0940   -4.0460   26.0460 F   0  0  0  0  0  0  0  0  0  0  0  0
  -22.9790  -13.5960   21.2300 C   0  0  0  0  0  0  0  0  0  0  0  0
  -22.3050  -12.8860   22.1270 N   0  0  0  0  0  0  0  0  0  0  0  0
  -22.5240  -14.6450   20.7740 O   0  0  0  0  0  0  0  0  0  0  0  0
  -22.6880  -12.0370   22.5160 H   0  0  0  0  0  0  0  0  0  0  0  0
  -21.3930  -13.1960   22.4310 H   0  0  0  0  0  0  0  0  0  0  0  0
  -25.5480  -15.2470   20.2620 N   0  0  0  0  0  0  0  0  0  0  0  0
  -24.7900  -15.8960   20.4370 H   0  0  0  0  0  0  0  0  0  0  0  0
  -26.3540  -15.6850   19.8350 H   0  0  0  0  0  0  0  0  0  0  0  0
  -28.3760  -26.1800   19.6410 O   0  0  0  0  0  0  0  0  0  0  0  0
  -24.5420  -31.5970   22.9210 C   0  0  0  0  0  0  0  0  0  0  0  0
  -27.2880  -27.1270   19.6950 C   0  0  0  0  0  0  0  0  0  0  0  0
  -23.3880  -30.2190   21.2340 C   0  0  0  0  0  3  0  0  0  0  0  0
  -24.8900  -28.7650   19.7390 C   0  0  0  0  0  0  0  0  0  0  0  0
  -25.9250  -30.6000   21.0630 C   0  0  0  0  0  2  0  0  0  0  0  0
  -26.0530  -29.2380   20.3610 C   0  0  0  0  0  0  0  0  0  0  0  0
  -27.2560  -28.4350   20.3250 C   0  0  0  0  0  3  0  0  0  0  0  0
  -26.1010  -26.7630   19.0250 C   0  0  0  0  0  3  0  0  0  0  0  0
  -24.9240  -27.5410   19.0560 C   0  0  0  0  0  3  0  0  0  0  0  0
  -23.6270  -29.6080   19.8280 C   0  0  0  0  0  2  0  0  0  0  0  0
  -24.6380  -30.8260   21.7940 N   0  0  0  0  0  0  0  0  0  0  0  0
  -23.4500  -31.8150   23.4670 O   0  0  0  0  0  0  0  0  0  0  0  0
  -22.7590  -29.1470   22.1590 C   0  0  0  0  0  0  0  0  0  0  0  0
  -21.4310  -28.9570   22.0650 N   0  0  0  0  0  0  0  0  0  0  0  0
  -23.4680  -28.4900   22.9250 O   0  0  0  0  0  0  0  0  0  0  0  0
  -20.9140  -29.5410   21.4230 H   0  0  0  0  0  0  0  0  0  0  0  0
  -18.0880  -27.6700   22.6130 C   0  0  0  0  0  0  0  0  0  0  0  0
  -20.6510  -27.9630   22.8070 C   0  0  0  0  0  3  0  0  0  0  0  0
  -20.7550  -26.5670   22.1480 C   0  0  0  0  0  2  0  0  0  0  0  0
  -19.6230  -26.2840   21.1550 C   0  0  0  0  0  2  0  0  0  0  0  0
  -18.2620  -26.3660   21.8530 C   0  0  0  0  0  2  0  0  0  0  0  0
  -19.2090  -28.4270   23.0470 C   0  0  0  0  0  0  0  0  0  0  0  0
  -18.9900  -29.6490   23.7210 C   0  0  0  0  0  3  0  0  0  0  0  0
  -17.6840  -30.1140   23.9630 C   0  0  0  0  0  3  0  0  0  0  0  0
  -16.5790  -29.3550   23.5430 C   0  0  0  0  0  3  0  0  0  0  0  0
  -16.7820  -28.1350   22.8730 C   0  0  0  0  0  3  0  0  0  0  0  0
  -25.7990  -32.2590   23.5640 C   0  0  0  0  0  3  0  0  0  0  0  0
  -25.4190  -33.6140   23.9950 N   0  0  0  0  0  0  0  0  0  0  0  0
  -25.6840  -34.7370   23.3120 C   0  0  0  0  0  0  0  0  0  0  0  0
  -26.3400  -34.7410   22.2670 O   0  0  0  0  0  0  0  0  0  0  0  0
  -24.8300  -33.6790   24.8110 H   0  0  0  0  0  0  0  0  0  0  0  0
  -23.8590  -36.4590   23.1190 C   0  0  0  0  0  1  0  0  0  0  0  0
  -25.1360  -36.0620   23.8770 C   0  0  0  0  0  3  0  0  0  0  0  0
  -27.2320  -37.0050   24.7420 C   0  0  0  0  0  1  0  0  0  0  0  0
  -26.1100  -37.1730   23.8210 N   0  0  0  0  0  0  0  0  0  0  0  0
  -25.6590  -38.0600   24.0310 H   0  0  0  0  0  0  0  0  0  0  0  0
  -26.3780  -31.4370   24.7810 C   0  0  1  0  0  0  0  0  0  0  0  0
  -25.3180  -31.0790   25.8510 C   0  0  0  0  0  1  0  0  0  0  0  0
  -27.0210  -30.1170   24.2980 C   0  0  0  0  0  1  0  0  0  0  0  0
  -27.5000  -32.2470   25.4710 C   0  0  0  0  0  1  0  0  0  0  0  0
  1  2  2  0
  2  6  1  0
  2  3  1  0
  3  7  1  0
  4 12  1  0
  5  7  1  0
  6  5  1  0
  6  8  1  1
  7 10  1  1
  9  7  1  0
 11  1  1  0
 11  4  2  0
 12  3  2  0
 13 25  1  0
 14 19  1  0
 15 16  1  0
 15 14  1  0
 17 16  1  0
 17 29  1  0
 17 18  1  0
 19 13  1  0
 19 18  1  0
 20 13  2  0
 22 21  1  0
 23 24  1  0
 23 25  1  0
 24  4  1  0
 24 21  1  0
 25 22  1  0
 26 27  2  0
 27 46  1  0
 28 27  1  0
 28 31  1  0
 29 30  1  0
 29 26  1  0
 30 28  2  0
 31 32  1  0
 32 33  2  0
 34 37  1  0
 34 33  1  0
 35 34  2  0
 36 35  1  0
 36 31  2  0
 37 38  1  0
 38 43  2  0
 38 39  1  0
 39 40  2  0
 40 41  1  0
 41 45  1  0
 42 41  2  0
 43 42  1  0
 44 43  1  0
 46 47  1  0
 47 50  1  0
 47 49  1  0
 48 46  2  0
 51 26  1  0
 51 52  1  0
 53 51  1  0
 54 56  1  0
 54  6  1  0
 55 66  2  0
 56 61  1  0
 57 65  1  0
 57 67  1  0
 58 64  1  0
 58 60  1  0
 59 65  1  0
 60 59  1  0
 61 60  2  0
 62 63  1  0
 62 56  2  0
 63 58  2  0
 64 57  1  0
 65 55  1  0
 67 69  2  0
 68 67  1  0
 70 68  1  0
 71 80  2  0
 71 76  1  0
 72 68  1  0
 72 76  1  0
 73 72  1  0
 74 75  1  0
 74 73  1  0
 75 71  1  0
 76 77  2  0
 77 78  1  0
 79 78  2  0
 80 79  1  0
 81 55  1  0
 81 82  1  0
 81 91  1  0
 82 85  1  0
 83 87  1  0
 83 82  1  0
 84 83  2  0
 87 86  1  0
 89 87  1  0
 89 90  1  0
 89 88  1  0
 91 94  1  1
 91 92  1  0
 93 91  1  0
M  ISO  4   6 101  13 100  25 100  54 101
M  END
>  <TORSDO>  (41) 
F 16

>  <SCORE>  (41) 
-13.918

>  <name>  (41) 
40

>  <ligand_id>  (41) 
40

>  <original_smiles>  (41) 
[H]c1nc(C2([H])C([H])([H])N(C(=O)N3C([H])([H])C([H])([H])C([H])([H])C([H])(n4nc(-c5c([H])c([H])c(Oc6c([H])c([H])c(F)c([H])c6F)c([H])c5[H])c(C(=O)N([H])[H])c4N([H])[H])C3([H])[H])C([H])([H])C2([H])[H])nc2c1C(Oc1c([H])c([H])c3c(c1[H])C([H])([H])N(C(=O)C([H])(N([H])C(=O)C([H])(N([H])C([H])([H])[H])C([H])([H])[H])C(C([H])([H])[H])(C([H])([H])[H])C([H])([H])[H])C([H])(C(=O)N([H])C1([H])c4c([H])c([H])c([H])c([H])c4C([H])([H])C([H])([H])C1([H])[H])C3([H])[H])(C([H])([H])[H])C([H])([H])C2(C([H])([H])[H])C([H])([H])[H]

>  <smiles>  (41) 
[H]c1nc(C2([H])C([H])([H])N(C(=O)N3C([H])([H])C([H])([H])C([H])([H])C([H])(n4nc(-c5c([H])c([H])c(Oc6c([H])c([H])c(F)c([H])c6F)c([H])c5[H])c(C(=O)N([H])[H])c4N([H])[H])C3([H])[H])C([H])([H])C2([H])[H])nc2c1C(Oc1c([H])c([H])c3c(c1[H])C([H])([H])N(C(=O)C([H])(N([H])C(=O)C([H])(N([H])C([H])([H])[H])C([H])([H])[H])C(C([H])([H])[H])(C([H])([H])[H])C([H])([H])[H])C([H])(C(=O)N([H])C1([H])c4c([H])c([H])c([H])c([H])c4C([H])([H])C([H])([H])C1([H])[H])C3([H])[H])(C([H])([H])[H])C([H])([H])C2(C([H])([H])[H])C([H])([H])[H]

$$$$
41:0:0
     RDKit          3D

 92101  0  0  1  0  0  0  0  0999 V2000
  -28.9830  -22.6010   18.9320 C   0  0  0  0  0  3  0  0  0  0  0  0
  -29.0150  -23.0110   21.2540 C   0  0  0  0  0  3  0  0  0  0  0  0
  -29.5060  -20.6310   20.4480 C   0  0  0  0  0  0  0  0  0  0  0  0
  -28.8100  -23.5770   19.9680 C   0  0  0  0  0  0  0  0  0  0  0  0
  -29.3170  -21.2050   19.1440 C   0  0  0  0  0  0  0  0  0  0  0  0
  -29.3330  -21.6180   21.4910 C   0  0  0  0  0  0  0  0  0  0  0  0
  -29.3970  -20.3180   17.9140 C   0  0  0  0  0  1  0  0  0  0  0  0
  -29.4280  -21.2000   22.9520 C   0  0  0  0  0  1  0  0  0  0  0  0
  -31.1050  -18.8900   21.6530 C   0  0  0  0  0  2  0  0  0  0  0  0
  -31.7870  -18.1890   20.4780 C   0  0  0  0  0  2  0  0  0  0  0  0
  -29.8240  -19.0520   20.8050 C   0  0  0  0  0  3  0  0  0  0  0  0
  -30.4030  -17.7090   20.0200 C   0  0  0  0  0  3  0  0  0  0  0  0
  -30.8700  -15.0690   20.3040 C   0  0  0  0  0  0  0  0  0  0  0  0
  -30.7060  -12.7190   19.4270 C   0  0  0  0  0  2  0  0  0  0  0  0
  -29.7840  -12.6840   18.1870 C   0  0  0  0  0  2  0  0  0  0  0  0
  -28.3220  -12.4790   18.6180 C   0  0  0  0  0  2  0  0  0  0  0  0
  -27.9100  -13.4310   19.7740 C   0  0  0  0  0  3  0  0  0  0  0  0
  -28.9580  -13.4710   20.9100 C   0  0  0  0  0  2  0  0  0  0  0  0
  -30.2510  -13.8280   20.3100 N   0  0  0  0  0  0  0  0  0  0  0  0
  -32.0420  -15.1290   19.9230 O   0  0  0  0  0  0  0  0  0  0  0  0
  -30.1320  -16.2480   20.5090 N   0  0  0  0  0  0  0  0  0  0  0  0
  -29.2020  -16.0950   20.8690 H   0  0  0  0  0  0  0  0  0  0  0  0
  -25.5280  -13.9970   20.5270 C   0  0  0  0  0  0  0  0  0  0  0  0
  -24.4660  -13.2140   20.8880 C   0  0  0  0  0  0  0  0  0  0  0  0
  -24.9320  -11.8640   20.8290 C   0  0  0  0  0  0  0  0  0  0  0  0
  -26.5720  -13.1250   20.2690 N   0  0  0  0  0  0  0  0  0  0  0  0
  -26.2220  -11.8350   20.5150 N   0  0  0  0  0  0  0  0  0  0  0  0
  -24.2070  -10.5970   20.9980 C   0  0  0  0  0  0  0  0  0  0  0  0
  -24.6010   -9.6440   21.9640 C   0  0  0  0  0  3  0  0  0  0  0  0
  -23.8740   -8.4440   22.1220 C   0  0  0  0  0  3  0  0  0  0  0  0
  -22.7410   -8.1890   21.3140 C   0  0  0  0  0  0  0  0  0  0  0  0
  -22.3670   -9.1290   20.3390 C   0  0  0  0  0  3  0  0  0  0  0  0
  -23.0940  -10.3220   20.1790 C   0  0  0  0  0  3  0  0  0  0  0  0
  -21.9910   -7.0400   21.3790 O   0  0  0  0  0  0  0  0  0  0  0  0
  -21.7970   -6.3720   22.5620 C   0  0  0  0  0  0  0  0  0  0  0  0
  -21.1690   -6.9840   23.6680 C   0  0  0  0  0  3  0  0  0  0  0  0
  -20.9290   -6.2400   24.8410 C   0  0  0  0  0  3  0  0  0  0  0  0
  -21.3060   -4.8850   24.9060 C   0  0  0  0  0  0  0  0  0  0  0  0
  -21.9260   -4.2730   23.8030 C   0  0  0  0  0  3  0  0  0  0  0  0
  -22.1700   -5.0150   22.6330 C   0  0  0  0  0  0  0  0  0  0  0  0
  -22.7480   -4.4150   21.5650 F   0  0  0  0  0  0  0  0  0  0  0  0
  -21.0690   -4.1680   26.0290 F   0  0  0  0  0  0  0  0  0  0  0  0
  -23.0710  -13.6840   21.1770 C   0  0  0  0  0  0  0  0  0  0  0  0
  -22.3560  -12.9750   22.0440 N   0  0  0  0  0  0  0  0  0  0  0  0
  -22.6240  -14.7130   20.6740 O   0  0  0  0  0  0  0  0  0  0  0  0
  -22.7330  -12.1410   22.4680 H   0  0  0  0  0  0  0  0  0  0  0  0
  -21.4190  -13.2680   22.2870 H   0  0  0  0  0  0  0  0  0  0  0  0
  -25.6880  -15.3700   20.3700 N   0  0  0  0  0  0  0  0  0  0  0  0
  -24.9120  -16.0130   20.4750 H   0  0  0  0  0  0  0  0  0  0  0  0
  -26.5230  -15.8160   20.0130 H   0  0  0  0  0  0  0  0  0  0  0  0
  -28.0630  -24.9950   19.6980 C   0  0  0  0  0  2  0  0  0  0  0  0
  -28.4180  -26.4160   20.1510 O   0  0  0  0  0  0  0  0  0  0  0  0
  -24.6990  -31.8650   23.3680 C   0  0  0  0  0  0  0  0  0  0  0  0
  -27.3740  -27.4020   20.1000 C   0  0  0  0  0  0  0  0  0  0  0  0
  -23.5440  -30.5620   21.6290 C   0  0  0  0  0  3  0  0  0  0  0  0
  -25.0320  -29.1070   20.1390 C   0  0  0  0  0  0  0  0  0  0  0  0
  -26.0980  -30.8660   21.5300 C   0  0  0  0  0  2  0  0  0  0  0  0
  -26.1950  -29.5230   20.7980 C   0  0  0  0  0  0  0  0  0  0  0  0
  -27.3690  -28.6830   20.7730 C   0  0  0  0  0  3  0  0  0  0  0  0
  -26.1850  -27.0990   19.3920 C   0  0  0  0  0  3  0  0  0  0  0  0
  -25.0360  -27.9050   19.4240 C   0  0  0  0  0  3  0  0  0  0  0  0
  -23.7950  -29.9810   20.2140 C   0  0  0  0  0  2  0  0  0  0  0  0
  -24.7990  -31.1130   22.2320 N   0  0  0  0  0  0  0  0  0  0  0  0
  -23.6010  -32.1040   23.8910 O   0  0  0  0  0  0  0  0  0  0  0  0
  -22.8620  -29.4850   22.5090 C   0  0  0  0  0  0  0  0  0  0  0  0
  -21.5420  -29.2950   22.3330 N   0  0  0  0  0  0  0  0  0  0  0  0
  -23.5230  -28.8250   23.3160 O   0  0  0  0  0  0  0  0  0  0  0  0
  -21.0630  -29.8880   21.6680 H   0  0  0  0  0  0  0  0  0  0  0  0
  -18.1690  -28.0160   22.6680 C   0  0  0  0  0  0  0  0  0  0  0  0
  -20.7150  -28.3040   23.0250 C   0  0  0  0  0  3  0  0  0  0  0  0
  -20.8590  -26.9050   22.3810 C   0  0  0  0  0  2  0  0  0  0  0  0
  -19.7910  -26.6150   21.3220 C   0  0  0  0  0  2  0  0  0  0  0  0
  -18.3880  -26.7090   21.9270 C   0  0  0  0  0  2  0  0  0  0  0  0
  -19.2620  -28.7740   23.1690 C   0  0  0  0  0  0  0  0  0  0  0  0
  -19.0030  -30.0000   23.8190 C   0  0  0  0  0  3  0  0  0  0  0  0
  -17.6840  -30.4700   23.9730 C   0  0  0  0  0  3  0  0  0  0  0  0
  -16.6060  -29.7080   23.4890 C   0  0  0  0  0  3  0  0  0  0  0  0
  -16.8490  -28.4830   22.8430 C   0  0  0  0  0  3  0  0  0  0  0  0
  -25.9590  -32.4770   24.0540 C   0  0  0  0  0  3  0  0  0  0  0  0
  -25.6510  -33.8720   24.3960 N   0  0  0  0  0  0  0  0  0  0  0  0
  -25.9730  -34.9330   23.6440 C   0  0  0  0  0  0  0  0  0  0  0  0
  -26.6330  -34.8380   22.6060 O   0  0  0  0  0  0  0  0  0  0  0  0
  -25.0810  -34.0200   25.2160 H   0  0  0  0  0  0  0  0  0  0  0  0
  -24.2290  -36.7180   23.3420 C   0  0  0  0  0  1  0  0  0  0  0  0
  -25.4910  -36.3170   24.1210 C   0  0  0  0  0  3  0  0  0  0  0  0
  -27.6340  -37.2170   24.9130 C   0  0  0  0  0  1  0  0  0  0  0  0
  -26.5160  -37.3770   23.9890 N   0  0  0  0  0  0  0  0  0  0  0  0
  -26.1060  -38.2950   24.1440 H   0  0  0  0  0  0  0  0  0  0  0  0
  -26.4070  -31.6830   25.3420 C   0  0  1  0  0  0  0  0  0  0  0  0
  -25.2620  -31.4410   26.3530 C   0  0  0  0  0  1  0  0  0  0  0  0
  -27.0050  -30.3110   24.9580 C   0  0  0  0  0  1  0  0  0  0  0  0
  -27.5270  -32.4630   26.0720 C   0  0  0  0  0  1  0  0  0  0  0  0
  1  5  2  0
  1  4  1  0
  2  6  1  0
  3  6  2  0
  4  2  2  0
  5  3  1  0
  6  8  1  0
  7  5  1  0
 10  9  1  0
 11  3  1  0
 11  9  1  0
 12 10  1  0
 12 21  1  0
 12 11  1  0
 13 19  1  0
 13 21  1  0
 14 19  1  0
 15 16  1  0
 15 14  1  0
 17 16  1  0
 17 26  1  0
 17 18  1  0
 19 18  1  0
 20 13  2  0
 21 22  1  0
 23 24  2  0
 24 43  1  0
 25 24  1  0
 25 28  1  0
 26 27  1  0
 26 23  1  0
 27 25  2  0
 28 29  1  0
 29 30  2  0
 31 34  1  0
 31 30  1  0
 32 31  2  0
 33 32  1  0
 33 28  2  0
 34 35  1  0
 35 40  2  0
 35 36  1  0
 36 37  2  0
 37 38  1  0
 38 42  1  0
 39 38  2  0
 40 39  1  0
 41 40  1  0
 43 44  1  0
 44 47  1  0
 44 46  1  0
 45 43  2  0
 48 49  1  0
 48 23  1  0
 50 48  1  0
 51  4  1  0
 51 52  1  0
 53 64  2  0
 54 52  1  0
 54 59  1  0
 55 63  1  0
 55 65  1  0
 56 62  1  0
 56 58  1  0
 57 63  1  0
 58 57  1  0
 59 58  2  0
 60 61  1  0
 60 54  2  0
 61 56  2  0
 62 55  1  0
 63 53  1  0
 65 67  2  0
 66 65  1  0
 68 66  1  0
 69 78  2  0
 69 74  1  0
 70 66  1  0
 70 74  1  0
 71 70  1  0
 72 73  1  0
 72 71  1  0
 73 69  1  0
 74 75  2  0
 75 76  1  0
 77 76  2  0
 78 77  1  0
 79 53  1  0
 79 80  1  0
 79 89  1  0
 80 83  1  0
 81 85  1  0
 81 80  1  0
 82 81  2  0
 85 84  1  0
 87 85  1  0
 87 88  1  0
 87 86  1  0
 89 92  1  1
 89 90  1  0
 91 89  1  0
M  ISO  4  13 100  21 100  51 101  52 101
M  END
>  <TORSDO>  (42) 
F 18

>  <SCORE>  (42) 
-14.188

>  <name>  (42) 
41

>  <ligand_id>  (42) 
41

>  <original_smiles>  (42) 
[H]c1c([H])c([H])c2c(c1[H])C([H])([H])C([H])([H])C([H])([H])C2([H])N([H])C(=O)C1([H])N(C(=O)C([H])(N([H])C(=O)C([H])(N([H])C([H])([H])[H])C([H])([H])[H])C(C([H])([H])[H])(C([H])([H])[H])C([H])([H])[H])C([H])([H])c2c([H])c(OC([H])([H])c3c([H])c(C([H])([H])[H])c(C4([H])C([H])([H])C([H])([H])C4([H])N([H])C(=O)N4C([H])([H])C([H])([H])C([H])([H])C([H])(n5nc(-c6c([H])c([H])c(Oc7c([H])c([H])c(F)c([H])c7F)c([H])c6[H])c(C(=O)N([H])[H])c5N([H])[H])C4([H])[H])c(C([H])([H])[H])c3[H])c([H])c([H])c2C1([H])[H]

>  <smiles>  (42) 
[H]c1c([H])c([H])c2c(c1[H])C([H])([H])C([H])([H])C([H])([H])C2([H])N([H])C(=O)C1([H])N(C(=O)C([H])(N([H])C(=O)C([H])(N([H])C([H])([H])[H])C([H])([H])[H])C(C([H])([H])[H])(C([H])([H])[H])C([H])([H])[H])C([H])([H])c2c([H])c(OC([H])([H])c3c([H])c(C([H])([H])[H])c(C4([H])C([H])([H])C([H])([H])C4([H])N([H])C(=O)N4C([H])([H])C([H])([H])C([H])([H])C([H])(n5nc(-c6c([H])c([H])c(Oc7c([H])c([H])c(F)c([H])c7F)c([H])c6[H])c(C(=O)N([H])[H])c5N([H])[H])C4([H])[H])c(C([H])([H])[H])c3[H])c([H])c([H])c2C1([H])[H]

$$$$
42:0:0
     RDKit          3D

 92101  0  0  1  0  0  0  0  0999 V2000
  -27.7180  -20.5320   19.2920 C   0  0  0  0  0  3  0  0  0  0  0  0
  -29.1170  -20.6540   19.4320 C   0  0  0  0  0  0  0  0  0  0  0  0
  -29.5270  -22.1020   19.4680 C   0  0  0  0  0  0  0  0  0  0  0  0
  -26.8580  -21.6510   19.2930 C   0  0  0  0  0  0  0  0  0  0  0  0
  -28.5710  -23.2620   19.4710 C   0  0  0  0  0  0  0  0  0  0  0  0
  -31.0210  -22.4280   19.4420 C   0  0  0  0  0  1  0  0  0  0  0  0
  -25.3670  -21.4610   19.0740 C   0  0  0  0  0  1  0  0  0  0  0  0
  -27.2590  -22.9390   19.4170 N   0  0  0  0  0  0  0  0  0  0  0  0
  -30.0260  -19.2320   19.4930 C   0  0  0  0  0  2  0  0  0  0  0  0
  -30.7660  -15.0520   19.6300 C   0  0  0  0  0  0  0  0  0  0  0  0
  -30.5810  -12.6390   18.7940 C   0  0  0  0  0  2  0  0  0  0  0  0
  -29.5730  -12.5390   17.6250 C   0  0  0  0  0  2  0  0  0  0  0  0
  -28.1440  -12.3370   18.1600 C   0  0  0  0  0  2  0  0  0  0  0  0
  -27.8120  -13.3160   19.3170 C   0  0  0  0  0  3  0  0  0  0  0  0
  -28.9360  -13.3580   20.3770 C   0  0  0  0  0  2  0  0  0  0  0  0
  -30.1710  -13.7750   19.6870 N   0  0  0  0  0  0  0  0  0  0  0  0
  -31.8760  -15.0940   19.0790 O   0  0  0  0  0  0  0  0  0  0  0  0
  -28.6620  -16.9590   21.8520 C   0  0  0  0  0  2  0  0  0  0  0  0
  -28.2450  -17.6690   20.5660 C   0  0  0  0  0  2  0  0  0  0  0  0
  -30.0410  -16.3640   21.5730 C   0  0  0  0  0  2  0  0  0  0  0  0
  -29.4380  -17.6150   19.5880 C   0  0  0  0  0  3  0  0  0  0  0  0
  -30.1430  -16.2580   20.1180 N   0  0  0  0  0  0  0  0  0  0  0  0
  -25.5170  -13.9410   20.2640 C   0  0  0  0  0  0  0  0  0  0  0  0
  -24.4600  -13.1950   20.7040 C   0  0  0  0  0  0  0  0  0  0  0  0
  -24.8790  -11.8310   20.6020 C   0  0  0  0  0  0  0  0  0  0  0  0
  -26.5110  -13.0430   19.9170 N   0  0  0  0  0  0  0  0  0  0  0  0
  -26.1410  -11.7630   20.1890 N   0  0  0  0  0  0  0  0  0  0  0  0
  -24.1270  -10.5930   20.8280 C   0  0  0  0  0  0  0  0  0  0  0  0
  -24.5500   -9.6310   21.7710 C   0  0  0  0  0  3  0  0  0  0  0  0
  -23.7960   -8.4570   21.9790 C   0  0  0  0  0  3  0  0  0  0  0  0
  -22.6070   -8.2370   21.2440 C   0  0  0  0  0  0  0  0  0  0  0  0
  -22.2040   -9.1860   20.2890 C   0  0  0  0  0  3  0  0  0  0  0  0
  -22.9590  -10.3520   20.0810 C   0  0  0  0  0  3  0  0  0  0  0  0
  -21.8270   -7.1120   21.3610 O   0  0  0  0  0  0  0  0  0  0  0  0
  -21.7140   -6.4350   22.5490 C   0  0  0  0  0  0  0  0  0  0  0  0
  -21.2570   -7.0680   23.7240 C   0  0  0  0  0  3  0  0  0  0  0  0
  -21.0940   -6.3200   24.9070 C   0  0  0  0  0  3  0  0  0  0  0  0
  -21.3730   -4.9400   24.9130 C   0  0  0  0  0  0  0  0  0  0  0  0
  -21.8140   -4.3050   23.7390 C   0  0  0  0  0  3  0  0  0  0  0  0
  -21.9830   -5.0510   22.5600 C   0  0  0  0  0  0  0  0  0  0  0  0
  -22.3940   -4.4320   21.4270 F   0  0  0  0  0  0  0  0  0  0  0  0
  -21.2050   -4.2190   26.0450 F   0  0  0  0  0  0  0  0  0  0  0  0
  -23.1090  -13.7160   21.1000 C   0  0  0  0  0  0  0  0  0  0  0  0
  -22.4420  -13.0470   22.0310 N   0  0  0  0  0  0  0  0  0  0  0  0
  -22.6620  -14.7560   20.6190 O   0  0  0  0  0  0  0  0  0  0  0  0
  -22.8240  -12.2080   22.4410 H   0  0  0  0  0  0  0  0  0  0  0  0
  -21.5450  -13.3890   22.3430 H   0  0  0  0  0  0  0  0  0  0  0  0
  -25.7050  -15.3070   20.1060 N   0  0  0  0  0  0  0  0  0  0  0  0
  -24.9960  -15.9810   20.3650 H   0  0  0  0  0  0  0  0  0  0  0  0
  -26.5730  -15.7240   19.7990 H   0  0  0  0  0  0  0  0  0  0  0  0
  -28.7830  -24.8820   19.0990 C   0  0  0  0  0  2  0  0  0  0  0  0
  -28.4820  -26.2030   19.8850 O   0  0  0  0  0  0  0  0  0  0  0  0
  -24.5960  -31.6300   23.0280 C   0  0  0  0  0  0  0  0  0  0  0  0
  -27.3740  -27.1320   19.7900 C   0  0  0  0  0  0  0  0  0  0  0  0
  -23.4520  -30.2440   21.3430 C   0  0  0  0  0  3  0  0  0  0  0  0
  -24.9620  -28.7790   19.8480 C   0  0  0  0  0  0  0  0  0  0  0  0
  -25.9910  -30.6120   21.1870 C   0  0  0  0  0  2  0  0  0  0  0  0
  -26.1190  -29.2500   20.4780 C   0  0  0  0  0  0  0  0  0  0  0  0
  -27.3140  -28.4340   20.4430 C   0  0  0  0  0  3  0  0  0  0  0  0
  -26.1870  -26.7630   19.1230 C   0  0  0  0  0  3  0  0  0  0  0  0
  -25.0080  -27.5500   19.1640 C   0  0  0  0  0  3  0  0  0  0  0  0
  -23.6910  -29.6160   19.9420 C   0  0  0  0  0  2  0  0  0  0  0  0
  -24.6980  -30.8520   21.9070 N   0  0  0  0  0  0  0  0  0  0  0  0
  -23.4990  -31.8530   23.5660 O   0  0  0  0  0  0  0  0  0  0  0  0
  -22.8180  -29.1800   22.2730 C   0  0  0  0  0  0  0  0  0  0  0  0
  -21.4930  -28.9750   22.1560 N   0  0  0  0  0  0  0  0  0  0  0  0
  -23.5200  -28.5410   23.0610 O   0  0  0  0  0  0  0  0  0  0  0  0
  -20.9840  -29.5400   21.4910 H   0  0  0  0  0  0  0  0  0  0  0  0
  -18.1570  -27.6640   22.6660 C   0  0  0  0  0  0  0  0  0  0  0  0
  -20.7120  -27.9810   22.8950 C   0  0  0  0  0  3  0  0  0  0  0  0
  -20.8400  -26.5810   22.2480 C   0  0  0  0  0  2  0  0  0  0  0  0
  -19.7250  -26.2810   21.2410 C   0  0  0  0  0  2  0  0  0  0  0  0
  -18.3520  -26.3560   21.9170 C   0  0  0  0  0  2  0  0  0  0  0  0
  -19.2630  -28.4370   23.1120 C   0  0  0  0  0  0  0  0  0  0  0  0
  -19.0230  -29.6590   23.7760 C   0  0  0  0  0  3  0  0  0  0  0  0
  -17.7070  -30.1100   23.9960 C   0  0  0  0  0  3  0  0  0  0  0  0
  -16.6160  -29.3350   23.5650 C   0  0  0  0  0  3  0  0  0  0  0  0
  -16.8420  -28.1140   22.9070 C   0  0  0  0  0  3  0  0  0  0  0  0
  -25.8450  -32.2970   23.6780 C   0  0  0  0  0  3  0  0  0  0  0  0
  -25.4750  -33.6710   24.0640 N   0  0  0  0  0  0  0  0  0  0  0  0
  -25.7630  -34.7690   23.3530 C   0  0  0  0  0  0  0  0  0  0  0  0
  -26.4330  -34.7350   22.3180 O   0  0  0  0  0  0  0  0  0  0  0  0
  -24.8750  -33.7670   24.8710 H   0  0  0  0  0  0  0  0  0  0  0  0
  -23.9530  -36.4980   23.0930 C   0  0  0  0  0  1  0  0  0  0  0  0
  -25.2230  -36.1180   23.8700 C   0  0  0  0  0  3  0  0  0  0  0  0
  -27.3250  -37.0660   24.7160 C   0  0  0  0  0  1  0  0  0  0  0  0
  -26.2090  -37.2180   23.7870 N   0  0  0  0  0  0  0  0  0  0  0  0
  -25.7640  -38.1140   23.9660 H   0  0  0  0  0  0  0  0  0  0  0  0
  -26.3890  -31.5060   24.9330 C   0  0  1  0  0  0  0  0  0  0  0  0
  -25.3020  -31.1940   25.9900 C   0  0  0  0  0  1  0  0  0  0  0  0
  -27.0220  -30.1630   24.5030 C   0  0  0  0  0  1  0  0  0  0  0  0
  -27.5080  -32.3240   25.6220 C   0  0  0  0  0  1  0  0  0  0  0  0
  1  4  2  0
  1  2  1  0
  2  3  2  0
  2  9  1  0
  3  5  1  0
  4  8  1  0
  6  3  1  0
  7  4  1  0
  8  5  2  0
 10 16  1  0
 10 22  1  0
 11 16  1  0
 12 13  1  0
 12 11  1  0
 14 13  1  0
 14 26  1  0
 14 15  1  0
 16 15  1  0
 17 10  2  0
 19 18  1  0
 20 18  1  0
 21  9  1  0
 21 22  1  0
 21 19  1  0
 22 20  1  0
 23 24  2  0
 24 43  1  0
 25 24  1  0
 25 28  1  0
 26 27  1  0
 26 23  1  0
 27 25  2  0
 28 29  1  0
 29 30  2  0
 31 34  1  0
 31 30  1  0
 32 31  2  0
 33 32  1  0
 33 28  2  0
 34 35  1  0
 35 40  2  0
 35 36  1  0
 36 37  2  0
 37 38  1  0
 38 42  1  0
 39 38  2  0
 40 39  1  0
 41 40  1  0
 43 44  1  0
 44 47  1  0
 44 46  1  0
 45 43  2  0
 48 23  1  0
 48 49  1  0
 50 48  1  0
 51  5  1  0
 51 52  1  0
 53 64  2  0
 54 52  1  0
 54 59  1  0
 55 63  1  0
 55 65  1  0
 56 62  1  0
 56 58  1  0
 57 63  1  0
 58 57  1  0
 59 58  2  0
 60 61  1  0
 60 54  2  0
 61 56  2  0
 62 55  1  0
 63 53  1  0
 65 67  2  0
 66 65  1  0
 68 66  1  0
 69 78  2  0
 69 74  1  0
 70 66  1  0
 70 74  1  0
 71 70  1  0
 72 73  1  0
 72 71  1  0
 73 69  1  0
 74 75  2  0
 75 76  1  0
 77 76  2  0
 78 77  1  0
 79 53  1  0
 79 80  1  0
 79 89  1  0
 80 83  1  0
 81 85  1  0
 81 80  1  0
 82 81  2  0
 85 84  1  0
 87 85  1  0
 87 88  1  0
 87 86  1  0
 89 92  1  1
 89 90  1  0
 91 89  1  0
M  ISO  4  10 100  22 100  51 101  52 101
M  END
>  <TORSDO>  (43) 
F 18

>  <SCORE>  (43) 
-12.513

>  <name>  (43) 
42

>  <ligand_id>  (43) 
42

>  <original_smiles>  (43) 
[H]c1c([H])c([H])c2c(c1[H])C([H])([H])C([H])([H])C([H])([H])C2([H])N([H])C(=O)C1([H])N(C(=O)C([H])(N([H])C(=O)C([H])(N([H])C([H])([H])[H])C([H])([H])[H])C(C([H])([H])[H])(C([H])([H])[H])C([H])([H])[H])C([H])([H])c2c([H])c(OC([H])([H])c3nc(C([H])([H])[H])c([H])c(C([H])([H])C4([H])N(C(=O)N5C([H])([H])C([H])([H])C([H])([H])C([H])(n6nc(-c7c([H])c([H])c(Oc8c([H])c([H])c(F)c([H])c8F)c([H])c7[H])c(C(=O)N([H])[H])c6N([H])[H])C5([H])[H])C([H])([H])C([H])([H])C4([H])[H])c3C([H])([H])[H])c([H])c([H])c2C1([H])[H]

>  <smiles>  (43) 
[H]c1c([H])c([H])c2c(c1[H])C([H])([H])C([H])([H])C([H])([H])C2([H])N([H])C(=O)C1([H])N(C(=O)C([H])(N([H])C(=O)C([H])(N([H])C([H])([H])[H])C([H])([H])[H])C(C([H])([H])[H])(C([H])([H])[H])C([H])([H])[H])C([H])([H])c2c([H])c(OC([H])([H])c3nc(C([H])([H])[H])c([H])c(C([H])([H])C4([H])N(C(=O)N5C([H])([H])C([H])([H])C([H])([H])C([H])(n6nc(-c7c([H])c([H])c(Oc8c([H])c([H])c(F)c([H])c8F)c([H])c7[H])c(C(=O)N([H])[H])c6N([H])[H])C5([H])[H])C([H])([H])C([H])([H])C4([H])[H])c3C([H])([H])[H])c([H])c([H])c2C1([H])[H]

$$$$
43:0:0
     RDKit          3D

 95105  0  0  1  0  0  0  0  0999 V2000
  -28.8930  -23.1080   20.9530 C   0  0  0  0  0  2  0  0  0  0  0  0
  -28.5940  -23.8600   19.7890 C   0  0  0  0  0  0  0  0  0  0  0  0
  -28.4690  -23.0850   18.6450 C   0  0  0  0  0  0  0  0  0  0  0  0
  -28.9360  -21.0990   19.7440 C   0  0  0  0  0  0  0  0  0  0  0  0
  -28.2830  -23.9340   17.4090 C   0  0  0  0  0  3  0  0  0  0  0  0
  -28.4270  -25.4140   17.8820 C   0  0  0  0  0  3  0  0  0  0  0  0
  -28.7130  -25.3790   19.4100 C   0  0  0  0  0  3  0  0  0  0  0  0
  -29.0430  -21.7330   20.9200 N   0  0  0  0  0  0  0  0  0  0  0  0
  -28.6400  -21.7320   18.6060 N   0  0  0  0  0  2  0  0  0  0  0  0
  -29.2610  -19.7230   19.5870 N   0  0  0  0  0  0  0  0  0  0  0  0
  -29.2200  -19.4470   18.6150 H   0  0  0  0  0  0  0  0  0  0  0  0
  -28.3840  -26.5550   20.2650 O   0  0  0  0  0  0  0  0  0  0  0  0
  -24.5920  -31.9190   23.2580 C   0  0  0  0  0  0  0  0  0  0  0  0
  -27.2320  -27.3580   20.1960 C   0  0  0  0  0  0  0  0  0  0  0  0
  -23.4030  -30.5240   21.6040 C   0  0  0  0  0  3  0  0  0  0  0  0
  -24.8620  -28.9710   20.1870 C   0  0  0  0  0  0  0  0  0  0  0  0
  -25.9440  -30.8390   21.4430 C   0  0  0  0  0  2  0  0  0  0  0  0
  -26.0240  -29.4610   20.7900 C   0  0  0  0  0  0  0  0  0  0  0  0
  -27.2090  -28.6640   20.7840 C   0  0  0  0  0  3  0  0  0  0  0  0
  -26.0300  -26.8990   19.6190 C   0  0  0  0  0  3  0  0  0  0  0  0
  -24.8660  -27.6950   19.5980 C   0  0  0  0  0  3  0  0  0  0  0  0
  -23.6280  -29.8510   20.2230 C   0  0  0  0  0  2  0  0  0  0  0  0
  -24.6660  -31.1130   22.1590 N   0  0  0  0  0  0  0  0  0  0  0  0
  -23.5030  -32.1950   23.7830 O   0  0  0  0  0  0  0  0  0  0  0  0
  -22.7340  -29.5060   22.5580 C   0  0  0  0  0  0  0  0  0  0  0  0
  -21.4090  -29.3260   22.4170 N   0  0  0  0  0  0  0  0  0  0  0  0
  -23.4040  -28.8810   23.3830 O   0  0  0  0  0  0  0  0  0  0  0  0
  -20.9280  -29.8870   21.7260 H   0  0  0  0  0  0  0  0  0  0  0  0
  -18.0230  -28.1450   22.8890 C   0  0  0  0  0  0  0  0  0  0  0  0
  -20.5810  -28.3850   23.1730 C   0  0  0  0  0  3  0  0  0  0  0  0
  -20.6780  -26.9590   22.5840 C   0  0  0  0  0  2  0  0  0  0  0  0
  -19.5810  -26.6530   21.5620 C   0  0  0  0  0  2  0  0  0  0  0  0
  -18.1950  -26.8010   22.1990 C   0  0  0  0  0  2  0  0  0  0  0  0
  -19.1440  -28.8960   23.3310 C   0  0  0  0  0  0  0  0  0  0  0  0
  -18.9310  -30.1550   23.9330 C   0  0  0  0  0  3  0  0  0  0  0  0
  -17.6280  -30.6600   24.1020 C   0  0  0  0  0  3  0  0  0  0  0  0
  -16.5210  -29.9040   23.6800 C   0  0  0  0  0  3  0  0  0  0  0  0
  -16.7190  -28.6500   23.0750 C   0  0  0  0  0  3  0  0  0  0  0  0
  -25.8680  -32.5520   23.8970 C   0  0  0  0  0  3  0  0  0  0  0  0
  -25.5580  -33.9530   24.2170 N   0  0  0  0  0  0  0  0  0  0  0  0
  -25.8970  -35.0020   23.4570 C   0  0  0  0  0  0  0  0  0  0  0  0
  -26.5740  -34.8940   22.4310 O   0  0  0  0  0  0  0  0  0  0  0  0
  -24.9640  -34.1130   25.0170 H   0  0  0  0  0  0  0  0  0  0  0  0
  -24.1770  -36.8000   23.0840 C   0  0  0  0  0  1  0  0  0  0  0  0
  -25.4100  -36.3940   23.9070 C   0  0  0  0  0  3  0  0  0  0  0  0
  -27.5360  -37.2810   24.7590 C   0  0  0  0  0  1  0  0  0  0  0  0
  -26.4460  -37.4450   23.8010 N   0  0  0  0  0  0  0  0  0  0  0  0
  -26.0390  -38.3660   23.9420 H   0  0  0  0  0  0  0  0  0  0  0  0
  -26.3630  -31.7880   25.1870 C   0  0  1  0  0  0  0  0  0  0  0  0
  -25.2530  -31.5570   26.2390 C   0  0  0  0  0  1  0  0  0  0  0  0
  -26.9500  -30.4080   24.8090 C   0  0  0  0  0  1  0  0  0  0  0  0
  -27.5030  -32.5840   25.8610 C   0  0  0  0  0  1  0  0  0  0  0  0
  -29.2690  -18.5220   20.4930 C   0  0  0  0  0  2  0  0  0  0  0  0
  -32.5600  -17.8440   19.8850 C   0  0  0  0  0  2  0  0  0  0  0  0
  -31.6910  -17.6520   21.1300 C   0  0  0  0  0  2  0  0  0  0  0  0
  -31.3320  -17.5910   19.0070 C   0  0  0  0  0  2  0  0  0  0  0  0
  -30.4240  -17.4140   20.2620 C   0  0  2  0  0  0  0  0  0  0  0  0
  -30.6560  -14.7520   20.2320 C   0  0  0  0  0  0  0  0  0  0  0  0
  -30.3590  -12.4950   19.2240 C   0  0  0  0  0  2  0  0  0  0  0  0
  -29.4050  -12.5870   18.0150 C   0  0  0  0  0  2  0  0  0  0  0  0
  -27.9460  -12.4140   18.4770 C   0  0  0  0  0  2  0  0  0  0  0  0
  -27.6000  -13.3090   19.6960 C   0  0  0  0  0  3  0  0  0  0  0  0
  -28.6780  -13.2370   20.7980 C   0  0  0  0  0  2  0  0  0  0  0  0
  -29.9650  -13.5630   20.1730 N   0  0  0  0  0  0  0  0  0  0  0  0
  -31.8480  -14.7600   19.9230 O   0  0  0  0  0  0  0  0  0  0  0  0
  -29.9670  -15.9450   20.4110 N   0  0  0  0  0  0  0  0  0  0  0  0
  -28.9850  -15.8260   20.6070 H   0  0  0  0  0  0  0  0  0  0  0  0
  -25.2280  -13.8960   20.4710 C   0  0  0  0  0  0  0  0  0  0  0  0
  -24.1670  -13.1230   20.8580 C   0  0  0  0  0  0  0  0  0  0  0  0
  -24.6310  -11.7710   20.8150 C   0  0  0  0  0  0  0  0  0  0  0  0
  -26.2670  -13.0190   20.2150 N   0  0  0  0  0  0  0  0  0  0  0  0
  -25.9180  -11.7340   20.4870 N   0  0  0  0  0  0  0  0  0  0  0  0
  -23.9080  -10.5060   21.0140 C   0  0  0  0  0  0  0  0  0  0  0  0
  -24.3410   -9.5460   21.9570 C   0  0  0  0  0  3  0  0  0  0  0  0
  -23.6150   -8.3490   22.1440 C   0  0  0  0  0  3  0  0  0  0  0  0
  -22.4440   -8.1020   21.3890 C   0  0  0  0  0  0  0  0  0  0  0  0
  -22.0310   -9.0510   20.4370 C   0  0  0  0  0  3  0  0  0  0  0  0
  -22.7550  -10.2390   20.2480 C   0  0  0  0  0  3  0  0  0  0  0  0
  -21.6950   -6.9550   21.4820 O   0  0  0  0  0  0  0  0  0  0  0  0
  -21.6350   -6.2270   22.6440 C   0  0  0  0  0  0  0  0  0  0  0  0
  -21.1680   -6.7910   23.8520 C   0  0  0  0  0  3  0  0  0  0  0  0
  -21.0560   -5.9890   25.0060 C   0  0  0  0  0  3  0  0  0  0  0  0
  -21.4020   -4.6250   24.9520 C   0  0  0  0  0  0  0  0  0  0  0  0
  -21.8620   -4.0620   23.7480 C   0  0  0  0  0  3  0  0  0  0  0  0
  -21.9740   -4.8600   22.5970 C   0  0  0  0  0  0  0  0  0  0  0  0
  -22.3960   -4.3070   21.4350 F   0  0  0  0  0  0  0  0  0  0  0  0
  -21.2880   -3.8540   26.0580 F   0  0  0  0  0  0  0  0  0  0  0  0
  -22.7740  -13.5980   21.1520 C   0  0  0  0  0  0  0  0  0  0  0  0
  -22.0600  -12.8920   22.0200 N   0  0  0  0  0  0  0  0  0  0  0  0
  -22.3300  -14.6290   20.6470 O   0  0  0  0  0  0  0  0  0  0  0  0
  -22.4360  -12.0610   22.4480 H   0  0  0  0  0  0  0  0  0  0  0  0
  -21.1270  -13.1900   22.2620 H   0  0  0  0  0  0  0  0  0  0  0  0
  -25.3920  -15.2660   20.2890 N   0  0  0  0  0  0  0  0  0  0  0  0
  -24.6320  -15.9270   20.3960 H   0  0  0  0  0  0  0  0  0  0  0  0
  -26.2280  -15.6870   19.9020 H   0  0  0  0  0  0  0  0  0  0  0  0
  2  1  1  0
  3  2  2  0
  4  8  2  0
  5  6  2  0
  5  3  1  0
  6  7  1  0
  7  2  1  0
  7 12  1  0
  8  1  1  0
  9  3  1  0
  9  4  1  0
 10  4  1  0
 10 53  1  0
 11 10  1  0
 13 24  2  0
 14 12  1  0
 14 19  1  0
 15 23  1  0
 15 25  1  0
 16 22  1  0
 16 18  1  0
 17 23  1  0
 18 17  1  0
 19 18  2  0
 20 14  2  0
 21 20  1  0
 21 16  2  0
 22 15  1  0
 23 13  1  0
 25 27  2  0
 26 25  1  0
 28 26  1  0
 29 38  2  0
 29 34  1  0
 30 26  1  0
 30 34  1  0
 31 30  1  0
 32 33  1  0
 32 31  1  0
 33 29  1  0
 34 35  2  0
 35 36  1  0
 37 36  2  0
 38 37  1  0
 39 13  1  0
 39 40  1  0
 39 49  1  0
 40 43  1  0
 41 45  1  0
 41 40  1  0
 42 41  2  0
 45 44  1  0
 47 45  1  0
 47 48  1  0
 47 46  1  0
 49 52  1  1
 49 50  1  0
 51 49  1  0
 54 55  1  0
 56 54  1  0
 56 57  1  0
 57 66  1  0
 57 53  1  1
 57 55  1  0
 58 66  1  0
 59 64  1  0
 60 61  1  0
 60 59  1  0
 62 61  1  0
 62 71  1  0
 62 63  1  0
 64 58  1  0
 64 63  1  0
 65 58  2  0
 66 67  1  0
 68 69  2  0
 69 88  1  0
 70 69  1  0
 70 73  1  0
 71 68  1  0
 71 72  1  0
 72 70  2  0
 73 74  1  0
 74 75  2  0
 76 79  1  0
 76 75  1  0
 77 76  2  0
 78 77  1  0
 78 73  2  0
 79 80  1  0
 80 81  1  0
 81 82  2  0
 83 82  1  0
 83 87  1  0
 84 83  2  0
 85 80  2  0
 85 84  1  0
 86 85  1  0
 88 89  1  0
 89 92  1  0
 89 91  1  0
 90 88  2  0
 93 94  1  0
 93 68  1  0
 95 93  1  0
M  ISO  4   7 101  12 101  58 100  66 100
M  END
>  <TORSDO>  (44) 
F 18

>  <SCORE>  (44) 
-14.930

>  <name>  (44) 
43

>  <ligand_id>  (44) 
43

>  <original_smiles>  (44) 
[H]c1nc(N([H])C([H])([H])C2(N([H])C(=O)N3C([H])([H])C([H])([H])C([H])([H])C([H])(n4nc(-c5c([H])c([H])c(Oc6c([H])c([H])c(F)c([H])c6F)c([H])c5[H])c(C(=O)N([H])[H])c4N([H])[H])C3([H])[H])C([H])([H])C([H])([H])C2([H])[H])nc2c1C([H])(Oc1c([H])c([H])c3c(c1[H])C([H])([H])N(C(=O)C([H])(N([H])C(=O)C([H])(N([H])C([H])([H])[H])C([H])([H])[H])C(C([H])([H])[H])(C([H])([H])[H])C([H])([H])[H])C([H])(C(=O)N([H])C1([H])c4c([H])c([H])c([H])c([H])c4C([H])([H])C([H])([H])C1([H])[H])C3([H])[H])C([H])([H])C2([H])[H]

>  <smiles>  (44) 
[H]c1nc(N([H])C([H])([H])C2(N([H])C(=O)N3C([H])([H])C([H])([H])C([H])([H])C([H])(n4nc(-c5c([H])c([H])c(Oc6c([H])c([H])c(F)c([H])c6F)c([H])c5[H])c(C(=O)N([H])[H])c4N([H])[H])C3([H])[H])C([H])([H])C([H])([H])C2([H])[H])nc2c1C([H])(Oc1c([H])c([H])c3c(c1[H])C([H])([H])N(C(=O)C([H])(N([H])C(=O)C([H])(N([H])C([H])([H])[H])C([H])([H])[H])C(C([H])([H])[H])(C([H])([H])[H])C([H])([H])[H])C([H])(C(=O)N([H])C1([H])c4c([H])c([H])c([H])c([H])c4C([H])([H])C([H])([H])C1([H])[H])C3([H])[H])C([H])([H])C2([H])[H]

$$$$
44:0:0
     RDKit          3D

 93102  0  0  1  0  0  0  0  0999 V2000
  -29.6970  -21.5500   21.0100 C   0  0  0  0  0  3  0  0  0  0  0  0
  -29.8370  -22.7250   20.3530 C   0  0  0  0  0  3  0  0  0  0  0  0
  -30.9880  -19.5320   18.3710 C   0  0  0  0  0  2  0  0  0  0  0  0
  -29.9510  -20.8330   18.7600 C   0  0  0  0  0  3  0  0  0  0  0  0
  -31.2390  -18.2260   19.4570 C   0  0  0  0  0  3  0  0  0  0  0  0
  -29.6010  -20.2470   20.1950 C   0  0  1  0  0  0  0  0  0  0  0  0
  -29.7410  -22.6550   18.8460 C   0  0  1  0  0  0  0  0  0  0  0  0
  -30.6500  -19.0620   20.6870 C   0  0  1  0  0  0  0  0  0  0  0  0
  -28.2290  -22.8160   18.5470 C   0  0  0  0  0  1  0  0  0  0  0  0
  -30.0780  -18.1140   21.7710 C   0  0  0  0  0  1  0  0  0  0  0  0
  -31.8560  -19.7360   21.4030 C   0  0  0  0  0  1  0  0  0  0  0  0
  -31.7350  -15.2870   19.1860 C   0  0  0  0  0  0  0  0  0  0  0  0
  -31.5840  -12.7830   18.4610 C   0  0  0  0  0  2  0  0  0  0  0  0
  -30.4960  -12.5300   17.3850 C   0  0  0  0  0  2  0  0  0  0  0  0
  -29.1460  -12.2630   18.0730 C   0  0  0  0  0  2  0  0  0  0  0  0
  -28.8530  -13.3170   19.1680 C   0  0  0  0  0  3  0  0  0  0  0  0
  -30.0470  -13.5410   20.1180 C   0  0  0  0  0  2  0  0  0  0  0  0
  -31.1720  -13.9840   19.2820 N   0  0  0  0  0  0  0  0  0  0  0  0
  -32.9070  -15.2700   18.7770 O   0  0  0  0  0  0  0  0  0  0  0  0
  -30.9870  -16.5640   19.3680 N   0  0  0  0  0  0  0  0  0  0  0  0
  -30.0240  -16.3530   19.5840 H   0  0  0  0  0  0  0  0  0  0  0  0
  -26.7680  -13.9740   20.4690 C   0  0  0  0  0  0  0  0  0  0  0  0
  -25.7150  -13.2540   20.9560 C   0  0  0  0  0  0  0  0  0  0  0  0
  -25.9970  -11.8860   20.6560 C   0  0  0  0  0  0  0  0  0  0  0  0
  -27.6230  -13.0510   19.8970 N   0  0  0  0  0  0  0  0  0  0  0  0
  -27.1870  -11.7760   20.0730 N   0  0  0  0  0  0  0  0  0  0  0  0
  -25.1760  -10.6840   20.8450 C   0  0  0  0  0  0  0  0  0  0  0  0
  -25.4750   -9.7320   21.8440 C   0  0  0  0  0  3  0  0  0  0  0  0
  -24.6600   -8.5920   22.0150 C   0  0  0  0  0  3  0  0  0  0  0  0
  -23.5330   -8.3940   21.1820 C   0  0  0  0  0  0  0  0  0  0  0  0
  -23.2490   -9.3350   20.1760 C   0  0  0  0  0  3  0  0  0  0  0  0
  -24.0650  -10.4680   20.0040 C   0  0  0  0  0  3  0  0  0  0  0  0
  -22.6970   -7.3060   21.2580 O   0  0  0  0  0  0  0  0  0  0  0  0
  -22.0890   -6.9470   22.4350 C   0  0  0  0  0  0  0  0  0  0  0  0
  -21.3070   -7.8590   23.1790 C   0  0  0  0  0  3  0  0  0  0  0  0
  -20.6450   -7.4280   24.3450 C   0  0  0  0  0  3  0  0  0  0  0  0
  -20.7490   -6.0890   24.7610 C   0  0  0  0  0  0  0  0  0  0  0  0
  -21.5200   -5.1770   24.0200 C   0  0  0  0  0  3  0  0  0  0  0  0
  -22.1860   -5.6040   22.8570 C   0  0  0  0  0  0  0  0  0  0  0  0
  -22.9110   -4.7190   22.1350 F   0  0  0  0  0  0  0  0  0  0  0  0
  -20.1040   -5.6740   25.8780 F   0  0  0  0  0  0  0  0  0  0  0  0
  -24.4700  -13.8170   21.5720 C   0  0  0  0  0  0  0  0  0  0  0  0
  -23.8800  -13.1000   22.5230 N   0  0  0  0  0  0  0  0  0  0  0  0
  -24.0400  -14.9220   21.2430 O   0  0  0  0  0  0  0  0  0  0  0  0
  -24.2550  -12.2040   22.8000 H   0  0  0  0  0  0  0  0  0  0  0  0
  -23.0370  -13.4450   22.9640 H   0  0  0  0  0  0  0  0  0  0  0  0
  -27.0610  -15.3330   20.4440 N   0  0  0  0  0  0  0  0  0  0  0  0
  -26.4340  -16.0260   20.8330 H   0  0  0  0  0  0  0  0  0  0  0  0
  -27.8970  -15.7320   20.0400 H   0  0  0  0  0  0  0  0  0  0  0  0
  -27.2170  -19.9740   21.3670 C   0  0  0  0  0  1  0  0  0  0  0  0
  -28.1320  -19.6760   20.1620 C   0  0  0  0  0  2  0  0  0  0  0  0
  -30.1690  -24.2050   18.0060 C   0  0  0  0  0  2  0  0  0  0  0  0
  -29.8340  -25.8340   18.1310 O   0  0  0  0  0  0  0  0  0  0  0  0
  -25.3630  -30.1780   22.3380 C   0  0  0  0  0  0  0  0  0  0  0  0
  -28.6140  -26.6930   18.2490 C   0  0  0  0  0  0  0  0  0  0  0  0
  -24.3600  -28.9700   20.4410 C   0  0  0  0  0  3  0  0  0  0  0  0
  -25.9970  -28.0380   18.6630 C   0  0  0  0  0  0  0  0  0  0  0  0
  -26.8170  -29.7230   20.3000 C   0  0  0  0  0  2  0  0  0  0  0  0
  -27.1170  -28.5320   19.3410 C   0  0  0  0  0  0  0  0  0  0  0  0
  -28.4120  -27.8770   19.1160 C   0  0  0  0  0  3  0  0  0  0  0  0
  -27.4410  -26.3590   17.5410 C   0  0  0  0  0  3  0  0  0  0  0  0
  -26.1810  -26.9840   17.7490 C   0  0  0  0  0  3  0  0  0  0  0  0
  -24.6280  -28.6570   18.9410 C   0  0  0  0  0  2  0  0  0  0  0  0
  -25.5330  -29.6410   21.0840 N   0  0  0  0  0  0  0  0  0  0  0  0
  -24.2710  -30.1160   22.9270 O   0  0  0  0  0  0  0  0  0  0  0  0
  -23.9270  -27.6710   21.1690 C   0  0  0  0  0  0  0  0  0  0  0  0
  -22.6720  -27.2320   20.9650 N   0  0  0  0  0  0  0  0  0  0  0  0
  -24.7310  -27.0670   21.8840 O   0  0  0  0  0  0  0  0  0  0  0  0
  -22.0610  -27.7850   20.3810 H   0  0  0  0  0  0  0  0  0  0  0  0
  -19.6820  -25.1860   21.1040 C   0  0  0  0  0  0  0  0  0  0  0  0
  -22.1040  -25.9970   21.5110 C   0  0  0  0  0  3  0  0  0  0  0  0
  -22.5420  -24.7750   20.6730 C   0  0  0  0  0  2  0  0  0  0  0  0
  -21.5410  -24.4270   19.5670 C   0  0  0  0  0  2  0  0  0  0  0  0
  -20.1760  -24.0890   20.1740 C   0  0  0  0  0  2  0  0  0  0  0  0
  -20.5860  -26.0940   21.7180 C   0  0  0  0  0  0  0  0  0  0  0  0
  -20.0740  -27.1160   22.5470 C   0  0  0  0  0  3  0  0  0  0  0  0
  -18.6880  -27.2380   22.7620 C   0  0  0  0  0  3  0  0  0  0  0  0
  -17.7990  -26.3260   22.1690 C   0  0  0  0  0  3  0  0  0  0  0  0
  -18.2970  -25.3000   21.3470 C   0  0  0  0  0  3  0  0  0  0  0  0
  -26.5180  -30.9070   23.0840 C   0  0  0  0  0  3  0  0  0  0  0  0
  -25.9510  -32.0940   23.7510 N   0  0  0  0  0  0  0  0  0  0  0  0
  -26.0070  -33.3430   23.2710 C   0  0  0  0  0  0  0  0  0  0  0  0
  -26.5970  -33.6300   22.2250 O   0  0  0  0  0  0  0  0  0  0  0  0
  -25.3990  -31.9280   24.5800 H   0  0  0  0  0  0  0  0  0  0  0  0
  -23.9190  -34.7410   23.4570 C   0  0  0  0  0  1  0  0  0  0  0  0
  -25.2970  -34.4530   24.0740 C   0  0  0  0  0  3  0  0  0  0  0  0
  -27.2710  -35.6030   24.9830 C   0  0  0  0  0  1  0  0  0  0  0  0
  -26.0720  -35.7120   24.1550 N   0  0  0  0  0  0  0  0  0  0  0  0
  -25.4990  -36.4660   24.5230 H   0  0  0  0  0  0  0  0  0  0  0  0
  -27.2490  -29.9880   24.1400 C   0  0  1  0  0  0  0  0  0  0  0  0
  -26.2830  -29.2880   25.1260 C   0  0  0  0  0  1  0  0  0  0  0  0
  -28.0770  -28.8890   23.4340 C   0  0  0  0  0  1  0  0  0  0  0  0
  -28.2510  -30.8300   24.9630 C   0  0  0  0  0  1  0  0  0  0  0  0
  2  1  2  0
  3  5  1  0
  4  3  1  0
  4  7  1  0
  4  6  1  0
  5 20  1  0
  5  8  1  0
  6 51  1  6
  6  8  1  0
  6  1  1  0
  7  9  1  1
  7  2  1  0
  8 11  1  1
  8 10  1  0
 12 18  1  0
 12 20  1  0
 13 18  1  0
 14 15  1  0
 14 13  1  0
 16 15  1  0
 16 25  1  0
 16 17  1  0
 18 17  1  0
 19 12  2  0
 20 21  1  0
 22 23  2  0
 23 42  1  0
 24 27  1  0
 24 23  1  0
 25 26  1  0
 25 22  1  0
 26 24  2  0
 27 28  1  0
 28 29  2  0
 30 33  1  0
 30 29  1  0
 31 30  2  0
 32 31  1  0
 32 27  2  0
 33 34  1  0
 34 39  2  0
 34 35  1  0
 35 36  2  0
 36 37  1  0
 37 41  1  0
 38 37  2  0
 39 38  1  0
 40 39  1  0
 42 43  1  0
 43 45  1  0
 43 46  1  0
 44 42  2  0
 47 22  1  0
 47 48  1  0
 49 47  1  0
 51 50  1  0
 52 53  1  0
 52  7  1  0
 53 55  1  0
 54 65  2  0
 55 60  1  0
 56 64  1  0
 56 66  1  0
 57 63  1  0
 57 59  1  0
 58 64  1  0
 59 58  1  0
 60 59  2  0
 61 62  1  0
 61 55  2  0
 62 57  2  0
 63 56  1  0
 64 54  1  0
 66 68  2  0
 67 66  1  0
 69 67  1  0
 70 79  2  0
 70 75  1  0
 71 67  1  0
 71 75  1  0
 72 71  1  0
 73 74  1  0
 73 72  1  0
 74 70  1  0
 75 76  2  0
 76 77  1  0
 78 77  2  0
 79 78  1  0
 80 54  1  0
 80 81  1  0
 80 90  1  0
 81 84  1  0
 82 81  1  0
 82 86  1  0
 83 82  2  0
 86 85  1  0
 86 88  1  0
 88 89  1  0
 88 87  1  0
 90 93  1  1
 90 91  1  0
 92 90  1  0
M  ISO  4  12 100  20 100  52 101  53 101
M  END
>  <TORSDO>  (45) 
F 18

>  <SCORE>  (45) 
-4.666

>  <name>  (45) 
44

>  <ligand_id>  (45) 
44

>  <original_smiles>  (45) 
[H]C1=C([H])C2(C([H])([H])C([H])([H])[H])C([H])(C([H])([H])C([H])(N([H])C(=O)N3C([H])([H])C([H])([H])C([H])([H])C([H])(n4nc(-c5c([H])c([H])c(Oc6c([H])c([H])c(F)c([H])c6F)c([H])c5[H])c(C(=O)N([H])[H])c4N([H])[H])C3([H])[H])C2(C([H])([H])[H])C([H])([H])[H])C1(C([H])([H])[H])C([H])([H])Oc1c([H])c([H])c2c(c1[H])C([H])([H])N(C(=O)C([H])(N([H])C(=O)C([H])(N([H])C([H])([H])[H])C([H])([H])[H])C(C([H])([H])[H])(C([H])([H])[H])C([H])([H])[H])C([H])(C(=O)N([H])C1([H])c3c([H])c([H])c([H])c([H])c3C([H])([H])C([H])([H])C1([H])[H])C2([H])[H]

>  <smiles>  (45) 
[H]C1=C([H])C2(C([H])([H])C([H])([H])[H])C([H])(C([H])([H])C([H])(N([H])C(=O)N3C([H])([H])C([H])([H])C([H])([H])C([H])(n4nc(-c5c([H])c([H])c(Oc6c([H])c([H])c(F)c([H])c6F)c([H])c5[H])c(C(=O)N([H])[H])c4N([H])[H])C3([H])[H])C2(C([H])([H])[H])C([H])([H])[H])C1(C([H])([H])[H])C([H])([H])Oc1c([H])c([H])c2c(c1[H])C([H])([H])N(C(=O)C([H])(N([H])C(=O)C([H])(N([H])C([H])([H])[H])C([H])([H])[H])C(C([H])([H])[H])(C([H])([H])[H])C([H])([H])[H])C([H])(C(=O)N([H])C1([H])c3c([H])c([H])c([H])c([H])c3C([H])([H])C([H])([H])C1([H])[H])C2([H])[H]

$$$$
45:0:0
     RDKit          3D

 94103  0  0  1  0  0  0  0  0999 V2000
  -29.8910  -22.4820   19.3340 C   0  0  0  0  0  0  0  0  0  0  0  0
  -29.2460  -23.2040   21.8470 C   0  0  0  0  0  0  0  0  0  0  0  0
  -30.0840  -21.5590   20.4150 C   0  0  0  0  0  0  0  0  0  0  0  0
  -29.0960  -24.1380   20.7780 C   0  0  0  0  0  0  0  0  0  0  0  0
  -30.2710  -22.1510   17.9030 C   0  0  0  0  0  1  0  0  0  0  0  0
  -28.8880  -23.5700   23.2780 C   0  0  0  0  0  1  0  0  0  0  0  0
  -29.7320  -21.9410   21.6710 N   0  0  0  0  0  0  0  0  0  0  0  0
  -29.4000  -23.7490   19.5130 N   0  0  0  0  0  0  0  0  0  0  0  0
  -30.9040  -20.2320   20.2920 C   0  0  0  0  0  2  0  0  0  0  0  0
  -30.9310  -14.7160   20.1580 C   0  0  0  0  0  0  0  0  0  0  0  0
  -30.6280  -12.5080   19.0740 C   0  0  0  0  0  2  0  0  0  0  0  0
  -29.6490  -12.6720   17.8930 C   0  0  0  0  0  2  0  0  0  0  0  0
  -28.1890  -12.5290   18.3710 C   0  0  0  0  0  2  0  0  0  0  0  0
  -27.8820  -13.3740   19.6370 C   0  0  0  0  0  3  0  0  0  0  0  0
  -28.9790  -13.2070   20.7120 C   0  0  0  0  0  2  0  0  0  0  0  0
  -30.2680  -13.5210   20.0830 N   0  0  0  0  0  0  0  0  0  0  0  0
  -32.0900  -14.8400   19.7540 O   0  0  0  0  0  0  0  0  0  0  0  0
  -30.0470  -16.5970   21.5740 C   0  0  0  0  0  2  0  0  0  0  0  0
  -29.7510  -16.6590   19.1550 C   0  0  0  0  0  2  0  0  0  0  0  0
  -30.6540  -18.0430   21.5230 C   0  0  0  0  0  2  0  0  0  0  0  0
  -30.3780  -18.0880   19.1080 C   0  0  0  0  0  2  0  0  0  0  0  0
  -30.1490  -15.8340   20.3150 N   0  0  0  0  0  0  0  0  0  0  0  0
  -30.2120  -18.8820   20.3620 N   0  0  2  0  0  4  0  0  0  0  0  0
  -29.2300  -19.0800   20.4850 H   0  0  0  0  0  0  0  0  0  0  0  0
  -25.5230  -13.9790   20.4570 C   0  0  0  0  0  0  0  0  0  0  0  0
  -24.4620  -13.2090   20.8470 C   0  0  0  0  0  0  0  0  0  0  0  0
  -24.9090  -11.8540   20.7680 C   0  0  0  0  0  0  0  0  0  0  0  0
  -26.5480  -13.0940   20.1640 N   0  0  0  0  0  0  0  0  0  0  0  0
  -26.1870  -11.8090   20.4100 N   0  0  0  0  0  0  0  0  0  0  0  0
  -24.1760  -10.5940   20.9530 C   0  0  0  0  0  0  0  0  0  0  0  0
  -24.5860   -9.6360   21.9060 C   0  0  0  0  0  3  0  0  0  0  0  0
  -23.8560   -8.4410   22.0800 C   0  0  0  0  0  3  0  0  0  0  0  0
  -22.6990   -8.1960   21.3020 C   0  0  0  0  0  0  0  0  0  0  0  0
  -22.3080   -9.1430   20.3390 C   0  0  0  0  0  3  0  0  0  0  0  0
  -23.0400  -10.3280   20.1630 C   0  0  0  0  0  3  0  0  0  0  0  0
  -21.9410   -7.0540   21.3850 O   0  0  0  0  0  0  0  0  0  0  0  0
  -21.8080   -6.3600   22.5610 C   0  0  0  0  0  0  0  0  0  0  0  0
  -21.2490   -6.9530   23.7150 C   0  0  0  0  0  3  0  0  0  0  0  0
  -21.0670   -6.1850   24.8830 C   0  0  0  0  0  3  0  0  0  0  0  0
  -21.4340   -4.8260   24.8960 C   0  0  0  0  0  0  0  0  0  0  0  0
  -21.9850   -4.2330   23.7460 C   0  0  0  0  0  3  0  0  0  0  0  0
  -22.1680   -4.9980   22.5820 C   0  0  0  0  0  0  0  0  0  0  0  0
  -22.6810   -4.4170   21.4710 F   0  0  0  0  0  0  0  0  0  0  0  0
  -21.2530   -4.0860   26.0150 F   0  0  0  0  0  0  0  0  0  0  0  0
  -23.0810  -13.6930   21.1790 C   0  0  0  0  0  0  0  0  0  0  0  0
  -22.3750  -12.9820   22.0510 N   0  0  0  0  0  0  0  0  0  0  0  0
  -22.6380  -14.7350   20.7010 O   0  0  0  0  0  0  0  0  0  0  0  0
  -22.7460  -12.1370   22.4600 H   0  0  0  0  0  0  0  0  0  0  0  0
  -21.4470  -13.2860   22.3120 H   0  0  0  0  0  0  0  0  0  0  0  0
  -25.6990  -15.3520   20.3080 N   0  0  0  0  0  0  0  0  0  0  0  0
  -24.9470  -16.0160   20.4620 H   0  0  0  0  0  0  0  0  0  0  0  0
  -26.5490  -15.7850   19.9740 H   0  0  0  0  0  0  0  0  0  0  0  0
  -28.5320  -25.5710   21.0450 C   0  0  0  0  0  2  0  0  0  0  0  0
  -28.6800  -26.6410   20.0590 O   0  0  0  0  0  0  0  0  0  0  0  0
  -24.6720  -31.7440   23.1210 C   0  0  0  0  0  0  0  0  0  0  0  0
  -27.5540  -27.4510   19.9990 C   0  0  0  0  0  0  0  0  0  0  0  0
  -23.5610  -30.3270   21.4280 C   0  0  0  0  0  3  0  0  0  0  0  0
  -25.1100  -28.8930   19.9860 C   0  0  0  0  0  0  0  0  0  0  0  0
  -26.0760  -30.7950   21.2840 C   0  0  0  0  0  2  0  0  0  0  0  0
  -26.2380  -29.4420   20.6100 C   0  0  0  0  0  0  0  0  0  0  0  0
  -27.4690  -28.7310   20.6110 C   0  0  0  0  0  3  0  0  0  0  0  0
  -26.4110  -26.9420   19.3480 C   0  0  0  0  0  3  0  0  0  0  0  0
  -25.1950  -27.6470   19.3470 C   0  0  0  0  0  3  0  0  0  0  0  0
  -23.8250  -29.6940   20.0360 C   0  0  0  0  0  2  0  0  0  0  0  0
  -24.7860  -30.9700   22.0030 N   0  0  0  0  0  0  0  0  0  0  0  0
  -23.5700  -31.9540   23.6470 O   0  0  0  0  0  0  0  0  0  0  0  0
  -22.9390  -29.2550   22.3540 C   0  0  0  0  0  0  0  0  0  0  0  0
  -21.6220  -29.0280   22.2140 N   0  0  0  0  0  0  0  0  0  0  0  0
  -23.6410  -28.6320   23.1550 O   0  0  0  0  0  0  0  0  0  0  0  0
  -21.1150  -29.5850   21.5410 H   0  0  0  0  0  0  0  0  0  0  0  0
  -18.2860  -27.7130   22.6770 C   0  0  0  0  0  0  0  0  0  0  0  0
  -20.8370  -28.0380   22.9520 C   0  0  0  0  0  3  0  0  0  0  0  0
  -20.9800  -26.6340   22.3200 C   0  0  0  0  0  2  0  0  0  0  0  0
  -19.8850  -26.3170   21.2980 C   0  0  0  0  0  2  0  0  0  0  0  0
  -18.5010  -26.3970   21.9500 C   0  0  0  0  0  2  0  0  0  0  0  0
  -19.3830  -28.4910   23.1330 C   0  0  0  0  0  0  0  0  0  0  0  0
  -19.1300  -29.7240   23.7730 C   0  0  0  0  0  3  0  0  0  0  0  0
  -17.8120  -30.1820   23.9580 C   0  0  0  0  0  3  0  0  0  0  0  0
  -16.7300  -29.3990   23.5210 C   0  0  0  0  0  3  0  0  0  0  0  0
  -16.9670  -28.1660   22.8860 C   0  0  0  0  0  3  0  0  0  0  0  0
  -25.9150  -32.4220   23.7770 C   0  0  0  0  0  3  0  0  0  0  0  0
  -25.5410  -33.7990   24.1200 N   0  0  0  0  0  0  0  0  0  0  0  0
  -25.8440  -34.8770   23.3830 C   0  0  0  0  0  0  0  0  0  0  0  0
  -26.5400  -34.8180   22.3660 O   0  0  0  0  0  0  0  0  0  0  0  0
  -24.9250  -33.9160   24.9100 H   0  0  0  0  0  0  0  0  0  0  0  0
  -24.0530  -36.6020   23.0070 C   0  0  0  0  0  1  0  0  0  0  0  0
  -25.2860  -36.2350   23.8480 C   0  0  0  0  0  3  0  0  0  0  0  0
  -27.3590  -37.1910   24.7540 C   0  0  0  0  0  1  0  0  0  0  0  0
  -26.2740  -37.3350   23.7870 N   0  0  0  0  0  0  0  0  0  0  0  0
  -25.8240  -38.2310   23.9490 H   0  0  0  0  0  0  0  0  0  0  0  0
  -26.4420  -31.6540   25.0510 C   0  0  1  0  0  0  0  0  0  0  0  0
  -25.3390  -31.3520   26.0940 C   0  0  0  0  0  1  0  0  0  0  0  0
  -27.0900  -30.3090   24.6500 C   0  0  0  0  0  1  0  0  0  0  0  0
  -27.5430  -32.4860   25.7490 C   0  0  0  0  0  1  0  0  0  0  0  0
  1  8  2  0
  1  3  1  0
  2  6  1  0
  3  7  2  0
  4 53  1  0
  4  2  2  0
  5  1  1  0
  7  2  1  0
  8  4  1  0
  9 23  1  0
  9  3  1  0
 10 22  1  0
 11 16  1  0
 12 13  1  0
 12 11  1  0
 14 13  1  0
 14 28  1  0
 14 15  1  0
 16 10  1  0
 16 15  1  0
 17 10  2  0
 19 22  1  0
 20 18  1  0
 21 19  1  0
 21 23  1  0
 22 18  1  0
 23 24  1  1
 23 20  1  0
 25 26  2  0
 26 45  1  0
 27 26  1  0
 27 30  1  0
 28 29  1  0
 28 25  1  0
 29 27  2  0
 30 31  1  0
 31 32  2  0
 33 36  1  0
 33 32  1  0
 34 33  2  0
 35 34  1  0
 35 30  2  0
 36 37  1  0
 37 42  2  0
 37 38  1  0
 38 39  2  0
 39 40  1  0
 40 44  1  0
 41 40  2  0
 42 41  1  0
 43 42  1  0
 45 46  1  0
 46 49  1  0
 46 48  1  0
 47 45  2  0
 50 25  1  0
 50 51  1  0
 52 50  1  0
 54 53  1  0
 55 66  2  0
 56 54  1  0
 56 61  1  0
 57 65  1  0
 57 67  1  0
 58 64  1  0
 58 60  1  0
 59 65  1  0
 60 61  2  0
 60 59  1  0
 62 56  2  0
 63 62  1  0
 63 58  2  0
 64 57  1  0
 65 55  1  0
 67 69  2  0
 68 67  1  0
 70 68  1  0
 71 80  2  0
 71 76  1  0
 72 68  1  0
 72 76  1  0
 73 72  1  0
 74 75  1  0
 74 73  1  0
 75 71  1  0
 76 77  2  0
 77 78  1  0
 79 78  2  0
 80 79  1  0
 81 55  1  0
 81 82  1  0
 81 91  1  0
 82 85  1  0
 83 87  1  0
 83 82  1  0
 84 83  2  0
 87 86  1  0
 89 87  1  0
 89 90  1  0
 89 88  1  0
 91 94  1  1
 91 92  1  0
 93 91  1  0
M  ISO  4  10 100  22 100  53 101  54 101
M  END
>  <TORSDO>  (46) 
F 18

>  <SCORE>  (46) 
-13.937

>  <name>  (46) 
45

>  <ligand_id>  (46) 
45

>  <original_smiles>  (46) 
[H]c1c([H])c([H])c2c(c1[H])C([H])([H])C([H])([H])C([H])([H])C2([H])N([H])C(=O)C1([H])N(C(=O)C([H])(N([H])C(=O)C([H])(N([H])C([H])([H])[H])C([H])([H])[H])C(C([H])([H])[H])(C([H])([H])[H])C([H])([H])[H])C([H])([H])c2c([H])c(OC([H])([H])c3nc(C([H])([H])[H])c(C([H])([H])[N+]4([H])C([H])([H])C([H])([H])N(C(=O)N5C([H])([H])C([H])([H])C([H])([H])C([H])(n6nc(-c7c([H])c([H])c(Oc8c([H])c([H])c(F)c([H])c8F)c([H])c7[H])c(C(=O)N([H])[H])c6N([H])[H])C5([H])[H])C([H])([H])C4([H])[H])nc3C([H])([H])[H])c([H])c([H])c2C1([H])[H]

>  <smiles>  (46) 
[H]c1c([H])c([H])c2c(c1[H])C([H])([H])C([H])([H])C([H])([H])C2([H])N([H])C(=O)C1([H])N(C(=O)C([H])(N([H])C(=O)C([H])(N([H])C([H])([H])[H])C([H])([H])[H])C(C([H])([H])[H])(C([H])([H])[H])C([H])([H])[H])C([H])([H])c2c([H])c(OC([H])([H])c3nc(C([H])([H])[H])c(C([H])([H])[N+]4([H])C([H])([H])C([H])([H])N(C(=O)N5C([H])([H])C([H])([H])C([H])([H])C([H])(n6nc(-c7c([H])c([H])c(Oc8c([H])c([H])c(F)c([H])c8F)c([H])c7[H])c(C(=O)N([H])[H])c6N([H])[H])C5([H])[H])C([H])([H])C4([H])[H])nc3C([H])([H])[H])c([H])c([H])c2C1([H])[H]

$$$$
46:0:0
     RDKit          3D

 90 97  0  0  1  0  0  0  0  0999 V2000
  -29.7530  -21.5700   18.5880 C   0  0  0  0  0  2  0  0  0  0  0  0
  -30.0970  -19.1620   19.9750 C   0  0  0  0  0  3  0  0  0  0  0  0
  -30.2450  -19.9780   18.6100 C   0  0  0  0  0  3  0  0  0  0  0  0
  -29.3550  -22.2940   19.9630 C   0  0  0  0  0  3  0  0  0  0  0  0
  -29.0830  -20.5680   20.5350 C   0  0  2  0  0  0  0  0  0  0  0  0
  -30.6630  -22.7450   20.6370 C   0  0  0  0  0  1  0  0  0  0  0  0
  -29.1620  -20.5560   22.0740 C   0  0  0  0  0  1  0  0  0  0  0  0
  -27.6210  -20.2070   20.1950 C   0  0  0  0  0  1  0  0  0  0  0  0
  -30.7660  -16.0120   19.9780 C   0  0  0  0  0  0  0  0  0  0  0  0
  -30.9050  -13.4340   19.2480 C   0  0  0  0  0  2  0  0  0  0  0  0
  -30.0040  -12.9460   18.0760 C   0  0  0  0  0  2  0  0  0  0  0  0
  -28.5990  -12.5800   18.5750 C   0  0  0  0  0  2  0  0  0  0  0  0
  -28.0840  -13.6150   19.6000 C   0  0  0  0  0  3  0  0  0  0  0  0
  -29.1250  -14.0070   20.6750 C   0  0  0  0  0  2  0  0  0  0  0  0
  -30.2660  -14.6330   19.9650 N   0  0  0  0  0  0  0  0  0  0  0  0
  -31.9990  -15.9570   19.8030 O   0  0  0  0  0  0  0  0  0  0  0  0
  -29.9870  -17.3710   20.0050 N   0  0  0  0  0  0  0  0  0  0  0  0
  -29.0090  -17.1290   20.0790 H   0  0  0  0  0  0  0  0  0  0  0  0
  -25.7630  -14.1340   20.4840 C   0  0  0  0  0  0  0  0  0  0  0  0
  -24.7120  -13.3490   20.8610 C   0  0  0  0  0  0  0  0  0  0  0  0
  -25.1680  -11.9980   20.7580 C   0  0  0  0  0  0  0  0  0  0  0  0
  -26.7880  -13.2650   20.1610 N   0  0  0  0  0  0  0  0  0  0  0  0
  -26.4480  -11.9690   20.3940 N   0  0  0  0  0  0  0  0  0  0  0  0
  -24.4360  -10.7340   20.9240 C   0  0  0  0  0  0  0  0  0  0  0  0
  -24.8360   -9.7660   21.8710 C   0  0  0  0  0  3  0  0  0  0  0  0
  -24.0990   -8.5720   22.0280 C   0  0  0  0  0  3  0  0  0  0  0  0
  -22.9490   -8.3370   21.2380 C   0  0  0  0  0  0  0  0  0  0  0  0
  -22.5680   -9.2940   20.2810 C   0  0  0  0  0  3  0  0  0  0  0  0
  -23.3060  -10.4800   20.1220 C   0  0  0  0  0  3  0  0  0  0  0  0
  -22.1870   -7.1960   21.3040 O   0  0  0  0  0  0  0  0  0  0  0  0
  -22.0080   -6.5170   22.4820 C   0  0  0  0  0  0  0  0  0  0  0  0
  -21.3900   -7.1170   23.6020 C   0  0  0  0  0  3  0  0  0  0  0  0
  -21.1620   -6.3620   24.7700 C   0  0  0  0  0  3  0  0  0  0  0  0
  -21.5420   -5.0070   24.8190 C   0  0  0  0  0  0  0  0  0  0  0  0
  -22.1530   -4.4070   23.7030 C   0  0  0  0  0  3  0  0  0  0  0  0
  -22.3820   -5.1590   22.5370 C   0  0  0  0  0  0  0  0  0  0  0  0
  -22.9510   -4.5700   21.4590 F   0  0  0  0  0  0  0  0  0  0  0  0
  -21.3170   -4.2780   25.9360 F   0  0  0  0  0  0  0  0  0  0  0  0
  -23.3300  -13.8250   21.1960 C   0  0  0  0  0  0  0  0  0  0  0  0
  -22.6350  -13.1150   22.0780 N   0  0  0  0  0  0  0  0  0  0  0  0
  -22.8790  -14.8630   20.7140 O   0  0  0  0  0  0  0  0  0  0  0  0
  -23.0160  -12.2750   22.4880 H   0  0  0  0  0  0  0  0  0  0  0  0
  -21.7110  -13.4180   22.3490 H   0  0  0  0  0  0  0  0  0  0  0  0
  -25.9270  -15.5100   20.3550 N   0  0  0  0  0  0  0  0  0  0  0  0
  -25.1670  -16.1600   20.5220 H   0  0  0  0  0  0  0  0  0  0  0  0
  -26.7560  -15.9550   19.9830 H   0  0  0  0  0  0  0  0  0  0  0  0
  -31.6050  -19.9300   18.2160 O   0  0  0  0  0  0  0  0  0  0  0  0
  -32.1190  -20.3610   18.8920 H   0  0  0  0  0  0  0  0  0  0  0  0
  -28.3660  -23.9990   19.9670 C   0  0  0  0  0  1  0  0  0  0  0  0
  -28.5340  -25.7690   20.0180 O   0  0  0  0  0  0  0  0  0  0  0  0
  -24.9280  -31.8710   23.2750 C   0  0  0  0  0  0  0  0  0  0  0  0
  -27.5460  -26.9800   20.0360 C   0  0  0  0  0  0  0  0  0  0  0  0
  -23.7770  -30.5600   21.5440 C   0  0  0  0  0  3  0  0  0  0  0  0
  -25.2600  -29.0060   20.0600 C   0  0  0  0  0  0  0  0  0  0  0  0
  -26.3570  -30.7290   21.4660 C   0  0  0  0  0  2  0  0  0  0  0  0
  -26.4450  -29.3350   20.7290 C   0  0  0  0  0  0  0  0  0  0  0  0
  -27.5720  -28.3530   20.6820 C   0  0  0  0  0  3  0  0  0  0  0  0
  -26.3220  -26.8690   19.3250 C   0  0  0  0  0  3  0  0  0  0  0  0
  -25.2390  -27.8020   19.3350 C   0  0  0  0  0  3  0  0  0  0  0  0
  -24.0450  -29.9450   20.1400 C   0  0  0  0  0  2  0  0  0  0  0  0
  -25.0440  -31.0840   22.1500 N   0  0  0  0  0  0  0  0  0  0  0  0
  -23.8260  -32.1320   23.7860 O   0  0  0  0  0  0  0  0  0  0  0  0
  -23.0570  -29.5230   22.4470 C   0  0  0  0  0  0  0  0  0  0  0  0
  -21.7310  -29.3530   22.2840 N   0  0  0  0  0  0  0  0  0  0  0  0
  -23.7050  -28.8700   23.2690 O   0  0  0  0  0  0  0  0  0  0  0  0
  -21.2560  -29.9300   21.6030 H   0  0  0  0  0  0  0  0  0  0  0  0
  -18.3520  -28.0720   22.6760 C   0  0  0  0  0  0  0  0  0  0  0  0
  -20.9040  -28.3630   22.9890 C   0  0  0  0  0  3  0  0  0  0  0  0
  -21.0340  -26.9670   22.3370 C   0  0  0  0  0  2  0  0  0  0  0  0
  -19.9530  -26.6880   21.2890 C   0  0  0  0  0  2  0  0  0  0  0  0
  -18.5600  -26.7710   21.9210 C   0  0  0  0  0  2  0  0  0  0  0  0
  -19.4510  -28.8280   23.1640 C   0  0  0  0  0  0  0  0  0  0  0  0
  -19.1990  -30.0440   23.8350 C   0  0  0  0  0  3  0  0  0  0  0  0
  -17.8820  -30.5050   24.0200 C   0  0  0  0  0  3  0  0  0  0  0  0
  -16.7980  -29.7480   23.5440 C   0  0  0  0  0  3  0  0  0  0  0  0
  -17.0330  -28.5330   22.8770 C   0  0  0  0  0  3  0  0  0  0  0  0
  -26.1750  -32.4970   23.9710 C   0  0  0  0  0  3  0  0  0  0  0  0
  -25.8480  -33.8880   24.3420 N   0  0  0  0  0  0  0  0  0  0  0  0
  -26.1780  -34.9750   23.6310 C   0  0  0  0  0  0  0  0  0  0  0  0
  -26.8470  -34.9120   22.5960 O   0  0  0  0  0  0  0  0  0  0  0  0
  -25.2500  -34.0090   25.1450 H   0  0  0  0  0  0  0  0  0  0  0  0
  -24.4390  -36.7820   23.3730 C   0  0  0  0  0  1  0  0  0  0  0  0
  -25.6960  -36.3490   24.1460 C   0  0  0  0  0  3  0  0  0  0  0  0
  -27.8320  -37.2320   24.9820 C   0  0  0  0  0  1  0  0  0  0  0  0
  -26.7230  -37.4110   24.0480 N   0  0  0  0  0  0  0  0  0  0  0  0
  -26.3120  -38.3250   24.2150 H   0  0  0  0  0  0  0  0  0  0  0  0
  -26.6310  -31.6950   25.2540 C   0  0  1  0  0  0  0  0  0  0  0  0
  -25.4950  -31.4460   26.2730 C   0  0  0  0  0  1  0  0  0  0  0  0
  -27.2210  -30.3200   24.8710 C   0  0  0  0  0  1  0  0  0  0  0  0
  -27.7600  -32.4670   25.9790 C   0  0  0  0  0  1  0  0  0  0  0  0
  1  3  1  0
  1  4  1  0
  2 17  1  0
  2  5  1  0
  3 47  1  0
  3  2  1  0
  4  5  1  0
  4  6  1  0
  5  7  1  1
  8  5  1  0
  9 17  1  0
 10 15  1  0
 11 12  1  0
 11 10  1  0
 13 12  1  0
 13 22  1  0
 13 14  1  0
 15  9  1  0
 15 14  1  0
 16  9  2  0
 17 18  1  0
 19 20  2  0
 20 39  1  0
 21 20  1  0
 21 24  1  0
 22 23  1  0
 22 19  1  0
 23 21  2  0
 24 25  1  0
 25 26  2  0
 27 30  1  0
 27 26  1  0
 28 27  2  0
 29 28  1  0
 29 24  2  0
 30 31  1  0
 31 36  2  0
 31 32  1  0
 32 33  2  0
 33 34  1  0
 34 38  1  0
 35 34  2  0
 36 35  1  0
 37 36  1  0
 39 40  1  0
 40 43  1  0
 40 42  1  0
 41 39  2  0
 44 19  1  0
 44 45  1  0
 46 44  1  0
 47 48  1  0
 49 50  1  0
 50 52  1  0
 51 62  2  0
 52 57  1  0
 53 61  1  0
 53 63  1  0
 54 60  1  0
 54 56  1  0
 55 61  1  0
 56 55  1  0
 57 56  2  0
 58 59  1  0
 58 52  2  0
 59 54  2  0
 60 53  1  0
 61 51  1  0
 63 65  2  0
 64 63  1  0
 66 64  1  0
 67 76  2  0
 67 72  1  0
 68 64  1  0
 68 72  1  0
 69 68  1  0
 70 71  1  0
 70 69  1  0
 71 67  1  0
 72 73  2  0
 73 74  1  0
 75 74  2  0
 76 75  1  0
 77 51  1  0
 77 78  1  0
 77 87  1  0
 78 81  1  0
 79 83  1  0
 79 78  1  0
 80 79  2  0
 83 82  1  0
 85 83  1  0
 85 86  1  0
 85 84  1  0
 87 90  1  1
 87 88  1  0
 89 87  1  0
M  ISO  4   9 100  17 100  49 101  50 101
M  END
>  <TORSDO>  (47) 
F 18

>  <SCORE>  (47) 
-14.565

>  <name>  (47) 
46

>  <ligand_id>  (47) 
46

>  <original_smiles>  (47) 
[H]OC1([H])C([H])([H])C(C([H])([H])[H])(C([H])([H])Oc2c([H])c([H])c3c(c2[H])C([H])([H])N(C(=O)C([H])(N([H])C(=O)C([H])(N([H])C([H])([H])[H])C([H])([H])[H])C(C([H])([H])[H])(C([H])([H])[H])C([H])([H])[H])C([H])(C(=O)N([H])C2([H])c4c([H])c([H])c([H])c([H])c4C([H])([H])C([H])([H])C2([H])[H])C3([H])[H])C(C([H])([H])[H])(C([H])([H])[H])C1([H])N([H])C(=O)N1C([H])([H])C([H])([H])C([H])([H])C([H])(n2nc(-c3c([H])c([H])c(Oc4c([H])c([H])c(F)c([H])c4F)c([H])c3[H])c(C(=O)N([H])[H])c2N([H])[H])C1([H])[H]

>  <smiles>  (47) 
[H]OC1([H])C([H])([H])C(C([H])([H])[H])(C([H])([H])Oc2c([H])c([H])c3c(c2[H])C([H])([H])N(C(=O)C([H])(N([H])C(=O)C([H])(N([H])C([H])([H])[H])C([H])([H])[H])C(C([H])([H])[H])(C([H])([H])[H])C([H])([H])[H])C([H])(C(=O)N([H])C2([H])c4c([H])c([H])c([H])c([H])c4C([H])([H])C([H])([H])C2([H])[H])C3([H])[H])C(C([H])([H])[H])(C([H])([H])[H])C1([H])N([H])C(=O)N1C([H])([H])C([H])([H])C([H])([H])C([H])(n2nc(-c3c([H])c([H])c(Oc4c([H])c([H])c(F)c([H])c4F)c([H])c3[H])c(C(=O)N([H])[H])c2N([H])[H])C1([H])[H]

$$$$
47:0:0
     RDKit          3D

 87 98  0  0  1  0  0  0  0  0999 V2000
  -28.4320  -23.1440   21.2160 C   0  0  0  0  0  3  0  0  0  0  0  0
  -28.8000  -23.2200   19.3030 C   0  0  0  0  0  3  0  0  0  0  0  0
  -27.9660  -24.3180   20.1800 C   0  0  0  0  0  3  0  0  0  0  0  0
  -28.5020  -21.9820   20.1900 N   0  0  1  0  0  4  0  0  0  0  0  0
  -27.5650  -21.6640   19.9960 H   0  0  0  0  0  0  0  0  0  0  0  0
  -28.1950  -25.9420   20.2940 O   0  0  0  0  0  0  0  0  0  0  0  0
  -24.6550  -31.8950   23.2490 C   0  0  0  0  0  0  0  0  0  0  0  0
  -27.1770  -27.0220   20.2350 C   0  0  0  0  0  0  0  0  0  0  0  0
  -23.4500  -30.5070   21.6110 C   0  0  0  0  0  3  0  0  0  0  0  0
  -24.8870  -28.8970   20.1890 C   0  0  0  0  0  0  0  0  0  0  0  0
  -26.0160  -30.7090   21.4630 C   0  0  0  0  0  2  0  0  0  0  0  0
  -26.0760  -29.3010   20.8090 C   0  0  0  0  0  0  0  0  0  0  0  0
  -27.2170  -28.3850   20.8060 C   0  0  0  0  0  3  0  0  0  0  0  0
  -25.9610  -26.7670   19.5630 C   0  0  0  0  0  3  0  0  0  0  0  0
  -24.8530  -27.6500   19.5470 C   0  0  0  0  0  3  0  0  0  0  0  0
  -23.6740  -29.8230   20.2360 C   0  0  0  0  0  2  0  0  0  0  0  0
  -24.7280  -31.0630   22.1610 N   0  0  0  0  0  0  0  0  0  0  0  0
  -23.5670  -32.1920   23.7710 O   0  0  0  0  0  0  0  0  0  0  0  0
  -22.7520  -29.5130   22.5760 C   0  0  0  0  0  0  0  0  0  0  0  0
  -21.4220  -29.3550   22.4510 N   0  0  0  0  0  0  0  0  0  0  0  0
  -23.4130  -28.8860   23.4070 O   0  0  0  0  0  0  0  0  0  0  0  0
  -20.9410  -29.9130   21.7580 H   0  0  0  0  0  0  0  0  0  0  0  0
  -18.0320  -28.1650   22.9530 C   0  0  0  0  0  0  0  0  0  0  0  0
  -20.5920  -28.4240   23.2230 C   0  0  0  0  0  3  0  0  0  0  0  0
  -20.6890  -26.9890   22.6530 C   0  0  0  0  0  2  0  0  0  0  0  0
  -19.5890  -26.6660   21.6370 C   0  0  0  0  0  2  0  0  0  0  0  0
  -18.2060  -26.8140   22.2780 C   0  0  0  0  0  2  0  0  0  0  0  0
  -19.1520  -28.9270   23.3830 C   0  0  0  0  0  0  0  0  0  0  0  0
  -18.9320  -30.1880   23.9780 C   0  0  0  0  0  3  0  0  0  0  0  0
  -17.6270  -30.6880   24.1460 C   0  0  0  0  0  3  0  0  0  0  0  0
  -16.5220  -29.9240   23.7310 C   0  0  0  0  0  3  0  0  0  0  0  0
  -16.7260  -28.6640   23.1410 C   0  0  0  0  0  3  0  0  0  0  0  0
  -25.9300  -32.5280   23.8810 C   0  0  0  0  0  3  0  0  0  0  0  0
  -25.6220  -33.9300   24.2150 N   0  0  0  0  0  0  0  0  0  0  0  0
  -25.9320  -34.9880   23.4540 C   0  0  0  0  0  0  0  0  0  0  0  0
  -26.5710  -34.8860   22.4030 O   0  0  0  0  0  0  0  0  0  0  0  0
  -25.0480  -34.0820   25.0320 H   0  0  0  0  0  0  0  0  0  0  0  0
  -24.1820  -36.7770   23.1800 C   0  0  0  0  0  1  0  0  0  0  0  0
  -25.4620  -36.3780   23.9290 C   0  0  0  0  0  3  0  0  0  0  0  0
  -27.6290  -37.2820   24.6530 C   0  0  0  0  0  1  0  0  0  0  0  0
  -26.4830  -37.4360   23.7600 N   0  0  0  0  0  0  0  0  0  0  0  0
  -26.0790  -38.3550   23.9180 H   0  0  0  0  0  0  0  0  0  0  0  0
  -26.4290  -31.7610   25.1690 C   0  0  1  0  0  0  0  0  0  0  0  0
  -25.3270  -31.5400   26.2310 C   0  0  0  0  0  1  0  0  0  0  0  0
  -27.0040  -30.3760   24.7980 C   0  0  0  0  0  1  0  0  0  0  0  0
  -27.5820  -32.5500   25.8340 C   0  0  0  0  0  1  0  0  0  0  0  0
  -29.4880  -20.6530   20.3210 C   0  0  0  0  0  2  0  0  0  0  0  0
  -30.4430  -15.2700   20.2230 C   0  0  0  0  0  0  0  0  0  0  0  0
  -30.3880  -12.8410   19.3400 C   0  0  0  0  0  2  0  0  0  0  0  0
  -29.4540  -12.6540   18.1210 C   0  0  0  0  0  2  0  0  0  0  0  0
  -28.0090  -12.3880   18.5810 C   0  0  0  0  0  2  0  0  0  0  0  0
  -27.5750  -13.3440   19.7210 C   0  0  0  0  0  3  0  0  0  0  0  0
  -28.6390  -13.4870   20.8290 C   0  0  0  0  0  2  0  0  0  0  0  0
  -29.8590  -13.9790   20.1730 N   0  0  0  0  0  0  0  0  0  0  0  0
  -31.6590  -15.2630   19.9810 O   0  0  0  0  0  0  0  0  0  0  0  0
  -29.7430  -17.7220   21.2570 C   0  0  0  0  0  3  0  0  0  0  0  0
  -29.8600  -17.7620   19.3000 C   0  0  0  0  0  3  0  0  0  0  0  0
  -29.1810  -18.8850   20.2600 C   0  0  0  0  0  3  0  0  0  0  0  0
  -29.6960  -16.5500   20.2500 N   0  0  0  0  0  0  0  0  0  0  0  0
  -25.2180  -13.8860   20.5290 C   0  0  0  0  0  0  0  0  0  0  0  0
  -24.1650  -13.1000   20.9040 C   0  0  0  0  0  0  0  0  0  0  0  0
  -24.6350  -11.7520   20.8460 C   0  0  0  0  0  0  0  0  0  0  0  0
  -26.2580  -13.0180   20.2520 N   0  0  0  0  0  0  0  0  0  0  0  0
  -25.9210  -11.7270   20.5110 N   0  0  0  0  0  0  0  0  0  0  0  0
  -23.9140  -10.4850   21.0300 C   0  0  0  0  0  0  0  0  0  0  0  0
  -24.3430   -9.5180   21.9650 C   0  0  0  0  0  3  0  0  0  0  0  0
  -23.6200   -8.3190   22.1390 C   0  0  0  0  0  3  0  0  0  0  0  0
  -22.4530   -8.0760   21.3760 C   0  0  0  0  0  0  0  0  0  0  0  0
  -22.0420   -9.0320   20.4290 C   0  0  0  0  0  3  0  0  0  0  0  0
  -22.7660  -10.2230   20.2550 C   0  0  0  0  0  3  0  0  0  0  0  0
  -21.7010   -6.9290   21.4590 O   0  0  0  0  0  0  0  0  0  0  0  0
  -21.6200   -6.2040   22.6200 C   0  0  0  0  0  0  0  0  0  0  0  0
  -21.1420   -6.7710   23.8210 C   0  0  0  0  0  3  0  0  0  0  0  0
  -21.0090   -5.9710   24.9740 C   0  0  0  0  0  3  0  0  0  0  0  0
  -21.3450   -4.6050   24.9260 C   0  0  0  0  0  0  0  0  0  0  0  0
  -21.8150   -4.0360   23.7290 C   0  0  0  0  0  3  0  0  0  0  0  0
  -21.9490   -4.8340   22.5790 C   0  0  0  0  0  0  0  0  0  0  0  0
  -22.3840   -4.2770   21.4230 F   0  0  0  0  0  0  0  0  0  0  0  0
  -21.2100   -3.8350   26.0310 F   0  0  0  0  0  0  0  0  0  0  0  0
  -22.7700  -13.5700   21.2010 C   0  0  0  0  0  0  0  0  0  0  0  0
  -22.0590  -12.8650   22.0730 N   0  0  0  0  0  0  0  0  0  0  0  0
  -22.3230  -14.5990   20.6970 O   0  0  0  0  0  0  0  0  0  0  0  0
  -22.4360  -12.0350   22.5060 H   0  0  0  0  0  0  0  0  0  0  0  0
  -21.1240  -13.1630   22.3150 H   0  0  0  0  0  0  0  0  0  0  0  0
  -25.3750  -15.2600   20.3730 N   0  0  0  0  0  0  0  0  0  0  0  0
  -24.6140  -15.9130   20.5210 H   0  0  0  0  0  0  0  0  0  0  0  0
  -26.2290  -15.7080   20.0650 H   0  0  0  0  0  0  0  0  0  0  0  0
  1  4  1  0
  2  3  1  0
  2  4  1  0
  2  1  1  0
  3  6  1  0
  3  1  1  0
  4 47  1  0
  4  5  1  6
  7 18  2  0
  8  6  1  0
  8 13  1  0
  9 17  1  0
  9 19  1  0
 10 16  1  0
 10 12  1  0
 11 17  1  0
 12 11  1  0
 13 12  2  0
 14  8  2  0
 15 14  1  0
 15 10  2  0
 16  9  1  0
 17  7  1  0
 19 21  2  0
 20 19  1  0
 22 20  1  0
 23 32  2  0
 23 28  1  0
 24 20  1  0
 24 28  1  0
 25 24  1  0
 26 27  1  0
 26 25  1  0
 27 23  1  0
 28 29  2  0
 29 30  1  0
 31 30  2  0
 32 31  1  0
 33  7  1  0
 33 34  1  0
 33 43  1  0
 34 37  1  0
 35 39  1  0
 35 34  1  0
 36 35  2  0
 39 38  1  0
 41 42  1  0
 41 39  1  0
 41 40  1  0
 43 46  1  1
 43 44  1  0
 45 43  1  0
 48 59  1  0
 49 54  1  0
 50 51  1  0
 50 49  1  0
 52 51  1  0
 52 63  1  0
 52 53  1  0
 54 48  1  0
 54 53  1  0
 55 48  2  0
 56 59  1  0
 57 59  1  0
 57 58  1  0
 57 56  1  0
 58 47  1  0
 58 56  1  0
 60 61  2  0
 61 80  1  0
 62 61  1  0
 62 65  1  0
 63 64  1  0
 63 60  1  0
 64 62  2  0
 65 66  1  0
 66 67  2  0
 68 71  1  0
 68 67  1  0
 69 68  2  0
 70 69  1  0
 70 65  2  0
 71 72  1  0
 72 73  1  0
 73 74  2  0
 75 74  1  0
 75 79  1  0
 76 75  2  0
 77 72  2  0
 77 76  1  0
 78 77  1  0
 80 81  1  0
 81 84  1  0
 81 83  1  0
 82 80  2  0
 85 86  1  0
 85 60  1  0
 87 85  1  0
M  ISO  4   3 101   6 101  48 100  59 100
M  END
>  <TORSDO>  (48) 
F 17

>  <SCORE>  (48) 
-15.530

>  <name>  (48) 
47

>  <ligand_id>  (48) 
47

>  <original_smiles>  (48) 
[H]c1c([H])c([H])c2c(c1[H])C([H])([H])C([H])([H])C([H])([H])C2([H])N([H])C(=O)C1([H])N(C(=O)C([H])(N([H])C(=O)C([H])(N([H])C([H])([H])[H])C([H])([H])[H])C(C([H])([H])[H])(C([H])([H])[H])C([H])([H])[H])C([H])([H])c2c([H])c(OC3([H])C([H])([H])[N+]([H])(C([H])([H])C4([H])C([H])([H])N(C(=O)N5C([H])([H])C([H])([H])C([H])([H])C([H])(n6nc(-c7c([H])c([H])c(Oc8c([H])c([H])c(F)c([H])c8F)c([H])c7[H])c(C(=O)N([H])[H])c6N([H])[H])C5([H])[H])C4([H])[H])C3([H])[H])c([H])c([H])c2C1([H])[H]

>  <smiles>  (48) 
[H]c1c([H])c([H])c2c(c1[H])C([H])([H])C([H])([H])C([H])([H])C2([H])N([H])C(=O)C1([H])N(C(=O)C([H])(N([H])C(=O)C([H])(N([H])C([H])([H])[H])C([H])([H])[H])C(C([H])([H])[H])(C([H])([H])[H])C([H])([H])[H])C([H])([H])c2c([H])c(OC3([H])C([H])([H])[N+]([H])(C([H])([H])C4([H])C([H])([H])N(C(=O)N5C([H])([H])C([H])([H])C([H])([H])C([H])(n6nc(-c7c([H])c([H])c(Oc8c([H])c([H])c(F)c([H])c8F)c([H])c7[H])c(C(=O)N([H])[H])c6N([H])[H])C5([H])[H])C4([H])[H])C3([H])[H])c([H])c([H])c2C1([H])[H]

$$$$
48:0:0
     RDKit          3D

 91100  0  0  1  0  0  0  0  0999 V2000
  -29.4300  -22.1260   19.2810 C   0  0  0  0  0  0  0  0  0  0  0  0
  -29.2430  -20.8220   20.0190 C   0  0  0  0  0  0  0  0  0  0  0  0
  -28.7930  -23.4390   19.7010 C   0  0  0  0  0  0  0  0  0  0  0  0
  -27.9160  -22.1470   21.4320 C   0  0  0  0  0  0  0  0  0  0  0  0
  -26.9710  -22.1430   22.6170 C   0  0  0  0  0  1  0  0  0  0  0  0
  -28.4710  -20.9660   21.1160 N   0  0  0  0  0  0  0  0  0  0  0  0
  -28.0310  -23.3260   20.8080 N   0  0  0  0  0  0  0  0  0  0  0  0
  -30.9170  -15.6210   20.2250 C   0  0  0  0  0  0  0  0  0  0  0  0
  -30.8000  -13.1800   19.4540 C   0  0  0  0  0  2  0  0  0  0  0  0
  -29.9290  -12.9410   18.2030 C   0  0  0  0  0  2  0  0  0  0  0  0
  -28.4610  -12.7200   18.6080 C   0  0  0  0  0  2  0  0  0  0  0  0
  -27.9850  -13.7420   19.6730 C   0  0  0  0  0  3  0  0  0  0  0  0
  -29.0000  -13.9500   20.8170 C   0  0  0  0  0  2  0  0  0  0  0  0
  -30.2530  -14.3760   20.1790 N   0  0  0  0  0  0  0  0  0  0  0  0
  -32.1470  -15.5230   20.1260 O   0  0  0  0  0  0  0  0  0  0  0  0
  -31.0260  -18.3520   20.2780 C   0  0  0  0  0  2  0  0  0  0  0  0
  -29.0500  -17.7740   20.0940 C   0  0  0  0  0  2  0  0  0  0  0  0
  -29.7660  -19.2020   19.7600 C   0  0  0  0  0  3  0  0  0  0  0  0
  -30.3520  -16.9760   20.1610 N   0  0  0  0  0  0  0  0  0  0  0  0
  -25.6030  -14.3370   20.3670 C   0  0  0  0  0  0  0  0  0  0  0  0
  -24.5220  -13.5780   20.7180 C   0  0  0  0  0  0  0  0  0  0  0  0
  -24.9720  -12.2220   20.7090 C   0  0  0  0  0  0  0  0  0  0  0  0
  -26.6400  -13.4480   20.1580 N   0  0  0  0  0  0  0  0  0  0  0  0
  -26.2700  -12.1690   20.4300 N   0  0  0  0  0  0  0  0  0  0  0  0
  -24.2220  -10.9710   20.8840 C   0  0  0  0  0  0  0  0  0  0  0  0
  -24.6240   -9.9950   21.8220 C   0  0  0  0  0  3  0  0  0  0  0  0
  -23.8760   -8.8090   21.9870 C   0  0  0  0  0  3  0  0  0  0  0  0
  -22.7100   -8.5920   21.2170 C   0  0  0  0  0  0  0  0  0  0  0  0
  -22.3290   -9.5540   20.2670 C   0  0  0  0  0  3  0  0  0  0  0  0
  -23.0770  -10.7320   20.0980 C   0  0  0  0  0  3  0  0  0  0  0  0
  -21.9320   -7.4620   21.2940 O   0  0  0  0  0  0  0  0  0  0  0  0
  -21.8710   -6.7070   22.4380 C   0  0  0  0  0  0  0  0  0  0  0  0
  -21.4420   -7.2510   23.6680 C   0  0  0  0  0  3  0  0  0  0  0  0
  -21.3290   -6.4230   24.8030 C   0  0  0  0  0  3  0  0  0  0  0  0
  -21.6330   -5.0510   24.7070 C   0  0  0  0  0  0  0  0  0  0  0  0
  -22.0520   -4.5060   23.4810 C   0  0  0  0  0  3  0  0  0  0  0  0
  -22.1670   -5.3320   22.3500 C   0  0  0  0  0  0  0  0  0  0  0  0
  -22.5550   -4.7970   21.1670 F   0  0  0  0  0  0  0  0  0  0  0  0
  -21.5160   -4.2540   25.7960 F   0  0  0  0  0  0  0  0  0  0  0  0
  -23.1250  -14.0760   20.9430 C   0  0  0  0  0  0  0  0  0  0  0  0
  -22.3600  -13.4020   21.7950 N   0  0  0  0  0  0  0  0  0  0  0  0
  -22.7220  -15.1030   20.3980 O   0  0  0  0  0  0  0  0  0  0  0  0
  -22.7040  -12.5750   22.2630 H   0  0  0  0  0  0  0  0  0  0  0  0
  -21.4200  -13.7180   21.9810 H   0  0  0  0  0  0  0  0  0  0  0  0
  -25.7850  -15.7040   20.1810 N   0  0  0  0  0  0  0  0  0  0  0  0
  -25.0160  -16.3600   20.2520 H   0  0  0  0  0  0  0  0  0  0  0  0
  -26.6410  -16.1230   19.8440 H   0  0  0  0  0  0  0  0  0  0  0  0
  -29.6940  -21.7400   16.7610 C   0  0  0  0  0  1  0  0  0  0  0  0
  -30.3660  -22.1290   18.0810 C   0  0  0  0  0  2  0  0  0  0  0  0
  -28.6980  -24.9640   18.9360 C   0  0  0  0  0  2  0  0  0  0  0  0
  -28.6030  -26.4580   19.5210 O   0  0  0  0  0  0  0  0  0  0  0  0
  -24.7000  -31.7790   22.9740 C   0  0  0  0  0  0  0  0  0  0  0  0
  -27.4900  -27.4140   19.5070 C   0  0  0  0  0  0  0  0  0  0  0  0
  -23.5440  -30.4110   21.2840 C   0  0  0  0  0  3  0  0  0  0  0  0
  -25.0430  -29.0380   19.6930 C   0  0  0  0  0  0  0  0  0  0  0  0
  -26.0720  -30.8500   21.0570 C   0  0  0  0  0  2  0  0  0  0  0  0
  -26.2160  -29.5100   20.2960 C   0  0  0  0  0  0  0  0  0  0  0  0
  -27.4290  -28.7130   20.1880 C   0  0  0  0  0  3  0  0  0  0  0  0
  -26.2770  -27.0690   18.8700 C   0  0  0  0  0  3  0  0  0  0  0  0
  -25.0900  -27.8380   18.9650 C   0  0  0  0  0  3  0  0  0  0  0  0
  -23.7600  -29.8480   19.8540 C   0  0  0  0  0  2  0  0  0  0  0  0
  -24.7930  -31.0360   21.8270 N   0  0  0  0  0  0  0  0  0  0  0  0
  -23.6190  -31.9480   23.5560 O   0  0  0  0  0  0  0  0  0  0  0  0
  -22.9730  -29.2960   22.1990 C   0  0  0  0  0  0  0  0  0  0  0  0
  -21.6570  -29.0270   22.0990 N   0  0  0  0  0  0  0  0  0  0  0  0
  -23.7170  -28.6790   22.9650 O   0  0  0  0  0  0  0  0  0  0  0  0
  -21.1070  -29.5830   21.4570 H   0  0  0  0  0  0  0  0  0  0  0  0
  -18.4050  -27.5080   22.6100 C   0  0  0  0  0  0  0  0  0  0  0  0
  -20.9390  -27.9790   22.8310 C   0  0  0  0  0  3  0  0  0  0  0  0
  -21.1460  -26.5950   22.1700 C   0  0  0  0  0  2  0  0  0  0  0  0
  -20.0500  -26.2380   21.1630 C   0  0  0  0  0  2  0  0  0  0  0  0
  -18.6780  -26.2260   21.8430 C   0  0  0  0  0  2  0  0  0  0  0  0
  -19.4660  -28.3390   23.0580 C   0  0  0  0  0  0  0  0  0  0  0  0
  -19.1560  -29.5390   23.7360 C   0  0  0  0  0  3  0  0  0  0  0  0
  -17.8170  -29.9090   23.9680 C   0  0  0  0  0  3  0  0  0  0  0  0
  -16.7720  -29.0750   23.5350 C   0  0  0  0  0  3  0  0  0  0  0  0
  -17.0680  -27.8760   22.8610 C   0  0  0  0  0  3  0  0  0  0  0  0
  -25.9520  -32.4700   23.5990 C   0  0  0  0  0  3  0  0  0  0  0  0
  -25.5460  -33.8090   24.0590 N   0  0  0  0  0  0  0  0  0  0  0  0
  -25.7680  -34.9510   23.3940 C   0  0  0  0  0  0  0  0  0  0  0  0
  -26.4070  -34.9900   22.3390 O   0  0  0  0  0  0  0  0  0  0  0  0
  -24.9810  -33.8450   24.8940 H   0  0  0  0  0  0  0  0  0  0  0  0
  -23.8940  -36.6240   23.2670 C   0  0  0  0  0  1  0  0  0  0  0  0
  -25.1960  -36.2510   23.9920 C   0  0  0  0  0  3  0  0  0  0  0  0
  -27.2890  -37.2310   24.8200 C   0  0  0  0  0  1  0  0  0  0  0  0
  -26.1370  -37.3900   23.9390 N   0  0  0  0  0  0  0  0  0  0  0  0
  -25.6670  -38.2570   24.1840 H   0  0  0  0  0  0  0  0  0  0  0  0
  -26.5790  -31.6520   24.7960 C   0  0  1  0  0  0  0  0  0  0  0  0
  -25.5550  -31.2600   25.8850 C   0  0  0  0  0  1  0  0  0  0  0  0
  -27.2460  -30.3510   24.2910 C   0  0  0  0  0  1  0  0  0  0  0  0
  -27.6960  -32.4830   25.4690 C   0  0  0  0  0  1  0  0  0  0  0  0
  1  3  1  0
  1  2  2  0
  2  6  1  0
  3  7  2  0
  4  5  1  0
  6  4  2  0
  7  4  1  0
  9 14  1  0
 10 11  1  0
 10  9  1  0
 12 11  1  0
 12 23  1  0
 12 13  1  0
 14  8  1  0
 14 13  1  0
 15  8  2  0
 17 19  1  0
 18  2  1  0
 18 17  1  0
 18 16  1  0
 19  8  1  0
 19 16  1  0
 20 21  2  0
 21 40  1  0
 22 21  1  0
 22 25  1  0
 23 20  1  0
 23 24  1  0
 24 22  2  0
 25 26  1  0
 26 27  2  0
 28 31  1  0
 28 27  1  0
 29 28  2  0
 30 29  1  0
 30 25  2  0
 31 32  1  0
 32 33  1  0
 33 34  2  0
 35 34  1  0
 35 39  1  0
 36 35  2  0
 37 32  2  0
 37 36  1  0
 38 37  1  0
 40 41  1  0
 41 44  1  0
 41 43  1  0
 42 40  2  0
 45 46  1  0
 45 20  1  0
 47 45  1  0
 48 49  1  0
 49  1  1  0
 50 51  1  0
 50  3  1  0
 52 63  2  0
 53 51  1  0
 53 58  1  0
 54 62  1  0
 54 64  1  0
 55 61  1  0
 55 57  1  0
 56 62  1  0
 57 56  1  0
 58 57  2  0
 59 60  1  0
 59 53  2  0
 60 55  2  0
 61 54  1  0
 62 52  1  0
 64 66  2  0
 65 64  1  0
 67 65  1  0
 68 77  2  0
 68 73  1  0
 69 65  1  0
 69 73  1  0
 70 69  1  0
 71 72  1  0
 71 70  1  0
 72 68  1  0
 73 74  2  0
 74 75  1  0
 76 75  2  0
 77 76  1  0
 78 52  1  0
 78 79  1  0
 78 88  1  0
 79 82  1  0
 80 84  1  0
 80 79  1  0
 81 80  2  0
 84 83  1  0
 86 84  1  0
 86 87  1  0
 86 85  1  0
 88 91  1  1
 88 89  1  0
 90 88  1  0
M  ISO  4   8 100  19 100  50 101  51 101
M  END
>  <TORSDO>  (49) 
F 18

>  <SCORE>  (49) 
-11.770

>  <name>  (49) 
48

>  <ligand_id>  (49) 
48

>  <original_smiles>  (49) 
[H]c1c([H])c([H])c2c(c1[H])C([H])([H])C([H])([H])C([H])([H])C2([H])N([H])C(=O)C1([H])N(C(=O)C([H])(N([H])C(=O)C([H])(N([H])C([H])([H])[H])C([H])([H])[H])C(C([H])([H])[H])(C([H])([H])[H])C([H])([H])[H])C([H])([H])c2c([H])c(OC([H])([H])c3nc(C([H])([H])[H])nc(C4([H])C([H])([H])N(C(=O)N5C([H])([H])C([H])([H])C([H])([H])C([H])(n6nc(-c7c([H])c([H])c(Oc8c([H])c([H])c(F)c([H])c8F)c([H])c7[H])c(C(=O)N([H])[H])c6N([H])[H])C5([H])[H])C4([H])[H])c3C([H])([H])C([H])([H])[H])c([H])c([H])c2C1([H])[H]

>  <smiles>  (49) 
[H]c1c([H])c([H])c2c(c1[H])C([H])([H])C([H])([H])C([H])([H])C2([H])N([H])C(=O)C1([H])N(C(=O)C([H])(N([H])C(=O)C([H])(N([H])C([H])([H])[H])C([H])([H])[H])C(C([H])([H])[H])(C([H])([H])[H])C([H])([H])[H])C([H])([H])c2c([H])c(OC([H])([H])c3nc(C([H])([H])[H])nc(C4([H])C([H])([H])N(C(=O)N5C([H])([H])C([H])([H])C([H])([H])C([H])(n6nc(-c7c([H])c([H])c(Oc8c([H])c([H])c(F)c([H])c8F)c([H])c7[H])c(C(=O)N([H])[H])c6N([H])[H])C5([H])[H])C4([H])[H])c3C([H])([H])C([H])([H])[H])c([H])c([H])c2C1([H])[H]

$$$$
49:0:0
     RDKit          3D

 90 99  0  0  1  0  0  0  0  0999 V2000
  -30.0230  -23.4700   19.5320 C   0  0  0  0  0  3  0  0  0  0  0  0
  -30.8390  -22.3580   19.2600 C   0  0  0  0  0  0  0  0  0  0  0  0
  -28.8020  -23.2800   20.1840 C   0  0  0  0  0  0  0  0  0  0  0  0
  -29.3590  -20.8410   20.2180 C   0  0  0  0  0  0  0  0  0  0  0  0
  -32.1460  -22.5390   18.5150 C   0  0  0  0  0  1  0  0  0  0  0  0
  -30.5140  -21.0910   19.6090 N   0  0  0  0  0  0  0  0  0  0  0  0
  -28.4970  -21.9180   20.4980 N   0  0  0  0  0  0  0  0  0  0  0  0
  -28.6880  -18.3610   19.3680 C   0  0  0  0  0  2  0  0  0  0  0  0
  -29.0920  -19.2190   20.5280 C   0  0  0  0  0  3  0  0  0  0  0  0
  -29.8730  -17.7560   20.1110 C   0  0  0  0  0  3  0  0  0  0  0  0
  -30.4590  -15.0460   20.2760 C   0  0  0  0  0  0  0  0  0  0  0  0
  -30.3710  -12.6830   19.3430 C   0  0  0  0  0  2  0  0  0  0  0  0
  -29.4270  -12.6150   18.1180 C   0  0  0  0  0  2  0  0  0  0  0  0
  -27.9680  -12.3920   18.5640 C   0  0  0  0  0  2  0  0  0  0  0  0
  -27.5650  -13.3110   19.7460 C   0  0  0  0  0  3  0  0  0  0  0  0
  -28.6270  -13.3370   20.8650 C   0  0  0  0  0  2  0  0  0  0  0  0
  -29.8860  -13.7710   20.2460 N   0  0  0  0  0  0  0  0  0  0  0  0
  -31.6510  -15.1170   19.9570 O   0  0  0  0  0  0  0  0  0  0  0  0
  -29.6560  -16.2250   20.4420 N   0  0  0  0  0  0  0  0  0  0  0  0
  -28.7140  -16.0090   20.7290 H   0  0  0  0  0  0  0  0  0  0  0  0
  -25.1940  -13.8770   20.5190 C   0  0  0  0  0  0  0  0  0  0  0  0
  -24.1350  -13.0990   20.8950 C   0  0  0  0  0  0  0  0  0  0  0  0
  -24.6000  -11.7480   20.8450 C   0  0  0  0  0  0  0  0  0  0  0  0
  -26.2340  -13.0010   20.2550 N   0  0  0  0  0  0  0  0  0  0  0  0
  -25.8880  -11.7150   20.5190 N   0  0  0  0  0  0  0  0  0  0  0  0
  -23.8760  -10.4830   21.0300 C   0  0  0  0  0  0  0  0  0  0  0  0
  -24.3010   -9.5170   21.9680 C   0  0  0  0  0  3  0  0  0  0  0  0
  -23.5720   -8.3200   22.1420 C   0  0  0  0  0  3  0  0  0  0  0  0
  -22.4070   -8.0820   21.3770 C   0  0  0  0  0  0  0  0  0  0  0  0
  -22.0000   -9.0370   20.4300 C   0  0  0  0  0  3  0  0  0  0  0  0
  -22.7280  -10.2250   20.2530 C   0  0  0  0  0  3  0  0  0  0  0  0
  -21.6520   -6.9370   21.4580 O   0  0  0  0  0  0  0  0  0  0  0  0
  -21.5760   -6.2050   22.6150 C   0  0  0  0  0  0  0  0  0  0  0  0
  -21.1060   -6.7660   23.8220 C   0  0  0  0  0  3  0  0  0  0  0  0
  -20.9790   -5.9620   24.9720 C   0  0  0  0  0  3  0  0  0  0  0  0
  -21.3110   -4.5940   24.9150 C   0  0  0  0  0  0  0  0  0  0  0  0
  -21.7770   -4.0330   23.7120 C   0  0  0  0  0  3  0  0  0  0  0  0
  -21.9030   -4.8350   22.5660 C   0  0  0  0  0  0  0  0  0  0  0  0
  -22.3300   -4.2820   21.4040 F   0  0  0  0  0  0  0  0  0  0  0  0
  -21.1840   -3.8190   26.0180 F   0  0  0  0  0  0  0  0  0  0  0  0
  -22.7390  -13.5730   21.1800 C   0  0  0  0  0  0  0  0  0  0  0  0
  -22.0190  -12.8710   22.0450 N   0  0  0  0  0  0  0  0  0  0  0  0
  -22.2970  -14.6030   20.6720 O   0  0  0  0  0  0  0  0  0  0  0  0
  -22.3900  -12.0390   22.4790 H   0  0  0  0  0  0  0  0  0  0  0  0
  -21.0840  -13.1710   22.2810 H   0  0  0  0  0  0  0  0  0  0  0  0
  -25.3540  -15.2500   20.3480 N   0  0  0  0  0  0  0  0  0  0  0  0
  -24.5870  -15.9000   20.4840 H   0  0  0  0  0  0  0  0  0  0  0  0
  -26.1680  -15.6790   19.9270 H   0  0  0  0  0  0  0  0  0  0  0  0
  -27.8180  -24.5960   20.4150 C   0  0  0  0  0  2  0  0  0  0  0  0
  -28.1950  -26.1170   20.2460 O   0  0  0  0  0  0  0  0  0  0  0  0
  -24.6480  -31.8880   23.2390 C   0  0  0  0  0  0  0  0  0  0  0  0
  -27.1710  -27.1410   20.2010 C   0  0  0  0  0  0  0  0  0  0  0  0
  -23.4350  -30.4980   21.6070 C   0  0  0  0  0  3  0  0  0  0  0  0
  -24.8670  -28.9260   20.1680 C   0  0  0  0  0  0  0  0  0  0  0  0
  -25.9900  -30.7490   21.4280 C   0  0  0  0  0  2  0  0  0  0  0  0
  -26.0530  -29.3540   20.7800 C   0  0  0  0  0  0  0  0  0  0  0  0
  -27.2080  -28.4790   20.7790 C   0  0  0  0  0  3  0  0  0  0  0  0
  -25.9670  -26.8390   19.5270 C   0  0  0  0  0  3  0  0  0  0  0  0
  -24.8430  -27.6850   19.5200 C   0  0  0  0  0  3  0  0  0  0  0  0
  -23.6460  -29.8300   20.2230 C   0  0  0  0  0  2  0  0  0  0  0  0
  -24.7120  -31.0670   22.1460 N   0  0  0  0  0  0  0  0  0  0  0  0
  -23.5660  -32.1760   23.7720 O   0  0  0  0  0  0  0  0  0  0  0  0
  -22.7580  -29.4900   22.5710 C   0  0  0  0  0  0  0  0  0  0  0  0
  -21.4290  -29.3230   22.4480 N   0  0  0  0  0  0  0  0  0  0  0  0
  -23.4310  -28.8600   23.3890 O   0  0  0  0  0  0  0  0  0  0  0  0
  -20.9420  -29.8830   21.7630 H   0  0  0  0  0  0  0  0  0  0  0  0
  -18.0460  -28.1310   22.9590 C   0  0  0  0  0  0  0  0  0  0  0  0
  -20.6060  -28.3890   23.2210 C   0  0  0  0  0  3  0  0  0  0  0  0
  -20.7030  -26.9560   22.6480 C   0  0  0  0  0  2  0  0  0  0  0  0
  -19.5990  -26.6340   21.6360 C   0  0  0  0  0  2  0  0  0  0  0  0
  -18.2190  -26.7810   22.2840 C   0  0  0  0  0  2  0  0  0  0  0  0
  -19.1660  -28.8930   23.3840 C   0  0  0  0  0  0  0  0  0  0  0  0
  -18.9490  -30.1560   23.9770 C   0  0  0  0  0  3  0  0  0  0  0  0
  -17.6450  -30.6570   24.1480 C   0  0  0  0  0  3  0  0  0  0  0  0
  -16.5400  -29.8920   23.7370 C   0  0  0  0  0  3  0  0  0  0  0  0
  -16.7400  -28.6310   23.1470 C   0  0  0  0  0  3  0  0  0  0  0  0
  -25.9310  -32.5190   23.8590 C   0  0  0  0  0  3  0  0  0  0  0  0
  -25.6230  -33.9150   24.2050 N   0  0  0  0  0  0  0  0  0  0  0  0
  -25.9250  -34.9760   23.4440 C   0  0  0  0  0  0  0  0  0  0  0  0
  -26.5640  -34.8830   22.3920 O   0  0  0  0  0  0  0  0  0  0  0  0
  -25.0530  -34.0610   25.0260 H   0  0  0  0  0  0  0  0  0  0  0  0
  -24.1730  -36.7620   23.1710 C   0  0  0  0  0  1  0  0  0  0  0  0
  -25.4490  -36.3600   23.9270 C   0  0  0  0  0  3  0  0  0  0  0  0
  -27.6080  -37.2610   24.6730 C   0  0  0  0  0  1  0  0  0  0  0  0
  -26.4690  -37.4210   23.7740 N   0  0  0  0  0  0  0  0  0  0  0  0
  -26.0610  -38.3380   23.9360 H   0  0  0  0  0  0  0  0  0  0  0  0
  -26.4510  -31.7390   25.1300 C   0  0  1  0  0  0  0  0  0  0  0  0
  -25.3640  -31.5000   26.2030 C   0  0  0  0  0  1  0  0  0  0  0  0
  -27.0260  -30.3600   24.7320 C   0  0  0  0  0  1  0  0  0  0  0  0
  -27.6070  -32.5260   25.7900 C   0  0  0  0  0  1  0  0  0  0  0  0
  1  3  1  0
  2  1  2  0
  2  6  1  0
  3 49  1  0
  3  7  2  0
  4  7  1  0
  5  2  1  0
  6  4  2  0
  8 10  1  0
  8  9  1  0
  9  4  1  0
 10 19  1  0
 10  9  1  0
 11 19  1  0
 12 17  1  0
 13 14  1  0
 13 12  1  0
 15 14  1  0
 15 24  1  0
 15 16  1  0
 17 11  1  0
 17 16  1  0
 18 11  2  0
 19 20  1  0
 21 22  2  0
 22 41  1  0
 23 22  1  0
 23 26  1  0
 24 21  1  0
 24 25  1  0
 25 23  2  0
 26 27  1  0
 27 28  2  0
 29 32  1  0
 29 28  1  0
 30 29  2  0
 31 30  1  0
 31 26  2  0
 32 33  1  0
 33 34  1  0
 34 35  2  0
 36 35  1  0
 36 40  1  0
 37 36  2  0
 38 33  2  0
 38 37  1  0
 39 38  1  0
 41 42  1  0
 42 45  1  0
 42 44  1  0
 43 41  2  0
 46 47  1  0
 46 21  1  0
 48 46  1  0
 50 49  1  0
 51 62  2  0
 52 50  1  0
 52 57  1  0
 53 61  1  0
 53 63  1  0
 54 60  1  0
 54 56  1  0
 55 61  1  0
 56 55  1  0
 57 56  2  0
 58 52  2  0
 59 58  1  0
 59 54  2  0
 60 53  1  0
 61 51  1  0
 63 65  2  0
 64 63  1  0
 66 64  1  0
 67 76  2  0
 67 72  1  0
 68 64  1  0
 68 72  1  0
 69 68  1  0
 70 71  1  0
 70 69  1  0
 71 67  1  0
 72 73  2  0
 73 74  1  0
 75 74  2  0
 76 75  1  0
 77 51  1  0
 77 78  1  0
 77 87  1  0
 78 81  1  0
 79 83  1  0
 79 78  1  0
 80 79  2  0
 83 82  1  0
 85 83  1  0
 85 86  1  0
 85 84  1  0
 87 90  1  1
 87 88  1  0
 89 87  1  0
M  ISO  4  11 100  19 100  49 101  50 101
M  END
>  <TORSDO>  (50) 
F 18

>  <SCORE>  (50) 
-14.544

>  <name>  (50) 
49

>  <ligand_id>  (50) 
49

>  <original_smiles>  (50) 
[H]c1c(C([H])([H])[H])nc(C2([H])C([H])([H])C2([H])N([H])C(=O)N2C([H])([H])C([H])([H])C([H])([H])C([H])(n3nc(-c4c([H])c([H])c(Oc5c([H])c([H])c(F)c([H])c5F)c([H])c4[H])c(C(=O)N([H])[H])c3N([H])[H])C2([H])[H])nc1C([H])([H])Oc1c([H])c([H])c2c(c1[H])C([H])([H])N(C(=O)C([H])(N([H])C(=O)C([H])(N([H])C([H])([H])[H])C([H])([H])[H])C(C([H])([H])[H])(C([H])([H])[H])C([H])([H])[H])C([H])(C(=O)N([H])C1([H])c3c([H])c([H])c([H])c([H])c3C([H])([H])C([H])([H])C1([H])[H])C2([H])[H]

>  <smiles>  (50) 
[H]c1c(C([H])([H])[H])nc(C2([H])C([H])([H])C2([H])N([H])C(=O)N2C([H])([H])C([H])([H])C([H])([H])C([H])(n3nc(-c4c([H])c([H])c(Oc5c([H])c([H])c(F)c([H])c5F)c([H])c4[H])c(C(=O)N([H])[H])c3N([H])[H])C2([H])[H])nc1C([H])([H])Oc1c([H])c([H])c2c(c1[H])C([H])([H])N(C(=O)C([H])(N([H])C(=O)C([H])(N([H])C([H])([H])[H])C([H])([H])[H])C(C([H])([H])[H])(C([H])([H])[H])C([H])([H])[H])C([H])(C(=O)N([H])C1([H])c3c([H])c([H])c([H])c([H])c3C([H])([H])C([H])([H])C1([H])[H])C2([H])[H]

$$$$
50:0:0
     RDKit          3D

 93103  0  0  1  0  0  0  0  0999 V2000
  -28.5670  -21.9030   19.8640 C   0  0  0  0  0  0  0  0  0  0  0  0
  -27.5510  -22.3130   19.0060 C   0  0  0  0  0  0  0  0  0  0  0  0
  -28.0670  -24.3740   19.8770 C   0  0  0  0  0  0  0  0  0  0  0  0
  -26.7430  -21.4200   18.1210 C   0  0  0  0  0  1  0  0  0  0  0  0
  -27.2690  -23.7240   19.0170 N   0  0  0  0  0  0  0  0  0  0  0  0
  -28.8620  -23.2860   20.4110 N   0  0  0  0  0  0  0  0  0  0  0  0
  -30.4470  -15.2740   19.8270 C   0  0  0  0  0  0  0  0  0  0  0  0
  -30.2650  -12.8410   18.9470 C   0  0  0  0  0  2  0  0  0  0  0  0
  -29.2720  -12.6210   17.7830 C   0  0  0  0  0  2  0  0  0  0  0  0
  -27.8600  -12.3600   18.3280 C   0  0  0  0  0  2  0  0  0  0  0  0
  -27.4890  -13.3380   19.4730 C   0  0  0  0  0  3  0  0  0  0  0  0
  -28.6120  -13.5200   20.5170 C   0  0  0  0  0  2  0  0  0  0  0  0
  -29.7850  -14.0120   19.7780 N   0  0  0  0  0  0  0  0  0  0  0  0
  -31.6490  -15.1540   19.5380 O   0  0  0  0  0  0  0  0  0  0  0  0
  -28.2330  -18.9530   20.3640 C   0  0  0  0  0  2  0  0  0  0  0  0
  -30.1090  -19.4500   19.1430 C   0  0  0  0  0  2  0  0  0  0  0  0
  -28.7660  -17.3710   20.6340 C   0  0  0  0  0  2  0  0  0  0  0  0
  -30.6990  -17.9100   19.4400 C   0  0  0  0  0  2  0  0  0  0  0  0
  -29.1740  -20.2810   20.1660 C   0  0  0  0  0  3  0  0  0  0  0  0
  -29.8740  -16.6620   19.8340 N   0  0  0  0  0  0  0  0  0  0  0  0
  -25.1940  -13.8970   20.4250 C   0  0  0  0  0  0  0  0  0  0  0  0
  -24.1530  -13.1220   20.8510 C   0  0  0  0  0  0  0  0  0  0  0  0
  -24.5980  -11.7670   20.7480 C   0  0  0  0  0  0  0  0  0  0  0  0
  -26.2040  -13.0190   20.0800 N   0  0  0  0  0  0  0  0  0  0  0  0
  -25.8640  -11.7290   20.3410 N   0  0  0  0  0  0  0  0  0  0  0  0
  -23.8690  -10.5090   20.9550 C   0  0  0  0  0  0  0  0  0  0  0  0
  -24.3280   -9.5270   21.8600 C   0  0  0  0  0  3  0  0  0  0  0  0
  -23.5950   -8.3360   22.0580 C   0  0  0  0  0  3  0  0  0  0  0  0
  -22.3890   -8.1200   21.3500 C   0  0  0  0  0  0  0  0  0  0  0  0
  -21.9480   -9.0910   20.4340 C   0  0  0  0  0  3  0  0  0  0  0  0
  -22.6820  -10.2720   20.2330 C   0  0  0  0  0  3  0  0  0  0  0  0
  -21.6250   -6.9820   21.4580 O   0  0  0  0  0  0  0  0  0  0  0  0
  -21.5870   -6.2490   22.6160 C   0  0  0  0  0  0  0  0  0  0  0  0
  -21.1380   -6.8030   23.8350 C   0  0  0  0  0  3  0  0  0  0  0  0
  -21.0490   -5.9940   24.9860 C   0  0  0  0  0  3  0  0  0  0  0  0
  -21.3980   -4.6320   24.9190 C   0  0  0  0  0  0  0  0  0  0  0  0
  -21.8410   -4.0780   23.7060 C   0  0  0  0  0  3  0  0  0  0  0  0
  -21.9320   -4.8830   22.5570 C   0  0  0  0  0  0  0  0  0  0  0  0
  -22.3380   -4.3380   21.3850 F   0  0  0  0  0  0  0  0  0  0  0  0
  -21.3060   -3.8530   26.0220 F   0  0  0  0  0  0  0  0  0  0  0  0
  -22.7850  -13.6060   21.2320 C   0  0  0  0  0  0  0  0  0  0  0  0
  -22.1130  -12.9020   22.1340 N   0  0  0  0  0  0  0  0  0  0  0  0
  -22.3280  -14.6510   20.7690 O   0  0  0  0  0  0  0  0  0  0  0  0
  -22.4970  -12.0550   22.5280 H   0  0  0  0  0  0  0  0  0  0  0  0
  -21.2000  -13.2130   22.4330 H   0  0  0  0  0  0  0  0  0  0  0  0
  -25.3580  -15.2710   20.2720 N   0  0  0  0  0  0  0  0  0  0  0  0
  -24.6050  -15.9250   20.4530 H   0  0  0  0  0  0  0  0  0  0  0  0
  -26.1740  -15.7090   19.8660 H   0  0  0  0  0  0  0  0  0  0  0  0
  -28.1400  -25.8470   20.1410 O   0  0  0  0  0  0  0  0  0  0  0  0
  -24.5400  -31.7750   23.1070 C   0  0  0  0  0  0  0  0  0  0  0  0
  -27.1230  -26.9380   20.0500 C   0  0  0  0  0  0  0  0  0  0  0  0
  -23.3570  -30.3880   21.4510 C   0  0  0  0  0  3  0  0  0  0  0  0
  -24.8170  -28.8110   20.0120 C   0  0  0  0  0  0  0  0  0  0  0  0
  -25.9210  -30.6140   21.3160 C   0  0  0  0  0  2  0  0  0  0  0  0
  -26.0000  -29.2120   20.6460 C   0  0  0  0  0  0  0  0  0  0  0  0
  -27.1440  -28.2950   20.6470 C   0  0  0  0  0  3  0  0  0  0  0  0
  -25.9150  -26.6980   19.3570 C   0  0  0  0  0  3  0  0  0  0  0  0
  -24.8010  -27.5750   19.3480 C   0  0  0  0  0  3  0  0  0  0  0  0
  -23.5940  -29.7230   20.0680 C   0  0  0  0  0  2  0  0  0  0  0  0
  -24.6280  -30.9520   22.0120 N   0  0  0  0  0  0  0  0  0  0  0  0
  -23.4480  -32.0550   23.6260 O   0  0  0  0  0  0  0  0  0  0  0  0
  -22.6660  -29.3790   22.4050 C   0  0  0  0  0  0  0  0  0  0  0  0
  -21.3390  -29.2020   22.2690 N   0  0  0  0  0  0  0  0  0  0  0  0
  -23.3300  -28.7550   23.2370 O   0  0  0  0  0  0  0  0  0  0  0  0
  -20.8520  -29.7550   21.5780 H   0  0  0  0  0  0  0  0  0  0  0  0
  -17.9680  -27.9490   22.7450 C   0  0  0  0  0  0  0  0  0  0  0  0
  -20.5210  -28.2510   23.0310 C   0  0  0  0  0  3  0  0  0  0  0  0
  -20.6470  -26.8230   22.4520 C   0  0  0  0  0  2  0  0  0  0  0  0
  -19.5590  -26.4900   21.4250 C   0  0  0  0  0  2  0  0  0  0  0  0
  -18.1700  -26.6090   22.0600 C   0  0  0  0  0  2  0  0  0  0  0  0
  -19.0710  -28.7270   23.1860 C   0  0  0  0  0  0  0  0  0  0  0  0
  -18.8250  -29.9780   23.7930 C   0  0  0  0  0  3  0  0  0  0  0  0
  -17.5110  -30.4550   23.9550 C   0  0  0  0  0  3  0  0  0  0  0  0
  -16.4230  -29.6750   23.5240 C   0  0  0  0  0  3  0  0  0  0  0  0
  -16.6520  -28.4240   22.9260 C   0  0  0  0  0  3  0  0  0  0  0  0
  -25.8060  -32.4180   23.7500 C   0  0  0  0  0  3  0  0  0  0  0  0
  -25.4800  -33.8130   24.0960 N   0  0  0  0  0  0  0  0  0  0  0  0
  -25.8020  -34.8840   23.3570 C   0  0  0  0  0  0  0  0  0  0  0  0
  -26.4660  -34.8000   22.3210 O   0  0  0  0  0  0  0  0  0  0  0  0
  -24.8850  -33.9520   24.8990 H   0  0  0  0  0  0  0  0  0  0  0  0
  -24.0620  -36.6780   23.0420 C   0  0  0  0  0  1  0  0  0  0  0  0
  -25.3090  -36.2640   23.8390 C   0  0  0  0  0  3  0  0  0  0  0  0
  -27.4430  -37.1550   24.6720 C   0  0  0  0  0  1  0  0  0  0  0  0
  -26.3330  -37.3300   23.7390 N   0  0  0  0  0  0  0  0  0  0  0  0
  -25.9190  -38.2420   23.9110 H   0  0  0  0  0  0  0  0  0  0  0  0
  -26.3080  -31.6470   25.0330 C   0  0  1  0  0  0  0  0  0  0  0  0
  -25.2000  -31.3990   26.0850 C   0  0  0  0  0  1  0  0  0  0  0  0
  -26.9040  -30.2730   24.6510 C   0  0  0  0  0  1  0  0  0  0  0  0
  -27.4470  -32.4430   25.7130 C   0  0  0  0  0  1  0  0  0  0  0  0
  -29.8450  -23.5080   21.4510 C   0  0  0  0  0  2  0  0  0  0  0  0
  -29.9750  -23.5230   24.0830 C   0  0  0  0  0  2  0  0  0  0  0  0
  -29.4430  -24.8710   23.6730 C   0  0  0  0  0  2  0  0  0  0  0  0
  -29.1750  -23.6580   22.8080 C   0  0  0  0  0  3  0  0  0  0  0  0
  1  6  1  0
  2  5  1  0
  2  1  2  0
  3 49  1  0
  3  6  1  0
  4  2  1  0
  5  3  2  0
  6 90  1  0
  7 20  1  0
  8 13  1  0
  9 10  1  0
  9  8  1  0
 11 10  1  0
 11 24  1  0
 11 12  1  0
 13  7  1  0
 13 12  1  0
 14  7  2  0
 15 17  1  0
 16 18  1  0
 16 19  1  0
 18 20  1  0
 19  1  1  0
 19 15  1  0
 20 17  1  0
 21 22  2  0
 22 41  1  0
 23 22  1  0
 23 26  1  0
 24 25  1  0
 24 21  1  0
 25 23  2  0
 26 27  1  0
 27 28  2  0
 29 32  1  0
 29 28  1  0
 30 29  2  0
 31 30  1  0
 31 26  2  0
 32 33  1  0
 33 34  1  0
 34 35  2  0
 36 35  1  0
 36 40  1  0
 37 36  2  0
 38 33  2  0
 38 37  1  0
 39 38  1  0
 41 42  1  0
 42 45  1  0
 42 44  1  0
 43 41  2  0
 46 21  1  0
 46 47  1  0
 48 46  1  0
 50 61  2  0
 51 49  1  0
 51 56  1  0
 52 60  1  0
 52 62  1  0
 53 59  1  0
 53 55  1  0
 54 60  1  0
 55 56  2  0
 55 54  1  0
 57 51  2  0
 58 57  1  0
 58 53  2  0
 59 52  1  0
 60 50  1  0
 62 64  2  0
 63 62  1  0
 65 63  1  0
 66 75  2  0
 66 71  1  0
 67 63  1  0
 67 71  1  0
 68 67  1  0
 69 70  1  0
 69 68  1  0
 70 66  1  0
 71 72  2  0
 72 73  1  0
 74 73  2  0
 75 74  1  0
 76 50  1  0
 76 77  1  0
 76 86  1  0
 77 80  1  0
 78 82  1  0
 78 77  1  0
 79 78  2  0
 82 81  1  0
 84 82  1  0
 84 85  1  0
 84 83  1  0
 86 89  1  1
 86 87  1  0
 88 86  1  0
 90 93  1  0
 92 91  1  0
 93 92  1  0
 93 91  1  0
M  ISO  4   3 101   7 100  20 100  49 101
M  END
>  <TORSDO>  (51) 
F 18

>  <SCORE>  (51) 
-14.636

>  <name>  (51) 
50

>  <ligand_id>  (51) 
50

>  <original_smiles>  (51) 
[H]c1c([H])c([H])c2c(c1[H])C([H])([H])C([H])([H])C([H])([H])C2([H])N([H])C(=O)C1([H])N(C(=O)C([H])(N([H])C(=O)C([H])(N([H])C([H])([H])[H])C([H])([H])[H])C(C([H])([H])[H])(C([H])([H])[H])C([H])([H])[H])C([H])([H])c2c([H])c(Oc3nc(C([H])([H])[H])c(C4([H])C([H])([H])C([H])([H])N(C(=O)N5C([H])([H])C([H])([H])C([H])([H])C([H])(n6nc(-c7c([H])c([H])c(Oc8c([H])c([H])c(F)c([H])c8F)c([H])c7[H])c(C(=O)N([H])[H])c6N([H])[H])C5([H])[H])C([H])([H])C4([H])[H])n3C([H])([H])C3([H])C([H])([H])C3([H])[H])c([H])c([H])c2C1([H])[H]

>  <smiles>  (51) 
[H]c1c([H])c([H])c2c(c1[H])C([H])([H])C([H])([H])C([H])([H])C2([H])N([H])C(=O)C1([H])N(C(=O)C([H])(N([H])C(=O)C([H])(N([H])C([H])([H])[H])C([H])([H])[H])C(C([H])([H])[H])(C([H])([H])[H])C([H])([H])[H])C([H])([H])c2c([H])c(Oc3nc(C([H])([H])[H])c(C4([H])C([H])([H])C([H])([H])N(C(=O)N5C([H])([H])C([H])([H])C([H])([H])C([H])(n6nc(-c7c([H])c([H])c(Oc8c([H])c([H])c(F)c([H])c8F)c([H])c7[H])c(C(=O)N([H])[H])c6N([H])[H])C5([H])[H])C([H])([H])C4([H])[H])n3C([H])([H])C3([H])C([H])([H])C3([H])[H])c([H])c([H])c2C1([H])[H]

$$$$
51:0:0
     RDKit          3D

 94103  0  0  1  0  0  0  0  0999 V2000
  -29.7660  -21.5270   18.4280 C   0  0  0  0  0  0  0  0  0  0  0  0
  -30.0300  -20.2310   17.9610 C   0  0  0  0  0  0  0  0  0  0  0  0
  -29.2900  -21.7110   19.7580 C   0  0  0  0  0  0  0  0  0  0  0  0
  -29.6200  -19.1930   19.9490 C   0  0  0  0  0  0  0  0  0  0  0  0
  -30.3700  -21.6520   16.0930 C   0  0  0  0  0  2  0  0  0  0  0  0
  -30.5870  -20.2000   16.5600 C   0  0  0  0  0  3  0  0  0  0  0  0
  -30.1940  -22.5400   17.3550 C   0  0  2  0  0  0  0  0  0  0  0  0
  -32.0680  -19.7710   16.5340 C   0  0  0  0  0  1  0  0  0  0  0  0
  -31.5540  -23.1790   17.7080 C   0  0  0  0  0  1  0  0  0  0  0  0
  -29.1920  -23.6620   17.0490 C   0  0  0  0  0  1  0  0  0  0  0  0
  -29.9220  -19.0910   18.6660 N   0  0  0  0  0  0  0  0  0  0  0  0
  -29.2950  -20.4690   20.4950 N   0  0  0  0  0  0  0  0  0  0  0  0
  -29.1190  -23.2610   20.4000 C   0  0  0  0  0  2  0  0  0  0  0  0
  -28.0190  -24.5470   20.0840 C   0  0  0  0  0  2  0  0  0  0  0  0
  -28.2400  -26.1060   20.2670 O   0  0  0  0  0  0  0  0  0  0  0  0
  -24.6140  -31.8530   23.2400 C   0  0  0  0  0  0  0  0  0  0  0  0
  -27.1840  -27.1060   20.2050 C   0  0  0  0  0  0  0  0  0  0  0  0
  -23.4100  -30.4560   21.6040 C   0  0  0  0  0  3  0  0  0  0  0  0
  -24.8560  -28.8720   20.1810 C   0  0  0  0  0  0  0  0  0  0  0  0
  -25.9650  -30.7150   21.4340 C   0  0  0  0  0  2  0  0  0  0  0  0
  -26.0400  -29.3170   20.7810 C   0  0  0  0  0  0  0  0  0  0  0  0
  -27.2050  -28.4520   20.7710 C   0  0  0  0  0  3  0  0  0  0  0  0
  -25.9700  -26.7730   19.5650 C   0  0  0  0  0  3  0  0  0  0  0  0
  -24.8360  -27.6150   19.5560 C   0  0  0  0  0  3  0  0  0  0  0  0
  -23.6300  -29.7720   20.2280 C   0  0  0  0  0  2  0  0  0  0  0  0
  -24.6840  -31.0290   22.1480 N   0  0  0  0  0  0  0  0  0  0  0  0
  -23.5280  -32.1400   23.7680 O   0  0  0  0  0  0  0  0  0  0  0  0
  -22.7280  -29.4560   22.5710 C   0  0  0  0  0  0  0  0  0  0  0  0
  -21.4000  -29.2820   22.4420 N   0  0  0  0  0  0  0  0  0  0  0  0
  -23.3970  -28.8370   23.4020 O   0  0  0  0  0  0  0  0  0  0  0  0
  -20.9140  -29.8350   21.7510 H   0  0  0  0  0  0  0  0  0  0  0  0
  -18.0230  -28.0650   22.9290 C   0  0  0  0  0  0  0  0  0  0  0  0
  -20.5780  -28.3480   23.2140 C   0  0  0  0  0  3  0  0  0  0  0  0
  -20.6920  -26.9110   22.6540 C   0  0  0  0  0  2  0  0  0  0  0  0
  -19.6030  -26.5720   21.6320 C   0  0  0  0  0  2  0  0  0  0  0  0
  -18.2160  -26.7130   22.2650 C   0  0  0  0  0  2  0  0  0  0  0  0
  -19.1330  -28.8410   23.3600 C   0  0  0  0  0  0  0  0  0  0  0  0
  -18.8990  -30.1060   23.9420 C   0  0  0  0  0  3  0  0  0  0  0  0
  -17.5900  -30.5960   24.0980 C   0  0  0  0  0  3  0  0  0  0  0  0
  -16.4940  -29.8190   23.6810 C   0  0  0  0  0  3  0  0  0  0  0  0
  -16.7120  -28.5560   23.1020 C   0  0  0  0  0  3  0  0  0  0  0  0
  -25.8930  -32.4890   23.8650 C   0  0  0  0  0  3  0  0  0  0  0  0
  -26.3970  -31.7260   25.1510 C   0  0  1  0  0  0  0  0  0  0  0  0
  -25.2990  -31.5080   26.2180 C   0  0  0  0  0  1  0  0  0  0  0  0
  -26.9700  -30.3380   24.7810 C   0  0  0  0  0  1  0  0  0  0  0  0
  -27.5500  -32.5190   25.8120 C   0  0  0  0  0  1  0  0  0  0  0  0
  -25.5840  -33.8900   24.1880 N   0  0  0  0  0  0  0  0  0  0  0  0
  -25.9190  -34.9450   23.4310 C   0  0  0  0  0  0  0  0  0  0  0  0
  -26.5870  -34.8380   22.3980 O   0  0  0  0  0  0  0  0  0  0  0  0
  -24.9870  -34.0490   24.9860 H   0  0  0  0  0  0  0  0  0  0  0  0
  -24.1960  -36.7490   23.0910 C   0  0  0  0  0  1  0  0  0  0  0  0
  -25.4420  -36.3360   23.8910 C   0  0  0  0  0  3  0  0  0  0  0  0
  -27.5850  -37.2200   24.7050 C   0  0  0  0  0  1  0  0  0  0  0  0
  -26.4760  -37.3870   23.7680 N   0  0  0  0  0  0  0  0  0  0  0  0
  -26.0720  -38.3080   23.9170 H   0  0  0  0  0  0  0  0  0  0  0  0
  -29.9960  -17.7900   20.7710 C   0  0  0  0  0  2  0  0  0  0  0  0
  -30.4590  -15.0460   20.3490 C   0  0  0  0  0  0  0  0  0  0  0  0
  -30.3590  -12.6740   19.4200 C   0  0  0  0  0  2  0  0  0  0  0  0
  -29.4340  -12.5850   18.1850 C   0  0  0  0  0  2  0  0  0  0  0  0
  -27.9720  -12.3570   18.6160 C   0  0  0  0  0  2  0  0  0  0  0  0
  -27.5420  -13.2950   19.7740 C   0  0  0  0  0  3  0  0  0  0  0  0
  -28.5950  -13.3480   20.9000 C   0  0  0  0  0  2  0  0  0  0  0  0
  -29.8550  -13.7850   20.2810 N   0  0  0  0  0  0  0  0  0  0  0  0
  -31.6790  -15.0770   20.1620 O   0  0  0  0  0  0  0  0  0  0  0  0
  -29.6910  -16.2540   20.4320 N   0  0  0  0  0  0  0  0  0  0  0  0
  -28.7000  -16.0730   20.4340 H   0  0  0  0  0  0  0  0  0  0  0  0
  -25.1600  -13.8630   20.5120 C   0  0  0  0  0  0  0  0  0  0  0  0
  -24.0970  -13.0870   20.8830 C   0  0  0  0  0  0  0  0  0  0  0  0
  -24.5650  -11.7380   20.8580 C   0  0  0  0  0  0  0  0  0  0  0  0
  -26.2060  -12.9880   20.2750 N   0  0  0  0  0  0  0  0  0  0  0  0
  -25.8580  -11.7040   20.5510 N   0  0  0  0  0  0  0  0  0  0  0  0
  -23.8390  -10.4750   21.0440 C   0  0  0  0  0  0  0  0  0  0  0  0
  -24.2700   -9.5050   21.9760 C   0  0  0  0  0  3  0  0  0  0  0  0
  -23.5420   -8.3070   22.1530 C   0  0  0  0  0  3  0  0  0  0  0  0
  -22.3690   -8.0720   21.3980 C   0  0  0  0  0  0  0  0  0  0  0  0
  -21.9570   -9.0290   20.4540 C   0  0  0  0  0  3  0  0  0  0  0  0
  -22.6850  -10.2180   20.2750 C   0  0  0  0  0  3  0  0  0  0  0  0
  -21.6100   -6.9280   21.4860 O   0  0  0  0  0  0  0  0  0  0  0  0
  -21.5640   -6.1820   22.6350 C   0  0  0  0  0  0  0  0  0  0  0  0
  -21.1460   -6.7320   23.8660 C   0  0  0  0  0  3  0  0  0  0  0  0
  -21.0490   -5.9100   25.0080 C   0  0  0  0  0  3  0  0  0  0  0  0
  -21.3600   -4.5410   24.9180 C   0  0  0  0  0  0  0  0  0  0  0  0
  -21.7710   -3.9900   23.6920 C   0  0  0  0  0  3  0  0  0  0  0  0
  -21.8720   -4.8090   22.5540 C   0  0  0  0  0  0  0  0  0  0  0  0
  -22.2490   -4.2680   21.3700 F   0  0  0  0  0  0  0  0  0  0  0  0
  -21.2590   -3.7500   26.0120 F   0  0  0  0  0  0  0  0  0  0  0  0
  -22.6960  -13.5630   21.1410 C   0  0  0  0  0  0  0  0  0  0  0  0
  -21.9590  -12.8690   22.0010 N   0  0  0  0  0  0  0  0  0  0  0  0
  -22.2640  -14.5860   20.6110 O   0  0  0  0  0  0  0  0  0  0  0  0
  -22.3180  -12.0440   22.4550 H   0  0  0  0  0  0  0  0  0  0  0  0
  -21.0170  -13.1710   22.2110 H   0  0  0  0  0  0  0  0  0  0  0  0
  -25.3200  -15.2330   20.3290 N   0  0  0  0  0  0  0  0  0  0  0  0
  -24.5460  -15.8830   20.4120 H   0  0  0  0  0  0  0  0  0  0  0  0
  -26.1560  -15.6610   19.9530 H   0  0  0  0  0  0  0  0  0  0  0  0
  1  3  1  0
  2  1  2  0
  2 11  1  0
  3 13  1  0
  3 12  2  0
  4 12  1  0
  4 56  1  0
  5  6  1  0
  5  7  1  0
  6  8  1  0
  6  2  1  0
  7  9  1  1
  7  1  1  0
 10  7  1  0
 11  4  2  0
 14 15  1  0
 14 13  1  0
 16 27  2  0
 17 15  1  0
 17 22  1  0
 18 26  1  0
 18 28  1  0
 19 25  1  0
 19 21  1  0
 20 26  1  0
 21 20  1  0
 22 21  2  0
 23 17  2  0
 24 23  1  0
 24 19  2  0
 25 18  1  0
 26 16  1  0
 28 30  2  0
 29 28  1  0
 31 29  1  0
 32 41  2  0
 32 37  1  0
 33 29  1  0
 33 37  1  0
 34 33  1  0
 35 36  1  0
 35 34  1  0
 36 32  1  0
 37 38  2  0
 38 39  1  0
 40 39  2  0
 41 40  1  0
 42 16  1  0
 42 47  1  0
 42 43  1  0
 43 46  1  1
 43 44  1  0
 45 43  1  0
 47 50  1  0
 48 52  1  0
 48 47  1  0
 49 48  2  0
 52 51  1  0
 54 52  1  0
 54 55  1  0
 54 53  1  0
 57 65  1  0
 58 63  1  0
 59 60  1  0
 59 58  1  0
 61 60  1  0
 61 70  1  0
 61 62  1  0
 63 57  1  0
 63 62  1  0
 64 57  2  0
 65 66  1  0
 65 56  1  0
 67 68  2  0
 68 87  1  0
 69 68  1  0
 69 72  1  0
 70 67  1  0
 70 71  1  0
 71 69  2  0
 72 73  1  0
 73 74  2  0
 75 78  1  0
 75 74  1  0
 76 75  2  0
 77 76  1  0
 77 72  2  0
 78 79  1  0
 79 80  1  0
 80 81  2  0
 82 81  1  0
 82 86  1  0
 83 82  2  0
 84 79  2  0
 84 83  1  0
 85 84  1  0
 87 88  1  0
 88 91  1  0
 88 90  1  0
 89 87  2  0
 92 93  1  0
 92 67  1  0
 94 92  1  0
M  ISO  4  14 101  15 101  57 100  65 100
M  END
>  <TORSDO>  (52) 
F 19

>  <SCORE>  (52) 
-15.038

>  <name>  (52) 
51

>  <ligand_id>  (52) 
51

>  <original_smiles>  (52) 
[H]c1c([H])c([H])c2c(c1[H])C([H])([H])C([H])([H])C([H])([H])C2([H])N([H])C(=O)C1([H])N(C(=O)C([H])(N([H])C(=O)C([H])(N([H])C([H])([H])[H])C([H])([H])[H])C(C([H])([H])[H])(C([H])([H])[H])C([H])([H])[H])C([H])([H])c2c([H])c(OC([H])([H])C([H])([H])c3nc(C([H])([H])N([H])C(=O)N4C([H])([H])C([H])([H])C([H])([H])C([H])(n5nc(-c6c([H])c([H])c(Oc7c([H])c([H])c(F)c([H])c7F)c([H])c6[H])c(C(=O)N([H])[H])c5N([H])[H])C4([H])[H])nc4c3C(C([H])([H])[H])(C([H])([H])[H])C([H])([H])C4([H])C([H])([H])[H])c([H])c([H])c2C1([H])[H]

>  <smiles>  (52) 
[H]c1c([H])c([H])c2c(c1[H])C([H])([H])C([H])([H])C([H])([H])C2([H])N([H])C(=O)C1([H])N(C(=O)C([H])(N([H])C(=O)C([H])(N([H])C([H])([H])[H])C([H])([H])[H])C(C([H])([H])[H])(C([H])([H])[H])C([H])([H])[H])C([H])([H])c2c([H])c(OC([H])([H])C([H])([H])c3nc(C([H])([H])N([H])C(=O)N4C([H])([H])C([H])([H])C([H])([H])C([H])(n5nc(-c6c([H])c([H])c(Oc7c([H])c([H])c(F)c([H])c7F)c([H])c6[H])c(C(=O)N([H])[H])c5N([H])[H])C4([H])[H])nc4c3C(C([H])([H])[H])(C([H])([H])[H])C([H])([H])C4([H])C([H])([H])[H])c([H])c([H])c2C1([H])[H]

$$$$
52:0:0
     RDKit          3D

 96105  0  0  1  0  0  0  0  0999 V2000
  -27.1930  -21.5880   20.6000 C   0  0  0  0  0  3  0  0  0  0  0  0
  -27.9180  -20.4390   20.6720 C   0  0  0  0  0  3  0  0  0  0  0  0
  -29.2880  -22.1180   20.0790 C   0  0  0  0  0  3  0  0  0  0  0  0
  -28.0360  -22.6880   20.2310 C   0  0  0  0  0  0  0  0  0  0  0  0
  -29.2190  -20.7340   20.3250 N   0  0  0  0  0  0  0  0  0  0  0  0
  -30.5390  -18.5360   21.9830 C   0  0  0  0  0  2  0  0  0  0  0  0
  -30.1230  -18.2080   20.5450 C   0  0  0  0  0  3  0  0  0  0  0  0
  -30.2970  -19.7460   20.2760 C   0  0  0  0  0  3  0  0  0  0  0  0
  -31.0190  -19.8440   21.5400 N   0  0  0  0  0  4  0  0  0  0  0  0
  -32.0160  -19.8700   21.4020 H   0  0  0  0  0  0  0  0  0  0  0  0
  -30.7070  -20.6060   22.1180 H   0  0  0  0  0  0  0  0  0  0  0  0
  -32.4500  -17.2700   19.9450 C   0  0  0  0  0  1  0  0  0  0  0  0
  -30.9220  -17.1190   19.7580 C   0  0  0  0  0  3  0  0  0  0  0  0
  -31.0910  -14.5950   19.6490 C   0  0  0  0  0  0  0  0  0  0  0  0
  -30.7800  -12.2460   18.9550 C   0  0  0  0  0  2  0  0  0  0  0  0
  -29.8020  -12.1830   17.7660 C   0  0  0  0  0  2  0  0  0  0  0  0
  -28.3480  -12.0950   18.2680 C   0  0  0  0  0  2  0  0  0  0  0  0
  -28.0230  -13.1490   19.3610 C   0  0  0  0  0  3  0  0  0  0  0  0
  -29.1240  -13.2060   20.4470 C   0  0  0  0  0  2  0  0  0  0  0  0
  -30.4180  -13.4150   19.7790 N   0  0  0  0  0  0  0  0  0  0  0  0
  -32.1700  -14.6600   19.0570 O   0  0  0  0  0  0  0  0  0  0  0  0
  -30.4750  -15.7290   20.0680 N   0  0  0  0  0  0  0  0  0  0  0  0
  -29.5800  -15.6140   20.5150 H   0  0  0  0  0  0  0  0  0  0  0  0
  -25.7200  -13.8520   20.2650 C   0  0  0  0  0  0  0  0  0  0  0  0
  -24.6450  -13.1260   20.6990 C   0  0  0  0  0  0  0  0  0  0  0  0
  -25.0320  -11.7540   20.6080 C   0  0  0  0  0  0  0  0  0  0  0  0
  -26.6990  -12.9270   19.9370 N   0  0  0  0  0  0  0  0  0  0  0  0
  -26.2920  -11.6570   20.2020 N   0  0  0  0  0  0  0  0  0  0  0  0
  -24.2540  -10.5260   20.8290 C   0  0  0  0  0  0  0  0  0  0  0  0
  -24.6510   -9.5640   21.7840 C   0  0  0  0  0  3  0  0  0  0  0  0
  -23.8780   -8.4010   21.9940 C   0  0  0  0  0  3  0  0  0  0  0  0
  -22.6950   -8.1910   21.2460 C   0  0  0  0  0  0  0  0  0  0  0  0
  -22.3180   -9.1400   20.2810 C   0  0  0  0  0  3  0  0  0  0  0  0
  -23.0900  -10.2940   20.0710 C   0  0  0  0  0  3  0  0  0  0  0  0
  -21.8960   -7.0780   21.3610 O   0  0  0  0  0  0  0  0  0  0  0  0
  -21.7590   -6.4120   22.5530 C   0  0  0  0  0  0  0  0  0  0  0  0
  -21.2840   -7.0560   23.7170 C   0  0  0  0  0  3  0  0  0  0  0  0
  -21.0920   -6.3170   24.9010 C   0  0  0  0  0  3  0  0  0  0  0  0
  -21.3650   -4.9360   24.9230 C   0  0  0  0  0  0  0  0  0  0  0  0
  -21.8320   -4.2920   23.7640 C   0  0  0  0  0  3  0  0  0  0  0  0
  -22.0260   -5.0280   22.5820 C   0  0  0  0  0  0  0  0  0  0  0  0
  -22.4560   -4.3990   21.4620 F   0  0  0  0  0  0  0  0  0  0  0  0
  -21.1720   -4.2250   26.0580 F   0  0  0  0  0  0  0  0  0  0  0  0
  -23.2980  -13.6670   21.0860 C   0  0  0  0  0  0  0  0  0  0  0  0
  -22.6150  -13.0090   22.0150 N   0  0  0  0  0  0  0  0  0  0  0  0
  -22.8650  -14.7090   20.5960 O   0  0  0  0  0  0  0  0  0  0  0  0
  -22.9790  -12.1670   22.4360 H   0  0  0  0  0  0  0  0  0  0  0  0
  -21.7130  -13.3540   22.3110 H   0  0  0  0  0  0  0  0  0  0  0  0
  -25.9440  -15.2160   20.1010 N   0  0  0  0  0  0  0  0  0  0  0  0
  -25.2250  -15.9080   20.2810 H   0  0  0  0  0  0  0  0  0  0  0  0
  -26.7840  -15.6140   19.7000 H   0  0  0  0  0  0  0  0  0  0  0  0
  -26.1850  -24.1920   20.8240 C   0  0  0  0  0  1  0  0  0  0  0  0
  -27.2560  -24.1520   18.4530 C   0  0  0  0  0  1  0  0  0  0  0  0
  -27.4900  -24.1280   19.9790 C   0  0  2  0  0  0  0  0  0  0  0  0
  -28.3880  -25.3750   20.3740 C   0  0  0  0  0  2  0  0  0  0  0  0
  -28.2900  -26.6550   19.6390 O   0  0  0  0  0  0  0  0  0  0  0  0
  -24.6180  -31.7790   23.0960 C   0  0  0  0  0  0  0  0  0  0  0  0
  -27.1540  -27.4550   19.7210 C   0  0  0  0  0  0  0  0  0  0  0  0
  -23.3670  -30.4520   21.4330 C   0  0  0  0  0  3  0  0  0  0  0  0
  -24.7780  -29.0190   19.8680 C   0  0  0  0  0  0  0  0  0  0  0  0
  -25.8910  -30.8240   21.1720 C   0  0  0  0  0  2  0  0  0  0  0  0
  -25.9590  -29.4840   20.4610 C   0  0  0  0  0  0  0  0  0  0  0  0
  -27.1500  -28.7090   20.3920 C   0  0  0  0  0  3  0  0  0  0  0  0
  -25.9700  -27.0820   19.0480 C   0  0  0  0  0  3  0  0  0  0  0  0
  -24.7840  -27.8170   19.1540 C   0  0  0  0  0  3  0  0  0  0  0  0
  -23.5320  -29.8610   20.0100 C   0  0  0  0  0  2  0  0  0  0  0  0
  -24.6460  -31.0320   21.9570 N   0  0  0  0  0  0  0  0  0  0  0  0
  -23.5540  -32.0120   23.6850 O   0  0  0  0  0  0  0  0  0  0  0  0
  -22.7610  -29.3690   22.3550 C   0  0  0  0  0  0  0  0  0  0  0  0
  -21.4390  -29.1590   22.2490 N   0  0  0  0  0  0  0  0  0  0  0  0
  -23.4770  -28.7240   23.1260 O   0  0  0  0  0  0  0  0  0  0  0  0
  -20.9210  -29.7360   21.6010 H   0  0  0  0  0  0  0  0  0  0  0  0
  -18.1050  -27.8460   22.7400 C   0  0  0  0  0  0  0  0  0  0  0  0
  -20.6580  -28.1720   22.9960 C   0  0  0  0  0  3  0  0  0  0  0  0
  -20.7980  -26.7640   22.3730 C   0  0  0  0  0  2  0  0  0  0  0  0
  -19.6950  -26.4430   21.3590 C   0  0  0  0  0  2  0  0  0  0  0  0
  -18.3160  -26.5250   22.0220 C   0  0  0  0  0  2  0  0  0  0  0  0
  -19.2060  -28.6260   23.1830 C   0  0  0  0  0  0  0  0  0  0  0  0
  -18.9540  -29.8640   23.8160 C   0  0  0  0  0  3  0  0  0  0  0  0
  -17.6370  -30.3190   24.0110 C   0  0  0  0  0  3  0  0  0  0  0  0
  -16.5510  -29.5340   23.5860 C   0  0  0  0  0  3  0  0  0  0  0  0
  -16.7870  -28.2990   22.9550 C   0  0  0  0  0  3  0  0  0  0  0  0
  -25.9190  -32.3920   23.6980 C   0  0  0  0  0  3  0  0  0  0  0  0
  -26.4760  -31.5760   24.9260 C   0  0  1  0  0  0  0  0  0  0  0  0
  -25.4190  -31.2950   26.0200 C   0  0  0  0  0  1  0  0  0  0  0  0
  -27.0480  -30.2170   24.4630 C   0  0  0  0  0  1  0  0  0  0  0  0
  -27.6490  -32.3470   25.5770 C   0  0  0  0  0  1  0  0  0  0  0  0
  -25.6160  -33.7760   24.0870 N   0  0  0  0  0  0  0  0  0  0  0  0
  -25.9310  -34.8550   23.3600 C   0  0  0  0  0  0  0  0  0  0  0  0
  -26.5810  -34.7920   22.3110 O   0  0  0  0  0  0  0  0  0  0  0  0
  -25.0390  -33.9010   24.9060 H   0  0  0  0  0  0  0  0  0  0  0  0
  -24.1940  -36.6570   23.0990 C   0  0  0  0  0  1  0  0  0  0  0  0
  -25.4490  -36.2260   23.8750 C   0  0  0  0  0  3  0  0  0  0  0  0
  -27.5950  -37.0840   24.7030 C   0  0  0  0  0  1  0  0  0  0  0  0
  -26.4790  -37.2850   23.7830 N   0  0  0  0  0  0  0  0  0  0  0  0
  -26.0750  -38.1980   23.9690 H   0  0  0  0  0  0  0  0  0  0  0  0
  1  2  2  0
  3  4  2  0
  3  5  1  0
  4  1  1  0
  5  2  1  0
  7 13  1  0
  7  6  1  0
  8  5  1  0
  8  7  1  0
  8  9  1  0
  9  6  1  0
  9 11  1  0
 10  9  1  0
 13 12  1  0
 13 22  1  0
 14 20  1  0
 14 22  1  0
 15 20  1  0
 16 17  1  0
 16 15  1  0
 18 17  1  0
 18 27  1  0
 18 19  1  0
 20 19  1  0
 21 14  2  0
 22 23  1  0
 24 25  2  0
 25 44  1  0
 26 25  1  0
 26 29  1  0
 27 28  1  0
 27 24  1  0
 28 26  2  0
 29 30  1  0
 30 31  2  0
 32 35  1  0
 32 31  1  0
 33 32  2  0
 34 33  1  0
 34 29  2  0
 35 36  1  0
 36 41  2  0
 36 37  1  0
 37 38  2  0
 38 39  1  0
 39 43  1  0
 40 39  2  0
 41 40  1  0
 42 41  1  0
 44 45  1  0
 45 48  1  0
 45 47  1  0
 46 44  2  0
 49 24  1  0
 49 50  1  0
 51 49  1  0
 54 53  1  6
 54  4  1  0
 54 55  1  0
 54 52  1  0
 56 58  1  0
 56 55  1  0
 57 68  2  0
 58 63  1  0
 59 67  1  0
 59 69  1  0
 60 66  1  0
 60 62  1  0
 61 67  1  0
 62 61  1  0
 63 62  2  0
 64 65  1  0
 64 58  2  0
 65 60  2  0
 66 59  1  0
 67 57  1  0
 69 71  2  0
 70 69  1  0
 72 70  1  0
 73 82  2  0
 73 78  1  0
 74 70  1  0
 74 78  1  0
 75 74  1  0
 76 77  1  0
 76 75  1  0
 77 73  1  0
 78 79  2  0
 79 80  1  0
 81 80  2  0
 82 81  1  0
 83 57  1  0
 83 88  1  0
 83 84  1  0
 84 87  1  1
 84 85  1  0
 86 84  1  0
 88 91  1  0
 89 93  1  0
 89 88  1  0
 90 89  2  0
 93 92  1  0
 95 93  1  0
 95 96  1  0
 95 94  1  0
M  ISO  4  14 100  22 100  55 101  56 101
M  END
>  <TORSDO>  (53) 
F 20

>  <SCORE>  (53) 
-12.926

>  <name>  (53) 
52

>  <ligand_id>  (53) 
52

>  <original_smiles>  (53) 
[H]c1c([H])c([H])c2c(c1[H])C([H])([H])C([H])([H])C([H])([H])C2([H])N([H])C(=O)C1([H])N(C(=O)C([H])(N([H])C(=O)C([H])(N([H])C([H])([H])[H])C([H])([H])[H])C(C([H])([H])[H])(C([H])([H])[H])C([H])([H])[H])C([H])([H])c2c([H])c(OC([H])([H])C(c3c([H])c([H])n(C4([H])C([H])(C([H])(N([H])C(=O)N5C([H])([H])C([H])([H])C([H])([H])C([H])(n6nc(-c7c([H])c([H])c(Oc8c([H])c([H])c(F)c([H])c8F)c([H])c7[H])c(C(=O)N([H])[H])c6N([H])[H])C5([H])[H])C([H])([H])[H])C([H])([H])[N+]4([H])[H])c3[H])(C([H])([H])[H])C([H])([H])[H])c([H])c([H])c2C1([H])[H]

>  <smiles>  (53) 
[H]c1c([H])c([H])c2c(c1[H])C([H])([H])C([H])([H])C([H])([H])C2([H])N([H])C(=O)C1([H])N(C(=O)C([H])(N([H])C(=O)C([H])(N([H])C([H])([H])[H])C([H])([H])[H])C(C([H])([H])[H])(C([H])([H])[H])C([H])([H])[H])C([H])([H])c2c([H])c(OC([H])([H])C(c3c([H])c([H])n(C4([H])C([H])(C([H])(N([H])C(=O)N5C([H])([H])C([H])([H])C([H])([H])C([H])(n6nc(-c7c([H])c([H])c(Oc8c([H])c([H])c(F)c([H])c8F)c([H])c7[H])c(C(=O)N([H])[H])c6N([H])[H])C5([H])[H])C([H])([H])[H])C([H])([H])[N+]4([H])[H])c3[H])(C([H])([H])[H])C([H])([H])[H])c([H])c([H])c2C1([H])[H]

$$$$
53:0:0
     RDKit          3D

 97107  0  0  1  0  0  0  0  0999 V2000
  -31.0860  -15.9000   20.8950 C   0  0  0  0  0  0  0  0  0  0  0  0
  -31.2090  -13.4660   19.9520 C   0  0  0  0  0  2  0  0  0  0  0  0
  -30.4150  -13.1630   18.6600 C   0  0  0  0  0  2  0  0  0  0  0  0
  -28.9410  -12.8420   18.9730 C   0  0  0  0  0  2  0  0  0  0  0  0
  -28.3410  -13.7890   20.0420 C   0  0  0  0  0  3  0  0  0  0  0  0
  -29.2900  -14.0270   21.2320 C   0  0  0  0  0  2  0  0  0  0  0  0
  -30.5210  -14.6090   20.6540 N   0  0  0  0  0  0  0  0  0  0  0  0
  -32.2960  -15.7930   21.1610 O   0  0  0  0  0  0  0  0  0  0  0  0
  -30.0840  -17.9470   16.7220 C   0  0  0  0  0  3  0  0  0  0  0  0
  -31.0940  -17.2040   16.0910 C   0  0  0  0  0  3  0  0  0  0  0  0
  -30.0240  -17.9280   18.1320 C   0  0  0  0  0  0  0  0  0  0  0  0
  -31.9980  -16.4890   16.8920 C   0  0  0  0  0  0  0  0  0  0  0  0
  -30.9170  -17.1450   18.8580 C   0  0  0  0  0  0  0  0  0  0  0  0
  -29.7610  -18.6440   20.4530 C   0  0  0  0  0  3  0  0  0  0  0  0
  -29.0610  -18.7000   19.0010 C   0  0  1  0  0  0  0  0  0  0  0  0
  -33.1300  -15.6940   16.2800 C   0  0  0  0  0  1  0  0  0  0  0  0
  -28.8270  -20.0830   18.3000 C   0  0  0  0  0  1  0  0  0  0  0  0
  -31.9090  -16.4600   18.2370 N   0  0  0  0  0  0  0  0  0  0  0  0
  -30.6360  -17.1850   20.2550 N   0  0  0  0  0  0  0  0  0  0  0  0
  -25.8830  -14.2380   20.5590 C   0  0  0  0  0  0  0  0  0  0  0  0
  -24.8190  -13.4220   20.8000 C   0  0  0  0  0  0  0  0  0  0  0  0
  -25.3510  -12.0980   20.8520 C   0  0  0  0  0  0  0  0  0  0  0  0
  -26.9880  -13.4160   20.4380 N   0  0  0  0  0  0  0  0  0  0  0  0
  -26.6710  -12.1200   20.6960 N   0  0  0  0  0  0  0  0  0  0  0  0
  -24.6630  -10.8100   20.9880 C   0  0  0  0  0  0  0  0  0  0  0  0
  -24.9700   -9.9170   22.0360 C   0  0  0  0  0  3  0  0  0  0  0  0
  -24.2760   -8.6950   22.1580 C   0  0  0  0  0  3  0  0  0  0  0  0
  -23.2610   -8.3590   21.2300 C   0  0  0  0  0  0  0  0  0  0  0  0
  -22.9740   -9.2440   20.1760 C   0  0  0  0  0  3  0  0  0  0  0  0
  -23.6690  -10.4570   20.0530 C   0  0  0  0  0  3  0  0  0  0  0  0
  -22.5530   -7.1830   21.2550 O   0  0  0  0  0  0  0  0  0  0  0  0
  -22.2180   -6.5710   22.4360 C   0  0  0  0  0  0  0  0  0  0  0  0
  -21.4770   -7.2370   23.4370 C   0  0  0  0  0  3  0  0  0  0  0  0
  -21.0940   -6.5490   24.6050 C   0  0  0  0  0  3  0  0  0  0  0  0
  -21.4410   -5.1940   24.7700 C   0  0  0  0  0  0  0  0  0  0  0  0
  -22.1760   -4.5290   23.7740 C   0  0  0  0  0  3  0  0  0  0  0  0
  -22.5600   -5.2140   22.6080 C   0  0  0  0  0  0  0  0  0  0  0  0
  -23.2480   -4.5620   21.6400 F   0  0  0  0  0  0  0  0  0  0  0  0
  -21.0660   -4.5290   25.8880 F   0  0  0  0  0  0  0  0  0  0  0  0
  -23.3810  -13.8450   20.8850 C   0  0  0  0  0  0  0  0  0  0  0  0
  -22.5900  -13.1630   21.7040 N   0  0  0  0  0  0  0  0  0  0  0  0
  -22.9620  -14.8190   20.2610 O   0  0  0  0  0  0  0  0  0  0  0  0
  -22.9400  -12.3800   22.2370 H   0  0  0  0  0  0  0  0  0  0  0  0
  -21.6210  -13.4270   21.8050 H   0  0  0  0  0  0  0  0  0  0  0  0
  -25.9890  -15.6080   20.4140 N   0  0  0  0  0  0  0  0  0  0  0  0
  -25.1790  -16.2150   20.4720 H   0  0  0  0  0  0  0  0  0  0  0  0
  -26.8500  -16.1050   20.2410 H   0  0  0  0  0  0  0  0  0  0  0  0
  -30.1950  -20.3270   20.7940 C   0  0  0  0  0  0  0  0  0  0  0  0
  -29.3980  -21.5920   20.7180 N   0  0  0  0  0  0  0  0  0  0  0  0
  -31.3670  -20.4730   21.1420 O   0  0  0  0  0  0  0  0  0  0  0  0
  -28.4430  -21.3910   20.4530 H   0  0  0  0  0  0  0  0  0  0  0  0
  -29.6210  -23.2500   20.8930 C   0  0  0  0  0  3  0  0  0  0  0  0
  -28.6030  -24.7130   20.5340 C   0  0  0  0  0  3  0  0  0  0  0  0
  -28.7820  -26.3550   20.7120 O   0  0  0  0  0  0  0  0  0  0  0  0
  -25.0740  -32.2450   23.7090 C   0  0  0  0  0  0  0  0  0  0  0  0
  -27.7410  -27.4290   20.6620 C   0  0  0  0  0  0  0  0  0  0  0  0
  -23.9190  -30.8500   22.0410 C   0  0  0  0  0  3  0  0  0  0  0  0
  -25.4060  -29.2750   20.6230 C   0  0  0  0  0  0  0  0  0  0  0  0
  -26.4850  -31.0950   21.9260 C   0  0  0  0  0  2  0  0  0  0  0  0
  -26.5820  -29.6910   21.2590 C   0  0  0  0  0  0  0  0  0  0  0  0
  -27.7420  -28.7910   21.2530 C   0  0  0  0  0  3  0  0  0  0  0  0
  -26.5270  -27.1620   19.9890 C   0  0  0  0  0  3  0  0  0  0  0  0
  -25.4030  -28.0310   19.9690 C   0  0  0  0  0  3  0  0  0  0  0  0
  -24.1760  -30.1800   20.6620 C   0  0  0  0  0  2  0  0  0  0  0  0
  -25.1800  -31.4230   22.6140 N   0  0  0  0  0  0  0  0  0  0  0  0
  -23.9740  -32.5160   24.2180 O   0  0  0  0  0  0  0  0  0  0  0  0
  -23.2220  -29.8390   22.9890 C   0  0  0  0  0  0  0  0  0  0  0  0
  -21.9550  -29.4860   22.7020 N   0  0  0  0  0  0  0  0  0  0  0  0
  -23.8320  -29.3700   23.9520 O   0  0  0  0  0  0  0  0  0  0  0  0
  -21.5100  -29.9190   21.9040 H   0  0  0  0  0  0  0  0  0  0  0  0
  -18.6990  -27.8960   22.8890 C   0  0  0  0  0  0  0  0  0  0  0  0
  -21.1550  -28.4980   23.4350 C   0  0  0  0  0  3  0  0  0  0  0  0
  -21.4970  -27.0590   22.9800 C   0  0  0  0  0  2  0  0  0  0  0  0
  -20.5780  -26.5430   21.8690 C   0  0  0  0  0  2  0  0  0  0  0  0
  -19.1190  -26.5460   22.3330 C   0  0  0  0  0  2  0  0  0  0  0  0
  -19.6550  -28.8180   23.3910 C   0  0  0  0  0  0  0  0  0  0  0  0
  -19.2100  -30.0690   23.8700 C   0  0  0  0  0  3  0  0  0  0  0  0
  -17.8440  -30.4050   23.8510 C   0  0  0  0  0  3  0  0  0  0  0  0
  -16.9010  -29.4830   23.3630 C   0  0  0  0  0  3  0  0  0  0  0  0
  -17.3280  -28.2300   22.8880 C   0  0  0  0  0  3  0  0  0  0  0  0
  -26.3280  -32.8980   24.3670 C   0  0  0  0  0  3  0  0  0  0  0  0
  -26.8120  -32.1350   25.6620 C   0  0  1  0  0  0  0  0  0  0  0  0
  -25.6680  -31.7720   26.6370 C   0  0  0  0  0  1  0  0  0  0  0  0
  -27.5430  -30.8240   25.2920 C   0  0  0  0  0  1  0  0  0  0  0  0
  -27.8380  -33.0040   26.4280 C   0  0  0  0  0  1  0  0  0  0  0  0
  -25.9930  -34.2950   24.6980 N   0  0  0  0  0  0  0  0  0  0  0  0
  -26.2740  -35.3550   23.9290 C   0  0  0  0  0  0  0  0  0  0  0  0
  -26.9040  -35.2600   22.8720 O   0  0  0  0  0  0  0  0  0  0  0  0
  -25.4270  -34.4390   25.5220 H   0  0  0  0  0  0  0  0  0  0  0  0
  -24.4870  -37.1100   23.6600 C   0  0  0  0  0  1  0  0  0  0  0  0
  -25.7810  -36.7380   24.4030 C   0  0  0  0  0  3  0  0  0  0  0  0
  -27.9410  -37.6790   25.0980 C   0  0  0  0  0  1  0  0  0  0  0  0
  -26.7800  -37.8150   24.2210 N   0  0  0  0  0  0  0  0  0  0  0  0
  -26.3640  -38.7280   24.3860 H   0  0  0  0  0  0  0  0  0  0  0  0
  -26.4260  -18.5010   19.4950 C   0  0  0  0  0  2  0  0  0  0  0  0
  -26.6180  -18.0730   18.0580 C   0  0  0  0  0  2  0  0  0  0  0  0
  -27.7540  -17.9110   19.0490 C   0  0  0  0  0  3  0  0  0  0  0  0
  1  8  2  0
  2  7  1  0
  3  4  1  0
  3  2  1  0
  5  4  1  0
  5 23  1  0
  5  6  1  0
  7  1  1  0
  7  6  1  0
  9 11  1  0
 10  9  2  0
 10 12  1  0
 11 13  2  0
 11 15  1  0
 12 18  2  0
 13 19  1  0
 14 48  1  0
 15 17  1  6
 15 97  1  0
 15 14  1  0
 16 12  1  0
 18 13  1  0
 19 14  1  0
 19  1  1  0
 20 21  2  0
 21 22  1  0
 21 40  1  0
 22 25  1  0
 23 20  1  0
 23 24  1  0
 24 22  2  0
 25 26  1  0
 26 27  2  0
 28 31  1  0
 28 27  1  0
 29 28  2  0
 30 29  1  0
 30 25  2  0
 31 32  1  0
 32 37  2  0
 32 33  1  0
 33 34  2  0
 34 35  1  0
 35 39  1  0
 36 35  2  0
 37 36  1  0
 38 37  1  0
 40 41  1  0
 41 44  1  0
 41 43  1  0
 42 40  2  0
 45 46  1  0
 45 20  1  0
 47 45  1  0
 48 50  2  0
 49 48  1  0
 49 52  1  0
 51 49  1  0
 53 54  1  0
 53 52  2  0
 55 66  2  0
 56 54  1  0
 56 61  1  0
 57 65  1  0
 57 67  1  0
 58 64  1  0
 58 60  1  0
 59 65  1  0
 60 59  1  0
 61 60  2  0
 62 56  2  0
 63 62  1  0
 63 58  2  0
 64 57  1  0
 65 55  1  0
 67 69  2  0
 68 67  1  0
 70 68  1  0
 71 76  1  0
 72 68  1  0
 73 72  1  0
 74 75  1  0
 74 73  1  0
 75 71  1  0
 76 72  1  0
 76 77  2  0
 78 77  1  0
 79 78  2  0
 80 71  2  0
 80 79  1  0
 81 55  1  0
 81 86  1  0
 81 82  1  0
 82 85  1  1
 82 83  1  0
 84 82  1  0
 86 89  1  0
 87 91  1  0
 87 86  1  0
 88 87  2  0
 91 90  1  0
 93 94  1  0
 93 91  1  0
 93 92  1  0
 96 97  1  0
 96 95  1  0
 97 95  1  0
M  ISO  4   1 100  19 100  53 101  54 101
M  END
>  <TORSDO>  (54) 
F 19

>  <SCORE>  (54) 
-12.058

>  <name>  (54) 
53

>  <ligand_id>  (54) 
53

>  <original_smiles>  (54) 
[H]c1c(C([H])([H])[H])nc2c(c1[H])C(C([H])([H])[H])(C1([H])C([H])([H])C1([H])[H])C([H])(C(=O)N([H])C([H])([H])C([H])([H])Oc1c([H])c([H])c3c(c1[H])C([H])([H])N(C(=O)C([H])(N([H])C(=O)C([H])(N([H])C([H])([H])[H])C([H])([H])[H])C(C([H])([H])[H])(C([H])([H])[H])C([H])([H])[H])C([H])(C(=O)N([H])C1([H])c4c([H])c([H])c([H])c([H])c4C([H])([H])C([H])([H])C1([H])[H])C3([H])[H])N2C(=O)N1C([H])([H])C([H])([H])C([H])([H])C([H])(n2nc(-c3c([H])c([H])c(Oc4c([H])c([H])c(F)c([H])c4F)c([H])c3[H])c(C(=O)N([H])[H])c2N([H])[H])C1([H])[H]

>  <smiles>  (54) 
[H]c1c(C([H])([H])[H])nc2c(c1[H])C(C([H])([H])[H])(C1([H])C([H])([H])C1([H])[H])C([H])(C(=O)N([H])C([H])([H])C([H])([H])Oc1c([H])c([H])c3c(c1[H])C([H])([H])N(C(=O)C([H])(N([H])C(=O)C([H])(N([H])C([H])([H])[H])C([H])([H])[H])C(C([H])([H])[H])(C([H])([H])[H])C([H])([H])[H])C([H])(C(=O)N([H])C1([H])c4c([H])c([H])c([H])c([H])c4C([H])([H])C([H])([H])C1([H])[H])C3([H])[H])N2C(=O)N1C([H])([H])C([H])([H])C([H])([H])C([H])(n2nc(-c3c([H])c([H])c(Oc4c([H])c([H])c(F)c([H])c4F)c([H])c3[H])c(C(=O)N([H])[H])c2N([H])[H])C1([H])[H]

$$$$
54:0:0
     RDKit          3D

 88 97  0  0  1  0  0  0  0  0999 V2000
  -30.8160  -15.5710   19.7950 C   0  0  0  0  0  0  0  0  0  0  0  0
  -30.8080  -13.0260   19.1270 C   0  0  0  0  0  2  0  0  0  0  0  0
  -29.8680  -12.6460   17.9510 C   0  0  0  0  0  2  0  0  0  0  0  0
  -28.4380  -12.3830   18.4490 C   0  0  0  0  0  2  0  0  0  0  0  0
  -27.9960  -13.4380   19.4880 C   0  0  0  0  0  3  0  0  0  0  0  0
  -29.0670  -13.7060   20.5670 C   0  0  0  0  0  2  0  0  0  0  0  0
  -30.2550  -14.2400   19.8640 N   0  0  0  0  0  0  0  0  0  0  0  0
  -32.0110  -15.5000   19.4560 O   0  0  0  0  0  0  0  0  0  0  0  0
  -28.5660  -21.1170   21.4410 C   0  0  0  0  0  3  0  0  0  0  0  0
  -28.5330  -22.3890   20.7850 C   0  0  0  0  0  3  0  0  0  0  0  0
  -29.0840  -19.9210   20.8610 C   0  0  0  0  0  0  0  0  0  0  0  0
  -29.6250  -19.9710   19.5790 C   0  0  0  0  0  0  0  0  0  0  0  0
  -29.0030  -22.6030   19.4680 C   0  0  0  0  0  0  0  0  0  0  0  0
  -29.1280  -18.5820   21.6400 C   0  0  0  0  0  3  0  0  0  0  0  0
  -30.2910  -18.4240   19.1210 C   0  0  0  0  0  3  0  0  0  0  0  0
  -29.0630  -17.2020   20.8590 C   0  0  0  0  0  3  0  0  0  0  0  0
  -29.5410  -21.3160   18.9200 N   0  0  0  0  0  2  0  0  0  0  0  0
  -30.1040  -16.9210   19.8370 N   0  0  0  0  0  0  0  0  0  0  0  0
  -25.7160  -14.0750   20.4220 C   0  0  0  0  0  0  0  0  0  0  0  0
  -24.6290  -13.3380   20.7990 C   0  0  0  0  0  0  0  0  0  0  0  0
  -25.0060  -11.9680   20.6440 C   0  0  0  0  0  0  0  0  0  0  0  0
  -26.6850  -13.1590   20.0540 N   0  0  0  0  0  0  0  0  0  0  0  0
  -26.2730  -11.8800   20.2530 N   0  0  0  0  0  0  0  0  0  0  0  0
  -24.2080  -10.7420   20.7850 C   0  0  0  0  0  0  0  0  0  0  0  0
  -24.6670   -9.6440   21.5440 C   0  0  0  0  0  3  0  0  0  0  0  0
  -23.8700   -8.4870   21.6840 C   0  0  0  0  0  3  0  0  0  0  0  0
  -22.6000   -8.4210   21.0630 C   0  0  0  0  0  0  0  0  0  0  0  0
  -22.1580   -9.5070   20.2880 C   0  0  0  0  0  3  0  0  0  0  0  0
  -22.9540  -10.6560   20.1460 C   0  0  0  0  0  3  0  0  0  0  0  0
  -21.7690   -7.3280   21.1220 O   0  0  0  0  0  0  0  0  0  0  0  0
  -21.8700   -6.4000   22.1280 C   0  0  0  0  0  0  0  0  0  0  0  0
  -21.7330   -6.7570   23.4870 C   0  0  0  0  0  3  0  0  0  0  0  0
  -21.7740   -5.7620   24.4840 C   0  0  0  0  0  3  0  0  0  0  0  0
  -21.9410   -4.4120   24.1250 C   0  0  0  0  0  0  0  0  0  0  0  0
  -22.0720   -4.0530   22.7720 C   0  0  0  0  0  3  0  0  0  0  0  0
  -22.0330   -5.0450   21.7760 C   0  0  0  0  0  0  0  0  0  0  0  0
  -22.1370   -4.6920   20.4730 F   0  0  0  0  0  0  0  0  0  0  0  0
  -21.9740   -3.4550   25.0810 F   0  0  0  0  0  0  0  0  0  0  0  0
  -23.2830  -13.8780   21.1820 C   0  0  0  0  0  0  0  0  0  0  0  0
  -22.5620  -13.1730   22.0440 N   0  0  0  0  0  0  0  0  0  0  0  0
  -22.8850  -14.9610   20.7520 O   0  0  0  0  0  0  0  0  0  0  0  0
  -22.9000  -12.2960   22.4120 H   0  0  0  0  0  0  0  0  0  0  0  0
  -21.6590  -13.5130   22.3430 H   0  0  0  0  0  0  0  0  0  0  0  0
  -25.9550  -15.4430   20.3290 N   0  0  0  0  0  0  0  0  0  0  0  0
  -25.2320  -16.1290   20.5180 H   0  0  0  0  0  0  0  0  0  0  0  0
  -26.7970  -15.8470   19.9410 H   0  0  0  0  0  0  0  0  0  0  0  0
  -28.6010  -24.1820   18.7040 C   0  0  0  0  0  2  0  0  0  0  0  0
  -28.6200  -25.8210   19.1350 O   0  0  0  0  0  0  0  0  0  0  0  0
  -24.6390  -31.2650   22.6840 C   0  0  0  0  0  0  0  0  0  0  0  0
  -27.5400  -26.8900   19.1410 C   0  0  0  0  0  0  0  0  0  0  0  0
  -23.5360  -29.9330   20.9320 C   0  0  0  0  0  3  0  0  0  0  0  0
  -25.0880  -28.6080   19.3250 C   0  0  0  0  0  0  0  0  0  0  0  0
  -26.0750  -30.3660   20.7740 C   0  0  0  0  0  2  0  0  0  0  0  0
  -26.2520  -29.0340   19.9730 C   0  0  0  0  0  0  0  0  0  0  0  0
  -27.4630  -28.1960   19.8640 C   0  0  0  0  0  3  0  0  0  0  0  0
  -26.3330  -26.6490   18.4440 C   0  0  0  0  0  3  0  0  0  0  0  0
  -25.1560  -27.4450   18.5400 C   0  0  0  0  0  3  0  0  0  0  0  0
  -23.7940  -29.4120   19.4900 C   0  0  0  0  0  2  0  0  0  0  0  0
  -24.7700  -30.5480   21.5180 N   0  0  0  0  0  0  0  0  0  0  0  0
  -23.5400  -31.4030   23.2470 O   0  0  0  0  0  0  0  0  0  0  0  0
  -22.9520  -28.7920   21.8080 C   0  0  0  0  0  0  0  0  0  0  0  0
  -21.6320  -28.5430   21.7140 N   0  0  0  0  0  0  0  0  0  0  0  0
  -23.6940  -28.1340   22.5410 O   0  0  0  0  0  0  0  0  0  0  0  0
  -21.0780  -29.1300   21.1050 H   0  0  0  0  0  0  0  0  0  0  0  0
  -18.3770  -27.0040   22.1870 C   0  0  0  0  0  0  0  0  0  0  0  0
  -20.9140  -27.4650   22.4060 C   0  0  0  0  0  3  0  0  0  0  0  0
  -21.1130  -26.1120   21.6850 C   0  0  0  0  0  2  0  0  0  0  0  0
  -20.0080  -25.8010   20.6710 C   0  0  0  0  0  2  0  0  0  0  0  0
  -18.6430  -25.7550   21.3640 C   0  0  0  0  0  2  0  0  0  0  0  0
  -19.4420  -27.8160   22.6630 C   0  0  0  0  0  0  0  0  0  0  0  0
  -19.1370  -28.9810   23.3980 C   0  0  0  0  0  3  0  0  0  0  0  0
  -17.8000  -29.3400   23.6570 C   0  0  0  0  0  3  0  0  0  0  0  0
  -16.7510  -28.5280   23.1930 C   0  0  0  0  0  3  0  0  0  0  0  0
  -17.0400  -27.3600   22.4650 C   0  0  0  0  0  3  0  0  0  0  0  0
  -25.8590  -31.9600   23.3590 C   0  0  0  0  0  3  0  0  0  0  0  0
  -25.4140  -33.2700   23.8700 N   0  0  0  0  0  0  0  0  0  0  0  0
  -25.6930  -34.4510   23.3030 C   0  0  0  0  0  0  0  0  0  0  0  0
  -26.4100  -34.5580   22.3050 O   0  0  0  0  0  0  0  0  0  0  0  0
  -24.7770  -33.2550   24.6520 H   0  0  0  0  0  0  0  0  0  0  0  0
  -23.8370  -36.1480   23.1480 C   0  0  0  0  0  1  0  0  0  0  0  0
  -25.0810  -35.7170   23.9410 C   0  0  0  0  0  3  0  0  0  0  0  0
  -27.1050  -36.6300   24.9910 C   0  0  0  0  0  1  0  0  0  0  0  0
  -26.0280  -36.8500   24.0300 N   0  0  0  0  0  0  0  0  0  0  0  0
  -25.5430  -37.7060   24.2860 H   0  0  0  0  0  0  0  0  0  0  0  0
  -26.4840  -31.1080   24.5330 C   0  0  1  0  0  0  0  0  0  0  0  0
  -25.4520  -30.6620   25.5960 C   0  0  0  0  0  1  0  0  0  0  0  0
  -27.1730  -29.8360   23.9900 C   0  0  0  0  0  1  0  0  0  0  0  0
  -27.5810  -31.9290   25.2500 C   0  0  0  0  0  1  0  0  0  0  0  0
  1 18  1  0
  1  7  1  0
  2  7  1  0
  3  4  1  0
  3  2  1  0
  5  4  1  0
  5 22  1  0
  5  6  1  0
  7  6  1  0
  8  1  2  0
 10  9  1  0
 11  9  2  0
 11 14  1  0
 12 11  1  0
 13 10  2  0
 15 12  2  0
 15 18  1  0
 16 14  2  0
 17 13  1  0
 17 12  1  0
 18 16  1  0
 19 20  2  0
 20 39  1  0
 21 24  1  0
 21 20  1  0
 22 23  1  0
 22 19  1  0
 23 21  2  0
 24 25  1  0
 25 26  2  0
 27 30  1  0
 27 26  1  0
 28 27  2  0
 29 28  1  0
 29 24  2  0
 30 31  1  0
 31 32  1  0
 32 33  2  0
 34 33  1  0
 34 38  1  0
 35 34  2  0
 36 31  2  0
 36 35  1  0
 37 36  1  0
 39 40  1  0
 40 43  1  0
 40 42  1  0
 41 39  2  0
 44 19  1  0
 44 45  1  0
 46 44  1  0
 47 48  1  0
 47 13  1  0
 48 50  1  0
 49 60  2  0
 50 55  1  0
 51 59  1  0
 51 61  1  0
 52 58  1  0
 52 54  1  0
 53 59  1  0
 54 53  1  0
 55 54  2  0
 56 57  1  0
 56 50  2  0
 57 52  2  0
 58 51  1  0
 59 49  1  0
 61 63  2  0
 62 61  1  0
 64 62  1  0
 65 74  2  0
 65 70  1  0
 66 62  1  0
 66 70  1  0
 67 66  1  0
 68 69  1  0
 68 67  1  0
 69 65  1  0
 70 71  2  0
 71 72  1  0
 73 72  2  0
 74 73  1  0
 75 49  1  0
 75 76  1  0
 75 85  1  0
 76 79  1  0
 77 76  1  0
 77 81  1  0
 78 77  2  0
 81 80  1  0
 81 83  1  0
 83 84  1  0
 83 82  1  0
 85 88  1  1
 85 86  1  0
 87 85  1  0
M  ISO  4   1 100  18 100  47 101  48 101
M  END
>  <TORSDO>  (55) 
F 16

>  <SCORE>  (55) 
-12.825

>  <name>  (55) 
54

>  <ligand_id>  (55) 
54

>  <original_smiles>  (55) 
[H]c1c(C([H])([H])Oc2c([H])c([H])c3c(c2[H])C([H])([H])N(C(=O)C([H])(N([H])C(=O)C([H])(N([H])C([H])([H])[H])C([H])([H])[H])C(C([H])([H])[H])(C([H])([H])[H])C([H])([H])[H])C([H])(C(=O)N([H])C2([H])c4c([H])c([H])c([H])c([H])c4C([H])([H])C([H])([H])C2([H])[H])C3([H])[H])nc2c(c1[H])C([H])([H])C([H])([H])N(C(=O)N1C([H])([H])C([H])([H])C([H])([H])C([H])(n3nc(-c4c([H])c([H])c(Oc5c([H])c([H])c(F)c([H])c5F)c([H])c4[H])c(C(=O)N([H])[H])c3N([H])[H])C1([H])[H])C2([H])[H]

>  <smiles>  (55) 
[H]c1c(C([H])([H])Oc2c([H])c([H])c3c(c2[H])C([H])([H])N(C(=O)C([H])(N([H])C(=O)C([H])(N([H])C([H])([H])[H])C([H])([H])[H])C(C([H])([H])[H])(C([H])([H])[H])C([H])([H])[H])C([H])(C(=O)N([H])C2([H])c4c([H])c([H])c([H])c([H])c4C([H])([H])C([H])([H])C2([H])[H])C3([H])[H])nc2c(c1[H])C([H])([H])C([H])([H])N(C(=O)N1C([H])([H])C([H])([H])C([H])([H])C([H])(n3nc(-c4c([H])c([H])c(Oc5c([H])c([H])c(F)c([H])c5F)c([H])c4[H])c(C(=O)N([H])[H])c3N([H])[H])C1([H])[H])C2([H])[H]

$$$$
55:0:0
     RDKit          3D

 93102  0  0  1  0  0  0  0  0999 V2000
  -30.2250  -22.6670   18.7210 C   0  0  0  0  0  0  0  0  0  0  0  0
  -28.8290  -23.5960   20.2020 C   0  0  0  0  0  0  0  0  0  0  0  0
  -29.2940  -21.3100   20.2150 C   0  0  0  0  0  0  0  0  0  0  0  0
  -29.6340  -23.7790   19.1600 N   0  0  0  0  0  4  0  0  0  0  0  0
  -30.0800  -21.4200   19.1660 N   0  0  0  0  0  0  0  0  0  0  0  0
  -28.6420  -22.3610   20.7850 N   0  0  0  0  0  2  0  0  0  0  0  0
  -29.2120  -19.9870   20.7740 N   0  0  0  0  0  0  0  0  0  0  0  0
  -28.6470  -19.9590   21.6150 H   0  0  0  0  0  0  0  0  0  0  0  0
  -32.6040  -22.3220   17.6900 C   0  0  0  0  0  2  0  0  0  0  0  0
  -32.3460  -23.8020   17.6880 C   0  0  0  0  0  2  0  0  0  0  0  0
  -31.1810  -22.8380   17.5800 C   0  0  0  0  0  3  0  0  0  0  0  0
  -28.0280  -24.8970   20.7110 C   0  0  0  0  0  2  0  0  0  0  0  0
  -28.3050  -26.3180   20.2310 O   0  0  0  0  0  0  0  0  0  0  0  0
  -24.6280  -31.8760   23.2270 C   0  0  0  0  0  0  0  0  0  0  0  0
  -27.2250  -27.2410   20.2030 C   0  0  0  0  0  0  0  0  0  0  0  0
  -23.4280  -30.4790   21.5870 C   0  0  0  0  0  3  0  0  0  0  0  0
  -24.8800  -28.9150   20.1670 C   0  0  0  0  0  0  0  0  0  0  0  0
  -25.9740  -30.7720   21.4170 C   0  0  0  0  0  2  0  0  0  0  0  0
  -26.0530  -29.3850   20.7720 C   0  0  0  0  0  0  0  0  0  0  0  0
  -27.2310  -28.5630   20.7750 C   0  0  0  0  0  3  0  0  0  0  0  0
  -26.0320  -26.8510   19.5580 C   0  0  0  0  0  3  0  0  0  0  0  0
  -24.8760  -27.6560   19.5470 C   0  0  0  0  0  3  0  0  0  0  0  0
  -23.6480  -29.8000   20.2090 C   0  0  0  0  0  2  0  0  0  0  0  0
  -24.6970  -31.0620   22.1320 N   0  0  0  0  0  0  0  0  0  0  0  0
  -23.5440  -32.1570   23.7570 O   0  0  0  0  0  0  0  0  0  0  0  0
  -22.7570  -29.4670   22.5470 C   0  0  0  0  0  0  0  0  0  0  0  0
  -21.4290  -29.2930   22.4200 N   0  0  0  0  0  0  0  0  0  0  0  0
  -23.4300  -28.8400   23.3700 O   0  0  0  0  0  0  0  0  0  0  0  0
  -20.9430  -29.8510   21.7330 H   0  0  0  0  0  0  0  0  0  0  0  0
  -18.0480  -28.1040   22.9230 C   0  0  0  0  0  0  0  0  0  0  0  0
  -20.6070  -28.3590   23.1920 C   0  0  0  0  0  3  0  0  0  0  0  0
  -20.7050  -26.9260   22.6200 C   0  0  0  0  0  2  0  0  0  0  0  0
  -19.6040  -26.6050   21.6040 C   0  0  0  0  0  2  0  0  0  0  0  0
  -18.2220  -26.7540   22.2470 C   0  0  0  0  0  2  0  0  0  0  0  0
  -19.1680  -28.8640   23.3520 C   0  0  0  0  0  0  0  0  0  0  0  0
  -18.9500  -30.1270   23.9450 C   0  0  0  0  0  3  0  0  0  0  0  0
  -17.6470  -30.6310   24.1110 C   0  0  0  0  0  3  0  0  0  0  0  0
  -16.5410  -29.8670   23.6960 C   0  0  0  0  0  3  0  0  0  0  0  0
  -16.7420  -28.6060   23.1080 C   0  0  0  0  0  3  0  0  0  0  0  0
  -25.9090  -32.5100   23.8530 C   0  0  0  0  0  3  0  0  0  0  0  0
  -26.4230  -31.7370   25.1300 C   0  0  1  0  0  0  0  0  0  0  0  0
  -25.3290  -31.5030   26.1980 C   0  0  0  0  0  1  0  0  0  0  0  0
  -27.0030  -30.3580   24.7420 C   0  0  0  0  0  1  0  0  0  0  0  0
  -27.5750  -32.5300   25.7930 C   0  0  0  0  0  1  0  0  0  0  0  0
  -25.5970  -33.9070   24.1880 N   0  0  0  0  0  0  0  0  0  0  0  0
  -25.9190  -34.9640   23.4290 C   0  0  0  0  0  0  0  0  0  0  0  0
  -26.5790  -34.8650   22.3910 O   0  0  0  0  0  0  0  0  0  0  0  0
  -25.0090  -34.0580   24.9950 H   0  0  0  0  0  0  0  0  0  0  0  0
  -24.1830  -36.7550   23.1000 C   0  0  0  0  0  1  0  0  0  0  0  0
  -25.4340  -36.3500   23.8960 C   0  0  0  0  0  3  0  0  0  0  0  0
  -27.5760  -37.2390   24.7050 C   0  0  0  0  0  1  0  0  0  0  0  0
  -26.4620  -37.4060   23.7740 N   0  0  0  0  0  0  0  0  0  0  0  0
  -26.0550  -38.3240   23.9290 H   0  0  0  0  0  0  0  0  0  0  0  0
  -29.3780  -18.6200   20.1050 C   0  0  0  0  0  2  0  0  0  0  0  0
  -30.1390  -17.3970   20.8720 C   0  0  0  0  0  2  0  0  0  0  0  0
  -30.5540  -14.7930   20.4010 C   0  0  0  0  0  0  0  0  0  0  0  0
  -30.3860  -12.5120   19.3700 C   0  0  0  0  0  2  0  0  0  0  0  0
  -29.4480  -12.5640   18.1440 C   0  0  0  0  0  2  0  0  0  0  0  0
  -27.9790  -12.3760   18.5700 C   0  0  0  0  0  2  0  0  0  0  0  0
  -27.5930  -13.2590   19.7870 C   0  0  0  0  0  3  0  0  0  0  0  0
  -28.6490  -13.1830   20.9090 C   0  0  0  0  0  2  0  0  0  0  0  0
  -29.9380  -13.5610   20.3150 N   0  0  0  0  0  0  0  0  0  0  0  0
  -31.7480  -14.8970   20.1080 O   0  0  0  0  0  0  0  0  0  0  0  0
  -29.7700  -15.9220   20.6290 N   0  0  0  0  0  0  0  0  0  0  0  0
  -28.7920  -15.7100   20.7690 H   0  0  0  0  0  0  0  0  0  0  0  0
  -25.1990  -13.8330   20.5050 C   0  0  0  0  0  0  0  0  0  0  0  0
  -24.1390  -13.0530   20.8750 C   0  0  0  0  0  0  0  0  0  0  0  0
  -24.6130  -11.7060   20.8560 C   0  0  0  0  0  0  0  0  0  0  0  0
  -26.2500  -12.9610   20.2760 N   0  0  0  0  0  0  0  0  0  0  0  0
  -25.9060  -11.6760   20.5520 N   0  0  0  0  0  0  0  0  0  0  0  0
  -23.8960  -10.4380   21.0500 C   0  0  0  0  0  0  0  0  0  0  0  0
  -24.3390   -9.4730   21.9810 C   0  0  0  0  0  3  0  0  0  0  0  0
  -23.6210   -8.2720   22.1630 C   0  0  0  0  0  3  0  0  0  0  0  0
  -22.4450   -8.0270   21.4140 C   0  0  0  0  0  0  0  0  0  0  0  0
  -22.0210   -8.9810   20.4730 C   0  0  0  0  0  3  0  0  0  0  0  0
  -22.7390  -10.1740   20.2880 C   0  0  0  0  0  3  0  0  0  0  0  0
  -21.6980   -6.8770   21.5070 O   0  0  0  0  0  0  0  0  0  0  0  0
  -21.6700   -6.1280   22.6550 C   0  0  0  0  0  0  0  0  0  0  0  0
  -21.2660   -6.6730   23.8920 C   0  0  0  0  0  3  0  0  0  0  0  0
  -21.1850   -5.8480   25.0320 C   0  0  0  0  0  3  0  0  0  0  0  0
  -21.4990   -4.4790   24.9360 C   0  0  0  0  0  0  0  0  0  0  0  0
  -21.8990   -3.9330   23.7030 C   0  0  0  0  0  3  0  0  0  0  0  0
  -21.9810   -4.7550   22.5660 C   0  0  0  0  0  0  0  0  0  0  0  0
  -22.3440   -4.2200   21.3750 F   0  0  0  0  0  0  0  0  0  0  0  0
  -21.4160   -3.6850   26.0290 F   0  0  0  0  0  0  0  0  0  0  0  0
  -22.7360  -13.5210   21.1340 C   0  0  0  0  0  0  0  0  0  0  0  0
  -22.0070  -12.8260   22.0000 N   0  0  0  0  0  0  0  0  0  0  0  0
  -22.2930  -14.5400   20.6030 O   0  0  0  0  0  0  0  0  0  0  0  0
  -22.3790  -12.0040   22.4540 H   0  0  0  0  0  0  0  0  0  0  0  0
  -21.0640  -13.1180   22.2130 H   0  0  0  0  0  0  0  0  0  0  0  0
  -25.3510  -15.2040   20.3170 N   0  0  0  0  0  0  0  0  0  0  0  0
  -24.5720  -15.8470   20.4130 H   0  0  0  0  0  0  0  0  0  0  0  0
  -26.1840  -15.6470   19.9520 H   0  0  0  0  0  0  0  0  0  0  0  0
  1  4  2  0
  1  5  1  0
  2 12  1  0
  2  6  1  0
  3  7  1  0
  3  6  1  0
  4  2  2  0
  5  3  2  0
  7  8  1  0
 10  9  1  0
 11 10  1  0
 11  9  1  0
 11  1  1  0
 13 12  1  0
 14 25  2  0
 15 13  1  0
 15 20  1  0
 16 24  1  0
 16 26  1  0
 17 23  1  0
 17 19  1  0
 18 24  1  0
 19 20  2  0
 19 18  1  0
 21 15  2  0
 22 21  1  0
 22 17  2  0
 23 16  1  0
 24 14  1  0
 26 28  2  0
 27 26  1  0
 29 27  1  0
 30 39  2  0
 30 35  1  0
 31 27  1  0
 31 35  1  0
 32 31  1  0
 33 34  1  0
 33 32  1  0
 34 30  1  0
 35 36  2  0
 36 37  1  0
 38 37  2  0
 39 38  1  0
 40 14  1  0
 40 45  1  0
 40 41  1  0
 41 44  1  1
 41 42  1  0
 43 41  1  0
 45 48  1  0
 46 50  1  0
 46 45  1  0
 47 46  2  0
 50 49  1  0
 52 50  1  0
 52 53  1  0
 52 51  1  0
 54  7  1  0
 54 55  1  0
 56 64  1  0
 57 62  1  0
 58 59  1  0
 58 57  1  0
 60 59  1  0
 60 69  1  0
 60 61  1  0
 62 56  1  0
 62 61  1  0
 63 56  2  0
 64 65  1  0
 64 55  1  0
 66 67  2  0
 67 86  1  0
 68 67  1  0
 68 71  1  0
 69 66  1  0
 69 70  1  0
 70 68  2  0
 71 72  1  0
 72 73  2  0
 74 77  1  0
 74 73  1  0
 75 74  2  0
 76 75  1  0
 76 71  2  0
 77 78  1  0
 78 79  1  0
 79 80  2  0
 81 80  1  0
 81 85  1  0
 82 81  2  0
 83 78  2  0
 83 82  1  0
 84 83  1  0
 86 87  1  0
 87 90  1  0
 87 89  1  0
 88 86  2  0
 91 92  1  0
 91 66  1  0
 93 91  1  0
M  ISO  4  12 101  13 101  56 100  64 100
M  END
>  <TORSDO>  (56) 
F 20

>  <SCORE>  (56) 
-13.889

>  <name>  (56) 
55

>  <ligand_id>  (56) 
55

>  <original_smiles>  (56) 
[H]c1c([H])c([H])c2c(c1[H])C([H])([H])C([H])([H])C([H])([H])C2([H])N([H])C(=O)C1([H])N(C(=O)C([H])(N([H])C(=O)C([H])(N([H])C([H])([H])[H])C([H])([H])[H])C(C([H])([H])[H])(C([H])([H])[H])C([H])([H])[H])C([H])([H])c2c([H])c(OC([H])([H])c3nc(N([H])C([H])([H])C([H])([H])N([H])C(=O)N4C([H])([H])C([H])([H])C([H])([H])C([H])(n5nc(-c6c([H])c([H])c(Oc7c([H])c([H])c(F)c([H])c7F)c([H])c6[H])c(C(=O)N([H])[H])c5N([H])[H])C4([H])[H])nc(C4([H])C([H])([H])C4([H])[H])n3)c([H])c([H])c2C1([H])[H]

>  <smiles>  (56) 
[H]c1c([H])c([H])c2c(c1[H])C([H])([H])C([H])([H])C([H])([H])C2([H])N([H])C(=O)C1([H])N(C(=O)C([H])(N([H])C(=O)C([H])(N([H])C([H])([H])[H])C([H])([H])[H])C(C([H])([H])[H])(C([H])([H])[H])C([H])([H])[H])C([H])([H])c2c([H])c(OC([H])([H])c3nc(N([H])C([H])([H])C([H])([H])N([H])C(=O)N4C([H])([H])C([H])([H])C([H])([H])C([H])(n5nc(-c6c([H])c([H])c(Oc7c([H])c([H])c(F)c([H])c7F)c([H])c6[H])c(C(=O)N([H])[H])c5N([H])[H])C4([H])[H])nc(C4([H])C([H])([H])C4([H])[H])n3)c([H])c([H])c2C1([H])[H]

$$$$
56:0:0
     RDKit          3D

 91100  0  0  1  0  0  0  0  0999 V2000
  -27.7620  -21.0820   19.8610 C   0  0  0  0  0  3  0  0  0  0  0  0
  -29.6190  -22.8350   20.8970 C   0  0  0  0  0  3  0  0  0  0  0  0
  -28.9320  -20.4370   20.3770 C   0  0  0  0  0  0  0  0  0  0  0  0
  -27.4870  -22.5010   19.9100 C   0  0  0  0  0  0  0  0  0  0  0  0
  -29.8730  -21.4010   20.8680 C   0  0  0  0  0  0  0  0  0  0  0  0
  -28.4020  -23.4610   20.4650 C   0  0  0  0  0  0  0  0  0  0  0  0
  -26.1230  -22.9570   19.4070 C   0  0  0  0  0  1  0  0  0  0  0  0
  -31.1820  -20.8880   21.4400 C   0  0  0  0  0  1  0  0  0  0  0  0
  -28.8520  -18.0650   19.2130 C   0  0  0  0  0  2  0  0  0  0  0  0
  -28.9750  -18.8140   20.5100 C   0  0  0  0  0  3  0  0  0  0  0  0
  -29.9550  -17.5490   20.1100 C   0  0  0  0  0  3  0  0  0  0  0  0
  -30.5970  -14.9360   20.2440 C   0  0  0  0  0  0  0  0  0  0  0  0
  -30.4410  -12.6240   19.2670 C   0  0  0  0  0  2  0  0  0  0  0  0
  -29.4950  -12.6840   18.0490 C   0  0  0  0  0  2  0  0  0  0  0  0
  -28.0310  -12.4810   18.4880 C   0  0  0  0  0  2  0  0  0  0  0  0
  -27.6590  -13.3510   19.7180 C   0  0  0  0  0  3  0  0  0  0  0  0
  -28.7320  -13.2930   20.8270 C   0  0  0  0  0  2  0  0  0  0  0  0
  -30.0120  -13.6820   20.2150 N   0  0  0  0  0  0  0  0  0  0  0  0
  -31.7780  -15.0470   19.8960 O   0  0  0  0  0  0  0  0  0  0  0  0
  -29.7760  -16.0590   20.4300 N   0  0  0  0  0  0  0  0  0  0  0  0
  -28.8340  -15.8080   20.6890 H   0  0  0  0  0  0  0  0  0  0  0  0
  -25.2890  -13.9150   20.5060 C   0  0  0  0  0  0  0  0  0  0  0  0
  -24.2350  -13.1320   20.8860 C   0  0  0  0  0  0  0  0  0  0  0  0
  -24.7000  -11.7830   20.8220 C   0  0  0  0  0  0  0  0  0  0  0  0
  -26.3290  -13.0420   20.2300 N   0  0  0  0  0  0  0  0  0  0  0  0
  -25.9850  -11.7540   20.4850 N   0  0  0  0  0  0  0  0  0  0  0  0
  -23.9780  -10.5180   21.0070 C   0  0  0  0  0  0  0  0  0  0  0  0
  -24.4040   -9.5570   21.9510 C   0  0  0  0  0  3  0  0  0  0  0  0
  -23.6840   -8.3540   22.1240 C   0  0  0  0  0  3  0  0  0  0  0  0
  -22.5200   -8.1080   21.3570 C   0  0  0  0  0  0  0  0  0  0  0  0
  -22.1130   -9.0580   20.4050 C   0  0  0  0  0  3  0  0  0  0  0  0
  -22.8340  -10.2510   20.2290 C   0  0  0  0  0  3  0  0  0  0  0  0
  -21.7700   -6.9590   21.4400 O   0  0  0  0  0  0  0  0  0  0  0  0
  -21.6880   -6.2360   22.6050 C   0  0  0  0  0  0  0  0  0  0  0  0
  -21.1800   -6.7990   23.7950 C   0  0  0  0  0  3  0  0  0  0  0  0
  -21.0460   -6.0030   24.9500 C   0  0  0  0  0  3  0  0  0  0  0  0
  -21.4070   -4.6430   24.9130 C   0  0  0  0  0  0  0  0  0  0  0  0
  -21.9050   -4.0790   23.7240 C   0  0  0  0  0  3  0  0  0  0  0  0
  -22.0440   -4.8740   22.5740 C   0  0  0  0  0  0  0  0  0  0  0  0
  -22.5050   -4.3200   21.4270 F   0  0  0  0  0  0  0  0  0  0  0  0
  -21.2700   -3.8760   26.0190 F   0  0  0  0  0  0  0  0  0  0  0  0
  -22.8430  -13.6040   21.1950 C   0  0  0  0  0  0  0  0  0  0  0  0
  -22.1270  -12.8890   22.0540 N   0  0  0  0  0  0  0  0  0  0  0  0
  -22.4010  -14.6460   20.7120 O   0  0  0  0  0  0  0  0  0  0  0  0
  -22.4970  -12.0470   22.4720 H   0  0  0  0  0  0  0  0  0  0  0  0
  -21.1920  -13.1860   22.2960 H   0  0  0  0  0  0  0  0  0  0  0  0
  -25.4470  -15.2880   20.3430 N   0  0  0  0  0  0  0  0  0  0  0  0
  -24.6630  -15.9260   20.4400 H   0  0  0  0  0  0  0  0  0  0  0  0
  -26.2690  -15.7320   19.9610 H   0  0  0  0  0  0  0  0  0  0  0  0
  -27.9550  -24.9770   20.8940 C   0  0  0  0  0  2  0  0  0  0  0  0
  -28.2810  -26.3110   20.2340 O   0  0  0  0  0  0  0  0  0  0  0  0
  -24.6070  -31.9120   23.2220 C   0  0  0  0  0  0  0  0  0  0  0  0
  -27.2330  -27.2760   20.2030 C   0  0  0  0  0  0  0  0  0  0  0  0
  -23.4230  -30.5060   21.5780 C   0  0  0  0  0  3  0  0  0  0  0  0
  -24.8890  -28.9530   20.1600 C   0  0  0  0  0  0  0  0  0  0  0  0
  -25.9700  -30.8110   21.4160 C   0  0  0  0  0  2  0  0  0  0  0  0
  -26.0590  -29.4230   20.7710 C   0  0  0  0  0  0  0  0  0  0  0  0
  -27.2390  -28.5990   20.7790 C   0  0  0  0  0  3  0  0  0  0  0  0
  -26.0460  -26.8950   19.5490 C   0  0  0  0  0  3  0  0  0  0  0  0
  -24.8900  -27.6990   19.5330 C   0  0  0  0  0  3  0  0  0  0  0  0
  -23.6530  -29.8340   20.1990 C   0  0  0  0  0  2  0  0  0  0  0  0
  -24.6870  -31.0970   22.1290 N   0  0  0  0  0  0  0  0  0  0  0  0
  -23.5190  -32.1870   23.7490 O   0  0  0  0  0  0  0  0  0  0  0  0
  -22.7530  -29.4910   22.5360 C   0  0  0  0  0  0  0  0  0  0  0  0
  -21.4250  -29.3150   22.4090 N   0  0  0  0  0  0  0  0  0  0  0  0
  -23.4290  -28.8630   23.3560 O   0  0  0  0  0  0  0  0  0  0  0  0
  -20.9380  -29.8740   21.7220 H   0  0  0  0  0  0  0  0  0  0  0  0
  -18.0420  -28.1340   22.9290 C   0  0  0  0  0  0  0  0  0  0  0  0
  -20.6040  -28.3770   23.1780 C   0  0  0  0  0  3  0  0  0  0  0  0
  -20.6920  -26.9480   22.5910 C   0  0  0  0  0  2  0  0  0  0  0  0
  -19.5800  -26.6430   21.5820 C   0  0  0  0  0  2  0  0  0  0  0  0
  -18.2040  -26.7900   22.2380 C   0  0  0  0  0  2  0  0  0  0  0  0
  -19.1680  -28.8870   23.3550 C   0  0  0  0  0  0  0  0  0  0  0  0
  -18.9600  -30.1450   23.9630 C   0  0  0  0  0  3  0  0  0  0  0  0
  -17.6600  -30.6510   24.1450 C   0  0  0  0  0  3  0  0  0  0  0  0
  -16.5480  -29.8940   23.7360 C   0  0  0  0  0  3  0  0  0  0  0  0
  -16.7390  -28.6380   23.1330 C   0  0  0  0  0  3  0  0  0  0  0  0
  -25.8800  -32.5570   23.8520 C   0  0  0  0  0  3  0  0  0  0  0  0
  -25.5620  -33.9570   24.1720 N   0  0  0  0  0  0  0  0  0  0  0  0
  -25.8990  -35.0090   23.4130 C   0  0  0  0  0  0  0  0  0  0  0  0
  -26.5810  -34.9010   22.3900 O   0  0  0  0  0  0  0  0  0  0  0  0
  -24.9650  -34.1130   24.9710 H   0  0  0  0  0  0  0  0  0  0  0  0
  -24.1880  -36.8080   23.0100 C   0  0  0  0  0  1  0  0  0  0  0  0
  -25.4050  -36.3990   23.8570 C   0  0  0  0  0  3  0  0  0  0  0  0
  -27.5150  -37.2800   24.7520 C   0  0  0  0  0  1  0  0  0  0  0  0
  -26.4430  -37.4500   23.7740 N   0  0  0  0  0  0  0  0  0  0  0  0
  -26.0350  -38.3710   23.9080 H   0  0  0  0  0  0  0  0  0  0  0  0
  -26.3830  -31.7980   25.1410 C   0  0  1  0  0  0  0  0  0  0  0  0
  -25.2800  -31.5610   26.2000 C   0  0  0  0  0  1  0  0  0  0  0  0
  -26.9750  -30.4200   24.7660 C   0  0  0  0  0  1  0  0  0  0  0  0
  -27.5260  -32.5980   25.8090 C   0  0  0  0  0  1  0  0  0  0  0  0
  1  4  2  0
  1  3  1  0
  3  5  2  0
  4  6  1  0
  5  2  1  0
  5  8  1  0
  6 50  1  0
  6  2  2  0
  7  4  1  0
  9 11  1  0
  9 10  1  0
 10  3  1  0
 11 20  1  0
 11 10  1  0
 12 20  1  0
 13 18  1  0
 14 15  1  0
 14 13  1  0
 16 15  1  0
 16 25  1  0
 16 17  1  0
 18 12  1  0
 18 17  1  0
 19 12  2  0
 20 21  1  0
 22 23  2  0
 23 42  1  0
 24 23  1  0
 24 27  1  0
 25 26  1  0
 25 22  1  0
 26 24  2  0
 27 28  1  0
 28 29  2  0
 30 33  1  0
 30 29  1  0
 31 30  2  0
 32 31  1  0
 32 27  2  0
 33 34  1  0
 34 35  1  0
 35 36  2  0
 37 36  1  0
 37 41  1  0
 38 37  2  0
 39 34  2  0
 39 38  1  0
 40 39  1  0
 42 43  1  0
 43 46  1  0
 43 45  1  0
 44 42  2  0
 47 48  1  0
 47 22  1  0
 49 47  1  0
 51 50  1  0
 52 63  2  0
 53 51  1  0
 53 58  1  0
 54 62  1  0
 54 64  1  0
 55 61  1  0
 55 57  1  0
 56 62  1  0
 57 58  2  0
 57 56  1  0
 59 53  2  0
 60 59  1  0
 60 55  2  0
 61 54  1  0
 62 52  1  0
 64 66  2  0
 65 64  1  0
 67 65  1  0
 68 77  2  0
 68 73  1  0
 69 65  1  0
 69 73  1  0
 70 69  1  0
 71 72  1  0
 71 70  1  0
 72 68  1  0
 73 74  2  0
 74 75  1  0
 76 75  2  0
 77 76  1  0
 78 52  1  0
 78 79  1  0
 78 88  1  0
 79 82  1  0
 80 84  1  0
 80 79  1  0
 81 80  2  0
 84 83  1  0
 86 84  1  0
 86 87  1  0
 86 85  1  0
 88 91  1  1
 88 89  1  0
 90 88  1  0
M  ISO  4  12 100  20 100  50 101  51 101
M  END
>  <TORSDO>  (57) 
F 18

>  <SCORE>  (57) 
-14.838

>  <name>  (57) 
56

>  <ligand_id>  (57) 
56

>  <original_smiles>  (57) 
[H]c1c([H])c([H])c2c(c1[H])C([H])([H])C([H])([H])C([H])([H])C2([H])N([H])C(=O)C1([H])N(C(=O)C([H])(N([H])C(=O)C([H])(N([H])C([H])([H])[H])C([H])([H])[H])C(C([H])([H])[H])(C([H])([H])[H])C([H])([H])[H])C([H])([H])c2c([H])c(OC([H])([H])c3c([H])c(C([H])([H])[H])c(C4([H])C([H])([H])C4([H])N([H])C(=O)N4C([H])([H])C([H])([H])C([H])([H])C([H])(n5nc(-c6c([H])c([H])c(Oc7c([H])c([H])c(F)c([H])c7F)c([H])c6[H])c(C(=O)N([H])[H])c5N([H])[H])C4([H])[H])c([H])c3C([H])([H])[H])c([H])c([H])c2C1([H])[H]

>  <smiles>  (57) 
[H]c1c([H])c([H])c2c(c1[H])C([H])([H])C([H])([H])C([H])([H])C2([H])N([H])C(=O)C1([H])N(C(=O)C([H])(N([H])C(=O)C([H])(N([H])C([H])([H])[H])C([H])([H])[H])C(C([H])([H])[H])(C([H])([H])[H])C([H])([H])[H])C([H])([H])c2c([H])c(OC([H])([H])c3c([H])c(C([H])([H])[H])c(C4([H])C([H])([H])C4([H])N([H])C(=O)N4C([H])([H])C([H])([H])C([H])([H])C([H])(n5nc(-c6c([H])c([H])c(Oc7c([H])c([H])c(F)c([H])c7F)c([H])c6[H])c(C(=O)N([H])[H])c5N([H])[H])C4([H])[H])c([H])c3C([H])([H])[H])c([H])c([H])c2C1([H])[H]

$$$$
57:0:0
     RDKit          3D

 91100  0  0  1  0  0  0  0  0999 V2000
  -28.7310  -22.9220   19.9740 C   0  0  0  0  0  0  0  0  0  0  0  0
  -27.9590  -21.6800   19.8120 C   0  0  0  0  0  0  0  0  0  0  0  0
  -30.0690  -22.4240   20.2190 C   0  0  0  0  0  0  0  0  0  0  0  0
  -29.6920  -19.9510   20.1460 C   0  0  0  0  0  0  0  0  0  0  0  0
  -31.1980  -23.4210   20.3760 C   0  0  0  0  0  1  0  0  0  0  0  0
  -28.4000  -20.3290   19.9270 N   0  0  0  0  0  0  0  0  0  0  0  0
  -30.4830  -21.0670   20.3010 N   0  0  0  0  0  0  0  0  0  0  0  0
  -25.9900  -21.2390   18.1290 C   0  0  0  0  0  2  0  0  0  0  0  0
  -25.9910  -22.7160   18.4030 C   0  0  0  0  0  2  0  0  0  0  0  0
  -26.5000  -21.7560   19.4620 C   0  0  0  0  0  3  0  0  0  0  0  0
  -28.1230  -24.5320   19.6230 C   0  0  0  0  0  2  0  0  0  0  0  0
  -28.4130  -26.0830   20.0510 O   0  0  0  0  0  0  0  0  0  0  0  0
  -24.6050  -31.8150   23.1470 C   0  0  0  0  0  0  0  0  0  0  0  0
  -27.3800  -27.1580   20.0010 C   0  0  0  0  0  0  0  0  0  0  0  0
  -23.4820  -30.4270   21.4550 C   0  0  0  0  0  3  0  0  0  0  0  0
  -25.0060  -28.9360   19.9930 C   0  0  0  0  0  0  0  0  0  0  0  0
  -26.0380  -30.7500   21.3390 C   0  0  0  0  0  2  0  0  0  0  0  0
  -26.1720  -29.3680   20.6390 C   0  0  0  0  0  0  0  0  0  0  0  0
  -27.3520  -28.5010   20.6210 C   0  0  0  0  0  3  0  0  0  0  0  0
  -26.1780  -26.8810   19.3080 C   0  0  0  0  0  3  0  0  0  0  0  0
  -25.0340  -27.7140   19.3080 C   0  0  0  0  0  3  0  0  0  0  0  0
  -23.7490  -29.8020   20.0580 C   0  0  0  0  0  2  0  0  0  0  0  0
  -24.7290  -31.0220   22.0340 N   0  0  0  0  0  0  0  0  0  0  0  0
  -23.5010  -32.0420   23.6680 O   0  0  0  0  0  0  0  0  0  0  0  0
  -22.8230  -29.3700   22.3800 C   0  0  0  0  0  0  0  0  0  0  0  0
  -21.4980  -29.1670   22.2500 N   0  0  0  0  0  0  0  0  0  0  0  0
  -23.5100  -28.7350   23.1840 O   0  0  0  0  0  0  0  0  0  0  0  0
  -20.9960  -29.7320   21.5790 H   0  0  0  0  0  0  0  0  0  0  0  0
  -18.1460  -27.8750   22.7610 C   0  0  0  0  0  0  0  0  0  0  0  0
  -20.7070  -28.1740   22.9860 C   0  0  0  0  0  3  0  0  0  0  0  0
  -20.8220  -26.7780   22.3340 C   0  0  0  0  0  2  0  0  0  0  0  0
  -19.7040  -26.4900   21.3270 C   0  0  0  0  0  2  0  0  0  0  0  0
  -18.3340  -26.5710   22.0050 C   0  0  0  0  0  2  0  0  0  0  0  0
  -19.2610  -28.6360   23.2080 C   0  0  0  0  0  0  0  0  0  0  0  0
  -19.0290  -29.8560   23.8780 C   0  0  0  0  0  3  0  0  0  0  0  0
  -17.7180  -30.3180   24.1040 C   0  0  0  0  0  3  0  0  0  0  0  0
  -16.6200  -29.5550   23.6710 C   0  0  0  0  0  3  0  0  0  0  0  0
  -16.8360  -28.3350   23.0050 C   0  0  0  0  0  3  0  0  0  0  0  0
  -25.8430  -32.4880   23.8100 C   0  0  0  0  0  3  0  0  0  0  0  0
  -26.3340  -31.7360   25.1100 C   0  0  1  0  0  0  0  0  0  0  0  0
  -25.2110  -31.4780   26.1430 C   0  0  0  0  0  1  0  0  0  0  0  0
  -26.9610  -30.3700   24.7540 C   0  0  0  0  0  1  0  0  0  0  0  0
  -27.4410  -32.5620   25.8050 C   0  0  0  0  0  1  0  0  0  0  0  0
  -25.4810  -33.8790   24.1380 N   0  0  0  0  0  0  0  0  0  0  0  0
  -25.8040  -34.9500   23.4010 C   0  0  0  0  0  0  0  0  0  0  0  0
  -26.4990  -34.8730   22.3850 O   0  0  0  0  0  0  0  0  0  0  0  0
  -24.8640  -34.0090   24.9260 H   0  0  0  0  0  0  0  0  0  0  0  0
  -24.0360  -36.7060   23.0340 C   0  0  0  0  0  1  0  0  0  0  0  0
  -25.2730  -36.3240   23.8610 C   0  0  0  0  0  3  0  0  0  0  0  0
  -27.3670  -37.2620   24.7380 C   0  0  0  0  0  1  0  0  0  0  0  0
  -26.2800  -37.4050   23.7740 N   0  0  0  0  0  0  0  0  0  0  0  0
  -25.8460  -38.3140   23.9160 H   0  0  0  0  0  0  0  0  0  0  0  0
  -30.3430  -18.3570   20.4380 C   0  0  0  0  0  2  0  0  0  0  0  0
  -30.5960  -15.4890   20.2680 C   0  0  0  0  0  0  0  0  0  0  0  0
  -30.5220  -13.0760   19.3300 C   0  0  0  0  0  2  0  0  0  0  0  0
  -29.5960  -12.9160   18.0990 C   0  0  0  0  0  2  0  0  0  0  0  0
  -28.1460  -12.6570   18.5390 C   0  0  0  0  0  2  0  0  0  0  0  0
  -27.7100  -13.5990   19.6900 C   0  0  0  0  0  3  0  0  0  0  0  0
  -28.7630  -13.7080   20.8110 C   0  0  0  0  0  2  0  0  0  0  0  0
  -29.9980  -14.2040   20.1810 N   0  0  0  0  0  0  0  0  0  0  0  0
  -31.8150  -15.4700   20.0530 O   0  0  0  0  0  0  0  0  0  0  0  0
  -29.8770  -16.7720   20.3930 N   0  0  0  0  0  0  0  0  0  0  0  0
  -28.8800  -16.6660   20.4950 H   0  0  0  0  0  0  0  0  0  0  0  0
  -25.3400  -14.1580   20.4460 C   0  0  0  0  0  0  0  0  0  0  0  0
  -24.2770  -13.3800   20.8090 C   0  0  0  0  0  0  0  0  0  0  0  0
  -24.7420  -12.0300   20.7700 C   0  0  0  0  0  0  0  0  0  0  0  0
  -26.3820  -13.2830   20.1970 N   0  0  0  0  0  0  0  0  0  0  0  0
  -26.0340  -11.9960   20.4600 N   0  0  0  0  0  0  0  0  0  0  0  0
  -24.0110  -10.7670   20.9490 C   0  0  0  0  0  0  0  0  0  0  0  0
  -24.4170   -9.8080   21.9020 C   0  0  0  0  0  3  0  0  0  0  0  0
  -23.6850   -8.6120   22.0700 C   0  0  0  0  0  3  0  0  0  0  0  0
  -22.5330   -8.3680   21.2850 C   0  0  0  0  0  0  0  0  0  0  0  0
  -22.1470   -9.3170   20.3210 C   0  0  0  0  0  3  0  0  0  0  0  0
  -22.8810  -10.5030   20.1510 C   0  0  0  0  0  3  0  0  0  0  0  0
  -21.7750   -7.2250   21.3600 O   0  0  0  0  0  0  0  0  0  0  0  0
  -21.6680   -6.5090   22.5260 C   0  0  0  0  0  0  0  0  0  0  0  0
  -21.1770   -7.0900   23.7150 C   0  0  0  0  0  3  0  0  0  0  0  0
  -21.0180   -6.3010   24.8710 C   0  0  0  0  0  3  0  0  0  0  0  0
  -21.3400   -4.9300   24.8390 C   0  0  0  0  0  0  0  0  0  0  0  0
  -21.8240   -4.3490   23.6540 C   0  0  0  0  0  3  0  0  0  0  0  0
  -21.9840   -5.1360   22.4990 C   0  0  0  0  0  0  0  0  0  0  0  0
  -22.4310   -4.5650   21.3550 F   0  0  0  0  0  0  0  0  0  0  0  0
  -21.1810   -4.1690   25.9470 F   0  0  0  0  0  0  0  0  0  0  0  0
  -22.8800  -13.8590   21.0740 C   0  0  0  0  0  0  0  0  0  0  0  0
  -22.1530  -13.1710   21.9470 N   0  0  0  0  0  0  0  0  0  0  0  0
  -22.4420  -14.8780   20.5420 O   0  0  0  0  0  0  0  0  0  0  0  0
  -22.5210  -12.3470   22.3990 H   0  0  0  0  0  0  0  0  0  0  0  0
  -21.2150  -13.4740   22.1700 H   0  0  0  0  0  0  0  0  0  0  0  0
  -25.5020  -15.5290   20.2750 N   0  0  0  0  0  0  0  0  0  0  0  0
  -24.7310  -16.1780   20.3840 H   0  0  0  0  0  0  0  0  0  0  0  0
  -26.3380  -15.9680   19.9140 H   0  0  0  0  0  0  0  0  0  0  0  0
  1  3  1  0
  2  6  1  0
  2  1  2  0
  3  7  2  0
  3  5  1  0
  4  7  1  0
  4 53  1  0
  6  4  2  0
  8  9  1  0
  8 10  1  0
  9 10  1  0
 10  2  1  0
 11  1  1  0
 11 12  1  0
 13 24  2  0
 14 12  1  0
 14 19  1  0
 15 23  1  0
 15 25  1  0
 16 22  1  0
 16 18  1  0
 17 23  1  0
 18 17  1  0
 19 18  2  0
 20 14  2  0
 21 20  1  0
 21 16  2  0
 22 15  1  0
 23 13  1  0
 25 27  2  0
 26 25  1  0
 28 26  1  0
 29 38  2  0
 29 34  1  0
 30 26  1  0
 30 34  1  0
 31 30  1  0
 32 33  1  0
 32 31  1  0
 33 29  1  0
 34 35  2  0
 35 36  1  0
 37 36  2  0
 38 37  1  0
 39 13  1  0
 39 44  1  0
 39 40  1  0
 40 43  1  1
 40 41  1  0
 42 40  1  0
 44 47  1  0
 45 49  1  0
 45 44  1  0
 46 45  2  0
 49 48  1  0
 51 49  1  0
 51 52  1  0
 51 50  1  0
 54 62  1  0
 55 60  1  0
 56 57  1  0
 56 55  1  0
 58 57  1  0
 58 67  1  0
 58 59  1  0
 60 54  1  0
 60 59  1  0
 61 54  2  0
 62 53  1  0
 62 63  1  0
 64 65  2  0
 65 84  1  0
 66 65  1  0
 66 69  1  0
 67 64  1  0
 67 68  1  0
 68 66  2  0
 69 70  1  0
 70 71  2  0
 72 75  1  0
 72 71  1  0
 73 72  2  0
 74 73  1  0
 74 69  2  0
 75 76  1  0
 76 77  1  0
 77 78  2  0
 79 78  1  0
 79 83  1  0
 80 79  2  0
 81 76  2  0
 81 80  1  0
 82 81  1  0
 84 85  1  0
 85 88  1  0
 85 87  1  0
 86 84  2  0
 89 90  1  0
 89 64  1  0
 91 89  1  0
M  ISO  4  11 101  12 101  54 100  62 100
M  END
>  <TORSDO>  (58) 
F 19

>  <SCORE>  (58) 
-15.312

>  <name>  (58) 
57

>  <ligand_id>  (58) 
57

>  <original_smiles>  (58) 
[H]c1c([H])c([H])c2c(c1[H])C([H])([H])C([H])([H])C([H])([H])C2([H])N([H])C(=O)C1([H])N(C(=O)C([H])(N([H])C(=O)C([H])(N([H])C([H])([H])[H])C([H])([H])[H])C(C([H])([H])[H])(C([H])([H])[H])C([H])([H])[H])C([H])([H])c2c([H])c(OC([H])([H])c3c(C([H])([H])[H])nc(C([H])([H])N([H])C(=O)N4C([H])([H])C([H])([H])C([H])([H])C([H])(n5nc(-c6c([H])c([H])c(Oc7c([H])c([H])c(F)c([H])c7F)c([H])c6[H])c(C(=O)N([H])[H])c5N([H])[H])C4([H])[H])nc3C3([H])C([H])([H])C3([H])[H])c([H])c([H])c2C1([H])[H]

>  <smiles>  (58) 
[H]c1c([H])c([H])c2c(c1[H])C([H])([H])C([H])([H])C([H])([H])C2([H])N([H])C(=O)C1([H])N(C(=O)C([H])(N([H])C(=O)C([H])(N([H])C([H])([H])[H])C([H])([H])[H])C(C([H])([H])[H])(C([H])([H])[H])C([H])([H])[H])C([H])([H])c2c([H])c(OC([H])([H])c3c(C([H])([H])[H])nc(C([H])([H])N([H])C(=O)N4C([H])([H])C([H])([H])C([H])([H])C([H])(n5nc(-c6c([H])c([H])c(Oc7c([H])c([H])c(F)c([H])c7F)c([H])c6[H])c(C(=O)N([H])[H])c5N([H])[H])C4([H])[H])nc3C3([H])C([H])([H])C3([H])[H])c([H])c([H])c2C1([H])[H]

$$$$
58:0:0
     RDKit          3D

 84 91  0  0  1  0  0  0  0  0999 V2000
  -30.2800  -15.8980   20.2900 C   0  0  0  0  0  0  0  0  0  0  0  0
  -30.3980  -13.2850   19.5500 C   0  0  0  0  0  2  0  0  0  0  0  0
  -29.5750  -12.7390   18.3430 C   0  0  0  0  0  2  0  0  0  0  0  0
  -28.1680  -12.3310   18.7890 C   0  0  0  0  0  2  0  0  0  0  0  0
  -27.5870  -13.3800   19.7600 C   0  0  0  0  0  3  0  0  0  0  0  0
  -28.5650  -13.8530   20.8730 C   0  0  0  0  0  2  0  0  0  0  0  0
  -29.7160  -14.5210   20.2000 N   0  0  0  0  0  0  0  0  0  0  0  0
  -31.5150  -15.7050   20.2030 O   0  0  0  0  0  0  0  0  0  0  0  0
  -28.1510  -20.0670   20.7920 C   0  0  0  0  0  2  0  0  0  0  0  0
  -30.0400  -20.5150   19.6520 C   0  0  0  0  0  2  0  0  0  0  0  0
  -28.3790  -18.3200   20.3930 C   0  0  0  0  0  2  0  0  0  0  0  0
  -30.5060  -18.8390   20.1370 C   0  0  0  0  0  2  0  0  0  0  0  0
  -28.6860  -21.5230   20.0250 C   0  0  0  0  0  2  0  0  0  0  0  0
  -29.7200  -17.4250   20.2480 N   0  0  0  0  0  0  0  0  0  0  0  0
  -25.2130  -13.8920   20.4660 C   0  0  0  0  0  0  0  0  0  0  0  0
  -24.1490  -13.1080   20.8150 C   0  0  0  0  0  0  0  0  0  0  0  0
  -24.6320  -11.7610   20.8150 C   0  0  0  0  0  0  0  0  0  0  0  0
  -26.2690  -13.0270   20.2610 N   0  0  0  0  0  0  0  0  0  0  0  0
  -25.9330  -11.7370   20.5370 N   0  0  0  0  0  0  0  0  0  0  0  0
  -23.9040  -10.4960   21.0050 C   0  0  0  0  0  0  0  0  0  0  0  0
  -24.3140   -9.5420   21.9630 C   0  0  0  0  0  3  0  0  0  0  0  0
  -23.5840   -8.3490   22.1410 C   0  0  0  0  0  3  0  0  0  0  0  0
  -22.4240   -8.1020   21.3690 C   0  0  0  0  0  0  0  0  0  0  0  0
  -22.0310   -9.0440   20.4030 C   0  0  0  0  0  3  0  0  0  0  0  0
  -22.7630  -10.2310   20.2220 C   0  0  0  0  0  3  0  0  0  0  0  0
  -21.6650   -6.9600   21.4590 O   0  0  0  0  0  0  0  0  0  0  0  0
  -21.5930   -6.2300   22.6190 C   0  0  0  0  0  0  0  0  0  0  0  0
  -21.1560   -6.8040   23.8320 C   0  0  0  0  0  3  0  0  0  0  0  0
  -21.0330   -6.0030   24.9850 C   0  0  0  0  0  3  0  0  0  0  0  0
  -21.3350   -4.6290   24.9250 C   0  0  0  0  0  0  0  0  0  0  0  0
  -21.7650   -4.0540   23.7140 C   0  0  0  0  0  3  0  0  0  0  0  0
  -21.8900   -4.8530   22.5630 C   0  0  0  0  0  0  0  0  0  0  0  0
  -22.2830   -4.2910   21.3960 F   0  0  0  0  0  0  0  0  0  0  0  0
  -21.2080   -3.8570   26.0290 F   0  0  0  0  0  0  0  0  0  0  0  0
  -22.7440  -13.5780   21.0350 C   0  0  0  0  0  0  0  0  0  0  0  0
  -21.9990  -12.8970   21.8990 N   0  0  0  0  0  0  0  0  0  0  0  0
  -22.3160  -14.5870   20.4770 O   0  0  0  0  0  0  0  0  0  0  0  0
  -22.3630  -12.0780   22.3650 H   0  0  0  0  0  0  0  0  0  0  0  0
  -21.0520  -13.1900   22.0910 H   0  0  0  0  0  0  0  0  0  0  0  0
  -25.3700  -15.2620   20.2730 N   0  0  0  0  0  0  0  0  0  0  0  0
  -24.5980  -15.9130   20.3420 H   0  0  0  0  0  0  0  0  0  0  0  0
  -26.2340  -15.7020   19.9800 H   0  0  0  0  0  0  0  0  0  0  0  0
  -28.0330  -23.4810   19.9090 C   0  0  0  0  0  1  0  0  0  0  0  0
  -28.1940  -25.3100   20.0440 O   0  0  0  0  0  0  0  0  0  0  0  0
  -24.7270  -31.7800   23.0090 C   0  0  0  0  0  0  0  0  0  0  0  0
  -27.2340  -26.5890   20.0000 C   0  0  0  0  0  0  0  0  0  0  0  0
  -23.5300  -30.3740   21.3870 C   0  0  0  0  0  3  0  0  0  0  0  0
  -24.9670  -28.7040   19.9650 C   0  0  0  0  0  0  0  0  0  0  0  0
  -26.1130  -30.4900   21.2470 C   0  0  0  0  0  2  0  0  0  0  0  0
  -26.1730  -29.0410   20.5880 C   0  0  0  0  0  0  0  0  0  0  0  0
  -27.2840  -28.0160   20.5660 C   0  0  0  0  0  3  0  0  0  0  0  0
  -25.9860  -26.5000   19.3210 C   0  0  0  0  0  3  0  0  0  0  0  0
  -24.9200  -27.4600   19.3080 C   0  0  0  0  0  3  0  0  0  0  0  0
  -23.7580  -29.6610   20.0220 C   0  0  0  0  0  2  0  0  0  0  0  0
  -24.8170  -30.9180   21.9330 N   0  0  0  0  0  0  0  0  0  0  0  0
  -23.6340  -32.0830   23.5240 O   0  0  0  0  0  0  0  0  0  0  0  0
  -22.8130  -29.4110   22.3710 C   0  0  0  0  0  0  0  0  0  0  0  0
  -21.4750  -29.2780   22.2750 N   0  0  0  0  0  0  0  0  0  0  0  0
  -23.4760  -28.7760   23.1940 O   0  0  0  0  0  0  0  0  0  0  0  0
  -20.9930  -29.8290   21.5790 H   0  0  0  0  0  0  0  0  0  0  0  0
  -18.0840  -28.1110   22.8810 C   0  0  0  0  0  0  0  0  0  0  0  0
  -20.6540  -28.3440   23.0590 C   0  0  0  0  0  3  0  0  0  0  0  0
  -20.7150  -26.9190   22.4610 C   0  0  0  0  0  2  0  0  0  0  0  0
  -19.5800  -26.6320   21.4740 C   0  0  0  0  0  2  0  0  0  0  0  0
  -18.2220  -26.7750   22.1670 C   0  0  0  0  0  2  0  0  0  0  0  0
  -19.2230  -28.8560   23.2850 C   0  0  0  0  0  0  0  0  0  0  0  0
  -19.0350  -30.1050   23.9150 C   0  0  0  0  0  3  0  0  0  0  0  0
  -17.7400  -30.6090   24.1450 C   0  0  0  0  0  3  0  0  0  0  0  0
  -16.6160  -29.8580   23.7580 C   0  0  0  0  0  3  0  0  0  0  0  0
  -16.7890  -28.6130   23.1300 C   0  0  0  0  0  3  0  0  0  0  0  0
  -25.9870  -32.4400   23.6470 C   0  0  0  0  0  3  0  0  0  0  0  0
  -25.6420  -33.8250   24.0350 N   0  0  0  0  0  0  0  0  0  0  0  0
  -25.9440  -34.9250   23.3310 C   0  0  0  0  0  0  0  0  0  0  0  0
  -26.5940  -34.8830   22.2840 O   0  0  0  0  0  0  0  0  0  0  0  0
  -25.0530  -33.9300   24.8490 H   0  0  0  0  0  0  0  0  0  0  0  0
  -24.1800  -36.7120   23.1280 C   0  0  0  0  0  1  0  0  0  0  0  0
  -25.4550  -36.2850   23.8720 C   0  0  0  0  0  3  0  0  0  0  0  0
  -27.6040  -37.1690   24.6740 C   0  0  0  0  0  1  0  0  0  0  0  0
  -26.4690  -37.3610   23.7740 N   0  0  0  0  0  0  0  0  0  0  0  0
  -26.0530  -38.2660   23.9760 H   0  0  0  0  0  0  0  0  0  0  0  0
  -26.5230  -31.6570   24.9080 C   0  0  1  0  0  0  0  0  0  0  0  0
  -25.4420  -31.3960   25.9850 C   0  0  0  0  0  1  0  0  0  0  0  0
  -27.1140  -30.2890   24.5050 C   0  0  0  0  0  1  0  0  0  0  0  0
  -27.6740  -32.4520   25.5680 C   0  0  0  0  0  1  0  0  0  0  0  0
  2  7  1  0
  3  4  1  0
  3  2  1  0
  5  4  1  0
  5 18  1  0
  5  6  1  0
  7  1  1  0
  7  6  1  0
  8  1  2  0
 10 13  1  0
 10 12  1  0
 11  9  1  0
 12 14  1  0
 13  9  1  0
 14  1  1  0
 14 11  1  0
 15 16  2  0
 16 35  1  0
 17 16  1  0
 17 20  1  0
 18 15  1  0
 18 19  1  0
 19 17  2  0
 20 21  1  0
 21 22  2  0
 23 26  1  0
 23 22  1  0
 24 23  2  0
 25 24  1  0
 25 20  2  0
 26 27  1  0
 27 28  1  0
 28 29  2  0
 30 29  1  0
 30 34  1  0
 31 30  2  0
 32 27  2  0
 32 31  1  0
 33 32  1  0
 35 36  1  0
 36 39  1  0
 36 38  1  0
 37 35  2  0
 40 41  1  0
 40 15  1  0
 42 40  1  0
 43 44  1  0
 45 56  2  0
 46 44  1  0
 46 51  1  0
 47 55  1  0
 47 57  1  0
 48 54  1  0
 48 50  1  0
 49 55  1  0
 50 49  1  0
 51 50  2  0
 52 46  2  0
 53 52  1  0
 53 48  2  0
 54 47  1  0
 55 45  1  0
 57 59  2  0
 58 57  1  0
 60 58  1  0
 61 70  2  0
 61 66  1  0
 62 58  1  0
 62 66  1  0
 63 62  1  0
 64 65  1  0
 64 63  1  0
 65 61  1  0
 66 67  2  0
 67 68  1  0
 69 68  2  0
 70 69  1  0
 71 45  1  0
 71 72  1  0
 71 81  1  0
 72 75  1  0
 73 77  1  0
 73 72  1  0
 74 73  2  0
 77 76  1  0
 79 77  1  0
 79 80  1  0
 79 78  1  0
 81 84  1  1
 81 82  1  0
 83 81  1  0
M  ISO  4   1 100  14 100  43 101  44 101
M  END
>  <TORSDO>  (59) 
F 16

>  <SCORE>  (59) 
-15.964

>  <name>  (59) 
58

>  <ligand_id>  (59) 
58

>  <original_smiles>  (59) 
[H]c1c([H])c([H])c2c(c1[H])C([H])([H])C([H])([H])C([H])([H])C2([H])N([H])C(=O)C1([H])N(C(=O)C([H])(N([H])C(=O)C([H])(N([H])C([H])([H])[H])C([H])([H])[H])C(C([H])([H])[H])(C([H])([H])[H])C([H])([H])[H])C([H])([H])c2c([H])c(OC([H])([H])C3([H])C([H])([H])C([H])([H])N(C(=O)N4C([H])([H])C([H])([H])C([H])([H])C([H])(n5nc(-c6c([H])c([H])c(Oc7c([H])c([H])c(F)c([H])c7F)c([H])c6[H])c(C(=O)N([H])[H])c5N([H])[H])C4([H])[H])C([H])([H])C3([H])[H])c([H])c([H])c2C1([H])[H]

>  <smiles>  (59) 
[H]c1c([H])c([H])c2c(c1[H])C([H])([H])C([H])([H])C([H])([H])C2([H])N([H])C(=O)C1([H])N(C(=O)C([H])(N([H])C(=O)C([H])(N([H])C([H])([H])[H])C([H])([H])[H])C(C([H])([H])[H])(C([H])([H])[H])C([H])([H])[H])C([H])([H])c2c([H])c(OC([H])([H])C3([H])C([H])([H])C([H])([H])N(C(=O)N4C([H])([H])C([H])([H])C([H])([H])C([H])(n5nc(-c6c([H])c([H])c(Oc7c([H])c([H])c(F)c([H])c7F)c([H])c6[H])c(C(=O)N([H])[H])c5N([H])[H])C4([H])[H])C([H])([H])C3([H])[H])c([H])c([H])c2C1([H])[H]

$$$$
59:0:0
     RDKit          3D

 88 96  0  0  1  0  0  0  0  0999 V2000
  -28.9120  -23.0970   20.1010 C   0  0  0  0  0  0  0  0  0  0  0  0
  -27.5640  -21.5220   21.4600 C   0  0  0  0  0  1  0  0  0  0  0  0
  -28.6290  -21.6930   20.4660 N   0  0  0  0  0  0  0  0  0  0  0  0
  -30.0070  -23.3100   19.5710 O   0  0  0  0  0  0  0  0  0  0  0  0
  -30.6360  -15.3370   20.1300 C   0  0  0  0  0  0  0  0  0  0  0  0
  -30.5180  -12.9360   19.2200 C   0  0  0  0  0  2  0  0  0  0  0  0
  -29.5800  -12.7910   18.0000 C   0  0  0  0  0  2  0  0  0  0  0  0
  -28.1260  -12.5550   18.4410 C   0  0  0  0  0  2  0  0  0  0  0  0
  -27.7130  -13.4730   19.6200 C   0  0  0  0  0  3  0  0  0  0  0  0
  -28.7830  -13.5880   20.7220 C   0  0  0  0  0  2  0  0  0  0  0  0
  -30.0100  -14.0700   20.0690 N   0  0  0  0  0  0  0  0  0  0  0  0
  -31.8550  -15.2830   19.9140 O   0  0  0  0  0  0  0  0  0  0  0  0
  -28.4010  -18.9070   19.6950 C   0  0  0  0  0  2  0  0  0  0  0  0
  -30.1240  -19.3500   21.1880 C   0  0  0  0  0  2  0  0  0  0  0  0
  -29.0360  -17.3940   19.3900 C   0  0  0  0  0  2  0  0  0  0  0  0
  -30.8040  -17.8960   20.7750 C   0  0  0  0  0  2  0  0  0  0  0  0
  -29.2930  -20.2090   20.1150 C   0  0  0  0  0  3  0  0  0  0  0  0
  -30.0020  -16.6630   20.3270 N   0  0  0  0  0  0  0  0  0  0  0  0
  -25.3580  -13.9990   20.4390 C   0  0  0  0  0  0  0  0  0  0  0  0
  -24.3120  -13.2060   20.8180 C   0  0  0  0  0  0  0  0  0  0  0  0
  -24.7910  -11.8630   20.7580 C   0  0  0  0  0  0  0  0  0  0  0  0
  -26.4010  -13.1390   20.1530 N   0  0  0  0  0  0  0  0  0  0  0  0
  -26.0740  -11.8450   20.4160 N   0  0  0  0  0  0  0  0  0  0  0  0
  -24.0790  -10.5920   20.9490 C   0  0  0  0  0  0  0  0  0  0  0  0
  -24.4900   -9.6490   21.9150 C   0  0  0  0  0  3  0  0  0  0  0  0
  -23.7750   -8.4450   22.0910 C   0  0  0  0  0  3  0  0  0  0  0  0
  -22.6320   -8.1730   21.2990 C   0  0  0  0  0  0  0  0  0  0  0  0
  -22.2400   -9.1080   20.3240 C   0  0  0  0  0  3  0  0  0  0  0  0
  -22.9570  -10.3040   20.1480 C   0  0  0  0  0  3  0  0  0  0  0  0
  -21.8870   -7.0210   21.3840 O   0  0  0  0  0  0  0  0  0  0  0  0
  -21.7480   -6.3380   22.5650 C   0  0  0  0  0  0  0  0  0  0  0  0
  -21.1720   -6.9370   23.7080 C   0  0  0  0  0  3  0  0  0  0  0  0
  -20.9810   -6.1770   24.8800 C   0  0  0  0  0  3  0  0  0  0  0  0
  -21.3590   -4.8210   24.9090 C   0  0  0  0  0  0  0  0  0  0  0  0
  -21.9290   -4.2230   23.7710 C   0  0  0  0  0  3  0  0  0  0  0  0
  -22.1220   -4.9800   22.6040 C   0  0  0  0  0  0  0  0  0  0  0  0
  -22.6500   -4.3940   21.5020 F   0  0  0  0  0  0  0  0  0  0  0  0
  -21.1710   -4.0870   26.0320 F   0  0  0  0  0  0  0  0  0  0  0  0
  -22.9160  -13.6660   21.1180 C   0  0  0  0  0  0  0  0  0  0  0  0
  -22.2110  -12.9620   21.9960 N   0  0  0  0  0  0  0  0  0  0  0  0
  -22.4590  -14.6860   20.6070 O   0  0  0  0  0  0  0  0  0  0  0  0
  -22.5960  -12.1430   22.4400 H   0  0  0  0  0  0  0  0  0  0  0  0
  -21.2690  -13.2520   22.2270 H   0  0  0  0  0  0  0  0  0  0  0  0
  -25.5030  -15.3750   20.2900 N   0  0  0  0  0  0  0  0  0  0  0  0
  -24.7370  -16.0100   20.4840 H   0  0  0  0  0  0  0  0  0  0  0  0
  -26.3440  -15.8480   19.9830 H   0  0  0  0  0  0  0  0  0  0  0  0
  -27.8800  -24.4870   20.2000 C   0  0  0  0  0  2  0  0  0  0  0  0
  -28.2580  -26.0720   20.2120 O   0  0  0  0  0  0  0  0  0  0  0  0
  -24.6570  -31.9350   23.2550 C   0  0  0  0  0  0  0  0  0  0  0  0
  -27.2480  -27.1560   20.1790 C   0  0  0  0  0  0  0  0  0  0  0  0
  -23.4710  -30.5570   21.5950 C   0  0  0  0  0  3  0  0  0  0  0  0
  -24.9340  -28.9910   20.1610 C   0  0  0  0  0  0  0  0  0  0  0  0
  -26.0360  -30.8090   21.4470 C   0  0  0  0  0  2  0  0  0  0  0  0
  -26.1220  -29.4120   20.7690 C   0  0  0  0  0  0  0  0  0  0  0  0
  -27.2820  -28.5190   20.7500 C   0  0  0  0  0  3  0  0  0  0  0  0
  -26.0210  -26.8740   19.5450 C   0  0  0  0  0  3  0  0  0  0  0  0
  -24.9020  -27.7370   19.5330 C   0  0  0  0  0  3  0  0  0  0  0  0
  -23.7090  -29.9010   20.2090 C   0  0  0  0  0  2  0  0  0  0  0  0
  -24.7420  -31.1240   22.1530 N   0  0  0  0  0  0  0  0  0  0  0  0
  -23.5670  -32.2060   23.7840 O   0  0  0  0  0  0  0  0  0  0  0  0
  -22.7840  -29.5370   22.5420 C   0  0  0  0  0  0  0  0  0  0  0  0
  -21.4610  -29.3430   22.3940 N   0  0  0  0  0  0  0  0  0  0  0  0
  -23.4510  -28.9230   23.3790 O   0  0  0  0  0  0  0  0  0  0  0  0
  -20.9760  -29.8960   21.7020 H   0  0  0  0  0  0  0  0  0  0  0  0
  -18.0980  -28.0580   22.8330 C   0  0  0  0  0  0  0  0  0  0  0  0
  -20.6440  -28.3880   23.1520 C   0  0  0  0  0  3  0  0  0  0  0  0
  -20.7920  -26.9570   22.5850 C   0  0  0  0  0  2  0  0  0  0  0  0
  -19.7210  -26.6020   21.5480 C   0  0  0  0  0  2  0  0  0  0  0  0
  -18.3220  -26.7120   22.1620 C   0  0  0  0  0  2  0  0  0  0  0  0
  -19.1870  -28.8510   23.2820 C   0  0  0  0  0  0  0  0  0  0  0  0
  -18.9210  -30.1050   23.8720 C   0  0  0  0  0  3  0  0  0  0  0  0
  -17.5990  -30.5690   24.0130 C   0  0  0  0  0  3  0  0  0  0  0  0
  -16.5250  -29.7750   23.5760 C   0  0  0  0  0  3  0  0  0  0  0  0
  -16.7750  -28.5210   22.9920 C   0  0  0  0  0  3  0  0  0  0  0  0
  -25.9270  -32.5720   23.8940 C   0  0  0  0  0  3  0  0  0  0  0  0
  -25.6070  -33.9700   24.2290 N   0  0  0  0  0  0  0  0  0  0  0  0
  -25.9010  -35.0300   23.4630 C   0  0  0  0  0  0  0  0  0  0  0  0
  -26.5330  -34.9340   22.4080 O   0  0  0  0  0  0  0  0  0  0  0  0
  -25.0360  -34.1160   25.0500 H   0  0  0  0  0  0  0  0  0  0  0  0
  -24.1260  -36.7970   23.2080 C   0  0  0  0  0  1  0  0  0  0  0  0
  -25.4200  -36.4140   23.9430 C   0  0  0  0  0  3  0  0  0  0  0  0
  -27.5790  -37.3520   24.6440 C   0  0  0  0  0  1  0  0  0  0  0  0
  -26.4240  -37.4850   23.7600 N   0  0  0  0  0  0  0  0  0  0  0  0
  -26.0070  -38.3980   23.9150 H   0  0  0  0  0  0  0  0  0  0  0  0
  -26.4230  -31.8030   25.1810 C   0  0  1  0  0  0  0  0  0  0  0  0
  -25.3150  -31.5710   26.2350 C   0  0  0  0  0  1  0  0  0  0  0  0
  -27.0090  -30.4220   24.8090 C   0  0  0  0  0  1  0  0  0  0  0  0
  -27.5610  -32.5980   25.8600 C   0  0  0  0  0  1  0  0  0  0  0  0
  1 47  1  0
  1  3  1  0
  3  2  1  0
  4  1  2  0
  5 18  1  0
  6 11  1  0
  7  8  1  0
  7  6  1  0
  9  8  1  0
  9 22  1  0
  9 10  1  0
 11  5  1  0
 11 10  1  0
 12  5  2  0
 13 17  1  0
 15 13  1  0
 15 18  1  0
 16 14  1  0
 17  3  1  0
 17 14  1  0
 18 16  1  0
 19 20  2  0
 20 39  1  0
 21 20  1  0
 21 24  1  0
 22 23  1  0
 22 19  1  0
 23 21  2  0
 24 25  1  0
 25 26  2  0
 27 30  1  0
 27 26  1  0
 28 27  2  0
 29 28  1  0
 29 24  2  0
 30 31  1  0
 31 36  2  0
 31 32  1  0
 32 33  2  0
 33 34  1  0
 34 38  1  0
 35 34  2  0
 36 35  1  0
 37 36  1  0
 39 40  1  0
 40 43  1  0
 40 42  1  0
 41 39  2  0
 44 19  1  0
 44 45  1  0
 46 44  1  0
 47 48  1  0
 49 60  2  0
 50 48  1  0
 50 55  1  0
 51 59  1  0
 51 61  1  0
 52 58  1  0
 52 54  1  0
 53 59  1  0
 54 53  1  0
 55 54  2  0
 56 50  2  0
 57 56  1  0
 57 52  2  0
 58 51  1  0
 59 49  1  0
 61 63  2  0
 62 61  1  0
 64 62  1  0
 65 74  2  0
 65 70  1  0
 66 62  1  0
 66 70  1  0
 67 66  1  0
 68 69  1  0
 68 67  1  0
 69 65  1  0
 70 71  2  0
 71 72  1  0
 73 72  2  0
 74 73  1  0
 75 49  1  0
 75 76  1  0
 75 85  1  0
 76 79  1  0
 77 81  1  0
 77 76  1  0
 78 77  2  0
 81 80  1  0
 83 84  1  0
 83 81  1  0
 83 82  1  0
 85 88  1  1
 85 86  1  0
 87 85  1  0
M  ISO  4   5 100  18 100  47 101  48 101
M  END
>  <TORSDO>  (60) 
F 17

>  <SCORE>  (60) 
-15.200

>  <name>  (60) 
59

>  <ligand_id>  (60) 
59

>  <original_smiles>  (60) 
[H]c1c([H])c([H])c2c(c1[H])C([H])([H])C([H])([H])C([H])([H])C2([H])N([H])C(=O)C1([H])N(C(=O)C([H])(N([H])C(=O)C([H])(N([H])C([H])([H])[H])C([H])([H])[H])C(C([H])([H])[H])(C([H])([H])[H])C([H])([H])[H])C([H])([H])c2c([H])c(OC([H])([H])C(=O)N(C([H])([H])[H])C3([H])C([H])([H])C([H])([H])N(C(=O)N4C([H])([H])C([H])([H])C([H])([H])C([H])(n5nc(-c6c([H])c([H])c(Oc7c([H])c([H])c(F)c([H])c7F)c([H])c6[H])c(C(=O)N([H])[H])c5N([H])[H])C4([H])[H])C([H])([H])C3([H])[H])c([H])c([H])c2C1([H])[H]

>  <smiles>  (60) 
[H]c1c([H])c([H])c2c(c1[H])C([H])([H])C([H])([H])C([H])([H])C2([H])N([H])C(=O)C1([H])N(C(=O)C([H])(N([H])C(=O)C([H])(N([H])C([H])([H])[H])C([H])([H])[H])C(C([H])([H])[H])(C([H])([H])[H])C([H])([H])[H])C([H])([H])c2c([H])c(OC([H])([H])C(=O)N(C([H])([H])[H])C3([H])C([H])([H])C([H])([H])N(C(=O)N4C([H])([H])C([H])([H])C([H])([H])C([H])(n5nc(-c6c([H])c([H])c(Oc7c([H])c([H])c(F)c([H])c7F)c([H])c6[H])c(C(=O)N([H])[H])c5N([H])[H])C4([H])[H])C([H])([H])C3([H])[H])c([H])c([H])c2C1([H])[H]

$$$$
60:0:0
     RDKit          3D

 89 98  0  0  1  0  0  0  0  0999 V2000
  -28.2110  -20.8480   19.6640 C   0  0  0  0  0  3  0  0  0  0  0  0
  -29.1750  -20.2150   20.5300 C   0  0  0  0  0  0  0  0  0  0  0  0
  -29.4800  -22.5200   21.3420 C   0  0  0  0  0  0  0  0  0  0  0  0
  -28.5050  -23.1520   20.4760 C   0  0  0  0  0  0  0  0  0  0  0  0
  -30.1820  -23.3360   22.4140 C   0  0  0  0  0  1  0  0  0  0  0  0
  -27.9010  -22.2210   19.6430 N   0  0  0  0  0  0  0  0  0  0  0  0
  -29.8030  -21.1470   21.3460 N   0  0  0  0  0  0  0  0  0  0  0  0
  -30.5730  -15.0540   20.2450 C   0  0  0  0  0  0  0  0  0  0  0  0
  -30.3400  -12.7050   19.3040 C   0  0  0  0  0  2  0  0  0  0  0  0
  -29.3930  -12.6160   18.0890 C   0  0  0  0  0  2  0  0  0  0  0  0
  -27.9470  -12.4010   18.5620 C   0  0  0  0  0  2  0  0  0  0  0  0
  -27.5570  -13.3450   19.7280 C   0  0  0  0  0  3  0  0  0  0  0  0
  -28.6350  -13.4310   20.8300 C   0  0  0  0  0  2  0  0  0  0  0  0
  -29.8780  -13.8400   20.1680 N   0  0  0  0  0  0  0  0  0  0  0  0
  -31.7790  -14.9810   19.9860 O   0  0  0  0  0  0  0  0  0  0  0  0
  -28.7360  -17.1800   20.5330 C   0  0  0  0  0  2  0  0  0  0  0  0
  -30.6720  -17.7090   19.9650 C   0  0  0  0  0  2  0  0  0  0  0  0
  -29.5430  -18.5730   20.6640 C   0  0  0  0  0  3  0  0  0  0  0  0
  -30.0100  -16.3840   20.3070 N   0  0  0  0  0  0  0  0  0  0  0  0
  -25.2060  -13.9030   20.5510 C   0  0  0  0  0  0  0  0  0  0  0  0
  -24.1500  -13.1220   20.9280 C   0  0  0  0  0  0  0  0  0  0  0  0
  -24.6120  -11.7720   20.8600 C   0  0  0  0  0  0  0  0  0  0  0  0
  -26.2400  -13.0300   20.2660 N   0  0  0  0  0  0  0  0  0  0  0  0
  -25.8960  -11.7400   20.5210 N   0  0  0  0  0  0  0  0  0  0  0  0
  -23.8870  -10.5060   21.0420 C   0  0  0  0  0  0  0  0  0  0  0  0
  -24.3190   -9.5320   21.9680 C   0  0  0  0  0  3  0  0  0  0  0  0
  -23.5900   -8.3340   22.1390 C   0  0  0  0  0  3  0  0  0  0  0  0
  -22.4180   -8.1020   21.3820 C   0  0  0  0  0  0  0  0  0  0  0  0
  -22.0050   -9.0660   20.4440 C   0  0  0  0  0  3  0  0  0  0  0  0
  -22.7340  -10.2540   20.2710 C   0  0  0  0  0  3  0  0  0  0  0  0
  -21.6600   -6.9590   21.4630 O   0  0  0  0  0  0  0  0  0  0  0  0
  -21.5820   -6.2270   22.6200 C   0  0  0  0  0  0  0  0  0  0  0  0
  -21.0860   -6.7820   23.8220 C   0  0  0  0  0  3  0  0  0  0  0  0
  -20.9580   -5.9750   24.9690 C   0  0  0  0  0  3  0  0  0  0  0  0
  -21.3160   -4.6130   24.9180 C   0  0  0  0  0  0  0  0  0  0  0  0
  -21.8060   -4.0600   23.7220 C   0  0  0  0  0  3  0  0  0  0  0  0
  -21.9360   -4.8630   22.5760 C   0  0  0  0  0  0  0  0  0  0  0  0
  -22.3870   -4.3180   21.4200 F   0  0  0  0  0  0  0  0  0  0  0  0
  -21.1880   -3.8360   26.0180 F   0  0  0  0  0  0  0  0  0  0  0  0
  -22.7600  -13.5960   21.2370 C   0  0  0  0  0  0  0  0  0  0  0  0
  -22.0510  -12.8850   22.1030 N   0  0  0  0  0  0  0  0  0  0  0  0
  -22.3150  -14.6320   20.7440 O   0  0  0  0  0  0  0  0  0  0  0  0
  -22.4250  -12.0450   22.5200 H   0  0  0  0  0  0  0  0  0  0  0  0
  -21.1190  -13.1820   22.3570 H   0  0  0  0  0  0  0  0  0  0  0  0
  -25.3680  -15.2760   20.3940 N   0  0  0  0  0  0  0  0  0  0  0  0
  -24.6070  -15.9320   20.5360 H   0  0  0  0  0  0  0  0  0  0  0  0
  -26.2150  -15.7150   20.0580 H   0  0  0  0  0  0  0  0  0  0  0  0
  -27.7810  -24.6520   20.6870 C   0  0  0  0  0  2  0  0  0  0  0  0
  -28.2000  -26.1170   20.2930 O   0  0  0  0  0  0  0  0  0  0  0  0
  -24.6210  -31.9020   23.2330 C   0  0  0  0  0  0  0  0  0  0  0  0
  -27.1840  -27.1520   20.2340 C   0  0  0  0  0  0  0  0  0  0  0  0
  -23.4230  -30.5020   21.5990 C   0  0  0  0  0  3  0  0  0  0  0  0
  -24.8710  -28.9300   20.1730 C   0  0  0  0  0  0  0  0  0  0  0  0
  -25.9770  -30.7600   21.4360 C   0  0  0  0  0  2  0  0  0  0  0  0
  -26.0510  -29.3620   20.7930 C   0  0  0  0  0  0  0  0  0  0  0  0
  -27.2100  -28.4900   20.8070 C   0  0  0  0  0  3  0  0  0  0  0  0
  -25.9880  -26.8430   19.5480 C   0  0  0  0  0  3  0  0  0  0  0  0
  -24.8560  -27.6840   19.5320 C   0  0  0  0  0  3  0  0  0  0  0  0
  -23.6450  -29.8290   20.2200 C   0  0  0  0  0  2  0  0  0  0  0  0
  -24.6940  -31.0790   22.1440 N   0  0  0  0  0  0  0  0  0  0  0  0
  -23.5350  -32.1860   23.7600 O   0  0  0  0  0  0  0  0  0  0  0  0
  -22.7450  -29.4960   22.5630 C   0  0  0  0  0  0  0  0  0  0  0  0
  -21.4170  -29.3170   22.4340 N   0  0  0  0  0  0  0  0  0  0  0  0
  -23.4170  -28.8780   23.3940 O   0  0  0  0  0  0  0  0  0  0  0  0
  -20.9320  -29.8610   21.7340 H   0  0  0  0  0  0  0  0  0  0  0  0
  -18.0380  -28.1120   22.9470 C   0  0  0  0  0  0  0  0  0  0  0  0
  -20.5970  -28.3800   23.2080 C   0  0  0  0  0  3  0  0  0  0  0  0
  -20.7050  -26.9460   22.6400 C   0  0  0  0  0  2  0  0  0  0  0  0
  -19.6030  -26.6180   21.6280 C   0  0  0  0  0  2  0  0  0  0  0  0
  -18.2190  -26.7630   22.2700 C   0  0  0  0  0  2  0  0  0  0  0  0
  -19.1560  -28.8780   23.3720 C   0  0  0  0  0  0  0  0  0  0  0  0
  -18.9340  -30.1400   23.9640 C   0  0  0  0  0  3  0  0  0  0  0  0
  -17.6270  -30.6370   24.1350 C   0  0  0  0  0  3  0  0  0  0  0  0
  -16.5240  -29.8670   23.7250 C   0  0  0  0  0  3  0  0  0  0  0  0
  -16.7300  -28.6080   23.1370 C   0  0  0  0  0  3  0  0  0  0  0  0
  -25.8990  -32.5430   23.8560 C   0  0  0  0  0  3  0  0  0  0  0  0
  -25.5860  -33.9450   24.1830 N   0  0  0  0  0  0  0  0  0  0  0  0
  -25.9070  -34.9990   23.4210 C   0  0  0  0  0  0  0  0  0  0  0  0
  -26.5700  -34.8940   22.3840 O   0  0  0  0  0  0  0  0  0  0  0  0
  -25.0080  -34.1010   24.9940 H   0  0  0  0  0  0  0  0  0  0  0  0
  -24.1810  -36.7930   23.0680 C   0  0  0  0  0  1  0  0  0  0  0  0
  -25.4220  -36.3880   23.8780 C   0  0  0  0  0  3  0  0  0  0  0  0
  -27.5540  -37.2760   24.7110 C   0  0  0  0  0  1  0  0  0  0  0  0
  -26.4550  -37.4410   23.7640 N   0  0  0  0  0  0  0  0  0  0  0  0
  -26.0500  -38.3620   23.9070 H   0  0  0  0  0  0  0  0  0  0  0  0
  -26.4060  -31.7840   25.1430 C   0  0  1  0  0  0  0  0  0  0  0  0
  -25.3070  -31.5640   26.2080 C   0  0  0  0  0  1  0  0  0  0  0  0
  -26.9910  -30.4020   24.7750 C   0  0  0  0  0  1  0  0  0  0  0  0
  -27.5580  -32.5830   25.7990 C   0  0  0  0  0  1  0  0  0  0  0  0
  1  2  1  0
  2  7  2  0
  3  7  1  0
  3  5  1  0
  4 48  1  0
  4  3  2  0
  6  1  2  0
  6  4  1  0
  8 19  1  0
  9 14  1  0
 10 11  1  0
 10  9  1  0
 12 11  1  0
 12 23  1  0
 12 13  1  0
 14  8  1  0
 14 13  1  0
 15  8  2  0
 16 18  1  0
 17 19  1  0
 17 18  1  0
 18  2  1  0
 19 16  1  0
 20 21  2  0
 21 40  1  0
 22 21  1  0
 22 25  1  0
 23 24  1  0
 23 20  1  0
 24 22  2  0
 25 26  1  0
 26 27  2  0
 28 31  1  0
 28 27  1  0
 29 28  2  0
 30 29  1  0
 30 25  2  0
 31 32  1  0
 32 33  1  0
 33 34  2  0
 35 34  1  0
 35 39  1  0
 36 35  2  0
 37 32  2  0
 37 36  1  0
 38 37  1  0
 40 41  1  0
 41 44  1  0
 41 43  1  0
 42 40  2  0
 45 46  1  0
 45 20  1  0
 47 45  1  0
 49 48  1  0
 50 61  2  0
 51 49  1  0
 51 56  1  0
 52 60  1  0
 52 62  1  0
 53 59  1  0
 53 55  1  0
 54 60  1  0
 55 56  2  0
 55 54  1  0
 57 51  2  0
 58 57  1  0
 58 53  2  0
 59 52  1  0
 60 50  1  0
 62 64  2  0
 63 62  1  0
 65 63  1  0
 66 75  2  0
 66 71  1  0
 67 63  1  0
 67 71  1  0
 68 67  1  0
 69 70  1  0
 69 68  1  0
 70 66  1  0
 71 72  2  0
 72 73  1  0
 74 73  2  0
 75 74  1  0
 76 50  1  0
 76 77  1  0
 76 86  1  0
 77 80  1  0
 78 82  1  0
 78 77  1  0
 79 78  2  0
 82 81  1  0
 84 82  1  0
 84 85  1  0
 84 83  1  0
 86 89  1  1
 86 87  1  0
 88 86  1  0
M  ISO  4   8 100  19 100  48 101  49 101
M  END
>  <TORSDO>  (61) 
F 17

>  <SCORE>  (61) 
-15.276

>  <name>  (61) 
60

>  <ligand_id>  (61) 
60

>  <original_smiles>  (61) 
[H]c1nc(C([H])([H])Oc2c([H])c([H])c3c(c2[H])C([H])([H])N(C(=O)C([H])(N([H])C(=O)C([H])(N([H])C([H])([H])[H])C([H])([H])[H])C(C([H])([H])[H])(C([H])([H])[H])C([H])([H])[H])C([H])(C(=O)N([H])C2([H])c4c([H])c([H])c([H])c([H])c4C([H])([H])C([H])([H])C2([H])[H])C3([H])[H])c(C([H])([H])[H])nc1C1([H])C([H])([H])N(C(=O)N2C([H])([H])C([H])([H])C([H])([H])C([H])(n3nc(-c4c([H])c([H])c(Oc5c([H])c([H])c(F)c([H])c5F)c([H])c4[H])c(C(=O)N([H])[H])c3N([H])[H])C2([H])[H])C1([H])[H]

>  <smiles>  (61) 
[H]c1nc(C([H])([H])Oc2c([H])c([H])c3c(c2[H])C([H])([H])N(C(=O)C([H])(N([H])C(=O)C([H])(N([H])C([H])([H])[H])C([H])([H])[H])C(C([H])([H])[H])(C([H])([H])[H])C([H])([H])[H])C([H])(C(=O)N([H])C2([H])c4c([H])c([H])c([H])c([H])c4C([H])([H])C([H])([H])C2([H])[H])C3([H])[H])c(C([H])([H])[H])nc1C1([H])C([H])([H])N(C(=O)N2C([H])([H])C([H])([H])C([H])([H])C([H])(n3nc(-c4c([H])c([H])c(Oc5c([H])c([H])c(F)c([H])c5F)c([H])c4[H])c(C(=O)N([H])[H])c3N([H])[H])C2([H])[H])C1([H])[H]

$$$$
61:0:0
     RDKit          3D

 94103  0  0  1  0  0  0  0  0999 V2000
  -29.9360  -23.6880   21.5280 C   0  0  0  0  0  3  0  0  0  0  0  0
  -28.8100  -23.9920   20.7380 C   0  0  0  0  0  0  0  0  0  0  0  0
  -30.4650  -22.3740   21.5420 C   0  0  0  0  0  0  0  0  0  0  0  0
  -28.3080  -22.9270   19.9380 C   0  0  0  0  0  0  0  0  0  0  0  0
  -29.8670  -21.3640   20.7510 C   0  0  0  0  0  0  0  0  0  0  0  0
  -31.6430  -22.0650   22.4550 C   0  0  0  0  0  1  0  0  0  0  0  0
  -27.1090  -23.1270   19.0290 C   0  0  0  0  0  1  0  0  0  0  0  0
  -28.8200  -21.6570   19.9490 N   0  0  0  0  0  0  0  0  0  0  0  0
  -30.3980  -20.0490   20.8030 N   0  0  0  0  0  0  0  0  0  0  0  0
  -31.2680  -19.9700   21.3110 H   0  0  0  0  0  0  0  0  0  0  0  0
  -30.6660  -14.5950   20.0370 C   0  0  0  0  0  0  0  0  0  0  0  0
  -30.3270  -12.4110   18.9220 C   0  0  0  0  0  2  0  0  0  0  0  0
  -29.3150  -12.6040   17.7730 C   0  0  0  0  0  2  0  0  0  0  0  0
  -27.8690  -12.4500   18.2860 C   0  0  0  0  0  2  0  0  0  0  0  0
  -27.6010  -13.2720   19.5760 C   0  0  0  0  0  3  0  0  0  0  0  0
  -28.7250  -13.0730   20.6160 C   0  0  0  0  0  2  0  0  0  0  0  0
  -29.9980  -13.4030   19.9620 N   0  0  0  0  0  0  0  0  0  0  0  0
  -31.8070  -14.7180   19.5780 O   0  0  0  0  0  0  0  0  0  0  0  0
  -29.9780  -17.7490   21.7100 C   0  0  0  0  0  2  0  0  0  0  0  0
  -30.2510  -18.0710   19.2740 C   0  0  0  0  0  2  0  0  0  0  0  0
  -29.4600  -16.2930   21.4680 C   0  0  0  0  0  2  0  0  0  0  0  0
  -29.6650  -16.6480   19.0520 C   0  0  0  0  0  2  0  0  0  0  0  0
  -29.7180  -18.7560   20.5520 C   0  0  0  0  0  3  0  0  0  0  0  0
  -29.8840  -15.7140   20.1780 N   0  0  0  0  0  0  0  0  0  0  0  0
  -25.2590  -13.8540   20.4560 C   0  0  0  0  0  0  0  0  0  0  0  0
  -24.2140  -13.0710   20.8660 C   0  0  0  0  0  0  0  0  0  0  0  0
  -24.6680  -11.7200   20.7640 C   0  0  0  0  0  0  0  0  0  0  0  0
  -26.2840  -12.9790   20.1340 N   0  0  0  0  0  0  0  0  0  0  0  0
  -25.9360  -11.6890   20.3760 N   0  0  0  0  0  0  0  0  0  0  0  0
  -23.9490  -10.4540   20.9580 C   0  0  0  0  0  0  0  0  0  0  0  0
  -24.3950   -9.4850   21.8830 C   0  0  0  0  0  3  0  0  0  0  0  0
  -23.6760   -8.2840   22.0640 C   0  0  0  0  0  3  0  0  0  0  0  0
  -22.4970   -8.0440   21.3200 C   0  0  0  0  0  0  0  0  0  0  0  0
  -22.0700   -9.0020   20.3810 C   0  0  0  0  0  3  0  0  0  0  0  0
  -22.7900  -10.1950   20.1990 C   0  0  0  0  0  3  0  0  0  0  0  0
  -21.7450   -6.8980   21.4120 O   0  0  0  0  0  0  0  0  0  0  0  0
  -21.6610   -6.1860   22.5810 C   0  0  0  0  0  0  0  0  0  0  0  0
  -21.1840   -6.7670   23.7760 C   0  0  0  0  0  3  0  0  0  0  0  0
  -21.0490   -5.9800   24.9370 C   0  0  0  0  0  3  0  0  0  0  0  0
  -21.3800   -4.6120   24.9030 C   0  0  0  0  0  0  0  0  0  0  0  0
  -21.8500   -4.0300   23.7130 C   0  0  0  0  0  3  0  0  0  0  0  0
  -21.9880   -4.8150   22.5550 C   0  0  0  0  0  0  0  0  0  0  0  0
  -22.4210   -4.2440   21.4050 F   0  0  0  0  0  0  0  0  0  0  0  0
  -21.2420   -3.8530   26.0160 F   0  0  0  0  0  0  0  0  0  0  0  0
  -22.8390  -13.5420   21.2410 C   0  0  0  0  0  0  0  0  0  0  0  0
  -22.1640  -12.8190   22.1270 N   0  0  0  0  0  0  0  0  0  0  0  0
  -22.3750  -14.5860   20.7840 O   0  0  0  0  0  0  0  0  0  0  0  0
  -22.5520  -11.9730   22.5160 H   0  0  0  0  0  0  0  0  0  0  0  0
  -21.2430  -13.1140   22.4190 H   0  0  0  0  0  0  0  0  0  0  0  0
  -25.4160  -15.2290   20.3120 N   0  0  0  0  0  0  0  0  0  0  0  0
  -24.6620  -15.8810   20.4880 H   0  0  0  0  0  0  0  0  0  0  0  0
  -26.2530  -15.6740   19.9590 H   0  0  0  0  0  0  0  0  0  0  0  0
  -28.0400  -25.3240   20.9790 C   0  0  0  0  0  2  0  0  0  0  0  0
  -28.3760  -26.5410   20.2430 O   0  0  0  0  0  0  0  0  0  0  0  0
  -24.6270  -31.8760   23.2440 C   0  0  0  0  0  0  0  0  0  0  0  0
  -27.2910  -27.4080   20.1680 C   0  0  0  0  0  0  0  0  0  0  0  0
  -23.4410  -30.4790   21.5870 C   0  0  0  0  0  3  0  0  0  0  0  0
  -24.9120  -28.9600   20.1530 C   0  0  0  0  0  0  0  0  0  0  0  0
  -25.9740  -30.8320   21.4160 C   0  0  0  0  0  2  0  0  0  0  0  0
  -26.0710  -29.4660   20.7600 C   0  0  0  0  0  0  0  0  0  0  0  0
  -27.2680  -28.6990   20.7630 C   0  0  0  0  0  3  0  0  0  0  0  0
  -26.1210  -26.9510   19.5250 C   0  0  0  0  0  3  0  0  0  0  0  0
  -24.9360  -27.7050   19.5270 C   0  0  0  0  0  3  0  0  0  0  0  0
  -23.6640  -29.8140   20.2030 C   0  0  0  0  0  2  0  0  0  0  0  0
  -24.6980  -31.0780   22.1390 N   0  0  0  0  0  0  0  0  0  0  0  0
  -23.5400  -32.1420   23.7750 O   0  0  0  0  0  0  0  0  0  0  0  0
  -22.7820  -29.4500   22.5350 C   0  0  0  0  0  0  0  0  0  0  0  0
  -21.4550  -29.2780   22.4100 N   0  0  0  0  0  0  0  0  0  0  0  0
  -23.4630  -28.8110   23.3420 O   0  0  0  0  0  0  0  0  0  0  0  0
  -20.9660  -29.8440   21.7320 H   0  0  0  0  0  0  0  0  0  0  0  0
  -18.0740  -28.1010   22.9140 C   0  0  0  0  0  0  0  0  0  0  0  0
  -20.6360  -28.3340   23.1720 C   0  0  0  0  0  3  0  0  0  0  0  0
  -20.7230  -26.9120   22.5720 C   0  0  0  0  0  2  0  0  0  0  0  0
  -19.6120  -26.6130   21.5620 C   0  0  0  0  0  2  0  0  0  0  0  0
  -18.2350  -26.7600   22.2150 C   0  0  0  0  0  2  0  0  0  0  0  0
  -19.2010  -28.8460   23.3480 C   0  0  0  0  0  0  0  0  0  0  0  0
  -18.9970  -30.1020   23.9600 C   0  0  0  0  0  3  0  0  0  0  0  0
  -17.6990  -30.6130   24.1410 C   0  0  0  0  0  3  0  0  0  0  0  0
  -16.5840  -29.8620   23.7260 C   0  0  0  0  0  3  0  0  0  0  0  0
  -16.7730  -28.6070   23.1180 C   0  0  0  0  0  3  0  0  0  0  0  0
  -25.9040  -32.5110   23.8760 C   0  0  0  0  0  3  0  0  0  0  0  0
  -25.5860  -33.9060   24.2080 N   0  0  0  0  0  0  0  0  0  0  0  0
  -25.9190  -34.9630   23.4550 C   0  0  0  0  0  0  0  0  0  0  0  0
  -26.5980  -34.8670   22.4290 O   0  0  0  0  0  0  0  0  0  0  0  0
  -24.9880  -34.0570   25.0070 H   0  0  0  0  0  0  0  0  0  0  0  0
  -24.1900  -36.7510   23.0870 C   0  0  0  0  0  1  0  0  0  0  0  0
  -25.4200  -36.3470   23.9130 C   0  0  0  0  0  3  0  0  0  0  0  0
  -27.5390  -37.2340   24.7820 C   0  0  0  0  0  1  0  0  0  0  0  0
  -26.4510  -37.4040   23.8210 N   0  0  0  0  0  0  0  0  0  0  0  0
  -26.0400  -38.3210   23.9680 H   0  0  0  0  0  0  0  0  0  0  0  0
  -26.4150  -31.7380   25.1520 C   0  0  1  0  0  0  0  0  0  0  0  0
  -25.3160  -31.4850   26.2090 C   0  0  0  0  0  1  0  0  0  0  0  0
  -27.0130  -30.3660   24.7580 C   0  0  0  0  0  1  0  0  0  0  0  0
  -27.5550  -32.5370   25.8270 C   0  0  0  0  0  1  0  0  0  0  0  0
  1  3  1  0
  2 53  1  0
  2  1  2  0
  3  6  1  0
  4  8  2  0
  4  2  1  0
  5  9  1  0
  5  3  2  0
  7  4  1  0
  8  5  1  0
  9 10  1  0
 11 24  1  0
 12 17  1  0
 13 14  1  0
 13 12  1  0
 15 14  1  0
 15 28  1  0
 15 16  1  0
 17 11  1  0
 17 16  1  0
 18 11  2  0
 20 23  1  0
 21 19  1  0
 22 20  1  0
 22 24  1  0
 23  9  1  0
 23 19  1  0
 24 21  1  0
 25 26  2  0
 26 45  1  0
 27 26  1  0
 27 30  1  0
 28 29  1  0
 28 25  1  0
 29 27  2  0
 30 31  1  0
 31 32  2  0
 33 36  1  0
 33 32  1  0
 34 33  2  0
 35 34  1  0
 35 30  2  0
 36 37  1  0
 37 38  1  0
 38 39  2  0
 40 39  1  0
 40 44  1  0
 41 40  2  0
 42 37  2  0
 42 41  1  0
 43 42  1  0
 45 46  1  0
 46 49  1  0
 46 48  1  0
 47 45  2  0
 50 25  1  0
 50 51  1  0
 52 50  1  0
 54 53  1  0
 55 66  2  0
 56 54  1  0
 56 61  1  0
 57 65  1  0
 57 67  1  0
 58 64  1  0
 58 60  1  0
 59 65  1  0
 60 61  2  0
 60 59  1  0
 62 63  1  0
 62 56  2  0
 63 58  2  0
 64 57  1  0
 65 55  1  0
 67 69  2  0
 68 67  1  0
 70 68  1  0
 71 80  2  0
 71 76  1  0
 72 68  1  0
 72 76  1  0
 73 72  1  0
 74 75  1  0
 74 73  1  0
 75 71  1  0
 76 77  2  0
 77 78  1  0
 79 78  2  0
 80 79  1  0
 81 55  1  0
 81 82  1  0
 81 91  1  0
 82 85  1  0
 83 87  1  0
 83 82  1  0
 84 83  2  0
 87 86  1  0
 89 87  1  0
 89 90  1  0
 89 88  1  0
 91 94  1  1
 91 92  1  0
 93 91  1  0
M  ISO  4  11 100  24 100  53 101  54 101
M  END
>  <TORSDO>  (62) 
F 18

>  <SCORE>  (62) 
-14.265

>  <name>  (62) 
61

>  <ligand_id>  (62) 
61

>  <original_smiles>  (62) 
[H]c1c([H])c([H])c2c(c1[H])C([H])([H])C([H])([H])C([H])([H])C2([H])N([H])C(=O)C1([H])N(C(=O)C([H])(N([H])C(=O)C([H])(N([H])C([H])([H])[H])C([H])([H])[H])C(C([H])([H])[H])(C([H])([H])[H])C([H])([H])[H])C([H])([H])c2c([H])c(OC([H])([H])c3c(C([H])([H])[H])nc(N([H])C4([H])C([H])([H])C([H])([H])N(C(=O)N5C([H])([H])C([H])([H])C([H])([H])C([H])(n6nc(-c7c([H])c([H])c(Oc8c([H])c([H])c(F)c([H])c8F)c([H])c7[H])c(C(=O)N([H])[H])c6N([H])[H])C5([H])[H])C([H])([H])C4([H])[H])c(C([H])([H])[H])c3[H])c([H])c([H])c2C1([H])[H]

>  <smiles>  (62) 
[H]c1c([H])c([H])c2c(c1[H])C([H])([H])C([H])([H])C([H])([H])C2([H])N([H])C(=O)C1([H])N(C(=O)C([H])(N([H])C(=O)C([H])(N([H])C([H])([H])[H])C([H])([H])[H])C(C([H])([H])[H])(C([H])([H])[H])C([H])([H])[H])C([H])([H])c2c([H])c(OC([H])([H])c3c(C([H])([H])[H])nc(N([H])C4([H])C([H])([H])C([H])([H])N(C(=O)N5C([H])([H])C([H])([H])C([H])([H])C([H])(n6nc(-c7c([H])c([H])c(Oc8c([H])c([H])c(F)c([H])c8F)c([H])c7[H])c(C(=O)N([H])[H])c6N([H])[H])C5([H])[H])C([H])([H])C4([H])[H])c(C([H])([H])[H])c3[H])c([H])c([H])c2C1([H])[H]

$$$$
62:0:0
     RDKit          3D

 92101  0  0  1  0  0  0  0  0999 V2000
  -29.9260  -21.5410   21.1970 C   0  0  0  0  0  0  0  0  0  0  0  0
  -29.6720  -22.9670   21.0000 C   0  0  0  0  0  0  0  0  0  0  0  0
  -29.1820  -20.5390   20.4800 C   0  0  0  0  0  0  0  0  0  0  0  0
  -28.6480  -23.4160   20.0950 C   0  0  0  0  0  0  0  0  0  0  0  0
  -30.9810  -21.0880   22.1960 C   0  0  0  0  0  1  0  0  0  0  0  0
  -30.5050  -24.0000   21.7440 C   0  0  0  0  0  1  0  0  0  0  0  0
  -28.2350  -21.0510   19.6240 N   0  0  0  0  0  0  0  0  0  0  0  0
  -27.9970  -22.3890   19.4420 N   0  0  0  0  0  0  0  0  0  0  0  0
  -29.1740  -18.9180   20.7800 C   0  0  0  0  0  2  0  0  0  0  0  0
  -30.5510  -15.0070   20.2840 C   0  0  0  0  0  0  0  0  0  0  0  0
  -30.4120  -12.6500   19.3800 C   0  0  0  0  0  2  0  0  0  0  0  0
  -29.4810  -12.5680   18.1480 C   0  0  0  0  0  2  0  0  0  0  0  0
  -28.0090  -12.3890   18.5770 C   0  0  0  0  0  2  0  0  0  0  0  0
  -27.5930  -13.3080   19.7560 C   0  0  0  0  0  3  0  0  0  0  0  0
  -28.6580  -13.3630   20.8720 C   0  0  0  0  0  2  0  0  0  0  0  0
  -29.9260  -13.7600   20.2430 N   0  0  0  0  0  0  0  0  0  0  0  0
  -31.7830  -15.0220   20.1960 O   0  0  0  0  0  0  0  0  0  0  0  0
  -29.5470  -17.4150   18.0110 C   0  0  0  0  0  2  0  0  0  0  0  0
  -30.6420  -18.0760   18.8250 C   0  0  0  0  0  2  0  0  0  0  0  0
  -28.9950  -16.2960   18.9090 C   0  0  0  0  0  2  0  0  0  0  0  0
  -30.2300  -17.7350   20.2520 C   0  0  0  0  0  3  0  0  0  0  0  0
  -29.8000  -16.2210   20.1450 N   0  0  0  0  0  0  0  0  0  0  0  0
  -25.2130  -13.8940   20.4730 C   0  0  0  0  0  0  0  0  0  0  0  0
  -24.1470  -13.1200   20.8340 C   0  0  0  0  0  0  0  0  0  0  0  0
  -24.6200  -11.7710   20.8240 C   0  0  0  0  0  0  0  0  0  0  0  0
  -26.2610  -13.0150   20.2570 N   0  0  0  0  0  0  0  0  0  0  0  0
  -25.9150  -11.7340   20.5350 N   0  0  0  0  0  0  0  0  0  0  0  0
  -23.9000  -10.5070   21.0160 C   0  0  0  0  0  0  0  0  0  0  0  0
  -24.3300   -9.5520   21.9630 C   0  0  0  0  0  3  0  0  0  0  0  0
  -23.6100   -8.3510   22.1420 C   0  0  0  0  0  3  0  0  0  0  0  0
  -22.4490   -8.1000   21.3750 C   0  0  0  0  0  0  0  0  0  0  0  0
  -22.0400   -9.0440   20.4180 C   0  0  0  0  0  3  0  0  0  0  0  0
  -22.7600  -10.2350   20.2350 C   0  0  0  0  0  3  0  0  0  0  0  0
  -21.7010   -6.9500   21.4650 O   0  0  0  0  0  0  0  0  0  0  0  0
  -21.6460   -6.2180   22.6230 C   0  0  0  0  0  0  0  0  0  0  0  0
  -21.2090   -6.7820   23.8410 C   0  0  0  0  0  3  0  0  0  0  0  0
  -21.1020   -5.9760   24.9920 C   0  0  0  0  0  3  0  0  0  0  0  0
  -21.4200   -4.6060   24.9250 C   0  0  0  0  0  0  0  0  0  0  0  0
  -21.8490   -4.0420   23.7120 C   0  0  0  0  0  3  0  0  0  0  0  0
  -21.9600   -4.8450   22.5630 C   0  0  0  0  0  0  0  0  0  0  0  0
  -22.3540   -4.2910   21.3910 F   0  0  0  0  0  0  0  0  0  0  0  0
  -21.3090   -3.8290   26.0280 F   0  0  0  0  0  0  0  0  0  0  0  0
  -22.7440  -13.5920   21.0780 C   0  0  0  0  0  0  0  0  0  0  0  0
  -22.0070  -12.9000   21.9400 N   0  0  0  0  0  0  0  0  0  0  0  0
  -22.3090  -14.6090   20.5400 O   0  0  0  0  0  0  0  0  0  0  0  0
  -22.3730  -12.0770   22.3950 H   0  0  0  0  0  0  0  0  0  0  0  0
  -21.0650  -13.2000   22.1490 H   0  0  0  0  0  0  0  0  0  0  0  0
  -25.3720  -15.2650   20.2860 N   0  0  0  0  0  0  0  0  0  0  0  0
  -24.6020  -15.9170   20.3920 H   0  0  0  0  0  0  0  0  0  0  0  0
  -26.2350  -15.7130   20.0120 H   0  0  0  0  0  0  0  0  0  0  0  0
  -28.3510  -24.9390   19.5370 C   0  0  0  0  0  2  0  0  0  0  0  0
  -28.2560  -26.2770   20.2970 O   0  0  0  0  0  0  0  0  0  0  0  0
  -24.6120  -31.9120   23.2410 C   0  0  0  0  0  0  0  0  0  0  0  0
  -27.1800  -27.2250   20.1820 C   0  0  0  0  0  0  0  0  0  0  0  0
  -23.4000  -30.5130   21.6130 C   0  0  0  0  0  3  0  0  0  0  0  0
  -24.8380  -28.9470   20.1750 C   0  0  0  0  0  0  0  0  0  0  0  0
  -25.9500  -30.7870   21.4270 C   0  0  0  0  0  2  0  0  0  0  0  0
  -26.0200  -29.3990   20.7750 C   0  0  0  0  0  0  0  0  0  0  0  0
  -27.1850  -28.5500   20.7690 C   0  0  0  0  0  3  0  0  0  0  0  0
  -25.9660  -26.8650   19.5510 C   0  0  0  0  0  3  0  0  0  0  0  0
  -24.8230  -27.6920   19.5500 C   0  0  0  0  0  3  0  0  0  0  0  0
  -23.6070  -29.8360   20.2320 C   0  0  0  0  0  2  0  0  0  0  0  0
  -24.6750  -31.0910   22.1490 N   0  0  0  0  0  0  0  0  0  0  0  0
  -23.5300  -32.1970   23.7760 O   0  0  0  0  0  0  0  0  0  0  0  0
  -22.7310  -29.5040   22.5800 C   0  0  0  0  0  0  0  0  0  0  0  0
  -21.4030  -29.3310   22.4600 N   0  0  0  0  0  0  0  0  0  0  0  0
  -23.4080  -28.8820   23.4020 O   0  0  0  0  0  0  0  0  0  0  0  0
  -20.9120  -29.8850   21.7720 H   0  0  0  0  0  0  0  0  0  0  0  0
  -18.0290  -28.1170   22.9690 C   0  0  0  0  0  0  0  0  0  0  0  0
  -20.5860  -28.3960   23.2380 C   0  0  0  0  0  3  0  0  0  0  0  0
  -20.6950  -26.9600   22.6750 C   0  0  0  0  0  2  0  0  0  0  0  0
  -19.5970  -26.6220   21.6630 C   0  0  0  0  0  2  0  0  0  0  0  0
  -18.2130  -26.7650   22.3040 C   0  0  0  0  0  2  0  0  0  0  0  0
  -19.1430  -28.8900   23.3930 C   0  0  0  0  0  0  0  0  0  0  0  0
  -18.9150  -30.1570   23.9760 C   0  0  0  0  0  3  0  0  0  0  0  0
  -17.6070  -30.6500   24.1380 C   0  0  0  0  0  3  0  0  0  0  0  0
  -16.5070  -29.8750   23.7300 C   0  0  0  0  0  3  0  0  0  0  0  0
  -16.7200  -28.6100   23.1520 C   0  0  0  0  0  3  0  0  0  0  0  0
  -25.8950  -32.5470   23.8570 C   0  0  0  0  0  3  0  0  0  0  0  0
  -25.5860  -33.9460   24.1890 N   0  0  0  0  0  0  0  0  0  0  0  0
  -25.9130  -35.0020   23.4310 C   0  0  0  0  0  0  0  0  0  0  0  0
  -26.5750  -34.9010   22.3940 O   0  0  0  0  0  0  0  0  0  0  0  0
  -24.9980  -34.1000   24.9950 H   0  0  0  0  0  0  0  0  0  0  0  0
  -24.1840  -36.8000   23.0990 C   0  0  0  0  0  1  0  0  0  0  0  0
  -25.4320  -36.3910   23.8960 C   0  0  0  0  0  3  0  0  0  0  0  0
  -27.5760  -37.2720   24.7080 C   0  0  0  0  0  1  0  0  0  0  0  0
  -26.4650  -37.4430   23.7770 N   0  0  0  0  0  0  0  0  0  0  0  0
  -26.0620  -38.3630   23.9310 H   0  0  0  0  0  0  0  0  0  0  0  0
  -26.4150  -31.7800   25.1360 C   0  0  1  0  0  0  0  0  0  0  0  0
  -25.3250  -31.5500   26.2090 C   0  0  0  0  0  1  0  0  0  0  0  0
  -26.9940  -30.4000   24.7520 C   0  0  0  0  0  1  0  0  0  0  0  0
  -27.5700  -32.5750   25.7900 C   0  0  0  0  0  1  0  0  0  0  0  0
  1  5  1  0
  2  1  1  0
  2  6  1  0
  3  9  1  0
  3  1  2  0
  4  2  2  0
  7  3  1  0
  8  7  2  0
  8  4  1  0
 11 16  1  0
 12 13  1  0
 12 11  1  0
 14 13  1  0
 14 26  1  0
 14 15  1  0
 16 10  1  0
 16 15  1  0
 17 10  2  0
 18 19  1  0
 18 20  1  0
 19 21  1  0
 20 22  1  0
 21  9  1  0
 22 21  1  0
 22 10  1  0
 23 24  2  0
 24 43  1  0
 25 24  1  0
 25 28  1  0
 26 23  1  0
 26 27  1  0
 27 25  2  0
 28 29  1  0
 29 30  2  0
 31 34  1  0
 31 30  1  0
 32 31  2  0
 33 32  1  0
 33 28  2  0
 34 35  1  0
 35 36  1  0
 36 37  2  0
 38 37  1  0
 38 42  1  0
 39 38  2  0
 40 35  2  0
 40 39  1  0
 41 40  1  0
 43 44  1  0
 44 47  1  0
 44 46  1  0
 45 43  2  0
 48 49  1  0
 48 23  1  0
 50 48  1  0
 51  4  1  0
 51 52  1  0
 53 64  2  0
 54 52  1  0
 54 59  1  0
 55 63  1  0
 55 65  1  0
 56 62  1  0
 56 58  1  0
 57 63  1  0
 58 57  1  0
 59 58  2  0
 60 54  2  0
 61 60  1  0
 61 56  2  0
 62 55  1  0
 63 53  1  0
 65 67  2  0
 66 65  1  0
 68 66  1  0
 69 78  2  0
 69 74  1  0
 70 66  1  0
 70 74  1  0
 71 70  1  0
 72 73  1  0
 72 71  1  0
 73 69  1  0
 74 75  2  0
 75 76  1  0
 77 76  2  0
 78 77  1  0
 79 53  1  0
 79 80  1  0
 79 89  1  0
 80 83  1  0
 81 85  1  0
 81 80  1  0
 82 81  2  0
 85 84  1  0
 87 85  1  0
 87 88  1  0
 87 86  1  0
 89 92  1  1
 89 90  1  0
 91 89  1  0
M  ISO  4  10 100  22 100  51 101  52 101
M  END
>  <TORSDO>  (63) 
F 18

>  <SCORE>  (63) 
-14.436

>  <name>  (63) 
62

>  <ligand_id>  (63) 
62

>  <original_smiles>  (63) 
[H]c1c([H])c([H])c2c(c1[H])C([H])([H])C([H])([H])C([H])([H])C2([H])N([H])C(=O)C1([H])N(C(=O)C([H])(N([H])C(=O)C([H])(N([H])C([H])([H])[H])C([H])([H])[H])C(C([H])([H])[H])(C([H])([H])[H])C([H])([H])[H])C([H])([H])c2c([H])c(OC([H])([H])c3nnc(C([H])([H])C4([H])N(C(=O)N5C([H])([H])C([H])([H])C([H])([H])C([H])(n6nc(-c7c([H])c([H])c(Oc8c([H])c([H])c(F)c([H])c8F)c([H])c7[H])c(C(=O)N([H])[H])c6N([H])[H])C5([H])[H])C([H])([H])C([H])([H])C4([H])[H])c(C([H])([H])[H])c3C([H])([H])[H])c([H])c([H])c2C1([H])[H]

>  <smiles>  (63) 
[H]c1c([H])c([H])c2c(c1[H])C([H])([H])C([H])([H])C([H])([H])C2([H])N([H])C(=O)C1([H])N(C(=O)C([H])(N([H])C(=O)C([H])(N([H])C([H])([H])[H])C([H])([H])[H])C(C([H])([H])[H])(C([H])([H])[H])C([H])([H])[H])C([H])([H])c2c([H])c(OC([H])([H])c3nnc(C([H])([H])C4([H])N(C(=O)N5C([H])([H])C([H])([H])C([H])([H])C([H])(n6nc(-c7c([H])c([H])c(Oc8c([H])c([H])c(F)c([H])c8F)c([H])c7[H])c(C(=O)N([H])[H])c6N([H])[H])C5([H])[H])C([H])([H])C([H])([H])C4([H])[H])c(C([H])([H])[H])c3C([H])([H])[H])c([H])c([H])c2C1([H])[H]

$$$$
63:0:0
     RDKit          3D

 96106  0  0  1  0  0  0  0  0999 V2000
  -29.1020  -20.8570   20.6690 C   0  0  0  0  0  3  0  0  0  0  0  0
  -29.3860  -19.9170   19.6600 C   0  0  0  0  0  0  0  0  0  0  0  0
  -29.2940  -22.2110   20.3550 C   0  0  0  0  0  0  0  0  0  0  0  0
  -29.9020  -21.6490   18.2380 C   0  0  0  0  0  0  0  0  0  0  0  0
  -30.3830  -22.0860   16.8720 C   0  0  0  0  0  1  0  0  0  0  0  0
  -29.7540  -20.3470   18.4390 N   0  0  0  0  0  0  0  0  0  0  0  0
  -29.6970  -22.5990   19.1390 N   0  0  0  0  0  0  0  0  0  0  0  0
  -29.1100  -23.2120   21.3150 N   0  0  0  0  0  0  0  0  0  0  0  0
  -28.7070  -22.9750   22.2160 H   0  0  0  0  0  0  0  0  0  0  0  0
  -30.6750  -14.4870   20.3010 C   0  0  0  0  0  0  0  0  0  0  0  0
  -30.3170  -12.3270   19.1970 C   0  0  0  0  0  2  0  0  0  0  0  0
  -29.3630  -12.5370   18.0050 C   0  0  0  0  0  2  0  0  0  0  0  0
  -27.8970  -12.4150   18.4620 C   0  0  0  0  0  2  0  0  0  0  0  0
  -27.5840  -13.2550   19.7320 C   0  0  0  0  0  3  0  0  0  0  0  0
  -28.6610  -13.0680   20.8230 C   0  0  0  0  0  2  0  0  0  0  0  0
  -29.9700  -13.3310   20.2120 N   0  0  0  0  0  0  0  0  0  0  0  0
  -31.8680  -14.5480   19.9880 O   0  0  0  0  0  0  0  0  0  0  0  0
  -31.5690  -17.3240   21.1410 C   0  0  0  0  0  2  0  0  0  0  0  0
  -31.6760  -17.7720   19.6590 C   0  0  0  0  0  2  0  0  0  0  0  0
  -29.1460  -17.8710   21.1560 C   0  0  0  0  0  2  0  0  0  0  0  0
  -29.7460  -16.2620   18.9950 C   0  0  0  0  0  2  0  0  0  0  0  0
  -30.1660  -16.6910   21.3470 C   0  0  0  0  0  3  0  0  0  0  0  0
  -30.2670  -17.7180   19.0030 C   0  0  0  0  0  3  0  0  0  0  0  0
  -29.3450  -18.5080   19.8330 N   0  0  0  0  0  0  0  0  0  0  0  0
  -29.9360  -15.6280   20.3240 N   0  0  0  0  0  0  0  0  0  0  0  0
  -25.2040  -13.8610   20.4860 C   0  0  0  0  0  0  0  0  0  0  0  0
  -24.1400  -13.0890   20.8640 C   0  0  0  0  0  0  0  0  0  0  0  0
  -24.5980  -11.7350   20.8190 C   0  0  0  0  0  0  0  0  0  0  0  0
  -26.2430  -12.9790   20.2360 N   0  0  0  0  0  0  0  0  0  0  0  0
  -25.8840  -11.6960   20.4950 N   0  0  0  0  0  0  0  0  0  0  0  0
  -23.8720  -10.4730   21.0070 C   0  0  0  0  0  0  0  0  0  0  0  0
  -24.2970   -9.5110   21.9490 C   0  0  0  0  0  3  0  0  0  0  0  0
  -23.5700   -8.3140   22.1270 C   0  0  0  0  0  3  0  0  0  0  0  0
  -22.4030   -8.0720   21.3630 C   0  0  0  0  0  0  0  0  0  0  0  0
  -21.9980   -9.0230   20.4100 C   0  0  0  0  0  3  0  0  0  0  0  0
  -22.7250  -10.2120   20.2310 C   0  0  0  0  0  3  0  0  0  0  0  0
  -21.6490   -6.9280   21.4490 O   0  0  0  0  0  0  0  0  0  0  0  0
  -21.5660   -6.2080   22.6140 C   0  0  0  0  0  0  0  0  0  0  0  0
  -21.0820   -6.7790   23.8110 C   0  0  0  0  0  3  0  0  0  0  0  0
  -20.9470   -5.9850   24.9660 C   0  0  0  0  0  3  0  0  0  0  0  0
  -21.2860   -4.6190   24.9260 C   0  0  0  0  0  0  0  0  0  0  0  0
  -21.7610   -4.0470   23.7320 C   0  0  0  0  0  3  0  0  0  0  0  0
  -21.8980   -4.8380   22.5800 C   0  0  0  0  0  0  0  0  0  0  0  0
  -22.3380   -4.2770   21.4280 F   0  0  0  0  0  0  0  0  0  0  0  0
  -21.1470   -3.8530   26.0330 F   0  0  0  0  0  0  0  0  0  0  0  0
  -22.7480  -13.5680   21.1560 C   0  0  0  0  0  0  0  0  0  0  0  0
  -22.0320  -12.8670   22.0290 N   0  0  0  0  0  0  0  0  0  0  0  0
  -22.3060  -14.5990   20.6490 O   0  0  0  0  0  0  0  0  0  0  0  0
  -22.4040  -12.0330   22.4590 H   0  0  0  0  0  0  0  0  0  0  0  0
  -21.0990  -13.1680   22.2700 H   0  0  0  0  0  0  0  0  0  0  0  0
  -25.3690  -15.2330   20.3120 N   0  0  0  0  0  0  0  0  0  0  0  0
  -24.5990  -15.8820   20.4170 H   0  0  0  0  0  0  0  0  0  0  0  0
  -26.2170  -15.6710   19.9740 H   0  0  0  0  0  0  0  0  0  0  0  0
  -29.3920  -24.6200   21.0250 C   0  0  0  0  0  2  0  0  0  0  0  0
  -28.2150  -25.3080   20.3220 C   0  0  0  0  0  2  0  0  0  0  0  0
  -28.4040  -26.7260   20.2430 O   0  0  0  0  0  0  0  0  0  0  0  0
  -24.5920  -31.8940   23.2520 C   0  0  0  0  0  0  0  0  0  0  0  0
  -27.2450  -27.4670   20.1830 C   0  0  0  0  0  0  0  0  0  0  0  0
  -23.3920  -30.4940   21.6030 C   0  0  0  0  0  3  0  0  0  0  0  0
  -24.8510  -28.9650   20.1780 C   0  0  0  0  0  0  0  0  0  0  0  0
  -25.9190  -30.8580   21.4160 C   0  0  0  0  0  2  0  0  0  0  0  0
  -26.0070  -29.4930   20.7710 C   0  0  0  0  0  0  0  0  0  0  0  0
  -27.2070  -28.7510   20.7670 C   0  0  0  0  0  3  0  0  0  0  0  0
  -26.0760  -26.9600   19.5680 C   0  0  0  0  0  3  0  0  0  0  0  0
  -24.8830  -27.7000   19.5710 C   0  0  0  0  0  3  0  0  0  0  0  0
  -23.6050  -29.8190   20.2230 C   0  0  0  0  0  2  0  0  0  0  0  0
  -24.6520  -31.0970   22.1490 N   0  0  0  0  0  0  0  0  0  0  0  0
  -23.5090  -32.1640   23.7890 O   0  0  0  0  0  0  0  0  0  0  0  0
  -22.7420  -29.4680   22.5610 C   0  0  0  0  0  0  0  0  0  0  0  0
  -21.4170  -29.2870   22.4340 N   0  0  0  0  0  0  0  0  0  0  0  0
  -23.4240  -28.8390   23.3750 O   0  0  0  0  0  0  0  0  0  0  0  0
  -20.9270  -29.8460   21.7500 H   0  0  0  0  0  0  0  0  0  0  0  0
  -18.0360  -28.1150   22.9350 C   0  0  0  0  0  0  0  0  0  0  0  0
  -20.5970  -28.3480   23.2000 C   0  0  0  0  0  3  0  0  0  0  0  0
  -20.6850  -26.9210   22.6130 C   0  0  0  0  0  2  0  0  0  0  0  0
  -19.5760  -26.6150   21.6000 C   0  0  0  0  0  2  0  0  0  0  0  0
  -18.1980  -26.7690   22.2510 C   0  0  0  0  0  2  0  0  0  0  0  0
  -19.1630  -28.8640   23.3670 C   0  0  0  0  0  0  0  0  0  0  0  0
  -18.9590  -30.1240   23.9660 C   0  0  0  0  0  3  0  0  0  0  0  0
  -17.6610  -30.6360   24.1420 C   0  0  0  0  0  3  0  0  0  0  0  0
  -16.5470  -29.8850   23.7290 C   0  0  0  0  0  3  0  0  0  0  0  0
  -16.7370  -28.6270   23.1300 C   0  0  0  0  0  3  0  0  0  0  0  0
  -25.8760  -32.5260   23.8760 C   0  0  0  0  0  3  0  0  0  0  0  0
  -25.5640  -33.9230   24.2050 N   0  0  0  0  0  0  0  0  0  0  0  0
  -25.8870  -34.9750   23.4400 C   0  0  0  0  0  0  0  0  0  0  0  0
  -26.5490  -34.8710   22.4040 O   0  0  0  0  0  0  0  0  0  0  0  0
  -24.9730  -34.0770   25.0070 H   0  0  0  0  0  0  0  0  0  0  0  0
  -24.1420  -36.7540   23.0980 C   0  0  0  0  0  1  0  0  0  0  0  0
  -25.3950  -36.3610   23.8970 C   0  0  0  0  0  3  0  0  0  0  0  0
  -27.5310  -37.2620   24.7030 C   0  0  0  0  0  1  0  0  0  0  0  0
  -26.4180  -37.4190   23.7700 N   0  0  0  0  0  0  0  0  0  0  0  0
  -26.0080  -38.3380   23.9150 H   0  0  0  0  0  0  0  0  0  0  0  0
  -26.3900  -31.7520   25.1520 C   0  0  1  0  0  0  0  0  0  0  0  0
  -25.2940  -31.5130   26.2170 C   0  0  0  0  0  1  0  0  0  0  0  0
  -26.9750  -30.3770   24.7560 C   0  0  0  0  0  1  0  0  0  0  0  0
  -27.5390  -32.5460   25.8180 C   0  0  0  0  0  1  0  0  0  0  0  0
  2 24  1  0
  2  1  2  0
  3  1  1  0
  3  8  1  0
  4  6  2  0
  4  7  1  0
  5  4  1  0
  6  2  1  0
  7  3  2  0
  8  9  1  0
 10 25  1  0
 11 16  1  0
 12 13  1  0
 12 11  1  0
 14 13  1  0
 14 29  1  0
 14 15  1  0
 16 10  1  0
 16 15  1  0
 17 10  2  0
 19 18  1  0
 20 22  1  0
 21 25  1  0
 22 18  1  0
 23 21  1  0
 23 19  1  0
 23 24  1  0
 24 20  1  0
 25 22  1  0
 26 27  2  0
 27 46  1  0
 28 27  1  0
 28 31  1  0
 29 26  1  0
 29 30  1  0
 30 28  2  0
 31 32  1  0
 32 33  2  0
 34 37  1  0
 34 33  1  0
 35 34  2  0
 36 35  1  0
 36 31  2  0
 37 38  1  0
 38 39  1  0
 39 40  2  0
 41 40  1  0
 41 45  1  0
 42 41  2  0
 43 38  2  0
 43 42  1  0
 44 43  1  0
 46 47  1  0
 47 50  1  0
 47 49  1  0
 48 46  2  0
 51 52  1  0
 51 26  1  0
 53 51  1  0
 54  8  1  0
 55 54  1  0
 56 55  1  0
 57 68  2  0
 58 56  1  0
 58 63  1  0
 59 67  1  0
 59 69  1  0
 60 66  1  0
 60 62  1  0
 61 67  1  0
 62 61  1  0
 63 62  2  0
 64 65  1  0
 64 58  2  0
 65 60  2  0
 66 59  1  0
 67 57  1  0
 69 71  2  0
 70 69  1  0
 72 70  1  0
 73 82  2  0
 73 78  1  0
 74 70  1  0
 74 78  1  0
 75 74  1  0
 76 77  1  0
 76 75  1  0
 77 73  1  0
 78 79  2  0
 79 80  1  0
 81 80  2  0
 82 81  1  0
 83 57  1  0
 83 84  1  0
 83 93  1  0
 84 87  1  0
 85 89  1  0
 85 84  1  0
 86 85  2  0
 89 88  1  0
 91 89  1  0
 91 92  1  0
 91 90  1  0
 93 96  1  1
 93 94  1  0
 95 93  1  0
M  ISO  4  10 100  25 100  55 101  56 101
M  END
>  <TORSDO>  (64) 
F 18

>  <SCORE>  (64) 
-14.824

>  <name>  (64) 
63

>  <ligand_id>  (64) 
63

>  <original_smiles>  (64) 
[H]c1c(N([H])C([H])([H])C([H])([H])Oc2c([H])c([H])c3c(c2[H])C([H])([H])N(C(=O)C([H])(N([H])C(=O)C([H])(N([H])C([H])([H])[H])C([H])([H])[H])C(C([H])([H])[H])(C([H])([H])[H])C([H])([H])[H])C([H])(C(=O)N([H])C2([H])c4c([H])c([H])c([H])c([H])c4C([H])([H])C([H])([H])C2([H])[H])C3([H])[H])nc(C([H])([H])[H])nc1N1C([H])([H])C2([H])N(C(=O)N3C([H])([H])C([H])([H])C([H])([H])C([H])(n4nc(-c5c([H])c([H])c(Oc6c([H])c([H])c(F)c([H])c6F)c([H])c5[H])c(C(=O)N([H])[H])c4N([H])[H])C3([H])[H])C([H])([H])C1([H])C([H])([H])C2([H])[H]

>  <smiles>  (64) 
[H]c1c(N([H])C([H])([H])C([H])([H])Oc2c([H])c([H])c3c(c2[H])C([H])([H])N(C(=O)C([H])(N([H])C(=O)C([H])(N([H])C([H])([H])[H])C([H])([H])[H])C(C([H])([H])[H])(C([H])([H])[H])C([H])([H])[H])C([H])(C(=O)N([H])C2([H])c4c([H])c([H])c([H])c([H])c4C([H])([H])C([H])([H])C2([H])[H])C3([H])[H])nc(C([H])([H])[H])nc1N1C([H])([H])C2([H])N(C(=O)N3C([H])([H])C([H])([H])C([H])([H])C([H])(n4nc(-c5c([H])c([H])c(Oc6c([H])c([H])c(F)c([H])c6F)c([H])c5[H])c(C(=O)N([H])[H])c4N([H])[H])C3([H])[H])C([H])([H])C1([H])C([H])([H])C2([H])[H]

$$$$
64:0:0
     RDKit          3D

 89 97  0  0  1  0  0  0  0  0999 V2000
  -30.9540  -18.6840   21.1260 C   0  0  0  0  0  3  0  0  0  0  0  0
  -30.5150  -21.0430   21.1810 C   0  0  0  0  0  0  0  0  0  0  0  0
  -29.2900  -20.9880   20.4610 C   0  0  0  0  0  0  0  0  0  0  0  0
  -29.7770  -18.3210   20.4360 C   0  0  0  0  0  0  0  0  0  0  0  0
  -31.1030  -22.3600   21.6490 C   0  0  0  0  0  1  0  0  0  0  0  0
  -31.2900  -19.9570   21.4840 N   0  0  0  0  0  0  0  0  0  0  0  0
  -28.9830  -19.5590   20.1110 N   0  0  0  0  0  0  0  0  0  0  0  0
  -30.3740  -15.4220   20.2470 C   0  0  0  0  0  0  0  0  0  0  0  0
  -30.3980  -12.9590   19.3430 C   0  0  0  0  0  2  0  0  0  0  0  0
  -29.4690  -12.7010   18.1290 C   0  0  0  0  0  2  0  0  0  0  0  0
  -28.0320  -12.3980   18.5900 C   0  0  0  0  0  2  0  0  0  0  0  0
  -27.5740  -13.3570   19.7160 C   0  0  0  0  0  3  0  0  0  0  0  0
  -28.6340  -13.5350   20.8240 C   0  0  0  0  0  2  0  0  0  0  0  0
  -29.8290  -14.0960   20.1660 N   0  0  0  0  0  0  0  0  0  0  0  0
  -31.6040  -15.4110   20.0710 O   0  0  0  0  0  0  0  0  0  0  0  0
  -29.5810  -16.7000   20.2640 N   0  0  0  0  0  0  0  0  0  0  0  0
  -28.6040  -16.4720   20.1850 H   0  0  0  0  0  0  0  0  0  0  0  0
  -25.2070  -13.8870   20.4930 C   0  0  0  0  0  0  0  0  0  0  0  0
  -24.1570  -13.0970   20.8690 C   0  0  0  0  0  0  0  0  0  0  0  0
  -24.6400  -11.7530   20.8350 C   0  0  0  0  0  0  0  0  0  0  0  0
  -26.2560  -13.0240   20.2400 N   0  0  0  0  0  0  0  0  0  0  0  0
  -25.9290  -11.7340   20.5130 N   0  0  0  0  0  0  0  0  0  0  0  0
  -23.9270  -10.4820   21.0280 C   0  0  0  0  0  0  0  0  0  0  0  0
  -24.3750   -9.5160   21.9560 C   0  0  0  0  0  3  0  0  0  0  0  0
  -23.6590   -8.3140   22.1400 C   0  0  0  0  0  3  0  0  0  0  0  0
  -22.4820   -8.0670   21.3940 C   0  0  0  0  0  0  0  0  0  0  0  0
  -22.0540   -9.0200   20.4520 C   0  0  0  0  0  3  0  0  0  0  0  0
  -22.7710  -10.2130   20.2670 C   0  0  0  0  0  3  0  0  0  0  0  0
  -21.7380   -6.9170   21.4870 O   0  0  0  0  0  0  0  0  0  0  0  0
  -21.7030   -6.1720   22.6380 C   0  0  0  0  0  0  0  0  0  0  0  0
  -21.2840   -6.7210   23.8690 C   0  0  0  0  0  3  0  0  0  0  0  0
  -21.1990   -5.9020   25.0130 C   0  0  0  0  0  3  0  0  0  0  0  0
  -21.5240   -4.5340   24.9280 C   0  0  0  0  0  0  0  0  0  0  0  0
  -21.9380   -3.9850   23.7010 C   0  0  0  0  0  3  0  0  0  0  0  0
  -22.0240   -4.8010   22.5590 C   0  0  0  0  0  0  0  0  0  0  0  0
  -22.4030   -4.2610   21.3760 F   0  0  0  0  0  0  0  0  0  0  0  0
  -21.4340   -3.7460   26.0230 F   0  0  0  0  0  0  0  0  0  0  0  0
  -22.7560  -13.5590   21.1410 C   0  0  0  0  0  0  0  0  0  0  0  0
  -22.0380  -12.8540   22.0090 N   0  0  0  0  0  0  0  0  0  0  0  0
  -22.3060  -14.5780   20.6190 O   0  0  0  0  0  0  0  0  0  0  0  0
  -22.4190  -12.0320   22.4530 H   0  0  0  0  0  0  0  0  0  0  0  0
  -21.0960  -13.1410   22.2300 H   0  0  0  0  0  0  0  0  0  0  0  0
  -25.3520  -15.2610   20.3170 N   0  0  0  0  0  0  0  0  0  0  0  0
  -24.5770  -15.9050   20.4380 H   0  0  0  0  0  0  0  0  0  0  0  0
  -26.1780  -15.7070   19.9450 H   0  0  0  0  0  0  0  0  0  0  0  0
  -27.2010  -22.1780   19.3160 C   0  0  0  0  0  1  0  0  0  0  0  0
  -28.5590  -22.5380   19.9290 C   0  0  0  0  0  3  0  0  0  0  0  0
  -28.2960  -24.2210   20.6580 C   0  0  0  0  0  2  0  0  0  0  0  0
  -28.2700  -25.8510   20.2300 O   0  0  0  0  0  0  0  0  0  0  0  0
  -24.6290  -31.8760   23.2070 C   0  0  0  0  0  0  0  0  0  0  0  0
  -27.2200  -26.9300   20.2760 C   0  0  0  0  0  0  0  0  0  0  0  0
  -23.4520  -30.4580   21.5770 C   0  0  0  0  0  3  0  0  0  0  0  0
  -24.9140  -28.8270   20.1940 C   0  0  0  0  0  0  0  0  0  0  0  0
  -26.0220  -30.6650   21.4470 C   0  0  0  0  0  2  0  0  0  0  0  0
  -26.1020  -29.2400   20.8120 C   0  0  0  0  0  0  0  0  0  0  0  0
  -27.2490  -28.3170   20.8160 C   0  0  0  0  0  3  0  0  0  0  0  0
  -25.9970  -26.6760   19.6150 C   0  0  0  0  0  3  0  0  0  0  0  0
  -24.8900  -27.5680   19.5720 C   0  0  0  0  0  3  0  0  0  0  0  0
  -23.6950  -29.7510   20.2150 C   0  0  0  0  0  2  0  0  0  0  0  0
  -24.7230  -31.0280   22.1310 N   0  0  0  0  0  0  0  0  0  0  0  0
  -23.5340  -32.1690   23.7170 O   0  0  0  0  0  0  0  0  0  0  0  0
  -22.7510  -29.4760   22.5520 C   0  0  0  0  0  0  0  0  0  0  0  0
  -21.4190  -29.3170   22.4270 N   0  0  0  0  0  0  0  0  0  0  0  0
  -23.4120  -28.8530   23.3860 O   0  0  0  0  0  0  0  0  0  0  0  0
  -20.9400  -29.8660   21.7270 H   0  0  0  0  0  0  0  0  0  0  0  0
  -18.0320  -28.1250   22.9470 C   0  0  0  0  0  0  0  0  0  0  0  0
  -20.5930  -28.3870   23.2050 C   0  0  0  0  0  3  0  0  0  0  0  0
  -20.6900  -26.9520   22.6360 C   0  0  0  0  0  2  0  0  0  0  0  0
  -19.5860  -26.6270   21.6250 C   0  0  0  0  0  2  0  0  0  0  0  0
  -18.2050  -26.7740   22.2720 C   0  0  0  0  0  2  0  0  0  0  0  0
  -19.1520  -28.8880   23.3710 C   0  0  0  0  0  0  0  0  0  0  0  0
  -18.9330  -30.1510   23.9650 C   0  0  0  0  0  3  0  0  0  0  0  0
  -17.6280  -30.6470   24.1400 C   0  0  0  0  0  3  0  0  0  0  0  0
  -16.5220  -29.8810   23.7310 C   0  0  0  0  0  3  0  0  0  0  0  0
  -16.7260  -28.6200   23.1400 C   0  0  0  0  0  3  0  0  0  0  0  0
  -25.8900  -32.5340   23.8450 C   0  0  0  0  0  3  0  0  0  0  0  0
  -25.5640  -33.9360   24.1620 N   0  0  0  0  0  0  0  0  0  0  0  0
  -25.9020  -34.9930   23.4130 C   0  0  0  0  0  0  0  0  0  0  0  0
  -26.5830  -34.8910   22.3890 O   0  0  0  0  0  0  0  0  0  0  0  0
  -24.9570  -34.0870   24.9550 H   0  0  0  0  0  0  0  0  0  0  0  0
  -24.1780  -36.7930   23.0450 C   0  0  0  0  0  1  0  0  0  0  0  0
  -25.4110  -36.3830   23.8670 C   0  0  0  0  0  3  0  0  0  0  0  0
  -27.5350  -37.2740   24.7200 C   0  0  0  0  0  1  0  0  0  0  0  0
  -26.4450  -37.4370   23.7630 N   0  0  0  0  0  0  0  0  0  0  0  0
  -26.0360  -38.3580   23.9030 H   0  0  0  0  0  0  0  0  0  0  0  0
  -26.3840  -31.7870   25.1460 C   0  0  1  0  0  0  0  0  0  0  0  0
  -25.2730  -31.5700   26.1990 C   0  0  0  0  0  1  0  0  0  0  0  0
  -26.9740  -30.4020   24.7980 C   0  0  0  0  0  1  0  0  0  0  0  0
  -27.5240  -32.5950   25.8120 C   0  0  0  0  0  1  0  0  0  0  0  0
  1  6  1  0
  2  6  2  0
  2  5  1  0
  3  2  1  0
  4  1  2  0
  7  4  1  0
  7  3  2  0
  8 16  1  0
  9 14  1  0
 10 11  1  0
 10  9  1  0
 12 11  1  0
 12 21  1  0
 12 13  1  0
 14  8  1  0
 14 13  1  0
 15  8  2  0
 16  4  1  0
 17 16  1  0
 18 19  2  0
 19 38  1  0
 20 19  1  0
 20 23  1  0
 21 18  1  0
 21 22  1  0
 22 20  2  0
 23 24  1  0
 24 25  2  0
 26 29  1  0
 26 25  1  0
 27 26  2  0
 28 27  1  0
 28 23  2  0
 29 30  1  0
 30 31  1  0
 31 32  2  0
 33 32  1  0
 33 37  1  0
 34 33  2  0
 35 30  2  0
 35 34  1  0
 36 35  1  0
 38 39  1  0
 39 42  1  0
 39 41  1  0
 40 38  2  0
 43 44  1  0
 43 18  1  0
 45 43  1  0
 47 46  1  0
 47  3  1  0
 47 48  1  0
 49 51  1  0
 49 48  1  0
 50 61  2  0
 51 56  1  0
 52 60  1  0
 52 62  1  0
 53 59  1  0
 53 55  1  0
 54 60  1  0
 55 56  2  0
 55 54  1  0
 57 51  2  0
 58 57  1  0
 58 53  2  0
 59 52  1  0
 60 50  1  0
 62 64  2  0
 63 62  1  0
 65 63  1  0
 66 75  2  0
 66 71  1  0
 67 63  1  0
 67 71  1  0
 68 67  1  0
 69 70  1  0
 69 68  1  0
 70 66  1  0
 71 72  2  0
 72 73  1  0
 74 73  2  0
 75 74  1  0
 76 50  1  0
 76 77  1  0
 76 86  1  0
 77 80  1  0
 78 82  1  0
 78 77  1  0
 79 78  2  0
 82 81  1  0
 84 82  1  0
 84 85  1  0
 84 83  1  0
 86 89  1  1
 86 87  1  0
 88 86  1  0
M  ISO  4   8 100  16 100  48 101  49 101
M  END
>  <TORSDO>  (65) 
F 18

>  <SCORE>  (65) 
-16.395

>  <name>  (65) 
64

>  <ligand_id>  (65) 
64

>  <original_smiles>  (65) 
[H]c1nc(C([H])([H])[H])c(C([H])(C([H])([H])[H])C([H])([H])Oc2c([H])c([H])c3c(c2[H])C([H])([H])N(C(=O)C([H])(N([H])C(=O)C([H])(N([H])C([H])([H])[H])C([H])([H])[H])C(C([H])([H])[H])(C([H])([H])[H])C([H])([H])[H])C([H])(C(=O)N([H])C2([H])c4c([H])c([H])c([H])c([H])c4C([H])([H])C([H])([H])C2([H])[H])C3([H])[H])nc1N([H])C(=O)N1C([H])([H])C([H])([H])C([H])([H])C([H])(n2nc(-c3c([H])c([H])c(Oc4c([H])c([H])c(F)c([H])c4F)c([H])c3[H])c(C(=O)N([H])[H])c2N([H])[H])C1([H])[H]

>  <smiles>  (65) 
[H]c1nc(C([H])([H])[H])c(C([H])(C([H])([H])[H])C([H])([H])Oc2c([H])c([H])c3c(c2[H])C([H])([H])N(C(=O)C([H])(N([H])C(=O)C([H])(N([H])C([H])([H])[H])C([H])([H])[H])C(C([H])([H])[H])(C([H])([H])[H])C([H])([H])[H])C([H])(C(=O)N([H])C2([H])c4c([H])c([H])c([H])c([H])c4C([H])([H])C([H])([H])C2([H])[H])C3([H])[H])nc1N([H])C(=O)N1C([H])([H])C([H])([H])C([H])([H])C([H])(n2nc(-c3c([H])c([H])c(Oc4c([H])c([H])c(F)c([H])c4F)c([H])c3[H])c(C(=O)N([H])[H])c2N([H])[H])C1([H])[H]

$$$$
65:0:0
     RDKit          3D

 91100  0  0  1  0  0  0  0  0999 V2000
  -30.7640  -15.0100   20.1340 C   0  0  0  0  0  0  0  0  0  0  0  0
  -30.5390  -12.5830   19.4460 C   0  0  0  0  0  2  0  0  0  0  0  0
  -29.6370  -12.4030   18.2070 C   0  0  0  0  0  2  0  0  0  0  0  0
  -28.1670  -12.2630   18.6360 C   0  0  0  0  0  2  0  0  0  0  0  0
  -27.7510  -13.3250   19.6880 C   0  0  0  0  0  3  0  0  0  0  0  0
  -28.7890  -13.4850   20.8190 C   0  0  0  0  0  2  0  0  0  0  0  0
  -30.0660  -13.8020   20.1720 N   0  0  0  0  0  0  0  0  0  0  0  0
  -31.9760  -14.9100   19.9140 O   0  0  0  0  0  0  0  0  0  0  0  0
  -30.8260  -21.3890   20.2100 C   0  0  0  0  0  3  0  0  0  0  0  0
  -31.1210  -22.7610   20.2680 C   0  0  0  0  0  3  0  0  0  0  0  0
  -29.6240  -20.9740   19.6370 C   0  0  0  0  0  0  0  0  0  0  0  0
  -29.1500  -23.3720   19.2430 C   0  0  0  0  0  0  0  0  0  0  0  0
  -30.1060  -18.6800   18.6070 C   0  0  0  0  0  2  0  0  0  0  0  0
  -30.8920  -17.3620   19.1230 C   0  0  0  0  0  2  0  0  0  0  0  0
  -29.1020  -17.0510   20.6550 C   0  0  0  0  0  2  0  0  0  0  0  0
  -29.2660  -18.6690   20.8350 C   0  0  0  0  0  3  0  0  0  0  0  0
  -28.1520  -19.1940   21.7530 C   0  0  0  0  0  1  0  0  0  0  0  0
  -30.3040  -23.7270   19.7970 N   0  0  0  0  0  0  0  0  0  0  0  0
  -28.8000  -22.0120   19.1510 N   0  0  0  0  0  0  0  0  0  0  0  0
  -29.3490  -19.5100   19.5900 N   0  0  0  0  0  0  0  0  0  0  0  0
  -30.1620  -16.2940   19.9020 N   0  0  0  0  0  0  0  0  0  0  0  0
  -25.4130  -14.0180   20.4530 C   0  0  0  0  0  0  0  0  0  0  0  0
  -24.3120  -13.2980   20.8190 C   0  0  0  0  0  0  0  0  0  0  0  0
  -24.7030  -11.9240   20.7760 C   0  0  0  0  0  0  0  0  0  0  0  0
  -26.4060  -13.0890   20.1990 N   0  0  0  0  0  0  0  0  0  0  0  0
  -25.9890  -11.8220   20.4610 N   0  0  0  0  0  0  0  0  0  0  0  0
  -23.9100  -10.7010   20.9560 C   0  0  0  0  0  0  0  0  0  0  0  0
  -24.3080   -9.6860   21.8550 C   0  0  0  0  0  3  0  0  0  0  0  0
  -23.5160   -8.5310   22.0260 C   0  0  0  0  0  3  0  0  0  0  0  0
  -22.3110   -8.3800   21.2990 C   0  0  0  0  0  0  0  0  0  0  0  0
  -21.9310   -9.3830   20.3890 C   0  0  0  0  0  3  0  0  0  0  0  0
  -22.7230  -10.5300   20.2150 C   0  0  0  0  0  3  0  0  0  0  0  0
  -21.4920   -7.2810   21.3830 O   0  0  0  0  0  0  0  0  0  0  0  0
  -21.4510   -6.4980   22.5080 C   0  0  0  0  0  0  0  0  0  0  0  0
  -21.1140   -7.0270   23.7730 C   0  0  0  0  0  3  0  0  0  0  0  0
  -21.0150   -6.1740   24.8900 C   0  0  0  0  0  3  0  0  0  0  0  0
  -21.2430   -4.7930   24.7440 C   0  0  0  0  0  0  0  0  0  0  0  0
  -21.5730   -4.2630   23.4850 C   0  0  0  0  0  3  0  0  0  0  0  0
  -21.6730   -5.1130   22.3690 C   0  0  0  0  0  0  0  0  0  0  0  0
  -21.9710   -4.5930   21.1540 F   0  0  0  0  0  0  0  0  0  0  0  0
  -21.1410   -3.9710   25.8150 F   0  0  0  0  0  0  0  0  0  0  0  0
  -22.9420  -13.8470   21.0970 C   0  0  0  0  0  0  0  0  0  0  0  0
  -22.1830  -13.1900   21.9660 N   0  0  0  0  0  0  0  0  0  0  0  0
  -22.5580  -14.8940   20.5780 O   0  0  0  0  0  0  0  0  0  0  0  0
  -22.5080  -12.3420   22.4070 H   0  0  0  0  0  0  0  0  0  0  0  0
  -21.2630  -13.5400   22.1950 H   0  0  0  0  0  0  0  0  0  0  0  0
  -25.6470  -15.3790   20.2840 N   0  0  0  0  0  0  0  0  0  0  0  0
  -24.9160  -16.0710   20.4020 H   0  0  0  0  0  0  0  0  0  0  0  0
  -26.5130  -15.7720   19.9380 H   0  0  0  0  0  0  0  0  0  0  0  0
  -28.2170  -24.6320   18.7270 C   0  0  0  0  0  2  0  0  0  0  0  0
  -28.4650  -26.1540   18.9840 O   0  0  0  0  0  0  0  0  0  0  0  0
  -24.5850  -31.2230   22.6780 C   0  0  0  0  0  0  0  0  0  0  0  0
  -27.3620  -27.0850   19.0420 C   0  0  0  0  0  0  0  0  0  0  0  0
  -23.4290  -29.9560   20.9100 C   0  0  0  0  0  3  0  0  0  0  0  0
  -24.9310  -28.6670   19.2710 C   0  0  0  0  0  0  0  0  0  0  0  0
  -25.9560  -30.4090   20.7230 C   0  0  0  0  0  2  0  0  0  0  0  0
  -26.0980  -29.1130   19.9050 C   0  0  0  0  0  0  0  0  0  0  0  0
  -27.3130  -28.3390   19.7760 C   0  0  0  0  0  3  0  0  0  0  0  0
  -26.1610  -26.7510   18.3760 C   0  0  0  0  0  3  0  0  0  0  0  0
  -24.9750  -27.5040   18.4920 C   0  0  0  0  0  3  0  0  0  0  0  0
  -23.6510  -29.4680   19.4540 C   0  0  0  0  0  2  0  0  0  0  0  0
  -24.6770  -30.5450   21.4930 N   0  0  0  0  0  0  0  0  0  0  0  0
  -23.4990  -31.3690   23.2590 O   0  0  0  0  0  0  0  0  0  0  0  0
  -22.8460  -28.7960   21.7560 C   0  0  0  0  0  0  0  0  0  0  0  0
  -21.5220  -28.5780   21.6690 N   0  0  0  0  0  0  0  0  0  0  0  0
  -23.5860  -28.1010   22.4570 O   0  0  0  0  0  0  0  0  0  0  0  0
  -20.9770  -29.1960   21.0830 H   0  0  0  0  0  0  0  0  0  0  0  0
  -18.2220  -27.1780   22.1900 C   0  0  0  0  0  0  0  0  0  0  0  0
  -20.7820  -27.5080   22.3450 C   0  0  0  0  0  3  0  0  0  0  0  0
  -20.8960  -26.1760   21.5690 C   0  0  0  0  0  2  0  0  0  0  0  0
  -19.7450  -25.9500   20.5840 C   0  0  0  0  0  2  0  0  0  0  0  0
  -18.4020  -25.9440   21.3200 C   0  0  0  0  0  2  0  0  0  0  0  0
  -19.3370  -27.9210   22.6580 C   0  0  0  0  0  0  0  0  0  0  0  0
  -19.1120  -29.0750   23.4370 C   0  0  0  0  0  3  0  0  0  0  0  0
  -17.8030  -29.4900   23.7490 C   0  0  0  0  0  3  0  0  0  0  0  0
  -16.7030  -28.7440   23.2940 C   0  0  0  0  0  3  0  0  0  0  0  0
  -16.9130  -27.5880   22.5200 C   0  0  0  0  0  3  0  0  0  0  0  0
  -25.8380  -31.8650   23.3490 C   0  0  0  0  0  3  0  0  0  0  0  0
  -25.4330  -33.1680   23.8990 N   0  0  0  0  0  0  0  0  0  0  0  0
  -25.6510  -34.3500   23.3070 C   0  0  0  0  0  0  0  0  0  0  0  0
  -26.2810  -34.4610   22.2520 O   0  0  0  0  0  0  0  0  0  0  0  0
  -24.8620  -33.1480   24.7320 H   0  0  0  0  0  0  0  0  0  0  0  0
  -23.7730  -36.0260   23.3010 C   0  0  0  0  0  1  0  0  0  0  0  0
  -25.0820  -35.6080   23.9930 C   0  0  0  0  0  3  0  0  0  0  0  0
  -27.1780  -36.5360   24.8720 C   0  0  0  0  0  1  0  0  0  0  0  0
  -26.0220  -36.7490   24.0050 N   0  0  0  0  0  0  0  0  0  0  0  0
  -25.5530  -37.6000   24.3040 H   0  0  0  0  0  0  0  0  0  0  0  0
  -26.4660  -30.9620   24.4800 C   0  0  1  0  0  0  0  0  0  0  0  0
  -25.4430  -30.4920   25.5410 C   0  0  0  0  0  1  0  0  0  0  0  0
  -27.1260  -29.7010   23.8760 C   0  0  0  0  0  1  0  0  0  0  0  0
  -27.5860  -31.7400   25.2090 C   0  0  0  0  0  1  0  0  0  0  0  0
  1  7  1  0
  2  7  1  0
  3  4  1  0
  3  2  1  0
  5  4  1  0
  5 25  1  0
  5  6  1  0
  7  6  1  0
  8  1  2  0
  9 10  2  0
 11  9  1  0
 12 18  2  0
 13 14  1  0
 13 20  1  0
 14 21  1  0
 15 16  1  0
 16 17  1  0
 18 10  1  0
 19 12  1  0
 19 11  2  0
 20 11  1  0
 20 16  1  0
 21  1  1  0
 21 15  1  0
 22 23  2  0
 23 42  1  0
 24 23  1  0
 24 27  1  0
 25 22  1  0
 25 26  1  0
 26 24  2  0
 27 28  1  0
 28 29  2  0
 30 33  1  0
 30 29  1  0
 31 30  2  0
 32 31  1  0
 32 27  2  0
 33 34  1  0
 34 35  1  0
 35 36  2  0
 37 36  1  0
 37 41  1  0
 38 37  2  0
 39 34  2  0
 39 38  1  0
 40 39  1  0
 42 43  1  0
 43 46  1  0
 43 45  1  0
 44 42  2  0
 47 48  1  0
 47 22  1  0
 49 47  1  0
 50 51  1  0
 50 12  1  0
 51 53  1  0
 52 63  2  0
 53 58  1  0
 54 62  1  0
 54 64  1  0
 55 61  1  0
 55 57  1  0
 56 62  1  0
 57 56  1  0
 58 57  2  0
 59 60  1  0
 59 53  2  0
 60 55  2  0
 61 54  1  0
 62 52  1  0
 64 66  2  0
 65 64  1  0
 67 65  1  0
 68 77  2  0
 68 73  1  0
 69 65  1  0
 69 73  1  0
 70 69  1  0
 71 72  1  0
 71 70  1  0
 72 68  1  0
 73 74  2  0
 74 75  1  0
 76 75  2  0
 77 76  1  0
 78 52  1  0
 78 79  1  0
 78 88  1  0
 79 82  1  0
 80 79  1  0
 80 84  1  0
 81 80  2  0
 84 83  1  0
 84 86  1  0
 86 87  1  0
 86 85  1  0
 88 91  1  1
 88 89  1  0
 90 88  1  0
M  ISO  4   1 100  21 100  50 101  51 101
M  END
>  <TORSDO>  (66) 
F 16

>  <SCORE>  (66) 
-10.659

>  <name>  (66) 
65

>  <ligand_id>  (66) 
65

>  <original_smiles>  (66) 
[H]c1nc(C([H])([H])Oc2c([H])c([H])c3c(c2[H])C([H])([H])N(C(=O)C([H])(N([H])C(=O)C([H])(N([H])C([H])([H])[H])C([H])([H])[H])C(C([H])([H])[H])(C([H])([H])[H])C([H])([H])[H])C([H])(C(=O)N([H])C2([H])c4c([H])c([H])c([H])c([H])c4C([H])([H])C([H])([H])C2([H])[H])C3([H])[H])nc(N2C([H])([H])C([H])([H])N(C(=O)N3C([H])([H])C([H])([H])C([H])([H])C([H])(n4nc(-c5c([H])c([H])c(Oc6c([H])c([H])c(F)c([H])c6F)c([H])c5[H])c(C(=O)N([H])[H])c4N([H])[H])C3([H])[H])C([H])([H])C2([H])C([H])([H])[H])c1[H]

>  <smiles>  (66) 
[H]c1nc(C([H])([H])Oc2c([H])c([H])c3c(c2[H])C([H])([H])N(C(=O)C([H])(N([H])C(=O)C([H])(N([H])C([H])([H])[H])C([H])([H])[H])C(C([H])([H])[H])(C([H])([H])[H])C([H])([H])[H])C([H])(C(=O)N([H])C2([H])c4c([H])c([H])c([H])c([H])c4C([H])([H])C([H])([H])C2([H])[H])C3([H])[H])nc(N2C([H])([H])C([H])([H])N(C(=O)N3C([H])([H])C([H])([H])C([H])([H])C([H])(n4nc(-c5c([H])c([H])c(Oc6c([H])c([H])c(F)c([H])c6F)c([H])c5[H])c(C(=O)N([H])[H])c4N([H])[H])C3([H])[H])C([H])([H])C2([H])C([H])([H])[H])c1[H]

$$$$
66:0:0
     RDKit          3D

 89 97  0  0  1  0  0  0  0  0999 V2000
  -30.4870  -15.2510   20.3040 C   0  0  0  0  0  0  0  0  0  0  0  0
  -30.5000  -12.7540   19.6250 C   0  0  0  0  0  2  0  0  0  0  0  0
  -29.6240  -12.4940   18.3730 C   0  0  0  0  0  2  0  0  0  0  0  0
  -28.1530  -12.2720   18.7680 C   0  0  0  0  0  2  0  0  0  0  0  0
  -27.6710  -13.3120   19.8100 C   0  0  0  0  0  3  0  0  0  0  0  0
  -28.6750  -13.5050   20.9670 C   0  0  0  0  0  2  0  0  0  0  0  0
  -29.9440  -13.9430   20.3620 N   0  0  0  0  0  0  0  0  0  0  0  0
  -31.7060  -15.2700   20.0700 O   0  0  0  0  0  0  0  0  0  0  0  0
  -28.4910  -18.8580   20.5970 C   0  0  0  0  0  3  0  0  0  0  0  0
  -28.3090  -20.3230   20.4600 C   0  0  0  0  0  0  0  0  0  0  0  0
  -29.2440  -21.2230   19.8110 C   0  0  0  0  0  0  0  0  0  0  0  0
  -30.3410  -20.3450   19.3780 C   0  0  0  0  0  0  0  0  0  0  0  0
  -29.6200  -18.0520   20.1540 C   0  0  0  0  0  0  0  0  0  0  0  0
  -27.0730  -20.9440   21.0780 C   0  0  0  0  0  1  0  0  0  0  0  0
  -31.5260  -20.9850   18.6830 C   0  0  0  0  0  1  0  0  0  0  0  0
  -30.5020  -18.9340   19.5340 N   0  0  0  0  0  0  0  0  0  0  0  0
  -29.6510  -16.4600   20.3680 N   0  0  0  0  0  0  0  0  0  0  0  0
  -28.7330  -16.1480   20.6400 H   0  0  0  0  0  0  0  0  0  0  0  0
  -25.2900  -13.9490   20.4750 C   0  0  0  0  0  0  0  0  0  0  0  0
  -24.2000  -13.2060   20.8320 C   0  0  0  0  0  0  0  0  0  0  0  0
  -24.6340  -11.8440   20.8440 C   0  0  0  0  0  0  0  0  0  0  0  0
  -26.3190  -13.0430   20.2830 N   0  0  0  0  0  0  0  0  0  0  0  0
  -25.9340  -11.7730   20.5720 N   0  0  0  0  0  0  0  0  0  0  0  0
  -23.8710  -10.6040   21.0390 C   0  0  0  0  0  0  0  0  0  0  0  0
  -24.2750   -9.6290   21.9760 C   0  0  0  0  0  3  0  0  0  0  0  0
  -23.5120   -8.4540   22.1610 C   0  0  0  0  0  3  0  0  0  0  0  0
  -22.3330   -8.2480   21.4090 C   0  0  0  0  0  0  0  0  0  0  0  0
  -21.9470   -9.2130   20.4610 C   0  0  0  0  0  3  0  0  0  0  0  0
  -22.7090  -10.3780   20.2730 C   0  0  0  0  0  3  0  0  0  0  0  0
  -21.5440   -7.1270   21.5030 O   0  0  0  0  0  0  0  0  0  0  0  0
  -21.5010   -6.3710   22.6460 C   0  0  0  0  0  0  0  0  0  0  0  0
  -21.1490   -6.9280   23.8940 C   0  0  0  0  0  3  0  0  0  0  0  0
  -21.0490   -6.1020   25.0320 C   0  0  0  0  0  3  0  0  0  0  0  0
  -21.2900   -4.7190   24.9210 C   0  0  0  0  0  0  0  0  0  0  0  0
  -21.6350   -4.1620   23.6780 C   0  0  0  0  0  3  0  0  0  0  0  0
  -21.7370   -4.9850   22.5430 C   0  0  0  0  0  0  0  0  0  0  0  0
  -22.0480   -4.4390   21.3430 F   0  0  0  0  0  0  0  0  0  0  0  0
  -21.1870   -3.9240   26.0120 F   0  0  0  0  0  0  0  0  0  0  0  0
  -22.8070  -13.7210   21.0480 C   0  0  0  0  0  0  0  0  0  0  0  0
  -22.0390  -13.0690   21.9130 N   0  0  0  0  0  0  0  0  0  0  0  0
  -22.4100  -14.7400   20.4850 O   0  0  0  0  0  0  0  0  0  0  0  0
  -22.3760  -12.2460   22.3910 H   0  0  0  0  0  0  0  0  0  0  0  0
  -21.1030  -13.3960   22.1000 H   0  0  0  0  0  0  0  0  0  0  0  0
  -25.4870  -15.3110   20.2690 N   0  0  0  0  0  0  0  0  0  0  0  0
  -24.7180  -15.9710   20.3200 H   0  0  0  0  0  0  0  0  0  0  0  0
  -26.3260  -15.7170   19.8770 H   0  0  0  0  0  0  0  0  0  0  0  0
  -29.2670  -22.9720   19.7810 C   0  0  0  0  0  3  0  0  0  0  0  0
  -28.1570  -24.3300   19.4890 C   0  0  0  0  0  3  0  0  0  0  0  0
  -28.3610  -25.9460   19.6300 O   0  0  0  0  0  0  0  0  0  0  0  0
  -24.7280  -31.5960   22.9970 C   0  0  0  0  0  0  0  0  0  0  0  0
  -27.3150  -26.9960   19.6430 C   0  0  0  0  0  0  0  0  0  0  0  0
  -23.5300  -30.2900   21.2880 C   0  0  0  0  0  3  0  0  0  0  0  0
  -24.9810  -28.8070   19.7450 C   0  0  0  0  0  0  0  0  0  0  0  0
  -26.0870  -30.5610   21.1170 C   0  0  0  0  0  2  0  0  0  0  0  0
  -26.1690  -29.2020   20.3710 C   0  0  0  0  0  0  0  0  0  0  0  0
  -27.3320  -28.3190   20.2950 C   0  0  0  0  0  3  0  0  0  0  0  0
  -26.0930  -26.7410   18.9830 C   0  0  0  0  0  3  0  0  0  0  0  0
  -24.9640  -27.5980   19.0310 C   0  0  0  0  0  3  0  0  0  0  0  0
  -23.7480  -29.7000   19.8670 C   0  0  0  0  0  2  0  0  0  0  0  0
  -24.8030  -30.8380   21.8560 N   0  0  0  0  0  0  0  0  0  0  0  0
  -23.6440  -31.8340   23.5530 O   0  0  0  0  0  0  0  0  0  0  0  0
  -22.8650  -29.2220   22.1950 C   0  0  0  0  0  0  0  0  0  0  0  0
  -21.5320  -29.0640   22.0950 N   0  0  0  0  0  0  0  0  0  0  0  0
  -23.5530  -28.5400   22.9570 O   0  0  0  0  0  0  0  0  0  0  0  0
  -21.0290  -29.6680   21.4590 H   0  0  0  0  0  0  0  0  0  0  0  0
  -18.1640  -27.8240   22.6120 C   0  0  0  0  0  0  0  0  0  0  0  0
  -20.7310  -28.0700   22.8160 C   0  0  0  0  0  3  0  0  0  0  0  0
  -20.8130  -26.6860   22.1320 C   0  0  0  0  0  2  0  0  0  0  0  0
  -19.6800  -26.4410   21.1300 C   0  0  0  0  0  2  0  0  0  0  0  0
  -18.3180  -26.5320   21.8260 C   0  0  0  0  0  2  0  0  0  0  0  0
  -19.2960  -28.5540   23.0620 C   0  0  0  0  0  0  0  0  0  0  0  0
  -19.0950  -29.7630   23.7630 C   0  0  0  0  0  3  0  0  0  0  0  0
  -17.7960  -30.2430   24.0140 C   0  0  0  0  0  3  0  0  0  0  0  0
  -16.6790  -29.5100   23.5760 C   0  0  0  0  0  3  0  0  0  0  0  0
  -16.8640  -28.3020   22.8810 C   0  0  0  0  0  3  0  0  0  0  0  0
  -26.0020  -32.2130   23.6520 C   0  0  0  0  0  3  0  0  0  0  0  0
  -25.6550  -33.5630   24.1280 N   0  0  0  0  0  0  0  0  0  0  0  0
  -25.9280  -34.7010   23.4760 C   0  0  0  0  0  0  0  0  0  0  0  0
  -26.5610  -34.7240   22.4180 O   0  0  0  0  0  0  0  0  0  0  0  0
  -25.0830  -33.6140   24.9590 H   0  0  0  0  0  0  0  0  0  0  0  0
  -24.1280  -36.4600   23.3880 C   0  0  0  0  0  1  0  0  0  0  0  0
  -25.4220  -36.0200   24.0930 C   0  0  0  0  0  3  0  0  0  0  0  0
  -27.5690  -36.9000   24.9010 C   0  0  0  0  0  1  0  0  0  0  0  0
  -26.4130  -37.1180   24.0350 N   0  0  0  0  0  0  0  0  0  0  0  0
  -25.9850  -38.0030   24.2950 H   0  0  0  0  0  0  0  0  0  0  0  0
  -26.5670  -31.3450   24.8440 C   0  0  1  0  0  0  0  0  0  0  0  0
  -25.5070  -30.9910   25.9140 C   0  0  0  0  0  1  0  0  0  0  0  0
  -27.1670  -30.0170   24.3260 C   0  0  0  0  0  1  0  0  0  0  0  0
  -27.7170  -32.1060   25.5450 C   0  0  0  0  0  1  0  0  0  0  0  0
  1  7  1  0
  1 17  1  0
  2  7  1  0
  3  4  1  0
  3  2  1  0
  5  4  1  0
  5 22  1  0
  5  6  1  0
  7  6  1  0
  8  1  2  0
 10  9  1  0
 10 14  1  0
 11 10  2  0
 12 16  2  0
 12 11  1  0
 13 17  1  0
 13  9  2  0
 15 12  1  0
 16 13  1  0
 17 18  1  0
 19 20  2  0
 20 21  1  0
 20 39  1  0
 21 24  1  0
 22 19  1  0
 22 23  1  0
 23 21  2  0
 24 25  1  0
 25 26  2  0
 27 30  1  0
 27 26  1  0
 28 27  2  0
 29 28  1  0
 29 24  2  0
 30 31  1  0
 31 32  1  0
 32 33  2  0
 34 33  1  0
 34 38  1  0
 35 34  2  0
 36 31  2  0
 36 35  1  0
 37 36  1  0
 39 40  1  0
 40 43  1  0
 40 42  1  0
 41 39  2  0
 44 45  1  0
 44 19  1  0
 46 44  1  0
 47 11  1  0
 48 49  1  0
 48 47  2  0
 49 51  1  0
 50 61  2  0
 51 56  1  0
 52 60  1  0
 52 62  1  0
 53 59  1  0
 53 55  1  0
 54 60  1  0
 55 54  1  0
 56 55  2  0
 57 58  1  0
 57 51  2  0
 58 53  2  0
 59 52  1  0
 60 50  1  0
 62 64  2  0
 63 62  1  0
 65 63  1  0
 66 75  2  0
 66 71  1  0
 67 63  1  0
 67 71  1  0
 68 67  1  0
 69 70  1  0
 69 68  1  0
 70 66  1  0
 71 72  2  0
 72 73  1  0
 74 73  2  0
 75 74  1  0
 76 50  1  0
 76 77  1  0
 76 86  1  0
 77 80  1  0
 78 82  1  0
 78 77  1  0
 79 78  2  0
 82 81  1  0
 84 82  1  0
 84 85  1  0
 84 83  1  0
 86 89  1  1
 86 87  1  0
 88 86  1  0
M  ISO  4   1 100  17 100  48 101  49 101
M  END
>  <TORSDO>  (67) 
F 17

>  <SCORE>  (67) 
-13.688

>  <name>  (67) 
66

>  <ligand_id>  (67) 
66

>  <original_smiles>  (67) 
[H]c1c([H])c([H])c2c(c1[H])C([H])([H])C([H])([H])C([H])([H])C2([H])N([H])C(=O)C1([H])N(C(=O)C([H])(N([H])C(=O)C([H])(N([H])C([H])([H])[H])C([H])([H])[H])C(C([H])([H])[H])(C([H])([H])[H])C([H])([H])[H])C([H])([H])c2c([H])c(OC([H])([H])C([H])([H])c3c(C([H])([H])[H])nc(N([H])C(=O)N4C([H])([H])C([H])([H])C([H])([H])C([H])(n5nc(-c6c([H])c([H])c(Oc7c([H])c([H])c(F)c([H])c7F)c([H])c6[H])c(C(=O)N([H])[H])c5N([H])[H])C4([H])[H])c([H])c3C([H])([H])[H])c([H])c([H])c2C1([H])[H]

>  <smiles>  (67) 
[H]c1c([H])c([H])c2c(c1[H])C([H])([H])C([H])([H])C([H])([H])C2([H])N([H])C(=O)C1([H])N(C(=O)C([H])(N([H])C(=O)C([H])(N([H])C([H])([H])[H])C([H])([H])[H])C(C([H])([H])[H])(C([H])([H])[H])C([H])([H])[H])C([H])([H])c2c([H])c(OC([H])([H])C([H])([H])c3c(C([H])([H])[H])nc(N([H])C(=O)N4C([H])([H])C([H])([H])C([H])([H])C([H])(n5nc(-c6c([H])c([H])c(Oc7c([H])c([H])c(F)c([H])c7F)c([H])c6[H])c(C(=O)N([H])[H])c5N([H])[H])C4([H])[H])c([H])c3C([H])([H])[H])c([H])c([H])c2C1([H])[H]

$$$$
67:0:0
     RDKit          3D

 90 99  0  0  1  0  0  0  0  0999 V2000
  -28.7540  -22.6700   21.2110 C   0  0  0  0  0  3  0  0  0  0  0  0
  -29.0990  -21.2570   21.3110 C   0  0  0  0  0  0  0  0  0  0  0  0
  -28.5090  -23.3590   19.9770 C   0  0  0  0  0  0  0  0  0  0  0  0
  -29.2000  -20.3750   20.1780 C   0  0  0  0  0  0  0  0  0  0  0  0
  -28.7090  -22.4180   18.8940 C   0  0  0  0  0  0  0  0  0  0  0  0
  -29.3300  -20.6920   22.7040 C   0  0  0  0  0  1  0  0  0  0  0  0
  -28.4790  -22.8890   17.4720 C   0  0  0  0  0  1  0  0  0  0  0  0
  -29.0440  -21.0530   18.9880 N   0  0  0  0  0  0  0  0  0  0  0  0
  -30.7290  -15.3090   19.9680 C   0  0  0  0  0  0  0  0  0  0  0  0
  -30.6050  -12.9340   19.0790 C   0  0  0  0  0  2  0  0  0  0  0  0
  -29.6180  -12.8260   17.8940 C   0  0  0  0  0  2  0  0  0  0  0  0
  -28.1880  -12.5780   18.4060 C   0  0  0  0  0  2  0  0  0  0  0  0
  -27.8090  -13.5200   19.5780 C   0  0  0  0  0  3  0  0  0  0  0  0
  -28.9170  -13.6070   20.6500 C   0  0  0  0  0  2  0  0  0  0  0  0
  -30.1400  -14.0420   19.9660 N   0  0  0  0  0  0  0  0  0  0  0  0
  -31.9120  -15.3600   19.6150 O   0  0  0  0  0  0  0  0  0  0  0  0
  -29.2990  -17.4760   19.3000 C   0  0  0  0  0  2  0  0  0  0  0  0
  -30.6550  -17.8170   20.7480 C   0  0  0  0  0  2  0  0  0  0  0  0
  -29.4290  -18.7110   20.2970 C   0  0  0  0  0  3  0  0  0  0  0  0
  -30.0150  -16.5210   20.2540 N   0  0  0  0  0  0  0  0  0  0  0  0
  -25.4840  -14.0430   20.5000 C   0  0  0  0  0  0  0  0  0  0  0  0
  -24.4460  -13.2440   20.8960 C   0  0  0  0  0  0  0  0  0  0  0  0
  -24.9110  -11.8990   20.7700 C   0  0  0  0  0  0  0  0  0  0  0  0
  -26.5110  -13.1850   20.1510 N   0  0  0  0  0  0  0  0  0  0  0  0
  -26.1820  -11.8860   20.3800 N   0  0  0  0  0  0  0  0  0  0  0  0
  -24.2020  -10.6240   20.9440 C   0  0  0  0  0  0  0  0  0  0  0  0
  -24.6220   -9.6670   21.8940 C   0  0  0  0  0  3  0  0  0  0  0  0
  -23.9090   -8.4600   22.0560 C   0  0  0  0  0  3  0  0  0  0  0  0
  -22.7630   -8.1990   21.2680 C   0  0  0  0  0  0  0  0  0  0  0  0
  -22.3620   -9.1470   20.3100 C   0  0  0  0  0  3  0  0  0  0  0  0
  -23.0750  -10.3460   20.1460 C   0  0  0  0  0  3  0  0  0  0  0  0
  -22.0230   -7.0440   21.3390 O   0  0  0  0  0  0  0  0  0  0  0  0
  -21.8430   -6.3760   22.5240 C   0  0  0  0  0  0  0  0  0  0  0  0
  -21.2070   -6.9800   23.6320 C   0  0  0  0  0  3  0  0  0  0  0  0
  -20.9810   -6.2340   24.8060 C   0  0  0  0  0  3  0  0  0  0  0  0
  -21.3800   -4.8860   24.8730 C   0  0  0  0  0  0  0  0  0  0  0  0
  -22.0080   -4.2820   23.7700 C   0  0  0  0  0  3  0  0  0  0  0  0
  -22.2360   -5.0250   22.5980 C   0  0  0  0  0  0  0  0  0  0  0  0
  -22.8220   -4.4310   21.5300 F   0  0  0  0  0  0  0  0  0  0  0  0
  -21.1560   -4.1670   25.9980 F   0  0  0  0  0  0  0  0  0  0  0  0
  -23.0670  -13.6990   21.2760 C   0  0  0  0  0  0  0  0  0  0  0  0
  -22.4030  -12.9690   22.1630 N   0  0  0  0  0  0  0  0  0  0  0  0
  -22.5910  -14.7390   20.8210 O   0  0  0  0  0  0  0  0  0  0  0  0
  -22.8040  -12.1280   22.5510 H   0  0  0  0  0  0  0  0  0  0  0  0
  -21.4800  -13.2550   22.4600 H   0  0  0  0  0  0  0  0  0  0  0  0
  -25.6370  -15.4220   20.3860 N   0  0  0  0  0  0  0  0  0  0  0  0
  -24.8850  -16.0720   20.5910 H   0  0  0  0  0  0  0  0  0  0  0  0
  -26.4820  -15.8770   20.0660 H   0  0  0  0  0  0  0  0  0  0  0  0
  -27.7050  -24.8270   19.8580 C   0  0  0  0  0  2  0  0  0  0  0  0
  -28.1280  -26.3280   20.0500 O   0  0  0  0  0  0  0  0  0  0  0  0
  -24.6620  -32.0260   23.2800 C   0  0  0  0  0  0  0  0  0  0  0  0
  -27.1050  -27.3650   20.0250 C   0  0  0  0  0  0  0  0  0  0  0  0
  -23.3960  -30.6620   21.6670 C   0  0  0  0  0  3  0  0  0  0  0  0
  -24.7850  -29.1360   20.1350 C   0  0  0  0  0  0  0  0  0  0  0  0
  -25.9440  -30.9350   21.3970 C   0  0  0  0  0  2  0  0  0  0  0  0
  -25.9920  -29.5590   20.7040 C   0  0  0  0  0  0  0  0  0  0  0  0
  -27.1530  -28.6910   20.6330 C   0  0  0  0  0  3  0  0  0  0  0  0
  -25.8680  -27.0680   19.4070 C   0  0  0  0  0  3  0  0  0  0  0  0
  -24.7380  -27.9070   19.4680 C   0  0  0  0  0  3  0  0  0  0  0  0
  -23.5560  -30.0240   20.2620 C   0  0  0  0  0  2  0  0  0  0  0  0
  -24.6890  -31.2290   22.1670 N   0  0  0  0  0  0  0  0  0  0  0  0
  -23.6000  -32.2950   23.8610 O   0  0  0  0  0  0  0  0  0  0  0  0
  -22.7660  -29.6270   22.6350 C   0  0  0  0  0  0  0  0  0  0  0  0
  -21.4480  -29.3910   22.5100 N   0  0  0  0  0  0  0  0  0  0  0  0
  -23.4670  -29.0380   23.4610 O   0  0  0  0  0  0  0  0  0  0  0  0
  -20.9390  -29.9210   21.8160 H   0  0  0  0  0  0  0  0  0  0  0  0
  -18.1430  -27.9730   22.9630 C   0  0  0  0  0  0  0  0  0  0  0  0
  -20.6710  -28.4190   23.2850 C   0  0  0  0  0  3  0  0  0  0  0  0
  -20.8860  -26.9830   22.7520 C   0  0  0  0  0  2  0  0  0  0  0  0
  -19.8330  -26.5570   21.7230 C   0  0  0  0  0  2  0  0  0  0  0  0
  -18.4270  -26.6220   22.3270 C   0  0  0  0  0  2  0  0  0  0  0  0
  -19.1950  -28.8240   23.3970 C   0  0  0  0  0  0  0  0  0  0  0  0
  -18.8720  -30.0820   23.9500 C   0  0  0  0  0  3  0  0  0  0  0  0
  -17.5310  -30.4920   24.0730 C   0  0  0  0  0  3  0  0  0  0  0  0
  -16.4940  -29.6410   23.6550 C   0  0  0  0  0  3  0  0  0  0  0  0
  -16.8000  -28.3830   23.1070 C   0  0  0  0  0  3  0  0  0  0  0  0
  -25.9630  -32.6550   23.8640 C   0  0  0  0  0  3  0  0  0  0  0  0
  -25.6720  -34.0590   24.1980 N   0  0  0  0  0  0  0  0  0  0  0  0
  -25.9520  -35.1050   23.4110 C   0  0  0  0  0  0  0  0  0  0  0  0
  -26.5480  -34.9920   22.3360 O   0  0  0  0  0  0  0  0  0  0  0  0
  -25.1400  -34.2220   25.0400 H   0  0  0  0  0  0  0  0  0  0  0  0
  -24.1900  -36.8850   23.1830 C   0  0  0  0  0  1  0  0  0  0  0  0
  -25.4980  -36.4980   23.8900 C   0  0  0  0  0  3  0  0  0  0  0  0
  -27.6890  -37.4070   24.5280 C   0  0  0  0  0  1  0  0  0  0  0  0
  -26.5100  -37.5570   23.6800 N   0  0  0  0  0  0  0  0  0  0  0  0
  -26.1090  -38.4750   23.8570 H   0  0  0  0  0  0  0  0  0  0  0  0
  -26.5050  -31.8910   25.1350 C   0  0  1  0  0  0  0  0  0  0  0  0
  -25.4300  -31.6420   26.2190 C   0  0  0  0  0  1  0  0  0  0  0  0
  -27.0950  -30.5180   24.7390 C   0  0  0  0  0  1  0  0  0  0  0  0
  -27.6610  -32.6990   25.7730 C   0  0  0  0  0  1  0  0  0  0  0  0
  1  2  1  0
  2  6  1  0
  3  1  2  0
  4  2  2  0
  5  8  2  0
  5  3  1  0
  7  5  1  0
  8  4  1  0
  9 20  1  0
 10 15  1  0
 11 12  1  0
 11 10  1  0
 13 12  1  0
 13 24  1  0
 13 14  1  0
 15  9  1  0
 15 14  1  0
 16  9  2  0
 17 20  1  0
 17 19  1  0
 19  4  1  0
 19 18  1  0
 20 18  1  0
 21 22  2  0
 22 41  1  0
 23 22  1  0
 23 26  1  0
 24 25  1  0
 24 21  1  0
 25 23  2  0
 26 27  1  0
 27 28  2  0
 29 32  1  0
 29 28  1  0
 30 29  2  0
 31 30  1  0
 31 26  2  0
 32 33  1  0
 33 38  2  0
 33 34  1  0
 34 35  2  0
 35 36  1  0
 36 40  1  0
 37 36  2  0
 38 37  1  0
 39 38  1  0
 41 42  1  0
 42 45  1  0
 42 44  1  0
 43 41  2  0
 46 21  1  0
 46 47  1  0
 48 46  1  0
 49  3  1  0
 49 50  1  0
 51 62  2  0
 52 50  1  0
 52 57  1  0
 53 61  1  0
 53 63  1  0
 54 60  1  0
 54 56  1  0
 55 61  1  0
 56 55  1  0
 57 56  2  0
 58 59  1  0
 58 52  2  0
 59 54  2  0
 60 53  1  0
 61 51  1  0
 63 65  2  0
 64 63  1  0
 66 64  1  0
 67 76  2  0
 67 72  1  0
 68 64  1  0
 68 72  1  0
 69 68  1  0
 70 71  1  0
 70 69  1  0
 71 67  1  0
 72 73  2  0
 73 74  1  0
 75 74  2  0
 76 75  1  0
 77 51  1  0
 77 78  1  0
 77 87  1  0
 78 81  1  0
 79 83  1  0
 79 78  1  0
 80 79  2  0
 83 82  1  0
 85 86  1  0
 85 83  1  0
 85 84  1  0
 87 90  1  1
 87 88  1  0
 89 87  1  0
M  ISO  4   9 100  20 100  49 101  50 101
M  END
>  <TORSDO>  (68) 
F 17

>  <SCORE>  (68) 
-13.844

>  <name>  (68) 
67

>  <ligand_id>  (68) 
67

>  <original_smiles>  (68) 
[H]c1c([H])c([H])c2c(c1[H])C([H])([H])C([H])([H])C([H])([H])C2([H])N([H])C(=O)C1([H])N(C(=O)C([H])(N([H])C(=O)C([H])(N([H])C([H])([H])[H])C([H])([H])[H])C(C([H])([H])[H])(C([H])([H])[H])C([H])([H])[H])C([H])([H])c2c([H])c(OC([H])([H])c3c(C([H])([H])[H])nc(C4([H])C([H])([H])N(C(=O)N5C([H])([H])C([H])([H])C([H])([H])C([H])(n6nc(-c7c([H])c([H])c(Oc8c([H])c([H])c(F)c([H])c8F)c([H])c7[H])c(C(=O)N([H])[H])c6N([H])[H])C5([H])[H])C4([H])[H])c(C([H])([H])[H])c3[H])c([H])c([H])c2C1([H])[H]

>  <smiles>  (68) 
[H]c1c([H])c([H])c2c(c1[H])C([H])([H])C([H])([H])C([H])([H])C2([H])N([H])C(=O)C1([H])N(C(=O)C([H])(N([H])C(=O)C([H])(N([H])C([H])([H])[H])C([H])([H])[H])C(C([H])([H])[H])(C([H])([H])[H])C([H])([H])[H])C([H])([H])c2c([H])c(OC([H])([H])c3c(C([H])([H])[H])nc(C4([H])C([H])([H])N(C(=O)N5C([H])([H])C([H])([H])C([H])([H])C([H])(n6nc(-c7c([H])c([H])c(Oc8c([H])c([H])c(F)c([H])c8F)c([H])c7[H])c(C(=O)N([H])[H])c6N([H])[H])C5([H])[H])C4([H])[H])c(C([H])([H])[H])c3[H])c([H])c([H])c2C1([H])[H]

$$$$
68:0:0
     RDKit          3D

 96105  0  0  1  0  0  0  0  0999 V2000
  -28.5540  -22.2190   18.4880 C   0  0  0  0  0  3  0  0  0  0  0  0
  -29.0190  -24.3740   19.5310 C   0  0  0  0  0  0  0  0  0  0  0  0
  -28.3460  -23.6190   18.5390 C   0  0  0  0  0  0  0  0  0  0  0  0
  -29.4450  -21.5990   19.3850 C   0  0  0  0  0  0  0  0  0  0  0  0
  -29.8250  -23.6510   20.4530 C   0  0  0  0  0  0  0  0  0  0  0  0
  -30.5670  -24.3570   21.5720 C   0  0  0  0  0  1  0  0  0  0  0  0
  -30.0330  -22.3040   20.3810 N   0  0  0  0  0  0  0  0  0  0  0  0
  -26.9520  -23.5410   16.5720 C   0  0  0  0  0  1  0  0  0  0  0  0
  -27.5530  -24.2860   17.6270 O   0  0  0  0  0  0  0  0  0  0  0  0
  -29.0200  -25.9240   19.4280 C   0  0  0  0  0  2  0  0  0  0  0  0
  -28.6080  -26.7030   20.5700 O   0  0  0  0  0  0  0  0  0  0  0  0
  -24.6860  -31.9810   23.3720 C   0  0  0  0  0  0  0  0  0  0  0  0
  -27.4410  -27.4480   20.4860 C   0  0  0  0  0  0  0  0  0  0  0  0
  -23.5420  -30.5400   21.7220 C   0  0  0  0  0  3  0  0  0  0  0  0
  -25.0450  -28.9690   20.3830 C   0  0  0  0  0  0  0  0  0  0  0  0
  -26.0750  -30.8870   21.6110 C   0  0  0  0  0  2  0  0  0  0  0  0
  -26.1820  -29.5000   21.0050 C   0  0  0  0  0  0  0  0  0  0  0  0
  -27.3770  -28.7420   21.0650 C   0  0  0  0  0  3  0  0  0  0  0  0
  -26.2770  -26.9310   19.8740 C   0  0  0  0  0  3  0  0  0  0  0  0
  -25.0880  -27.6840   19.8160 C   0  0  0  0  0  3  0  0  0  0  0  0
  -23.8010  -29.8330   20.3650 C   0  0  0  0  0  2  0  0  0  0  0  0
  -24.7830  -31.1540   22.2920 N   0  0  0  0  0  0  0  0  0  0  0  0
  -23.5850  -32.2630   23.8680 O   0  0  0  0  0  0  0  0  0  0  0  0
  -22.8580  -29.5390   22.6820 C   0  0  0  0  0  0  0  0  0  0  0  0
  -21.5500  -29.3130   22.4790 N   0  0  0  0  0  0  0  0  0  0  0  0
  -23.5040  -28.9680   23.5630 O   0  0  0  0  0  0  0  0  0  0  0  0
  -21.0890  -29.8260   21.7410 H   0  0  0  0  0  0  0  0  0  0  0  0
  -18.1870  -28.0290   22.8070 C   0  0  0  0  0  0  0  0  0  0  0  0
  -20.7100  -28.3830   23.2380 C   0  0  0  0  0  3  0  0  0  0  0  0
  -20.8950  -26.9310   22.7390 C   0  0  0  0  0  2  0  0  0  0  0  0
  -19.8760  -26.5270   21.6680 C   0  0  0  0  0  2  0  0  0  0  0  0
  -18.4490  -26.6570   22.2080 C   0  0  0  0  0  2  0  0  0  0  0  0
  -19.2500  -28.8460   23.2750 C   0  0  0  0  0  0  0  0  0  0  0  0
  -18.9550  -30.1260   23.7890 C   0  0  0  0  0  3  0  0  0  0  0  0
  -17.6270  -30.5930   23.8420 C   0  0  0  0  0  3  0  0  0  0  0  0
  -16.5760  -29.7750   23.3920 C   0  0  0  0  0  3  0  0  0  0  0  0
  -16.8560  -28.4940   22.8810 C   0  0  0  0  0  3  0  0  0  0  0  0
  -25.9480  -32.6300   24.0210 C   0  0  0  0  0  3  0  0  0  0  0  0
  -26.4150  -31.9020   25.3410 C   0  0  1  0  0  0  0  0  0  0  0  0
  -25.2780  -31.6880   26.3670 C   0  0  0  0  0  1  0  0  0  0  0  0
  -27.0240  -30.5180   25.0150 C   0  0  0  0  0  1  0  0  0  0  0  0
  -27.5330  -32.7250   26.0230 C   0  0  0  0  0  1  0  0  0  0  0  0
  -25.6340  -34.0410   24.2910 N   0  0  0  0  0  0  0  0  0  0  0  0
  -25.9870  -35.0630   23.4990 C   0  0  0  0  0  0  0  0  0  0  0  0
  -26.6820  -34.9200   22.4900 O   0  0  0  0  0  0  0  0  0  0  0  0
  -25.0180  -34.2250   25.0690 H   0  0  0  0  0  0  0  0  0  0  0  0
  -24.2650  -36.8360   23.0330 C   0  0  0  0  0  1  0  0  0  0  0  0
  -25.4870  -36.4680   23.8890 C   0  0  0  0  0  3  0  0  0  0  0  0
  -27.5940  -37.3930   24.7450 C   0  0  0  0  0  1  0  0  0  0  0  0
  -26.5220  -37.5180   23.7610 N   0  0  0  0  0  0  0  0  0  0  0  0
  -26.1100  -38.4420   23.8560 H   0  0  0  0  0  0  0  0  0  0  0  0
  -29.8670  -20.1330   19.1390 C   0  0  0  0  0  2  0  0  0  0  0  0
  -31.4050  -17.5470   21.1690 C   0  0  0  0  0  2  0  0  0  0  0  0
  -31.0910  -19.0610   21.0670 C   0  0  0  0  0  2  0  0  0  0  0  0
  -29.3580  -17.8220   19.9950 C   0  0  0  0  0  2  0  0  0  0  0  0
  -30.0230  -16.9030   21.0420 C   0  0  0  0  0  3  0  0  0  0  0  0
  -29.8180  -19.2070   20.3090 N   0  0  2  0  0  4  0  0  0  0  0  0
  -29.1480  -19.6170   20.9420 H   0  0  0  0  0  0  0  0  0  0  0  0
  -30.6160  -14.5070   20.1560 C   0  0  0  0  0  0  0  0  0  0  0  0
  -30.2740  -12.4070   18.8930 C   0  0  0  0  0  2  0  0  0  0  0  0
  -29.2400  -12.6600   17.7730 C   0  0  0  0  0  2  0  0  0  0  0  0
  -27.7970  -12.5020   18.2980 C   0  0  0  0  0  2  0  0  0  0  0  0
  -27.5550  -13.2720   19.6240 C   0  0  0  0  0  3  0  0  0  0  0  0
  -28.6820  -12.9630   20.6380 C   0  0  0  0  0  2  0  0  0  0  0  0
  -29.9670  -13.3190   20.0050 N   0  0  0  0  0  0  0  0  0  0  0  0
  -31.6970  -14.7550   19.6140 O   0  0  0  0  0  0  0  0  0  0  0  0
  -29.8970  -15.4390   20.8230 N   0  0  0  0  0  0  0  0  0  0  0  0
  -29.0510  -15.0460   21.2130 H   0  0  0  0  0  0  0  0  0  0  0  0
  -25.2130  -13.8790   20.5060 C   0  0  0  0  0  0  0  0  0  0  0  0
  -24.1630  -13.1030   20.9180 C   0  0  0  0  0  0  0  0  0  0  0  0
  -24.6060  -11.7490   20.8120 C   0  0  0  0  0  0  0  0  0  0  0  0
  -26.2310  -12.9950   20.1760 N   0  0  0  0  0  0  0  0  0  0  0  0
  -25.8720  -11.7100   20.4170 N   0  0  0  0  0  0  0  0  0  0  0  0
  -23.8800  -10.4880   21.0110 C   0  0  0  0  0  0  0  0  0  0  0  0
  -24.3360   -9.5120   21.9250 C   0  0  0  0  0  3  0  0  0  0  0  0
  -23.6150   -8.3120   22.1090 C   0  0  0  0  0  3  0  0  0  0  0  0
  -22.4240   -8.0810   21.3810 C   0  0  0  0  0  0  0  0  0  0  0  0
  -21.9880   -9.0450   20.4570 C   0  0  0  0  0  3  0  0  0  0  0  0
  -22.7090  -10.2360   20.2680 C   0  0  0  0  0  3  0  0  0  0  0  0
  -21.6740   -6.9350   21.4770 O   0  0  0  0  0  0  0  0  0  0  0  0
  -21.6360   -6.1920   22.6300 C   0  0  0  0  0  0  0  0  0  0  0  0
  -21.1550   -6.7270   23.8440 C   0  0  0  0  0  3  0  0  0  0  0  0
  -21.0670   -5.9080   24.9880 C   0  0  0  0  0  3  0  0  0  0  0  0
  -21.4520   -4.5560   24.9180 C   0  0  0  0  0  0  0  0  0  0  0  0
  -21.9250   -4.0210   23.7070 C   0  0  0  0  0  3  0  0  0  0  0  0
  -22.0150   -4.8360   22.5670 C   0  0  0  0  0  0  0  0  0  0  0  0
  -22.4540   -4.3100   21.3970 F   0  0  0  0  0  0  0  0  0  0  0  0
  -21.3600   -3.7670   26.0160 F   0  0  0  0  0  0  0  0  0  0  0  0
  -22.7900  -13.5820   21.2990 C   0  0  0  0  0  0  0  0  0  0  0  0
  -22.1100  -12.8590   22.1810 N   0  0  0  0  0  0  0  0  0  0  0  0
  -22.3330  -14.6330   20.8490 O   0  0  0  0  0  0  0  0  0  0  0  0
  -22.4960  -12.0100   22.5700 H   0  0  0  0  0  0  0  0  0  0  0  0
  -21.1910  -13.1580   22.4740 H   0  0  0  0  0  0  0  0  0  0  0  0
  -25.3820  -15.2530   20.3660 N   0  0  0  0  0  0  0  0  0  0  0  0
  -24.6320  -15.9110   20.5480 H   0  0  0  0  0  0  0  0  0  0  0  0
  -26.2000  -15.6860   19.9590 H   0  0  0  0  0  0  0  0  0  0  0  0
  1  3  2  0
  1  4  1  0
  2  5  2  0
  3  2  1  0
  4  7  2  0
  5  6  1  0
  7  5  1  0
  8  9  1  0
  9  3  1  0
 10  2  1  0
 10 11  1  0
 12 23  2  0
 13 11  1  0
 13 18  1  0
 14 22  1  0
 14 24  1  0
 15 17  1  0
 16 22  1  0
 17 18  2  0
 17 16  1  0
 19 13  2  0
 20 19  1  0
 20 15  2  0
 21 15  1  0
 21 14  1  0
 22 12  1  0
 24 26  2  0
 25 24  1  0
 27 25  1  0
 28 37  2  0
 28 33  1  0
 29 25  1  0
 29 33  1  0
 30 29  1  0
 31 32  1  0
 31 30  1  0
 32 28  1  0
 33 34  2  0
 34 35  1  0
 36 35  2  0
 37 36  1  0
 38 12  1  0
 38 43  1  0
 38 39  1  0
 39 42  1  1
 39 40  1  0
 41 39  1  0
 43 46  1  0
 44 48  1  0
 44 43  1  0
 45 44  2  0
 48 47  1  0
 50 51  1  0
 50 48  1  0
 50 49  1  0
 52  4  1  0
 52 57  1  0
 54 53  1  0
 55 57  1  0
 55 56  1  0
 56 67  1  0
 56 53  1  0
 57 58  1  1
 57 54  1  0
 59 67  1  0
 60 65  1  0
 61 62  1  0
 61 60  1  0
 63 62  1  0
 63 72  1  0
 63 64  1  0
 65 59  1  0
 65 64  1  0
 66 59  2  0
 67 68  1  0
 69 70  2  0
 70 89  1  0
 71 70  1  0
 71 74  1  0
 72 73  1  0
 72 69  1  0
 73 71  2  0
 74 75  1  0
 75 76  2  0
 77 80  1  0
 77 76  1  0
 78 77  2  0
 79 78  1  0
 79 74  2  0
 80 81  1  0
 81 82  1  0
 82 83  2  0
 84 83  1  0
 84 88  1  0
 85 84  2  0
 86 81  2  0
 86 85  1  0
 87 86  1  0
 89 90  1  0
 90 93  1  0
 90 92  1  0
 91 89  2  0
 94 69  1  0
 94 95  1  0
 96 94  1  0
M  ISO  4  10 101  11 101  59 100  67 100
M  END
>  <TORSDO>  (69) 
F 20

>  <SCORE>  (69) 
-13.054

>  <name>  (69) 
68

>  <ligand_id>  (69) 
68

>  <original_smiles>  (69) 
[H]c1c([H])c([H])c2c(c1[H])C([H])([H])C([H])([H])C([H])([H])C2([H])N([H])C(=O)C1([H])N(C(=O)C([H])(N([H])C(=O)C([H])(N([H])C([H])([H])[H])C([H])([H])[H])C(C([H])([H])[H])(C([H])([H])[H])C([H])([H])[H])C([H])([H])c2c([H])c(OC([H])([H])c3c(C([H])([H])[H])nc(C([H])([H])[N+]4([H])C([H])([H])C([H])([H])C([H])(N([H])C(=O)N5C([H])([H])C([H])([H])C([H])([H])C([H])(n6nc(-c7c([H])c([H])c(Oc8c([H])c([H])c(F)c([H])c8F)c([H])c7[H])c(C(=O)N([H])[H])c6N([H])[H])C5([H])[H])C4([H])[H])c([H])c3OC([H])([H])[H])c([H])c([H])c2C1([H])[H]

>  <smiles>  (69) 
[H]c1c([H])c([H])c2c(c1[H])C([H])([H])C([H])([H])C([H])([H])C2([H])N([H])C(=O)C1([H])N(C(=O)C([H])(N([H])C(=O)C([H])(N([H])C([H])([H])[H])C([H])([H])[H])C(C([H])([H])[H])(C([H])([H])[H])C([H])([H])[H])C([H])([H])c2c([H])c(OC([H])([H])c3c(C([H])([H])[H])nc(C([H])([H])[N+]4([H])C([H])([H])C([H])([H])C([H])(N([H])C(=O)N5C([H])([H])C([H])([H])C([H])([H])C([H])(n6nc(-c7c([H])c([H])c(Oc8c([H])c([H])c(F)c([H])c8F)c([H])c7[H])c(C(=O)N([H])[H])c6N([H])[H])C5([H])[H])C4([H])[H])c([H])c3OC([H])([H])[H])c([H])c([H])c2C1([H])[H]

$$$$
69:0:0
     RDKit          3D

 89 98  0  0  1  0  0  0  0  0999 V2000
  -30.7440  -15.4880   19.4440 C   0  0  0  0  0  0  0  0  0  0  0  0
  -31.0250  -12.9180   19.0360 C   0  0  0  0  0  2  0  0  0  0  0  0
  -30.1140  -12.3010   17.9430 C   0  0  0  0  0  2  0  0  0  0  0  0
  -28.7200  -11.9660   18.5040 C   0  0  0  0  0  2  0  0  0  0  0  0
  -28.1690  -13.0950   19.4090 C   0  0  0  0  0  3  0  0  0  0  0  0
  -29.2140  -13.6110   20.4160 C   0  0  0  0  0  2  0  0  0  0  0  0
  -30.3330  -14.1290   19.6100 N   0  0  0  0  0  0  0  0  0  0  0  0
  -31.9800  -15.5790   19.3300 O   0  0  0  0  0  0  0  0  0  0  0  0
  -29.3730  -19.4360   18.3590 C   0  0  0  0  0  3  0  0  0  0  0  0
  -28.6400  -20.7680   18.6580 C   0  0  0  0  0  0  0  0  0  0  0  0
  -29.3940  -18.1480   19.2180 C   0  0  0  0  0  0  0  0  0  0  0  0
  -27.9630  -19.5150   20.5350 C   0  0  0  0  0  0  0  0  0  0  0  0
  -27.0620  -19.5070   21.7540 C   0  0  0  0  0  1  0  0  0  0  0  0
  -27.9510  -20.6490   19.8120 N   0  0  0  0  0  0  0  0  0  0  0  0
  -28.6260  -18.3640   20.3080 N   0  0  0  0  0  0  0  0  0  0  0  0
  -29.8350  -16.5910   18.9990 N   0  0  0  0  0  0  0  0  0  0  0  0
  -29.0070  -16.1040   18.6990 H   0  0  0  0  0  0  0  0  0  0  0  0
  -25.8930  -13.6100   20.4310 C   0  0  0  0  0  0  0  0  0  0  0  0
  -24.8610  -12.8160   20.8470 C   0  0  0  0  0  0  0  0  0  0  0  0
  -25.3090  -11.4710   20.6810 C   0  0  0  0  0  0  0  0  0  0  0  0
  -26.8980  -12.7500   20.0300 N   0  0  0  0  0  0  0  0  0  0  0  0
  -26.5660  -11.4510   20.2450 N   0  0  0  0  0  0  0  0  0  0  0  0
  -24.5880  -10.2030   20.8510 C   0  0  0  0  0  0  0  0  0  0  0  0
  -25.0280   -9.2190   21.7630 C   0  0  0  0  0  3  0  0  0  0  0  0
  -24.3040   -8.0170   21.9270 C   0  0  0  0  0  3  0  0  0  0  0  0
  -23.1260   -7.7910   21.1760 C   0  0  0  0  0  0  0  0  0  0  0  0
  -22.7030   -8.7640   20.2530 C   0  0  0  0  0  3  0  0  0  0  0  0
  -23.4270   -9.9570   20.0900 C   0  0  0  0  0  3  0  0  0  0  0  0
  -22.3740   -6.6430   21.2500 O   0  0  0  0  0  0  0  0  0  0  0  0
  -22.1430   -6.0090   22.4430 C   0  0  0  0  0  0  0  0  0  0  0  0
  -21.4710   -6.6460   23.5080 C   0  0  0  0  0  3  0  0  0  0  0  0
  -21.1920   -5.9350   24.6920 C   0  0  0  0  0  3  0  0  0  0  0  0
  -21.5770   -4.5860   24.8100 C   0  0  0  0  0  0  0  0  0  0  0  0
  -22.2410   -3.9470   23.7480 C   0  0  0  0  0  3  0  0  0  0  0  0
  -22.5210   -4.6570   22.5670 C   0  0  0  0  0  0  0  0  0  0  0  0
  -23.1430   -4.0300   21.5380 F   0  0  0  0  0  0  0  0  0  0  0  0
  -21.3030   -3.8990   25.9440 F   0  0  0  0  0  0  0  0  0  0  0  0
  -23.5010  -13.2840   21.2720 C   0  0  0  0  0  0  0  0  0  0  0  0
  -22.8680  -12.5660   22.1900 N   0  0  0  0  0  0  0  0  0  0  0  0
  -23.0150  -14.3220   20.8270 O   0  0  0  0  0  0  0  0  0  0  0  0
  -23.2800  -11.7280   22.5720 H   0  0  0  0  0  0  0  0  0  0  0  0
  -21.9570  -12.8560   22.5150 H   0  0  0  0  0  0  0  0  0  0  0  0
  -26.0470  -14.9900   20.3300 N   0  0  0  0  0  0  0  0  0  0  0  0
  -25.2890  -15.6270   20.5490 H   0  0  0  0  0  0  0  0  0  0  0  0
  -26.8560  -15.4530   19.9420 H   0  0  0  0  0  0  0  0  0  0  0  0
  -27.5560  -22.8960   16.9730 C   0  0  0  0  0  2  0  0  0  0  0  0
  -28.5660  -22.4350   18.0190 C   0  0  0  0  0  3  0  0  0  0  0  0
  -27.5530  -23.9270   18.0860 C   0  0  0  0  0  3  0  0  0  0  0  0
  -27.6460  -25.5280   17.6080 O   0  0  0  0  0  0  0  0  0  0  0  0
  -25.7470  -30.3390   23.1620 C   0  0  0  0  0  0  0  0  0  0  0  0
  -26.9240  -26.7290   18.1480 C   0  0  0  0  0  0  0  0  0  0  0  0
  -24.1950  -30.0380   21.2770 C   0  0  0  0  0  3  0  0  0  0  0  0
  -25.1540  -28.9070   19.1550 C   0  0  0  0  0  0  0  0  0  0  0  0
  -26.7270  -29.7510   20.8860 C   0  0  0  0  0  2  0  0  0  0  0  0
  -26.4280  -28.7610   19.7190 C   0  0  0  0  0  0  0  0  0  0  0  0
  -27.3110  -27.7080   19.1980 C   0  0  0  0  0  3  0  0  0  0  0  0
  -25.6510  -27.0330   17.6150 C   0  0  0  0  0  3  0  0  0  0  0  0
  -24.7950  -28.0650   18.0890 C   0  0  0  0  0  3  0  0  0  0  0  0
  -24.2050  -29.9620   19.7250 C   0  0  0  0  0  2  0  0  0  0  0  0
  -25.5860  -30.0410   21.8320 N   0  0  0  0  0  0  0  0  0  0  0  0
  -24.7810  -30.6000   23.8970 O   0  0  0  0  0  0  0  0  0  0  0  0
  -23.3100  -28.9010   21.8510 C   0  0  0  0  0  0  0  0  0  0  0  0
  -21.9750  -29.0690   21.8060 N   0  0  0  0  0  0  0  0  0  0  0  0
  -23.8320  -27.8820   22.3100 O   0  0  0  0  0  0  0  0  0  0  0  0
  -21.6200  -29.9290   21.4170 H   0  0  0  0  0  0  0  0  0  0  0  0
  -18.4140  -28.4410   22.1680 C   0  0  0  0  0  0  0  0  0  0  0  0
  -20.9780  -28.0810   22.2320 C   0  0  0  0  0  3  0  0  0  0  0  0
  -20.7500  -27.0180   21.1300 C   0  0  0  0  0  2  0  0  0  0  0  0
  -19.5710  -27.3400   20.2080 C   0  0  0  0  0  2  0  0  0  0  0  0
  -18.2760  -27.4700   21.0090 C   0  0  0  0  0  2  0  0  0  0  0  0
  -19.6840  -28.7350   22.7370 C   0  0  0  0  0  0  0  0  0  0  0  0
  -19.7570  -29.6570   23.8030 C   0  0  0  0  0  3  0  0  0  0  0  0
  -18.5980  -30.2870   24.2950 C   0  0  0  0  0  3  0  0  0  0  0  0
  -17.3450  -29.9840   23.7350 C   0  0  0  0  0  3  0  0  0  0  0  0
  -17.2530  -29.0590   22.6790 C   0  0  0  0  0  3  0  0  0  0  0  0
  -27.1570  -30.3810   23.8260 C   0  0  0  0  0  3  0  0  0  0  0  0
  -27.6030  -28.9890   24.4240 C   0  0  1  0  0  0  0  0  0  0  0  0
  -26.5530  -28.3460   25.3620 C   0  0  0  0  0  1  0  0  0  0  0  0
  -27.9040  -27.9750   23.2970 C   0  0  0  0  0  1  0  0  0  0  0  0
  -28.9160  -29.1580   25.2250 C   0  0  0  0  0  1  0  0  0  0  0  0
  -27.1280  -31.4010   24.8900 N   0  0  0  0  0  0  0  0  0  0  0  0
  -27.6770  -32.6200   24.8040 C   0  0  0  0  0  0  0  0  0  0  0  0
  -28.3200  -32.9910   23.8180 O   0  0  0  0  0  0  0  0  0  0  0  0
  -26.5730  -31.1820   25.7050 H   0  0  0  0  0  0  0  0  0  0  0  0
  -26.3990  -34.6160   25.6590 C   0  0  0  0  0  1  0  0  0  0  0  0
  -27.4860  -33.5810   25.9960 C   0  0  0  0  0  3  0  0  0  0  0  0
  -29.7160  -33.4010   27.0090 C   0  0  0  0  0  1  0  0  0  0  0  0
  -28.7260  -34.2810   26.3940 N   0  0  0  0  0  0  0  0  0  0  0  0
  -28.5210  -35.0330   27.0480 H   0  0  0  0  0  0  0  0  0  0  0  0
  1  7  1  0
  2  7  1  0
  3  4  1  0
  3  2  1  0
  5  4  1  0
  5 21  1  0
  5  6  1  0
  7  6  1  0
  8  1  2  0
  9 10  2  0
  9 11  1  0
 10 14  1  0
 11 15  2  0
 12 13  1  0
 14 12  2  0
 15 12  1  0
 16 11  1  0
 16  1  1  0
 17 16  1  0
 18 19  2  0
 19 38  1  0
 20 19  1  0
 20 23  1  0
 21 22  1  0
 21 18  1  0
 22 20  2  0
 23 24  1  0
 24 25  2  0
 26 29  1  0
 26 25  1  0
 27 26  2  0
 28 27  1  0
 28 23  2  0
 29 30  1  0
 30 35  2  0
 30 31  1  0
 31 32  2  0
 32 33  1  0
 33 37  1  0
 34 33  2  0
 35 34  1  0
 36 35  1  0
 38 39  1  0
 39 42  1  0
 39 41  1  0
 40 38  2  0
 43 18  1  0
 43 44  1  0
 45 43  1  0
 46 47  1  0
 46 48  1  0
 47 48  1  0
 47 10  1  0
 48 49  1  0
 49 51  1  0
 50 61  2  0
 51 56  1  0
 52 60  1  0
 52 62  1  0
 53 55  1  0
 53 59  1  0
 54 60  1  0
 55 54  1  0
 56 55  2  0
 57 58  1  0
 57 51  2  0
 58 53  2  0
 59 52  1  0
 60 50  1  0
 62 64  2  0
 63 62  1  0
 65 63  1  0
 66 75  2  0
 66 71  1  0
 67 63  1  0
 67 71  1  0
 68 67  1  0
 69 70  1  0
 69 68  1  0
 70 66  1  0
 71 72  2  0
 72 73  1  0
 74 73  2  0
 75 74  1  0
 76 50  1  0
 76 77  1  0
 76 81  1  0
 77 80  1  1
 77 78  1  0
 79 77  1  0
 81 84  1  0
 82 81  1  0
 82 86  1  0
 83 82  2  0
 86 85  1  0
 86 88  1  0
 88 87  1  0
 88 89  1  0
M  ISO  4   1 100  16 100  48 101  49 101
M  END
>  <TORSDO>  (70) 
F 16

>  <SCORE>  (70) 
-6.354

>  <name>  (70) 
69

>  <ligand_id>  (70) 
69

>  <original_smiles>  (70) 
[H]c1c(N([H])C(=O)N2C([H])([H])C([H])([H])C([H])([H])C([H])(n3nc(-c4c([H])c([H])c(Oc5c([H])c([H])c(F)c([H])c5F)c([H])c4[H])c(C(=O)N([H])[H])c3N([H])[H])C2([H])[H])nc(C([H])([H])[H])nc1C1([H])C([H])([H])C1([H])Oc1c([H])c([H])c2c(c1[H])C([H])([H])N(C(=O)C([H])(N([H])C(=O)C([H])(N([H])C([H])([H])[H])C([H])([H])[H])C(C([H])([H])[H])(C([H])([H])[H])C([H])([H])[H])C([H])(C(=O)N([H])C1([H])c3c([H])c([H])c([H])c([H])c3C([H])([H])C([H])([H])C1([H])[H])C2([H])[H]

>  <smiles>  (70) 
[H]c1c(N([H])C(=O)N2C([H])([H])C([H])([H])C([H])([H])C([H])(n3nc(-c4c([H])c([H])c(Oc5c([H])c([H])c(F)c([H])c5F)c([H])c4[H])c(C(=O)N([H])[H])c3N([H])[H])C2([H])[H])nc(C([H])([H])[H])nc1C1([H])C([H])([H])C1([H])Oc1c([H])c([H])c2c(c1[H])C([H])([H])N(C(=O)C([H])(N([H])C(=O)C([H])(N([H])C([H])([H])[H])C([H])([H])[H])C(C([H])([H])[H])(C([H])([H])[H])C([H])([H])[H])C([H])(C(=O)N([H])C1([H])c3c([H])c([H])c([H])c([H])c3C([H])([H])C([H])([H])C1([H])[H])C2([H])[H]

$$$$
70:0:0
     RDKit          3D

 90 99  0  0  1  0  0  0  0  0999 V2000
  -30.4000  -15.3750   20.3270 C   0  0  0  0  0  0  0  0  0  0  0  0
  -30.4100  -12.8830   19.5370 C   0  0  0  0  0  2  0  0  0  0  0  0
  -29.5280  -12.6050   18.2910 C   0  0  0  0  0  2  0  0  0  0  0  0
  -28.0770  -12.3240   18.7100 C   0  0  0  0  0  2  0  0  0  0  0  0
  -27.5850  -13.3310   19.7780 C   0  0  0  0  0  3  0  0  0  0  0  0
  -28.5990  -13.5500   20.9230 C   0  0  0  0  0  2  0  0  0  0  0  0
  -29.8360  -14.0570   20.3050 N   0  0  0  0  0  0  0  0  0  0  0  0
  -31.6270  -15.3310   20.1320 O   0  0  0  0  0  0  0  0  0  0  0  0
  -29.0280  -19.5550   20.4460 C   0  0  0  0  0  3  0  0  0  0  0  0
  -31.4460  -19.8850   19.3660 C   0  0  0  0  0  3  0  0  0  0  0  0
  -29.3900  -21.0400   20.1570 C   0  0  0  0  0  0  0  0  0  0  0  0
  -30.6920  -21.0510   19.6520 C   0  0  0  0  0  0  0  0  0  0  0  0
  -29.8760  -18.2710   20.1690 C   0  0  0  0  0  0  0  0  0  0  0  0
  -31.2880  -22.4340   19.6540 C   0  0  0  0  0  2  0  0  0  0  0  0
  -30.4450  -23.2260   20.6750 C   0  0  0  0  0  2  0  0  0  0  0  0
  -28.9790  -22.7130   20.6110 C   0  0  2  0  0  0  0  0  0  0  0  0
  -28.3670  -22.6420   22.0170 C   0  0  0  0  0  1  0  0  0  0  0  0
  -31.0610  -18.6000   19.5960 N   0  0  0  0  0  0  0  0  0  0  0  0
  -29.6410  -16.6710   20.4100 N   0  0  0  0  0  0  0  0  0  0  0  0
  -28.6730  -16.4780   20.6220 H   0  0  0  0  0  0  0  0  0  0  0  0
  -25.2030  -13.9020   20.4760 C   0  0  0  0  0  0  0  0  0  0  0  0
  -24.1300  -13.1320   20.8300 C   0  0  0  0  0  0  0  0  0  0  0  0
  -24.5950  -11.7810   20.8280 C   0  0  0  0  0  0  0  0  0  0  0  0
  -26.2470  -13.0210   20.2650 N   0  0  0  0  0  0  0  0  0  0  0  0
  -25.8930  -11.7410   20.5470 N   0  0  0  0  0  0  0  0  0  0  0  0
  -23.8600  -10.5230   21.0170 C   0  0  0  0  0  0  0  0  0  0  0  0
  -24.2730   -9.5610   21.9650 C   0  0  0  0  0  3  0  0  0  0  0  0
  -23.5380   -8.3700   22.1460 C   0  0  0  0  0  3  0  0  0  0  0  0
  -22.3740   -8.1320   21.3780 C   0  0  0  0  0  0  0  0  0  0  0  0
  -21.9780   -9.0820   20.4200 C   0  0  0  0  0  3  0  0  0  0  0  0
  -22.7140  -10.2640   20.2380 C   0  0  0  0  0  3  0  0  0  0  0  0
  -21.6120   -6.9920   21.4670 O   0  0  0  0  0  0  0  0  0  0  0  0
  -21.5490   -6.2550   22.6220 C   0  0  0  0  0  0  0  0  0  0  0  0
  -21.1310   -6.8230   23.8450 C   0  0  0  0  0  3  0  0  0  0  0  0
  -21.0140   -6.0150   24.9930 C   0  0  0  0  0  3  0  0  0  0  0  0
  -21.3040   -4.6390   24.9200 C   0  0  0  0  0  0  0  0  0  0  0  0
  -21.7140   -4.0710   23.7010 C   0  0  0  0  0  3  0  0  0  0  0  0
  -21.8330   -4.8760   22.5550 C   0  0  0  0  0  0  0  0  0  0  0  0
  -22.2090   -4.3190   21.3790 F   0  0  0  0  0  0  0  0  0  0  0  0
  -21.1830   -3.8610   26.0210 F   0  0  0  0  0  0  0  0  0  0  0  0
  -22.7290  -13.6160   21.0540 C   0  0  0  0  0  0  0  0  0  0  0  0
  -21.9760  -12.9390   21.9150 N   0  0  0  0  0  0  0  0  0  0  0  0
  -22.3080  -14.6330   20.5020 O   0  0  0  0  0  0  0  0  0  0  0  0
  -22.3320  -12.1200   22.3860 H   0  0  0  0  0  0  0  0  0  0  0  0
  -21.0330  -13.2450   22.1070 H   0  0  0  0  0  0  0  0  0  0  0  0
  -25.3710  -15.2710   20.2860 N   0  0  0  0  0  0  0  0  0  0  0  0
  -24.6040  -15.9260   20.3910 H   0  0  0  0  0  0  0  0  0  0  0  0
  -26.2170  -15.7060   19.9410 H   0  0  0  0  0  0  0  0  0  0  0  0
  -28.1910  -24.1870   19.8700 C   0  0  0  0  0  2  0  0  0  0  0  0
  -28.2790  -25.8300   20.1870 O   0  0  0  0  0  0  0  0  0  0  0  0
  -24.6680  -31.8210   23.0870 C   0  0  0  0  0  0  0  0  0  0  0  0
  -27.2590  -26.9280   20.0810 C   0  0  0  0  0  0  0  0  0  0  0  0
  -23.4860  -30.4130   21.4480 C   0  0  0  0  0  3  0  0  0  0  0  0
  -24.9460  -28.8090   20.0260 C   0  0  0  0  0  0  0  0  0  0  0  0
  -26.0490  -30.6300   21.3110 C   0  0  0  0  0  2  0  0  0  0  0  0
  -26.1300  -29.2180   20.6540 C   0  0  0  0  0  0  0  0  0  0  0  0
  -27.2750  -28.2960   20.6610 C   0  0  0  0  0  3  0  0  0  0  0  0
  -26.0470  -26.6820   19.3950 C   0  0  0  0  0  3  0  0  0  0  0  0
  -24.9320  -27.5660   19.3740 C   0  0  0  0  0  3  0  0  0  0  0  0
  -23.7210  -29.7250   20.0740 C   0  0  0  0  0  2  0  0  0  0  0  0
  -24.7550  -30.9830   22.0020 N   0  0  0  0  0  0  0  0  0  0  0  0
  -23.5750  -32.1060   23.6050 O   0  0  0  0  0  0  0  0  0  0  0  0
  -22.7920  -29.4190   22.4160 C   0  0  0  0  0  0  0  0  0  0  0  0
  -21.4570  -29.2760   22.3150 N   0  0  0  0  0  0  0  0  0  0  0  0
  -23.4640  -28.7770   23.2270 O   0  0  0  0  0  0  0  0  0  0  0  0
  -20.9710  -29.8490   21.6380 H   0  0  0  0  0  0  0  0  0  0  0  0
  -18.0660  -28.1170   22.8830 C   0  0  0  0  0  0  0  0  0  0  0  0
  -20.6360  -28.3380   23.0870 C   0  0  0  0  0  3  0  0  0  0  0  0
  -20.6990  -26.9150   22.4840 C   0  0  0  0  0  2  0  0  0  0  0  0
  -19.5680  -26.6300   21.4910 C   0  0  0  0  0  2  0  0  0  0  0  0
  -18.2050  -26.7820   22.1730 C   0  0  0  0  0  2  0  0  0  0  0  0
  -19.2070  -28.8560   23.2980 C   0  0  0  0  0  0  0  0  0  0  0  0
  -19.0220  -30.1050   23.9280 C   0  0  0  0  0  3  0  0  0  0  0  0
  -17.7300  -30.6180   24.1460 C   0  0  0  0  0  3  0  0  0  0  0  0
  -16.6030  -29.8770   23.7470 C   0  0  0  0  0  3  0  0  0  0  0  0
  -16.7730  -28.6300   23.1200 C   0  0  0  0  0  3  0  0  0  0  0  0
  -25.9320  -32.4730   23.7230 C   0  0  0  0  0  3  0  0  0  0  0  0
  -25.5940  -33.8600   24.0870 N   0  0  0  0  0  0  0  0  0  0  0  0
  -25.9030  -34.9440   23.3630 C   0  0  0  0  0  0  0  0  0  0  0  0
  -26.5650  -34.8800   22.3260 O   0  0  0  0  0  0  0  0  0  0  0  0
  -24.9970  -33.9780   24.8940 H   0  0  0  0  0  0  0  0  0  0  0  0
  -24.1410  -36.7250   23.0930 C   0  0  0  0  0  1  0  0  0  0  0  0
  -25.4030  -36.3130   23.8680 C   0  0  0  0  0  3  0  0  0  0  0  0
  -27.5390  -37.2150   24.6840 C   0  0  0  0  0  1  0  0  0  0  0  0
  -26.4160  -37.3860   23.7660 N   0  0  0  0  0  0  0  0  0  0  0  0
  -25.9990  -38.2950   23.9460 H   0  0  0  0  0  0  0  0  0  0  0  0
  -26.4570  -31.6950   24.9940 C   0  0  1  0  0  0  0  0  0  0  0  0
  -25.3660  -31.4360   26.0620 C   0  0  0  0  0  1  0  0  0  0  0  0
  -27.0560  -30.3270   24.5980 C   0  0  0  0  0  1  0  0  0  0  0  0
  -27.5970  -32.4980   25.6640 C   0  0  0  0  0  1  0  0  0  0  0  0
  1 19  1  0
  2  7  1  0
  3  4  1  0
  3  2  1  0
  5  4  1  0
  5 24  1  0
  5  6  1  0
  7  1  1  0
  7  6  1  0
  8  1  2  0
 10 18  1  0
 10 12  2  0
 11  9  2  0
 11 16  1  0
 12 14  1  0
 12 11  1  0
 13 19  1  0
 13  9  1  0
 14 15  1  0
 16 15  1  0
 16 17  1  1
 18 13  2  0
 19 20  1  0
 21 22  2  0
 22 41  1  0
 23 22  1  0
 23 26  1  0
 24 21  1  0
 24 25  1  0
 25 23  2  0
 26 27  1  0
 27 28  2  0
 29 32  1  0
 29 28  1  0
 30 29  2  0
 31 30  1  0
 31 26  2  0
 32 33  1  0
 33 34  1  0
 34 35  2  0
 36 35  1  0
 36 40  1  0
 37 36  2  0
 38 33  2  0
 38 37  1  0
 39 38  1  0
 41 42  1  0
 42 45  1  0
 42 44  1  0
 43 41  2  0
 46 47  1  0
 46 21  1  0
 48 46  1  0
 49 50  1  0
 49 16  1  0
 51 62  2  0
 52 50  1  0
 52 57  1  0
 53 61  1  0
 53 63  1  0
 54 60  1  0
 54 56  1  0
 55 61  1  0
 56 57  2  0
 56 55  1  0
 58 52  2  0
 59 58  1  0
 59 54  2  0
 60 53  1  0
 61 51  1  0
 63 65  2  0
 64 63  1  0
 66 64  1  0
 67 76  2  0
 67 72  1  0
 68 64  1  0
 68 72  1  0
 69 68  1  0
 70 71  1  0
 70 69  1  0
 71 67  1  0
 72 73  2  0
 73 74  1  0
 75 74  2  0
 76 75  1  0
 77 51  1  0
 77 78  1  0
 77 87  1  0
 78 81  1  0
 79 83  1  0
 79 78  1  0
 80 79  2  0
 83 82  1  0
 85 83  1  0
 85 86  1  0
 85 84  1  0
 87 90  1  1
 87 88  1  0
 89 87  1  0
M  ISO  4   1 100  19 100  49 101  50 101
M  END
>  <TORSDO>  (71) 
F 16

>  <SCORE>  (71) 
-16.655

>  <name>  (71) 
70

>  <ligand_id>  (71) 
70

>  <original_smiles>  (71) 
[H]c1nc(N([H])C(=O)N2C([H])([H])C([H])([H])C([H])([H])C([H])(n3nc(-c4c([H])c([H])c(Oc5c([H])c([H])c(F)c([H])c5F)c([H])c4[H])c(C(=O)N([H])[H])c3N([H])[H])C2([H])[H])c([H])c2c1C([H])([H])C([H])([H])C2(C([H])([H])[H])C([H])([H])Oc1c([H])c([H])c2c(c1[H])C([H])([H])N(C(=O)C([H])(N([H])C(=O)C([H])(N([H])C([H])([H])[H])C([H])([H])[H])C(C([H])([H])[H])(C([H])([H])[H])C([H])([H])[H])C([H])(C(=O)N([H])C1([H])c3c([H])c([H])c([H])c([H])c3C([H])([H])C([H])([H])C1([H])[H])C2([H])[H]

>  <smiles>  (71) 
[H]c1nc(N([H])C(=O)N2C([H])([H])C([H])([H])C([H])([H])C([H])(n3nc(-c4c([H])c([H])c(Oc5c([H])c([H])c(F)c([H])c5F)c([H])c4[H])c(C(=O)N([H])[H])c3N([H])[H])C2([H])[H])c([H])c2c1C([H])([H])C([H])([H])C2(C([H])([H])[H])C([H])([H])Oc1c([H])c([H])c2c(c1[H])C([H])([H])N(C(=O)C([H])(N([H])C(=O)C([H])(N([H])C([H])([H])[H])C([H])([H])[H])C(C([H])([H])[H])(C([H])([H])[H])C([H])([H])[H])C([H])(C(=O)N([H])C1([H])c3c([H])c([H])c([H])c([H])c3C([H])([H])C([H])([H])C1([H])[H])C2([H])[H]

$$$$
71:0:0
     RDKit          3D

 93102  0  0  1  0  0  0  0  0999 V2000
  -29.7760  -20.7530   19.1020 C   0  0  0  0  0  3  0  0  0  0  0  0
  -28.7280  -21.8130   19.0250 C   0  0  0  0  0  0  0  0  0  0  0  0
  -27.4180  -21.3030   19.1270 C   0  0  0  0  0  0  0  0  0  0  0  0
  -29.4880  -19.2980   19.3160 C   0  0  0  0  0  0  0  0  0  0  0  0
  -27.1860  -19.9100   19.3490 C   0  0  0  0  0  0  0  0  0  0  0  0
  -27.1500  -23.4260   18.0180 C   0  0  0  0  0  2  0  0  0  0  0  0
  -28.6230  -23.3900   18.4930 C   0  0  0  0  0  3  0  0  0  0  0  0
  -26.3670  -22.4180   18.8860 C   0  0  2  0  0  0  0  0  0  0  0  0
  -25.7770  -19.3420   19.4560 C   0  0  0  0  0  1  0  0  0  0  0  0
  -26.0290  -23.0990   20.2320 C   0  0  0  0  0  1  0  0  0  0  0  0
  -25.0410  -22.0390   18.1630 C   0  0  0  0  0  1  0  0  0  0  0  0
  -28.1760  -18.9650   19.4360 N   0  0  0  0  0  0  0  0  0  0  0  0
  -30.5470  -18.0100   19.4910 C   0  0  0  0  0  2  0  0  0  0  0  0
  -31.0240  -15.2690   19.8260 C   0  0  0  0  0  0  0  0  0  0  0  0
  -30.9090  -12.8270   19.0980 C   0  0  0  0  0  2  0  0  0  0  0  0
  -29.9380  -12.6490   17.9020 C   0  0  0  0  0  2  0  0  0  0  0  0
  -28.4970  -12.4580   18.4050 C   0  0  0  0  0  2  0  0  0  0  0  0
  -28.1180  -13.5000   19.4850 C   0  0  0  0  0  3  0  0  0  0  0  0
  -29.1960  -13.6300   20.5790 C   0  0  0  0  0  2  0  0  0  0  0  0
  -30.4410  -13.9990   19.8980 N   0  0  0  0  0  0  0  0  0  0  0  0
  -32.2310  -15.2870   19.5430 O   0  0  0  0  0  0  0  0  0  0  0  0
  -30.2460  -16.4810   19.8620 N   0  0  0  0  0  0  0  0  0  0  0  0
  -29.2720  -16.3380   20.0820 H   0  0  0  0  0  0  0  0  0  0  0  0
  -25.8560  -14.1910   20.4370 C   0  0  0  0  0  0  0  0  0  0  0  0
  -24.7520  -13.4760   20.7930 C   0  0  0  0  0  0  0  0  0  0  0  0
  -25.1010  -12.0980   20.6200 C   0  0  0  0  0  0  0  0  0  0  0  0
  -26.8000  -13.2570   20.0450 N   0  0  0  0  0  0  0  0  0  0  0  0
  -26.3640  -11.9870   20.2290 N   0  0  0  0  0  0  0  0  0  0  0  0
  -24.2880  -10.8810   20.7410 C   0  0  0  0  0  0  0  0  0  0  0  0
  -24.7530   -9.7510   21.4500 C   0  0  0  0  0  3  0  0  0  0  0  0
  -23.9440   -8.6010   21.5720 C   0  0  0  0  0  3  0  0  0  0  0  0
  -22.6590   -8.5720   20.9800 C   0  0  0  0  0  0  0  0  0  0  0  0
  -22.2130   -9.6880   20.2470 C   0  0  0  0  0  3  0  0  0  0  0  0
  -23.0200  -10.8290   20.1240 C   0  0  0  0  0  3  0  0  0  0  0  0
  -21.8110   -7.4930   21.0250 O   0  0  0  0  0  0  0  0  0  0  0  0
  -21.9470   -6.5110   21.9740 C   0  0  0  0  0  0  0  0  0  0  0  0
  -21.9300   -6.7990   23.3560 C   0  0  0  0  0  3  0  0  0  0  0  0
  -22.0010   -5.7480   24.2930 C   0  0  0  0  0  3  0  0  0  0  0  0
  -22.0850   -4.4160   23.8530 C   0  0  0  0  0  0  0  0  0  0  0  0
  -22.1030   -4.1280   22.4790 C   0  0  0  0  0  3  0  0  0  0  0  0
  -22.0330   -5.1720   21.5430 C   0  0  0  0  0  0  0  0  0  0  0  0
  -22.0240   -4.8900   20.2170 F   0  0  0  0  0  0  0  0  0  0  0  0
  -22.1520   -3.4050   24.7540 F   0  0  0  0  0  0  0  0  0  0  0  0
  -23.4130  -14.0280   21.1870 C   0  0  0  0  0  0  0  0  0  0  0  0
  -22.6930  -13.3270   22.0510 N   0  0  0  0  0  0  0  0  0  0  0  0
  -23.0210  -15.1120   20.7520 O   0  0  0  0  0  0  0  0  0  0  0  0
  -23.0240  -12.4440   22.4140 H   0  0  0  0  0  0  0  0  0  0  0  0
  -21.8010  -13.6830   22.3590 H   0  0  0  0  0  0  0  0  0  0  0  0
  -26.1410  -15.5540   20.3860 N   0  0  0  0  0  0  0  0  0  0  0  0
  -25.4830  -16.2650   20.6810 H   0  0  0  0  0  0  0  0  0  0  0  0
  -27.0430  -15.9320   20.1360 H   0  0  0  0  0  0  0  0  0  0  0  0
  -29.1070  -24.9190   19.0980 C   0  0  0  0  0  2  0  0  0  0  0  0
  -28.5750  -26.0870   20.0140 O   0  0  0  0  0  0  0  0  0  0  0  0
  -24.5320  -31.4810   23.0120 C   0  0  0  0  0  0  0  0  0  0  0  0
  -27.4870  -27.0240   19.8680 C   0  0  0  0  0  0  0  0  0  0  0  0
  -23.4640  -30.0370   21.3190 C   0  0  0  0  0  3  0  0  0  0  0  0
  -25.0490  -28.6120   19.8580 C   0  0  0  0  0  0  0  0  0  0  0  0
  -25.9930  -30.4710   21.2270 C   0  0  0  0  0  2  0  0  0  0  0  0
  -26.1700  -29.1080   20.5320 C   0  0  0  0  0  0  0  0  0  0  0  0
  -27.3780  -28.3120   20.5460 C   0  0  0  0  0  3  0  0  0  0  0  0
  -26.3730  -26.6750   19.0940 C   0  0  0  0  0  3  0  0  0  0  0  0
  -25.1750  -27.4270   19.1110 C   0  0  0  0  0  3  0  0  0  0  0  0
  -23.7570  -29.4130   19.9230 C   0  0  0  0  0  2  0  0  0  0  0  0
  -24.6770  -30.6930   21.9040 N   0  0  0  0  0  0  0  0  0  0  0  0
  -23.4200  -31.6740   23.5300 O   0  0  0  0  0  0  0  0  0  0  0  0
  -22.8480  -28.9660   22.2560 C   0  0  0  0  0  0  0  0  0  0  0  0
  -21.5340  -28.7150   22.1200 N   0  0  0  0  0  0  0  0  0  0  0  0
  -23.5510  -28.3650   23.0720 O   0  0  0  0  0  0  0  0  0  0  0  0
  -21.0120  -29.2590   21.4480 H   0  0  0  0  0  0  0  0  0  0  0  0
  -18.2500  -27.2740   22.5970 C   0  0  0  0  0  0  0  0  0  0  0  0
  -20.7820  -27.7040   22.8670 C   0  0  0  0  0  3  0  0  0  0  0  0
  -20.9830  -26.3030   22.2470 C   0  0  0  0  0  2  0  0  0  0  0  0
  -19.8990  -25.9350   21.2260 C   0  0  0  0  0  2  0  0  0  0  0  0
  -18.5280  -25.9460   21.9110 C   0  0  0  0  0  2  0  0  0  0  0  0
  -19.3140  -28.1040   23.0440 C   0  0  0  0  0  0  0  0  0  0  0  0
  -19.0130  -29.3340   23.6620 C   0  0  0  0  0  3  0  0  0  0  0  0
  -17.6790  -29.7460   23.8360 C   0  0  0  0  0  3  0  0  0  0  0  0
  -16.6260  -28.9180   23.4040 C   0  0  0  0  0  3  0  0  0  0  0  0
  -16.9120  -27.6850   22.7900 C   0  0  0  0  0  3  0  0  0  0  0  0
  -25.7550  -32.1890   23.6740 C   0  0  0  0  0  3  0  0  0  0  0  0
  -25.3810  -33.5890   23.9250 N   0  0  0  0  0  0  0  0  0  0  0  0
  -25.7910  -34.6350   23.1920 C   0  0  0  0  0  0  0  0  0  0  0  0
  -26.5880  -34.5230   22.2580 O   0  0  0  0  0  0  0  0  0  0  0  0
  -24.6640  -33.7390   24.6190 H   0  0  0  0  0  0  0  0  0  0  0  0
  -24.0700  -36.3840   22.6000 C   0  0  0  0  0  1  0  0  0  0  0  0
  -25.2230  -36.0250   23.5510 C   0  0  0  0  0  3  0  0  0  0  0  0
  -27.2420  -36.9890   24.5700 C   0  0  0  0  0  1  0  0  0  0  0  0
  -26.2370  -37.1020   23.5190 N   0  0  0  0  0  0  0  0  0  0  0  0
  -25.7940  -38.0130   23.5950 H   0  0  0  0  0  0  0  0  0  0  0  0
  -26.2310  -31.4980   25.0160 C   0  0  1  0  0  0  0  0  0  0  0  0
  -25.0980  -31.2840   26.0450 C   0  0  0  0  0  1  0  0  0  0  0  0
  -26.8670  -30.1170   24.7360 C   0  0  0  0  0  1  0  0  0  0  0  0
  -27.3290  -32.3610   25.6880 C   0  0  0  0  0  1  0  0  0  0  0  0
  1  4  1  0
  2  1  2  0
  2  3  1  0
  3  5  2  0
  4 12  2  0
  4 13  1  0
  5 12  1  0
  5  9  1  0
  6  7  1  0
  6  8  1  0
  7  2  1  0
  7 52  1  0
  8  3  1  0
  8 10  1  1
 11  8  1  0
 13 22  1  0
 14 22  1  0
 14 20  1  0
 15 20  1  0
 16 17  1  0
 16 15  1  0
 18 17  1  0
 18 27  1  0
 18 19  1  0
 20 19  1  0
 21 14  2  0
 22 23  1  0
 24 25  2  0
 25 44  1  0
 26 29  1  0
 26 25  1  0
 27 28  1  0
 27 24  1  0
 28 26  2  0
 29 30  1  0
 30 31  2  0
 32 35  1  0
 32 31  1  0
 33 32  2  0
 34 33  1  0
 34 29  2  0
 35 36  1  0
 36 37  1  0
 37 38  2  0
 39 38  1  0
 39 43  1  0
 40 39  2  0
 41 36  2  0
 41 40  1  0
 42 41  1  0
 44 45  1  0
 45 48  1  0
 45 47  1  0
 46 44  2  0
 49 24  1  0
 49 50  1  0
 51 49  1  0
 52 53  1  0
 54 65  2  0
 55 53  1  0
 55 60  1  0
 56 64  1  0
 56 66  1  0
 57 63  1  0
 57 59  1  0
 58 64  1  0
 59 60  2  0
 59 58  1  0
 61 62  1  0
 61 55  2  0
 62 57  2  0
 63 56  1  0
 64 54  1  0
 66 68  2  0
 67 66  1  0
 69 67  1  0
 70 79  2  0
 70 75  1  0
 71 67  1  0
 71 75  1  0
 72 71  1  0
 73 74  1  0
 73 72  1  0
 74 70  1  0
 75 76  2  0
 76 77  1  0
 78 77  2  0
 79 78  1  0
 80 54  1  0
 80 81  1  0
 80 90  1  0
 81 84  1  0
 82 86  1  0
 82 81  1  0
 83 82  2  0
 86 85  1  0
 88 86  1  0
 88 89  1  0
 88 87  1  0
 90 93  1  1
 90 91  1  0
 92 90  1  0
M  ISO  4  14 100  22 100  52 101  53 101
M  END
>  <TORSDO>  (72) 
F 18

>  <SCORE>  (72) 
-12.616

>  <name>  (72) 
71

>  <ligand_id>  (72) 
71

>  <original_smiles>  (72) 
[H]c1c([H])c([H])c2c(c1[H])C([H])([H])C([H])([H])C([H])([H])C2([H])N([H])C(=O)C1([H])N(C(=O)C([H])(N([H])C(=O)C([H])(N([H])C([H])([H])[H])C([H])([H])[H])C(C([H])([H])[H])(C([H])([H])[H])C([H])([H])[H])C([H])([H])c2c([H])c(OC([H])([H])C3([H])c4c([H])c(C([H])([H])N([H])C(=O)N5C([H])([H])C([H])([H])C([H])([H])C([H])(n6nc(-c7c([H])c([H])c(Oc8c([H])c([H])c(F)c([H])c8F)c([H])c7[H])c(C(=O)N([H])[H])c6N([H])[H])C5([H])[H])nc(C([H])([H])[H])c4C(C([H])([H])[H])(C([H])([H])[H])C3([H])[H])c([H])c([H])c2C1([H])[H]

>  <smiles>  (72) 
[H]c1c([H])c([H])c2c(c1[H])C([H])([H])C([H])([H])C([H])([H])C2([H])N([H])C(=O)C1([H])N(C(=O)C([H])(N([H])C(=O)C([H])(N([H])C([H])([H])[H])C([H])([H])[H])C(C([H])([H])[H])(C([H])([H])[H])C([H])([H])[H])C([H])([H])c2c([H])c(OC([H])([H])C3([H])c4c([H])c(C([H])([H])N([H])C(=O)N5C([H])([H])C([H])([H])C([H])([H])C([H])(n6nc(-c7c([H])c([H])c(Oc8c([H])c([H])c(F)c([H])c8F)c([H])c7[H])c(C(=O)N([H])[H])c6N([H])[H])C5([H])[H])nc(C([H])([H])[H])c4C(C([H])([H])[H])(C([H])([H])[H])C3([H])[H])c([H])c([H])c2C1([H])[H]

$$$$
72:0:0
     RDKit          3D

 93102  0  0  1  0  0  0  0  0999 V2000
  -27.8590  -23.1330   22.2730 C   0  0  0  0  0  3  0  0  0  0  0  0
  -27.7300  -25.4350   22.1150 C   0  0  0  0  0  3  0  0  0  0  0  0
  -28.3260  -23.0070   20.9290 C   0  0  0  0  0  0  0  0  0  0  0  0
  -28.2000  -25.3920   20.7700 C   0  0  0  0  0  0  0  0  0  0  0  0
  -27.5800  -24.3190   22.8730 N   0  0  0  0  0  0  0  0  0  0  0  0
  -28.5120  -24.1670   20.1790 N   0  0  0  0  0  0  0  0  0  0  0  0
  -28.3460  -26.5930   20.0400 O   0  0  0  0  0  0  0  0  0  0  0  0
  -24.6220  -31.9220   23.2170 C   0  0  0  0  0  0  0  0  0  0  0  0
  -27.2770  -27.4850   20.0250 C   0  0  0  0  0  0  0  0  0  0  0  0
  -23.4380  -30.5470   21.5370 C   0  0  0  0  0  3  0  0  0  0  0  0
  -24.9100  -29.0640   20.0650 C   0  0  0  0  0  0  0  0  0  0  0  0
  -25.9890  -30.9030   21.3810 C   0  0  0  0  0  2  0  0  0  0  0  0
  -26.0710  -29.5500   20.6840 C   0  0  0  0  0  0  0  0  0  0  0  0
  -27.2630  -28.7610   20.6630 C   0  0  0  0  0  3  0  0  0  0  0  0
  -26.1090  -27.0610   19.3680 C   0  0  0  0  0  3  0  0  0  0  0  0
  -24.9230  -27.8190   19.4090 C   0  0  0  0  0  3  0  0  0  0  0  0
  -23.6660  -29.9180   20.1360 C   0  0  0  0  0  2  0  0  0  0  0  0
  -24.6970  -31.1410   22.0990 N   0  0  0  0  0  0  0  0  0  0  0  0
  -23.5360  -32.1730   23.7540 O   0  0  0  0  0  0  0  0  0  0  0  0
  -22.7790  -29.5020   22.4810 C   0  0  0  0  0  0  0  0  0  0  0  0
  -21.4660  -29.2680   22.3150 N   0  0  0  0  0  0  0  0  0  0  0  0
  -23.4600  -28.8980   23.3130 O   0  0  0  0  0  0  0  0  0  0  0  0
  -21.0060  -29.6840   21.5260 H   0  0  0  0  0  0  0  0  0  0  0  0
  -18.0950  -28.0920   22.7930 C   0  0  0  0  0  0  0  0  0  0  0  0
  -20.6430  -28.3500   23.1060 C   0  0  0  0  0  3  0  0  0  0  0  0
  -20.7300  -26.9070   22.5570 C   0  0  0  0  0  2  0  0  0  0  0  0
  -19.6910  -26.6020   21.4840 C   0  0  0  0  0  2  0  0  0  0  0  0
  -18.2790  -26.7900   22.0370 C   0  0  0  0  0  2  0  0  0  0  0  0
  -19.2060  -28.8430   23.2650 C   0  0  0  0  0  0  0  0  0  0  0  0
  -18.9790  -30.0690   23.9270 C   0  0  0  0  0  3  0  0  0  0  0  0
  -17.6700  -30.5510   24.1180 C   0  0  0  0  0  3  0  0  0  0  0  0
  -16.5720  -29.8120   23.6440 C   0  0  0  0  0  3  0  0  0  0  0  0
  -16.7830  -28.5790   23.0000 C   0  0  0  0  0  3  0  0  0  0  0  0
  -25.8930  -32.5500   23.8630 C   0  0  0  0  0  3  0  0  0  0  0  0
  -25.5790  -33.9450   24.1890 N   0  0  0  0  0  0  0  0  0  0  0  0
  -25.9130  -35.0080   23.4400 C   0  0  0  0  0  0  0  0  0  0  0  0
  -26.5970  -34.9060   22.4190 O   0  0  0  0  0  0  0  0  0  0  0  0
  -24.9800  -34.1020   24.9880 H   0  0  0  0  0  0  0  0  0  0  0  0
  -24.1880  -36.8000   23.0730 C   0  0  0  0  0  1  0  0  0  0  0  0
  -25.4200  -36.3930   23.8960 C   0  0  0  0  0  3  0  0  0  0  0  0
  -27.5430  -37.2780   24.7600 C   0  0  0  0  0  1  0  0  0  0  0  0
  -26.4540  -37.4500   23.7980 N   0  0  0  0  0  0  0  0  0  0  0  0
  -26.0480  -38.3690   23.9400 H   0  0  0  0  0  0  0  0  0  0  0  0
  -26.3980  -31.7830   25.1490 C   0  0  1  0  0  0  0  0  0  0  0  0
  -25.2950  -31.5320   26.2050 C   0  0  0  0  0  1  0  0  0  0  0  0
  -26.9920  -30.4080   24.7650 C   0  0  0  0  0  1  0  0  0  0  0  0
  -27.5400  -32.5870   25.8170 C   0  0  0  0  0  1  0  0  0  0  0  0
  -28.3180  -21.5420   20.2970 C   0  0  0  0  0  2  0  0  0  0  0  0
  -29.5860  -20.7440   19.9970 N   0  0  0  0  0  4  0  0  0  0  0  0
  -29.8470  -21.0550   19.0710 H   0  0  0  0  0  0  0  0  0  0  0  0
  -30.3340  -21.0290   20.6040 H   0  0  0  0  0  0  0  0  0  0  0  0
  -30.8030  -14.8920   19.9770 C   0  0  0  0  0  0  0  0  0  0  0  0
  -30.5150  -12.6280   18.9640 C   0  0  0  0  0  2  0  0  0  0  0  0
  -29.5310  -12.6990   17.7770 C   0  0  0  0  0  2  0  0  0  0  0  0
  -28.0820  -12.5270   18.2820 C   0  0  0  0  0  2  0  0  0  0  0  0
  -27.7490  -13.4410   19.4950 C   0  0  0  0  0  3  0  0  0  0  0  0
  -28.8550  -13.3560   20.5730 C   0  0  0  0  0  2  0  0  0  0  0  0
  -30.1250  -13.6930   19.9200 N   0  0  0  0  0  0  0  0  0  0  0  0
  -31.9750  -14.9420   19.5990 O   0  0  0  0  0  0  0  0  0  0  0  0
  -29.8320  -18.4220   21.2700 C   0  0  0  0  0  2  0  0  0  0  0  0
  -30.3010  -18.4590   18.8920 C   0  0  0  0  0  2  0  0  0  0  0  0
  -29.6830  -16.8300   21.2330 C   0  0  0  0  0  2  0  0  0  0  0  0
  -29.9470  -16.9240   18.7780 C   0  0  0  0  0  2  0  0  0  0  0  0
  -29.4480  -19.2050   19.9660 C   0  0  0  0  0  3  0  0  0  0  0  0
  -30.0760  -16.0830   20.0030 N   0  0  0  0  0  0  0  0  0  0  0  0
  -25.3960  -13.9930   20.3580 C   0  0  0  0  0  0  0  0  0  0  0  0
  -24.3520  -13.1980   20.7660 C   0  0  0  0  0  0  0  0  0  0  0  0
  -24.8250  -11.8550   20.6880 C   0  0  0  0  0  0  0  0  0  0  0  0
  -26.4280  -13.1270   20.0490 N   0  0  0  0  0  0  0  0  0  0  0  0
  -26.1000  -11.8350   20.3170 N   0  0  0  0  0  0  0  0  0  0  0  0
  -24.1150  -10.5780   20.8820 C   0  0  0  0  0  0  0  0  0  0  0  0
  -24.5200   -9.6370   21.8560 C   0  0  0  0  0  3  0  0  0  0  0  0
  -23.7980   -8.4360   22.0380 C   0  0  0  0  0  3  0  0  0  0  0  0
  -22.6620   -8.1630   21.2410 C   0  0  0  0  0  0  0  0  0  0  0  0
  -22.2800   -9.0890   20.2540 C   0  0  0  0  0  3  0  0  0  0  0  0
  -23.0050  -10.2790   20.0700 C   0  0  0  0  0  3  0  0  0  0  0  0
  -21.9210   -7.0090   21.3290 O   0  0  0  0  0  0  0  0  0  0  0  0
  -21.7430   -6.3540   22.5220 C   0  0  0  0  0  0  0  0  0  0  0  0
  -21.1420   -6.9860   23.6350 C   0  0  0  0  0  3  0  0  0  0  0  0
  -20.9160   -6.2580   24.8210 C   0  0  0  0  0  3  0  0  0  0  0  0
  -21.2780   -4.9000   24.8950 C   0  0  0  0  0  0  0  0  0  0  0  0
  -21.8730   -4.2680   23.7890 C   0  0  0  0  0  3  0  0  0  0  0  0
  -22.1020   -4.9940   22.6060 C   0  0  0  0  0  0  0  0  0  0  0  0
  -22.6540   -4.3710   21.5370 F   0  0  0  0  0  0  0  0  0  0  0  0
  -21.0560   -4.2040   26.0330 F   0  0  0  0  0  0  0  0  0  0  0  0
  -22.9660  -13.6580   21.1080 C   0  0  0  0  0  0  0  0  0  0  0  0
  -22.2790  -12.9330   21.9930 N   0  0  0  0  0  0  0  0  0  0  0  0
  -22.4950  -14.6920   20.6360 O   0  0  0  0  0  0  0  0  0  0  0  0
  -22.6590  -12.0860   22.3850 H   0  0  0  0  0  0  0  0  0  0  0  0
  -21.3510  -13.2280   22.2740 H   0  0  0  0  0  0  0  0  0  0  0  0
  -25.5540  -15.3660   20.1980 N   0  0  0  0  0  0  0  0  0  0  0  0
  -24.8230  -16.0550   20.3630 H   0  0  0  0  0  0  0  0  0  0  0  0
  -26.3980  -15.7830   19.8210 H   0  0  0  0  0  0  0  0  0  0  0  0
  1  5  1  0
  2  5  2  0
  3  1  2  0
  4  2  1  0
  6  4  2  0
  6  3  1  0
  7  4  1  0
  8 19  2  0
  9  7  1  0
  9 14  1  0
 10 18  1  0
 10 20  1  0
 11 17  1  0
 11 13  1  0
 12 18  1  0
 13 12  1  0
 14 13  2  0
 15 16  1  0
 15  9  2  0
 16 11  2  0
 17 10  1  0
 18  8  1  0
 20 22  2  0
 21 20  1  0
 23 21  1  0
 24 33  2  0
 24 29  1  0
 25 21  1  0
 25 29  1  0
 26 25  1  0
 27 28  1  0
 27 26  1  0
 28 24  1  0
 29 30  2  0
 30 31  1  0
 32 31  2  0
 33 32  1  0
 34  8  1  0
 34 35  1  0
 34 44  1  0
 35 38  1  0
 36 40  1  0
 36 35  1  0
 37 36  2  0
 40 39  1  0
 42 40  1  0
 42 43  1  0
 42 41  1  0
 44 47  1  1
 44 45  1  0
 46 44  1  0
 48  3  1  0
 49 48  1  0
 49 51  1  0
 50 49  1  0
 52 65  1  0
 53 58  1  0
 54 55  1  0
 54 53  1  0
 56 55  1  0
 56 69  1  0
 56 57  1  0
 58 52  1  0
 58 57  1  0
 59 52  2  0
 61 64  1  0
 62 60  1  0
 63 61  1  0
 63 65  1  0
 64 49  1  0
 64 60  1  0
 65 62  1  0
 66 67  2  0
 67 86  1  0
 68 67  1  0
 68 71  1  0
 69 70  1  0
 69 66  1  0
 70 68  2  0
 71 72  1  0
 72 73  2  0
 74 77  1  0
 74 73  1  0
 75 74  2  0
 76 75  1  0
 76 71  2  0
 77 78  1  0
 78 83  2  0
 78 79  1  0
 79 80  2  0
 80 81  1  0
 81 85  1  0
 82 81  2  0
 83 82  1  0
 84 83  1  0
 86 87  1  0
 87 90  1  0
 87 89  1  0
 88 86  2  0
 91 66  1  0
 91 92  1  0
 93 91  1  0
M  ISO  4   4 101   7 101  52 100  65 100
M  END
>  <TORSDO>  (73) 
F 18

>  <SCORE>  (73) 
-13.537

>  <name>  (73) 
72

>  <ligand_id>  (73) 
72

>  <original_smiles>  (73) 
[H]c1nc([H])c(C([H])([H])[N+]([H])([H])C2([H])C([H])([H])C([H])([H])N(C(=O)N3C([H])([H])C([H])([H])C([H])([H])C([H])(n4nc(-c5c([H])c([H])c(Oc6c([H])c([H])c(F)c([H])c6F)c([H])c5[H])c(C(=O)N([H])[H])c4N([H])[H])C3([H])[H])C([H])([H])C2([H])[H])nc1Oc1c([H])c([H])c2c(c1[H])C([H])([H])N(C(=O)C([H])(N([H])C(=O)C([H])(N([H])C([H])([H])[H])C([H])([H])[H])C(C([H])([H])[H])(C([H])([H])[H])C([H])([H])[H])C([H])(C(=O)N([H])C1([H])c3c([H])c([H])c([H])c([H])c3C([H])([H])C([H])([H])C1([H])[H])C2([H])[H]

>  <smiles>  (73) 
[H]c1nc([H])c(C([H])([H])[N+]([H])([H])C2([H])C([H])([H])C([H])([H])N(C(=O)N3C([H])([H])C([H])([H])C([H])([H])C([H])(n4nc(-c5c([H])c([H])c(Oc6c([H])c([H])c(F)c([H])c6F)c([H])c5[H])c(C(=O)N([H])[H])c4N([H])[H])C3([H])[H])C([H])([H])C2([H])[H])nc1Oc1c([H])c([H])c2c(c1[H])C([H])([H])N(C(=O)C([H])(N([H])C(=O)C([H])(N([H])C([H])([H])[H])C([H])([H])[H])C(C([H])([H])[H])(C([H])([H])[H])C([H])([H])[H])C([H])(C(=O)N([H])C1([H])c3c([H])c([H])c([H])c([H])c3C([H])([H])C([H])([H])C1([H])[H])C2([H])[H]

$$$$
73:0:0
     RDKit          3D

 91100  0  0  1  0  0  0  0  0999 V2000
  -29.2270  -22.7630   18.9760 C   0  0  0  0  0  3  0  0  0  0  0  0
  -28.7740  -23.5690   20.0500 C   0  0  0  0  0  0  0  0  0  0  0  0
  -28.7920  -22.8350   21.2650 C   0  0  0  0  0  0  0  0  0  0  0  0
  -29.5800  -20.8240   20.2730 C   0  0  0  0  0  0  0  0  0  0  0  0
  -29.7370  -18.4510   21.4130 C   0  0  0  0  0  2  0  0  0  0  0  0
  -30.0040  -18.3890   19.3660 C   0  0  0  0  0  2  0  0  0  0  0  0
  -30.4570  -17.3940   20.4960 C   0  0  0  0  0  3  0  0  0  0  0  0
  -28.2780  -23.4510   22.5500 C   0  0  0  0  0  1  0  0  0  0  0  0
  -29.6140  -21.4530   19.0940 N   0  0  0  0  0  0  0  0  0  0  0  0
  -29.1950  -21.5210   21.3530 N   0  0  0  0  0  0  0  0  0  0  0  0
  -30.1150  -19.4490   20.3920 N   0  0  0  0  0  0  0  0  0  0  0  0
  -30.7000  -14.7930   20.2360 C   0  0  0  0  0  0  0  0  0  0  0  0
  -30.4700  -12.5110   19.2410 C   0  0  0  0  0  2  0  0  0  0  0  0
  -29.5170  -12.5640   18.0270 C   0  0  0  0  0  2  0  0  0  0  0  0
  -28.0530  -12.3920   18.4790 C   0  0  0  0  0  2  0  0  0  0  0  0
  -27.6930  -13.2970   19.6870 C   0  0  0  0  0  3  0  0  0  0  0  0
  -28.7650  -13.2330   20.7960 C   0  0  0  0  0  2  0  0  0  0  0  0
  -30.0530  -13.5780   20.1800 N   0  0  0  0  0  0  0  0  0  0  0  0
  -31.8800  -14.8740   19.8850 O   0  0  0  0  0  0  0  0  0  0  0  0
  -29.9690  -15.9420   20.4900 N   0  0  0  0  0  0  0  0  0  0  0  0
  -28.9950  -15.7990   20.7130 H   0  0  0  0  0  0  0  0  0  0  0  0
  -25.3200  -13.8930   20.4620 C   0  0  0  0  0  0  0  0  0  0  0  0
  -24.2560  -13.1210   20.8400 C   0  0  0  0  0  0  0  0  0  0  0  0
  -24.7100  -11.7670   20.7860 C   0  0  0  0  0  0  0  0  0  0  0  0
  -26.3540  -13.0100   20.1980 N   0  0  0  0  0  0  0  0  0  0  0  0
  -25.9960  -11.7260   20.4570 N   0  0  0  0  0  0  0  0  0  0  0  0
  -23.9780  -10.5080   20.9730 C   0  0  0  0  0  0  0  0  0  0  0  0
  -24.3950   -9.5430   21.9170 C   0  0  0  0  0  3  0  0  0  0  0  0
  -23.6640   -8.3480   22.0900 C   0  0  0  0  0  3  0  0  0  0  0  0
  -22.5000   -8.1100   21.3200 C   0  0  0  0  0  0  0  0  0  0  0  0
  -22.1030   -9.0630   20.3660 C   0  0  0  0  0  3  0  0  0  0  0  0
  -22.8360  -10.2490   20.1900 C   0  0  0  0  0  3  0  0  0  0  0  0
  -21.7410   -6.9680   21.4040 O   0  0  0  0  0  0  0  0  0  0  0  0
  -21.6420   -6.2530   22.5700 C   0  0  0  0  0  0  0  0  0  0  0  0
  -21.1320   -6.8260   23.7550 C   0  0  0  0  0  3  0  0  0  0  0  0
  -20.9840   -6.0360   24.9120 C   0  0  0  0  0  3  0  0  0  0  0  0
  -21.3340   -4.6730   24.8850 C   0  0  0  0  0  0  0  0  0  0  0  0
  -21.8380   -4.0990   23.7040 C   0  0  0  0  0  3  0  0  0  0  0  0
  -21.9880   -4.8860   22.5500 C   0  0  0  0  0  0  0  0  0  0  0  0
  -22.4530   -4.3230   21.4090 F   0  0  0  0  0  0  0  0  0  0  0  0
  -21.1850   -3.9110   25.9940 F   0  0  0  0  0  0  0  0  0  0  0  0
  -22.8670  -13.6040   21.1380 C   0  0  0  0  0  0  0  0  0  0  0  0
  -22.1500  -12.9080   22.0140 N   0  0  0  0  0  0  0  0  0  0  0  0
  -22.4250  -14.6340   20.6290 O   0  0  0  0  0  0  0  0  0  0  0  0
  -22.5210  -12.0750   22.4470 H   0  0  0  0  0  0  0  0  0  0  0  0
  -21.2180  -13.2130   22.2560 H   0  0  0  0  0  0  0  0  0  0  0  0
  -25.4890  -15.2650   20.2950 N   0  0  0  0  0  0  0  0  0  0  0  0
  -24.7220  -15.9180   20.4170 H   0  0  0  0  0  0  0  0  0  0  0  0
  -26.3210  -15.7000   19.9190 H   0  0  0  0  0  0  0  0  0  0  0  0
  -27.9600  -24.9240   19.7930 C   0  0  0  0  0  2  0  0  0  0  0  0
  -28.3130  -26.3370   20.1970 O   0  0  0  0  0  0  0  0  0  0  0  0
  -24.6530  -31.8500   23.2710 C   0  0  0  0  0  0  0  0  0  0  0  0
  -27.2530  -27.2920   20.1260 C   0  0  0  0  0  0  0  0  0  0  0  0
  -23.4580  -30.4930   21.5980 C   0  0  0  0  0  3  0  0  0  0  0  0
  -24.9120  -28.9780   20.1380 C   0  0  0  0  0  0  0  0  0  0  0  0
  -26.0080  -30.7860   21.4450 C   0  0  0  0  0  2  0  0  0  0  0  0
  -26.0860  -29.4200   20.7620 C   0  0  0  0  0  0  0  0  0  0  0  0
  -27.2580  -28.5890   20.7510 C   0  0  0  0  0  3  0  0  0  0  0  0
  -26.0550  -26.9480   19.4500 C   0  0  0  0  0  3  0  0  0  0  0  0
  -24.9030  -27.7500   19.4720 C   0  0  0  0  0  3  0  0  0  0  0  0
  -23.6800  -29.8580   20.2020 C   0  0  0  0  0  2  0  0  0  0  0  0
  -24.7260  -31.0600   22.1600 N   0  0  0  0  0  0  0  0  0  0  0  0
  -23.5670  -32.1190   23.8020 O   0  0  0  0  0  0  0  0  0  0  0  0
  -22.7850  -29.4530   22.5290 C   0  0  0  0  0  0  0  0  0  0  0  0
  -21.4610  -29.2720   22.3830 N   0  0  0  0  0  0  0  0  0  0  0  0
  -23.4550  -28.8150   23.3440 O   0  0  0  0  0  0  0  0  0  0  0  0
  -20.9780  -29.8400   21.7010 H   0  0  0  0  0  0  0  0  0  0  0  0
  -18.0830  -28.0500   22.8250 C   0  0  0  0  0  0  0  0  0  0  0  0
  -20.6360  -28.3190   23.1280 C   0  0  0  0  0  3  0  0  0  0  0  0
  -20.7530  -26.8970   22.5330 C   0  0  0  0  0  2  0  0  0  0  0  0
  -19.6640  -26.5840   21.5010 C   0  0  0  0  0  2  0  0  0  0  0  0
  -18.2740  -26.7120   22.1300 C   0  0  0  0  0  2  0  0  0  0  0  0
  -19.1920  -28.8110   23.2800 C   0  0  0  0  0  0  0  0  0  0  0  0
  -18.9580  -30.0630   23.8900 C   0  0  0  0  0  3  0  0  0  0  0  0
  -17.6490  -30.5540   24.0490 C   0  0  0  0  0  3  0  0  0  0  0  0
  -16.5540  -29.7910   23.6090 C   0  0  0  0  0  3  0  0  0  0  0  0
  -16.7710  -28.5400   23.0040 C   0  0  0  0  0  3  0  0  0  0  0  0
  -25.9330  -32.4690   23.9120 C   0  0  0  0  0  3  0  0  0  0  0  0
  -25.6280  -33.8670   24.2490 N   0  0  0  0  0  0  0  0  0  0  0  0
  -25.9320  -34.9200   23.4780 C   0  0  0  0  0  0  0  0  0  0  0  0
  -26.5700  -34.8160   22.4260 O   0  0  0  0  0  0  0  0  0  0  0  0
  -25.0590  -34.0220   25.0680 H   0  0  0  0  0  0  0  0  0  0  0  0
  -24.1700  -36.6940   23.2030 C   0  0  0  0  0  1  0  0  0  0  0  0
  -25.4570  -36.3090   23.9480 C   0  0  0  0  0  3  0  0  0  0  0  0
  -27.6210  -37.2270   24.6610 C   0  0  0  0  0  1  0  0  0  0  0  0
  -26.4720  -37.3700   23.7700 N   0  0  0  0  0  0  0  0  0  0  0  0
  -26.0640  -38.2880   23.9250 H   0  0  0  0  0  0  0  0  0  0  0  0
  -26.4240  -31.6870   25.1920 C   0  0  1  0  0  0  0  0  0  0  0  0
  -25.3130  -31.4500   26.2430 C   0  0  0  0  0  1  0  0  0  0  0  0
  -27.0030  -30.3060   24.8050 C   0  0  0  0  0  1  0  0  0  0  0  0
  -27.5700  -32.4700   25.8750 C   0  0  0  0  0  1  0  0  0  0  0  0
  1  9  1  0
  1  2  2  0
  2  3  1  0
  3 10  2  0
  3  8  1  0
  4 11  1  0
  4 10  1  0
  6 11  1  0
  6  7  1  0
  7 20  1  0
  7  5  1  0
  9  4  2  0
 11  5  1  0
 12 20  1  0
 13 18  1  0
 14 15  1  0
 14 13  1  0
 16 15  1  0
 16 25  1  0
 16 17  1  0
 18 12  1  0
 18 17  1  0
 19 12  2  0
 20 21  1  0
 22 23  2  0
 23 42  1  0
 24 23  1  0
 24 27  1  0
 25 26  1  0
 25 22  1  0
 26 24  2  0
 27 28  1  0
 28 29  2  0
 30 33  1  0
 30 29  1  0
 31 30  2  0
 32 31  1  0
 32 27  2  0
 33 34  1  0
 34 35  1  0
 35 36  2  0
 37 36  1  0
 37 41  1  0
 38 37  2  0
 39 34  2  0
 39 38  1  0
 40 39  1  0
 42 43  1  0
 43 46  1  0
 43 45  1  0
 44 42  2  0
 47 48  1  0
 47 22  1  0
 49 47  1  0
 50  2  1  0
 50 51  1  0
 52 63  2  0
 53 51  1  0
 53 58  1  0
 54 62  1  0
 54 64  1  0
 55 61  1  0
 55 57  1  0
 56 62  1  0
 57 56  1  0
 58 57  2  0
 59 60  1  0
 59 53  2  0
 60 55  2  0
 61 54  1  0
 62 52  1  0
 64 66  2  0
 65 64  1  0
 67 65  1  0
 68 77  2  0
 68 73  1  0
 69 65  1  0
 69 73  1  0
 70 69  1  0
 71 72  1  0
 71 70  1  0
 72 68  1  0
 73 74  2  0
 74 75  1  0
 76 75  2  0
 77 76  1  0
 78 52  1  0
 78 79  1  0
 78 88  1  0
 79 82  1  0
 80 84  1  0
 80 79  1  0
 81 80  2  0
 84 83  1  0
 86 87  1  0
 86 84  1  0
 86 85  1  0
 88 91  1  1
 88 89  1  0
 90 88  1  0
M  ISO  4  12 100  20 100  50 101  51 101
M  END
>  <TORSDO>  (74) 
F 17

>  <SCORE>  (74) 
-14.525

>  <name>  (74) 
73

>  <ligand_id>  (74) 
73

>  <original_smiles>  (74) 
[H]c1nc(N2C([H])([H])C([H])(N([H])C(=O)N3C([H])([H])C([H])([H])C([H])([H])C([H])(n4nc(-c5c([H])c([H])c(Oc6c([H])c([H])c(F)c([H])c6F)c([H])c5[H])c(C(=O)N([H])[H])c4N([H])[H])C3([H])[H])C2([H])[H])nc(C([H])([H])[H])c1C([H])([H])Oc1c([H])c([H])c2c(c1[H])C([H])([H])N(C(=O)C([H])(N([H])C(=O)C([H])(N([H])C([H])([H])[H])C([H])([H])[H])C(C([H])([H])[H])(C([H])([H])[H])C([H])([H])[H])C([H])(C(=O)N([H])C1([H])c3c([H])c([H])c([H])c([H])c3C([H])([H])C([H])([H])C1([H])[H])C2([H])[H]

>  <smiles>  (74) 
[H]c1nc(N2C([H])([H])C([H])(N([H])C(=O)N3C([H])([H])C([H])([H])C([H])([H])C([H])(n4nc(-c5c([H])c([H])c(Oc6c([H])c([H])c(F)c([H])c6F)c([H])c5[H])c(C(=O)N([H])[H])c4N([H])[H])C3([H])[H])C2([H])[H])nc(C([H])([H])[H])c1C([H])([H])Oc1c([H])c([H])c2c(c1[H])C([H])([H])N(C(=O)C([H])(N([H])C(=O)C([H])(N([H])C([H])([H])[H])C([H])([H])[H])C(C([H])([H])[H])(C([H])([H])[H])C([H])([H])[H])C([H])(C(=O)N([H])C1([H])c3c([H])c([H])c([H])c([H])c3C([H])([H])C([H])([H])C1([H])[H])C2([H])[H]

$$$$
74:0:0
     RDKit          3D

 92101  0  0  1  0  0  0  0  0999 V2000
  -30.1830  -19.5610   21.5650 C   0  0  0  0  0  3  0  0  0  0  0  0
  -29.7580  -20.8730   21.4130 C   0  0  0  0  0  0  0  0  0  0  0  0
  -29.7450  -18.8220   20.4140 C   0  0  0  0  0  0  0  0  0  0  0  0
  -29.9680  -22.1340   22.2160 C   0  0  0  0  0  2  0  0  0  0  0  0
  -29.7880  -23.4770   21.4240 C   0  0  0  0  0  2  0  0  0  0  0  0
  -28.4500  -22.2360   19.6700 C   0  0  0  0  0  2  0  0  0  0  0  0
  -28.4910  -23.5950   20.5700 C   0  0  1  0  0  0  0  0  0  0  0  0
  -27.2740  -23.5940   21.5180 C   0  0  0  0  0  1  0  0  0  0  0  0
  -29.0090  -19.6960   19.6570 N   0  0  0  0  0  0  0  0  0  0  0  0
  -29.0270  -20.9560   20.2580 N   0  0  0  0  0  0  0  0  0  0  0  0
  -30.1180  -17.3000   18.3650 C   0  0  0  0  0  1  0  0  0  0  0  0
  -30.2530  -17.3790   19.8990 C   0  0  0  0  0  3  0  0  0  0  0  0
  -30.6060  -14.8280   20.3500 C   0  0  0  0  0  0  0  0  0  0  0  0
  -30.3790  -12.5480   19.3510 C   0  0  0  0  0  2  0  0  0  0  0  0
  -29.4520  -12.6300   18.1180 C   0  0  0  0  0  2  0  0  0  0  0  0
  -27.9800  -12.4680   18.5400 C   0  0  0  0  0  2  0  0  0  0  0  0
  -27.6070  -13.3520   19.7600 C   0  0  0  0  0  3  0  0  0  0  0  0
  -28.6600  -13.2700   20.8870 C   0  0  0  0  0  2  0  0  0  0  0  0
  -29.9570  -13.6120   20.2960 N   0  0  0  0  0  0  0  0  0  0  0  0
  -31.7980  -14.8790   20.0350 O   0  0  0  0  0  0  0  0  0  0  0  0
  -29.8700  -16.0070   20.4800 N   0  0  0  0  0  0  0  0  0  0  0  0
  -28.9040  -15.9030   20.7510 H   0  0  0  0  0  0  0  0  0  0  0  0
  -25.2170  -13.9480   20.4720 C   0  0  0  0  0  0  0  0  0  0  0  0
  -24.1490  -13.1800   20.8400 C   0  0  0  0  0  0  0  0  0  0  0  0
  -24.6090  -11.8260   20.8200 C   0  0  0  0  0  0  0  0  0  0  0  0
  -26.2600  -13.0660   20.2450 N   0  0  0  0  0  0  0  0  0  0  0  0
  -25.9010  -11.7850   20.5190 N   0  0  0  0  0  0  0  0  0  0  0  0
  -23.8790  -10.5670   21.0120 C   0  0  0  0  0  0  0  0  0  0  0  0
  -24.3000   -9.6030   21.9540 C   0  0  0  0  0  3  0  0  0  0  0  0
  -23.5680   -8.4100   22.1340 C   0  0  0  0  0  3  0  0  0  0  0  0
  -22.3990   -8.1720   21.3710 C   0  0  0  0  0  0  0  0  0  0  0  0
  -21.9980   -9.1250   20.4180 C   0  0  0  0  0  3  0  0  0  0  0  0
  -22.7300  -10.3090   20.2370 C   0  0  0  0  0  3  0  0  0  0  0  0
  -21.6400   -7.0300   21.4590 O   0  0  0  0  0  0  0  0  0  0  0  0
  -21.5780   -6.2960   22.6160 C   0  0  0  0  0  0  0  0  0  0  0  0
  -21.1380   -6.8580   23.8350 C   0  0  0  0  0  3  0  0  0  0  0  0
  -21.0230   -6.0500   24.9830 C   0  0  0  0  0  3  0  0  0  0  0  0
  -21.3370   -4.6790   24.9150 C   0  0  0  0  0  0  0  0  0  0  0  0
  -21.7700   -4.1160   23.7000 C   0  0  0  0  0  3  0  0  0  0  0  0
  -21.8870   -4.9210   22.5540 C   0  0  0  0  0  0  0  0  0  0  0  0
  -22.2840   -4.3690   21.3830 F   0  0  0  0  0  0  0  0  0  0  0  0
  -21.2190   -3.9000   26.0150 F   0  0  0  0  0  0  0  0  0  0  0  0
  -22.7510  -13.6610   21.0980 C   0  0  0  0  0  0  0  0  0  0  0  0
  -22.0140  -12.9710   21.9610 N   0  0  0  0  0  0  0  0  0  0  0  0
  -22.3220  -14.6870   20.5700 O   0  0  0  0  0  0  0  0  0  0  0  0
  -22.3740  -12.1410   22.4080 H   0  0  0  0  0  0  0  0  0  0  0  0
  -21.0760  -13.2780   22.1770 H   0  0  0  0  0  0  0  0  0  0  0  0
  -25.3850  -15.3180   20.2860 N   0  0  0  0  0  0  0  0  0  0  0  0
  -24.6120  -15.9690   20.3810 H   0  0  0  0  0  0  0  0  0  0  0  0
  -26.2260  -15.7530   19.9300 H   0  0  0  0  0  0  0  0  0  0  0  0
  -28.4220  -25.0090   19.7320 C   0  0  0  0  0  2  0  0  0  0  0  0
  -28.3550  -26.4110   20.3110 O   0  0  0  0  0  0  0  0  0  0  0  0
  -24.6150  -31.9100   23.2530 C   0  0  0  0  0  0  0  0  0  0  0  0
  -27.2400  -27.2890   20.2170 C   0  0  0  0  0  0  0  0  0  0  0  0
  -23.4230  -30.5020   21.6170 C   0  0  0  0  0  3  0  0  0  0  0  0
  -24.8810  -28.9520   20.1920 C   0  0  0  0  0  0  0  0  0  0  0  0
  -25.9670  -30.8150   21.4400 C   0  0  0  0  0  2  0  0  0  0  0  0
  -26.0520  -29.4310   20.7920 C   0  0  0  0  0  0  0  0  0  0  0  0
  -27.2310  -28.6110   20.7920 C   0  0  0  0  0  3  0  0  0  0  0  0
  -26.0360  -26.8830   19.5960 C   0  0  0  0  0  3  0  0  0  0  0  0
  -24.8800  -27.6890   19.5830 C   0  0  0  0  0  3  0  0  0  0  0  0
  -23.6430  -29.8280   20.2380 C   0  0  0  0  0  2  0  0  0  0  0  0
  -24.6870  -31.0960   22.1590 N   0  0  0  0  0  0  0  0  0  0  0  0
  -23.5290  -32.1840   23.7850 O   0  0  0  0  0  0  0  0  0  0  0  0
  -22.7610  -29.4840   22.5780 C   0  0  0  0  0  0  0  0  0  0  0  0
  -21.4340  -29.2990   22.4480 N   0  0  0  0  0  0  0  0  0  0  0  0
  -23.4400  -28.8660   23.4020 O   0  0  0  0  0  0  0  0  0  0  0  0
  -20.9430  -29.8520   21.7600 H   0  0  0  0  0  0  0  0  0  0  0  0
  -18.0630  -28.0720   22.9420 C   0  0  0  0  0  0  0  0  0  0  0  0
  -20.6180  -28.3570   23.2200 C   0  0  0  0  0  3  0  0  0  0  0  0
  -20.7350  -26.9220   22.6540 C   0  0  0  0  0  2  0  0  0  0  0  0
  -19.6400  -26.5850   21.6360 C   0  0  0  0  0  2  0  0  0  0  0  0
  -18.2540  -26.7210   22.2730 C   0  0  0  0  0  2  0  0  0  0  0  0
  -19.1730  -28.8470   23.3720 C   0  0  0  0  0  0  0  0  0  0  0  0
  -18.9410  -30.1100   23.9580 C   0  0  0  0  0  3  0  0  0  0  0  0
  -17.6310  -30.6000   24.1170 C   0  0  0  0  0  3  0  0  0  0  0  0
  -16.5350  -29.8220   23.7030 C   0  0  0  0  0  3  0  0  0  0  0  0
  -16.7520  -28.5600   23.1210 C   0  0  0  0  0  3  0  0  0  0  0  0
  -25.8910  -32.5540   23.8770 C   0  0  0  0  0  3  0  0  0  0  0  0
  -25.5710  -33.9530   24.1970 N   0  0  0  0  0  0  0  0  0  0  0  0
  -25.9030  -35.0050   23.4370 C   0  0  0  0  0  0  0  0  0  0  0  0
  -26.5780  -34.9010   22.4100 O   0  0  0  0  0  0  0  0  0  0  0  0
  -24.9690  -34.1070   24.9920 H   0  0  0  0  0  0  0  0  0  0  0  0
  -24.1750  -36.7970   23.0660 C   0  0  0  0  0  1  0  0  0  0  0  0
  -25.4090  -36.3950   23.8880 C   0  0  0  0  0  3  0  0  0  0  0  0
  -27.5340  -37.2870   24.7380 C   0  0  0  0  0  1  0  0  0  0  0  0
  -26.4410  -37.4490   23.7820 N   0  0  0  0  0  0  0  0  0  0  0  0
  -26.0320  -38.3690   23.9230 H   0  0  0  0  0  0  0  0  0  0  0  0
  -26.4030  -31.7960   25.1630 C   0  0  1  0  0  0  0  0  0  0  0  0
  -25.3020  -31.5670   26.2260 C   0  0  0  0  0  1  0  0  0  0  0  0
  -26.9950  -30.4160   24.7900 C   0  0  0  0  0  1  0  0  0  0  0  0
  -27.5460  -32.6030   25.8240 C   0  0  0  0  0  1  0  0  0  0  0  0
  2  1  2  0
  2  4  1  0
  3  1  1  0
  5  4  1  0
  6 10  1  0
  6  7  1  0
  7  5  1  0
  7  8  1  1
  9 10  1  0
  9  3  2  0
 10  2  1  0
 12 11  1  0
 12  3  1  0
 12 21  1  0
 13 21  1  0
 14 19  1  0
 15 16  1  0
 15 14  1  0
 17 16  1  0
 17 26  1  0
 17 18  1  0
 19 13  1  0
 19 18  1  0
 20 13  2  0
 21 22  1  0
 23 24  2  0
 24 43  1  0
 25 24  1  0
 25 28  1  0
 26 23  1  0
 26 27  1  0
 27 25  2  0
 28 29  1  0
 29 30  2  0
 31 34  1  0
 31 30  1  0
 32 31  2  0
 33 32  1  0
 33 28  2  0
 34 35  1  0
 35 36  1  0
 36 37  2  0
 38 37  1  0
 38 42  1  0
 39 38  2  0
 40 35  2  0
 40 39  1  0
 41 40  1  0
 43 44  1  0
 44 47  1  0
 44 46  1  0
 45 43  2  0
 48 49  1  0
 48 23  1  0
 50 48  1  0
 51 52  1  0
 51  7  1  0
 53 64  2  0
 54 52  1  0
 54 59  1  0
 55 63  1  0
 55 65  1  0
 56 62  1  0
 56 58  1  0
 57 63  1  0
 58 57  1  0
 59 58  2  0
 60 54  2  0
 61 60  1  0
 61 56  2  0
 62 55  1  0
 63 53  1  0
 65 67  2  0
 66 65  1  0
 68 66  1  0
 69 78  2  0
 69 74  1  0
 70 66  1  0
 70 74  1  0
 71 70  1  0
 72 73  1  0
 72 71  1  0
 73 69  1  0
 74 75  2  0
 75 76  1  0
 77 76  2  0
 78 77  1  0
 79 53  1  0
 79 80  1  0
 79 89  1  0
 80 83  1  0
 81 85  1  0
 81 80  1  0
 82 81  2  0
 85 84  1  0
 87 85  1  0
 87 88  1  0
 87 86  1  0
 89 92  1  1
 89 90  1  0
 91 89  1  0
M  ISO  4  13 100  21 100  51 101  52 101
M  END
>  <TORSDO>  (75) 
F 18

>  <SCORE>  (75) 
-14.673

>  <name>  (75) 
74

>  <ligand_id>  (75) 
74

>  <original_smiles>  (75) 
[H]c1c([H])c([H])c2c(c1[H])C([H])([H])C([H])([H])C([H])([H])C2([H])N([H])C(=O)C1([H])N(C(=O)C([H])(N([H])C(=O)C([H])(N([H])C([H])([H])[H])C([H])([H])[H])C(C([H])([H])[H])(C([H])([H])[H])C([H])([H])[H])C([H])([H])c2c([H])c(OC([H])([H])C3(C([H])([H])[H])C([H])([H])n4nc(C([H])(N([H])C(=O)N5C([H])([H])C([H])([H])C([H])([H])C([H])(n6nc(-c7c([H])c([H])c(Oc8c([H])c([H])c(F)c([H])c8F)c([H])c7[H])c(C(=O)N([H])[H])c6N([H])[H])C5([H])[H])C([H])([H])[H])c([H])c4C([H])([H])C3([H])[H])c([H])c([H])c2C1([H])[H]

>  <smiles>  (75) 
[H]c1c([H])c([H])c2c(c1[H])C([H])([H])C([H])([H])C([H])([H])C2([H])N([H])C(=O)C1([H])N(C(=O)C([H])(N([H])C(=O)C([H])(N([H])C([H])([H])[H])C([H])([H])[H])C(C([H])([H])[H])(C([H])([H])[H])C([H])([H])[H])C([H])([H])c2c([H])c(OC([H])([H])C3(C([H])([H])[H])C([H])([H])n4nc(C([H])(N([H])C(=O)N5C([H])([H])C([H])([H])C([H])([H])C([H])(n6nc(-c7c([H])c([H])c(Oc8c([H])c([H])c(F)c([H])c8F)c([H])c7[H])c(C(=O)N([H])[H])c6N([H])[H])C5([H])[H])C([H])([H])[H])c([H])c4C([H])([H])C3([H])[H])c([H])c([H])c2C1([H])[H]

$$$$
75:0:0
     RDKit          3D

 98103  0  0  1  0  0  0  0  0999 V2000
  -29.6650  -19.1490   21.1080 C   0  0  0  0  0  1  0  0  0  0  0  0
  -30.3720  -19.4230   18.1300 C   0  0  0  0  0  1  0  0  0  0  0  0
  -31.6310  -18.0360   21.1090 C   0  0  0  0  0  2  0  0  0  0  0  0
  -32.1600  -18.2480   18.7420 C   0  0  0  0  0  2  0  0  0  0  0  0
  -31.8650  -16.8210   22.0570 C   0  0  0  0  0  1  0  0  0  0  0  0
  -29.2470  -20.1050   19.5120 N   0  0  2  0  0  4  0  0  0  0  0  0
  -28.3220  -19.7880   19.2450 H   0  0  0  0  0  0  0  0  0  0  0  0
  -33.7490  -20.0870   18.3400 C   0  0  0  0  0  2  0  0  0  0  0  0
  -33.6650  -20.8200   19.5400 C   0  0  0  0  0  2  0  0  0  0  0  0
  -33.6450  -18.6880   18.5370 C   0  0  0  0  0  3  0  0  0  0  0  0
  -33.2660  -19.9670   20.5970 C   0  0  0  0  0  3  0  0  0  0  0  0
  -34.3820  -18.2710   19.6550 C   0  0  0  0  0  3  0  0  0  0  0  0
  -35.6180  -17.3760   19.5750 C   0  0  0  0  0  1  0  0  0  0  0  0
  -34.1660  -18.9610   20.7930 N   0  0  0  0  0  2  0  0  0  0  0  0
  -31.7020  -19.5690   20.4920 C   0  0  0  0  0  2  0  0  0  0  0  0
  -30.5110  -15.6390   19.7740 C   0  0  0  0  0  0  0  0  0  0  0  0
  -30.3040  -13.1400   18.8170 C   0  0  0  0  0  2  0  0  0  0  0  0
  -29.3220  -12.6620   17.7220 C   0  0  0  0  0  2  0  0  0  0  0  0
  -27.9490  -12.3240   18.3170 C   0  0  0  0  0  2  0  0  0  0  0  0
  -27.5540  -13.3230   19.4290 C   0  0  0  0  0  3  0  0  0  0  0  0
  -28.7060  -13.7060   20.3990 C   0  0  0  0  0  2  0  0  0  0  0  0
  -29.7570  -14.3800   19.5690 N   0  0  0  0  0  0  0  0  0  0  0  0
  -31.6710  -15.1870   19.8300 O   0  0  0  0  0  0  0  0  0  0  0  0
  -30.2200  -17.2810   19.7730 N   0  0  0  0  0  2  0  0  0  0  0  0
  -29.2400  -17.4580   19.6220 H   0  0  0  0  0  0  0  0  0  0  0  0
  -25.2810  -13.8660   20.4170 C   0  0  0  0  0  0  0  0  0  0  0  0
  -24.2430  -13.0970   20.8540 C   0  0  0  0  0  0  0  0  0  0  0  0
  -24.6850  -11.7410   20.7620 C   0  0  0  0  0  0  0  0  0  0  0  0
  -26.2890  -12.9880   20.0750 N   0  0  0  0  0  0  0  0  0  0  0  0
  -25.9520  -11.6990   20.3490 N   0  0  0  0  0  0  0  0  0  0  0  0
  -23.9490  -10.4860   20.9860 C   0  0  0  0  0  0  0  0  0  0  0  0
  -24.3700   -9.5420   21.9470 C   0  0  0  0  0  3  0  0  0  0  0  0
  -23.6270   -8.3630   22.1700 C   0  0  0  0  0  3  0  0  0  0  0  0
  -22.4460   -8.1150   21.4310 C   0  0  0  0  0  0  0  0  0  0  0  0
  -22.0450   -9.0430   20.4540 C   0  0  0  0  0  3  0  0  0  0  0  0
  -22.7890  -10.2150   20.2300 C   0  0  0  0  0  3  0  0  0  0  0  0
  -21.6820   -6.9780   21.5590 O   0  0  0  0  0  0  0  0  0  0  0  0
  -21.5890   -6.2980   22.7480 C   0  0  0  0  0  0  0  0  0  0  0  0
  -21.0610   -6.8990   23.9110 C   0  0  0  0  0  3  0  0  0  0  0  0
  -20.9240   -6.1450   25.0930 C   0  0  0  0  0  3  0  0  0  0  0  0
  -21.3040   -4.7890   25.1120 C   0  0  0  0  0  0  0  0  0  0  0  0
  -21.8210   -4.1870   23.9530 C   0  0  0  0  0  3  0  0  0  0  0  0
  -21.9610   -4.9390   22.7730 C   0  0  0  0  0  0  0  0  0  0  0  0
  -22.4430   -4.3470   21.6520 F   0  0  0  0  0  0  0  0  0  0  0  0
  -21.1640   -4.0610   26.2440 F   0  0  0  0  0  0  0  0  0  0  0  0
  -22.8770  -13.5910   21.2300 C   0  0  0  0  0  0  0  0  0  0  0  0
  -22.2210  -12.9160   22.1670 N   0  0  0  0  0  0  0  0  0  0  0  0
  -22.4070  -14.6110   20.7290 O   0  0  0  0  0  0  0  0  0  0  0  0
  -22.6260  -12.0910   22.5890 H   0  0  0  0  0  0  0  0  0  0  0  0
  -21.3050  -13.2230   22.4690 H   0  0  0  0  0  0  0  0  0  0  0  0
  -25.4410  -15.2390   20.2460 N   0  0  0  0  0  0  0  0  0  0  0  0
  -24.6800  -15.8890   20.4170 H   0  0  0  0  0  0  0  0  0  0  0  0
  -26.2550  -15.6790   19.8400 H   0  0  0  0  0  0  0  0  0  0  0  0
  -32.4860  -17.8190   16.0860 C   0  0  0  0  0  1  0  0  0  0  0  0
  -32.1720  -17.2420   17.4830 C   0  0  0  0  0  2  0  0  0  0  0  0
  -29.0760  -21.9530   19.4830 C   0  0  0  0  0  1  0  0  0  0  0  0
  -27.9180  -23.5670   19.7660 C   0  0  0  0  0  1  0  0  0  0  0  0
  -27.9710  -25.3870   19.8540 O   0  0  0  0  0  0  0  0  0  0  0  0
  -24.4550  -31.6630   23.0900 C   0  0  0  0  0  0  0  0  0  0  0  0
  -26.9530  -26.6010   19.9130 C   0  0  0  0  0  0  0  0  0  0  0  0
  -23.2210  -30.2400   21.5140 C   0  0  0  0  0  3  0  0  0  0  0  0
  -24.6330  -28.6300   20.0070 C   0  0  0  0  0  0  0  0  0  0  0  0
  -25.7880  -30.4310   21.2550 C   0  0  0  0  0  2  0  0  0  0  0  0
  -25.8550  -28.9950   20.5850 C   0  0  0  0  0  0  0  0  0  0  0  0
  -26.9910  -28.0130   20.5040 C   0  0  0  0  0  3  0  0  0  0  0  0
  -25.6810  -26.4670   19.2950 C   0  0  0  0  0  3  0  0  0  0  0  0
  -24.5870  -27.3940   19.3380 C   0  0  0  0  0  3  0  0  0  0  0  0
  -23.4100  -29.5590   20.1250 C   0  0  0  0  0  2  0  0  0  0  0  0
  -24.5160  -30.8110   22.0090 N   0  0  0  0  0  0  0  0  0  0  0  0
  -23.3800  -31.9310   23.6600 O   0  0  0  0  0  0  0  0  0  0  0  0
  -22.5810  -29.2420   22.5140 C   0  0  0  0  0  0  0  0  0  0  0  0
  -21.2680  -28.9750   22.3960 N   0  0  0  0  0  0  0  0  0  0  0  0
  -23.2840  -28.7060   23.3750 O   0  0  0  0  0  0  0  0  0  0  0  0
  -20.7450  -29.4620   21.6840 H   0  0  0  0  0  0  0  0  0  0  0  0
  -18.0320  -27.3830   22.8500 C   0  0  0  0  0  0  0  0  0  0  0  0
  -20.5250  -27.9960   23.1950 C   0  0  0  0  0  3  0  0  0  0  0  0
  -20.8290  -26.5520   22.7310 C   0  0  0  0  0  2  0  0  0  0  0  0
  -19.8280  -26.0260   21.6960 C   0  0  0  0  0  2  0  0  0  0  0  0
  -18.4100  -26.0290   22.2710 C   0  0  0  0  0  2  0  0  0  0  0  0
  -19.0240  -28.3100   23.2690 C   0  0  0  0  0  0  0  0  0  0  0  0
  -18.6140  -29.5630   23.7750 C   0  0  0  0  0  3  0  0  0  0  0  0
  -17.2480  -29.8960   23.8610 C   0  0  0  0  0  3  0  0  0  0  0  0
  -16.2720  -28.9690   23.4560 C   0  0  0  0  0  3  0  0  0  0  0  0
  -16.6640  -27.7150   22.9560 C   0  0  0  0  0  3  0  0  0  0  0  0
  -25.7280  -32.3530   23.6690 C   0  0  0  0  0  3  0  0  0  0  0  0
  -25.3750  -33.7350   24.0490 N   0  0  0  0  0  0  0  0  0  0  0  0
  -25.7220  -34.8400   23.3750 C   0  0  0  0  0  0  0  0  0  0  0  0
  -26.4270  -34.8030   22.3640 O   0  0  0  0  0  0  0  0  0  0  0  0
  -24.7490  -33.8360   24.8340 H   0  0  0  0  0  0  0  0  0  0  0  0
  -24.0180  -36.6720   23.0490 C   0  0  0  0  0  1  0  0  0  0  0  0
  -25.2100  -36.1990   23.8970 C   0  0  0  0  0  3  0  0  0  0  0  0
  -27.2900  -37.0320   24.9080 C   0  0  0  0  0  1  0  0  0  0  0  0
  -26.2440  -37.2550   23.9160 N   0  0  0  0  0  0  0  0  0  0  0  0
  -25.8270  -38.1650   24.0940 H   0  0  0  0  0  0  0  0  0  0  0  0
  -26.3250  -31.5940   24.9200 C   0  0  1  0  0  0  0  0  0  0  0  0
  -25.2720  -31.2560   26.0040 C   0  0  0  0  0  1  0  0  0  0  0  0
  -26.9960  -30.2680   24.4950 C   0  0  0  0  0  1  0  0  0  0  0  0
  -27.4260  -32.4530   25.5840 C   0  0  0  0  0  1  0  0  0  0  0  0
  2  6  1  0
  3  5  1  0
  6  1  1  0
  6  7  1  6
  8 10  1  0
  8  9  1  0
  9 11  1  0
 10  4  1  0
 10 12  1  0
 11 15  1  0
 11 14  1  0
 12 13  1  0
 12 14  1  0
 15  3  1  0
 16 23  2  0
 17 22  1  0
 18 19  1  0
 18 17  1  0
 20 19  1  0
 20 29  1  0
 20 21  1  0
 22 16  1  0
 22 21  1  0
 24 16  1  0
 25 24  1  0
 26 27  2  0
 27 46  1  0
 28 27  1  0
 28 31  1  0
 29 30  1  0
 29 26  1  0
 30 28  2  0
 31 32  1  0
 32 33  2  0
 34 37  1  0
 34 33  1  0
 35 34  2  0
 36 35  1  0
 36 31  2  0
 37 38  1  0
 38 43  2  0
 38 39  1  0
 39 40  2  0
 40 41  1  0
 41 45  1  0
 42 41  2  0
 43 42  1  0
 44 43  1  0
 46 47  1  0
 47 50  1  0
 47 49  1  0
 48 46  2  0
 51 26  1  0
 51 52  1  0
 53 51  1  0
 54 55  1  0
 55  4  1  0
 56  6  1  0
 57 58  1  0
 58 60  1  0
 59 70  2  0
 60 65  1  0
 61 69  1  0
 61 71  1  0
 62 68  1  0
 62 64  1  0
 63 69  1  0
 64 63  1  0
 65 64  2  0
 66 67  1  0
 66 60  2  0
 67 62  2  0
 68 61  1  0
 69 59  1  0
 71 73  2  0
 72 71  1  0
 74 72  1  0
 75 84  2  0
 75 80  1  0
 76 72  1  0
 76 80  1  0
 77 76  1  0
 78 79  1  0
 78 77  1  0
 79 75  1  0
 80 81  2  0
 81 82  1  0
 83 82  2  0
 84 83  1  0
 85 59  1  0
 85 86  1  0
 85 95  1  0
 86 89  1  0
 87 91  1  0
 87 86  1  0
 88 87  2  0
 91 90  1  0
 91 93  1  0
 93 94  1  0
 93 92  1  0
 95 98  1  1
 95 96  1  0
 97 95  1  0
M  ISO  4  16 100  24 100  57 101  58 101
M  END
>  <TORSDO>  (76) 
F 21

>  <SCORE>  (76) 
-13.583

>  <name>  (76) 
75

>  <ligand_id>  (76) 
75

>  <original_smiles>  (76) 
[H]c1c(C([H])([H])N([H])C(=O)N2C([H])([H])C([H])([H])C([H])([H])C([H])(n3nc(-c4c([H])c([H])c(Oc5c([H])c([H])c(F)c([H])c5F)c([H])c4[H])c(C(=O)N([H])[H])c3N([H])[H])C2([H])[H])nc(C([H])([H])[H])c(C2(C([H])([H])C([H])([H])[H])C([H])(C([H])([H])[H])C([H])([H])[N+]([H])(C([H])([H])C([H])([H])Oc3c([H])c([H])c4c(c3[H])C([H])([H])N(C(=O)C([H])(N([H])C(=O)C([H])(N([H])C([H])([H])[H])C([H])([H])[H])C(C([H])([H])[H])(C([H])([H])[H])C([H])([H])[H])C([H])(C(=O)N([H])C3([H])c5c([H])c([H])c([H])c([H])c5C([H])([H])C([H])([H])C3([H])[H])C4([H])[H])C2([H])[H])c1[H]

>  <smiles>  (76) 
[H]c1c(C([H])([H])N([H])C(=O)N2C([H])([H])C([H])([H])C([H])([H])C([H])(n3nc(-c4c([H])c([H])c(Oc5c([H])c([H])c(F)c([H])c5F)c([H])c4[H])c(C(=O)N([H])[H])c3N([H])[H])C2([H])[H])nc(C([H])([H])[H])c(C2(C([H])([H])C([H])([H])[H])C([H])(C([H])([H])[H])C([H])([H])[N+]([H])(C([H])([H])C([H])([H])Oc3c([H])c([H])c4c(c3[H])C([H])([H])N(C(=O)C([H])(N([H])C(=O)C([H])(N([H])C([H])([H])[H])C([H])([H])[H])C(C([H])([H])[H])(C([H])([H])[H])C([H])([H])[H])C([H])(C(=O)N([H])C3([H])c5c([H])c([H])c([H])c([H])c5C([H])([H])C([H])([H])C3([H])[H])C4([H])[H])C2([H])[H])c1[H]

$$$$
76:0:0
     RDKit          3D

 93102  0  0  1  0  0  0  0  0999 V2000
  -29.1070  -21.1850   19.4950 C   0  0  0  0  0  0  0  0  0  0  0  0
  -28.9550  -22.5490   20.2320 C   0  0  0  0  0  0  0  0  0  0  0  0
  -29.6920  -20.0040   20.1600 C   0  0  0  0  0  0  0  0  0  0  0  0
  -29.5170  -22.0820   21.4250 C   0  0  0  0  0  0  0  0  0  0  0  0
  -30.6350  -20.9500   23.6700 C   0  0  0  0  0  3  0  0  0  0  0  0
  -30.5000  -20.1440   22.5640 C   0  0  0  0  0  0  0  0  0  0  0  0
  -30.1970  -22.2820   23.6060 C   0  0  0  0  0  0  0  0  0  0  0  0
  -28.6480  -21.0520   18.0760 C   0  0  0  0  0  1  0  0  0  0  0  0
  -30.9420  -18.6970   22.6410 C   0  0  0  0  0  1  0  0  0  0  0  0
  -30.3140  -23.1830   24.8180 C   0  0  0  0  0  1  0  0  0  0  0  0
  -29.6550  -22.8330   22.5320 N   0  0  0  0  0  0  0  0  0  0  0  0
  -29.9400  -20.6460   21.4090 N   0  0  0  0  0  0  0  0  0  0  0  0
  -28.1430  -24.1180   19.9220 C   0  0  0  0  0  2  0  0  0  0  0  0
  -28.3430  -25.7330   20.3240 O   0  0  0  0  0  0  0  0  0  0  0  0
  -24.6530  -31.7230   23.2080 C   0  0  0  0  0  0  0  0  0  0  0  0
  -27.3600  -26.8760   20.1970 C   0  0  0  0  0  0  0  0  0  0  0  0
  -23.5370  -30.3470   21.5000 C   0  0  0  0  0  3  0  0  0  0  0  0
  -25.0550  -28.7790   20.0990 C   0  0  0  0  0  0  0  0  0  0  0  0
  -26.1080  -30.5660   21.4630 C   0  0  0  0  0  2  0  0  0  0  0  0
  -26.2160  -29.1660   20.7800 C   0  0  0  0  0  0  0  0  0  0  0  0
  -27.3590  -28.2350   20.8090 C   0  0  0  0  0  3  0  0  0  0  0  0
  -26.1760  -26.6670   19.4520 C   0  0  0  0  0  3  0  0  0  0  0  0
  -25.0660  -27.5540   19.4140 C   0  0  0  0  0  3  0  0  0  0  0  0
  -23.8270  -29.6920   20.1210 C   0  0  0  0  0  2  0  0  0  0  0  0
  -24.7850  -30.9070   22.1110 N   0  0  0  0  0  0  0  0  0  0  0  0
  -23.5400  -31.9940   23.6900 O   0  0  0  0  0  0  0  0  0  0  0  0
  -22.8120  -29.3300   22.4200 C   0  0  0  0  0  0  0  0  0  0  0  0
  -21.4820  -29.1850   22.2680 N   0  0  0  0  0  0  0  0  0  0  0  0
  -23.4550  -28.6730   23.2430 O   0  0  0  0  0  0  0  0  0  0  0  0
  -21.0160  -29.7660   21.5850 H   0  0  0  0  0  0  0  0  0  0  0  0
  -18.0770  -28.0010   22.6930 C   0  0  0  0  0  0  0  0  0  0  0  0
  -20.6370  -28.2290   22.9940 C   0  0  0  0  0  3  0  0  0  0  0  0
  -20.7290  -26.8180   22.3690 C   0  0  0  0  0  2  0  0  0  0  0  0
  -19.6350  -26.5460   21.3310 C   0  0  0  0  0  2  0  0  0  0  0  0
  -18.2480  -26.6780   21.9640 C   0  0  0  0  0  2  0  0  0  0  0  0
  -19.1980  -28.7360   23.1630 C   0  0  0  0  0  0  0  0  0  0  0  0
  -18.9820  -29.9730   23.8080 C   0  0  0  0  0  3  0  0  0  0  0  0
  -17.6790  -30.4750   23.9870 C   0  0  0  0  0  3  0  0  0  0  0  0
  -16.5730  -29.7360   23.5310 C   0  0  0  0  0  3  0  0  0  0  0  0
  -16.7730  -28.5000   22.8910 C   0  0  0  0  0  3  0  0  0  0  0  0
  -25.8900  -32.3670   23.9020 C   0  0  0  0  0  3  0  0  0  0  0  0
  -25.5590  -33.7700   24.2120 N   0  0  0  0  0  0  0  0  0  0  0  0
  -25.9130  -34.8280   23.4700 C   0  0  0  0  0  0  0  0  0  0  0  0
  -26.6120  -34.7250   22.4600 O   0  0  0  0  0  0  0  0  0  0  0  0
  -24.9410  -33.9230   24.9960 H   0  0  0  0  0  0  0  0  0  0  0  0
  -24.1770  -36.6140   23.0920 C   0  0  0  0  0  1  0  0  0  0  0  0
  -25.4130  -36.2180   23.9160 C   0  0  0  0  0  3  0  0  0  0  0  0
  -27.5310  -37.1280   24.7660 C   0  0  0  0  0  1  0  0  0  0  0  0
  -26.4400  -37.2780   23.8060 N   0  0  0  0  0  0  0  0  0  0  0  0
  -26.0240  -38.1960   23.9410 H   0  0  0  0  0  0  0  0  0  0  0  0
  -26.3240  -31.6120   25.2200 C   0  0  1  0  0  0  0  0  0  0  0  0
  -25.1700  -31.4000   26.2260 C   0  0  0  0  0  1  0  0  0  0  0  0
  -26.9180  -30.2230   24.8910 C   0  0  0  0  0  1  0  0  0  0  0  0
  -27.4430  -32.4070   25.9340 C   0  0  0  0  0  1  0  0  0  0  0  0
  -30.2420  -18.3730   19.6450 C   0  0  0  0  0  2  0  0  0  0  0  0
  -30.6910  -15.4160   19.8330 C   0  0  0  0  0  0  0  0  0  0  0  0
  -30.6240  -12.9490   18.9710 C   0  0  0  0  0  2  0  0  0  0  0  0
  -29.6590  -12.7150   17.7790 C   0  0  0  0  0  2  0  0  0  0  0  0
  -28.2330  -12.4360   18.2820 C   0  0  0  0  0  2  0  0  0  0  0  0
  -27.8260  -13.4070   19.4170 C   0  0  0  0  0  3  0  0  0  0  0  0
  -28.9170  -13.5820   20.4960 C   0  0  0  0  0  2  0  0  0  0  0  0
  -30.1130  -14.1040   19.8110 N   0  0  0  0  0  0  0  0  0  0  0  0
  -31.8950  -15.3800   19.5340 O   0  0  0  0  0  0  0  0  0  0  0  0
  -29.9660  -16.7290   19.9810 N   0  0  0  0  0  0  0  0  0  0  0  0
  -29.0000  -16.5610   20.2230 H   0  0  0  0  0  0  0  0  0  0  0  0
  -25.4950  -13.9730   20.2720 C   0  0  0  0  0  0  0  0  0  0  0  0
  -24.4450  -13.2020   20.6810 C   0  0  0  0  0  0  0  0  0  0  0  0
  -24.9020  -11.8490   20.6260 C   0  0  0  0  0  0  0  0  0  0  0  0
  -26.5210  -13.0930   19.9820 N   0  0  0  0  0  0  0  0  0  0  0  0
  -26.1790  -11.8080   20.2620 N   0  0  0  0  0  0  0  0  0  0  0  0
  -24.1720  -10.5900   20.8390 C   0  0  0  0  0  0  0  0  0  0  0  0
  -24.6000   -9.6390   21.7910 C   0  0  0  0  0  3  0  0  0  0  0  0
  -23.8690   -8.4480   21.9920 C   0  0  0  0  0  3  0  0  0  0  0  0
  -22.6930   -8.2020   21.2430 C   0  0  0  0  0  0  0  0  0  0  0  0
  -22.2840   -9.1420   20.2820 C   0  0  0  0  0  3  0  0  0  0  0  0
  -23.0160  -10.3230   20.0780 C   0  0  0  0  0  3  0  0  0  0  0  0
  -21.9340   -7.0620   21.3540 O   0  0  0  0  0  0  0  0  0  0  0  0
  -21.8280   -6.3800   22.5400 C   0  0  0  0  0  0  0  0  0  0  0  0
  -21.3450   -6.9970   23.7140 C   0  0  0  0  0  3  0  0  0  0  0  0
  -21.1870   -6.2400   24.8920 C   0  0  0  0  0  3  0  0  0  0  0  0
  -21.5020   -4.8690   24.8970 C   0  0  0  0  0  0  0  0  0  0  0  0
  -21.9760   -4.2510   23.7260 C   0  0  0  0  0  3  0  0  0  0  0  0
  -22.1360   -5.0040   22.5510 C   0  0  0  0  0  0  0  0  0  0  0  0
  -22.5740   -4.4000   21.4200 F   0  0  0  0  0  0  0  0  0  0  0  0
  -21.3420   -4.1400   26.0270 F   0  0  0  0  0  0  0  0  0  0  0  0
  -23.0630  -13.6880   21.0040 C   0  0  0  0  0  0  0  0  0  0  0  0
  -22.3710  -13.0110   21.9130 N   0  0  0  0  0  0  0  0  0  0  0  0
  -22.6080  -14.7060   20.4850 O   0  0  0  0  0  0  0  0  0  0  0  0
  -22.7540  -12.1870   22.3530 H   0  0  0  0  0  0  0  0  0  0  0  0
  -21.4460  -13.3210   22.1730 H   0  0  0  0  0  0  0  0  0  0  0  0
  -25.6580  -15.3440   20.0920 N   0  0  0  0  0  0  0  0  0  0  0  0
  -24.8940  -15.9970   20.2280 H   0  0  0  0  0  0  0  0  0  0  0  0
  -26.4800  -15.7770   19.6920 H   0  0  0  0  0  0  0  0  0  0  0  0
  1  3  2  0
  1  2  1  0
  2  4  2  0
  3 12  1  0
  4 11  1  0
  6  9  1  0
  6  5  2  0
  7  5  1  0
  7 10  1  0
  8  1  1  0
 11  7  2  0
 12  4  1  0
 12  6  1  0
 13  2  1  0
 13 14  1  0
 15 26  2  0
 16 14  1  0
 16 21  1  0
 17 25  1  0
 17 27  1  0
 18 24  1  0
 18 20  1  0
 19 25  1  0
 20 21  2  0
 20 19  1  0
 22 16  2  0
 23 22  1  0
 23 18  2  0
 24 17  1  0
 25 15  1  0
 27 29  2  0
 28 27  1  0
 30 28  1  0
 31 40  2  0
 31 36  1  0
 32 28  1  0
 32 36  1  0
 33 32  1  0
 34 35  1  0
 34 33  1  0
 35 31  1  0
 36 37  2  0
 37 38  1  0
 39 38  2  0
 40 39  1  0
 41 15  1  0
 41 42  1  0
 41 51  1  0
 42 45  1  0
 43 47  1  0
 43 42  1  0
 44 43  2  0
 47 46  1  0
 49 47  1  0
 49 50  1  0
 49 48  1  0
 51 54  1  1
 51 52  1  0
 53 51  1  0
 55 64  1  0
 55  3  1  0
 56 64  1  0
 57 62  1  0
 58 59  1  0
 58 57  1  0
 60 59  1  0
 60 69  1  0
 60 61  1  0
 62 56  1  0
 62 61  1  0
 63 56  2  0
 64 65  1  0
 66 67  2  0
 67 86  1  0
 68 67  1  0
 68 71  1  0
 69 70  1  0
 69 66  1  0
 70 68  2  0
 71 72  1  0
 72 73  2  0
 74 77  1  0
 74 73  1  0
 75 74  2  0
 76 75  1  0
 76 71  2  0
 77 78  1  0
 78 83  2  0
 78 79  1  0
 79 80  2  0
 80 81  1  0
 81 85  1  0
 82 81  2  0
 83 82  1  0
 84 83  1  0
 86 87  1  0
 87 90  1  0
 87 89  1  0
 88 86  2  0
 91 92  1  0
 91 66  1  0
 93 91  1  0
M  ISO  4  13 101  14 101  56 100  64 100
M  END
>  <TORSDO>  (77) 
F 18

>  <SCORE>  (77) 
-15.653

>  <name>  (77) 
76

>  <ligand_id>  (77) 
76

>  <original_smiles>  (77) 
[H]c1c([H])c([H])c2c(c1[H])C([H])([H])C([H])([H])C([H])([H])C2([H])N([H])C(=O)C1([H])N(C(=O)C([H])(N([H])C(=O)C([H])(N([H])C([H])([H])[H])C([H])([H])[H])C(C([H])([H])[H])(C([H])([H])[H])C([H])([H])[H])C([H])([H])c2c([H])c(OC([H])([H])c3c(C([H])([H])[H])c(C([H])([H])N([H])C(=O)N4C([H])([H])C([H])([H])C([H])([H])C([H])(n5nc(-c6c([H])c([H])c(Oc7c([H])c([H])c(F)c([H])c7F)c([H])c6[H])c(C(=O)N([H])[H])c5N([H])[H])C4([H])[H])n4c(C([H])([H])[H])c([H])c(C([H])([H])[H])nc34)c([H])c([H])c2C1([H])[H]

>  <smiles>  (77) 
[H]c1c([H])c([H])c2c(c1[H])C([H])([H])C([H])([H])C([H])([H])C2([H])N([H])C(=O)C1([H])N(C(=O)C([H])(N([H])C(=O)C([H])(N([H])C([H])([H])[H])C([H])([H])[H])C(C([H])([H])[H])(C([H])([H])[H])C([H])([H])[H])C([H])([H])c2c([H])c(OC([H])([H])c3c(C([H])([H])[H])c(C([H])([H])N([H])C(=O)N4C([H])([H])C([H])([H])C([H])([H])C([H])(n5nc(-c6c([H])c([H])c(Oc7c([H])c([H])c(F)c([H])c7F)c([H])c6[H])c(C(=O)N([H])[H])c5N([H])[H])C4([H])[H])n4c(C([H])([H])[H])c([H])c(C([H])([H])[H])nc34)c([H])c([H])c2C1([H])[H]

$$$$
77:0:0
     RDKit          3D

 95102  0  0  1  0  0  0  0  0999 V2000
  -28.7300  -15.5650   21.7410 C   0  0  0  0  0  2  0  0  0  0  0  0
  -27.4170  -15.5390   20.8210 C   0  0  0  0  0  3  0  0  0  0  0  0
  -27.9810  -14.6420   19.9920 C   0  0  0  0  0  3  0  0  0  0  0  0
  -29.6080  -14.2440   21.9260 C   0  0  0  0  0  0  0  0  0  0  0  0
  -27.7360  -13.4110   21.1390 C   0  0  0  0  0  3  0  0  0  0  0  0
  -26.5250  -13.3260   22.3030 C   0  0  0  0  0  1  0  0  0  0  0  0
  -28.8690  -13.1120   21.7910 N   0  0  0  0  0  2  0  0  0  0  0  0
  -24.8410  -15.5470   21.4480 C   0  0  0  0  0  2  0  0  0  0  0  0
  -24.5770  -14.8940   20.1600 C   0  0  0  0  0  2  0  0  0  0  0  0
  -25.8060  -15.9470   20.3960 C   0  0  0  0  0  3  0  0  0  0  0  0
  -28.8890  -15.0980   18.8970 N   0  0  0  0  0  0  0  0  0  0  0  0
  -29.1600  -14.2110   18.4770 H   0  0  0  0  0  0  0  0  0  0  0  0
  -30.9150  -14.3700   18.0730 C   0  0  0  0  0  1  0  0  0  0  0  0
  -30.3180  -16.0360   18.5910 C   0  0  0  0  0  2  0  0  0  0  0  0
  -30.7040  -18.1120   18.0020 C   0  0  0  0  0 15  0  0  0  0  0  0
  -31.2770  -20.0740   18.1820 O   0  0  0  0  0  1  0  0  0  0  0  0
  -27.4750  -26.7240   20.5450 C   0  0  0  0  0  0  0  0  0  0  0  0
  -30.8100  -21.5930   18.0360 C   0  0  0  0  0  0  0  0  0  0  0  0
  -27.2770  -25.6360   18.3340 C   0  0  0  0  0  3  0  0  0  0  0  0
  -29.2250  -24.2160   17.4190 C   0  0  0  0  0  0  0  0  0  0  0  0
  -29.5690  -25.4390   19.5270 C   0  0  0  0  0  2  0  0  0  0  0  0
  -29.9250  -24.1610   18.6360 C   0  0  0  0  0  0  0  0  0  0  0  0
  -30.7100  -22.8420   18.9160 C   0  0  0  0  0  3  0  0  0  0  0  0
  -30.3630  -22.0410   16.8240 C   0  0  0  0  0  3  0  0  0  0  0  0
  -29.5840  -23.1790   16.5120 C   0  0  0  0  0  3  0  0  0  0  0  0
  -28.1360  -25.2540   17.1130 C   0  0  0  0  0  2  0  0  0  0  0  0
  -28.1210  -26.0150   19.5240 N   0  0  0  0  0  0  0  0  0  0  0  0
  -26.2560  -26.9660   20.5010 O   0  0  0  0  0  0  0  0  0  0  0  0
  -26.2200  -24.5540   18.7080 C   0  0  0  0  0  0  0  0  0  0  0  0
  -25.0920  -24.4470   17.9720 N   0  0  0  0  0  0  0  0  0  0  0  0
  -26.4270  -23.7960   19.6640 O   0  0  0  0  0  0  0  0  0  0  0  0
  -24.9550  -25.0880   17.2000 H   0  0  0  0  0  0  0  0  0  0  0  0
  -21.8130  -23.2680   16.8850 C   0  0  0  0  0  0  0  0  0  0  0  0
  -24.0790  -23.3860   18.1280 C   0  0  0  0  0  3  0  0  0  0  0  0
  -24.4700  -22.1420   17.3000 C   0  0  0  0  0  2  0  0  0  0  0  0
  -23.8540  -22.1340   15.9000 C   0  0  0  0  0  2  0  0  0  0  0  0
  -22.3240  -22.1490   15.9910 C   0  0  0  0  0  2  0  0  0  0  0  0
  -22.6410  -23.8650   17.8730 C   0  0  0  0  0  0  0  0  0  0  0  0
  -22.1250  -24.9150   18.6600 C   0  0  0  0  0  3  0  0  0  0  0  0
  -20.8080  -25.3750   18.4710 C   0  0  0  0  0  3  0  0  0  0  0  0
  -19.9870  -24.7770   17.4970 C   0  0  0  0  0  3  0  0  0  0  0  0
  -20.4880  -23.7210   16.7120 C   0  0  0  0  0  3  0  0  0  0  0  0
  -28.2150  -27.2710   21.7850 C   0  0  0  0  0  3  0  0  0  0  0  0
  -27.4060  -28.3700   22.3780 N   0  0  0  0  0  0  0  0  0  0  0  0
  -27.7680  -29.6560   22.5300 C   0  0  0  0  0  0  0  0  0  0  0  0
  -28.8760  -30.0620   22.1750 O   0  0  0  0  0  0  0  0  0  0  0  0
  -26.4490  -28.1210   22.5910 H   0  0  0  0  0  0  0  0  0  0  0  0
  -26.1300  -31.5360   22.0930 C   0  0  0  0  0  1  0  0  0  0  0  0
  -26.7560  -30.6340   23.1720 C   0  0  0  0  0  3  0  0  0  0  0  0
  -27.6400  -30.7640   25.4650 C   0  0  0  0  0  1  0  0  0  0  0  0
  -27.3380  -31.4890   24.2350 N   0  0  0  0  0  0  0  0  0  0  0  0
  -26.7100  -32.2530   24.4650 H   0  0  0  0  0  0  0  0  0  0  0  0
  -28.4630  -26.1890   22.9250 C   0  0  1  0  0  0  0  0  0  0  0  0
  -27.1860  -25.4160   23.3270 C   0  0  0  0  0  1  0  0  0  0  0  0
  -29.5020  -25.1350   22.5040 C   0  0  0  0  0  1  0  0  0  0  0  0
  -29.0450  -26.8670   24.1850 C   0  0  0  0  0  1  0  0  0  0  0  0
  -31.1230  -13.4310   21.9400 C   0  0  0  0  0  3  0  0  0  0  0  0
  -31.6410  -10.2830   22.3100 C   0  0  0  0  0  0  0  0  0  0  0  0
  -31.3150   -7.6000   22.2880 C   0  0  0  0  0  2  0  0  0  0  0  0
  -30.6680   -6.7560   21.2350 C   0  0  0  0  0  2  0  0  0  0  0  0
  -29.1920   -6.7510   21.0590 C   0  0  0  0  0  2  0  0  0  0  0  0
  -28.7260   -8.2020   21.5190 C   0  0  0  0  0  3  0  0  0  0  0  0
  -29.4700   -8.9850   22.5930 C   0  0  0  0  0  2  0  0  0  0  0  0
  -30.8760   -9.0410   22.2760 N   0  0  0  0  0  0  0  0  0  0  0  0
  -32.8940  -10.0050   22.4580 O   0  0  0  0  0  0  0  0  0  0  0  0
  -31.0350  -11.6740   22.0040 N   0  0  0  0  0  0  0  0  0  0  0  0
  -30.8930  -11.5170   21.0590 H   0  0  0  0  0  0  0  0  0  0  0  0
  -26.6560   -9.6470   21.2940 C   0  0  0  0  0  3  0  0  0  0  0  0
  -25.2730   -9.5830   21.2700 C   0  0  0  0  0  0  0  0  0  0  0  0
  -25.2060   -8.2270   21.7600 C   0  0  0  0  0  0  0  0  0  0  0  0
  -27.3160   -8.4400   21.5720 N   0  0  0  0  0  0  0  0  0  0  0  0
  -26.3760   -7.6670   22.1770 N   0  0  0  0  0  2  0  0  0  0  0  0
  -24.0340   -7.3910   22.0010 C   0  0  0  0  0  0  0  0  0  0  0  0
  -23.8890   -6.9080   23.2520 C   0  0  0  0  0  3  0  0  0  0  0  0
  -22.7240   -6.0810   23.5870 C   0  0  0  0  0  3  0  0  0  0  0  0
  -21.7000   -5.7370   22.6150 C   0  0  0  0  0  0  0  0  0  0  0  0
  -21.9710   -6.1470   21.3470 C   0  0  0  0  0  3  0  0  0  0  0  0
  -23.1360   -6.9100   21.0200 C   0  0  0  0  0  3  0  0  0  0  0  0
  -20.5620   -4.9950   22.8220 O   0  0  0  0  0  0  0  0  0  0  0  0
  -19.7440   -5.3120   23.8900 C   0  0  0  0  0  0  0  0  0  0  0  0
  -18.9960   -6.5260   23.9240 C   0  0  0  0  0  3  0  0  0  0  0  0
  -18.0430   -6.7040   24.9500 C   0  0  0  0  0  3  0  0  0  0  0  0
  -17.8860   -5.7260   25.9280 C   0  0  0  0  0  0  0  0  0  0  0  0
  -18.6540   -4.5730   25.9120 C   0  0  0  0  0  3  0  0  0  0  0  0
  -19.6200   -4.3670   24.9150 C   0  0  0  0  0  0  0  0  0  0  0  0
  -20.3460   -3.2530   24.8510 F   0  0  0  0  0  0  0  0  0  0  0  0
  -16.9700   -5.9090   26.9400 F   0  0  0  0  0  0  0  0  0  0  0  0
  -24.3680  -10.8010   20.8690 C   0  0  0  0  0  0  0  0  0  0  0  0
  -23.1570  -10.8230   21.4670 N   0  0  0  0  0  0  0  0  0  0  0  0
  -24.7990  -11.6530   20.0620 O   0  0  0  0  0  0  0  0  0  0  0  0
  -22.5290  -11.5820   21.4570 H   0  0  0  0  0  0  0  0  0  0  0  0
  -22.7040   -9.8740   21.5140 H   0  0  0  0  0  0  0  0  0  0  0  0
  -27.2930  -10.7450   20.6420 N   0  0  0  0  0  0  0  0  0  0  0  0
  -26.5420  -10.5340   20.0430 H   0  0  0  0  0  0  0  0  0  0  0  0
  -27.9840  -10.4140   19.8160 H   0  0  0  0  0  0  0  0  0  0  0  0
  1  4  1  0
  2 10  1  0
  2  1  1  0
  3 11  1  0
  3  2  1  0
  3  5  1  0
  4 57  2  0
  5  7  1  0
  5  6  1  0
  7  4  1  0
  9 10  1  0
  9  8  1  0
 10  8  1  0
 12 11  1  0
 13 14  1  0
 14 11  1  0
 18 16  1  0
 18 23  1  0
 19 29  1  0
 19 27  1  0
 20 22  1  0
 22 23  2  0
 22 21  1  0
 24 18  2  0
 25 24  1  0
 25 20  2  0
 26 20  1  0
 26 19  1  0
 27 21  1  0
 27 17  1  0
 28 17  2  0
 29 31  2  0
 30 29  1  0
 32 30  1  0
 33 38  1  0
 34 30  1  0
 35 34  1  0
 36 37  1  0
 36 35  1  0
 37 33  1  0
 38 34  1  0
 38 39  2  0
 40 39  1  0
 41 40  2  0
 42 33  2  0
 42 41  1  0
 43 17  1  0
 43 44  1  0
 43 53  1  0
 44 45  1  0
 44 47  1  0
 45 49  1  0
 46 45  2  0
 49 48  1  0
 49 51  1  0
 51 52  1  0
 51 50  1  0
 53 54  1  1
 53 56  1  0
 55 53  1  0
 57 66  1  0
 58 65  2  0
 60 59  1  0
 61 60  1  0
 62 61  1  0
 62 71  1  0
 62 63  1  0
 64 59  1  0
 64 58  1  0
 64 63  1  0
 66 58  1  0
 67 66  1  0
 68 93  1  0
 68 71  1  0
 69 68  1  0
 69 70  2  0
 70 73  1  0
 70 72  1  0
 71 72  1  0
 73 74  1  0
 74 75  2  0
 76 79  1  0
 76 75  1  0
 77 76  2  0
 78 77  1  0
 78 73  2  0
 79 80  1  0
 80 81  2  0
 80 85  1  0
 81 82  1  0
 82 83  2  0
 83 87  1  0
 84 83  1  0
 85 84  2  0
 86 85  1  0
 88 69  1  0
 88 89  1  0
 89 92  1  0
 90 88  2  0
 91 89  1  0
 94 93  1  0
 95 93  1  0
M  ISO  4  15 101  16 101  58 100  66 100
M  END
>  <TORSDO>  (78) 
F 21

>  <SCORE>  (78) 
2.366

>  <name>  (78) 
77

>  <ligand_id>  (78) 
77

>  <original_smiles>  (78) 
[H]c1c([H])c([H])c2c(c1[H])C([H])([H])C([H])([H])C([H])([H])C2([H])N([H])C(=O)C1([H])N(C(=O)C([H])(N([H])C(=O)C([H])(N([H])C([H])([H])[H])C([H])([H])[H])C(C([H])([H])[H])(C([H])([H])[H])C([H])([H])[H])C([H])([H])c2c([H])c(OC([H])([H])C([H])(N([H])c3c(C([H])([H])[H])nc(C([H])([H])N([H])C(=O)N4C([H])([H])C([H])([H])C([H])([H])C([H])(n5nc(-c6c([H])c([H])c(Oc7c([H])c([H])c(F)c([H])c7F)c([H])c6[H])c(C(=O)N([H])[H])c5N([H])[H])C4([H])[H])c([H])c3C3([H])C([H])([H])C3([H])[H])C([H])([H])[H])c([H])c([H])c2C1([H])[H]

>  <smiles>  (78) 
[H]c1c([H])c([H])c2c(c1[H])C([H])([H])C([H])([H])C([H])([H])C2([H])N([H])C(=O)C1([H])N(C(=O)C([H])(N([H])C(=O)C([H])(N([H])C([H])([H])[H])C([H])([H])[H])C(C([H])([H])[H])(C([H])([H])[H])C([H])([H])[H])C([H])([H])c2c([H])c(OC([H])([H])C([H])(N([H])c3c(C([H])([H])[H])nc(C([H])([H])N([H])C(=O)N4C([H])([H])C([H])([H])C([H])([H])C([H])(n5nc(-c6c([H])c([H])c(Oc7c([H])c([H])c(F)c([H])c7F)c([H])c6[H])c(C(=O)N([H])[H])c5N([H])[H])C4([H])[H])c([H])c3C3([H])C([H])([H])C3([H])[H])C([H])([H])[H])c([H])c([H])c2C1([H])[H]

$$$$
78:0:0
     RDKit          3D

 89 97  0  0  1  0  0  0  0  0999 V2000
  -29.8020  -19.1890   19.9910 C   0  0  0  0  0  0  0  0  0  0  0  0
  -29.0910  -20.4400   20.1930 N   0  0  0  0  0  0  0  0  0  0  0  0
  -30.8760  -19.2410   19.3860 O   0  0  0  0  0  0  0  0  0  0  0  0
  -28.2080  -20.3350   20.6750 H   0  0  0  0  0  0  0  0  0  0  0  0
  -30.5730  -15.0450   19.8280 C   0  0  0  0  0  0  0  0  0  0  0  0
  -30.2800  -12.7270   18.7880 C   0  0  0  0  0  2  0  0  0  0  0  0
  -29.2500  -12.7510   17.6280 C   0  0  0  0  0  2  0  0  0  0  0  0
  -27.8300  -12.5150   18.1800 C   0  0  0  0  0  2  0  0  0  0  0  0
  -27.5410  -13.3870   19.4290 C   0  0  0  0  0  3  0  0  0  0  0  0
  -28.6930  -13.3660   20.4660 C   0  0  0  0  0  2  0  0  0  0  0  0
  -29.9130  -13.8010   19.7730 N   0  0  0  0  0  0  0  0  0  0  0  0
  -31.6800  -15.0640   19.2790 O   0  0  0  0  0  0  0  0  0  0  0  0
  -30.4130  -17.4760   22.6190 C   0  0  0  0  0  2  0  0  0  0  0  0
  -29.0740  -17.8370   21.9890 C   0  0  0  0  0  2  0  0  0  0  0  0
  -30.7890  -16.1820   21.9050 C   0  0  0  0  0  2  0  0  0  0  0  0
  -29.3390  -17.6270   20.4790 C   0  0  0  0  0  3  0  0  0  0  0  0
  -30.1510  -16.2080   20.5750 N   0  0  0  0  0  0  0  0  0  0  0  0
  -25.2330  -13.9430   20.3670 C   0  0  0  0  0  0  0  0  0  0  0  0
  -24.1970  -13.1620   20.7970 C   0  0  0  0  0  0  0  0  0  0  0  0
  -24.6490  -11.8100   20.7020 C   0  0  0  0  0  0  0  0  0  0  0  0
  -26.2490  -13.0730   20.0260 N   0  0  0  0  0  0  0  0  0  0  0  0
  -25.9120  -11.7800   20.2950 N   0  0  0  0  0  0  0  0  0  0  0  0
  -23.9330  -10.5460   20.9200 C   0  0  0  0  0  0  0  0  0  0  0  0
  -24.4070   -9.5750   21.8300 C   0  0  0  0  0  3  0  0  0  0  0  0
  -23.6850   -8.3810   22.0390 C   0  0  0  0  0  3  0  0  0  0  0  0
  -22.4780   -8.1470   21.3370 C   0  0  0  0  0  0  0  0  0  0  0  0
  -22.0250   -9.1100   20.4180 C   0  0  0  0  0  3  0  0  0  0  0  0
  -22.7460  -10.2960   20.2070 C   0  0  0  0  0  3  0  0  0  0  0  0
  -21.7240   -7.0040   21.4580 O   0  0  0  0  0  0  0  0  0  0  0  0
  -21.6970   -6.2780   22.6230 C   0  0  0  0  0  0  0  0  0  0  0  0
  -21.3020   -6.8540   23.8510 C   0  0  0  0  0  3  0  0  0  0  0  0
  -21.2210   -6.0560   25.0080 C   0  0  0  0  0  3  0  0  0  0  0  0
  -21.5220   -4.6830   24.9420 C   0  0  0  0  0  0  0  0  0  0  0  0
  -21.9070   -4.1050   23.7190 C   0  0  0  0  0  3  0  0  0  0  0  0
  -21.9900   -4.9000   22.5620 C   0  0  0  0  0  0  0  0  0  0  0  0
  -22.3420   -4.3340   21.3830 F   0  0  0  0  0  0  0  0  0  0  0  0
  -21.4360   -3.9140   26.0520 F   0  0  0  0  0  0  0  0  0  0  0  0
  -22.8280  -13.6400   21.1820 C   0  0  0  0  0  0  0  0  0  0  0  0
  -22.1650  -12.9400   22.0960 N   0  0  0  0  0  0  0  0  0  0  0  0
  -22.3540  -14.6700   20.7070 O   0  0  0  0  0  0  0  0  0  0  0  0
  -22.5570  -12.1050   22.5090 H   0  0  0  0  0  0  0  0  0  0  0  0
  -21.2520  -13.2520   22.3930 H   0  0  0  0  0  0  0  0  0  0  0  0
  -25.3900  -15.3190   20.2060 N   0  0  0  0  0  0  0  0  0  0  0  0
  -24.6430  -15.9740   20.4040 H   0  0  0  0  0  0  0  0  0  0  0  0
  -26.2240  -15.7700   19.8560 H   0  0  0  0  0  0  0  0  0  0  0  0
  -29.4330  -21.9760   19.8160 C   0  0  0  0  0  2  0  0  0  0  0  0
  -28.7190  -23.4110   20.1030 C   0  0  0  0  0  0  0  0  0  0  0  0
  -28.4390  -24.6580   20.1950 C   0  0  0  0  0  0  0  0  0  0  0  0
  -28.4180  -26.0810   20.2730 O   0  0  0  0  0  0  0  0  0  0  0  0
  -24.6840  -31.8370   23.2110 C   0  0  0  0  0  0  0  0  0  0  0  0
  -27.3280  -27.0470   20.2560 C   0  0  0  0  0  0  0  0  0  0  0  0
  -23.5180  -30.4140   21.5660 C   0  0  0  0  0  3  0  0  0  0  0  0
  -24.9930  -28.8150   20.1870 C   0  0  0  0  0  0  0  0  0  0  0  0
  -26.0770  -30.6680   21.4500 C   0  0  0  0  0  2  0  0  0  0  0  0
  -26.1640  -29.2620   20.8150 C   0  0  0  0  0  0  0  0  0  0  0  0
  -27.3240  -28.3920   20.8340 C   0  0  0  0  0  3  0  0  0  0  0  0
  -26.1330  -26.7240   19.5800 C   0  0  0  0  0  3  0  0  0  0  0  0
  -24.9940  -27.5600   19.5500 C   0  0  0  0  0  3  0  0  0  0  0  0
  -23.7710  -29.7210   20.2010 C   0  0  0  0  0  2  0  0  0  0  0  0
  -24.7790  -30.9970   22.1310 N   0  0  0  0  0  0  0  0  0  0  0  0
  -23.5880  -32.1300   23.7180 O   0  0  0  0  0  0  0  0  0  0  0  0
  -22.8200  -29.4270   22.5340 C   0  0  0  0  0  0  0  0  0  0  0  0
  -21.4920  -29.2600   22.4010 N   0  0  0  0  0  0  0  0  0  0  0  0
  -23.4760  -28.8050   23.3720 O   0  0  0  0  0  0  0  0  0  0  0  0
  -21.0060  -29.8140   21.7080 H   0  0  0  0  0  0  0  0  0  0  0  0
  -18.1130  -28.0350   22.8640 C   0  0  0  0  0  0  0  0  0  0  0  0
  -20.6620  -28.3260   23.1690 C   0  0  0  0  0  3  0  0  0  0  0  0
  -20.7920  -26.8880   22.6210 C   0  0  0  0  0  2  0  0  0  0  0  0
  -19.7120  -26.5350   21.6020 C   0  0  0  0  0  2  0  0  0  0  0  0
  -18.3130  -26.6820   22.2010 C   0  0  0  0  0  2  0  0  0  0  0  0
  -19.2140  -28.8120   23.3100 C   0  0  0  0  0  0  0  0  0  0  0  0
  -18.9680  -30.0670   23.9080 C   0  0  0  0  0  3  0  0  0  0  0  0
  -17.6560  -30.5570   24.0540 C   0  0  0  0  0  3  0  0  0  0  0  0
  -16.5680  -29.7840   23.6070 C   0  0  0  0  0  3  0  0  0  0  0  0
  -16.7970  -28.5260   23.0250 C   0  0  0  0  0  3  0  0  0  0  0  0
  -25.9500  -32.4890   23.8520 C   0  0  0  0  0  3  0  0  0  0  0  0
  -25.6250  -33.8860   24.1770 N   0  0  0  0  0  0  0  0  0  0  0  0
  -25.9500  -34.9450   23.4230 C   0  0  0  0  0  0  0  0  0  0  0  0
  -26.6200  -34.8480   22.3900 O   0  0  0  0  0  0  0  0  0  0  0  0
  -25.0310  -34.0440   24.9790 H   0  0  0  0  0  0  0  0  0  0  0  0
  -24.2000  -36.7240   23.0760 C   0  0  0  0  0  1  0  0  0  0  0  0
  -25.4520  -36.3320   23.8790 C   0  0  0  0  0  3  0  0  0  0  0  0
  -27.5870  -37.2390   24.6880 C   0  0  0  0  0  1  0  0  0  0  0  0
  -26.4740  -37.3970   23.7570 N   0  0  0  0  0  0  0  0  0  0  0  0
  -26.0560  -38.3110   23.9120 H   0  0  0  0  0  0  0  0  0  0  0  0
  -26.4570  -31.7300   25.1390 C   0  0  1  0  0  0  0  0  0  0  0  0
  -25.3540  -31.4950   26.1970 C   0  0  0  0  0  1  0  0  0  0  0  0
  -27.0490  -30.3530   24.7700 C   0  0  0  0  0  1  0  0  0  0  0  0
  -27.5970  -32.5360   25.8060 C   0  0  0  0  0  1  0  0  0  0  0  0
  1  2  1  0
  2  4  1  0
  3  1  2  0
  5 17  1  0
  6 11  1  0
  7  8  1  0
  7  6  1  0
  9  8  1  0
  9 21  1  0
  9 10  1  0
 11  5  1  0
 11 10  1  0
 12  5  2  0
 14 13  1  0
 15 13  1  0
 16  1  1  0
 16 17  1  0
 16 14  1  0
 17 15  1  0
 18 19  2  0
 19 38  1  0
 20 19  1  0
 20 23  1  0
 21 22  1  0
 21 18  1  0
 22 20  2  0
 23 24  1  0
 24 25  2  0
 26 29  1  0
 26 25  1  0
 27 26  2  0
 28 27  1  0
 28 23  2  0
 29 30  1  0
 30 31  1  0
 31 32  2  0
 33 32  1  0
 33 37  1  0
 34 33  2  0
 35 30  2  0
 35 34  1  0
 36 35  1  0
 38 39  1  0
 39 42  1  0
 39 41  1  0
 40 38  2  0
 43 18  1  0
 43 44  1  0
 45 43  1  0
 46 47  1  0
 46  2  1  0
 47 48  3  0
 48 49  1  0
 50 61  2  0
 51 49  1  0
 51 56  1  0
 52 60  1  0
 52 62  1  0
 53 59  1  0
 53 55  1  0
 54 60  1  0
 55 56  2  0
 55 54  1  0
 57 51  2  0
 58 57  1  0
 58 53  2  0
 59 52  1  0
 60 50  1  0
 62 64  2  0
 63 62  1  0
 65 63  1  0
 66 75  2  0
 66 71  1  0
 67 63  1  0
 67 71  1  0
 68 67  1  0
 69 70  1  0
 69 68  1  0
 70 66  1  0
 71 72  2  0
 72 73  1  0
 74 73  2  0
 75 74  1  0
 76 50  1  0
 76 77  1  0
 76 86  1  0
 77 80  1  0
 78 82  1  0
 78 77  1  0
 79 78  2  0
 82 81  1  0
 84 82  1  0
 84 85  1  0
 84 83  1  0
 86 89  1  1
 86 87  1  0
 88 86  1  0
M  ISO  4   5 100  17 100  48 101  49 101
M  END
>  <TORSDO>  (79) 
F 18

>  <SCORE>  (79) 
-13.147

>  <name>  (79) 
78

>  <ligand_id>  (79) 
78

>  <original_smiles>  (79) 
[H]c1c([H])c([H])c2c(c1[H])C([H])([H])C([H])([H])C([H])([H])C2([H])N([H])C(=O)C1([H])N(C(=O)C([H])(N([H])C(=O)C([H])(N([H])C([H])([H])[H])C([H])([H])[H])C(C([H])([H])[H])(C([H])([H])[H])C([H])([H])[H])C([H])([H])c2c([H])c(OC#CC([H])([H])N([H])C(=O)C3([H])N(C(=O)N4C([H])([H])C([H])([H])C([H])([H])C([H])(n5nc(-c6c([H])c([H])c(Oc7c([H])c([H])c(F)c([H])c7F)c([H])c6[H])c(C(=O)N([H])[H])c5N([H])[H])C4([H])[H])C([H])([H])C([H])([H])C3([H])[H])c([H])c([H])c2C1([H])[H]

>  <smiles>  (79) 
[H]c1c([H])c([H])c2c(c1[H])C([H])([H])C([H])([H])C([H])([H])C2([H])N([H])C(=O)C1([H])N(C(=O)C([H])(N([H])C(=O)C([H])(N([H])C([H])([H])[H])C([H])([H])[H])C(C([H])([H])[H])(C([H])([H])[H])C([H])([H])[H])C([H])([H])c2c([H])c(OC#CC([H])([H])N([H])C(=O)C3([H])N(C(=O)N4C([H])([H])C([H])([H])C([H])([H])C([H])(n5nc(-c6c([H])c([H])c(Oc7c([H])c([H])c(F)c([H])c7F)c([H])c6[H])c(C(=O)N([H])[H])c5N([H])[H])C4([H])[H])C([H])([H])C([H])([H])C3([H])[H])c([H])c([H])c2C1([H])[H]

$$$$
79:0:0
     RDKit          3D

 90 99  0  0  1  0  0  0  0  0999 V2000
  -29.7360  -20.3050   21.4660 C   0  0  0  0  0  3  0  0  0  0  0  0
  -29.7430  -21.6040   22.0310 C   0  0  0  0  0  0  0  0  0  0  0  0
  -29.3140  -22.7690   21.3690 C   0  0  0  0  0  0  0  0  0  0  0  0
  -29.2980  -20.0930   20.1460 C   0  0  0  0  0  0  0  0  0  0  0  0
  -28.8140  -22.7740   20.0500 C   0  0  0  0  0  0  0  0  0  0  0  0
  -30.2050  -21.9170   23.4310 C   0  0  0  0  0  2  0  0  0  0  0  0
  -29.4240  -23.9780   22.2660 C   0  0  0  0  0  3  0  0  0  0  0  0
  -29.8480  -23.4070   23.6370 C   0  0  0  0  0  3  0  0  0  0  0  0
  -28.8390  -21.3730   19.4990 N   0  0  0  0  0  0  0  0  0  0  0  0
  -29.5100  -18.4380   19.5270 C   0  0  0  0  0  2  0  0  0  0  0  0
  -30.2610  -15.5930   20.1900 C   0  0  0  0  0  0  0  0  0  0  0  0
  -30.4240  -13.0330   19.6660 C   0  0  0  0  0  2  0  0  0  0  0  0
  -29.5760  -12.5830   18.4470 C   0  0  0  0  0  2  0  0  0  0  0  0
  -28.1320  -12.2720   18.8700 C   0  0  0  0  0  2  0  0  0  0  0  0
  -27.5770  -13.3470   19.8370 C   0  0  0  0  0  3  0  0  0  0  0  0
  -28.5620  -13.7290   20.9640 C   0  0  0  0  0  2  0  0  0  0  0  0
  -29.7780  -14.2460   20.3110 N   0  0  0  0  0  0  0  0  0  0  0  0
  -31.4810  -15.6100   19.9580 O   0  0  0  0  0  0  0  0  0  0  0  0
  -29.4390  -16.8510   20.1410 N   0  0  0  0  0  0  0  0  0  0  0  0
  -28.4920  -16.6460   20.4240 H   0  0  0  0  0  0  0  0  0  0  0  0
  -25.2010  -13.8830   20.5760 C   0  0  0  0  0  0  0  0  0  0  0  0
  -24.1420  -13.0990   20.9390 C   0  0  0  0  0  0  0  0  0  0  0  0
  -24.6190  -11.7520   20.9120 C   0  0  0  0  0  0  0  0  0  0  0  0
  -26.2510  -13.0160   20.3390 N   0  0  0  0  0  0  0  0  0  0  0  0
  -25.9140  -11.7270   20.6100 N   0  0  0  0  0  0  0  0  0  0  0  0
  -23.8970  -10.4860   21.0970 C   0  0  0  0  0  0  0  0  0  0  0  0
  -24.3370   -9.5110   22.0210 C   0  0  0  0  0  3  0  0  0  0  0  0
  -23.6120   -8.3130   22.1950 C   0  0  0  0  0  3  0  0  0  0  0  0
  -22.4330   -8.0800   21.4480 C   0  0  0  0  0  0  0  0  0  0  0  0
  -22.0130   -9.0430   20.5130 C   0  0  0  0  0  3  0  0  0  0  0  0
  -22.7390  -10.2320   20.3360 C   0  0  0  0  0  3  0  0  0  0  0  0
  -21.6790   -6.9340   21.5330 O   0  0  0  0  0  0  0  0  0  0  0  0
  -21.6810   -6.1540   22.6610 C   0  0  0  0  0  0  0  0  0  0  0  0
  -21.2900   -6.6620   23.9200 C   0  0  0  0  0  3  0  0  0  0  0  0
  -21.2400   -5.8070   25.0390 C   0  0  0  0  0  3  0  0  0  0  0  0
  -21.5700   -4.4450   24.9020 C   0  0  0  0  0  0  0  0  0  0  0  0
  -21.9530   -3.9370   23.6480 C   0  0  0  0  0  3  0  0  0  0  0  0
  -22.0050   -4.7890   22.5300 C   0  0  0  0  0  0  0  0  0  0  0  0
  -22.3540   -4.2890   21.3210 F   0  0  0  0  0  0  0  0  0  0  0  0
  -21.5140   -3.6220   25.9750 F   0  0  0  0  0  0  0  0  0  0  0  0
  -22.7400  -13.5690   21.1950 C   0  0  0  0  0  0  0  0  0  0  0  0
  -22.0130  -12.8800   22.0670 N   0  0  0  0  0  0  0  0  0  0  0  0
  -22.2990  -14.5830   20.6560 O   0  0  0  0  0  0  0  0  0  0  0  0
  -22.3840  -12.0590   22.5220 H   0  0  0  0  0  0  0  0  0  0  0  0
  -21.0730  -13.1780   22.2820 H   0  0  0  0  0  0  0  0  0  0  0  0
  -25.3520  -15.2550   20.3960 N   0  0  0  0  0  0  0  0  0  0  0  0
  -24.5710  -15.8960   20.4890 H   0  0  0  0  0  0  0  0  0  0  0  0
  -26.1850  -15.6980   20.0310 H   0  0  0  0  0  0  0  0  0  0  0  0
  -28.1000  -24.3030   19.4640 C   0  0  0  0  0  2  0  0  0  0  0  0
  -28.2550  -25.9360   19.8520 O   0  0  0  0  0  0  0  0  0  0  0  0
  -24.6810  -31.7290   23.2290 C   0  0  0  0  0  0  0  0  0  0  0  0
  -27.2560  -27.0720   19.8240 C   0  0  0  0  0  0  0  0  0  0  0  0
  -23.4890  -30.4460   21.4980 C   0  0  0  0  0  3  0  0  0  0  0  0
  -24.9440  -28.9670   19.9390 C   0  0  0  0  0  0  0  0  0  0  0  0
  -26.0540  -30.6810   21.3520 C   0  0  0  0  0  2  0  0  0  0  0  0
  -26.1320  -29.3210   20.5880 C   0  0  0  0  0  0  0  0  0  0  0  0
  -27.2770  -28.3940   20.5110 C   0  0  0  0  0  3  0  0  0  0  0  0
  -26.0390  -26.8970   19.1240 C   0  0  0  0  0  3  0  0  0  0  0  0
  -24.9260  -27.7800   19.1870 C   0  0  0  0  0  3  0  0  0  0  0  0
  -23.7150  -29.8720   20.0700 C   0  0  0  0  0  2  0  0  0  0  0  0
  -24.7630  -30.9770   22.0820 N   0  0  0  0  0  0  0  0  0  0  0  0
  -23.5930  -31.9670   23.7770 O   0  0  0  0  0  0  0  0  0  0  0  0
  -22.8120  -29.3740   22.3940 C   0  0  0  0  0  0  0  0  0  0  0  0
  -21.4890  -29.1740   22.2390 N   0  0  0  0  0  0  0  0  0  0  0  0
  -23.4850  -28.7270   23.1990 O   0  0  0  0  0  0  0  0  0  0  0  0
  -20.9960  -29.7510   21.5720 H   0  0  0  0  0  0  0  0  0  0  0  0
  -18.1630  -27.7550   22.5590 C   0  0  0  0  0  0  0  0  0  0  0  0
  -20.6900  -28.1640   22.9410 C   0  0  0  0  0  3  0  0  0  0  0  0
  -20.9000  -26.7610   22.3240 C   0  0  0  0  0  2  0  0  0  0  0  0
  -19.8630  -26.4120   21.2530 C   0  0  0  0  0  2  0  0  0  0  0  0
  -18.4490  -26.4480   21.8400 C   0  0  0  0  0  2  0  0  0  0  0  0
  -19.2150  -28.5680   23.0620 C   0  0  0  0  0  0  0  0  0  0  0  0
  -18.8920  -29.7870   23.6960 C   0  0  0  0  0  3  0  0  0  0  0  0
  -17.5520  -30.1970   23.8300 C   0  0  0  0  0  3  0  0  0  0  0  0
  -16.5150  -29.3830   23.3410 C   0  0  0  0  0  3  0  0  0  0  0  0
  -16.8210  -28.1630   22.7120 C   0  0  0  0  0  3  0  0  0  0  0  0
  -25.9480  -32.3400   23.8990 C   0  0  0  0  0  3  0  0  0  0  0  0
  -25.6160  -33.7090   24.3380 N   0  0  0  0  0  0  0  0  0  0  0  0
  -25.9420  -34.8280   23.6800 C   0  0  0  0  0  0  0  0  0  0  0  0
  -26.6160  -34.8200   22.6460 O   0  0  0  0  0  0  0  0  0  0  0  0
  -25.0190  -33.7880   25.1470 H   0  0  0  0  0  0  0  0  0  0  0  0
  -24.1920  -36.6310   23.5000 C   0  0  0  0  0  1  0  0  0  0  0  0
  -25.4480  -36.1720   24.2580 C   0  0  0  0  0  3  0  0  0  0  0  0
  -27.5780  -37.0180   25.1380 C   0  0  0  0  0  1  0  0  0  0  0  0
  -26.4660  -37.2430   24.2190 N   0  0  0  0  0  0  0  0  0  0  0  0
  -26.0510  -38.1450   24.4380 H   0  0  0  0  0  0  0  0  0  0  0  0
  -26.4710  -31.4920   25.1250 C   0  0  1  0  0  0  0  0  0  0  0  0
  -25.3830  -31.1870   26.1830 C   0  0  0  0  0  1  0  0  0  0  0  0
  -27.0560  -30.1410   24.6570 C   0  0  0  0  0  1  0  0  0  0  0  0
  -27.6230  -32.2460   25.8290 C   0  0  0  0  0  1  0  0  0  0  0  0
  1  2  1  0
  2  6  1  0
  3  2  2  0
  3  7  1  0
  4  1  2  0
  5  3  1  0
  6  8  1  0
  7  8  2  0
  9  5  2  0
  9  4  1  0
 10 19  1  0
 10  4  1  0
 11 17  1  0
 12 17  1  0
 13 14  1  0
 13 12  1  0
 15 14  1  0
 15 24  1  0
 15 16  1  0
 17 16  1  0
 18 11  2  0
 19 11  1  0
 19 20  1  0
 21 22  2  0
 22 41  1  0
 23 22  1  0
 23 26  1  0
 24 21  1  0
 24 25  1  0
 25 23  2  0
 26 27  1  0
 27 28  2  0
 29 32  1  0
 29 28  1  0
 30 29  2  0
 31 30  1  0
 31 26  2  0
 32 33  1  0
 33 34  1  0
 34 35  2  0
 36 35  1  0
 36 40  1  0
 37 36  2  0
 38 33  2  0
 38 37  1  0
 39 38  1  0
 41 42  1  0
 42 45  1  0
 42 44  1  0
 43 41  2  0
 46 47  1  0
 46 21  1  0
 48 46  1  0
 49 50  1  0
 49  5  1  0
 51 62  2  0
 52 50  1  0
 52 57  1  0
 53 61  1  0
 53 63  1  0
 54 60  1  0
 54 56  1  0
 55 61  1  0
 56 55  1  0
 57 56  2  0
 58 59  1  0
 58 52  2  0
 59 54  2  0
 60 53  1  0
 61 51  1  0
 63 65  2  0
 64 63  1  0
 66 64  1  0
 67 76  2  0
 67 72  1  0
 68 64  1  0
 68 72  1  0
 69 68  1  0
 70 71  1  0
 70 69  1  0
 71 67  1  0
 72 73  2  0
 73 74  1  0
 75 74  2  0
 76 75  1  0
 77 51  1  0
 77 78  1  0
 77 87  1  0
 78 81  1  0
 79 83  1  0
 79 78  1  0
 80 79  2  0
 83 82  1  0
 85 83  1  0
 85 86  1  0
 85 84  1  0
 87 90  1  1
 87 88  1  0
 89 87  1  0
M  ISO  4  11 100  19 100  49 101  50 101
M  END
>  <TORSDO>  (80) 
F 18

>  <SCORE>  (80) 
-16.280

>  <name>  (80) 
79

>  <ligand_id>  (80) 
79

>  <original_smiles>  (80) 
[H]c1c([H])c([H])c2c(c1[H])C([H])([H])C([H])([H])C([H])([H])C2([H])N([H])C(=O)C1([H])N(C(=O)C([H])(N([H])C(=O)C([H])(N([H])C([H])([H])[H])C([H])([H])[H])C(C([H])([H])[H])(C([H])([H])[H])C([H])([H])[H])C([H])([H])c2c([H])c(OC([H])([H])c3nc(C([H])([H])N([H])C(=O)N4C([H])([H])C([H])([H])C([H])([H])C([H])(n5nc(-c6c([H])c([H])c(Oc7c([H])c([H])c(F)c([H])c7F)c([H])c6[H])c(C(=O)N([H])[H])c5N([H])[H])C4([H])[H])c([H])c4c3C([H])([H])C([H])([H])C4([H])[H])c([H])c([H])c2C1([H])[H]

>  <smiles>  (80) 
[H]c1c([H])c([H])c2c(c1[H])C([H])([H])C([H])([H])C([H])([H])C2([H])N([H])C(=O)C1([H])N(C(=O)C([H])(N([H])C(=O)C([H])(N([H])C([H])([H])[H])C([H])([H])[H])C(C([H])([H])[H])(C([H])([H])[H])C([H])([H])[H])C([H])([H])c2c([H])c(OC([H])([H])c3nc(C([H])([H])N([H])C(=O)N4C([H])([H])C([H])([H])C([H])([H])C([H])(n5nc(-c6c([H])c([H])c(Oc7c([H])c([H])c(F)c([H])c7F)c([H])c6[H])c(C(=O)N([H])[H])c5N([H])[H])C4([H])[H])c([H])c4c3C([H])([H])C([H])([H])C4([H])[H])c([H])c([H])c2C1([H])[H]

$$$$
80:0:0
     RDKit          3D

 94103  0  0  1  0  0  0  0  0999 V2000
  -29.8120  -21.1160   19.2680 C   0  0  0  0  0  3  0  0  0  0  0  0
  -28.4090  -20.9570   21.1160 C   0  0  0  0  0  3  0  0  0  0  0  0
  -29.2710  -20.2070   20.2450 C   0  0  0  0  0  0  0  0  0  0  0  0
  -29.4950  -22.5460   19.1740 C   0  0  0  0  0  0  0  0  0  0  0  0
  -28.5960  -23.1980   20.1020 C   0  0  0  0  0  0  0  0  0  0  0  0
  -28.0910  -22.3170   21.0410 N   0  0  0  0  0  0  0  0  0  0  0  0
  -30.5980  -15.0720   20.2150 C   0  0  0  0  0  0  0  0  0  0  0  0
  -30.3780  -12.7190   19.2890 C   0  0  0  0  0  2  0  0  0  0  0  0
  -29.4330  -12.6400   18.0710 C   0  0  0  0  0  2  0  0  0  0  0  0
  -27.9820  -12.4300   18.5380 C   0  0  0  0  0  2  0  0  0  0  0  0
  -27.5910  -13.3780   19.7040 C   0  0  0  0  0  3  0  0  0  0  0  0
  -28.6680  -13.4570   20.8050 C   0  0  0  0  0  2  0  0  0  0  0  0
  -29.9160  -13.8550   20.1450 N   0  0  0  0  0  0  0  0  0  0  0  0
  -31.8050  -15.0140   19.9540 O   0  0  0  0  0  0  0  0  0  0  0  0
  -28.8880  -17.2300   20.7070 C   0  0  0  0  0  2  0  0  0  0  0  0
  -30.5330  -17.6400   19.4900 C   0  0  0  0  0  2  0  0  0  0  0  0
  -29.6930  -18.5930   20.4320 C   0  0  0  0  0  3  0  0  0  0  0  0
  -29.9870  -16.3710   20.1120 N   0  0  0  0  0  0  0  0  0  0  0  0
  -25.2370  -13.9480   20.5130 C   0  0  0  0  0  0  0  0  0  0  0  0
  -24.1770  -13.1700   20.8900 C   0  0  0  0  0  0  0  0  0  0  0  0
  -24.6350  -11.8180   20.8300 C   0  0  0  0  0  0  0  0  0  0  0  0
  -26.2700  -13.0700   20.2370 N   0  0  0  0  0  0  0  0  0  0  0  0
  -25.9200  -11.7820   20.4970 N   0  0  0  0  0  0  0  0  0  0  0  0
  -23.9070  -10.5560   21.0140 C   0  0  0  0  0  0  0  0  0  0  0  0
  -24.3350   -9.5810   21.9420 C   0  0  0  0  0  3  0  0  0  0  0  0
  -23.6030   -8.3870   22.1170 C   0  0  0  0  0  3  0  0  0  0  0  0
  -22.4280   -8.1570   21.3620 C   0  0  0  0  0  0  0  0  0  0  0  0
  -22.0190   -9.1190   20.4220 C   0  0  0  0  0  3  0  0  0  0  0  0
  -22.7510  -10.3050   20.2470 C   0  0  0  0  0  3  0  0  0  0  0  0
  -21.6690   -7.0140   21.4440 O   0  0  0  0  0  0  0  0  0  0  0  0
  -21.6000   -6.2780   22.5990 C   0  0  0  0  0  0  0  0  0  0  0  0
  -21.1110   -6.8270   23.8040 C   0  0  0  0  0  3  0  0  0  0  0  0
  -20.9920   -6.0160   24.9500 C   0  0  0  0  0  3  0  0  0  0  0  0
  -21.3510   -4.6560   24.8920 C   0  0  0  0  0  0  0  0  0  0  0  0
  -21.8350   -4.1060   23.6920 C   0  0  0  0  0  3  0  0  0  0  0  0
  -21.9550   -4.9140   22.5480 C   0  0  0  0  0  0  0  0  0  0  0  0
  -22.4010   -4.3740   21.3880 F   0  0  0  0  0  0  0  0  0  0  0  0
  -21.2300   -3.8750   25.9910 F   0  0  0  0  0  0  0  0  0  0  0  0
  -22.7880  -13.6490   21.1920 C   0  0  0  0  0  0  0  0  0  0  0  0
  -22.0750  -12.9430   22.0620 N   0  0  0  0  0  0  0  0  0  0  0  0
  -22.3470  -14.6850   20.6960 O   0  0  0  0  0  0  0  0  0  0  0  0
  -22.4440  -12.1040   22.4820 H   0  0  0  0  0  0  0  0  0  0  0  0
  -21.1440  -13.2480   22.3110 H   0  0  0  0  0  0  0  0  0  0  0  0
  -25.4060  -15.3200   20.3520 N   0  0  0  0  0  0  0  0  0  0  0  0
  -24.6510  -15.9830   20.4920 H   0  0  0  0  0  0  0  0  0  0  0  0
  -26.2570  -15.7500   20.0110 H   0  0  0  0  0  0  0  0  0  0  0  0
  -31.6490  -23.1490   17.9050 C   0  0  0  0  0  1  0  0  0  0  0  0
  -30.1280  -23.3780   18.0450 C   0  0  0  0  0  3  0  0  0  0  0  0
  -29.4390  -23.1740   16.7550 N   0  0  0  0  0  4  0  0  0  0  0  0
  -29.5620  -22.2390   16.4090 H   0  0  0  0  0  0  0  0  0  0  0  0
  -29.8090  -23.8060   16.0670 H   0  0  0  0  0  0  0  0  0  0  0  0
  -28.4550  -23.3530   16.8270 H   0  0  0  0  0  0  0  0  0  0  0  0
  -27.8280  -24.6720   19.8820 C   0  0  0  0  0  2  0  0  0  0  0  0
  -28.2200  -26.1590   20.2020 O   0  0  0  0  0  0  0  0  0  0  0  0
  -24.6360  -31.8980   23.2540 C   0  0  0  0  0  0  0  0  0  0  0  0
  -27.1990  -27.1940   20.1450 C   0  0  0  0  0  0  0  0  0  0  0  0
  -23.4340  -30.5220   21.6050 C   0  0  0  0  0  3  0  0  0  0  0  0
  -24.8770  -28.9710   20.1530 C   0  0  0  0  0  0  0  0  0  0  0  0
  -25.9930  -30.7790   21.4400 C   0  0  0  0  0  2  0  0  0  0  0  0
  -26.0640  -29.3950   20.7640 C   0  0  0  0  0  0  0  0  0  0  0  0
  -27.2250  -28.5240   20.7460 C   0  0  0  0  0  3  0  0  0  0  0  0
  -25.9830  -26.8950   19.4840 C   0  0  0  0  0  3  0  0  0  0  0  0
  -24.8530  -27.7340   19.4990 C   0  0  0  0  0  3  0  0  0  0  0  0
  -23.6520  -29.8690   20.2170 C   0  0  0  0  0  2  0  0  0  0  0  0
  -24.7080  -31.0880   22.1530 N   0  0  0  0  0  0  0  0  0  0  0  0
  -23.5490  -32.1760   23.7850 O   0  0  0  0  0  0  0  0  0  0  0  0
  -22.7580  -29.5000   22.5550 C   0  0  0  0  0  0  0  0  0  0  0  0
  -21.4300  -29.3200   22.4220 N   0  0  0  0  0  0  0  0  0  0  0  0
  -23.4310  -28.8720   23.3750 O   0  0  0  0  0  0  0  0  0  0  0  0
  -20.9430  -29.8810   21.7370 H   0  0  0  0  0  0  0  0  0  0  0  0
  -18.0540  -28.0950   22.9150 C   0  0  0  0  0  0  0  0  0  0  0  0
  -20.6130  -28.3730   23.1840 C   0  0  0  0  0  3  0  0  0  0  0  0
  -20.7240  -26.9450   22.6010 C   0  0  0  0  0  2  0  0  0  0  0  0
  -19.6240  -26.6230   21.5840 C   0  0  0  0  0  2  0  0  0  0  0  0
  -18.2390  -26.7520   22.2260 C   0  0  0  0  0  2  0  0  0  0  0  0
  -19.1680  -28.8620   23.3490 C   0  0  0  0  0  0  0  0  0  0  0  0
  -18.9390  -30.1170   23.9540 C   0  0  0  0  0  3  0  0  0  0  0  0
  -17.6300  -30.6060   24.1270 C   0  0  0  0  0  3  0  0  0  0  0  0
  -16.5310  -29.8360   23.7070 C   0  0  0  0  0  3  0  0  0  0  0  0
  -16.7440  -28.5830   23.1070 C   0  0  0  0  0  3  0  0  0  0  0  0
  -25.9130  -32.5290   23.8840 C   0  0  0  0  0  3  0  0  0  0  0  0
  -26.4150  -31.7640   25.1690 C   0  0  1  0  0  0  0  0  0  0  0  0
  -25.3100  -31.5350   26.2280 C   0  0  0  0  0  1  0  0  0  0  0  0
  -27.0010  -30.3830   24.7970 C   0  0  0  0  0  1  0  0  0  0  0  0
  -27.5600  -32.5610   25.8360 C   0  0  0  0  0  1  0  0  0  0  0  0
  -25.6040  -33.9300   24.2130 N   0  0  0  0  0  0  0  0  0  0  0  0
  -25.9210  -34.9840   23.4480 C   0  0  0  0  0  0  0  0  0  0  0  0
  -26.5710  -34.8800   22.4040 O   0  0  0  0  0  0  0  0  0  0  0  0
  -25.0290  -34.0840   25.0270 H   0  0  0  0  0  0  0  0  0  0  0  0
  -24.1790  -36.7730   23.1370 C   0  0  0  0  0  1  0  0  0  0  0  0
  -25.4430  -36.3740   23.9160 C   0  0  0  0  0  3  0  0  0  0  0  0
  -27.5910  -37.2710   24.6970 C   0  0  0  0  0  1  0  0  0  0  0  0
  -26.4700  -37.4300   23.7740 N   0  0  0  0  0  0  0  0  0  0  0  0
  -26.0630  -38.3480   23.9290 H   0  0  0  0  0  0  0  0  0  0  0  0
  1  3  1  0
  3  2  2  0
  4  1  2  0
  4  5  1  0
  5  6  2  0
  6  2  1  0
  8 13  1  0
  9 10  1  0
  9  8  1  0
 11 10  1  0
 11 22  1  0
 11 12  1  0
 13  7  1  0
 13 12  1  0
 14  7  2  0
 16 18  1  0
 16 17  1  0
 17  3  1  0
 17 15  1  0
 18  7  1  0
 18 15  1  0
 19 20  2  0
 20 39  1  0
 21 20  1  0
 21 24  1  0
 22 23  1  0
 22 19  1  0
 23 21  2  0
 24 25  1  0
 25 26  2  0
 27 30  1  0
 27 26  1  0
 28 27  2  0
 29 28  1  0
 29 24  2  0
 30 31  1  0
 31 32  1  0
 32 33  2  0
 34 33  1  0
 34 38  1  0
 35 34  2  0
 36 31  2  0
 36 35  1  0
 37 36  1  0
 39 40  1  0
 40 43  1  0
 40 42  1  0
 41 39  2  0
 44 45  1  0
 44 19  1  0
 46 44  1  0
 48 47  1  0
 48  4  1  0
 49 52  1  0
 49 48  1  0
 50 49  1  0
 51 49  1  0
 53  5  1  0
 53 54  1  0
 55 66  2  0
 56 54  1  0
 56 61  1  0
 57 65  1  0
 57 67  1  0
 58 64  1  0
 58 60  1  0
 59 65  1  0
 60 59  1  0
 61 60  2  0
 62 63  1  0
 62 56  2  0
 63 58  2  0
 64 57  1  0
 65 55  1  0
 67 69  2  0
 68 67  1  0
 70 68  1  0
 71 80  2  0
 71 76  1  0
 72 68  1  0
 72 76  1  0
 73 72  1  0
 74 75  1  0
 74 73  1  0
 75 71  1  0
 76 77  2  0
 77 78  1  0
 79 78  2  0
 80 79  1  0
 81 55  1  0
 81 86  1  0
 81 82  1  0
 82 85  1  1
 82 83  1  0
 84 82  1  0
 86 89  1  0
 87 91  1  0
 87 86  1  0
 88 87  2  0
 91 90  1  0
 93 91  1  0
 93 94  1  0
 93 92  1  0
M  ISO  4   7 100  18 100  53 101  54 101
M  END
>  <TORSDO>  (81) 
F 19

>  <SCORE>  (81) 
-14.570

>  <name>  (81) 
80

>  <ligand_id>  (81) 
80

>  <original_smiles>  (81) 
[H]c1nc(C([H])([H])Oc2c([H])c([H])c3c(c2[H])C([H])([H])N(C(=O)C([H])(N([H])C(=O)C([H])(N([H])C([H])([H])[H])C([H])([H])[H])C(C([H])([H])[H])(C([H])([H])[H])C([H])([H])[H])C([H])(C(=O)N([H])C2([H])c4c([H])c([H])c([H])c([H])c4C([H])([H])C([H])([H])C2([H])[H])C3([H])[H])c(C([H])(C([H])([H])[H])[N+]([H])([H])[H])c([H])c1C1([H])C([H])([H])N(C(=O)N2C([H])([H])C([H])([H])C([H])([H])C([H])(n3nc(-c4c([H])c([H])c(Oc5c([H])c([H])c(F)c([H])c5F)c([H])c4[H])c(C(=O)N([H])[H])c3N([H])[H])C2([H])[H])C1([H])[H]

>  <smiles>  (81) 
[H]c1nc(C([H])([H])Oc2c([H])c([H])c3c(c2[H])C([H])([H])N(C(=O)C([H])(N([H])C(=O)C([H])(N([H])C([H])([H])[H])C([H])([H])[H])C(C([H])([H])[H])(C([H])([H])[H])C([H])([H])[H])C([H])(C(=O)N([H])C2([H])c4c([H])c([H])c([H])c([H])c4C([H])([H])C([H])([H])C2([H])[H])C3([H])[H])c(C([H])(C([H])([H])[H])[N+]([H])([H])[H])c([H])c1C1([H])C([H])([H])N(C(=O)N2C([H])([H])C([H])([H])C([H])([H])C([H])(n3nc(-c4c([H])c([H])c(Oc5c([H])c([H])c(F)c([H])c5F)c([H])c4[H])c(C(=O)N([H])[H])c3N([H])[H])C2([H])[H])C1([H])[H]

$$$$
81:0:0
     RDKit          3D

 94104  0  0  1  0  0  0  0  0999 V2000
  -28.2880  -21.9440   19.7240 C   0  0  0  0  0  3  0  0  0  0  0  0
  -29.3600  -21.0550   20.0220 C   0  0  0  0  0  0  0  0  0  0  0  0
  -30.3540  -22.0360   20.3860 C   0  0  0  0  0  0  0  0  0  0  0  0
  -29.8820  -23.3100   20.3100 C   0  0  0  0  0  0  0  0  0  0  0  0
  -30.8440  -24.3660   20.6680 C   0  0  0  0  0  3  0  0  0  0  0  0
  -32.0650  -23.5310   21.1450 C   0  0  0  0  0  3  0  0  0  0  0  0
  -31.8020  -22.0210   20.8080 C   0  0  2  0  0  0  0  0  0  0  0  0
  -32.7020  -21.5800   19.6380 C   0  0  0  0  0  1  0  0  0  0  0  0
  -32.0300  -21.1220   22.0360 C   0  0  0  0  0  1  0  0  0  0  0  0
  -28.5740  -23.3680   19.8890 N   0  0  0  0  0  0  0  0  0  0  0  0
  -30.5090  -14.8370   19.8530 C   0  0  0  0  0  0  0  0  0  0  0  0
  -30.2660  -12.4910   18.9470 C   0  0  0  0  0  2  0  0  0  0  0  0
  -29.2610  -12.4530   17.7760 C   0  0  0  0  0  2  0  0  0  0  0  0
  -27.8300  -12.2500   18.3060 C   0  0  0  0  0  2  0  0  0  0  0  0
  -27.5040  -13.1860   19.5020 C   0  0  0  0  0  3  0  0  0  0  0  0
  -28.6320  -13.2260   20.5540 C   0  0  0  0  0  2  0  0  0  0  0  0
  -29.8580  -13.6070   19.8470 N   0  0  0  0  0  0  0  0  0  0  0  0
  -31.6910  -14.8360   19.4910 O   0  0  0  0  0  0  0  0  0  0  0  0
  -29.2210  -18.4490   21.1460 C   0  0  0  0  0  3  0  0  0  0  0  0
  -29.2590  -18.5070   18.7620 C   0  0  0  0  0  3  0  0  0  0  0  0
  -29.8340  -16.9490   21.1470 C   0  0  0  0  0  2  0  0  0  0  0  0
  -29.9370  -17.0410   18.7420 C   0  0  0  0  0  3  0  0  0  0  0  0
  -29.6390  -19.4150   19.9760 C   0  0  0  0  0  0  0  0  0  0  0  0
  -29.8060  -16.0810   19.9090 N   0  0  0  0  0  0  0  0  0  0  0  0
  -25.2020  -13.7600   20.4540 C   0  0  0  0  0  0  0  0  0  0  0  0
  -24.1570  -12.9830   20.8750 C   0  0  0  0  0  0  0  0  0  0  0  0
  -24.5960  -11.6290   20.7550 C   0  0  0  0  0  0  0  0  0  0  0  0
  -26.2080  -12.8800   20.0970 N   0  0  0  0  0  0  0  0  0  0  0  0
  -25.8590  -11.5900   20.3420 N   0  0  0  0  0  0  0  0  0  0  0  0
  -23.8660  -10.3700   20.9500 C   0  0  0  0  0  0  0  0  0  0  0  0
  -24.3020   -9.3990   21.8790 C   0  0  0  0  0  3  0  0  0  0  0  0
  -23.5700   -8.2050   22.0640 C   0  0  0  0  0  3  0  0  0  0  0  0
  -22.3890   -7.9750   21.3190 C   0  0  0  0  0  0  0  0  0  0  0  0
  -21.9720   -8.9340   20.3790 C   0  0  0  0  0  3  0  0  0  0  0  0
  -22.7050  -10.1190   20.1930 C   0  0  0  0  0  3  0  0  0  0  0  0
  -21.6270   -6.8340   21.4150 O   0  0  0  0  0  0  0  0  0  0  0  0
  -21.5200   -6.1360   22.5920 C   0  0  0  0  0  0  0  0  0  0  0  0
  -21.0020   -6.7260   23.7650 C   0  0  0  0  0  3  0  0  0  0  0  0
  -20.8460   -5.9510   24.9320 C   0  0  0  0  0  3  0  0  0  0  0  0
  -21.1980   -4.5880   24.9260 C   0  0  0  0  0  0  0  0  0  0  0  0
  -21.7080   -3.9980   23.7550 C   0  0  0  0  0  3  0  0  0  0  0  0
  -21.8660   -4.7700   22.5920 C   0  0  0  0  0  0  0  0  0  0  0  0
  -22.3390   -4.1910   21.4610 F   0  0  0  0  0  0  0  0  0  0  0  0
  -21.0420   -3.8420   26.0430 F   0  0  0  0  0  0  0  0  0  0  0  0
  -22.7940  -13.4690   21.2740 C   0  0  0  0  0  0  0  0  0  0  0  0
  -22.1290  -12.7560   22.1740 N   0  0  0  0  0  0  0  0  0  0  0  0
  -22.3300  -14.5140   20.8190 O   0  0  0  0  0  0  0  0  0  0  0  0
  -22.5170  -11.9100   22.5630 H   0  0  0  0  0  0  0  0  0  0  0  0
  -21.2160  -13.0590   22.4800 H   0  0  0  0  0  0  0  0  0  0  0  0
  -25.3750  -15.1340   20.3190 N   0  0  0  0  0  0  0  0  0  0  0  0
  -24.6380  -15.7990   20.5200 H   0  0  0  0  0  0  0  0  0  0  0  0
  -26.2200  -15.5710   19.9710 H   0  0  0  0  0  0  0  0  0  0  0  0
  -27.6370  -24.6070   19.6540 C   0  0  0  0  0  2  0  0  0  0  0  0
  -28.0310  -26.0480   19.9400 O   0  0  0  0  0  0  0  0  0  0  0  0
  -24.4800  -31.6930   23.0810 C   0  0  0  0  0  0  0  0  0  0  0  0
  -26.9960  -27.0570   19.8930 C   0  0  0  0  0  0  0  0  0  0  0  0
  -23.2500  -30.3360   21.4340 C   0  0  0  0  0  3  0  0  0  0  0  0
  -24.6710  -28.8040   19.9460 C   0  0  0  0  0  0  0  0  0  0  0  0
  -25.8020  -30.6060   21.2300 C   0  0  0  0  0  2  0  0  0  0  0  0
  -25.8630  -29.2310   20.5470 C   0  0  0  0  0  0  0  0  0  0  0  0
  -27.0250  -28.3720   20.5100 C   0  0  0  0  0  3  0  0  0  0  0  0
  -25.7790  -26.7470   19.2400 C   0  0  0  0  0  3  0  0  0  0  0  0
  -24.6410  -27.5740   19.2790 C   0  0  0  0  0  3  0  0  0  0  0  0
  -23.4440  -29.6950   20.0370 C   0  0  0  0  0  2  0  0  0  0  0  0
  -24.5320  -30.8980   21.9700 N   0  0  0  0  0  0  0  0  0  0  0  0
  -23.4030  -31.9660   23.6340 O   0  0  0  0  0  0  0  0  0  0  0  0
  -22.5920  -29.3030   22.3840 C   0  0  0  0  0  0  0  0  0  0  0  0
  -21.2670  -29.1130   22.2580 N   0  0  0  0  0  0  0  0  0  0  0  0
  -23.2760  -28.6760   23.1980 O   0  0  0  0  0  0  0  0  0  0  0  0
  -20.7710  -29.6730   21.5780 H   0  0  0  0  0  0  0  0  0  0  0  0
  -17.9060  -27.8460   22.7390 C   0  0  0  0  0  0  0  0  0  0  0  0
  -20.4590  -28.1570   23.0200 C   0  0  0  0  0  3  0  0  0  0  0  0
  -20.5910  -26.7290   22.4400 C   0  0  0  0  0  2  0  0  0  0  0  0
  -19.5000  -26.3890   21.4190 C   0  0  0  0  0  2  0  0  0  0  0  0
  -18.1120  -26.5050   22.0560 C   0  0  0  0  0  2  0  0  0  0  0  0
  -19.0070  -28.6290   23.1770 C   0  0  0  0  0  0  0  0  0  0  0  0
  -18.7590  -29.8830   23.7760 C   0  0  0  0  0  3  0  0  0  0  0  0
  -17.4430  -30.3550   23.9410 C   0  0  0  0  0  3  0  0  0  0  0  0
  -16.3570  -29.5690   23.5190 C   0  0  0  0  0  3  0  0  0  0  0  0
  -16.5890  -28.3170   22.9220 C   0  0  0  0  0  3  0  0  0  0  0  0
  -25.7690  -32.3150   23.6970 C   0  0  0  0  0  3  0  0  0  0  0  0
  -25.4610  -33.7040   24.0720 N   0  0  0  0  0  0  0  0  0  0  0  0
  -25.7570  -34.7800   23.3300 C   0  0  0  0  0  0  0  0  0  0  0  0
  -26.3870  -34.7080   22.2720 O   0  0  0  0  0  0  0  0  0  0  0  0
  -24.8960  -33.8330   24.8990 H   0  0  0  0  0  0  0  0  0  0  0  0
  -23.9950  -36.5650   23.1070 C   0  0  0  0  0  1  0  0  0  0  0  0
  -25.2800  -36.1530   23.8440 C   0  0  0  0  0  3  0  0  0  0  0  0
  -27.4400  -37.0490   24.5930 C   0  0  0  0  0  1  0  0  0  0  0  0
  -26.2950  -37.2200   23.7030 N   0  0  0  0  0  0  0  0  0  0  0  0
  -25.8850  -38.1320   23.8870 H   0  0  0  0  0  0  0  0  0  0  0  0
  -26.3070  -31.5150   24.9470 C   0  0  1  0  0  0  0  0  0  0  0  0
  -25.2300  -31.2540   26.0270 C   0  0  0  0  0  1  0  0  0  0  0  0
  -26.8840  -30.1450   24.5190 C   0  0  0  0  0  1  0  0  0  0  0  0
  -27.4670  -32.2950   25.6100 C   0  0  0  0  0  1  0  0  0  0  0  0
  1 10  1  0
  1  2  2  0
  2  3  1  0
  3  7  1  0
  4  3  2  0
  4  5  1  0
  5  6  2  0
  7  6  1  0
  7  9  1  1
  8  7  1  0
 10  4  1  0
 11 24  1  0
 12 17  1  0
 13 14  1  0
 13 12  1  0
 15 14  1  0
 15 28  1  0
 15 16  1  0
 17 11  1  0
 17 16  1  0
 18 11  2  0
 19 21  1  0
 20 23  1  0
 22 20  2  0
 22 24  1  0
 23  2  1  0
 23 19  2  0
 24 21  1  0
 25 26  2  0
 26 45  1  0
 27 26  1  0
 27 30  1  0
 28 29  1  0
 28 25  1  0
 29 27  2  0
 30 31  1  0
 31 32  2  0
 33 36  1  0
 33 32  1  0
 34 33  2  0
 35 34  1  0
 35 30  2  0
 36 37  1  0
 37 38  1  0
 38 39  2  0
 40 39  1  0
 40 44  1  0
 41 40  2  0
 42 37  2  0
 42 41  1  0
 43 42  1  0
 45 46  1  0
 46 49  1  0
 46 48  1  0
 47 45  2  0
 50 25  1  0
 50 51  1  0
 52 50  1  0
 53 10  1  0
 53 54  1  0
 55 66  2  0
 56 54  1  0
 56 61  1  0
 57 65  1  0
 57 67  1  0
 58 64  1  0
 58 60  1  0
 59 65  1  0
 60 59  1  0
 61 60  2  0
 62 63  1  0
 62 56  2  0
 63 58  2  0
 64 57  1  0
 65 55  1  0
 67 69  2  0
 68 67  1  0
 70 68  1  0
 71 80  2  0
 71 76  1  0
 72 68  1  0
 72 76  1  0
 73 72  1  0
 74 75  1  0
 74 73  1  0
 75 71  1  0
 76 77  2  0
 77 78  1  0
 79 78  2  0
 80 79  1  0
 81 55  1  0
 81 82  1  0
 81 91  1  0
 82 85  1  0
 83 87  1  0
 83 82  1  0
 84 83  2  0
 87 86  1  0
 89 87  1  0
 89 90  1  0
 89 88  1  0
 91 94  1  1
 91 92  1  0
 93 91  1  0
M  ISO  4  11 100  24 100  53 101  54 101
M  END
>  <TORSDO>  (82) 
F 17

>  <SCORE>  (82) 
-13.941

>  <name>  (82) 
81

>  <ligand_id>  (82) 
81

>  <original_smiles>  (82) 
[H]c1c([H])c([H])c2c(c1[H])C([H])([H])C([H])([H])C([H])([H])C2([H])N([H])C(=O)C1([H])N(C(=O)C([H])(N([H])C(=O)C([H])(N([H])C([H])([H])[H])C([H])([H])[H])C(C([H])([H])[H])(C([H])([H])[H])C([H])([H])[H])C([H])([H])c2c([H])c(OC([H])([H])n3c([H])c(C4([H])C([H])([H])C([H])([H])N(C(=O)N5C([H])([H])C([H])([H])C([H])([H])C([H])(n6nc(-c7c([H])c([H])c(Oc8c([H])c([H])c(F)c([H])c8F)c([H])c7[H])c(C(=O)N([H])[H])c6N([H])[H])C5([H])[H])C([H])([H])C4([H])[H])c4c3C([H])([H])C([H])([H])C4(C([H])([H])[H])C([H])([H])[H])c([H])c([H])c2C1([H])[H]

>  <smiles>  (82) 
[H]c1c([H])c([H])c2c(c1[H])C([H])([H])C([H])([H])C([H])([H])C2([H])N([H])C(=O)C1([H])N(C(=O)C([H])(N([H])C(=O)C([H])(N([H])C([H])([H])[H])C([H])([H])[H])C(C([H])([H])[H])(C([H])([H])[H])C([H])([H])[H])C([H])([H])c2c([H])c(OC([H])([H])n3c([H])c(C4([H])C([H])([H])C([H])([H])N(C(=O)N5C([H])([H])C([H])([H])C([H])([H])C([H])(n6nc(-c7c([H])c([H])c(Oc8c([H])c([H])c(F)c([H])c8F)c([H])c7[H])c(C(=O)N([H])[H])c6N([H])[H])C5([H])[H])C([H])([H])C4([H])[H])c4c3C([H])([H])C([H])([H])C4(C([H])([H])[H])C([H])([H])[H])c([H])c([H])c2C1([H])[H]

$$$$
82:0:0
     RDKit          3D

 89 97  0  0  1  0  0  0  0  0999 V2000
  -28.9800  -21.1780   18.8350 C   0  0  0  0  0  2  0  0  0  0  0  0
  -28.6430  -20.3410   20.8370 C   0  0  0  0  0  2  0  0  0  0  0  0
  -31.1110  -21.0270   19.6890 C   0  0  0  0  0  2  0  0  0  0  0  0
  -30.0530  -19.9980   19.1510 C   0  0  0  0  0  3  0  0  0  0  0  0
  -29.6540  -18.9390   20.3210 C   0  0  0  0  0  3  0  0  0  0  0  0
  -28.9250  -22.0120   20.1730 C   0  0  0  0  0  3  0  0  0  0  0  0
  -30.8220  -22.4270   21.7510 C   0  0  0  0  0  1  0  0  0  0  0  0
  -30.3960  -22.1870   20.3540 N   0  0  1  0  0  4  0  0  0  0  0  0
  -30.6640  -23.0140   19.8370 H   0  0  0  0  0  0  0  0  0  0  0  0
  -30.2870  -15.7680   20.1570 C   0  0  0  0  0  0  0  0  0  0  0  0
  -30.3860  -13.2180   19.3230 C   0  0  0  0  0  2  0  0  0  0  0  0
  -29.4680  -12.7810   18.1450 C   0  0  0  0  0  2  0  0  0  0  0  0
  -28.0630  -12.4120   18.6440 C   0  0  0  0  0  2  0  0  0  0  0  0
  -27.5700  -13.4080   19.7170 C   0  0  0  0  0  3  0  0  0  0  0  0
  -28.6300  -13.7480   20.7920 C   0  0  0  0  0  2  0  0  0  0  0  0
  -29.7660  -14.3960   20.0890 N   0  0  0  0  0  0  0  0  0  0  0  0
  -31.5220  -15.6970   19.9900 O   0  0  0  0  0  0  0  0  0  0  0  0
  -29.5290  -17.1430   20.2220 N   0  0  0  0  0  0  0  0  0  0  0  0
  -28.5480  -16.9050   20.2570 H   0  0  0  0  0  0  0  0  0  0  0  0
  -25.2330  -13.9070   20.5740 C   0  0  0  0  0  0  0  0  0  0  0  0
  -24.1910  -13.1120   20.9590 C   0  0  0  0  0  0  0  0  0  0  0  0
  -24.6690  -11.7680   20.8860 C   0  0  0  0  0  0  0  0  0  0  0  0
  -26.2760  -13.0480   20.2790 N   0  0  0  0  0  0  0  0  0  0  0  0
  -25.9530  -11.7520   20.5330 N   0  0  0  0  0  0  0  0  0  0  0  0
  -23.9550  -10.4970   21.0730 C   0  0  0  0  0  0  0  0  0  0  0  0
  -24.4000   -9.5260   21.9980 C   0  0  0  0  0  3  0  0  0  0  0  0
  -23.6810   -8.3240   22.1740 C   0  0  0  0  0  3  0  0  0  0  0  0
  -22.5020   -8.0840   21.4280 C   0  0  0  0  0  0  0  0  0  0  0  0
  -22.0780   -9.0430   20.4910 C   0  0  0  0  0  3  0  0  0  0  0  0
  -22.7970  -10.2360   20.3120 C   0  0  0  0  0  3  0  0  0  0  0  0
  -21.7540   -6.9350   21.5150 O   0  0  0  0  0  0  0  0  0  0  0  0
  -21.6880   -6.2050   22.6750 C   0  0  0  0  0  0  0  0  0  0  0  0
  -21.1890   -6.7560   23.8760 C   0  0  0  0  0  3  0  0  0  0  0  0
  -21.0740   -5.9510   25.0260 C   0  0  0  0  0  3  0  0  0  0  0  0
  -21.4480   -4.5940   24.9780 C   0  0  0  0  0  0  0  0  0  0  0  0
  -21.9380   -4.0420   23.7810 C   0  0  0  0  0  3  0  0  0  0  0  0
  -22.0560   -4.8450   22.6330 C   0  0  0  0  0  0  0  0  0  0  0  0
  -22.5090   -4.3020   21.4780 F   0  0  0  0  0  0  0  0  0  0  0  0
  -21.3290   -3.8180   26.0790 F   0  0  0  0  0  0  0  0  0  0  0  0
  -22.7990  -13.5750   21.2720 C   0  0  0  0  0  0  0  0  0  0  0  0
  -22.1020  -12.8650   22.1520 N   0  0  0  0  0  0  0  0  0  0  0  0
  -22.3400  -14.6010   20.7740 O   0  0  0  0  0  0  0  0  0  0  0  0
  -22.4890  -12.0340   22.5760 H   0  0  0  0  0  0  0  0  0  0  0  0
  -21.1690  -13.1550   22.4050 H   0  0  0  0  0  0  0  0  0  0  0  0
  -25.3750  -15.2820   20.4180 N   0  0  0  0  0  0  0  0  0  0  0  0
  -24.6030  -15.9240   20.5640 H   0  0  0  0  0  0  0  0  0  0  0  0
  -26.2010  -15.7350   20.0480 H   0  0  0  0  0  0  0  0  0  0  0  0
  -28.0050  -23.7650   20.2710 C   0  0  0  0  0  1  0  0  0  0  0  0
  -28.1810  -25.5410   20.2190 O   0  0  0  0  0  0  0  0  0  0  0  0
  -24.6780  -31.8850   23.1490 C   0  0  0  0  0  0  0  0  0  0  0  0
  -27.1970  -26.7590   20.1930 C   0  0  0  0  0  0  0  0  0  0  0  0
  -23.4860  -30.4790   21.5230 C   0  0  0  0  0  3  0  0  0  0  0  0
  -24.9280  -28.8110   20.1250 C   0  0  0  0  0  0  0  0  0  0  0  0
  -26.0660  -30.6090   21.3980 C   0  0  0  0  0  2  0  0  0  0  0  0
  -26.1280  -29.1660   20.7540 C   0  0  0  0  0  0  0  0  0  0  0  0
  -27.2450  -28.1720   20.7500 C   0  0  0  0  0  3  0  0  0  0  0  0
  -25.9580  -26.6190   19.5130 C   0  0  0  0  0  3  0  0  0  0  0  0
  -24.8850  -27.5630   19.4810 C   0  0  0  0  0  3  0  0  0  0  0  0
  -23.7240  -29.7680   20.1600 C   0  0  0  0  0  2  0  0  0  0  0  0
  -24.7670  -31.0250   22.0760 N   0  0  0  0  0  0  0  0  0  0  0  0
  -23.5860  -32.1920   23.6580 O   0  0  0  0  0  0  0  0  0  0  0  0
  -22.7660  -29.5120   22.5030 C   0  0  0  0  0  0  0  0  0  0  0  0
  -21.4310  -29.3670   22.3840 N   0  0  0  0  0  0  0  0  0  0  0  0
  -23.4200  -28.8900   23.3430 O   0  0  0  0  0  0  0  0  0  0  0  0
  -20.9520  -29.9180   21.6850 H   0  0  0  0  0  0  0  0  0  0  0  0
  -18.0370  -28.1870   22.9320 C   0  0  0  0  0  0  0  0  0  0  0  0
  -20.6020  -28.4390   23.1650 C   0  0  0  0  0  3  0  0  0  0  0  0
  -20.6850  -27.0040   22.5930 C   0  0  0  0  0  2  0  0  0  0  0  0
  -19.5710  -26.6900   21.5890 C   0  0  0  0  0  2  0  0  0  0  0  0
  -18.1980  -26.8400   22.2480 C   0  0  0  0  0  2  0  0  0  0  0  0
  -19.1640  -28.9450   23.3480 C   0  0  0  0  0  0  0  0  0  0  0  0
  -18.9550  -30.2040   23.9530 C   0  0  0  0  0  3  0  0  0  0  0  0
  -17.6530  -30.7050   24.1430 C   0  0  0  0  0  3  0  0  0  0  0  0
  -16.5410  -29.9450   23.7380 C   0  0  0  0  0  3  0  0  0  0  0  0
  -16.7350  -28.6880   23.1390 C   0  0  0  0  0  3  0  0  0  0  0  0
  -25.9420  -32.5400   23.7840 C   0  0  0  0  0  3  0  0  0  0  0  0
  -25.6160  -33.9370   24.1320 N   0  0  0  0  0  0  0  0  0  0  0  0
  -25.9310  -35.0100   23.3920 C   0  0  0  0  0  0  0  0  0  0  0  0
  -26.5840  -34.9280   22.3500 O   0  0  0  0  0  0  0  0  0  0  0  0
  -25.0320  -34.0720   24.9440 H   0  0  0  0  0  0  0  0  0  0  0  0
  -24.1900  -36.8110   23.1090 C   0  0  0  0  0  1  0  0  0  0  0  0
  -25.4500  -36.3930   23.8850 C   0  0  0  0  0  3  0  0  0  0  0  0
  -27.5930  -37.2850   24.6900 C   0  0  0  0  0  1  0  0  0  0  0  0
  -26.4760  -37.4540   23.7650 N   0  0  0  0  0  0  0  0  0  0  0  0
  -26.0660  -38.3700   23.9250 H   0  0  0  0  0  0  0  0  0  0  0  0
  -26.4480  -31.7760   25.0720 C   0  0  1  0  0  0  0  0  0  0  0  0
  -25.3590  -31.5920   26.1570 C   0  0  0  0  0  1  0  0  0  0  0  0
  -26.9870  -30.3750   24.7130 C   0  0  0  0  0  1  0  0  0  0  0  0
  -27.6280  -32.5480   25.7090 C   0  0  0  0  0  1  0  0  0  0  0  0
  3  8  1  0
  4  1  1  0
  4  3  1  0
  4  5  1  0
  5 18  1  0
  5  2  1  0
  6  1  1  0
  6  8  1  0
  6  2  1  0
  8  7  1  0
  8  9  1  6
 10 18  1  0
 11 16  1  0
 12 13  1  0
 12 11  1  0
 14 13  1  0
 14 23  1  0
 14 15  1  0
 16 10  1  0
 16 15  1  0
 17 10  2  0
 18 19  1  0
 20 21  2  0
 21 40  1  0
 22 21  1  0
 22 25  1  0
 23 24  1  0
 23 20  1  0
 24 22  2  0
 25 26  1  0
 26 27  2  0
 28 31  1  0
 28 27  1  0
 29 28  2  0
 30 29  1  0
 30 25  2  0
 31 32  1  0
 32 33  1  0
 33 34  2  0
 35 34  1  0
 35 39  1  0
 36 35  2  0
 37 32  2  0
 37 36  1  0
 38 37  1  0
 40 41  1  0
 41 44  1  0
 41 43  1  0
 42 40  2  0
 45 46  1  0
 45 20  1  0
 47 45  1  0
 49 48  1  0
 50 61  2  0
 51 49  1  0
 51 56  1  0
 52 60  1  0
 52 62  1  0
 53 59  1  0
 53 55  1  0
 54 60  1  0
 55 54  1  0
 56 55  2  0
 57 51  2  0
 58 57  1  0
 58 53  2  0
 59 52  1  0
 60 50  1  0
 62 64  2  0
 63 62  1  0
 65 63  1  0
 66 75  2  0
 66 71  1  0
 67 63  1  0
 67 71  1  0
 68 67  1  0
 69 70  1  0
 69 68  1  0
 70 66  1  0
 71 72  2  0
 72 73  1  0
 74 73  2  0
 75 74  1  0
 76 50  1  0
 76 77  1  0
 76 86  1  0
 77 80  1  0
 78 82  1  0
 78 77  1  0
 79 78  2  0
 82 81  1  0
 84 82  1  0
 84 85  1  0
 84 83  1  0
 86 89  1  1
 86 87  1  0
 88 86  1  0
M  ISO  4  10 100  18 100  48 101  49 101
M  END
>  <TORSDO>  (83) 
F 17

>  <SCORE>  (83) 
-16.687

>  <name>  (83) 
82

>  <ligand_id>  (83) 
82

>  <original_smiles>  (83) 
[H]c1c([H])c([H])c2c(c1[H])C([H])([H])C([H])([H])C([H])([H])C2([H])N([H])C(=O)C1([H])N(C(=O)C([H])(N([H])C(=O)C([H])(N([H])C([H])([H])[H])C([H])([H])[H])C(C([H])([H])[H])(C([H])([H])[H])C([H])([H])[H])C([H])([H])c2c([H])c(OC([H])([H])C34C([H])([H])C([H])(N([H])C(=O)N5C([H])([H])C([H])([H])C([H])([H])C([H])(n6nc(-c7c([H])c([H])c(Oc8c([H])c([H])c(F)c([H])c8F)c([H])c7[H])c(C(=O)N([H])[H])c6N([H])[H])C5([H])[H])C([H])(C3([H])[H])C([H])([H])[N+]4([H])C([H])([H])[H])c([H])c([H])c2C1([H])[H]

>  <smiles>  (83) 
[H]c1c([H])c([H])c2c(c1[H])C([H])([H])C([H])([H])C([H])([H])C2([H])N([H])C(=O)C1([H])N(C(=O)C([H])(N([H])C(=O)C([H])(N([H])C([H])([H])[H])C([H])([H])[H])C(C([H])([H])[H])(C([H])([H])[H])C([H])([H])[H])C([H])([H])c2c([H])c(OC([H])([H])C34C([H])([H])C([H])(N([H])C(=O)N5C([H])([H])C([H])([H])C([H])([H])C([H])(n6nc(-c7c([H])c([H])c(Oc8c([H])c([H])c(F)c([H])c8F)c([H])c7[H])c(C(=O)N([H])[H])c6N([H])[H])C5([H])[H])C([H])(C3([H])[H])C([H])([H])[N+]4([H])C([H])([H])[H])c([H])c([H])c2C1([H])[H]

$$$$
83:0:0
     RDKit          3D

 93102  0  0  1  0  0  0  0  0999 V2000
  -30.6690  -15.0790   20.2070 C   0  0  0  0  0  0  0  0  0  0  0  0
  -30.5070  -12.6960   19.3680 C   0  0  0  0  0  2  0  0  0  0  0  0
  -29.6250  -12.6140   18.1030 C   0  0  0  0  0  2  0  0  0  0  0  0
  -28.1420  -12.4680   18.4880 C   0  0  0  0  0  2  0  0  0  0  0  0
  -27.7130  -13.4610   19.6010 C   0  0  0  0  0  3  0  0  0  0  0  0
  -28.7200  -13.5090   20.7650 C   0  0  0  0  0  2  0  0  0  0  0  0
  -30.0170  -13.8490   20.1760 N   0  0  0  0  0  0  0  0  0  0  0  0
  -31.8980  -15.0520   20.0560 O   0  0  0  0  0  0  0  0  0  0  0  0
  -30.0850  -17.4630   21.0630 C   0  0  0  0  0  2  0  0  0  0  0  0
  -30.1270  -17.0730   18.7680 C   0  0  0  0  0  2  0  0  0  0  0  0
  -29.3240  -18.8990   20.8500 C   0  0  0  0  0  3  0  0  0  0  0  0
  -29.4100  -18.5050   18.4890 C   0  0  0  0  0  3  0  0  0  0  0  0
  -27.8160  -18.7750   21.1580 C   0  0  0  0  0  1  0  0  0  0  0  0
  -29.9720  -16.3270   20.0650 N   0  0  0  0  0  0  0  0  0  0  0  0
  -29.5710  -19.6230   19.5340 N   0  0  1  0  0  4  0  0  0  0  0  0
  -30.5570  -19.8370   19.5470 H   0  0  0  0  0  0  0  0  0  0  0  0
  -25.3230  -14.1300   20.2140 C   0  0  0  0  0  0  0  0  0  0  0  0
  -24.2220  -13.3970   20.5640 C   0  0  0  0  0  0  0  0  0  0  0  0
  -24.6530  -12.0350   20.6140 C   0  0  0  0  0  0  0  0  0  0  0  0
  -26.3500  -13.2170   20.0570 N   0  0  0  0  0  0  0  0  0  0  0  0
  -25.9560  -11.9550   20.3680 N   0  0  0  0  0  0  0  0  0  0  0  0
  -23.8860  -10.8000   20.8220 C   0  0  0  0  0  0  0  0  0  0  0  0
  -24.2630   -9.8510   21.7960 C   0  0  0  0  0  3  0  0  0  0  0  0
  -23.4960   -8.6810   21.9890 C   0  0  0  0  0  3  0  0  0  0  0  0
  -22.3370   -8.4540   21.2070 C   0  0  0  0  0  0  0  0  0  0  0  0
  -21.9790   -9.3920   20.2240 C   0  0  0  0  0  3  0  0  0  0  0  0
  -22.7470  -10.5520   20.0280 C   0  0  0  0  0  3  0  0  0  0  0  0
  -21.5460   -7.3350   21.3080 O   0  0  0  0  0  0  0  0  0  0  0  0
  -21.4690   -6.6120   22.4720 C   0  0  0  0  0  0  0  0  0  0  0  0
  -21.0660   -7.2010   23.6890 C   0  0  0  0  0  3  0  0  0  0  0  0
  -20.9300   -6.4080   24.8450 C   0  0  0  0  0  3  0  0  0  0  0  0
  -21.1880   -5.0250   24.7840 C   0  0  0  0  0  0  0  0  0  0  0  0
  -21.5840   -4.4340   23.5720 C   0  0  0  0  0  3  0  0  0  0  0  0
  -21.7210   -5.2260   22.4180 C   0  0  0  0  0  0  0  0  0  0  0  0
  -22.0810   -4.6480   21.2470 F   0  0  0  0  0  0  0  0  0  0  0  0
  -21.0520   -4.2590   25.8940 F   0  0  0  0  0  0  0  0  0  0  0  0
  -22.8270  -13.9200   20.7440 C   0  0  0  0  0  0  0  0  0  0  0  0
  -22.0470  -13.2880   21.6140 N   0  0  0  0  0  0  0  0  0  0  0  0
  -22.4390  -14.9260   20.1510 O   0  0  0  0  0  0  0  0  0  0  0  0
  -22.3750  -12.4720   22.1130 H   0  0  0  0  0  0  0  0  0  0  0  0
  -21.1100  -13.6220   21.7840 H   0  0  0  0  0  0  0  0  0  0  0  0
  -25.5350  -15.4870   19.9870 N   0  0  0  0  0  0  0  0  0  0  0  0
  -24.7850  -16.1670   20.0350 H   0  0  0  0  0  0  0  0  0  0  0  0
  -26.4170  -15.8850   19.6970 H   0  0  0  0  0  0  0  0  0  0  0  0
  -31.1420  -19.4090   16.7730 C   0  0  0  0  0  1  0  0  0  0  0  0
  -29.2320  -17.9620   15.9520 C   0  0  0  0  0  1  0  0  0  0  0  0
  -29.6850  -18.9780   17.0210 C   0  0  0  0  0  3  0  0  0  0  0  0
  -28.8720  -21.0250   19.1600 C   0  0  0  0  0  2  0  0  0  0  0  0
  -27.6180  -23.5920   19.4280 C   0  0  0  0  0  2  0  0  0  0  0  0
  -29.5350  -23.8100   20.0160 C   0  0  0  0  0  2  0  0  0  0  0  0
  -28.6450  -22.4780   19.9910 C   0  0  0  0  0  3  0  0  0  0  0  0
  -28.2920  -24.8090   20.1890 C   0  0  0  0  0  3  0  0  0  0  0  0
  -28.3660  -26.3190   19.8010 O   0  0  0  0  0  0  0  0  0  0  0  0
  -24.5180  -31.7490   23.0240 C   0  0  0  0  0  0  0  0  0  0  0  0
  -27.2610  -27.2340   19.8540 C   0  0  0  0  0  0  0  0  0  0  0  0
  -23.3720  -30.3690   21.3330 C   0  0  0  0  0  3  0  0  0  0  0  0
  -24.8770  -28.8880   19.8710 C   0  0  0  0  0  0  0  0  0  0  0  0
  -25.9160  -30.7300   21.1880 C   0  0  0  0  0  2  0  0  0  0  0  0
  -26.0410  -29.3620   20.4930 C   0  0  0  0  0  0  0  0  0  0  0  0
  -27.2380  -28.5560   20.4550 C   0  0  0  0  0  3  0  0  0  0  0  0
  -26.0660  -26.8480   19.2160 C   0  0  0  0  0  3  0  0  0  0  0  0
  -24.9030  -27.6460   19.2170 C   0  0  0  0  0  3  0  0  0  0  0  0
  -23.6230  -29.7460   19.9340 C   0  0  0  0  0  2  0  0  0  0  0  0
  -24.6220  -30.9710   21.9040 N   0  0  0  0  0  0  0  0  0  0  0  0
  -23.4210  -31.9750   23.5550 O   0  0  0  0  0  0  0  0  0  0  0  0
  -22.7250  -29.3080   22.2580 C   0  0  0  0  0  0  0  0  0  0  0  0
  -21.3950  -29.1360   22.1590 N   0  0  0  0  0  0  0  0  0  0  0  0
  -23.4230  -28.6410   23.0270 O   0  0  0  0  0  0  0  0  0  0  0  0
  -20.8880  -29.7290   21.5160 H   0  0  0  0  0  0  0  0  0  0  0  0
  -18.0260  -27.9340   22.7350 C   0  0  0  0  0  0  0  0  0  0  0  0
  -20.5990  -28.1530   22.8980 C   0  0  0  0  0  3  0  0  0  0  0  0
  -20.6540  -26.7640   22.2180 C   0  0  0  0  0  2  0  0  0  0  0  0
  -19.5010  -26.5230   21.2370 C   0  0  0  0  0  2  0  0  0  0  0  0
  -18.1520  -26.6380   21.9540 C   0  0  0  0  0  2  0  0  0  0  0  0
  -19.1730  -28.6530   23.1640 C   0  0  0  0  0  0  0  0  0  0  0  0
  -18.9990  -29.8730   23.8550 C   0  0  0  0  0  3  0  0  0  0  0  0
  -17.7090  -30.3720   24.1210 C   0  0  0  0  0  3  0  0  0  0  0  0
  -16.5770  -29.6490   23.7070 C   0  0  0  0  0  3  0  0  0  0  0  0
  -16.7360  -28.4310   23.0190 C   0  0  0  0  0  3  0  0  0  0  0  0
  -25.7700  -32.4070   23.6810 C   0  0  0  0  0  3  0  0  0  0  0  0
  -25.4080  -33.7820   24.0610 N   0  0  0  0  0  0  0  0  0  0  0  0
  -25.7050  -34.8760   23.3490 C   0  0  0  0  0  0  0  0  0  0  0  0
  -26.3810  -34.8390   22.3180 O   0  0  0  0  0  0  0  0  0  0  0  0
  -24.8120  -33.8850   24.8710 H   0  0  0  0  0  0  0  0  0  0  0  0
  -23.9170  -36.6250   23.0680 C   0  0  0  0  0  1  0  0  0  0  0  0
  -25.1690  -36.2260   23.8650 C   0  0  0  0  0  3  0  0  0  0  0  0
  -27.2670  -37.1540   24.7390 C   0  0  0  0  0  1  0  0  0  0  0  0
  -26.1620  -37.3200   23.7980 N   0  0  0  0  0  0  0  0  0  0  0  0
  -25.7210  -38.2160   23.9830 H   0  0  0  0  0  0  0  0  0  0  0  0
  -26.3030  -31.6120   24.9370 C   0  0  1  0  0  0  0  0  0  0  0  0
  -25.2120  -31.3050   25.9900 C   0  0  0  0  0  1  0  0  0  0  0  0
  -26.9350  -30.2670   24.5110 C   0  0  0  0  0  1  0  0  0  0  0  0
  -27.4260  -32.4200   25.6310 C   0  0  0  0  0  1  0  0  0  0  0  0
  2  7  1  0
  3  4  1  0
  3  2  1  0
  5  4  1  0
  5 20  1  0
  5  6  1  0
  7  1  1  0
  7  6  1  0
  8  1  2  0
 10 14  1  0
 11  9  1  0
 11 13  1  0
 12 47  1  0
 12 10  1  0
 12 15  1  0
 14  1  1  0
 14  9  1  0
 15 16  1  1
 15 11  1  0
 17 18  2  0
 18 19  1  0
 18 37  1  0
 19 22  1  0
 20 17  1  0
 20 21  1  0
 21 19  2  0
 22 23  1  0
 23 24  2  0
 25 28  1  0
 25 24  1  0
 26 25  2  0
 27 26  1  0
 27 22  2  0
 28 29  1  0
 29 30  1  0
 30 31  2  0
 32 31  1  0
 32 36  1  0
 33 32  2  0
 34 29  2  0
 34 33  1  0
 35 34  1  0
 37 38  1  0
 38 41  1  0
 38 40  1  0
 39 37  2  0
 42 43  1  0
 42 17  1  0
 44 42  1  0
 45 47  1  0
 46 47  1  0
 48 15  1  0
 49 51  1  0
 49 52  1  0
 50 52  1  0
 51 48  1  0
 51 50  1  0
 52 53  1  0
 53 55  1  0
 54 65  2  0
 55 60  1  0
 56 64  1  0
 56 66  1  0
 57 63  1  0
 57 59  1  0
 58 64  1  0
 59 58  1  0
 60 59  2  0
 61 62  1  0
 61 55  2  0
 62 57  2  0
 63 56  1  0
 64 54  1  0
 66 68  2  0
 67 66  1  0
 69 67  1  0
 70 79  2  0
 70 75  1  0
 71 67  1  0
 71 75  1  0
 72 71  1  0
 73 74  1  0
 73 72  1  0
 74 70  1  0
 75 76  2  0
 76 77  1  0
 78 77  2  0
 79 78  1  0
 80 54  1  0
 80 81  1  0
 80 90  1  0
 81 84  1  0
 82 86  1  0
 82 81  1  0
 83 82  2  0
 86 85  1  0
 88 86  1  0
 88 89  1  0
 88 87  1  0
 90 93  1  1
 90 91  1  0
 92 90  1  0
M  ISO  4   1 100  14 100  52 101  53 101
M  END
>  <TORSDO>  (84) 
F 18

>  <SCORE>  (84) 
-11.982

>  <name>  (84) 
83

>  <ligand_id>  (84) 
83

>  <original_smiles>  (84) 
[H]c1c([H])c([H])c2c(c1[H])C([H])([H])C([H])([H])C([H])([H])C2([H])N([H])C(=O)C1([H])N(C(=O)C([H])(N([H])C(=O)C([H])(N([H])C([H])([H])[H])C([H])([H])[H])C(C([H])([H])[H])(C([H])([H])[H])C([H])([H])[H])C([H])([H])c2c([H])c(OC3([H])C([H])([H])C([H])(C([H])([H])[N+]4([H])C([H])(C([H])([H])[H])C([H])([H])N(C(=O)N5C([H])([H])C([H])([H])C([H])([H])C([H])(n6nc(-c7c([H])c([H])c(Oc8c([H])c([H])c(F)c([H])c8F)c([H])c7[H])c(C(=O)N([H])[H])c6N([H])[H])C5([H])[H])C([H])([H])C4([H])C([H])(C([H])([H])[H])C([H])([H])[H])C3([H])[H])c([H])c([H])c2C1([H])[H]

>  <smiles>  (84) 
[H]c1c([H])c([H])c2c(c1[H])C([H])([H])C([H])([H])C([H])([H])C2([H])N([H])C(=O)C1([H])N(C(=O)C([H])(N([H])C(=O)C([H])(N([H])C([H])([H])[H])C([H])([H])[H])C(C([H])([H])[H])(C([H])([H])[H])C([H])([H])[H])C([H])([H])c2c([H])c(OC3([H])C([H])([H])C([H])(C([H])([H])[N+]4([H])C([H])(C([H])([H])[H])C([H])([H])N(C(=O)N5C([H])([H])C([H])([H])C([H])([H])C([H])(n6nc(-c7c([H])c([H])c(Oc8c([H])c([H])c(F)c([H])c8F)c([H])c7[H])c(C(=O)N([H])[H])c6N([H])[H])C5([H])[H])C([H])([H])C4([H])C([H])(C([H])([H])[H])C([H])([H])[H])C3([H])[H])c([H])c([H])c2C1([H])[H]

$$$$
84:0:0
     RDKit          3D

 91100  0  0  1  0  0  0  0  0999 V2000
  -30.6560  -20.1840   20.5940 C   0  0  0  0  0  3  0  0  0  0  0  0
  -29.9010  -19.1100   20.0300 C   0  0  0  0  0  0  0  0  0  0  0  0
  -28.7140  -19.6590   19.4400 C   0  0  0  0  0  0  0  0  0  0  0  0
  -29.2450  -21.9690   19.9220 C   0  0  0  0  0  0  0  0  0  0  0  0
  -30.3470  -21.5260   20.5470 N   0  0  0  0  0  0  0  0  0  0  0  0
  -28.4330  -21.0280   19.3830 N   0  0  0  0  0  0  0  0  0  0  0  0
  -26.5380  -19.2620   17.9620 C   0  0  0  0  0  2  0  0  0  0  0  0
  -26.2550  -18.7920   19.3740 C   0  0  0  0  0  2  0  0  0  0  0  0
  -27.6660  -18.7640   18.8380 C   0  0  0  0  0  3  0  0  0  0  0  0
  -30.5440  -17.5840   20.0880 C   0  0  0  0  0  2  0  0  0  0  0  0
  -30.6660  -14.9160   19.9440 C   0  0  0  0  0  0  0  0  0  0  0  0
  -30.4140  -12.6080   18.9550 C   0  0  0  0  0  2  0  0  0  0  0  0
  -29.4020  -12.6240   17.7890 C   0  0  0  0  0  2  0  0  0  0  0  0
  -27.9690  -12.4280   18.3170 C   0  0  0  0  0  2  0  0  0  0  0  0
  -27.6590  -13.3280   19.5440 C   0  0  0  0  0  3  0  0  0  0  0  0
  -28.7880  -13.2960   20.5950 C   0  0  0  0  0  2  0  0  0  0  0  0
  -30.0220  -13.6860   19.9060 N   0  0  0  0  0  0  0  0  0  0  0  0
  -31.8460  -14.9510   19.5830 O   0  0  0  0  0  0  0  0  0  0  0  0
  -29.9630  -16.1280   20.1710 N   0  0  0  0  0  0  0  0  0  0  0  0
  -28.9920  -16.0280   20.4260 H   0  0  0  0  0  0  0  0  0  0  0  0
  -25.3450  -13.9080   20.4660 C   0  0  0  0  0  0  0  0  0  0  0  0
  -24.3000  -13.1350   20.8890 C   0  0  0  0  0  0  0  0  0  0  0  0
  -24.7430  -11.7810   20.7830 C   0  0  0  0  0  0  0  0  0  0  0  0
  -26.3570  -13.0280   20.1260 N   0  0  0  0  0  0  0  0  0  0  0  0
  -26.0080  -11.7400   20.3810 N   0  0  0  0  0  0  0  0  0  0  0  0
  -24.0140  -10.5220   20.9810 C   0  0  0  0  0  0  0  0  0  0  0  0
  -24.4730   -9.5380   21.8830 C   0  0  0  0  0  3  0  0  0  0  0  0
  -23.7430   -8.3440   22.0720 C   0  0  0  0  0  3  0  0  0  0  0  0
  -22.5400   -8.1280   21.3580 C   0  0  0  0  0  0  0  0  0  0  0  0
  -22.1000   -9.1010   20.4440 C   0  0  0  0  0  3  0  0  0  0  0  0
  -22.8300  -10.2860   20.2530 C   0  0  0  0  0  3  0  0  0  0  0  0
  -21.7780   -6.9900   21.4580 O   0  0  0  0  0  0  0  0  0  0  0  0
  -21.7250   -6.2590   22.6180 C   0  0  0  0  0  0  0  0  0  0  0  0
  -21.2980   -6.8270   23.8380 C   0  0  0  0  0  3  0  0  0  0  0  0
  -21.1920   -6.0240   24.9900 C   0  0  0  0  0  3  0  0  0  0  0  0
  -21.5030   -4.6520   24.9240 C   0  0  0  0  0  0  0  0  0  0  0  0
  -21.9240   -4.0830   23.7090 C   0  0  0  0  0  3  0  0  0  0  0  0
  -22.0310   -4.8850   22.5590 C   0  0  0  0  0  0  0  0  0  0  0  0
  -22.4160   -4.3270   21.3860 F   0  0  0  0  0  0  0  0  0  0  0  0
  -21.3940   -3.8770   26.0280 F   0  0  0  0  0  0  0  0  0  0  0  0
  -22.9320  -13.6210   21.2700 C   0  0  0  0  0  0  0  0  0  0  0  0
  -22.2610  -12.9150   22.1730 N   0  0  0  0  0  0  0  0  0  0  0  0
  -22.4700  -14.6610   20.8020 O   0  0  0  0  0  0  0  0  0  0  0  0
  -22.6510  -12.0740   22.5710 H   0  0  0  0  0  0  0  0  0  0  0  0
  -21.3460  -13.2200   22.4700 H   0  0  0  0  0  0  0  0  0  0  0  0
  -25.5090  -15.2800   20.3110 N   0  0  0  0  0  0  0  0  0  0  0  0
  -24.7420  -15.9240   20.4680 H   0  0  0  0  0  0  0  0  0  0  0  0
  -26.3050  -15.7080   19.8630 H   0  0  0  0  0  0  0  0  0  0  0  0
  -29.1320  -23.5700   19.5580 C   0  0  0  0  0  3  0  0  0  0  0  0
  -28.3020  -24.7820   20.3360 C   0  0  0  0  0  3  0  0  0  0  0  0
  -28.4410  -26.2940   20.0400 O   0  0  0  0  0  0  0  0  0  0  0  0
  -24.5810  -31.7360   23.1200 C   0  0  0  0  0  0  0  0  0  0  0  0
  -27.3300  -27.1930   20.0380 C   0  0  0  0  0  0  0  0  0  0  0  0
  -23.4420  -30.3500   21.4260 C   0  0  0  0  0  3  0  0  0  0  0  0
  -24.9510  -28.8420   20.0000 C   0  0  0  0  0  0  0  0  0  0  0  0
  -25.9870  -30.6950   21.3070 C   0  0  0  0  0  2  0  0  0  0  0  0
  -26.1070  -29.3210   20.6320 C   0  0  0  0  0  0  0  0  0  0  0  0
  -27.3010  -28.5150   20.6290 C   0  0  0  0  0  3  0  0  0  0  0  0
  -26.1490  -26.7950   19.3810 C   0  0  0  0  0  3  0  0  0  0  0  0
  -24.9820  -27.5920   19.3610 C   0  0  0  0  0  3  0  0  0  0  0  0
  -23.7010  -29.7050   20.0390 C   0  0  0  0  0  2  0  0  0  0  0  0
  -24.6880  -30.9470   22.0070 N   0  0  0  0  0  0  0  0  0  0  0  0
  -23.4800  -31.9810   23.6360 O   0  0  0  0  0  0  0  0  0  0  0  0
  -22.7730  -29.3070   22.3530 C   0  0  0  0  0  0  0  0  0  0  0  0
  -21.4420  -29.1480   22.2360 N   0  0  0  0  0  0  0  0  0  0  0  0
  -23.4510  -28.6420   23.1400 O   0  0  0  0  0  0  0  0  0  0  0  0
  -20.9510  -29.7360   21.5770 H   0  0  0  0  0  0  0  0  0  0  0  0
  -18.0520  -28.0020   22.7830 C   0  0  0  0  0  0  0  0  0  0  0  0
  -20.6240  -28.1850   22.9760 C   0  0  0  0  0  3  0  0  0  0  0  0
  -20.6700  -26.7900   22.3100 C   0  0  0  0  0  2  0  0  0  0  0  0
  -19.5260  -26.5580   21.3180 C   0  0  0  0  0  2  0  0  0  0  0  0
  -18.1710  -26.6940   22.0170 C   0  0  0  0  0  2  0  0  0  0  0  0
  -19.2030  -28.7090   23.2190 C   0  0  0  0  0  0  0  0  0  0  0  0
  -19.0370  -29.9360   23.8980 C   0  0  0  0  0  3  0  0  0  0  0  0
  -17.7510  -30.4550   24.1430 C   0  0  0  0  0  3  0  0  0  0  0  0
  -16.6150  -29.7440   23.7210 C   0  0  0  0  0  3  0  0  0  0  0  0
  -16.7660  -28.5180   23.0470 C   0  0  0  0  0  3  0  0  0  0  0  0
  -25.8350  -32.3840   23.7850 C   0  0  0  0  0  3  0  0  0  0  0  0
  -26.3250  -31.6100   25.0700 C   0  0  1  0  0  0  0  0  0  0  0  0
  -25.2060  -31.3560   26.1070 C   0  0  0  0  0  1  0  0  0  0  0  0
  -26.9300  -30.2390   24.6880 C   0  0  0  0  0  1  0  0  0  0  0  0
  -27.4500  -32.4100   25.7650 C   0  0  0  0  0  1  0  0  0  0  0  0
  -25.4930  -33.7750   24.1220 N   0  0  0  0  0  0  0  0  0  0  0  0
  -25.8260  -34.8430   23.3870 C   0  0  0  0  0  0  0  0  0  0  0  0
  -26.5190  -34.7640   22.3690 O   0  0  0  0  0  0  0  0  0  0  0  0
  -24.8780  -33.9100   24.9110 H   0  0  0  0  0  0  0  0  0  0  0  0
  -24.0750  -36.6150   23.0260 C   0  0  0  0  0  1  0  0  0  0  0  0
  -25.3100  -36.2190   23.8520 C   0  0  0  0  0  3  0  0  0  0  0  0
  -27.4130  -37.1320   24.7310 C   0  0  0  0  0  1  0  0  0  0  0  0
  -26.3260  -37.2910   23.7680 N   0  0  0  0  0  0  0  0  0  0  0  0
  -25.9010  -38.2020   23.9160 H   0  0  0  0  0  0  0  0  0  0  0  0
  2 10  1  0
  2  1  2  0
  3  2  1  0
  4  5  2  0
  5  1  1  0
  6  3  2  0
  6  4  1  0
  7  9  1  0
  7  8  1  0
  9  8  1  0
  9  3  1  0
 10 19  1  0
 11 19  1  0
 12 17  1  0
 13 14  1  0
 13 12  1  0
 15 14  1  0
 15 24  1  0
 15 16  1  0
 17 11  1  0
 17 16  1  0
 18 11  2  0
 19 20  1  0
 21 22  2  0
 22 41  1  0
 23 22  1  0
 23 26  1  0
 24 25  1  0
 24 21  1  0
 25 23  2  0
 26 27  1  0
 27 28  2  0
 29 32  1  0
 29 28  1  0
 30 29  2  0
 31 30  1  0
 31 26  2  0
 32 33  1  0
 33 34  1  0
 34 35  2  0
 36 35  1  0
 36 40  1  0
 37 36  2  0
 38 33  2  0
 38 37  1  0
 39 38  1  0
 41 42  1  0
 42 45  1  0
 42 44  1  0
 43 41  2  0
 46 21  1  0
 46 47  1  0
 48 46  1  0
 49  4  1  0
 49 50  2  0
 51 50  1  0
 52 63  2  0
 53 51  1  0
 53 58  1  0
 54 62  1  0
 54 64  1  0
 55 61  1  0
 55 57  1  0
 56 62  1  0
 57 56  1  0
 58 57  2  0
 59 53  2  0
 60 59  1  0
 60 55  2  0
 61 54  1  0
 62 52  1  0
 64 66  2  0
 65 64  1  0
 67 65  1  0
 68 77  2  0
 68 73  1  0
 69 65  1  0
 69 73  1  0
 70 69  1  0
 71 72  1  0
 71 70  1  0
 72 68  1  0
 73 74  2  0
 74 75  1  0
 76 75  2  0
 77 76  1  0
 78 52  1  0
 78 83  1  0
 78 79  1  0
 79 82  1  1
 79 80  1  0
 81 79  1  0
 83 86  1  0
 84 88  1  0
 84 83  1  0
 85 84  2  0
 88 87  1  0
 90 88  1  0
 90 91  1  0
 90 89  1  0
M  ISO  4  11 100  19 100  50 101  51 101
M  END
>  <TORSDO>  (85) 
F 20

>  <SCORE>  (85) 
-13.058

>  <name>  (85) 
84

>  <ligand_id>  (85) 
84

>  <original_smiles>  (85) 
[H]c1nc(C([H])([H])C([H])([H])Oc2c([H])c([H])c3c(c2[H])C([H])([H])N(C(=O)C([H])(N([H])C(=O)C([H])(N([H])C([H])([H])[H])C([H])([H])[H])C(C([H])([H])[H])(C([H])([H])[H])C([H])([H])[H])C([H])(C(=O)N([H])C2([H])c4c([H])c([H])c([H])c([H])c4C([H])([H])C([H])([H])C2([H])[H])C3([H])[H])nc(C2([H])C([H])([H])C2([H])[H])c1C([H])([H])N([H])C(=O)N1C([H])([H])C([H])([H])C([H])([H])C([H])(n2nc(-c3c([H])c([H])c(Oc4c([H])c([H])c(F)c([H])c4F)c([H])c3[H])c(C(=O)N([H])[H])c2N([H])[H])C1([H])[H]

>  <smiles>  (85) 
[H]c1nc(C([H])([H])C([H])([H])Oc2c([H])c([H])c3c(c2[H])C([H])([H])N(C(=O)C([H])(N([H])C(=O)C([H])(N([H])C([H])([H])[H])C([H])([H])[H])C(C([H])([H])[H])(C([H])([H])[H])C([H])([H])[H])C([H])(C(=O)N([H])C2([H])c4c([H])c([H])c([H])c([H])c4C([H])([H])C([H])([H])C2([H])[H])C3([H])[H])nc(C2([H])C([H])([H])C2([H])[H])c1C([H])([H])N([H])C(=O)N1C([H])([H])C([H])([H])C([H])([H])C([H])(n2nc(-c3c([H])c([H])c(Oc4c([H])c([H])c(F)c([H])c4F)c([H])c3[H])c(C(=O)N([H])[H])c2N([H])[H])C1([H])[H]

$$$$
85:0:0
     RDKit          3D

 91100  0  0  1  0  0  0  0  0999 V2000
  -29.4840  -22.2530   21.2500 C   0  0  0  0  0  3  0  0  0  0  0  0
  -29.9560  -20.8430   21.3030 C   0  0  0  0  0  0  0  0  0  0  0  0
  -28.4720  -22.8020   20.3650 C   0  0  0  0  0  0  0  0  0  0  0  0
  -29.4440  -19.7510   20.4780 C   0  0  0  0  0  0  0  0  0  0  0  0
  -28.0280  -21.6370   19.5920 C   0  0  0  0  0  0  0  0  0  0  0  0
  -26.8990  -21.8270   18.5970 C   0  0  0  0  0  1  0  0  0  0  0  0
  -28.4790  -20.2870   19.6310 N   0  0  0  0  0  0  0  0  0  0  0  0
  -31.0480  -19.4240   23.2390 C   0  0  0  0  0  2  0  0  0  0  0  0
  -30.9740  -20.8510   23.7230 C   0  0  0  0  0  2  0  0  0  0  0  0
  -31.0920  -20.5600   22.2430 C   0  0  0  0  0  3  0  0  0  0  0  0
  -27.6680  -24.3520   20.3900 C   0  0  0  0  0  2  0  0  0  0  0  0
  -28.0680  -25.9290   20.4770 O   0  0  0  0  0  0  0  0  0  0  0  0
  -24.5210  -31.9730   23.2360 C   0  0  0  0  0  0  0  0  0  0  0  0
  -27.0750  -27.0310   20.3650 C   0  0  0  0  0  0  0  0  0  0  0  0
  -23.3260  -30.5290   21.6410 C   0  0  0  0  0  3  0  0  0  0  0  0
  -24.7750  -28.8920   20.2640 C   0  0  0  0  0  0  0  0  0  0  0  0
  -25.8910  -30.7420   21.4870 C   0  0  0  0  0  2  0  0  0  0  0  0
  -25.9610  -29.3170   20.8740 C   0  0  0  0  0  0  0  0  0  0  0  0
  -27.1070  -28.4050   20.9040 C   0  0  0  0  0  3  0  0  0  0  0  0
  -25.8600  -26.7560   19.6960 C   0  0  0  0  0  3  0  0  0  0  0  0
  -24.7460  -27.6300   19.6560 C   0  0  0  0  0  3  0  0  0  0  0  0
  -23.5540  -29.8090   20.2840 C   0  0  0  0  0  2  0  0  0  0  0  0
  -24.6000  -31.1100   22.1740 N   0  0  0  0  0  0  0  0  0  0  0  0
  -23.4330  -32.2790   23.7480 O   0  0  0  0  0  0  0  0  0  0  0  0
  -22.6340  -29.5600   22.6340 C   0  0  0  0  0  0  0  0  0  0  0  0
  -21.3180  -29.3320   22.4660 N   0  0  0  0  0  0  0  0  0  0  0  0
  -23.2880  -29.0140   23.5260 O   0  0  0  0  0  0  0  0  0  0  0  0
  -20.8420  -29.8280   21.7250 H   0  0  0  0  0  0  0  0  0  0  0  0
  -17.9880  -27.9450   22.8510 C   0  0  0  0  0  0  0  0  0  0  0  0
  -20.5010  -28.4080   23.2600 C   0  0  0  0  0  3  0  0  0  0  0  0
  -20.7330  -26.9430   22.8220 C   0  0  0  0  0  2  0  0  0  0  0  0
  -19.7300  -26.4620   21.7680 C   0  0  0  0  0  2  0  0  0  0  0  0
  -18.2980  -26.5610   22.3050 C   0  0  0  0  0  2  0  0  0  0  0  0
  -19.0230  -28.8180   23.2830 C   0  0  0  0  0  0  0  0  0  0  0  0
  -18.6790  -30.1040   23.7540 C   0  0  0  0  0  3  0  0  0  0  0  0
  -17.3350  -30.5210   23.7950 C   0  0  0  0  0  3  0  0  0  0  0  0
  -16.3150  -29.6490   23.3760 C   0  0  0  0  0  3  0  0  0  0  0  0
  -16.6420  -28.3630   22.9100 C   0  0  0  0  0  3  0  0  0  0  0  0
  -25.7940  -32.6330   23.8480 C   0  0  0  0  0  3  0  0  0  0  0  0
  -26.3150  -31.8900   25.1400 C   0  0  1  0  0  0  0  0  0  0  0  0
  -25.2190  -31.6510   26.2070 C   0  0  0  0  0  1  0  0  0  0  0  0
  -26.9250  -30.5170   24.7800 C   0  0  0  0  0  1  0  0  0  0  0  0
  -27.4470  -32.7140   25.7970 C   0  0  0  0  0  1  0  0  0  0  0  0
  -25.4680  -34.0340   24.1650 N   0  0  0  0  0  0  0  0  0  0  0  0
  -25.7950  -35.0900   23.4060 C   0  0  0  0  0  0  0  0  0  0  0  0
  -26.4650  -34.9850   22.3760 O   0  0  0  0  0  0  0  0  0  0  0  0
  -24.8700  -34.1880   24.9650 H   0  0  0  0  0  0  0  0  0  0  0  0
  -24.0570  -36.8780   23.0530 C   0  0  0  0  0  1  0  0  0  0  0  0
  -25.3030  -36.4790   23.8610 C   0  0  0  0  0  3  0  0  0  0  0  0
  -27.4330  -37.3800   24.6860 C   0  0  0  0  0  1  0  0  0  0  0  0
  -26.3300  -37.5380   23.7440 N   0  0  0  0  0  0  0  0  0  0  0  0
  -25.9170  -38.4550   23.8890 H   0  0  0  0  0  0  0  0  0  0  0  0
  -30.1600  -18.1830   20.2220 C   0  0  0  0  0  2  0  0  0  0  0  0
  -30.4790  -15.3230   20.2490 C   0  0  0  0  0  0  0  0  0  0  0  0
  -30.4260  -12.9000   19.3510 C   0  0  0  0  0  2  0  0  0  0  0  0
  -29.4970  -12.7300   18.1230 C   0  0  0  0  0  2  0  0  0  0  0  0
  -28.0500  -12.4590   18.5700 C   0  0  0  0  0  2  0  0  0  0  0  0
  -27.6110  -13.4010   19.7190 C   0  0  0  0  0  3  0  0  0  0  0  0
  -28.6700  -13.5320   20.8360 C   0  0  0  0  0  2  0  0  0  0  0  0
  -29.8980  -14.0290   20.1970 N   0  0  0  0  0  0  0  0  0  0  0  0
  -31.6910  -15.3240   20.0010 O   0  0  0  0  0  0  0  0  0  0  0  0
  -29.7430  -16.5930   20.3690 N   0  0  0  0  0  0  0  0  0  0  0  0
  -28.7550  -16.4660   20.5270 H   0  0  0  0  0  0  0  0  0  0  0  0
  -25.2650  -13.9410   20.5580 C   0  0  0  0  0  0  0  0  0  0  0  0
  -24.2000  -13.1560   20.9020 C   0  0  0  0  0  0  0  0  0  0  0  0
  -24.6490  -11.8040   20.7780 C   0  0  0  0  0  0  0  0  0  0  0  0
  -26.2900  -13.0700   20.2370 N   0  0  0  0  0  0  0  0  0  0  0  0
  -25.9330  -11.7740   20.4370 N   0  0  0  0  0  0  0  0  0  0  0  0
  -23.9090  -10.5420   20.9060 C   0  0  0  0  0  0  0  0  0  0  0  0
  -24.3100   -9.5370   21.8140 C   0  0  0  0  0  3  0  0  0  0  0  0
  -23.5670   -8.3410   21.9320 C   0  0  0  0  0  3  0  0  0  0  0  0
  -22.4080   -8.1440   21.1450 C   0  0  0  0  0  0  0  0  0  0  0  0
  -22.0260   -9.1380   20.2270 C   0  0  0  0  0  3  0  0  0  0  0  0
  -22.7690  -10.3240   20.1060 C   0  0  0  0  0  3  0  0  0  0  0  0
  -21.6390   -7.0050   21.1750 O   0  0  0  0  0  0  0  0  0  0  0  0
  -21.5030   -6.2590   22.3190 C   0  0  0  0  0  0  0  0  0  0  0  0
  -20.9840   -6.8120   23.5100 C   0  0  0  0  0  3  0  0  0  0  0  0
  -20.7950   -5.9930   24.6410 C   0  0  0  0  0  3  0  0  0  0  0  0
  -21.1140   -4.6220   24.5810 C   0  0  0  0  0  0  0  0  0  0  0  0
  -21.6240   -4.0700   23.3930 C   0  0  0  0  0  3  0  0  0  0  0  0
  -21.8150   -4.8860   22.2650 C   0  0  0  0  0  0  0  0  0  0  0  0
  -22.2870   -4.3440   21.1170 F   0  0  0  0  0  0  0  0  0  0  0  0
  -20.9260   -3.8330   25.6650 F   0  0  0  0  0  0  0  0  0  0  0  0
  -22.8160  -13.6320   21.2260 C   0  0  0  0  0  0  0  0  0  0  0  0
  -22.0980  -12.9010   22.0690 N   0  0  0  0  0  0  0  0  0  0  0  0
  -22.3810  -14.6880   20.7660 O   0  0  0  0  0  0  0  0  0  0  0  0
  -22.4640  -12.0470   22.4620 H   0  0  0  0  0  0  0  0  0  0  0  0
  -21.1680  -13.1990   22.3270 H   0  0  0  0  0  0  0  0  0  0  0  0
  -25.4390  -15.3200   20.4620 N   0  0  0  0  0  0  0  0  0  0  0  0
  -24.6770  -15.9670   20.6340 H   0  0  0  0  0  0  0  0  0  0  0  0
  -26.2700  -15.7720   20.1080 H   0  0  0  0  0  0  0  0  0  0  0  0
  1  2  1  0
  2 10  1  0
  3 11  1  0
  3  1  2  0
  4  2  2  0
  5  7  2  0
  5  3  1  0
  6  5  1  0
  7  4  1  0
  8  9  1  0
 10  8  1  0
 10  9  1  0
 11 12  1  0
 13 24  2  0
 14 12  1  0
 14 19  1  0
 15 23  1  0
 15 25  1  0
 16 22  1  0
 16 18  1  0
 17 23  1  0
 18 19  2  0
 18 17  1  0
 20 14  2  0
 21 20  1  0
 21 16  2  0
 22 15  1  0
 23 13  1  0
 25 27  2  0
 26 25  1  0
 28 26  1  0
 29 38  2  0
 29 34  1  0
 30 26  1  0
 30 34  1  0
 31 30  1  0
 32 33  1  0
 32 31  1  0
 33 29  1  0
 34 35  2  0
 35 36  1  0
 37 36  2  0
 38 37  1  0
 39 13  1  0
 39 44  1  0
 39 40  1  0
 40 43  1  1
 40 41  1  0
 42 40  1  0
 44 47  1  0
 45 49  1  0
 45 44  1  0
 46 45  2  0
 49 48  1  0
 51 49  1  0
 51 52  1  0
 51 50  1  0
 53 62  1  0
 53  4  1  0
 54 62  1  0
 55 60  1  0
 56 57  1  0
 56 55  1  0
 58 57  1  0
 58 67  1  0
 58 59  1  0
 60 54  1  0
 60 59  1  0
 61 54  2  0
 62 63  1  0
 64 65  2  0
 65 84  1  0
 66 65  1  0
 66 69  1  0
 67 68  1  0
 67 64  1  0
 68 66  2  0
 69 70  1  0
 70 71  2  0
 72 75  1  0
 72 71  1  0
 73 72  2  0
 74 73  1  0
 74 69  2  0
 75 76  1  0
 76 77  1  0
 77 78  2  0
 79 78  1  0
 79 83  1  0
 80 79  2  0
 81 76  2  0
 81 80  1  0
 82 81  1  0
 84 85  1  0
 85 88  1  0
 85 87  1  0
 86 84  2  0
 89 64  1  0
 89 90  1  0
 91 89  1  0
M  ISO  4  11 101  12 101  54 100  62 100
M  END
>  <TORSDO>  (86) 
F 19

>  <SCORE>  (86) 
-15.510

>  <name>  (86) 
85

>  <ligand_id>  (86) 
85

>  <original_smiles>  (86) 
[H]c1c([H])c([H])c2c(c1[H])C([H])([H])C([H])([H])C([H])([H])C2([H])N([H])C(=O)C1([H])N(C(=O)C([H])(N([H])C(=O)C([H])(N([H])C([H])([H])[H])C([H])([H])[H])C(C([H])([H])[H])(C([H])([H])[H])C([H])([H])[H])C([H])([H])c2c([H])c(OC([H])([H])c3c(C([H])([H])[H])nc(C([H])([H])N([H])C(=O)N4C([H])([H])C([H])([H])C([H])([H])C([H])(n5nc(-c6c([H])c([H])c(Oc7c([H])c([H])c(F)c([H])c7F)c([H])c6[H])c(C(=O)N([H])[H])c5N([H])[H])C4([H])[H])c(C4([H])C([H])([H])C4([H])[H])c3[H])c([H])c([H])c2C1([H])[H]

>  <smiles>  (86) 
[H]c1c([H])c([H])c2c(c1[H])C([H])([H])C([H])([H])C([H])([H])C2([H])N([H])C(=O)C1([H])N(C(=O)C([H])(N([H])C(=O)C([H])(N([H])C([H])([H])[H])C([H])([H])[H])C(C([H])([H])[H])(C([H])([H])[H])C([H])([H])[H])C([H])([H])c2c([H])c(OC([H])([H])c3c(C([H])([H])[H])nc(C([H])([H])N([H])C(=O)N4C([H])([H])C([H])([H])C([H])([H])C([H])(n5nc(-c6c([H])c([H])c(Oc7c([H])c([H])c(F)c([H])c7F)c([H])c6[H])c(C(=O)N([H])[H])c5N([H])[H])C4([H])[H])c(C4([H])C([H])([H])C4([H])[H])c3[H])c([H])c([H])c2C1([H])[H]

$$$$
86:0:0
     RDKit          3D

 91100  0  0  1  0  0  0  0  0999 V2000
  -28.7030  -22.1300   20.5440 C   0  0  0  0  0  3  0  0  0  0  0  0
  -28.4540  -23.5030   20.0680 C   0  0  0  0  0  0  0  0  0  0  0  0
  -28.8620  -21.0160   19.6140 C   0  0  0  0  0  0  0  0  0  0  0  0
  -28.4950  -22.5930   17.9320 C   0  0  0  0  0  0  0  0  0  0  0  0
  -28.2220  -22.8140   16.4480 C   0  0  0  0  0  1  0  0  0  0  0  0
  -28.3690  -23.6620   18.7260 N   0  0  0  0  0  0  0  0  0  0  0  0
  -28.7320  -21.3330   18.3120 N   0  0  0  0  0  0  0  0  0  0  0  0
  -28.8380  -19.5600   19.8000 N   0  0  0  0  0  0  0  0  0  0  0  0
  -28.4410  -19.1930   18.9420 H   0  0  0  0  0  0  0  0  0  0  0  0
  -30.8180  -15.0340   20.3270 C   0  0  0  0  0  0  0  0  0  0  0  0
  -30.6340  -12.6940   19.4060 C   0  0  0  0  0  2  0  0  0  0  0  0
  -29.7230  -12.6830   18.1570 C   0  0  0  0  0  2  0  0  0  0  0  0
  -28.2520  -12.4900   18.5800 C   0  0  0  0  0  2  0  0  0  0  0  0
  -27.8450  -13.4180   19.7510 C   0  0  0  0  0  3  0  0  0  0  0  0
  -28.8850  -13.4460   20.8880 C   0  0  0  0  0  2  0  0  0  0  0  0
  -30.1660  -13.8120   20.2710 N   0  0  0  0  0  0  0  0  0  0  0  0
  -32.0370  -15.0230   20.1210 O   0  0  0  0  0  0  0  0  0  0  0  0
  -29.1090  -17.0910   20.8390 C   0  0  0  0  0  2  0  0  0  0  0  0
  -30.5520  -17.5090   19.3840 C   0  0  0  0  0  2  0  0  0  0  0  0
  -29.7670  -18.4610   20.3620 C   0  0  0  0  0  3  0  0  0  0  0  0
  -30.1270  -16.2610   20.1150 N   0  0  0  0  0  0  0  0  0  0  0  0
  -25.4620  -14.0270   20.4590 C   0  0  0  0  0  0  0  0  0  0  0  0
  -24.3850  -13.2620   20.8170 C   0  0  0  0  0  0  0  0  0  0  0  0
  -24.8380  -11.9060   20.7970 C   0  0  0  0  0  0  0  0  0  0  0  0
  -26.5000  -13.1380   20.2370 N   0  0  0  0  0  0  0  0  0  0  0  0
  -26.1320  -11.8590   20.5070 N   0  0  0  0  0  0  0  0  0  0  0  0
  -24.0980  -10.6510   20.9780 C   0  0  0  0  0  0  0  0  0  0  0  0
  -24.4820   -9.6990   21.9470 C   0  0  0  0  0  3  0  0  0  0  0  0
  -23.7360   -8.5100   22.1190 C   0  0  0  0  0  3  0  0  0  0  0  0
  -22.5960   -8.2660   21.3170 C   0  0  0  0  0  0  0  0  0  0  0  0
  -22.2300   -9.2080   20.3370 C   0  0  0  0  0  3  0  0  0  0  0  0
  -22.9760  -10.3860   20.1660 C   0  0  0  0  0  3  0  0  0  0  0  0
  -21.8360   -7.1220   21.3890 O   0  0  0  0  0  0  0  0  0  0  0  0
  -21.7160   -6.4120   22.5570 C   0  0  0  0  0  0  0  0  0  0  0  0
  -21.1810   -6.9920   23.7270 C   0  0  0  0  0  3  0  0  0  0  0  0
  -21.0090   -6.2090   24.8850 C   0  0  0  0  0  3  0  0  0  0  0  0
  -21.3580   -4.8450   24.8750 C   0  0  0  0  0  0  0  0  0  0  0  0
  -21.8870   -4.2640   23.7070 C   0  0  0  0  0  3  0  0  0  0  0  0
  -22.0610   -5.0450   22.5510 C   0  0  0  0  0  0  0  0  0  0  0  0
  -22.5490   -4.4750   21.4240 F   0  0  0  0  0  0  0  0  0  0  0  0
  -21.1870   -4.0900   25.9850 F   0  0  0  0  0  0  0  0  0  0  0  0
  -22.9900  -13.7530   21.0630 C   0  0  0  0  0  0  0  0  0  0  0  0
  -22.2420  -13.0720   21.9220 N   0  0  0  0  0  0  0  0  0  0  0  0
  -22.5720  -14.7780   20.5290 O   0  0  0  0  0  0  0  0  0  0  0  0
  -22.5990  -12.2410   22.3670 H   0  0  0  0  0  0  0  0  0  0  0  0
  -21.3000  -13.3760   22.1300 H   0  0  0  0  0  0  0  0  0  0  0  0
  -25.6420  -15.3930   20.2660 N   0  0  0  0  0  0  0  0  0  0  0  0
  -24.8680  -16.0480   20.3100 H   0  0  0  0  0  0  0  0  0  0  0  0
  -26.4840  -15.7920   19.8760 H   0  0  0  0  0  0  0  0  0  0  0  0
  -28.0020  -24.8070   20.9470 C   0  0  0  0  0  2  0  0  0  0  0  0
  -28.3450  -26.2850   20.6500 O   0  0  0  0  0  0  0  0  0  0  0  0
  -24.5390  -31.9770   23.3740 C   0  0  0  0  0  0  0  0  0  0  0  0
  -27.2990  -27.2550   20.5780 C   0  0  0  0  0  0  0  0  0  0  0  0
  -23.4380  -30.5280   21.7090 C   0  0  0  0  0  3  0  0  0  0  0  0
  -24.9670  -28.9450   20.4000 C   0  0  0  0  0  0  0  0  0  0  0  0
  -25.9900  -30.8330   21.6640 C   0  0  0  0  0  2  0  0  0  0  0  0
  -26.1110  -29.4280   21.0500 C   0  0  0  0  0  0  0  0  0  0  0  0
  -27.2890  -28.5990   21.1180 C   0  0  0  0  0  3  0  0  0  0  0  0
  -26.1300  -26.8610   19.9010 C   0  0  0  0  0  3  0  0  0  0  0  0
  -24.9860  -27.6730   19.8150 C   0  0  0  0  0  3  0  0  0  0  0  0
  -23.7320  -29.8230   20.3580 C   0  0  0  0  0  2  0  0  0  0  0  0
  -24.6730  -31.1350   22.3050 N   0  0  0  0  0  0  0  0  0  0  0  0
  -23.4240  -32.2610   23.8370 O   0  0  0  0  0  0  0  0  0  0  0  0
  -22.7260  -29.5340   22.6610 C   0  0  0  0  0  0  0  0  0  0  0  0
  -21.4010  -29.3670   22.4930 N   0  0  0  0  0  0  0  0  0  0  0  0
  -23.3670  -28.9160   23.5160 O   0  0  0  0  0  0  0  0  0  0  0  0
  -20.9440  -29.9190   21.7810 H   0  0  0  0  0  0  0  0  0  0  0  0
  -17.9900  -28.2380   22.9440 C   0  0  0  0  0  0  0  0  0  0  0  0
  -20.5510  -28.4410   23.2440 C   0  0  0  0  0  3  0  0  0  0  0  0
  -20.6300  -27.0120   22.6580 C   0  0  0  0  0  2  0  0  0  0  0  0
  -19.5370  -26.7280   21.6270 C   0  0  0  0  0  2  0  0  0  0  0  0
  -18.1470  -26.8950   22.2510 C   0  0  0  0  0  2  0  0  0  0  0  0
  -19.1190  -28.9710   23.3960 C   0  0  0  0  0  0  0  0  0  0  0  0
  -18.9210  -30.2320   23.9990 C   0  0  0  0  0  3  0  0  0  0  0  0
  -17.6240  -30.7600   24.1500 C   0  0  0  0  0  3  0  0  0  0  0  0
  -16.5100  -30.0210   23.7150 C   0  0  0  0  0  3  0  0  0  0  0  0
  -16.6940  -28.7620   23.1190 C   0  0  0  0  0  3  0  0  0  0  0  0
  -25.7760  -32.6410   24.0510 C   0  0  0  0  0  3  0  0  0  0  0  0
  -25.4480  -34.0540   24.2940 N   0  0  0  0  0  0  0  0  0  0  0  0
  -25.8290  -35.0740   23.5120 C   0  0  0  0  0  0  0  0  0  0  0  0
  -26.5620  -34.9240   22.5310 O   0  0  0  0  0  0  0  0  0  0  0  0
  -24.8100  -34.2440   25.0530 H   0  0  0  0  0  0  0  0  0  0  0  0
  -24.1390  -36.8570   22.9640 C   0  0  0  0  0  1  0  0  0  0  0  0
  -25.3190  -36.4840   23.8750 C   0  0  0  0  0  3  0  0  0  0  0  0
  -27.3900  -37.4050   24.8180 C   0  0  0  0  0  1  0  0  0  0  0  0
  -26.3640  -37.5270   23.7860 N   0  0  0  0  0  0  0  0  0  0  0  0
  -25.9540  -38.4540   23.8570 H   0  0  0  0  0  0  0  0  0  0  0  0
  -26.1980  -31.9390   25.4010 C   0  0  1  0  0  0  0  0  0  0  0  0
  -25.0290  -31.7390   26.3940 C   0  0  0  0  0  1  0  0  0  0  0  0
  -26.8250  -30.5540   25.1250 C   0  0  0  0  0  1  0  0  0  0  0  0
  -27.2860  -32.7800   26.1110 C   0  0  0  0  0  1  0  0  0  0  0  0
  2  1  2  0
  2 50  1  0
  3  8  1  0
  3  1  1  0
  4  7  1  0
  4  6  2  0
  5  4  1  0
  6  2  1  0
  7  3  2  0
  9  8  1  0
 11 16  1  0
 12 13  1  0
 12 11  1  0
 14 13  1  0
 14 25  1  0
 14 15  1  0
 16 10  1  0
 16 15  1  0
 17 10  2  0
 19 21  1  0
 19 20  1  0
 20  8  1  0
 20 18  1  0
 21 10  1  0
 21 18  1  0
 22 23  2  0
 23 42  1  0
 24 23  1  0
 24 27  1  0
 25 22  1  0
 25 26  1  0
 26 24  2  0
 27 28  1  0
 28 29  2  0
 30 33  1  0
 30 29  1  0
 31 30  2  0
 32 31  1  0
 32 27  2  0
 33 34  1  0
 34 35  1  0
 35 36  2  0
 37 36  1  0
 37 41  1  0
 38 37  2  0
 39 34  2  0
 39 38  1  0
 40 39  1  0
 42 43  1  0
 43 46  1  0
 43 45  1  0
 44 42  2  0
 47 48  1  0
 47 22  1  0
 49 47  1  0
 51 50  1  0
 52 63  2  0
 53 51  1  0
 53 58  1  0
 54 62  1  0
 54 64  1  0
 55 57  1  0
 56 62  1  0
 57 58  2  0
 57 56  1  0
 59 53  2  0
 60 59  1  0
 60 55  2  0
 61 55  1  0
 61 54  1  0
 62 52  1  0
 64 66  2  0
 65 64  1  0
 67 65  1  0
 68 77  2  0
 68 73  1  0
 69 65  1  0
 69 73  1  0
 70 69  1  0
 71 72  1  0
 71 70  1  0
 72 68  1  0
 73 74  2  0
 74 75  1  0
 76 75  2  0
 77 76  1  0
 78 52  1  0
 78 79  1  0
 78 88  1  0
 79 82  1  0
 80 84  1  0
 80 79  1  0
 81 80  2  0
 84 83  1  0
 86 87  1  0
 86 84  1  0
 86 85  1  0
 88 91  1  1
 88 89  1  0
 90 88  1  0
M  ISO  4  10 100  21 100  50 101  51 101
M  END
>  <TORSDO>  (87) 
F 17

>  <SCORE>  (87) 
-13.966

>  <name>  (87) 
86

>  <ligand_id>  (87) 
86

>  <original_smiles>  (87) 
[H]c1c(N([H])C2([H])C([H])([H])N(C(=O)N3C([H])([H])C([H])([H])C([H])([H])C([H])(n4nc(-c5c([H])c([H])c(Oc6c([H])c([H])c(F)c([H])c6F)c([H])c5[H])c(C(=O)N([H])[H])c4N([H])[H])C3([H])[H])C2([H])[H])nc(C([H])([H])[H])nc1C([H])([H])Oc1c([H])c([H])c2c(c1[H])C([H])([H])N(C(=O)C([H])(N([H])C(=O)C([H])(N([H])C([H])([H])[H])C([H])([H])[H])C(C([H])([H])[H])(C([H])([H])[H])C([H])([H])[H])C([H])(C(=O)N([H])C1([H])c3c([H])c([H])c([H])c([H])c3C([H])([H])C([H])([H])C1([H])[H])C2([H])[H]

>  <smiles>  (87) 
[H]c1c(N([H])C2([H])C([H])([H])N(C(=O)N3C([H])([H])C([H])([H])C([H])([H])C([H])(n4nc(-c5c([H])c([H])c(Oc6c([H])c([H])c(F)c([H])c6F)c([H])c5[H])c(C(=O)N([H])[H])c4N([H])[H])C3([H])[H])C2([H])[H])nc(C([H])([H])[H])nc1C([H])([H])Oc1c([H])c([H])c2c(c1[H])C([H])([H])N(C(=O)C([H])(N([H])C(=O)C([H])(N([H])C([H])([H])[H])C([H])([H])[H])C(C([H])([H])[H])(C([H])([H])[H])C([H])([H])[H])C([H])(C(=O)N([H])C1([H])c3c([H])c([H])c([H])c([H])c3C([H])([H])C([H])([H])C1([H])[H])C2([H])[H]

$$$$
87:0:0
     RDKit          3D

 93102  0  0  1  0  0  0  0  0999 V2000
  -29.1180  -23.1420   18.1820 C   0  0  0  0  0  0  0  0  0  0  0  0
  -28.8850  -23.9400   19.2890 C   0  0  0  0  0  0  0  0  0  0  0  0
  -29.1520  -21.7380   19.8380 C   0  0  0  0  0  0  0  0  0  0  0  0
  -29.1770  -23.5450   16.7390 C   0  0  0  0  0  1  0  0  0  0  0  0
  -28.6690  -23.2990   21.7650 C   0  0  0  0  0  1  0  0  0  0  0  0
  -29.3000  -21.8000   18.5270 N   0  0  0  0  0  0  0  0  0  0  0  0
  -28.8910  -22.9950   20.3650 N   0  0  0  0  0  0  0  0  0  0  0  0
  -29.2630  -20.5040   20.5640 N   0  0  0  0  0  0  0  0  0  0  0  0
  -29.0730  -20.6520   21.5500 H   0  0  0  0  0  0  0  0  0  0  0  0
  -30.6960  -14.7060   20.0930 C   0  0  0  0  0  0  0  0  0  0  0  0
  -30.3760  -12.4640   19.0520 C   0  0  0  0  0  2  0  0  0  0  0  0
  -29.3930  -12.5750   17.8690 C   0  0  0  0  0  2  0  0  0  0  0  0
  -27.9430  -12.4110   18.3600 C   0  0  0  0  0  2  0  0  0  0  0  0
  -27.6290  -13.2800   19.6080 C   0  0  0  0  0  3  0  0  0  0  0  0
  -28.7360  -13.1870   20.6790 C   0  0  0  0  0  2  0  0  0  0  0  0
  -30.0060  -13.5170   20.0260 N   0  0  0  0  0  0  0  0  0  0  0  0
  -31.8750  -14.7400   19.7260 O   0  0  0  0  0  0  0  0  0  0  0  0
  -28.9790  -18.1590   19.4050 C   0  0  0  0  0  2  0  0  0  0  0  0
  -29.9890  -18.2430   21.5960 C   0  0  0  0  0  2  0  0  0  0  0  0
  -29.6420  -16.7360   19.1640 C   0  0  0  0  0  2  0  0  0  0  0  0
  -30.6370  -16.8180   21.3690 C   0  0  0  0  0  2  0  0  0  0  0  0
  -29.8050  -19.1090   20.3160 C   0  0  0  0  0  3  0  0  0  0  0  0
  -30.0290  -15.9060   20.3510 N   0  0  0  0  0  0  0  0  0  0  0  0
  -25.2810  -13.8670   20.4520 C   0  0  0  0  0  0  0  0  0  0  0  0
  -24.2270  -13.0900   20.8510 C   0  0  0  0  0  0  0  0  0  0  0  0
  -24.6810  -11.7370   20.7760 C   0  0  0  0  0  0  0  0  0  0  0  0
  -26.3080  -12.9870   20.1540 N   0  0  0  0  0  0  0  0  0  0  0  0
  -25.9590  -11.7000   20.4130 N   0  0  0  0  0  0  0  0  0  0  0  0
  -23.9560  -10.4750   20.9740 C   0  0  0  0  0  0  0  0  0  0  0  0
  -24.3960   -9.5070   21.9040 C   0  0  0  0  0  3  0  0  0  0  0  0
  -23.6700   -8.3110   22.0910 C   0  0  0  0  0  3  0  0  0  0  0  0
  -22.4900   -8.0750   21.3460 C   0  0  0  0  0  0  0  0  0  0  0  0
  -22.0690   -9.0300   20.4060 C   0  0  0  0  0  3  0  0  0  0  0  0
  -22.7950  -10.2180   20.2180 C   0  0  0  0  0  3  0  0  0  0  0  0
  -21.7340   -6.9310   21.4420 O   0  0  0  0  0  0  0  0  0  0  0  0
  -21.6610   -6.2110   22.6080 C   0  0  0  0  0  0  0  0  0  0  0  0
  -21.1580   -6.7740   23.8020 C   0  0  0  0  0  3  0  0  0  0  0  0
  -21.0370   -5.9780   24.9590 C   0  0  0  0  0  3  0  0  0  0  0  0
  -21.4080   -4.6210   24.9220 C   0  0  0  0  0  0  0  0  0  0  0  0
  -21.9040   -4.0570   23.7330 C   0  0  0  0  0  3  0  0  0  0  0  0
  -22.0270   -4.8500   22.5790 C   0  0  0  0  0  0  0  0  0  0  0  0
  -22.4870   -4.2970   21.4300 F   0  0  0  0  0  0  0  0  0  0  0  0
  -21.2840   -3.8540   26.0310 F   0  0  0  0  0  0  0  0  0  0  0  0
  -22.8450  -13.5700   21.1890 C   0  0  0  0  0  0  0  0  0  0  0  0
  -22.1500  -12.8620   22.0720 N   0  0  0  0  0  0  0  0  0  0  0  0
  -22.3940  -14.6060   20.7050 O   0  0  0  0  0  0  0  0  0  0  0  0
  -22.5300  -12.0220   22.4840 H   0  0  0  0  0  0  0  0  0  0  0  0
  -21.2250  -13.1640   22.3400 H   0  0  0  0  0  0  0  0  0  0  0  0
  -25.4480  -15.2390   20.2950 N   0  0  0  0  0  0  0  0  0  0  0  0
  -24.6960  -15.9000   20.4600 H   0  0  0  0  0  0  0  0  0  0  0  0
  -26.3010  -15.6790   19.9770 H   0  0  0  0  0  0  0  0  0  0  0  0
  -28.6940  -25.5080   19.1420 C   0  0  0  0  0  2  0  0  0  0  0  0
  -28.3540  -26.3980   20.2700 O   0  0  0  0  0  0  0  0  0  0  0  0
  -24.5750  -31.8370   23.2030 C   0  0  0  0  0  0  0  0  0  0  0  0
  -27.2580  -27.2800   20.1680 C   0  0  0  0  0  0  0  0  0  0  0  0
  -23.4090  -30.4440   21.5330 C   0  0  0  0  0  3  0  0  0  0  0  0
  -24.8910  -28.9040   20.1250 C   0  0  0  0  0  0  0  0  0  0  0  0
  -25.9530  -30.7610   21.4060 C   0  0  0  0  0  2  0  0  0  0  0  0
  -26.0470  -29.3840   20.7520 C   0  0  0  0  0  0  0  0  0  0  0  0
  -27.2290  -28.5800   20.7730 C   0  0  0  0  0  3  0  0  0  0  0  0
  -26.0690  -26.8510   19.5370 C   0  0  0  0  0  3  0  0  0  0  0  0
  -24.9040  -27.6420   19.5110 C   0  0  0  0  0  3  0  0  0  0  0  0
  -23.6520  -29.7770   20.1540 C   0  0  0  0  0  2  0  0  0  0  0  0
  -24.6640  -31.0330   22.1030 N   0  0  0  0  0  0  0  0  0  0  0  0
  -23.4810  -32.1110   23.7160 O   0  0  0  0  0  0  0  0  0  0  0  0
  -22.7290  -29.4220   22.4740 C   0  0  0  0  0  0  0  0  0  0  0  0
  -21.4010  -29.2630   22.3390 N   0  0  0  0  0  0  0  0  0  0  0  0
  -23.3940  -28.7770   23.2890 O   0  0  0  0  0  0  0  0  0  0  0  0
  -20.9240  -29.8320   21.6550 H   0  0  0  0  0  0  0  0  0  0  0  0
  -17.9990  -28.1350   22.8410 C   0  0  0  0  0  0  0  0  0  0  0  0
  -20.5660  -28.3250   23.0920 C   0  0  0  0  0  3  0  0  0  0  0  0
  -20.6270  -26.9070   22.4790 C   0  0  0  0  0  2  0  0  0  0  0  0
  -19.5080  -26.6390   21.4670 C   0  0  0  0  0  2  0  0  0  0  0  0
  -18.1370  -26.8010   22.1270 C   0  0  0  0  0  2  0  0  0  0  0  0
  -19.1410  -28.8570   23.2800 C   0  0  0  0  0  0  0  0  0  0  0  0
  -18.9570  -30.1080   23.9100 C   0  0  0  0  0  3  0  0  0  0  0  0
  -17.6670  -30.6370   24.1030 C   0  0  0  0  0  3  0  0  0  0  0  0
  -16.5400  -29.9090   23.6790 C   0  0  0  0  0  3  0  0  0  0  0  0
  -16.7080  -28.6610   23.0560 C   0  0  0  0  0  3  0  0  0  0  0  0
  -25.8420  -32.4700   23.8550 C   0  0  0  0  0  3  0  0  0  0  0  0
  -25.5210  -33.8660   24.1890 N   0  0  0  0  0  0  0  0  0  0  0  0
  -25.8390  -34.9230   23.4310 C   0  0  0  0  0  0  0  0  0  0  0  0
  -26.5050  -34.8290   22.3960 O   0  0  0  0  0  0  0  0  0  0  0  0
  -24.9270  -34.0130   24.9920 H   0  0  0  0  0  0  0  0  0  0  0  0
  -24.0890  -36.6990   23.0950 C   0  0  0  0  0  1  0  0  0  0  0  0
  -25.3410  -36.3060   23.8940 C   0  0  0  0  0  3  0  0  0  0  0  0
  -27.4690  -37.2180   24.7130 C   0  0  0  0  0  1  0  0  0  0  0  0
  -26.3600  -37.3710   23.7740 N   0  0  0  0  0  0  0  0  0  0  0  0
  -25.9440  -38.2880   23.9220 H   0  0  0  0  0  0  0  0  0  0  0  0
  -26.3340  -31.6940   25.1390 C   0  0  1  0  0  0  0  0  0  0  0  0
  -25.2190  -31.4450   26.1810 C   0  0  0  0  0  1  0  0  0  0  0  0
  -26.9330  -30.3220   24.7540 C   0  0  0  0  0  1  0  0  0  0  0  0
  -27.4670  -32.4900   25.8290 C   0  0  0  0  0  1  0  0  0  0  0  0
  1  6  1  0
  1  2  2  0
  2  7  1  0
  3  7  1  0
  3  8  1  0
  4  1  1  0
  6  3  2  0
  7  5  1  0
  8  9  1  0
 10 23  1  0
 11 16  1  0
 12 13  1  0
 12 11  1  0
 14 13  1  0
 14 27  1  0
 14 15  1  0
 16 10  1  0
 16 15  1  0
 17 10  2  0
 18 22  1  0
 20 18  1  0
 20 23  1  0
 21 19  1  0
 22  8  1  0
 22 19  1  0
 23 21  1  0
 24 25  2  0
 25 44  1  0
 26 25  1  0
 26 29  1  0
 27 28  1  0
 27 24  1  0
 28 26  2  0
 29 30  1  0
 30 31  2  0
 32 35  1  0
 32 31  1  0
 33 32  2  0
 34 33  1  0
 34 29  2  0
 35 36  1  0
 36 37  1  0
 37 38  2  0
 39 38  1  0
 39 43  1  0
 40 39  2  0
 41 36  2  0
 41 40  1  0
 42 41  1  0
 44 45  1  0
 45 48  1  0
 45 47  1  0
 46 44  2  0
 49 24  1  0
 49 50  1  0
 51 49  1  0
 52  2  1  0
 52 53  1  0
 54 65  2  0
 55 53  1  0
 55 60  1  0
 56 64  1  0
 56 66  1  0
 57 63  1  0
 57 59  1  0
 58 64  1  0
 59 60  2  0
 59 58  1  0
 61 55  2  0
 62 61  1  0
 62 57  2  0
 63 56  1  0
 64 54  1  0
 66 68  2  0
 67 66  1  0
 69 67  1  0
 70 79  2  0
 70 75  1  0
 71 67  1  0
 71 75  1  0
 72 71  1  0
 73 74  1  0
 73 72  1  0
 74 70  1  0
 75 76  2  0
 76 77  1  0
 78 77  2  0
 79 78  1  0
 80 54  1  0
 80 81  1  0
 80 90  1  0
 81 84  1  0
 82 86  1  0
 82 81  1  0
 83 82  2  0
 86 85  1  0
 88 86  1  0
 88 89  1  0
 88 87  1  0
 90 93  1  1
 90 91  1  0
 92 90  1  0
M  ISO  4  10 100  23 100  52 101  53 101
M  END
>  <TORSDO>  (88) 
F 17

>  <SCORE>  (88) 
-15.024

>  <name>  (88) 
87

>  <ligand_id>  (88) 
87

>  <original_smiles>  (88) 
[H]c1c([H])c([H])c2c(c1[H])C([H])([H])C([H])([H])C([H])([H])C2([H])N([H])C(=O)C1([H])N(C(=O)C([H])(N([H])C(=O)C([H])(N([H])C([H])([H])[H])C([H])([H])[H])C(C([H])([H])[H])(C([H])([H])[H])C([H])([H])[H])C([H])([H])c2c([H])c(OC([H])([H])c3c(C([H])([H])[H])nc(N([H])C4([H])C([H])([H])C([H])([H])N(C(=O)N5C([H])([H])C([H])([H])C([H])([H])C([H])(n6nc(-c7c([H])c([H])c(Oc8c([H])c([H])c(F)c([H])c8F)c([H])c7[H])c(C(=O)N([H])[H])c6N([H])[H])C5([H])[H])C([H])([H])C4([H])[H])n3C([H])([H])[H])c([H])c([H])c2C1([H])[H]

>  <smiles>  (88) 
[H]c1c([H])c([H])c2c(c1[H])C([H])([H])C([H])([H])C([H])([H])C2([H])N([H])C(=O)C1([H])N(C(=O)C([H])(N([H])C(=O)C([H])(N([H])C([H])([H])[H])C([H])([H])[H])C(C([H])([H])[H])(C([H])([H])[H])C([H])([H])[H])C([H])([H])c2c([H])c(OC([H])([H])c3c(C([H])([H])[H])nc(N([H])C4([H])C([H])([H])C([H])([H])N(C(=O)N5C([H])([H])C([H])([H])C([H])([H])C([H])(n6nc(-c7c([H])c([H])c(Oc8c([H])c([H])c(F)c([H])c8F)c([H])c7[H])c(C(=O)N([H])[H])c6N([H])[H])C5([H])[H])C([H])([H])C4([H])[H])n3C([H])([H])[H])c([H])c([H])c2C1([H])[H]

$$$$
88:0:0
     RDKit          3D

 93102  0  0  1  0  0  0  0  0999 V2000
  -29.7890  -20.0010   19.7980 C   0  0  0  0  0  3  0  0  0  0  0  0
  -30.4060  -18.8930   20.5000 C   0  0  0  0  0  0  0  0  0  0  0  0
  -30.9210  -19.2350   21.7800 C   0  0  0  0  0  0  0  0  0  0  0  0
  -29.6980  -21.3430   20.3360 C   0  0  0  0  0  0  0  0  0  0  0  0
  -30.7670  -20.5710   22.2610 C   0  0  0  0  0  0  0  0  0  0  0  0
  -31.6760  -18.2120   22.6300 C   0  0  0  0  0  1  0  0  0  0  0  0
  -31.3320  -20.9880   23.6090 C   0  0  0  0  0  1  0  0  0  0  0  0
  -30.1790  -21.5800   21.5700 N   0  0  0  0  0  0  0  0  0  0  0  0
  -29.1270  -22.5470   19.5430 C   0  0  0  0  0  0  0  0  0  0  0  0
  -28.6910  -23.8580   19.6490 C   0  0  0  0  0  0  0  0  0  0  0  0
  -28.9980  -22.5880   18.0220 C   0  0  0  0  0  2  0  0  0  0  0  0
  -28.3670  -23.9950   18.1790 C   0  0  0  0  0  2  0  0  0  0  0  0
  -28.3910  -25.0230   20.6750 C   0  0  0  0  0  2  0  0  0  0  0  0
  -28.5260  -26.4470   20.1980 O   0  0  0  0  0  0  0  0  0  0  0  0
  -24.6840  -31.7970   23.2430 C   0  0  0  0  0  0  0  0  0  0  0  0
  -27.3980  -27.2950   20.1710 C   0  0  0  0  0  0  0  0  0  0  0  0
  -23.5170  -30.3920   21.5830 C   0  0  0  0  0  3  0  0  0  0  0  0
  -25.0050  -28.8810   20.1480 C   0  0  0  0  0  0  0  0  0  0  0  0
  -26.0510  -30.7610   21.4120 C   0  0  0  0  0  2  0  0  0  0  0  0
  -26.1640  -29.3880   20.7510 C   0  0  0  0  0  0  0  0  0  0  0  0
  -27.3650  -28.6090   20.7420 C   0  0  0  0  0  3  0  0  0  0  0  0
  -26.2190  -26.8500   19.5350 C   0  0  0  0  0  3  0  0  0  0  0  0
  -25.0380  -27.6210   19.5280 C   0  0  0  0  0  3  0  0  0  0  0  0
  -23.7510  -29.7320   20.1970 C   0  0  0  0  0  2  0  0  0  0  0  0
  -24.7690  -31.0020   22.1350 N   0  0  0  0  0  0  0  0  0  0  0  0
  -23.5920  -32.0450   23.7770 O   0  0  0  0  0  0  0  0  0  0  0  0
  -22.8700  -29.3550   22.5320 C   0  0  0  0  0  0  0  0  0  0  0  0
  -21.5560  -29.1210   22.3720 N   0  0  0  0  0  0  0  0  0  0  0  0
  -23.5500  -28.7580   23.3700 O   0  0  0  0  0  0  0  0  0  0  0  0
  -21.0620  -29.6530   21.6690 H   0  0  0  0  0  0  0  0  0  0  0  0
  -18.2330  -27.7350   22.7440 C   0  0  0  0  0  0  0  0  0  0  0  0
  -20.7570  -28.1520   23.1260 C   0  0  0  0  0  3  0  0  0  0  0  0
  -20.9700  -26.7180   22.5900 C   0  0  0  0  0  2  0  0  0  0  0  0
  -19.9380  -26.3110   21.5320 C   0  0  0  0  0  2  0  0  0  0  0  0
  -18.5210  -26.3860   22.1070 C   0  0  0  0  0  2  0  0  0  0  0  0
  -19.2840  -28.5710   23.2080 C   0  0  0  0  0  0  0  0  0  0  0  0
  -18.9620  -29.8300   23.7610 C   0  0  0  0  0  3  0  0  0  0  0  0
  -17.6250  -30.2550   23.8550 C   0  0  0  0  0  3  0  0  0  0  0  0
  -16.5880  -29.4180   23.4080 C   0  0  0  0  0  3  0  0  0  0  0  0
  -16.8920  -28.1600   22.8580 C   0  0  0  0  0  3  0  0  0  0  0  0
  -25.9520  -32.4500   23.8780 C   0  0  0  0  0  3  0  0  0  0  0  0
  -26.4620  -31.6940   25.1660 C   0  0  1  0  0  0  0  0  0  0  0  0
  -25.3590  -31.4520   26.2210 C   0  0  0  0  0  1  0  0  0  0  0  0
  -27.0660  -30.3200   24.7930 C   0  0  0  0  0  1  0  0  0  0  0  0
  -27.5970  -32.5030   25.8360 C   0  0  0  0  0  1  0  0  0  0  0  0
  -25.6180  -33.8460   24.1990 N   0  0  0  0  0  0  0  0  0  0  0  0
  -25.9410  -34.9000   23.4380 C   0  0  0  0  0  0  0  0  0  0  0  0
  -26.6190  -34.8020   22.4120 O   0  0  0  0  0  0  0  0  0  0  0  0
  -25.0160  -33.9960   24.9950 H   0  0  0  0  0  0  0  0  0  0  0  0
  -24.1830  -36.6630   23.0770 C   0  0  0  0  0  1  0  0  0  0  0  0
  -25.4320  -36.2830   23.8890 C   0  0  0  0  0  3  0  0  0  0  0  0
  -27.5500  -37.2090   24.7130 C   0  0  0  0  0  1  0  0  0  0  0  0
  -26.4460  -37.3530   23.7680 N   0  0  0  0  0  0  0  0  0  0  0  0
  -26.0240  -38.2670   23.9090 H   0  0  0  0  0  0  0  0  0  0  0  0
  -30.6400  -17.4670   19.8030 C   0  0  0  0  0  2  0  0  0  0  0  0
  -31.0170  -14.9300   20.2590 C   0  0  0  0  0  0  0  0  0  0  0  0
  -30.8160  -12.5820   19.4250 C   0  0  0  0  0  2  0  0  0  0  0  0
  -29.9140  -12.5660   18.1710 C   0  0  0  0  0  2  0  0  0  0  0  0
  -28.4340  -12.4310   18.5780 C   0  0  0  0  0  2  0  0  0  0  0  0
  -28.0350  -13.4190   19.7070 C   0  0  0  0  0  3  0  0  0  0  0  0
  -29.0600  -13.4140   20.8640 C   0  0  0  0  0  2  0  0  0  0  0  0
  -30.3760  -13.7090   20.2870 N   0  0  0  0  0  0  0  0  0  0  0  0
  -32.1990  -14.9820   19.9090 O   0  0  0  0  0  0  0  0  0  0  0  0
  -30.2730  -16.0950   20.3800 N   0  0  0  0  0  0  0  0  0  0  0  0
  -29.3180  -15.9980   20.6910 H   0  0  0  0  0  0  0  0  0  0  0  0
  -25.6650  -14.0920   20.4140 C   0  0  0  0  0  0  0  0  0  0  0  0
  -24.5690  -13.3570   20.7740 C   0  0  0  0  0  0  0  0  0  0  0  0
  -24.9830  -11.9900   20.7440 C   0  0  0  0  0  0  0  0  0  0  0  0
  -26.6780  -13.1770   20.1840 N   0  0  0  0  0  0  0  0  0  0  0  0
  -26.2740  -11.9060   20.4450 N   0  0  0  0  0  0  0  0  0  0  0  0
  -24.2120  -10.7540   20.9250 C   0  0  0  0  0  0  0  0  0  0  0  0
  -24.5940   -9.7750   21.8680 C   0  0  0  0  0  3  0  0  0  0  0  0
  -23.8240   -8.6050   22.0350 C   0  0  0  0  0  3  0  0  0  0  0  0
  -22.6580   -8.4050   21.2590 C   0  0  0  0  0  0  0  0  0  0  0  0
  -22.2950   -9.3720   20.3070 C   0  0  0  0  0  3  0  0  0  0  0  0
  -23.0650  -10.5340   20.1370 C   0  0  0  0  0  3  0  0  0  0  0  0
  -21.8600   -7.2890   21.3360 O   0  0  0  0  0  0  0  0  0  0  0  0
  -21.7540   -6.5590   22.4930 C   0  0  0  0  0  0  0  0  0  0  0  0
  -21.3150   -7.1400   23.7030 C   0  0  0  0  0  3  0  0  0  0  0  0
  -21.1520   -6.3370   24.8500 C   0  0  0  0  0  3  0  0  0  0  0  0
  -21.4220   -4.9580   24.7910 C   0  0  0  0  0  0  0  0  0  0  0  0
  -21.8540   -4.3760   23.5850 C   0  0  0  0  0  3  0  0  0  0  0  0
  -22.0180   -5.1750   22.4400 C   0  0  0  0  0  0  0  0  0  0  0  0
  -22.4160   -4.6070   21.2750 F   0  0  0  0  0  0  0  0  0  0  0  0
  -21.2600   -4.1860   25.8900 F   0  0  0  0  0  0  0  0  0  0  0  0
  -23.1880  -13.8830   21.0330 C   0  0  0  0  0  0  0  0  0  0  0  0
  -22.4360  -13.2240   21.9060 N   0  0  0  0  0  0  0  0  0  0  0  0
  -22.7880  -14.9150   20.4950 O   0  0  0  0  0  0  0  0  0  0  0  0
  -22.7740  -12.3930   22.3680 H   0  0  0  0  0  0  0  0  0  0  0  0
  -21.5060  -13.5590   22.1170 H   0  0  0  0  0  0  0  0  0  0  0  0
  -25.8810  -15.4570   20.2410 N   0  0  0  0  0  0  0  0  0  0  0  0
  -25.1330  -16.1350   20.3340 H   0  0  0  0  0  0  0  0  0  0  0  0
  -26.7400  -15.8650   19.8990 H   0  0  0  0  0  0  0  0  0  0  0  0
  1  4  2  0
  1  2  1  0
  2  3  2  0
  3  5  1  0
  3  6  1  0
  4  8  1  0
  5  7  1  0
  8  5  2  0
  9 10  2  0
  9  4  1  0
 10 13  1  0
 11 12  1  0
 11  9  1  0
 12 10  1  0
 14 13  1  0
 15 26  2  0
 16 14  1  0
 16 21  1  0
 17 25  1  0
 17 27  1  0
 18 24  1  0
 18 20  1  0
 19 25  1  0
 20 19  1  0
 21 20  2  0
 22 16  2  0
 23 22  1  0
 23 18  2  0
 24 17  1  0
 25 15  1  0
 27 29  2  0
 28 27  1  0
 30 28  1  0
 31 40  2  0
 31 36  1  0
 32 28  1  0
 32 36  1  0
 33 32  1  0
 34 35  1  0
 34 33  1  0
 35 31  1  0
 36 37  2  0
 37 38  1  0
 39 38  2  0
 40 39  1  0
 41 15  1  0
 41 46  1  0
 41 42  1  0
 42 45  1  1
 42 43  1  0
 44 42  1  0
 46 49  1  0
 47 51  1  0
 47 46  1  0
 48 47  2  0
 51 50  1  0
 53 51  1  0
 53 54  1  0
 53 52  1  0
 55 64  1  0
 55  2  1  0
 56 62  1  0
 56 64  1  0
 57 62  1  0
 58 59  1  0
 58 57  1  0
 60 59  1  0
 60 69  1  0
 60 61  1  0
 62 61  1  0
 63 56  2  0
 64 65  1  0
 66 67  2  0
 67 86  1  0
 68 67  1  0
 68 71  1  0
 69 66  1  0
 69 70  1  0
 70 68  2  0
 71 72  1  0
 72 73  2  0
 74 77  1  0
 74 73  1  0
 75 74  2  0
 76 75  1  0
 76 71  2  0
 77 78  1  0
 78 79  1  0
 79 80  2  0
 81 80  1  0
 81 85  1  0
 82 81  2  0
 83 78  2  0
 83 82  1  0
 84 83  1  0
 86 87  1  0
 87 90  1  0
 87 89  1  0
 88 86  2  0
 91 92  1  0
 91 66  1  0
 93 91  1  0
M  ISO  4  13 101  14 101  56 100  64 100
M  END
>  <TORSDO>  (89) 
F 19

>  <SCORE>  (89) 
-13.805

>  <name>  (89) 
88

>  <ligand_id>  (89) 
88

>  <original_smiles>  (89) 
[H]c1c([H])c([H])c2c(c1[H])C([H])([H])C([H])([H])C([H])([H])C2([H])N([H])C(=O)C1([H])N(C(=O)C([H])(N([H])C(=O)C([H])(N([H])C([H])([H])[H])C([H])([H])[H])C(C([H])([H])[H])(C([H])([H])[H])C([H])([H])[H])C([H])([H])c2c([H])c(OC([H])([H])C3=C(c4nc(C([H])([H])[H])c(C([H])([H])[H])c(C([H])([H])N([H])C(=O)N5C([H])([H])C([H])([H])C([H])([H])C([H])(n6nc(-c7c([H])c([H])c(Oc8c([H])c([H])c(F)c([H])c8F)c([H])c7[H])c(C(=O)N([H])[H])c6N([H])[H])C5([H])[H])c4[H])C([H])([H])C3([H])[H])c([H])c([H])c2C1([H])[H]

>  <smiles>  (89) 
[H]c1c([H])c([H])c2c(c1[H])C([H])([H])C([H])([H])C([H])([H])C2([H])N([H])C(=O)C1([H])N(C(=O)C([H])(N([H])C(=O)C([H])(N([H])C([H])([H])[H])C([H])([H])[H])C(C([H])([H])[H])(C([H])([H])[H])C([H])([H])[H])C([H])([H])c2c([H])c(OC([H])([H])C3=C(c4nc(C([H])([H])[H])c(C([H])([H])[H])c(C([H])([H])N([H])C(=O)N5C([H])([H])C([H])([H])C([H])([H])C([H])(n6nc(-c7c([H])c([H])c(Oc8c([H])c([H])c(F)c([H])c8F)c([H])c7[H])c(C(=O)N([H])[H])c6N([H])[H])C5([H])[H])c4[H])C([H])([H])C3([H])[H])c([H])c([H])c2C1([H])[H]

$$$$
89:0:0
     RDKit          3D

 91100  0  0  1  0  0  0  0  0999 V2000
  -29.5480  -20.8410   20.2860 C   0  0  0  0  0  0  0  0  0  0  0  0
  -30.9020  -21.2670   20.1870 C   0  0  0  0  0  0  0  0  0  0  0  0
  -30.3540  -23.5600   20.0880 C   0  0  0  0  0  0  0  0  0  0  0  0
  -28.9630  -23.3170   20.1890 C   0  0  0  0  0  0  0  0  0  0  0  0
  -32.0630  -20.2970   20.1610 C   0  0  0  0  0  1  0  0  0  0  0  0
  -30.9210  -24.9580   19.9320 C   0  0  0  0  0  1  0  0  0  0  0  0
  -28.5980  -21.9230   20.2760 N   0  0  0  0  0  0  0  0  0  0  0  0
  -31.2780  -22.5690   20.0930 N   0  0  0  0  0  0  0  0  0  0  0  0
  -28.9910  -18.3910   19.1850 C   0  0  0  0  0  2  0  0  0  0  0  0
  -29.1870  -19.2060   20.4290 C   0  0  0  0  0  3  0  0  0  0  0  0
  -29.9970  -17.7330   20.1200 C   0  0  0  0  0  3  0  0  0  0  0  0
  -30.4760  -15.0280   20.2540 C   0  0  0  0  0  0  0  0  0  0  0  0
  -30.3520  -12.6740   19.3060 C   0  0  0  0  0  2  0  0  0  0  0  0
  -29.3970  -12.6360   18.0890 C   0  0  0  0  0  2  0  0  0  0  0  0
  -27.9430  -12.4150   18.5440 C   0  0  0  0  0  2  0  0  0  0  0  0
  -27.5560  -13.3250   19.7400 C   0  0  0  0  0  3  0  0  0  0  0  0
  -28.6320  -13.3320   20.8460 C   0  0  0  0  0  2  0  0  0  0  0  0
  -29.8870  -13.7610   20.2180 N   0  0  0  0  0  0  0  0  0  0  0  0
  -31.6720  -15.0900   19.9430 O   0  0  0  0  0  0  0  0  0  0  0  0
  -29.6950  -16.2180   20.4050 N   0  0  0  0  0  0  0  0  0  0  0  0
  -28.7380  -16.0310   20.6660 H   0  0  0  0  0  0  0  0  0  0  0  0
  -25.1890  -13.8880   20.5330 C   0  0  0  0  0  0  0  0  0  0  0  0
  -24.1340  -13.1060   20.9140 C   0  0  0  0  0  0  0  0  0  0  0  0
  -24.6010  -11.7570   20.8600 C   0  0  0  0  0  0  0  0  0  0  0  0
  -26.2290  -13.0150   20.2610 N   0  0  0  0  0  0  0  0  0  0  0  0
  -25.8860  -11.7270   20.5240 N   0  0  0  0  0  0  0  0  0  0  0  0
  -23.8810  -10.4910   21.0490 C   0  0  0  0  0  0  0  0  0  0  0  0
  -24.3210   -9.5190   21.9740 C   0  0  0  0  0  3  0  0  0  0  0  0
  -23.5980   -8.3190   22.1510 C   0  0  0  0  0  3  0  0  0  0  0  0
  -22.4190   -8.0840   21.4040 C   0  0  0  0  0  0  0  0  0  0  0  0
  -21.9970   -9.0450   20.4690 C   0  0  0  0  0  3  0  0  0  0  0  0
  -22.7210  -10.2360   20.2890 C   0  0  0  0  0  3  0  0  0  0  0  0
  -21.6670   -6.9380   21.4910 O   0  0  0  0  0  0  0  0  0  0  0  0
  -21.6170   -6.1950   22.6450 C   0  0  0  0  0  0  0  0  0  0  0  0
  -21.1710   -6.7470   23.8660 C   0  0  0  0  0  3  0  0  0  0  0  0
  -21.0700   -5.9300   25.0100 C   0  0  0  0  0  3  0  0  0  0  0  0
  -21.4030   -4.5640   24.9340 C   0  0  0  0  0  0  0  0  0  0  0  0
  -21.8420   -4.0130   23.7160 C   0  0  0  0  0  3  0  0  0  0  0  0
  -21.9450   -4.8270   22.5740 C   0  0  0  0  0  0  0  0  0  0  0  0
  -22.3480   -4.2870   21.3990 F   0  0  0  0  0  0  0  0  0  0  0  0
  -21.2990   -3.7790   26.0310 F   0  0  0  0  0  0  0  0  0  0  0  0
  -22.7410  -13.5790   21.2110 C   0  0  0  0  0  0  0  0  0  0  0  0
  -22.0280  -12.8760   22.0830 N   0  0  0  0  0  0  0  0  0  0  0  0
  -22.2950  -14.6080   20.7070 O   0  0  0  0  0  0  0  0  0  0  0  0
  -22.4040  -12.0450   22.5160 H   0  0  0  0  0  0  0  0  0  0  0  0
  -21.0930  -13.1750   22.3230 H   0  0  0  0  0  0  0  0  0  0  0  0
  -25.3450  -15.2610   20.3660 N   0  0  0  0  0  0  0  0  0  0  0  0
  -24.5700  -15.9030   20.4900 H   0  0  0  0  0  0  0  0  0  0  0  0
  -26.1650  -15.7040   19.9760 H   0  0  0  0  0  0  0  0  0  0  0  0
  -27.8990  -24.5980   20.0900 C   0  0  0  0  0  2  0  0  0  0  0  0
  -28.2090  -26.1360   20.2520 O   0  0  0  0  0  0  0  0  0  0  0  0
  -24.6210  -31.8960   23.2360 C   0  0  0  0  0  0  0  0  0  0  0  0
  -27.1670  -27.1460   20.1970 C   0  0  0  0  0  0  0  0  0  0  0  0
  -23.4150  -30.5070   21.5980 C   0  0  0  0  0  3  0  0  0  0  0  0
  -24.8530  -28.9270   20.1690 C   0  0  0  0  0  0  0  0  0  0  0  0
  -25.9730  -30.7510   21.4370 C   0  0  0  0  0  2  0  0  0  0  0  0
  -26.0380  -29.3580   20.7800 C   0  0  0  0  0  0  0  0  0  0  0  0
  -27.1950  -28.4840   20.7740 C   0  0  0  0  0  3  0  0  0  0  0  0
  -25.9530  -26.8270   19.5490 C   0  0  0  0  0  3  0  0  0  0  0  0
  -24.8250  -27.6750   19.5390 C   0  0  0  0  0  3  0  0  0  0  0  0
  -23.6310  -29.8320   20.2190 C   0  0  0  0  0  2  0  0  0  0  0  0
  -24.6900  -31.0740   22.1440 N   0  0  0  0  0  0  0  0  0  0  0  0
  -23.5350  -32.1860   23.7630 O   0  0  0  0  0  0  0  0  0  0  0  0
  -22.7310  -29.5020   22.5610 C   0  0  0  0  0  0  0  0  0  0  0  0
  -21.4020  -29.3370   22.4350 N   0  0  0  0  0  0  0  0  0  0  0  0
  -23.3990  -28.8750   23.3860 O   0  0  0  0  0  0  0  0  0  0  0  0
  -20.9210  -29.8930   21.7420 H   0  0  0  0  0  0  0  0  0  0  0  0
  -18.0130  -28.1610   22.9450 C   0  0  0  0  0  0  0  0  0  0  0  0
  -20.5750  -28.4060   23.2060 C   0  0  0  0  0  3  0  0  0  0  0  0
  -20.6650  -26.9750   22.6280 C   0  0  0  0  0  2  0  0  0  0  0  0
  -19.5580  -26.6610   21.6170 C   0  0  0  0  0  2  0  0  0  0  0  0
  -18.1780  -26.8130   22.2640 C   0  0  0  0  0  2  0  0  0  0  0  0
  -19.1380  -28.9160   23.3730 C   0  0  0  0  0  0  0  0  0  0  0  0
  -18.9280  -30.1780   23.9720 C   0  0  0  0  0  3  0  0  0  0  0  0
  -17.6260  -30.6840   24.1460 C   0  0  0  0  0  3  0  0  0  0  0  0
  -16.5160  -29.9270   23.7330 C   0  0  0  0  0  3  0  0  0  0  0  0
  -16.7100  -28.6680   23.1380 C   0  0  0  0  0  3  0  0  0  0  0  0
  -25.9010  -32.5250   23.8660 C   0  0  0  0  0  3  0  0  0  0  0  0
  -25.5920  -33.9240   24.2030 N   0  0  0  0  0  0  0  0  0  0  0  0
  -25.9060  -34.9820   23.4430 C   0  0  0  0  0  0  0  0  0  0  0  0
  -26.5510  -34.8820   22.3960 O   0  0  0  0  0  0  0  0  0  0  0  0
  -25.0150  -34.0750   25.0180 H   0  0  0  0  0  0  0  0  0  0  0  0
  -24.1560  -36.7680   23.1540 C   0  0  0  0  0  1  0  0  0  0  0  0
  -25.4290  -36.3690   23.9180 C   0  0  0  0  0  3  0  0  0  0  0  0
  -27.5860  -37.2700   24.6720 C   0  0  0  0  0  1  0  0  0  0  0  0
  -26.4510  -37.4280   23.7660 N   0  0  0  0  0  0  0  0  0  0  0  0
  -26.0440  -38.3460   23.9240 H   0  0  0  0  0  0  0  0  0  0  0  0
  -26.4080  -31.7500   25.1450 C   0  0  1  0  0  0  0  0  0  0  0  0
  -25.3100  -31.5180   26.2090 C   0  0  0  0  0  1  0  0  0  0  0  0
  -26.9860  -30.3690   24.7600 C   0  0  0  0  0  1  0  0  0  0  0  0
  -27.5590  -32.5420   25.8110 C   0  0  0  0  0  1  0  0  0  0  0  0
  2  1  2  0
  3  8  2  0
  3  4  1  0
  4  7  2  0
  5  2  1  0
  6  3  1  0
  7  1  1  0
  8  2  1  0
  9 11  1  0
  9 10  1  0
 10  1  1  0
 11 20  1  0
 11 10  1  0
 12 20  1  0
 13 18  1  0
 14 15  1  0
 14 13  1  0
 16 15  1  0
 16 25  1  0
 16 17  1  0
 18 12  1  0
 18 17  1  0
 19 12  2  0
 20 21  1  0
 22 23  2  0
 23 42  1  0
 24 23  1  0
 24 27  1  0
 25 26  1  0
 25 22  1  0
 26 24  2  0
 27 28  1  0
 28 29  2  0
 30 33  1  0
 30 29  1  0
 31 30  2  0
 32 31  1  0
 32 27  2  0
 33 34  1  0
 34 35  1  0
 35 36  2  0
 37 36  1  0
 37 41  1  0
 38 37  2  0
 39 34  2  0
 39 38  1  0
 40 39  1  0
 42 43  1  0
 43 46  1  0
 43 45  1  0
 44 42  2  0
 47 48  1  0
 47 22  1  0
 49 47  1  0
 50  4  1  0
 50 51  1  0
 52 63  2  0
 53 51  1  0
 53 58  1  0
 54 62  1  0
 54 64  1  0
 55 61  1  0
 55 57  1  0
 56 62  1  0
 57 56  1  0
 58 57  2  0
 59 53  2  0
 60 59  1  0
 60 55  2  0
 61 54  1  0
 62 52  1  0
 64 66  2  0
 65 64  1  0
 67 65  1  0
 68 77  2  0
 68 73  1  0
 69 65  1  0
 69 73  1  0
 70 69  1  0
 71 72  1  0
 71 70  1  0
 72 68  1  0
 73 74  2  0
 74 75  1  0
 76 75  2  0
 77 76  1  0
 78 52  1  0
 78 79  1  0
 78 88  1  0
 79 82  1  0
 80 84  1  0
 80 79  1  0
 81 80  2  0
 84 83  1  0
 86 84  1  0
 86 87  1  0
 86 85  1  0
 88 91  1  1
 88 89  1  0
 90 88  1  0
M  ISO  4  12 100  20 100  50 101  51 101
M  END
>  <TORSDO>  (90) 
F 18

>  <SCORE>  (90) 
-14.706

>  <name>  (90) 
89

>  <ligand_id>  (90) 
89

>  <original_smiles>  (90) 
[H]c1c([H])c([H])c2c(c1[H])C([H])([H])C([H])([H])C([H])([H])C2([H])N([H])C(=O)C1([H])N(C(=O)C([H])(N([H])C(=O)C([H])(N([H])C([H])([H])[H])C([H])([H])[H])C(C([H])([H])[H])(C([H])([H])[H])C([H])([H])[H])C([H])([H])c2c([H])c(OC([H])([H])c3nc(C4([H])C([H])([H])C4([H])N([H])C(=O)N4C([H])([H])C([H])([H])C([H])([H])C([H])(n5nc(-c6c([H])c([H])c(Oc7c([H])c([H])c(F)c([H])c7F)c([H])c6[H])c(C(=O)N([H])[H])c5N([H])[H])C4([H])[H])c(C([H])([H])[H])nc3C([H])([H])[H])c([H])c([H])c2C1([H])[H]

>  <smiles>  (90) 
[H]c1c([H])c([H])c2c(c1[H])C([H])([H])C([H])([H])C([H])([H])C2([H])N([H])C(=O)C1([H])N(C(=O)C([H])(N([H])C(=O)C([H])(N([H])C([H])([H])[H])C([H])([H])[H])C(C([H])([H])[H])(C([H])([H])[H])C([H])([H])[H])C([H])([H])c2c([H])c(OC([H])([H])c3nc(C4([H])C([H])([H])C4([H])N([H])C(=O)N4C([H])([H])C([H])([H])C([H])([H])C([H])(n5nc(-c6c([H])c([H])c(Oc7c([H])c([H])c(F)c([H])c7F)c([H])c6[H])c(C(=O)N([H])[H])c5N([H])[H])C4([H])[H])c(C([H])([H])[H])nc3C([H])([H])[H])c([H])c([H])c2C1([H])[H]

$$$$
90:0:0
     RDKit          3D

 88 97  0  0  1  0  0  0  0  0999 V2000
  -30.9050  -20.9490   19.9050 C   0  0  0  0  0  3  0  0  0  0  0  0
  -30.3460  -23.2550   19.9030 C   0  0  0  0  0  3  0  0  0  0  0  0
  -29.5870  -20.5060   20.1750 C   0  0  0  0  0  0  0  0  0  0  0  0
  -28.9770  -23.0350   20.1750 C   0  0  0  0  0  0  0  0  0  0  0  0
  -31.2680  -22.2590   19.7780 N   0  0  0  0  0  0  0  0  0  0  0  0
  -28.6360  -21.6100   20.3020 N   0  0  0  0  0  0  0  0  0  0  0  0
  -30.4780  -15.1900   20.2120 C   0  0  0  0  0  0  0  0  0  0  0  0
  -30.3560  -12.7830   19.3150 C   0  0  0  0  0  2  0  0  0  0  0  0
  -29.4090  -12.6470   18.0980 C   0  0  0  0  0  2  0  0  0  0  0  0
  -27.9600  -12.4070   18.5580 C   0  0  0  0  0  2  0  0  0  0  0  0
  -27.5500  -13.3420   19.7260 C   0  0  0  0  0  3  0  0  0  0  0  0
  -28.6300  -13.4510   20.8240 C   0  0  0  0  0  2  0  0  0  0  0  0
  -29.8620  -13.9170   20.1680 N   0  0  0  0  0  0  0  0  0  0  0  0
  -31.6860  -15.1730   19.9450 O   0  0  0  0  0  0  0  0  0  0  0  0
  -29.7570  -17.6100   19.2640 C   0  0  0  0  0  2  0  0  0  0  0  0
  -30.1020  -17.6840   21.2070 C   0  0  0  0  0  2  0  0  0  0  0  0
  -29.3720  -18.8000   20.2890 C   0  0  0  0  0  3  0  0  0  0  0  0
  -29.7680  -16.4710   20.3100 N   0  0  0  0  0  0  0  0  0  0  0  0
  -25.1930  -13.8820   20.5480 C   0  0  0  0  0  0  0  0  0  0  0  0
  -24.1420  -13.0950   20.9290 C   0  0  0  0  0  0  0  0  0  0  0  0
  -24.6100  -11.7460   20.8600 C   0  0  0  0  0  0  0  0  0  0  0  0
  -26.2330  -13.0150   20.2640 N   0  0  0  0  0  0  0  0  0  0  0  0
  -25.8940  -11.7240   20.5200 N   0  0  0  0  0  0  0  0  0  0  0  0
  -23.8900  -10.4770   21.0460 C   0  0  0  0  0  0  0  0  0  0  0  0
  -24.3360   -9.5040   21.9670 C   0  0  0  0  0  3  0  0  0  0  0  0
  -23.6160   -8.3030   22.1430 C   0  0  0  0  0  3  0  0  0  0  0  0
  -22.4360   -8.0660   21.3990 C   0  0  0  0  0  0  0  0  0  0  0  0
  -22.0080   -9.0270   20.4680 C   0  0  0  0  0  3  0  0  0  0  0  0
  -22.7270  -10.2210   20.2890 C   0  0  0  0  0  3  0  0  0  0  0  0
  -21.6880   -6.9150   21.4830 O   0  0  0  0  0  0  0  0  0  0  0  0
  -21.6400   -6.1700   22.6320 C   0  0  0  0  0  0  0  0  0  0  0  0
  -21.1890   -6.7140   23.8540 C   0  0  0  0  0  3  0  0  0  0  0  0
  -21.0890   -5.8930   24.9950 C   0  0  0  0  0  3  0  0  0  0  0  0
  -21.4320   -4.5300   24.9170 C   0  0  0  0  0  0  0  0  0  0  0  0
  -21.8760   -3.9850   23.6980 C   0  0  0  0  0  3  0  0  0  0  0  0
  -21.9770   -4.8020   22.5600 C   0  0  0  0  0  0  0  0  0  0  0  0
  -22.3860   -4.2680   21.3850 F   0  0  0  0  0  0  0  0  0  0  0  0
  -21.3300   -3.7410   26.0120 F   0  0  0  0  0  0  0  0  0  0  0  0
  -22.7490  -13.5590   21.2410 C   0  0  0  0  0  0  0  0  0  0  0  0
  -22.0470  -12.8520   22.1190 N   0  0  0  0  0  0  0  0  0  0  0  0
  -22.2950  -14.5870   20.7370 O   0  0  0  0  0  0  0  0  0  0  0  0
  -22.4330  -12.0230   22.5470 H   0  0  0  0  0  0  0  0  0  0  0  0
  -21.1100  -13.1410   22.3620 H   0  0  0  0  0  0  0  0  0  0  0  0
  -25.3520  -15.2560   20.3920 N   0  0  0  0  0  0  0  0  0  0  0  0
  -24.5930  -15.9130   20.5350 H   0  0  0  0  0  0  0  0  0  0  0  0
  -26.2030  -15.7000   20.0690 H   0  0  0  0  0  0  0  0  0  0  0  0
  -27.9320  -24.3960   20.2100 C   0  0  0  0  0  2  0  0  0  0  0  0
  -28.2320  -25.9910   20.2850 O   0  0  0  0  0  0  0  0  0  0  0  0
  -24.6570  -31.8920   23.2590 C   0  0  0  0  0  0  0  0  0  0  0  0
  -27.2020  -27.0520   20.2410 C   0  0  0  0  0  0  0  0  0  0  0  0
  -23.4540  -30.5040   21.6190 C   0  0  0  0  0  3  0  0  0  0  0  0
  -24.8940  -28.8970   20.2020 C   0  0  0  0  0  0  0  0  0  0  0  0
  -26.0180  -30.7190   21.4680 C   0  0  0  0  0  2  0  0  0  0  0  0
  -26.0820  -29.3120   20.8170 C   0  0  0  0  0  0  0  0  0  0  0  0
  -27.2330  -28.4100   20.8120 C   0  0  0  0  0  3  0  0  0  0  0  0
  -25.9810  -26.7730   19.5860 C   0  0  0  0  0  3  0  0  0  0  0  0
  -24.8650  -27.6460   19.5670 C   0  0  0  0  0  3  0  0  0  0  0  0
  -23.6770  -29.8180   20.2450 C   0  0  0  0  0  2  0  0  0  0  0  0
  -24.7310  -31.0630   22.1690 N   0  0  0  0  0  0  0  0  0  0  0  0
  -23.5700  -32.1900   23.7790 O   0  0  0  0  0  0  0  0  0  0  0  0
  -22.7540  -29.5120   22.5860 C   0  0  0  0  0  0  0  0  0  0  0  0
  -21.4240  -29.3530   22.4540 N   0  0  0  0  0  0  0  0  0  0  0  0
  -23.4140  -28.8890   23.4210 O   0  0  0  0  0  0  0  0  0  0  0  0
  -20.9450  -29.9080   21.7590 H   0  0  0  0  0  0  0  0  0  0  0  0
  -18.0350  -28.1590   22.9440 C   0  0  0  0  0  0  0  0  0  0  0  0
  -20.5930  -28.4220   23.2260 C   0  0  0  0  0  3  0  0  0  0  0  0
  -20.6970  -26.9870   22.6600 C   0  0  0  0  0  2  0  0  0  0  0  0
  -19.6030  -26.6590   21.6410 C   0  0  0  0  0  2  0  0  0  0  0  0
  -18.2160  -26.8070   22.2740 C   0  0  0  0  0  2  0  0  0  0  0  0
  -19.1510  -28.9240   23.3780 C   0  0  0  0  0  0  0  0  0  0  0  0
  -18.9290  -30.1860   23.9700 C   0  0  0  0  0  3  0  0  0  0  0  0
  -17.6220  -30.6870   24.1270 C   0  0  0  0  0  3  0  0  0  0  0  0
  -16.5210  -29.9220   23.7100 C   0  0  0  0  0  3  0  0  0  0  0  0
  -16.7270  -28.6580   23.1270 C   0  0  0  0  0  3  0  0  0  0  0  0
  -25.9330  -32.5270   23.8910 C   0  0  0  0  0  3  0  0  0  0  0  0
  -25.6240  -33.9280   24.2250 N   0  0  0  0  0  0  0  0  0  0  0  0
  -25.9350  -34.9850   23.4630 C   0  0  0  0  0  0  0  0  0  0  0  0
  -26.5740  -34.8830   22.4130 O   0  0  0  0  0  0  0  0  0  0  0  0
  -25.0520  -34.0790   25.0430 H   0  0  0  0  0  0  0  0  0  0  0  0
  -24.1840  -36.7730   23.1890 C   0  0  0  0  0  1  0  0  0  0  0  0
  -25.4650  -36.3740   23.9390 C   0  0  0  0  0  3  0  0  0  0  0  0
  -27.6280  -37.2800   24.6640 C   0  0  0  0  0  1  0  0  0  0  0  0
  -26.4830  -37.4330   23.7710 N   0  0  0  0  0  0  0  0  0  0  0  0
  -26.0770  -38.3520   23.9290 H   0  0  0  0  0  0  0  0  0  0  0  0
  -26.4320  -31.7580   25.1770 C   0  0  1  0  0  0  0  0  0  0  0  0
  -25.3300  -31.5300   26.2380 C   0  0  0  0  0  1  0  0  0  0  0  0
  -27.0060  -30.3730   24.8020 C   0  0  0  0  0  1  0  0  0  0  0  0
  -27.5840  -32.5450   25.8450 C   0  0  0  0  0  1  0  0  0  0  0  0
  1  3  1  0
  2  4  2  0
  3  6  2  0
  4 47  1  0
  4  6  1  0
  5  2  1  0
  5  1  2  0
  7 18  1  0
  8 13  1  0
  9 10  1  0
  9  8  1  0
 11 10  1  0
 11 22  1  0
 11 12  1  0
 13  7  1  0
 13 12  1  0
 14  7  2  0
 15 17  1  0
 15 18  1  0
 17  3  1  0
 17 16  1  0
 18 16  1  0
 19 20  2  0
 20 39  1  0
 21 20  1  0
 21 24  1  0
 22 23  1  0
 22 19  1  0
 23 21  2  0
 24 25  1  0
 25 26  2  0
 27 30  1  0
 27 26  1  0
 28 27  2  0
 29 28  1  0
 29 24  2  0
 30 31  1  0
 31 32  1  0
 32 33  2  0
 34 33  1  0
 34 38  1  0
 35 34  2  0
 36 31  2  0
 36 35  1  0
 37 36  1  0
 39 40  1  0
 40 43  1  0
 40 42  1  0
 41 39  2  0
 44 45  1  0
 44 19  1  0
 46 44  1  0
 47 48  1  0
 49 60  2  0
 50 48  1  0
 50 55  1  0
 51 59  1  0
 51 61  1  0
 52 58  1  0
 52 54  1  0
 53 59  1  0
 54 53  1  0
 55 54  2  0
 56 50  2  0
 57 56  1  0
 57 52  2  0
 58 51  1  0
 59 49  1  0
 61 63  2  0
 62 61  1  0
 64 62  1  0
 65 74  2  0
 65 70  1  0
 66 62  1  0
 66 70  1  0
 67 66  1  0
 68 69  1  0
 68 67  1  0
 69 65  1  0
 70 71  2  0
 71 72  1  0
 73 72  2  0
 74 73  1  0
 75 49  1  0
 75 76  1  0
 75 85  1  0
 76 79  1  0
 77 81  1  0
 77 76  1  0
 78 77  2  0
 81 80  1  0
 83 84  1  0
 83 81  1  0
 83 82  1  0
 85 88  1  1
 85 86  1  0
 87 85  1  0
M  ISO  4   7 100  18 100  47 101  48 101
M  END
>  <TORSDO>  (91) 
F 17

>  <SCORE>  (91) 
-16.212

>  <name>  (91) 
90

>  <ligand_id>  (91) 
90

>  <original_smiles>  (91) 
[H]c1nc([H])c(C2([H])C([H])([H])N(C(=O)N3C([H])([H])C([H])([H])C([H])([H])C([H])(n4nc(-c5c([H])c([H])c(Oc6c([H])c([H])c(F)c([H])c6F)c([H])c5[H])c(C(=O)N([H])[H])c4N([H])[H])C3([H])[H])C2([H])[H])nc1C([H])([H])Oc1c([H])c([H])c2c(c1[H])C([H])([H])N(C(=O)C([H])(N([H])C(=O)C([H])(N([H])C([H])([H])[H])C([H])([H])[H])C(C([H])([H])[H])(C([H])([H])[H])C([H])([H])[H])C([H])(C(=O)N([H])C1([H])c3c([H])c([H])c([H])c([H])c3C([H])([H])C([H])([H])C1([H])[H])C2([H])[H]

>  <smiles>  (91) 
[H]c1nc([H])c(C2([H])C([H])([H])N(C(=O)N3C([H])([H])C([H])([H])C([H])([H])C([H])(n4nc(-c5c([H])c([H])c(Oc6c([H])c([H])c(F)c([H])c6F)c([H])c5[H])c(C(=O)N([H])[H])c4N([H])[H])C3([H])[H])C2([H])[H])nc1C([H])([H])Oc1c([H])c([H])c2c(c1[H])C([H])([H])N(C(=O)C([H])(N([H])C(=O)C([H])(N([H])C([H])([H])[H])C([H])([H])[H])C(C([H])([H])[H])(C([H])([H])[H])C([H])([H])[H])C([H])(C(=O)N([H])C1([H])c3c([H])c([H])c([H])c([H])c3C([H])([H])C([H])([H])C1([H])[H])C2([H])[H]

$$$$
91:0:0
     RDKit          3D

 93102  0  0  1  0  0  0  0  0999 V2000
  -29.9440  -22.5360   19.2600 C   0  0  0  0  0  3  0  0  0  0  0  0
  -29.9490  -21.5300   20.2720 C   0  0  0  0  0  0  0  0  0  0  0  0
  -28.8490  -23.0420   21.6610 C   0  0  0  0  0  0  0  0  0  0  0  0
  -28.8800  -24.0640   20.6590 C   0  0  0  0  0  0  0  0  0  0  0  0
  -28.2330  -23.2990   23.0220 C   0  0  0  0  0  1  0  0  0  0  0  0
  -29.4180  -23.7870   19.4420 N   0  0  0  0  0  0  0  0  0  0  0  0
  -29.3780  -21.7940   21.4750 N   0  0  0  0  0  0  0  0  0  0  0  0
  -30.7660  -20.2140   20.1040 C   0  0  0  0  0  2  0  0  0  0  0  0
  -30.7920  -14.6950   20.1810 C   0  0  0  0  0  0  0  0  0  0  0  0
  -30.4930  -12.4950   19.0730 C   0  0  0  0  0  2  0  0  0  0  0  0
  -29.5070  -12.6560   17.8950 C   0  0  0  0  0  2  0  0  0  0  0  0
  -28.0500  -12.4990   18.3740 C   0  0  0  0  0  2  0  0  0  0  0  0
  -27.7400  -13.3390   19.6430 C   0  0  0  0  0  3  0  0  0  0  0  0
  -28.8410  -13.1730   20.7150 C   0  0  0  0  0  2  0  0  0  0  0  0
  -30.1280  -13.5030   20.0860 N   0  0  0  0  0  0  0  0  0  0  0  0
  -31.9550  -14.8240   19.7950 O   0  0  0  0  0  0  0  0  0  0  0  0
  -30.1990  -16.6350   21.6690 C   0  0  0  0  0  2  0  0  0  0  0  0
  -29.4210  -16.6010   19.3580 C   0  0  0  0  0  2  0  0  0  0  0  0
  -30.7830  -18.0750   21.4420 C   0  0  0  0  0  2  0  0  0  0  0  0
  -30.0380  -18.0180   19.1320 C   0  0  0  0  0  2  0  0  0  0  0  0
  -30.0350  -15.8100   20.4500 N   0  0  0  0  0  0  0  0  0  0  0  0
  -30.1160  -18.8660   20.3590 N   0  0  2  0  0  4  0  0  0  0  0  0
  -29.1750  -19.0710   20.6620 H   0  0  0  0  0  0  0  0  0  0  0  0
  -25.3770  -13.9350   20.4550 C   0  0  0  0  0  0  0  0  0  0  0  0
  -24.3200  -13.1600   20.8490 C   0  0  0  0  0  0  0  0  0  0  0  0
  -24.7770  -11.8090   20.7830 C   0  0  0  0  0  0  0  0  0  0  0  0
  -26.4090  -13.0550   20.1710 N   0  0  0  0  0  0  0  0  0  0  0  0
  -26.0550  -11.7690   20.4280 N   0  0  0  0  0  0  0  0  0  0  0  0
  -24.0530  -10.5460   20.9790 C   0  0  0  0  0  0  0  0  0  0  0  0
  -24.4940   -9.5790   21.9080 C   0  0  0  0  0  3  0  0  0  0  0  0
  -23.7720   -8.3790   22.0930 C   0  0  0  0  0  3  0  0  0  0  0  0
  -22.5930   -8.1410   21.3480 C   0  0  0  0  0  0  0  0  0  0  0  0
  -22.1720   -9.0950   20.4060 C   0  0  0  0  0  3  0  0  0  0  0  0
  -22.8940  -10.2840   20.2200 C   0  0  0  0  0  3  0  0  0  0  0  0
  -21.8390   -6.9960   21.4430 O   0  0  0  0  0  0  0  0  0  0  0  0
  -21.7760   -6.2680   22.6040 C   0  0  0  0  0  0  0  0  0  0  0  0
  -21.3050   -6.8310   23.8100 C   0  0  0  0  0  3  0  0  0  0  0  0
  -21.1950   -6.0290   24.9640 C   0  0  0  0  0  3  0  0  0  0  0  0
  -21.5410   -4.6660   24.9110 C   0  0  0  0  0  0  0  0  0  0  0  0
  -22.0020   -4.1030   23.7080 C   0  0  0  0  0  3  0  0  0  0  0  0
  -22.1170   -4.9020   22.5570 C   0  0  0  0  0  0  0  0  0  0  0  0
  -22.5430   -4.3480   21.3960 F   0  0  0  0  0  0  0  0  0  0  0  0
  -21.4270   -3.8940   26.0160 F   0  0  0  0  0  0  0  0  0  0  0  0
  -22.9350  -13.6380   21.1720 C   0  0  0  0  0  0  0  0  0  0  0  0
  -22.2320  -12.9320   22.0490 N   0  0  0  0  0  0  0  0  0  0  0  0
  -22.4860  -14.6720   20.6810 O   0  0  0  0  0  0  0  0  0  0  0  0
  -22.6110  -12.0930   22.4680 H   0  0  0  0  0  0  0  0  0  0  0  0
  -21.3010  -13.2300   22.3060 H   0  0  0  0  0  0  0  0  0  0  0  0
  -25.5420  -15.3070   20.2950 N   0  0  0  0  0  0  0  0  0  0  0  0
  -24.7810  -15.9640   20.4420 H   0  0  0  0  0  0  0  0  0  0  0  0
  -26.3890  -15.7440   19.9600 H   0  0  0  0  0  0  0  0  0  0  0  0
  -28.2700  -25.4710   20.9540 C   0  0  0  0  0  2  0  0  0  0  0  0
  -28.4640  -26.5900   20.0340 O   0  0  0  0  0  0  0  0  0  0  0  0
  -24.6100  -31.7990   23.1340 C   0  0  0  0  0  0  0  0  0  0  0  0
  -27.3560  -27.4250   19.9950 C   0  0  0  0  0  0  0  0  0  0  0  0
  -23.4480  -30.3980   21.4600 C   0  0  0  0  0  3  0  0  0  0  0  0
  -24.9480  -28.9240   20.0110 C   0  0  0  0  0  0  0  0  0  0  0  0
  -25.9740  -30.8100   21.2870 C   0  0  0  0  0  2  0  0  0  0  0  0
  -26.0970  -29.4500   20.6190 C   0  0  0  0  0  0  0  0  0  0  0  0
  -27.3120  -28.7070   20.6070 C   0  0  0  0  0  3  0  0  0  0  0  0
  -26.1930  -26.9420   19.3590 C   0  0  0  0  0  3  0  0  0  0  0  0
  -24.9940  -27.6760   19.3750 C   0  0  0  0  0  3  0  0  0  0  0  0
  -23.6830  -29.7530   20.0690 C   0  0  0  0  0  2  0  0  0  0  0  0
  -24.6950  -31.0170   22.0180 N   0  0  0  0  0  0  0  0  0  0  0  0
  -23.5190  -32.0380   23.6700 O   0  0  0  0  0  0  0  0  0  0  0  0
  -22.8130  -29.3450   22.4000 C   0  0  0  0  0  0  0  0  0  0  0  0
  -21.4930  -29.1340   22.2630 N   0  0  0  0  0  0  0  0  0  0  0  0
  -23.5070  -28.7230   23.2080 O   0  0  0  0  0  0  0  0  0  0  0  0
  -20.9930  -29.6900   21.5840 H   0  0  0  0  0  0  0  0  0  0  0  0
  -18.1440  -27.8450   22.7140 C   0  0  0  0  0  0  0  0  0  0  0  0
  -20.6940  -28.1620   23.0110 C   0  0  0  0  0  3  0  0  0  0  0  0
  -20.8360  -26.7450   22.4110 C   0  0  0  0  0  2  0  0  0  0  0  0
  -19.7510  -26.4130   21.3830 C   0  0  0  0  0  2  0  0  0  0  0  0
  -18.3610  -26.5130   22.0170 C   0  0  0  0  0  2  0  0  0  0  0  0
  -19.2410  -28.6280   23.1670 C   0  0  0  0  0  0  0  0  0  0  0  0
  -18.9860  -29.8750   23.7760 C   0  0  0  0  0  3  0  0  0  0  0  0
  -17.6680  -30.3440   23.9360 C   0  0  0  0  0  3  0  0  0  0  0  0
  -16.5870  -29.5560   23.5050 C   0  0  0  0  0  3  0  0  0  0  0  0
  -16.8260  -28.3090   22.8990 C   0  0  0  0  0  3  0  0  0  0  0  0
  -25.8760  -32.4530   23.7720 C   0  0  0  0  0  3  0  0  0  0  0  0
  -25.5330  -33.8370   24.1250 N   0  0  0  0  0  0  0  0  0  0  0  0
  -25.8430  -34.9110   23.3850 C   0  0  0  0  0  0  0  0  0  0  0  0
  -26.5200  -34.8430   22.3550 O   0  0  0  0  0  0  0  0  0  0  0  0
  -24.9300  -33.9630   24.9240 H   0  0  0  0  0  0  0  0  0  0  0  0
  -24.0800  -36.6720   23.0410 C   0  0  0  0  0  1  0  0  0  0  0  0
  -25.3170  -36.2780   23.8630 C   0  0  0  0  0  3  0  0  0  0  0  0
  -27.4180  -37.1910   24.7470 C   0  0  0  0  0  1  0  0  0  0  0  0
  -26.3250  -37.3590   23.7930 N   0  0  0  0  0  0  0  0  0  0  0  0
  -25.8930  -38.2630   23.9640 H   0  0  0  0  0  0  0  0  0  0  0  0
  -26.4070  -31.6730   25.0370 C   0  0  1  0  0  0  0  0  0  0  0  0
  -25.3160  -31.3890   26.0960 C   0  0  0  0  0  1  0  0  0  0  0  0
  -27.0240  -30.3160   24.6230 C   0  0  0  0  0  1  0  0  0  0  0  0
  -27.5340  -32.4820   25.7210 C   0  0  0  0  0  1  0  0  0  0  0  0
  1  6  2  0
  1  2  1  0
  2  7  2  0
  3  5  1  0
  4 52  1  0
  4  3  2  0
  6  4  1  0
  7  3  1  0
  8  2  1  0
  8 22  1  0
  9 21  1  0
 10 15  1  0
 11 12  1  0
 11 10  1  0
 13 12  1  0
 13 27  1  0
 13 14  1  0
 15  9  1  0
 15 14  1  0
 16  9  2  0
 18 21  1  0
 19 17  1  0
 20 18  1  0
 20 22  1  0
 21 17  1  0
 22 23  1  1
 22 19  1  0
 24 25  2  0
 25 44  1  0
 26 25  1  0
 26 29  1  0
 27 28  1  0
 27 24  1  0
 28 26  2  0
 29 30  1  0
 30 31  2  0
 32 35  1  0
 32 31  1  0
 33 32  2  0
 34 33  1  0
 34 29  2  0
 35 36  1  0
 36 37  1  0
 37 38  2  0
 39 38  1  0
 39 43  1  0
 40 39  2  0
 41 36  2  0
 41 40  1  0
 42 41  1  0
 44 45  1  0
 45 48  1  0
 45 47  1  0
 46 44  2  0
 49 50  1  0
 49 24  1  0
 51 49  1  0
 53 52  1  0
 54 65  2  0
 55 53  1  0
 55 60  1  0
 56 64  1  0
 56 66  1  0
 57 63  1  0
 57 59  1  0
 58 64  1  0
 59 58  1  0
 60 59  2  0
 61 62  1  0
 61 55  2  0
 62 57  2  0
 63 56  1  0
 64 54  1  0
 66 68  2  0
 67 66  1  0
 69 67  1  0
 70 79  2  0
 70 75  1  0
 71 67  1  0
 71 75  1  0
 72 71  1  0
 73 74  1  0
 73 72  1  0
 74 70  1  0
 75 76  2  0
 76 77  1  0
 78 77  2  0
 79 78  1  0
 80 54  1  0
 80 81  1  0
 80 90  1  0
 81 84  1  0
 82 86  1  0
 82 81  1  0
 83 82  2  0
 86 85  1  0
 88 86  1  0
 88 89  1  0
 88 87  1  0
 90 93  1  1
 90 91  1  0
 92 90  1  0
M  ISO  4   9 100  21 100  52 101  53 101
M  END
>  <TORSDO>  (92) 
F 18

>  <SCORE>  (92) 
-13.889

>  <name>  (92) 
91

>  <ligand_id>  (92) 
91

>  <original_smiles>  (92) 
[H]c1nc(C([H])([H])Oc2c([H])c([H])c3c(c2[H])C([H])([H])N(C(=O)C([H])(N([H])C(=O)C([H])(N([H])C([H])([H])[H])C([H])([H])[H])C(C([H])([H])[H])(C([H])([H])[H])C([H])([H])[H])C([H])(C(=O)N([H])C2([H])c4c([H])c([H])c([H])c([H])c4C([H])([H])C([H])([H])C2([H])[H])C3([H])[H])c(C([H])([H])[H])nc1C([H])([H])[N+]1([H])C([H])([H])C([H])([H])N(C(=O)N2C([H])([H])C([H])([H])C([H])([H])C([H])(n3nc(-c4c([H])c([H])c(Oc5c([H])c([H])c(F)c([H])c5F)c([H])c4[H])c(C(=O)N([H])[H])c3N([H])[H])C2([H])[H])C([H])([H])C1([H])[H]

>  <smiles>  (92) 
[H]c1nc(C([H])([H])Oc2c([H])c([H])c3c(c2[H])C([H])([H])N(C(=O)C([H])(N([H])C(=O)C([H])(N([H])C([H])([H])[H])C([H])([H])[H])C(C([H])([H])[H])(C([H])([H])[H])C([H])([H])[H])C([H])(C(=O)N([H])C2([H])c4c([H])c([H])c([H])c([H])c4C([H])([H])C([H])([H])C2([H])[H])C3([H])[H])c(C([H])([H])[H])nc1C([H])([H])[N+]1([H])C([H])([H])C([H])([H])N(C(=O)N2C([H])([H])C([H])([H])C([H])([H])C([H])(n3nc(-c4c([H])c([H])c(Oc5c([H])c([H])c(F)c([H])c5F)c([H])c4[H])c(C(=O)N([H])[H])c3N([H])[H])C2([H])[H])C([H])([H])C1([H])[H]

$$$$
92:0:0
     RDKit          3D

 91 98  0  0  1  0  0  0  0  0999 V2000
  -28.7300  -20.2920   19.9840 C   0  0  0  0  0  2  0  0  0  0  0  0
  -29.1400  -18.4130   19.9390 C   0  0  0  0  0  2  0  0  0  0  0  0
  -27.4600  -20.4250   19.3390 C   0  0  0  0  0  0  0  0  0  0  0  0
  -26.8100  -18.2390   19.5290 C   0  0  0  0  0  0  0  0  0  0  0  0
  -27.9810  -17.7300   19.8060 N   0  0  0  0  0  0  0  0  0  0  0  0
  -26.5760  -19.4540   19.1410 N   0  0  0  0  0  0  0  0  0  0  0  0
  -30.1390  -16.6140   20.0530 C   0  0  0  0  0  2  0  0  0  0  0  0
  -30.6560  -13.7570   19.6860 C   0  0  0  0  0  2  0  0  0  0  0  0
  -29.9690  -12.7810   18.6340 C   0  0  0  0  0  2  0  0  0  0  0  0
  -28.6280  -12.2350   19.1260 C   0  0  0  0  0  2  0  0  0  0  0  0
  -27.9040  -13.3610   19.8740 C   0  0  0  0  0  3  0  0  0  0  0  0
  -28.7750  -14.1970   20.8790 C   0  0  0  0  0  2  0  0  0  0  0  0
  -29.8250  -15.0490   20.1610 N   0  0  0  0  0  0  0  0  0  0  0  0
  -31.3990  -16.4440   19.9720 O   0  0  0  0  0  1  0  0  0  0  0  0
  -25.5540  -13.8530   20.6210 C   0  0  0  0  0  0  0  0  0  0  0  0
  -24.4820  -13.1020   20.9940 C   0  0  0  0  0  0  0  0  0  0  0  0
  -24.9220  -11.7430   20.9430 C   0  0  0  0  0  0  0  0  0  0  0  0
  -26.5920  -12.9800   20.3940 N   0  0  0  0  0  0  0  0  0  0  0  0
  -26.2220  -11.6880   20.6320 N   0  0  0  0  0  0  0  0  0  0  0  0
  -24.1450  -10.5030   21.1080 C   0  0  0  0  0  0  0  0  0  0  0  0
  -24.5550   -9.4790   21.9890 C   0  0  0  0  0  3  0  0  0  0  0  0
  -23.7720   -8.3130   22.1480 C   0  0  0  0  0  3  0  0  0  0  0  0
  -22.5620   -8.1640   21.4290 C   0  0  0  0  0  0  0  0  0  0  0  0
  -22.1690   -9.1780   20.5380 C   0  0  0  0  0  3  0  0  0  0  0  0
  -22.9520  -10.3340   20.3760 C   0  0  0  0  0  3  0  0  0  0  0  0
  -21.7520   -7.0560   21.5010 O   0  0  0  0  0  0  0  0  0  0  0  0
  -21.7360   -6.2460   22.6100 C   0  0  0  0  0  0  0  0  0  0  0  0
  -21.4290   -6.7470   23.8940 C   0  0  0  0  0  3  0  0  0  0  0  0
  -21.3550   -5.8680   24.9930 C   0  0  0  0  0  3  0  0  0  0  0  0
  -21.5770   -4.4900   24.8100 C   0  0  0  0  0  0  0  0  0  0  0  0
  -21.8740   -3.9890   23.5300 C   0  0  0  0  0  3  0  0  0  0  0  0
  -21.9490   -4.8640   22.4330 C   0  0  0  0  0  0  0  0  0  0  0  0
  -22.2170   -4.3720   21.2000 F   0  0  0  0  0  0  0  0  0  0  0  0
  -21.4980   -3.6450   25.8650 F   0  0  0  0  0  0  0  0  0  0  0  0
  -23.0990  -13.6220   21.2540 C   0  0  0  0  0  0  0  0  0  0  0  0
  -22.3500  -12.9570   22.1250 N   0  0  0  0  0  0  0  0  0  0  0  0
  -22.7000  -14.6600   20.7290 O   0  0  0  0  0  0  0  0  0  0  0  0
  -22.6870  -12.1190   22.5740 H   0  0  0  0  0  0  0  0  0  0  0  0
  -21.4220  -13.2910   22.3440 H   0  0  0  0  0  0  0  0  0  0  0  0
  -25.7330  -15.2100   20.4000 N   0  0  0  0  0  0  0  0  0  0  0  0
  -24.9480  -15.8510   20.4330 H   0  0  0  0  0  0  0  0  0  0  0  0
  -26.5820  -15.6220   20.0340 H   0  0  0  0  0  0  0  0  0  0  0  0
  -25.8850  -22.4910   19.7840 C   0  0  0  0  0  2  0  0  0  0  0  0
  -26.8520  -21.7460   18.8820 C   0  0  0  0  0  3  0  0  0  0  0  0
  -25.3900  -21.9440   18.4760 C   0  0  0  0  0  3  0  0  0  0  0  0
  -25.0130  -22.9000   17.3540 C   0  0  0  0  0  1  0  0  0  0  0  0
  -24.3440  -17.4090   18.9390 C   0  0  0  0  0  2  0  0  0  0  0  0
  -24.3170  -17.9880   20.3410 C   0  0  0  0  0  2  0  0  0  0  0  0
  -25.5930  -17.3890   19.7980 C   0  0  0  0  0  3  0  0  0  0  0  0
  -28.8930  -22.4410   20.4430 C   0  0  0  0  0 15  0  0  0  0  0  0
  -28.3610  -24.5070   20.4470 O   0  0  0  0  0  1  0  0  0  0  0  0
  -24.6960  -31.6410   23.1240 C   0  0  0  0  0  0  0  0  0  0  0  0
  -27.3810  -25.9620   20.4500 C   0  0  0  0  0  0  0  0  0  0  0  0
  -23.6210  -30.1740   21.4810 C   0  0  0  0  0  3  0  0  0  0  0  0
  -25.1500  -28.3710   20.2250 C   0  0  0  0  0  0  0  0  0  0  0  0
  -26.2210  -30.1580   21.5480 C   0  0  0  0  0  2  0  0  0  0  0  0
  -26.3250  -28.6360   20.9380 C   0  0  0  0  0  0  0  0  0  0  0  0
  -27.3930  -27.4840   20.9910 C   0  0  0  0  0  3  0  0  0  0  0  0
  -26.1710  -26.0800   19.6590 C   0  0  0  0  0  3  0  0  0  0  0  0
  -25.1560  -27.1260   19.5570 C   0  0  0  0  0  3  0  0  0  0  0  0
  -23.9640  -29.3900   20.1680 C   0  0  0  0  0  2  0  0  0  0  0  0
  -24.8770  -30.7070   22.1060 N   0  0  0  0  0  0  0  0  0  0  0  0
  -23.5680  -31.9660   23.5410 O   0  0  0  0  0  0  0  0  0  0  0  0
  -22.8040  -29.2770   22.4550 C   0  0  0  0  0  0  0  0  0  0  0  0
  -21.4620  -29.2050   22.3240 N   0  0  0  0  0  0  0  0  0  0  0  0
  -23.4020  -28.6320   23.3190 O   0  0  0  0  0  0  0  0  0  0  0  0
  -21.0200  -29.7880   21.6270 H   0  0  0  0  0  0  0  0  0  0  0  0
  -18.0160  -28.1410   22.8530 C   0  0  0  0  0  0  0  0  0  0  0  0
  -20.5890  -28.2950   23.0860 C   0  0  0  0  0  3  0  0  0  0  0  0
  -20.6170  -26.8650   22.4980 C   0  0  0  0  0  2  0  0  0  0  0  0
  -19.4980  -26.6010   21.4840 C   0  0  0  0  0  2  0  0  0  0  0  0
  -18.1220  -26.8170   22.1180 C   0  0  0  0  0  2  0  0  0  0  0  0
  -19.1710  -28.8460   23.2890 C   0  0  0  0  0  0  0  0  0  0  0  0
  -19.0110  -30.0910   23.9350 C   0  0  0  0  0  3  0  0  0  0  0  0
  -17.7270  -30.6320   24.1410 C   0  0  0  0  0  3  0  0  0  0  0  0
  -16.5900  -29.9260   23.7180 C   0  0  0  0  0  3  0  0  0  0  0  0
  -16.7330  -28.6780   23.0860 C   0  0  0  0  0  3  0  0  0  0  0  0
  -25.8930  -32.3540   23.8310 C   0  0  0  0  0  3  0  0  0  0  0  0
  -26.3180  -31.6470   25.1800 C   0  0  1  0  0  0  0  0  0  0  0  0
  -25.1500  -31.4380   26.1750 C   0  0  0  0  0  1  0  0  0  0  0  0
  -26.9430  -30.2620   24.9100 C   0  0  0  0  0  1  0  0  0  0  0  0
  -27.4090  -32.4820   25.8910 C   0  0  0  0  0  1  0  0  0  0  0  0
  -25.5180  -33.7590   24.1240 N   0  0  0  0  0  0  0  0  0  0  0  0
  -25.8770  -34.8340   23.4070 C   0  0  0  0  0  0  0  0  0  0  0  0
  -26.6020  -34.7510   22.4130 O   0  0  0  0  0  0  0  0  0  0  0  0
  -24.8740  -33.8970   24.8880 H   0  0  0  0  0  0  0  0  0  0  0  0
  -24.1370  -36.6250   23.0190 C   0  0  0  0  0  1  0  0  0  0  0  0
  -25.3630  -36.2230   23.8560 C   0  0  0  0  0  3  0  0  0  0  0  0
  -27.4640  -37.1520   24.7360 C   0  0  0  0  0  1  0  0  0  0  0  0
  -26.3830  -37.2950   23.7660 N   0  0  0  0  0  0  0  0  0  0  0  0
  -25.9580  -38.2090   23.8970 H   0  0  0  0  0  0  0  0  0  0  0  0
  2  1  1  0
  3  1  1  0
  4 49  1  0
  4  5  2  0
  5  2  1  0
  6  3  2  0
  6  4  1  0
  7 13  1  0
  8 13  1  0
  9 10  1  0
  9  8  1  0
 11 10  1  0
 11 18  1  0
 11 12  1  0
 13 12  1  0
 14  7  1  0
 15 16  2  0
 16 35  1  0
 17 16  1  0
 17 20  1  0
 18 15  1  0
 18 19  1  0
 19 17  2  0
 20 21  1  0
 21 22  2  0
 23 26  1  0
 23 22  1  0
 24 23  2  0
 25 24  1  0
 25 20  2  0
 26 27  1  0
 27 28  1  0
 28 29  2  0
 30 29  1  0
 30 34  1  0
 31 30  2  0
 32 27  2  0
 32 31  1  0
 33 32  1  0
 35 36  1  0
 36 39  1  0
 36 38  1  0
 37 35  2  0
 40 41  1  0
 40 15  1  0
 42 40  1  0
 44  3  1  0
 44 43  1  0
 45 46  1  0
 45 44  1  0
 45 43  1  0
 47 49  1  0
 47 48  1  0
 49 48  1  0
 51 53  1  0
 52 63  2  0
 53 58  1  0
 54 62  1  0
 54 64  1  0
 55 57  1  0
 56 62  1  0
 57 58  2  0
 57 56  1  0
 59 53  2  0
 60 59  1  0
 60 55  2  0
 61 55  1  0
 61 54  1  0
 62 52  1  0
 64 66  2  0
 65 64  1  0
 67 65  1  0
 68 77  2  0
 68 73  1  0
 69 65  1  0
 69 73  1  0
 70 69  1  0
 71 72  1  0
 71 70  1  0
 72 68  1  0
 73 74  2  0
 74 75  1  0
 76 75  2  0
 77 76  1  0
 78 52  1  0
 78 83  1  0
 78 79  1  0
 79 82  1  1
 79 80  1  0
 81 79  1  0
 83 86  1  0
 84 88  1  0
 84 83  1  0
 85 84  2  0
 88 87  1  0
 90 88  1  0
 90 91  1  0
 90 89  1  0
M  ISO  4   2 100   7 100  50 101  51 101
M  END
>  <TORSDO>  (93) 
F 19

>  <SCORE>  (93) 
-11.054

>  <name>  (93) 
92

>  <ligand_id>  (93) 
92

>  <original_smiles>  (93) 
[H]c1c([H])c([H])c2c(c1[H])C([H])([H])C([H])([H])C([H])([H])C2([H])N([H])C(=O)C1([H])N(C(=O)C([H])(N([H])C(=O)C([H])(N([H])C([H])([H])[H])C([H])([H])[H])C(C([H])([H])[H])(C([H])([H])[H])C([H])([H])[H])C([H])([H])c2c([H])c(OC([H])([H])c3c(C(=O)N4C([H])([H])C([H])([H])C([H])([H])C([H])(n5nc(-c6c([H])c([H])c(Oc7c([H])c([H])c(F)c([H])c7F)c([H])c6[H])c(C(=O)N([H])[H])c5N([H])[H])C4([H])[H])nc(C4([H])C([H])([H])C4([H])[H])nc3C3([H])C([H])([H])C3([H])C([H])([H])[H])c([H])c([H])c2C1([H])[H]

>  <smiles>  (93) 
[H]c1c([H])c([H])c2c(c1[H])C([H])([H])C([H])([H])C([H])([H])C2([H])N([H])C(=O)C1([H])N(C(=O)C([H])(N([H])C(=O)C([H])(N([H])C([H])([H])[H])C([H])([H])[H])C(C([H])([H])[H])(C([H])([H])[H])C([H])([H])[H])C([H])([H])c2c([H])c(OC([H])([H])c3c(C(=O)N4C([H])([H])C([H])([H])C([H])([H])C([H])(n5nc(-c6c([H])c([H])c(Oc7c([H])c([H])c(F)c([H])c7F)c([H])c6[H])c(C(=O)N([H])[H])c5N([H])[H])C4([H])[H])nc(C4([H])C([H])([H])C4([H])[H])nc3C3([H])C([H])([H])C3([H])C([H])([H])[H])c([H])c([H])c2C1([H])[H]

$$$$
93:0:0
     RDKit          3D

 91 99  0  0  1  0  0  0  0  0999 V2000
  -29.7110  -23.3640   18.2110 C   0  0  0  0  0  3  0  0  0  0  0  0
  -29.8900  -20.6770   17.9160 C   0  0  0  0  0  3  0  0  0  0  0  0
  -29.4060  -22.5910   19.3540 C   0  0  0  0  0  0  0  0  0  0  0  0
  -29.5900  -21.1120   19.2440 C   0  0  0  0  0  0  0  0  0  0  0  0
  -30.0730  -22.7780   16.9990 C   0  0  0  0  0  0  0  0  0  0  0  0
  -30.3960  -23.6250   15.7850 C   0  0  0  0  0  1  0  0  0  0  0  0
  -30.1280  -21.4530   16.8410 N   0  0  0  0  0  0  0  0  0  0  0  0
  -28.9360  -23.5460   20.5300 C   0  0  0  0  0  2  0  0  0  0  0  0
  -27.9650  -24.8320   20.1880 C   0  0  0  0  0  2  0  0  0  0  0  0
  -28.2900  -26.3160   20.2240 O   0  0  0  0  0  0  0  0  0  0  0  0
  -24.6400  -31.8700   23.2290 C   0  0  0  0  0  0  0  0  0  0  0  0
  -27.2080  -27.2400   20.1650 C   0  0  0  0  0  0  0  0  0  0  0  0
  -23.4230  -30.4730   21.6040 C   0  0  0  0  0  3  0  0  0  0  0  0
  -24.8590  -28.9160   20.1640 C   0  0  0  0  0  0  0  0  0  0  0  0
  -25.9680  -30.7660   21.4050 C   0  0  0  0  0  2  0  0  0  0  0  0
  -26.0390  -29.3830   20.7550 C   0  0  0  0  0  0  0  0  0  0  0  0
  -27.2160  -28.5600   20.7430 C   0  0  0  0  0  3  0  0  0  0  0  0
  -25.9980  -26.8560   19.5370 C   0  0  0  0  0  3  0  0  0  0  0  0
  -24.8450  -27.6610   19.5420 C   0  0  0  0  0  3  0  0  0  0  0  0
  -23.6260  -29.7980   20.2230 C   0  0  0  0  0  2  0  0  0  0  0  0
  -24.6970  -31.0550   22.1340 N   0  0  0  0  0  0  0  0  0  0  0  0
  -23.5600  -32.1520   23.7700 O   0  0  0  0  0  0  0  0  0  0  0  0
  -22.7620  -29.4600   22.5700 C   0  0  0  0  0  0  0  0  0  0  0  0
  -21.4350  -29.2830   22.4530 N   0  0  0  0  0  0  0  0  0  0  0  0
  -23.4430  -28.8350   23.3880 O   0  0  0  0  0  0  0  0  0  0  0  0
  -20.9410  -29.8370   21.7670 H   0  0  0  0  0  0  0  0  0  0  0  0
  -18.0630  -28.0690   22.9690 C   0  0  0  0  0  0  0  0  0  0  0  0
  -20.6200  -28.3470   23.2330 C   0  0  0  0  0  3  0  0  0  0  0  0
  -20.7290  -26.9110   22.6700 C   0  0  0  0  0  2  0  0  0  0  0  0
  -19.6280  -26.5730   21.6600 C   0  0  0  0  0  2  0  0  0  0  0  0
  -18.2460  -26.7160   22.3030 C   0  0  0  0  0  2  0  0  0  0  0  0
  -19.1770  -28.8420   23.3910 C   0  0  0  0  0  0  0  0  0  0  0  0
  -18.9510  -30.1080   23.9740 C   0  0  0  0  0  3  0  0  0  0  0  0
  -17.6430  -30.6020   24.1380 C   0  0  0  0  0  3  0  0  0  0  0  0
  -16.5430  -29.8270   23.7310 C   0  0  0  0  0  3  0  0  0  0  0  0
  -16.7540  -28.5630   23.1520 C   0  0  0  0  0  3  0  0  0  0  0  0
  -25.9270  -32.5040   23.8400 C   0  0  0  0  0  3  0  0  0  0  0  0
  -25.6170  -33.9020   24.1790 N   0  0  0  0  0  0  0  0  0  0  0  0
  -25.9410  -34.9580   23.4230 C   0  0  0  0  0  0  0  0  0  0  0  0
  -26.6000  -34.8610   22.3840 O   0  0  0  0  0  0  0  0  0  0  0  0
  -25.0290  -34.0500   24.9860 H   0  0  0  0  0  0  0  0  0  0  0  0
  -24.2080  -36.7540   23.0970 C   0  0  0  0  0  1  0  0  0  0  0  0
  -25.4580  -36.3450   23.8930 C   0  0  0  0  0  3  0  0  0  0  0  0
  -27.6030  -37.2270   24.7010 C   0  0  0  0  0  1  0  0  0  0  0  0
  -26.4900  -37.4000   23.7720 N   0  0  0  0  0  0  0  0  0  0  0  0
  -26.0860  -38.3190   23.9300 H   0  0  0  0  0  0  0  0  0  0  0  0
  -26.4550  -31.7300   25.1110 C   0  0  1  0  0  0  0  0  0  0  0  0
  -25.3720  -31.4930   26.1890 C   0  0  0  0  0  1  0  0  0  0  0  0
  -27.0310  -30.3510   24.7150 C   0  0  0  0  0  1  0  0  0  0  0  0
  -27.6140  -32.5210   25.7610 C   0  0  0  0  0  1  0  0  0  0  0  0
  -29.5380  -20.0750   20.2460 O   0  0  0  0  0  0  0  0  0  0  0  0
  -29.7530  -18.6060   19.8790 C   0  0  0  0  0  2  0  0  0  0  0  0
  -30.0500  -17.4030   20.9370 C   0  0  0  0  0  2  0  0  0  0  0  0
  -30.5530  -14.7920   20.4360 C   0  0  0  0  0  0  0  0  0  0  0  0
  -30.3790  -12.4980   19.4260 C   0  0  0  0  0  2  0  0  0  0  0  0
  -29.4460  -12.5400   18.1950 C   0  0  0  0  0  2  0  0  0  0  0  0
  -27.9740  -12.3630   18.6150 C   0  0  0  0  0  2  0  0  0  0  0  0
  -27.5860  -13.2620   19.8200 C   0  0  0  0  0  3  0  0  0  0  0  0
  -28.6390  -13.1970   20.9470 C   0  0  0  0  0  2  0  0  0  0  0  0
  -29.9330  -13.5610   20.3550 N   0  0  0  0  0  0  0  0  0  0  0  0
  -31.7520  -14.8960   20.1680 O   0  0  0  0  0  0  0  0  0  0  0  0
  -29.7590  -15.9180   20.6230 N   0  0  0  0  0  0  0  0  0  0  0  0
  -28.7820  -15.6810   20.7100 H   0  0  0  0  0  0  0  0  0  0  0  0
  -25.1920  -13.8530   20.5210 C   0  0  0  0  0  0  0  0  0  0  0  0
  -24.1240  -13.0800   20.8860 C   0  0  0  0  0  0  0  0  0  0  0  0
  -24.5890  -11.7300   20.8720 C   0  0  0  0  0  0  0  0  0  0  0  0
  -26.2400  -12.9740   20.3030 N   0  0  0  0  0  0  0  0  0  0  0  0
  -25.8840  -11.6910   20.5760 N   0  0  0  0  0  0  0  0  0  0  0  0
  -23.8590  -10.4690   21.0630 C   0  0  0  0  0  0  0  0  0  0  0  0
  -24.2920   -9.4990   21.9940 C   0  0  0  0  0  3  0  0  0  0  0  0
  -23.5640   -8.3030   22.1730 C   0  0  0  0  0  3  0  0  0  0  0  0
  -22.3880   -8.0680   21.4200 C   0  0  0  0  0  0  0  0  0  0  0  0
  -21.9740   -9.0260   20.4780 C   0  0  0  0  0  3  0  0  0  0  0  0
  -22.7040  -10.2140   20.2970 C   0  0  0  0  0  3  0  0  0  0  0  0
  -21.6310   -6.9250   21.5090 O   0  0  0  0  0  0  0  0  0  0  0  0
  -21.5970   -6.1720   22.6550 C   0  0  0  0  0  0  0  0  0  0  0  0
  -21.2040   -6.7200   23.8950 C   0  0  0  0  0  3  0  0  0  0  0  0
  -21.1160   -5.8950   25.0340 C   0  0  0  0  0  3  0  0  0  0  0  0
  -21.4110   -4.5210   24.9330 C   0  0  0  0  0  0  0  0  0  0  0  0
  -21.7950   -3.9720   23.6970 C   0  0  0  0  0  3  0  0  0  0  0  0
  -21.8860   -4.7950   22.5610 C   0  0  0  0  0  0  0  0  0  0  0  0
  -22.2360   -4.2570   21.3680 F   0  0  0  0  0  0  0  0  0  0  0  0
  -21.3200   -3.7260   26.0250 F   0  0  0  0  0  0  0  0  0  0  0  0
  -22.7230  -13.5590   21.1370 C   0  0  0  0  0  0  0  0  0  0  0  0
  -21.9860  -12.8700   22.0000 N   0  0  0  0  0  0  0  0  0  0  0  0
  -22.2910  -14.5800   20.6010 O   0  0  0  0  0  0  0  0  0  0  0  0
  -22.3470  -12.0420   22.4490 H   0  0  0  0  0  0  0  0  0  0  0  0
  -21.0460  -13.1730   22.2130 H   0  0  0  0  0  0  0  0  0  0  0  0
  -25.3550  -15.2210   20.3260 N   0  0  0  0  0  0  0  0  0  0  0  0
  -24.5790  -15.8700   20.4070 H   0  0  0  0  0  0  0  0  0  0  0  0
  -26.1920  -15.6530   19.9580 H   0  0  0  0  0  0  0  0  0  0  0  0
  1  3  1  0
  2  4  1  0
  3  8  1  0
  4  3  2  0
  4 51  1  0
  5  1  2  0
  6  5  1  0
  7  5  1  0
  7  2  2  0
  9 10  1  0
  9  8  1  0
 11 22  2  0
 12 10  1  0
 12 17  1  0
 13 21  1  0
 13 23  1  0
 14 20  1  0
 14 16  1  0
 15 21  1  0
 16 15  1  0
 17 16  2  0
 18 19  1  0
 18 12  2  0
 19 14  2  0
 20 13  1  0
 21 11  1  0
 23 25  2  0
 24 23  1  0
 26 24  1  0
 27 36  2  0
 27 32  1  0
 28 24  1  0
 28 32  1  0
 29 28  1  0
 30 31  1  0
 30 29  1  0
 31 27  1  0
 32 33  2  0
 33 34  1  0
 35 34  2  0
 36 35  1  0
 37 11  1  0
 37 38  1  0
 37 47  1  0
 38 41  1  0
 39 43  1  0
 39 38  1  0
 40 39  2  0
 43 42  1  0
 45 43  1  0
 45 46  1  0
 45 44  1  0
 47 50  1  1
 47 48  1  0
 49 47  1  0
 52 51  1  0
 52 53  1  0
 54 62  1  0
 55 60  1  0
 56 57  1  0
 56 55  1  0
 58 57  1  0
 58 67  1  0
 58 59  1  0
 60 54  1  0
 60 59  1  0
 61 54  2  0
 62 63  1  0
 62 53  1  0
 64 65  2  0
 65 84  1  0
 66 65  1  0
 66 69  1  0
 67 64  1  0
 67 68  1  0
 68 66  2  0
 69 70  1  0
 70 71  2  0
 72 75  1  0
 72 71  1  0
 73 72  2  0
 74 73  1  0
 74 69  2  0
 75 76  1  0
 76 77  1  0
 77 78  2  0
 79 78  1  0
 79 83  1  0
 80 79  2  0
 81 76  2  0
 81 80  1  0
 82 81  1  0
 84 85  1  0
 85 88  1  0
 85 87  1  0
 86 84  2  0
 89 90  1  0
 89 64  1  0
 91 89  1  0
M  ISO  4   9 101  10 101  54 100  62 100
M  END
>  <TORSDO>  (94) 
F 21

>  <SCORE>  (94) 
-13.304

>  <name>  (94) 
93

>  <ligand_id>  (94) 
93

>  <original_smiles>  (94) 
[H]c1nc(C([H])([H])[H])c([H])c(C([H])([H])C([H])([H])Oc2c([H])c([H])c3c(c2[H])C([H])([H])N(C(=O)C([H])(N([H])C(=O)C([H])(N([H])C([H])([H])[H])C([H])([H])[H])C(C([H])([H])[H])(C([H])([H])[H])C([H])([H])[H])C([H])(C(=O)N([H])C2([H])c4c([H])c([H])c([H])c([H])c4C([H])([H])C([H])([H])C2([H])[H])C3([H])[H])c1OC([H])([H])C([H])([H])N([H])C(=O)N1C([H])([H])C([H])([H])C([H])([H])C([H])(n2nc(-c3c([H])c([H])c(Oc4c([H])c([H])c(F)c([H])c4F)c([H])c3[H])c(C(=O)N([H])[H])c2N([H])[H])C1([H])[H]

>  <smiles>  (94) 
[H]c1nc(C([H])([H])[H])c([H])c(C([H])([H])C([H])([H])Oc2c([H])c([H])c3c(c2[H])C([H])([H])N(C(=O)C([H])(N([H])C(=O)C([H])(N([H])C([H])([H])[H])C([H])([H])[H])C(C([H])([H])[H])(C([H])([H])[H])C([H])([H])[H])C([H])(C(=O)N([H])C2([H])c4c([H])c([H])c([H])c([H])c4C([H])([H])C([H])([H])C2([H])[H])C3([H])[H])c1OC([H])([H])C([H])([H])N([H])C(=O)N1C([H])([H])C([H])([H])C([H])([H])C([H])(n2nc(-c3c([H])c([H])c(Oc4c([H])c([H])c(F)c([H])c4F)c([H])c3[H])c(C(=O)N([H])[H])c2N([H])[H])C1([H])[H]

$$$$
94:0:0
     RDKit          3D

 96105  0  0  1  0  0  0  0  0999 V2000
  -28.8920  -20.8040   21.2730 C   0  0  0  0  0  2  0  0  0  0  0  0
  -30.5350  -21.2130   19.3600 C   0  0  0  0  0  2  0  0  0  0  0  0
  -28.9990  -22.3530   21.3320 C   0  0  0  0  0  2  0  0  0  0  0  0
  -29.5220  -22.2710   18.8790 C   0  0  0  0  0  2  0  0  0  0  0  0
  -29.8610  -20.1370   20.2520 C   0  0  0  0  0  3  0  0  0  0  0  0
  -28.8600  -23.0110   19.9970 N   0  0  2  0  0  4  0  0  0  0  0  0
  -27.8780  -22.9390   19.7680 H   0  0  0  0  0  0  0  0  0  0  0  0
  -31.7370  -19.7090   21.8750 C   0  0  0  0  0  1  0  0  0  0  0  0
  -30.8410  -19.1420   20.8250 N   0  0  1  0  0  4  0  0  0  0  0  0
  -31.4610  -18.9770   20.0440 H   0  0  0  0  0  0  0  0  0  0  0  0
  -31.3760  -16.6690   23.0210 C   0  0  0  0  0  2  0  0  0  0  0  0
  -32.1870  -16.3430   21.7540 C   0  0  0  0  0  2  0  0  0  0  0  0
  -30.0870  -17.3770   22.5570 C   0  0  0  0  0  2  0  0  0  0  0  0
  -31.2390  -16.6220   20.5730 C   0  0  0  0  0  3  0  0  0  0  0  0
  -30.2860  -17.7530   21.0690 C   0  0  0  0  0  3  0  0  0  0  0  0
  -30.9090  -14.3870   19.4850 C   0  0  0  0  0  0  0  0  0  0  0  0
  -30.3890  -12.1760   18.5170 C   0  0  0  0  0  2  0  0  0  0  0  0
  -29.3320  -12.2940   17.4020 C   0  0  0  0  0  2  0  0  0  0  0  0
  -27.9060  -12.2500   17.9840 C   0  0  0  0  0  2  0  0  0  0  0  0
  -27.7250  -13.2020   19.1970 C   0  0  0  0  0  3  0  0  0  0  0  0
  -28.8850  -13.0570   20.2080 C   0  0  0  0  0  2  0  0  0  0  0  0
  -30.1550  -13.2550   19.4880 N   0  0  0  0  0  0  0  0  0  0  0  0
  -31.9040  -14.5280   18.7690 O   0  0  0  0  0  0  0  0  0  0  0  0
  -30.5090  -15.3680   20.3080 N   0  0  0  0  0  0  0  0  0  0  0  0
  -29.6830  -15.1890   20.8580 H   0  0  0  0  0  0  0  0  0  0  0  0
  -25.5010  -13.9570   20.2490 C   0  0  0  0  0  0  0  0  0  0  0  0
  -24.4260  -13.2540   20.7180 C   0  0  0  0  0  0  0  0  0  0  0  0
  -24.7580  -11.8720   20.5630 C   0  0  0  0  0  0  0  0  0  0  0  0
  -26.4250  -13.0090   19.8380 N   0  0  0  0  0  0  0  0  0  0  0  0
  -25.9890  -11.7460   20.0830 N   0  0  0  0  0  0  0  0  0  0  0  0
  -23.9550  -10.6650   20.7890 C   0  0  0  0  0  0  0  0  0  0  0  0
  -24.3780   -9.6470   21.6730 C   0  0  0  0  0  3  0  0  0  0  0  0
  -23.5780   -8.5050   21.8850 C   0  0  0  0  0  3  0  0  0  0  0  0
  -22.3390   -8.3710   21.2150 C   0  0  0  0  0  0  0  0  0  0  0  0
  -21.9330   -9.3750   20.3170 C   0  0  0  0  0  3  0  0  0  0  0  0
  -22.7340  -10.5090   20.1030 C   0  0  0  0  0  3  0  0  0  0  0  0
  -21.5080   -7.2840   21.3390 O   0  0  0  0  0  0  0  0  0  0  0  0
  -21.4370   -6.5600   22.5020 C   0  0  0  0  0  0  0  0  0  0  0  0
  -21.0850   -7.1590   23.7310 C   0  0  0  0  0  3  0  0  0  0  0  0
  -20.9540   -6.3660   24.8890 C   0  0  0  0  0  3  0  0  0  0  0  0
  -21.1680   -4.9770   24.8190 C   0  0  0  0  0  0  0  0  0  0  0  0
  -21.5120   -4.3770   23.5950 C   0  0  0  0  0  3  0  0  0  0  0  0
  -21.6430   -5.1680   22.4390 C   0  0  0  0  0  0  0  0  0  0  0  0
  -21.9540   -4.5810   21.2580 F   0  0  0  0  0  0  0  0  0  0  0  0
  -21.0350   -4.2140   25.9290 F   0  0  0  0  0  0  0  0  0  0  0  0
  -23.1230  -13.8260   21.1980 C   0  0  0  0  0  0  0  0  0  0  0  0
  -22.4700  -13.1610   22.1420 N   0  0  0  0  0  0  0  0  0  0  0  0
  -22.7000  -14.8990   20.7680 O   0  0  0  0  0  0  0  0  0  0  0  0
  -22.8290  -12.2920   22.5090 H   0  0  0  0  0  0  0  0  0  0  0  0
  -21.6010  -13.5260   22.5020 H   0  0  0  0  0  0  0  0  0  0  0  0
  -25.7640  -15.3180   20.1190 N   0  0  0  0  0  0  0  0  0  0  0  0
  -25.0750  -16.0230   20.3520 H   0  0  0  0  0  0  0  0  0  0  0  0
  -26.6020  -15.7020   19.7030 H   0  0  0  0  0  0  0  0  0  0  0  0
  -29.1070  -24.4880   20.0190 C   0  0  0  0  0  2  0  0  0  0  0  0
  -27.8380  -25.2550   19.5900 C   0  0  0  0  0  2  0  0  0  0  0  0
  -27.9890  -26.6820   19.6790 O   0  0  0  0  0  0  0  0  0  0  0  0
  -24.4790  -31.7850   23.1930 C   0  0  0  0  0  0  0  0  0  0  0  0
  -26.8260  -27.4250   19.7520 C   0  0  0  0  0  0  0  0  0  0  0  0
  -23.1420  -30.4520   21.6040 C   0  0  0  0  0  3  0  0  0  0  0  0
  -24.4640  -28.9680   20.0020 C   0  0  0  0  0  0  0  0  0  0  0  0
  -25.6500  -30.7950   21.2220 C   0  0  0  0  0  2  0  0  0  0  0  0
  -25.6700  -29.4490   20.5250 C   0  0  0  0  0  0  0  0  0  0  0  0
  -26.8550  -28.6840   20.3950 C   0  0  0  0  0  3  0  0  0  0  0  0
  -25.5980  -26.9700   19.2140 C   0  0  0  0  0  3  0  0  0  0  0  0
  -24.4220  -27.7320   19.3410 C   0  0  0  0  0  3  0  0  0  0  0  0
  -23.2350  -29.8300   20.1860 C   0  0  0  0  0  2  0  0  0  0  0  0
  -24.4480  -31.0220   22.0640 N   0  0  0  0  0  0  0  0  0  0  0  0
  -23.4450  -32.0400   23.8240 O   0  0  0  0  0  0  0  0  0  0  0  0
  -22.5590  -29.3950   22.5690 C   0  0  0  0  0  0  0  0  0  0  0  0
  -21.2530  -29.1190   22.4340 N   0  0  0  0  0  0  0  0  0  0  0  0
  -23.2780  -28.8250   23.3950 O   0  0  0  0  0  0  0  0  0  0  0  0
  -20.7290  -29.6350   21.7410 H   0  0  0  0  0  0  0  0  0  0  0  0
  -18.0000  -27.5870   22.8020 C   0  0  0  0  0  0  0  0  0  0  0  0
  -20.4940  -28.1390   23.2110 C   0  0  0  0  0  3  0  0  0  0  0  0
  -20.7890  -26.7000   22.7280 C   0  0  0  0  0  2  0  0  0  0  0  0
  -19.7960  -26.2060   21.6710 C   0  0  0  0  0  2  0  0  0  0  0  0
  -18.3660  -26.2310   22.2220 C   0  0  0  0  0  2  0  0  0  0  0  0
  -19.0010  -28.4890   23.2510 C   0  0  0  0  0  0  0  0  0  0  0  0
  -18.6120  -29.7500   23.7490 C   0  0  0  0  0  3  0  0  0  0  0  0
  -17.2530  -30.1130   23.8100 C   0  0  0  0  0  3  0  0  0  0  0  0
  -16.2660  -29.2070   23.3830 C   0  0  0  0  0  3  0  0  0  0  0  0
  -16.6400  -27.9490   22.8800 C   0  0  0  0  0  3  0  0  0  0  0  0
  -25.8090  -32.3900   23.7320 C   0  0  0  0  0  3  0  0  0  0  0  0
  -26.4030  -31.5880   24.9540 C   0  0  1  0  0  0  0  0  0  0  0  0
  -25.3770  -31.3100   26.0770 C   0  0  0  0  0  1  0  0  0  0  0  0
  -26.9660  -30.2290   24.4800 C   0  0  0  0  0  1  0  0  0  0  0  0
  -27.5840  -32.3730   25.5760 C   0  0  0  0  0  1  0  0  0  0  0  0
  -25.5450  -33.7850   24.1070 N   0  0  0  0  0  0  0  0  0  0  0  0
  -25.8540  -34.8470   23.3520 C   0  0  0  0  0  0  0  0  0  0  0  0
  -26.4590  -34.7520   22.2800 O   0  0  0  0  0  0  0  0  0  0  0  0
  -25.0010  -33.9330   24.9450 H   0  0  0  0  0  0  0  0  0  0  0  0
  -24.1330  -36.6710   23.1400 C   0  0  0  0  0  1  0  0  0  0  0  0
  -25.4170  -36.2350   23.8630 C   0  0  0  0  0  3  0  0  0  0  0  0
  -27.6140  -37.0700   24.5720 C   0  0  0  0  0  1  0  0  0  0  0  0
  -26.4580  -37.2720   23.7030 N   0  0  0  0  0  0  0  0  0  0  0  0
  -26.0770  -38.1940   23.8970 H   0  0  0  0  0  0  0  0  0  0  0  0
  1  3  1  0
  2  5  1  0
  4  2  1  0
  4  6  1  0
  5  9  1  0
  5  1  1  0
  6 54  1  0
  6  3  1  0
  6  7  1  6
  9  8  1  0
  9 10  1  6
 12 11  1  0
 13 11  1  0
 14 24  1  0
 14 15  1  0
 14 12  1  0
 15  9  1  0
 15 13  1  0
 16 22  1  0
 16 24  1  0
 17 22  1  0
 18 19  1  0
 18 17  1  0
 20 19  1  0
 20 29  1  0
 20 21  1  0
 22 21  1  0
 23 16  2  0
 24 25  1  0
 26 27  2  0
 27 46  1  0
 28 27  1  0
 28 31  1  0
 29 30  1  0
 29 26  1  0
 30 28  2  0
 31 32  1  0
 32 33  2  0
 34 37  1  0
 34 33  1  0
 35 34  2  0
 36 35  1  0
 36 31  2  0
 37 38  1  0
 38 39  1  0
 39 40  2  0
 41 40  1  0
 41 45  1  0
 42 41  2  0
 43 38  2  0
 43 42  1  0
 44 43  1  0
 46 47  1  0
 47 50  1  0
 47 49  1  0
 48 46  2  0
 51 26  1  0
 51 52  1  0
 53 51  1  0
 55 56  1  0
 55 54  1  0
 56 58  1  0
 57 68  2  0
 58 63  1  0
 59 67  1  0
 59 69  1  0
 60 66  1  0
 60 62  1  0
 61 67  1  0
 62 61  1  0
 63 62  2  0
 64 65  1  0
 64 58  2  0
 65 60  2  0
 66 59  1  0
 67 57  1  0
 69 71  2  0
 70 69  1  0
 72 70  1  0
 73 82  2  0
 73 78  1  0
 74 70  1  0
 74 78  1  0
 75 74  1  0
 76 77  1  0
 76 75  1  0
 77 73  1  0
 78 79  2  0
 79 80  1  0
 81 80  2  0
 82 81  1  0
 83 57  1  0
 83 88  1  0
 83 84  1  0
 84 87  1  1
 84 85  1  0
 86 84  1  0
 88 91  1  0
 89 93  1  0
 89 88  1  0
 90 89  2  0
 93 92  1  0
 95 93  1  0
 95 96  1  0
 95 94  1  0
M  ISO  4  16 100  24 100  55 101  56 101
M  END
>  <TORSDO>  (95) 
F 20

>  <SCORE>  (95) 
-10.312

>  <name>  (95) 
94

>  <ligand_id>  (95) 
94

>  <original_smiles>  (95) 
[H]c1c([H])c([H])c2c(c1[H])C([H])([H])C([H])([H])C([H])([H])C2([H])N([H])C(=O)C1([H])N(C(=O)C([H])(N([H])C(=O)C([H])(N([H])C([H])([H])[H])C([H])([H])[H])C(C([H])([H])[H])(C([H])([H])[H])C([H])([H])[H])C([H])([H])c2c([H])c(OC([H])([H])C([H])([H])[N+]3([H])C([H])([H])C([H])([H])C([H])([N+]([H])(C([H])([H])[H])C4([H])C([H])([H])C([H])([H])C([H])([H])C4([H])N([H])C(=O)N4C([H])([H])C([H])([H])C([H])([H])C([H])(n5nc(-c6c([H])c([H])c(Oc7c([H])c([H])c(F)c([H])c7F)c([H])c6[H])c(C(=O)N([H])[H])c5N([H])[H])C4([H])[H])C([H])([H])C3([H])[H])c([H])c([H])c2C1([H])[H]

>  <smiles>  (95) 
[H]c1c([H])c([H])c2c(c1[H])C([H])([H])C([H])([H])C([H])([H])C2([H])N([H])C(=O)C1([H])N(C(=O)C([H])(N([H])C(=O)C([H])(N([H])C([H])([H])[H])C([H])([H])[H])C(C([H])([H])[H])(C([H])([H])[H])C([H])([H])[H])C([H])([H])c2c([H])c(OC([H])([H])C([H])([H])[N+]3([H])C([H])([H])C([H])([H])C([H])([N+]([H])(C([H])([H])[H])C4([H])C([H])([H])C([H])([H])C([H])([H])C4([H])N([H])C(=O)N4C([H])([H])C([H])([H])C([H])([H])C([H])(n5nc(-c6c([H])c([H])c(Oc7c([H])c([H])c(F)c([H])c7F)c([H])c6[H])c(C(=O)N([H])[H])c5N([H])[H])C4([H])[H])C([H])([H])C3([H])[H])c([H])c([H])c2C1([H])[H]

$$$$
95:0:0
     RDKit          3D

 91100  0  0  1  0  0  0  0  0999 V2000
  -29.5730  -21.1980   21.5990 C   0  0  0  0  0  3  0  0  0  0  0  0
  -29.3000  -20.2260   20.5640 C   0  0  0  0  0  0  0  0  0  0  0  0
  -28.6230  -23.1520   20.4860 C   0  0  0  0  0  0  0  0  0  0  0  0
  -28.3690  -22.1830   19.4250 C   0  0  0  0  0  0  0  0  0  0  0  0
  -29.2440  -22.5620   21.5710 N   0  0  0  0  0  0  0  0  0  0  0  0
  -28.6940  -20.8080   19.4690 N   0  0  0  0  0  0  0  0  0  0  0  0
  -30.6800  -15.0760   20.2980 C   0  0  0  0  0  0  0  0  0  0  0  0
  -30.4570  -12.7380   19.3230 C   0  0  0  0  0  2  0  0  0  0  0  0
  -29.5180  -12.6880   18.1010 C   0  0  0  0  0  2  0  0  0  0  0  0
  -28.0670  -12.4610   18.5610 C   0  0  0  0  0  2  0  0  0  0  0  0
  -27.6740  -13.3840   19.7450 C   0  0  0  0  0  3  0  0  0  0  0  0
  -28.7480  -13.4430   20.8510 C   0  0  0  0  0  2  0  0  0  0  0  0
  -29.9940  -13.8610   20.2010 N   0  0  0  0  0  0  0  0  0  0  0  0
  -31.8860  -15.0170   20.0360 O   0  0  0  0  0  0  0  0  0  0  0  0
  -28.8920  -17.2060   20.7490 C   0  0  0  0  0  2  0  0  0  0  0  0
  -30.6790  -17.7050   19.7960 C   0  0  0  0  0  2  0  0  0  0  0  0
  -29.7000  -18.5940   20.6620 C   0  0  0  0  0  3  0  0  0  0  0  0
  -30.0900  -16.3940   20.2860 N   0  0  0  0  0  0  0  0  0  0  0  0
  -25.3150  -13.9300   20.5490 C   0  0  0  0  0  0  0  0  0  0  0  0
  -24.2590  -13.1440   20.9170 C   0  0  0  0  0  0  0  0  0  0  0  0
  -24.7260  -11.7950   20.8520 C   0  0  0  0  0  0  0  0  0  0  0  0
  -26.3540  -13.0620   20.2700 N   0  0  0  0  0  0  0  0  0  0  0  0
  -26.0130  -11.7710   20.5210 N   0  0  0  0  0  0  0  0  0  0  0  0
  -24.0030  -10.5280   21.0240 C   0  0  0  0  0  0  0  0  0  0  0  0
  -24.4140   -9.5640   21.9710 C   0  0  0  0  0  3  0  0  0  0  0  0
  -23.6890   -8.3640   22.1340 C   0  0  0  0  0  3  0  0  0  0  0  0
  -22.5380   -8.1180   21.3480 C   0  0  0  0  0  0  0  0  0  0  0  0
  -22.1460   -9.0690   20.3900 C   0  0  0  0  0  3  0  0  0  0  0  0
  -22.8720  -10.2610   20.2260 C   0  0  0  0  0  3  0  0  0  0  0  0
  -21.7880   -6.9700   21.4180 O   0  0  0  0  0  0  0  0  0  0  0  0
  -21.6660   -6.2590   22.5850 C   0  0  0  0  0  0  0  0  0  0  0  0
  -21.1000   -6.8280   23.7470 C   0  0  0  0  0  3  0  0  0  0  0  0
  -20.9300   -6.0410   24.9040 C   0  0  0  0  0  3  0  0  0  0  0  0
  -21.3160   -4.6870   24.9000 C   0  0  0  0  0  0  0  0  0  0  0  0
  -21.8760   -4.1190   23.7420 C   0  0  0  0  0  3  0  0  0  0  0  0
  -22.0470   -4.9020   22.5870 C   0  0  0  0  0  0  0  0  0  0  0  0
  -22.5670   -4.3430   21.4680 F   0  0  0  0  0  0  0  0  0  0  0  0
  -21.1460   -3.9300   26.0080 F   0  0  0  0  0  0  0  0  0  0  0  0
  -22.8660  -13.6150   21.2130 C   0  0  0  0  0  0  0  0  0  0  0  0
  -22.1460  -12.8980   22.0690 N   0  0  0  0  0  0  0  0  0  0  0  0
  -22.4250  -14.6540   20.7250 O   0  0  0  0  0  0  0  0  0  0  0  0
  -22.5130  -12.0550   22.4850 H   0  0  0  0  0  0  0  0  0  0  0  0
  -21.2140  -13.2000   22.3140 H   0  0  0  0  0  0  0  0  0  0  0  0
  -25.4720  -15.3050   20.3960 N   0  0  0  0  0  0  0  0  0  0  0  0
  -24.7040  -15.9540   20.5220 H   0  0  0  0  0  0  0  0  0  0  0  0
  -26.3100  -15.7450   20.0420 H   0  0  0  0  0  0  0  0  0  0  0  0
  -26.1460  -22.0710   18.2100 C   0  0  0  0  0  1  0  0  0  0  0  0
  -28.3080  -22.2010   16.8700 C   0  0  0  0  0  1  0  0  0  0  0  0
  -27.5900  -22.5960   18.1730 C   0  0  0  0  0  3  0  0  0  0  0  0
  -27.8500  -24.6340   20.6620 C   0  0  0  0  0  2  0  0  0  0  0  0
  -28.2870  -26.1260   20.3980 O   0  0  0  0  0  0  0  0  0  0  0  0
  -24.6390  -31.9490   23.2340 C   0  0  0  0  0  0  0  0  0  0  0  0
  -27.2680  -27.1620   20.3200 C   0  0  0  0  0  0  0  0  0  0  0  0
  -23.4710  -30.5120   21.6120 C   0  0  0  0  0  3  0  0  0  0  0  0
  -24.9450  -28.9270   20.2270 C   0  0  0  0  0  0  0  0  0  0  0  0
  -26.0280  -30.7820   21.4730 C   0  0  0  0  0  2  0  0  0  0  0  0
  -26.1190  -29.3760   20.8480 C   0  0  0  0  0  0  0  0  0  0  0  0
  -27.2830  -28.5090   20.8790 C   0  0  0  0  0  3  0  0  0  0  0  0
  -26.0770  -26.8440   19.6280 C   0  0  0  0  0  3  0  0  0  0  0  0
  -24.9410  -27.6750   19.5990 C   0  0  0  0  0  3  0  0  0  0  0  0
  -23.7140  -29.8190   20.2460 C   0  0  0  0  0  2  0  0  0  0  0  0
  -24.7330  -31.1040   22.1610 N   0  0  0  0  0  0  0  0  0  0  0  0
  -23.5440  -32.2340   23.7420 O   0  0  0  0  0  0  0  0  0  0  0  0
  -22.7890  -29.5130   22.5820 C   0  0  0  0  0  0  0  0  0  0  0  0
  -21.4620  -29.3350   22.4490 N   0  0  0  0  0  0  0  0  0  0  0  0
  -23.4570  -28.9040   23.4220 O   0  0  0  0  0  0  0  0  0  0  0  0
  -20.9790  -29.8840   21.7520 H   0  0  0  0  0  0  0  0  0  0  0  0
  -18.0750  -28.1570   22.9800 C   0  0  0  0  0  0  0  0  0  0  0  0
  -20.6380  -28.4040   23.2260 C   0  0  0  0  0  3  0  0  0  0  0  0
  -20.7250  -26.9690   22.6550 C   0  0  0  0  0  2  0  0  0  0  0  0
  -19.6130  -26.6510   21.6510 C   0  0  0  0  0  2  0  0  0  0  0  0
  -18.2370  -26.8060   22.3050 C   0  0  0  0  0  2  0  0  0  0  0  0
  -19.2020  -28.9150   23.3970 C   0  0  0  0  0  0  0  0  0  0  0  0
  -18.9950  -30.1790   23.9900 C   0  0  0  0  0  3  0  0  0  0  0  0
  -17.6940  -30.6860   24.1700 C   0  0  0  0  0  3  0  0  0  0  0  0
  -16.5810  -29.9270   23.7670 C   0  0  0  0  0  3  0  0  0  0  0  0
  -16.7730  -28.6650   23.1770 C   0  0  0  0  0  3  0  0  0  0  0  0
  -25.9020  -32.6090   23.8630 C   0  0  0  0  0  3  0  0  0  0  0  0
  -25.5660  -34.0060   24.1830 N   0  0  0  0  0  0  0  0  0  0  0  0
  -25.8790  -35.0630   23.4220 C   0  0  0  0  0  0  0  0  0  0  0  0
  -26.5480  -34.9670   22.3900 O   0  0  0  0  0  0  0  0  0  0  0  0
  -24.9700  -34.1530   24.9850 H   0  0  0  0  0  0  0  0  0  0  0  0
  -24.1260  -36.8330   23.0660 C   0  0  0  0  0  1  0  0  0  0  0  0
  -25.3730  -36.4460   23.8770 C   0  0  0  0  0  3  0  0  0  0  0  0
  -27.4870  -37.3700   24.7170 C   0  0  0  0  0  1  0  0  0  0  0  0
  -26.3890  -37.5150   23.7650 N   0  0  0  0  0  0  0  0  0  0  0  0
  -25.9680  -38.4300   23.9030 H   0  0  0  0  0  0  0  0  0  0  0  0
  -26.4120  -31.8600   25.1550 C   0  0  1  0  0  0  0  0  0  0  0  0
  -25.3030  -31.5940   26.2020 C   0  0  0  0  0  1  0  0  0  0  0  0
  -27.0440  -30.4990   24.7860 C   0  0  0  0  0  1  0  0  0  0  0  0
  -27.5270  -32.6920   25.8340 C   0  0  0  0  0  1  0  0  0  0  0  0
  2  1  2  0
  3 50  1  0
  3  5  2  0
  4  6  2  0
  4  3  1  0
  5  1  1  0
  6  2  1  0
  8 13  1  0
  9 10  1  0
  9  8  1  0
 11 10  1  0
 11 22  1  0
 11 12  1  0
 13  7  1  0
 13 12  1  0
 14  7  2  0
 16 18  1  0
 16 17  1  0
 17  2  1  0
 17 15  1  0
 18  7  1  0
 18 15  1  0
 19 20  2  0
 20 39  1  0
 21 20  1  0
 21 24  1  0
 22 23  1  0
 22 19  1  0
 23 21  2  0
 24 25  1  0
 25 26  2  0
 27 30  1  0
 27 26  1  0
 28 27  2  0
 29 28  1  0
 29 24  2  0
 30 31  1  0
 31 36  2  0
 31 32  1  0
 32 33  2  0
 34 33  1  0
 34 38  1  0
 35 34  2  0
 36 35  1  0
 37 36  1  0
 39 40  1  0
 40 43  1  0
 40 42  1  0
 41 39  2  0
 44 45  1  0
 44 19  1  0
 46 44  1  0
 48 49  1  0
 49 47  1  0
 49  4  1  0
 51 50  1  0
 52 63  2  0
 53 51  1  0
 53 58  1  0
 54 62  1  0
 54 64  1  0
 55 61  1  0
 55 57  1  0
 56 62  1  0
 57 58  2  0
 57 56  1  0
 59 53  2  0
 60 59  1  0
 60 55  2  0
 61 54  1  0
 62 52  1  0
 64 66  2  0
 65 64  1  0
 67 65  1  0
 68 77  2  0
 68 73  1  0
 69 65  1  0
 69 73  1  0
 70 69  1  0
 71 72  1  0
 71 70  1  0
 72 68  1  0
 73 74  2  0
 74 75  1  0
 76 75  2  0
 77 76  1  0
 78 52  1  0
 78 79  1  0
 78 88  1  0
 79 82  1  0
 80 84  1  0
 80 79  1  0
 81 80  2  0
 84 83  1  0
 86 84  1  0
 86 87  1  0
 86 85  1  0
 88 91  1  1
 88 89  1  0
 90 88  1  0
M  ISO  4   7 100  18 100  50 101  51 101
M  END
>  <TORSDO>  (96) 
F 18

>  <SCORE>  (96) 
-14.474

>  <name>  (96) 
95

>  <ligand_id>  (96) 
95

>  <original_smiles>  (96) 
[H]c1nc(C([H])([H])Oc2c([H])c([H])c3c(c2[H])C([H])([H])N(C(=O)C([H])(N([H])C(=O)C([H])(N([H])C([H])([H])[H])C([H])([H])[H])C(C([H])([H])[H])(C([H])([H])[H])C([H])([H])[H])C([H])(C(=O)N([H])C2([H])c4c([H])c([H])c([H])c([H])c4C([H])([H])C([H])([H])C2([H])[H])C3([H])[H])c(C([H])(C([H])([H])[H])C([H])([H])[H])nc1C1([H])C([H])([H])N(C(=O)N2C([H])([H])C([H])([H])C([H])([H])C([H])(n3nc(-c4c([H])c([H])c(Oc5c([H])c([H])c(F)c([H])c5F)c([H])c4[H])c(C(=O)N([H])[H])c3N([H])[H])C2([H])[H])C1([H])[H]

>  <smiles>  (96) 
[H]c1nc(C([H])([H])Oc2c([H])c([H])c3c(c2[H])C([H])([H])N(C(=O)C([H])(N([H])C(=O)C([H])(N([H])C([H])([H])[H])C([H])([H])[H])C(C([H])([H])[H])(C([H])([H])[H])C([H])([H])[H])C([H])(C(=O)N([H])C2([H])c4c([H])c([H])c([H])c([H])c4C([H])([H])C([H])([H])C2([H])[H])C3([H])[H])c(C([H])(C([H])([H])[H])C([H])([H])[H])nc1C1([H])C([H])([H])N(C(=O)N2C([H])([H])C([H])([H])C([H])([H])C([H])(n3nc(-c4c([H])c([H])c(Oc5c([H])c([H])c(F)c([H])c5F)c([H])c4[H])c(C(=O)N([H])[H])c3N([H])[H])C2([H])[H])C1([H])[H]

$$$$
96:0:0
     RDKit          3D

 96105  0  0  1  0  0  0  0  0999 V2000
  -29.2220  -22.9350   18.7790 C   0  0  0  0  0  0  0  0  0  0  0  0
  -28.7790  -24.0040   19.6280 C   0  0  0  0  0  0  0  0  0  0  0  0
  -28.3710  -22.4000   21.2610 C   0  0  0  0  0  0  0  0  0  0  0  0
  -28.8200  -21.3340   20.4180 C   0  0  0  0  0  0  0  0  0  0  0  0
  -29.6780  -23.1810   17.3530 C   0  0  0  0  0  1  0  0  0  0  0  0
  -29.2570  -21.6230   19.1710 N   0  0  0  0  0  0  0  0  0  0  0  0
  -28.3550  -23.7100   20.8880 N   0  0  0  0  0  0  0  0  0  0  0  0
  -27.8960  -22.1420   22.5410 N   0  0  0  0  0  0  0  0  0  0  0  0
  -28.7540  -19.9870   20.8720 N   0  0  0  0  0  0  0  0  0  0  0  0
  -27.5200  -21.2180   22.7080 H   0  0  0  0  0  0  0  0  0  0  0  0
  -27.3280  -22.8740   22.9470 H   0  0  0  0  0  0  0  0  0  0  0  0
  -28.4800  -19.9560   21.8470 H   0  0  0  0  0  0  0  0  0  0  0  0
  -30.8710  -14.6230   19.9880 C   0  0  0  0  0  0  0  0  0  0  0  0
  -30.4840  -12.4250   18.9230 C   0  0  0  0  0  2  0  0  0  0  0  0
  -29.4750  -12.6000   17.7710 C   0  0  0  0  0  2  0  0  0  0  0  0
  -28.0340  -12.4550   18.2950 C   0  0  0  0  0  2  0  0  0  0  0  0
  -27.7670  -13.3070   19.5670 C   0  0  0  0  0  3  0  0  0  0  0  0
  -28.8980  -13.1570   20.6070 C   0  0  0  0  0  2  0  0  0  0  0  0
  -30.1670  -13.4520   19.9320 N   0  0  0  0  0  0  0  0  0  0  0  0
  -32.0330  -14.6860   19.5760 O   0  0  0  0  0  0  0  0  0  0  0  0
  -28.8690  -17.8490   19.4790 C   0  0  0  0  0  2  0  0  0  0  0  0
  -30.0280  -17.9710   21.6310 C   0  0  0  0  0  2  0  0  0  0  0  0
  -29.7350  -16.5910   19.1280 C   0  0  0  0  0  2  0  0  0  0  0  0
  -30.8620  -16.7120   21.2400 C   0  0  0  0  0  2  0  0  0  0  0  0
  -29.5900  -18.8410   20.4270 C   0  0  0  0  0  3  0  0  0  0  0  0
  -30.1980  -15.7870   20.2890 N   0  0  0  0  0  0  0  0  0  0  0  0
  -25.4460  -13.9080   20.4810 C   0  0  0  0  0  0  0  0  0  0  0  0
  -24.3940  -13.1350   20.8940 C   0  0  0  0  0  0  0  0  0  0  0  0
  -24.8310  -11.7800   20.7800 C   0  0  0  0  0  0  0  0  0  0  0  0
  -26.4550  -13.0230   20.1410 N   0  0  0  0  0  0  0  0  0  0  0  0
  -26.0960  -11.7350   20.3800 N   0  0  0  0  0  0  0  0  0  0  0  0
  -24.0990  -10.5210   20.9720 C   0  0  0  0  0  0  0  0  0  0  0  0
  -24.5430   -9.5410   21.8870 C   0  0  0  0  0  3  0  0  0  0  0  0
  -23.8110   -8.3470   22.0680 C   0  0  0  0  0  3  0  0  0  0  0  0
  -22.6210   -8.1260   21.3350 C   0  0  0  0  0  0  0  0  0  0  0  0
  -22.1960   -9.0950   20.4090 C   0  0  0  0  0  3  0  0  0  0  0  0
  -22.9290  -10.2790   20.2260 C   0  0  0  0  0  3  0  0  0  0  0  0
  -21.8600   -6.9850   21.4260 O   0  0  0  0  0  0  0  0  0  0  0  0
  -21.7770   -6.2670   22.5920 C   0  0  0  0  0  0  0  0  0  0  0  0
  -21.2930   -6.8410   23.7880 C   0  0  0  0  0  3  0  0  0  0  0  0
  -21.1590   -6.0470   24.9440 C   0  0  0  0  0  3  0  0  0  0  0  0
  -21.4990   -4.6830   24.9070 C   0  0  0  0  0  0  0  0  0  0  0  0
  -21.9780   -4.1090   23.7150 C   0  0  0  0  0  3  0  0  0  0  0  0
  -22.1120   -4.9000   22.5610 C   0  0  0  0  0  0  0  0  0  0  0  0
  -22.5530   -4.3360   21.4090 F   0  0  0  0  0  0  0  0  0  0  0  0
  -21.3630   -3.9190   26.0150 F   0  0  0  0  0  0  0  0  0  0  0  0
  -23.0290  -13.6220   21.2830 C   0  0  0  0  0  0  0  0  0  0  0  0
  -22.3540  -12.9050   22.1760 N   0  0  0  0  0  0  0  0  0  0  0  0
  -22.5720  -14.6710   20.8320 O   0  0  0  0  0  0  0  0  0  0  0  0
  -22.7360  -12.0530   22.5590 H   0  0  0  0  0  0  0  0  0  0  0  0
  -21.4410  -13.2130   22.4810 H   0  0  0  0  0  0  0  0  0  0  0  0
  -25.6230  -15.2810   20.3450 N   0  0  0  0  0  0  0  0  0  0  0  0
  -24.8830  -15.9490   20.5330 H   0  0  0  0  0  0  0  0  0  0  0  0
  -26.4730  -15.7160   20.0100 H   0  0  0  0  0  0  0  0  0  0  0  0
  -28.7420  -25.4880   19.1200 C   0  0  0  0  0  2  0  0  0  0  0  0
  -28.4910  -26.5970   20.0480 O   0  0  0  0  0  0  0  0  0  0  0  0
  -24.5440  -31.7460   23.1270 C   0  0  0  0  0  0  0  0  0  0  0  0
  -27.3180  -27.3510   19.9960 C   0  0  0  0  0  0  0  0  0  0  0  0
  -23.3890  -30.3400   21.4540 C   0  0  0  0  0  3  0  0  0  0  0  0
  -24.8940  -28.8610   20.0090 C   0  0  0  0  0  0  0  0  0  0  0  0
  -25.9180  -30.7390   21.3000 C   0  0  0  0  0  2  0  0  0  0  0  0
  -26.0380  -29.3800   20.6260 C   0  0  0  0  0  0  0  0  0  0  0  0
  -27.2470  -28.6320   20.6190 C   0  0  0  0  0  3  0  0  0  0  0  0
  -26.1440  -26.8630   19.3790 C   0  0  0  0  0  3  0  0  0  0  0  0
  -24.9490  -27.6050   19.3800 C   0  0  0  0  0  3  0  0  0  0  0  0
  -23.6290  -29.6920   20.0640 C   0  0  0  0  0  2  0  0  0  0  0  0
  -24.6330  -30.9590   22.0170 N   0  0  0  0  0  0  0  0  0  0  0  0
  -23.4500  -31.9820   23.6610 O   0  0  0  0  0  0  0  0  0  0  0  0
  -22.7530  -29.2870   22.3920 C   0  0  0  0  0  0  0  0  0  0  0  0
  -21.4340  -29.0770   22.2530 N   0  0  0  0  0  0  0  0  0  0  0  0
  -23.4460  -28.6640   23.2000 O   0  0  0  0  0  0  0  0  0  0  0  0
  -20.9340  -29.6350   21.5760 H   0  0  0  0  0  0  0  0  0  0  0  0
  -18.0830  -27.7980   22.7220 C   0  0  0  0  0  0  0  0  0  0  0  0
  -20.6340  -28.1060   23.0030 C   0  0  0  0  0  3  0  0  0  0  0  0
  -20.7680  -26.6890   22.3990 C   0  0  0  0  0  2  0  0  0  0  0  0
  -19.6760  -26.3640   21.3750 C   0  0  0  0  0  2  0  0  0  0  0  0
  -18.2890  -26.4670   22.0180 C   0  0  0  0  0  2  0  0  0  0  0  0
  -19.1850  -28.5750   23.1680 C   0  0  0  0  0  0  0  0  0  0  0  0
  -18.9390  -29.8220   23.7830 C   0  0  0  0  0  3  0  0  0  0  0  0
  -17.6240  -30.2920   23.9560 C   0  0  0  0  0  3  0  0  0  0  0  0
  -16.5370  -29.5120   23.5270 C   0  0  0  0  0  3  0  0  0  0  0  0
  -16.7670  -28.2670   22.9160 C   0  0  0  0  0  3  0  0  0  0  0  0
  -25.8060  -32.4030   23.7660 C   0  0  0  0  0  3  0  0  0  0  0  0
  -25.4530  -33.7850   24.1180 N   0  0  0  0  0  0  0  0  0  0  0  0
  -25.7520  -34.8620   23.3790 C   0  0  0  0  0  0  0  0  0  0  0  0
  -26.4250  -34.7970   22.3460 O   0  0  0  0  0  0  0  0  0  0  0  0
  -24.8550  -33.9080   24.9230 H   0  0  0  0  0  0  0  0  0  0  0  0
  -23.9670  -36.6030   23.0560 C   0  0  0  0  0  1  0  0  0  0  0  0
  -25.2210  -36.2250   23.8610 C   0  0  0  0  0  3  0  0  0  0  0  0
  -27.3230  -37.1620   24.7160 C   0  0  0  0  0  1  0  0  0  0  0  0
  -26.2190  -37.3140   23.7710 N   0  0  0  0  0  0  0  0  0  0  0  0
  -25.7820  -38.2160   23.9400 H   0  0  0  0  0  0  0  0  0  0  0  0
  -26.3370  -31.6270   25.0320 C   0  0  1  0  0  0  0  0  0  0  0  0
  -25.2450  -31.3370   26.0870 C   0  0  0  0  0  1  0  0  0  0  0  0
  -26.9690  -30.2750   24.6240 C   0  0  0  0  0  1  0  0  0  0  0  0
  -27.4570  -32.4480   25.7160 C   0  0  0  0  0  1  0  0  0  0  0  0
  1  6  2  0
  1  2  1  0
  2  7  2  0
  3  8  1  0
  4  9  1  0
  4  3  2  0
  5  1  1  0
  6  4  1  0
  7  3  1  0
  8 10  1  0
  8 11  1  0
  9 12  1  0
 13 26  1  0
 14 19  1  0
 15 16  1  0
 15 14  1  0
 17 16  1  0
 17 30  1  0
 17 18  1  0
 19 13  1  0
 19 18  1  0
 20 13  2  0
 21 25  1  0
 23 21  1  0
 23 26  1  0
 24 22  1  0
 25  9  1  0
 25 22  1  0
 26 24  1  0
 27 28  2  0
 28 47  1  0
 29 28  1  0
 29 32  1  0
 30 31  1  0
 30 27  1  0
 31 29  2  0
 32 33  1  0
 33 34  2  0
 35 38  1  0
 35 34  1  0
 36 35  2  0
 37 36  1  0
 37 32  2  0
 38 39  1  0
 39 40  1  0
 40 41  2  0
 42 41  1  0
 42 46  1  0
 43 42  2  0
 44 39  2  0
 44 43  1  0
 45 44  1  0
 47 48  1  0
 48 51  1  0
 48 50  1  0
 49 47  2  0
 52 27  1  0
 52 53  1  0
 54 52  1  0
 55  2  1  0
 55 56  1  0
 57 68  2  0
 58 56  1  0
 58 63  1  0
 59 67  1  0
 59 69  1  0
 60 66  1  0
 60 62  1  0
 61 67  1  0
 62 61  1  0
 63 62  2  0
 64 65  1  0
 64 58  2  0
 65 60  2  0
 66 59  1  0
 67 57  1  0
 69 71  2  0
 70 69  1  0
 72 70  1  0
 73 82  2  0
 73 78  1  0
 74 70  1  0
 74 78  1  0
 75 74  1  0
 76 77  1  0
 76 75  1  0
 77 73  1  0
 78 79  2  0
 79 80  1  0
 81 80  2  0
 82 81  1  0
 83 57  1  0
 83 84  1  0
 83 93  1  0
 84 87  1  0
 85 89  1  0
 85 84  1  0
 86 85  2  0
 89 88  1  0
 91 89  1  0
 91 92  1  0
 91 90  1  0
 93 96  1  1
 93 94  1  0
 95 93  1  0
M  ISO  4  13 100  26 100  55 101  56 101
M  END
>  <TORSDO>  (97) 
F 17

>  <SCORE>  (97) 
-14.667

>  <name>  (97) 
96

>  <ligand_id>  (97) 
96

>  <original_smiles>  (97) 
[H]c1c([H])c([H])c2c(c1[H])C([H])([H])C([H])([H])C([H])([H])C2([H])N([H])C(=O)C1([H])N(C(=O)C([H])(N([H])C(=O)C([H])(N([H])C([H])([H])[H])C([H])([H])[H])C(C([H])([H])[H])(C([H])([H])[H])C([H])([H])[H])C([H])([H])c2c([H])c(OC([H])([H])c3nc(N([H])[H])c(N([H])C4([H])C([H])([H])C([H])([H])N(C(=O)N5C([H])([H])C([H])([H])C([H])([H])C([H])(n6nc(-c7c([H])c([H])c(Oc8c([H])c([H])c(F)c([H])c8F)c([H])c7[H])c(C(=O)N([H])[H])c6N([H])[H])C5([H])[H])C([H])([H])C4([H])[H])nc3C([H])([H])[H])c([H])c([H])c2C1([H])[H]

>  <smiles>  (97) 
[H]c1c([H])c([H])c2c(c1[H])C([H])([H])C([H])([H])C([H])([H])C2([H])N([H])C(=O)C1([H])N(C(=O)C([H])(N([H])C(=O)C([H])(N([H])C([H])([H])[H])C([H])([H])[H])C(C([H])([H])[H])(C([H])([H])[H])C([H])([H])[H])C([H])([H])c2c([H])c(OC([H])([H])c3nc(N([H])[H])c(N([H])C4([H])C([H])([H])C([H])([H])N(C(=O)N5C([H])([H])C([H])([H])C([H])([H])C([H])(n6nc(-c7c([H])c([H])c(Oc8c([H])c([H])c(F)c([H])c8F)c([H])c7[H])c(C(=O)N([H])[H])c6N([H])[H])C5([H])[H])C([H])([H])C4([H])[H])nc3C([H])([H])[H])c([H])c([H])c2C1([H])[H]

$$$$
97:0:0
     RDKit          3D

 89 98  0  0  1  0  0  0  0  0999 V2000
  -28.5200  -21.5710   20.5670 C   0  0  0  0  0  3  0  0  0  0  0  0
  -29.1920  -20.3590   19.9840 C   0  0  0  0  0  0  0  0  0  0  0  0
  -28.6570  -22.9810   20.0450 C   0  0  0  0  0  0  0  0  0  0  0  0
  -30.0090  -21.9350   18.4420 C   0  0  0  0  0  0  0  0  0  0  0  0
  -30.7870  -22.1100   17.1500 C   0  0  0  0  0  1  0  0  0  0  0  0
  -29.9460  -20.6740   18.9070 N   0  0  0  0  0  0  0  0  0  0  0  0
  -29.4300  -23.0450   18.9370 N   0  0  0  0  0  0  0  0  0  0  0  0
  -30.4450  -15.1440   20.2830 C   0  0  0  0  0  0  0  0  0  0  0  0
  -30.3800  -12.7420   19.3810 C   0  0  0  0  0  2  0  0  0  0  0  0
  -29.4600  -12.6380   18.1440 C   0  0  0  0  0  2  0  0  0  0  0  0
  -27.9920  -12.4260   18.5650 C   0  0  0  0  0  2  0  0  0  0  0  0
  -27.5730  -13.3390   19.7510 C   0  0  0  0  0  3  0  0  0  0  0  0
  -28.6290  -13.3920   20.8710 C   0  0  0  0  0  2  0  0  0  0  0  0
  -29.8700  -13.8590   20.2440 N   0  0  0  0  0  0  0  0  0  0  0  0
  -31.6600  -15.1670   20.0280 O   0  0  0  0  0  0  0  0  0  0  0  0
  -29.2620  -17.4020   19.3780 C   0  0  0  0  0  2  0  0  0  0  0  0
  -30.1880  -17.6930   21.1190 C   0  0  0  0  0  2  0  0  0  0  0  0
  -29.1720  -18.6810   20.3550 C   0  0  0  0  0  3  0  0  0  0  0  0
  -29.6980  -16.3900   20.4530 N   0  0  0  0  0  0  0  0  0  0  0  0
  -25.2030  -13.8870   20.5180 C   0  0  0  0  0  0  0  0  0  0  0  0
  -24.1460  -13.1030   20.8900 C   0  0  0  0  0  0  0  0  0  0  0  0
  -24.6160  -11.7550   20.8480 C   0  0  0  0  0  0  0  0  0  0  0  0
  -26.2460  -13.0150   20.2610 N   0  0  0  0  0  0  0  0  0  0  0  0
  -25.9060  -11.7270   20.5270 N   0  0  0  0  0  0  0  0  0  0  0  0
  -23.8920  -10.4890   21.0330 C   0  0  0  0  0  0  0  0  0  0  0  0
  -24.3150   -9.5220   21.9720 C   0  0  0  0  0  3  0  0  0  0  0  0
  -23.5850   -8.3270   22.1470 C   0  0  0  0  0  3  0  0  0  0  0  0
  -22.4180   -8.0900   21.3800 C   0  0  0  0  0  0  0  0  0  0  0  0
  -22.0160   -9.0450   20.4280 C   0  0  0  0  0  3  0  0  0  0  0  0
  -22.7470  -10.2310   20.2530 C   0  0  0  0  0  3  0  0  0  0  0  0
  -21.6640   -6.9460   21.4600 O   0  0  0  0  0  0  0  0  0  0  0  0
  -21.5850   -6.2140   22.6180 C   0  0  0  0  0  0  0  0  0  0  0  0
  -21.1010   -6.7770   23.8200 C   0  0  0  0  0  3  0  0  0  0  0  0
  -20.9700   -5.9730   24.9720 C   0  0  0  0  0  3  0  0  0  0  0  0
  -21.3140   -4.6100   24.9210 C   0  0  0  0  0  0  0  0  0  0  0  0
  -21.7920   -4.0470   23.7240 C   0  0  0  0  0  3  0  0  0  0  0  0
  -21.9230   -4.8470   22.5760 C   0  0  0  0  0  0  0  0  0  0  0  0
  -22.3640   -4.2940   21.4190 F   0  0  0  0  0  0  0  0  0  0  0  0
  -21.1820   -3.8340   26.0240 F   0  0  0  0  0  0  0  0  0  0  0  0
  -22.7480  -13.5760   21.1680 C   0  0  0  0  0  0  0  0  0  0  0  0
  -22.0200  -12.8730   22.0270 N   0  0  0  0  0  0  0  0  0  0  0  0
  -22.3100  -14.6050   20.6580 O   0  0  0  0  0  0  0  0  0  0  0  0
  -22.3890  -12.0500   22.4780 H   0  0  0  0  0  0  0  0  0  0  0  0
  -21.0790  -13.1720   22.2450 H   0  0  0  0  0  0  0  0  0  0  0  0
  -25.3490  -15.2600   20.3470 N   0  0  0  0  0  0  0  0  0  0  0  0
  -24.5570  -15.8870   20.4330 H   0  0  0  0  0  0  0  0  0  0  0  0
  -26.1820  -15.7160   19.9970 H   0  0  0  0  0  0  0  0  0  0  0  0
  -27.8890  -24.4340   20.5310 C   0  0  0  0  0  2  0  0  0  0  0  0
  -28.2080  -25.9900   20.2320 O   0  0  0  0  0  0  0  0  0  0  0  0
  -24.6070  -31.8740   23.2120 C   0  0  0  0  0  0  0  0  0  0  0  0
  -27.1870  -27.0510   20.2270 C   0  0  0  0  0  0  0  0  0  0  0  0
  -23.4210  -30.4680   21.5770 C   0  0  0  0  0  3  0  0  0  0  0  0
  -24.8770  -28.8710   20.1740 C   0  0  0  0  0  0  0  0  0  0  0  0
  -25.9820  -30.7090   21.4250 C   0  0  0  0  0  2  0  0  0  0  0  0
  -26.0610  -29.3000   20.7870 C   0  0  0  0  0  0  0  0  0  0  0  0
  -27.2200  -28.4110   20.7860 C   0  0  0  0  0  3  0  0  0  0  0  0
  -25.9770  -26.7600   19.5650 C   0  0  0  0  0  3  0  0  0  0  0  0
  -24.8540  -27.6200   19.5400 C   0  0  0  0  0  3  0  0  0  0  0  0
  -23.6530  -29.7810   20.2050 C   0  0  0  0  0  2  0  0  0  0  0  0
  -24.6900  -31.0420   22.1250 N   0  0  0  0  0  0  0  0  0  0  0  0
  -23.5170  -32.1600   23.7300 O   0  0  0  0  0  0  0  0  0  0  0  0
  -22.7320  -29.4700   22.5470 C   0  0  0  0  0  0  0  0  0  0  0  0
  -21.4030  -29.3030   22.4200 N   0  0  0  0  0  0  0  0  0  0  0  0
  -23.3960  -28.8470   23.3790 O   0  0  0  0  0  0  0  0  0  0  0  0
  -20.9230  -29.8620   21.7290 H   0  0  0  0  0  0  0  0  0  0  0  0
  -18.0160  -28.1150   22.9380 C   0  0  0  0  0  0  0  0  0  0  0  0
  -20.5780  -28.3710   23.1930 C   0  0  0  0  0  3  0  0  0  0  0  0
  -20.6710  -26.9390   22.6190 C   0  0  0  0  0  2  0  0  0  0  0  0
  -19.5630  -26.6180   21.6100 C   0  0  0  0  0  2  0  0  0  0  0  0
  -18.1850  -26.7650   22.2610 C   0  0  0  0  0  2  0  0  0  0  0  0
  -19.1390  -28.8760   23.3620 C   0  0  0  0  0  0  0  0  0  0  0  0
  -18.9210  -30.1350   23.9620 C   0  0  0  0  0  3  0  0  0  0  0  0
  -17.6170  -30.6340   24.1390 C   0  0  0  0  0  3  0  0  0  0  0  0
  -16.5110  -29.8720   23.7240 C   0  0  0  0  0  3  0  0  0  0  0  0
  -16.7110  -28.6150   23.1290 C   0  0  0  0  0  3  0  0  0  0  0  0
  -25.8760  -32.5190   23.8450 C   0  0  0  0  0  3  0  0  0  0  0  0
  -25.5570  -33.9220   24.1640 N   0  0  0  0  0  0  0  0  0  0  0  0
  -25.8970  -34.9750   23.4120 C   0  0  0  0  0  0  0  0  0  0  0  0
  -26.5750  -34.8690   22.3860 O   0  0  0  0  0  0  0  0  0  0  0  0
  -24.9580  -34.0780   24.9610 H   0  0  0  0  0  0  0  0  0  0  0  0
  -24.1790  -36.7790   23.0350 C   0  0  0  0  0  1  0  0  0  0  0  0
  -25.4060  -36.3670   23.8640 C   0  0  0  0  0  3  0  0  0  0  0  0
  -27.5300  -37.2490   24.7300 C   0  0  0  0  0  1  0  0  0  0  0  0
  -26.4430  -37.4180   23.7680 N   0  0  0  0  0  0  0  0  0  0  0  0
  -26.0390  -38.3400   23.9020 H   0  0  0  0  0  0  0  0  0  0  0  0
  -26.3700  -31.7630   25.1410 C   0  0  1  0  0  0  0  0  0  0  0  0
  -25.2620  -31.5450   26.1960 C   0  0  0  0  0  1  0  0  0  0  0  0
  -26.9530  -30.3770   24.7780 C   0  0  0  0  0  1  0  0  0  0  0  0
  -27.5130  -32.5630   25.8110 C   0  0  0  0  0  1  0  0  0  0  0  0
  2  1  2  0
  3 48  1  0
  3  1  1  0
  4  6  2  0
  4  7  1  0
  5  4  1  0
  6  2  1  0
  7  3  2  0
  8 19  1  0
  9 14  1  0
 10 11  1  0
 10  9  1  0
 12 11  1  0
 12 23  1  0
 12 13  1  0
 14  8  1  0
 14 13  1  0
 15  8  2  0
 16 18  1  0
 16 19  1  0
 18  2  1  0
 18 17  1  0
 19 17  1  0
 20 21  2  0
 21 40  1  0
 22 21  1  0
 22 25  1  0
 23 20  1  0
 23 24  1  0
 24 22  2  0
 25 26  1  0
 26 27  2  0
 28 31  1  0
 28 27  1  0
 29 28  2  0
 30 29  1  0
 30 25  2  0
 31 32  1  0
 32 33  1  0
 33 34  2  0
 35 34  1  0
 35 39  1  0
 36 35  2  0
 37 32  2  0
 37 36  1  0
 38 37  1  0
 40 41  1  0
 41 44  1  0
 41 43  1  0
 42 40  2  0
 45 46  1  0
 45 20  1  0
 47 45  1  0
 49 48  1  0
 50 61  2  0
 51 49  1  0
 51 56  1  0
 52 60  1  0
 52 62  1  0
 53 59  1  0
 53 55  1  0
 54 60  1  0
 55 54  1  0
 56 55  2  0
 57 51  2  0
 58 57  1  0
 58 53  2  0
 59 52  1  0
 60 50  1  0
 62 64  2  0
 63 62  1  0
 65 63  1  0
 66 75  2  0
 66 71  1  0
 67 63  1  0
 67 71  1  0
 68 67  1  0
 69 70  1  0
 69 68  1  0
 70 66  1  0
 71 72  2  0
 72 73  1  0
 74 73  2  0
 75 74  1  0
 76 50  1  0
 76 77  1  0
 76 86  1  0
 77 80  1  0
 78 82  1  0
 78 77  1  0
 79 78  2  0
 82 81  1  0
 84 82  1  0
 84 85  1  0
 84 83  1  0
 86 89  1  1
 86 87  1  0
 88 86  1  0
M  ISO  4   8 100  19 100  48 101  49 101
M  END
>  <TORSDO>  (98) 
F 17

>  <SCORE>  (98) 
-16.286

>  <name>  (98) 
97

>  <ligand_id>  (98) 
97

>  <original_smiles>  (98) 
[H]c1c(C([H])([H])Oc2c([H])c([H])c3c(c2[H])C([H])([H])N(C(=O)C([H])(N([H])C(=O)C([H])(N([H])C([H])([H])[H])C([H])([H])[H])C(C([H])([H])[H])(C([H])([H])[H])C([H])([H])[H])C([H])(C(=O)N([H])C2([H])c4c([H])c([H])c([H])c([H])c4C([H])([H])C([H])([H])C2([H])[H])C3([H])[H])nc(C([H])([H])[H])nc1C1([H])C([H])([H])N(C(=O)N2C([H])([H])C([H])([H])C([H])([H])C([H])(n3nc(-c4c([H])c([H])c(Oc5c([H])c([H])c(F)c([H])c5F)c([H])c4[H])c(C(=O)N([H])[H])c3N([H])[H])C2([H])[H])C1([H])[H]

>  <smiles>  (98) 
[H]c1c(C([H])([H])Oc2c([H])c([H])c3c(c2[H])C([H])([H])N(C(=O)C([H])(N([H])C(=O)C([H])(N([H])C([H])([H])[H])C([H])([H])[H])C(C([H])([H])[H])(C([H])([H])[H])C([H])([H])[H])C([H])(C(=O)N([H])C2([H])c4c([H])c([H])c([H])c([H])c4C([H])([H])C([H])([H])C2([H])[H])C3([H])[H])nc(C([H])([H])[H])nc1C1([H])C([H])([H])N(C(=O)N2C([H])([H])C([H])([H])C([H])([H])C([H])(n3nc(-c4c([H])c([H])c(Oc5c([H])c([H])c(F)c([H])c5F)c([H])c4[H])c(C(=O)N([H])[H])c3N([H])[H])C2([H])[H])C1([H])[H]

$$$$
