0:0:0
     RDKit          3D

 90 99  0  0  1  0  0  0  0  0999 V2000
  -27.5960  -23.3460   19.7240 C   0  0  0  0  0  2  0  0  0  0  0  0
  -29.8620  -22.4840   20.8400 C   0  0  0  0  0  3  0  0  0  0  0  0
  -29.0390  -21.3760   20.3650 C   0  0  0  0  0  0  0  0  0  0  0  0
  -28.4130  -24.4580   20.2260 C   0  0  0  0  0  0  0  0  0  0  0  0
  -31.1000  -22.1340   21.6440 C   0  0  0  0  0  1  0  0  0  0  0  0
  -27.8930  -21.9500   19.7880 N   0  0  0  0  0  0  0  0  0  0  0  0
  -29.5900  -23.8840   20.7440 N   0  0  0  0  0  0  0  0  0  0  0  0
  -28.2850  -25.9920   20.1910 O   0  0  0  0  0  0  0  0  0  0  0  0
  -24.5920  -31.8830   23.1810 C   0  0  0  0  0  0  0  0  0  0  0  0
  -27.1860  -27.0070   20.1870 C   0  0  0  0  0  0  0  0  0  0  0  0
  -23.3930  -30.4690   21.5570 C   0  0  0  0  0  3  0  0  0  0  0  0
  -24.8460  -28.8460   20.1550 C   0  0  0  0  0  0  0  0  0  0  0  0
  -25.9560  -30.6970   21.3920 C   0  0  0  0  0  2  0  0  0  0  0  0
  -26.0360  -29.2780   20.7600 C   0  0  0  0  0  0  0  0  0  0  0  0
  -27.1900  -28.3730   20.7510 C   0  0  0  0  0  3  0  0  0  0  0  0
  -25.9620  -26.7160   19.5390 C   0  0  0  0  0  3  0  0  0  0  0  0
  -24.8320  -27.5860   19.5340 C   0  0  0  0  0  3  0  0  0  0  0  0
  -23.6200  -29.7550   20.1920 C   0  0  0  0  0  2  0  0  0  0  0  0
  -24.6690  -31.0400   22.1000 N   0  0  0  0  0  0  0  0  0  0  0  0
  -23.5060  -32.1700   23.7050 O   0  0  0  0  0  0  0  0  0  0  0  0
  -22.7060  -29.4830   22.5380 C   0  0  0  0  0  0  0  0  0  0  0  0
  -21.3770  -29.3000   22.4140 N   0  0  0  0  0  0  0  0  0  0  0  0
  -23.3740  -28.8730   23.3760 O   0  0  0  0  0  0  0  0  0  0  0  0
  -20.8870  -29.8140   21.6940 H   0  0  0  0  0  0  0  0  0  0  0  0
  -18.0060  -28.0950   22.9670 C   0  0  0  0  0  0  0  0  0  0  0  0
  -20.5690  -28.3700   23.2090 C   0  0  0  0  0  3  0  0  0  0  0  0
  -20.6650  -26.9370   22.6490 C   0  0  0  0  0  2  0  0  0  0  0  0
  -19.5580  -26.6010   21.6460 C   0  0  0  0  0  2  0  0  0  0  0  0
  -18.1750  -26.7420   22.2950 C   0  0  0  0  0  2  0  0  0  0  0  0
  -19.1280  -28.8640   23.3860 C   0  0  0  0  0  0  0  0  0  0  0  0
  -18.9150  -30.1270   23.9720 C   0  0  0  0  0  3  0  0  0  0  0  0
  -17.6060  -30.6210   24.1540 C   0  0  0  0  0  3  0  0  0  0  0  0
  -16.5040  -29.8530   23.7550 C   0  0  0  0  0  3  0  0  0  0  0  0
  -16.7010  -28.5890   23.1670 C   0  0  0  0  0  3  0  0  0  0  0  0
  -25.8650  -32.5370   23.8020 C   0  0  0  0  0  3  0  0  0  0  0  0
  -25.5340  -33.9310   24.1460 N   0  0  0  0  0  0  0  0  0  0  0  0
  -25.8540  -35.0020   23.4030 C   0  0  0  0  0  0  0  0  0  0  0  0
  -26.5080  -34.9160   22.3620 O   0  0  0  0  0  0  0  0  0  0  0  0
  -24.9460  -34.0710   24.9530 H   0  0  0  0  0  0  0  0  0  0  0  0
  -24.1010  -36.7920   23.0970 C   0  0  0  0  0  1  0  0  0  0  0  0
  -25.3590  -36.3810   23.8850 C   0  0  0  0  0  3  0  0  0  0  0  0
  -27.4980  -37.2740   24.6950 C   0  0  0  0  0  1  0  0  0  0  0  0
  -26.3790  -37.4490   23.7720 N   0  0  0  0  0  0  0  0  0  0  0  0
  -25.9670  -38.3620   23.9450 H   0  0  0  0  0  0  0  0  0  0  0  0
  -26.3910  -31.7760   25.0830 C   0  0  1  0  0  0  0  0  0  0  0  0
  -25.3030  -31.5390   26.1570 C   0  0  0  0  0  1  0  0  0  0  0  0
  -26.9810  -30.4010   24.7000 C   0  0  0  0  0  1  0  0  0  0  0  0
  -27.5370  -32.5830   25.7380 C   0  0  0  0  0  1  0  0  0  0  0  0
  -29.1160  -19.6600   20.7020 C   0  0  0  0  0  2  0  0  0  0  0  0
  -30.4520  -15.3080   20.3270 C   0  0  0  0  0  0  0  0  0  0  0  0
  -30.3580  -12.8520   19.4580 C   0  0  0  0  0  2  0  0  0  0  0  0
  -29.4400  -12.6260   18.2340 C   0  0  0  0  0  2  0  0  0  0  0  0
  -27.9920  -12.3750   18.6810 C   0  0  0  0  0  2  0  0  0  0  0  0
  -27.5580  -13.3460   19.8060 C   0  0  0  0  0  3  0  0  0  0  0  0
  -28.6090  -13.5460   20.9180 C   0  0  0  0  0  2  0  0  0  0  0  0
  -29.8340  -14.0240   20.2550 N   0  0  0  0  0  0  0  0  0  0  0  0
  -31.6880  -15.2380   20.3070 O   0  0  0  0  0  0  0  0  0  0  0  0
  -29.2420  -18.0120   18.1290 C   0  0  0  0  0  2  0  0  0  0  0  0
  -30.5060  -18.5580   18.7900 C   0  0  0  0  0  2  0  0  0  0  0  0
  -29.0200  -16.6540   18.8450 C   0  0  0  0  0  2  0  0  0  0  0  0
  -30.1470  -18.2590   20.2400 C   0  0  0  0  0  3  0  0  0  0  0  0
  -29.7600  -16.6310   20.1420 N   0  0  0  0  0  0  0  0  0  0  0  0
  -25.1830  -13.9230   20.5450 C   0  0  0  0  0  0  0  0  0  0  0  0
  -24.1100  -13.1540   20.9020 C   0  0  0  0  0  0  0  0  0  0  0  0
  -24.5730  -11.8040   20.8830 C   0  0  0  0  0  0  0  0  0  0  0  0
  -26.2250  -13.0450   20.3210 N   0  0  0  0  0  0  0  0  0  0  0  0
  -25.8710  -11.7630   20.6070 N   0  0  0  0  0  0  0  0  0  0  0  0
  -23.8400  -10.5450   21.0570 C   0  0  0  0  0  0  0  0  0  0  0  0
  -24.2600   -9.5770   21.9960 C   0  0  0  0  0  3  0  0  0  0  0  0
  -23.5340   -8.3770   22.1610 C   0  0  0  0  0  3  0  0  0  0  0  0
  -22.3700   -8.1440   21.3900 C   0  0  0  0  0  0  0  0  0  0  0  0
  -21.9670   -9.1020   20.4390 C   0  0  0  0  0  3  0  0  0  0  0  0
  -22.6930  -10.2920   20.2730 C   0  0  0  0  0  3  0  0  0  0  0  0
  -21.6120   -7.0000   21.4710 O   0  0  0  0  0  0  0  0  0  0  0  0
  -21.5570   -6.2580   22.6240 C   0  0  0  0  0  0  0  0  0  0  0  0
  -21.1300   -6.8130   23.8510 C   0  0  0  0  0  3  0  0  0  0  0  0
  -21.0200   -5.9940   24.9920 C   0  0  0  0  0  3  0  0  0  0  0  0
  -21.3270   -4.6210   24.9080 C   0  0  0  0  0  0  0  0  0  0  0  0
  -21.7450   -4.0690   23.6840 C   0  0  0  0  0  3  0  0  0  0  0  0
  -21.8590   -4.8850   22.5460 C   0  0  0  0  0  0  0  0  0  0  0  0
  -22.2460   -4.3390   21.3670 F   0  0  0  0  0  0  0  0  0  0  0  0
  -21.2130   -3.8360   26.0030 F   0  0  0  0  0  0  0  0  0  0  0  0
  -22.7050  -13.6350   21.1270 C   0  0  0  0  0  0  0  0  0  0  0  0
  -21.9540  -12.9540   21.9850 N   0  0  0  0  0  0  0  0  0  0  0  0
  -22.2830  -14.6510   20.5790 O   0  0  0  0  0  0  0  0  0  0  0  0
  -22.3100  -12.1330   22.4510 H   0  0  0  0  0  0  0  0  0  0  0  0
  -21.0110  -13.2610   22.1780 H   0  0  0  0  0  0  0  0  0  0  0  0
  -25.3480  -15.2910   20.3590 N   0  0  0  0  0  0  0  0  0  0  0  0
  -24.5800  -15.9420   20.4680 H   0  0  0  0  0  0  0  0  0  0  0  0
  -26.1940  -15.7360   20.0330 H   0  0  0  0  0  0  0  0  0  0  0  0
  1  6  1  0
  1  4  1  0
  2  5  1  0
  3 49  1  0
  3  2  1  0
  4  7  2  0
  6  3  2  0
  7  2  1  0
  8  4  1  0
  9 20  2  0
 10  8  1  0
 10 15  1  0
 11 19  1  0
 11 21  1  0
 12 18  1  0
 12 14  1  0
 13 19  1  0
 14 13  1  0
 15 14  2  0
 16 10  2  0
 17 16  1  0
 17 12  2  0
 18 11  1  0
 19  9  1  0
 21 23  2  0
 22 21  1  0
 24 22  1  0
 25 34  2  0
 25 30  1  0
 26 22  1  0
 26 30  1  0
 27 26  1  0
 28 29  1  0
 28 27  1  0
 29 25  1  0
 30 31  2  0
 31 32  1  0
 33 32  2  0
 34 33  1  0
 35  9  1  0
 35 36  1  0
 35 45  1  0
 36 39  1  0
 37 41  1  0
 37 36  1  0
 38 37  2  0
 41 40  1  0
 43 41  1  0
 43 44  1  0
 43 42  1  0
 45 48  1  1
 45 46  1  0
 47 45  1  0
 51 56  1  0
 52 53  1  0
 52 51  1  0
 54 53  1  0
 54 66  1  0
 54 55  1  0
 56 50  1  0
 56 55  1  0
 57 50  2  0
 58 59  1  0
 58 60  1  0
 59 61  1  0
 60 62  1  0
 61 49  1  0
 62 61  1  0
 62 50  1  0
 63 64  2  0
 64 83  1  0
 65 64  1  0
 65 68  1  0
 66 63  1  0
 66 67  1  0
 67 65  2  0
 68 69  1  0
 69 70  2  0
 71 74  1  0
 71 70  1  0
 72 71  2  0
 73 72  1  0
 73 68  2  0
 74 75  1  0
 75 76  1  0
 76 77  2  0
 78 77  1  0
 78 82  1  0
 79 78  2  0
 80 75  2  0
 80 79  1  0
 81 80  1  0
 83 84  1  0
 84 87  1  0
 84 86  1  0
 85 83  2  0
 88 89  1  0
 88 63  1  0
 90 88  1  0
M  ISO  4   4 101   8 101  50 100  62 100
M  END
>  <TORSDO>  (1) 
F 17

>  <SCORE>  (1) 
-15.880

>  <name>  (1) 
0

>  <ligand_id>  (1) 
0

>  <original_smiles>  (1) 
[H]c1nc(C([H])([H])C2([H])N(C(=O)N3C([H])([H])C([H])([H])C([H])([H])C([H])(n4nc(-c5c([H])c([H])c(Oc6c([H])c([H])c(F)c([H])c6F)c([H])c5[H])c(C(=O)N([H])[H])c4N([H])[H])C3([H])[H])C([H])([H])C([H])([H])C2([H])[H])c(C([H])([H])[H])nc1Oc1c([H])c([H])c2c(c1[H])C([H])([H])N(C(=O)C([H])(N([H])C(=O)C([H])(N([H])C([H])([H])[H])C([H])([H])[H])C(C([H])([H])[H])(C([H])([H])[H])C([H])([H])[H])C([H])(C(=O)N([H])C1([H])c3c([H])c([H])c([H])c([H])c3C([H])([H])C([H])([H])C1([H])[H])C2([H])[H]

>  <smiles>  (1) 
[H]c1nc(C([H])([H])C2([H])N(C(=O)N3C([H])([H])C([H])([H])C([H])([H])C([H])(n4nc(-c5c([H])c([H])c(Oc6c([H])c([H])c(F)c([H])c6F)c([H])c5[H])c(C(=O)N([H])[H])c4N([H])[H])C3([H])[H])C([H])([H])C([H])([H])C2([H])[H])c(C([H])([H])[H])nc1Oc1c([H])c([H])c2c(c1[H])C([H])([H])N(C(=O)C([H])(N([H])C(=O)C([H])(N([H])C([H])([H])[H])C([H])([H])[H])C(C([H])([H])[H])(C([H])([H])[H])C([H])([H])[H])C([H])(C(=O)N([H])C1([H])c3c([H])c([H])c([H])c([H])c3C([H])([H])C([H])([H])C1([H])[H])C2([H])[H]

$$$$
1:0:0
     RDKit          3D

 91100  0  0  1  0  0  0  0  0999 V2000
  -28.8610  -21.0660   20.3150 C   0  0  0  0  0  0  0  0  0  0  0  0
  -27.4090  -23.1610   20.7070 C   0  0  0  0  0  0  0  0  0  0  0  0
  -29.7390  -22.1690   19.8800 C   0  0  0  0  0  0  0  0  0  0  0  0
  -28.2960  -24.2570   20.2720 C   0  0  0  0  0  0  0  0  0  0  0  0
  -26.0370  -23.5340   21.2280 C   0  0  0  0  0  1  0  0  0  0  0  0
  -27.6730  -21.7300   20.7170 N   0  0  0  0  0  0  0  0  0  0  0  0
  -29.4800  -23.5890   19.8730 N   0  0  0  0  0  0  0  0  0  0  0  0
  -31.0030  -21.8480   19.4040 N   0  0  0  0  0  0  0  0  0  0  0  0
  -31.1700  -20.8900   19.1140 H   0  0  0  0  0  0  0  0  0  0  0  0
  -31.4860  -22.5360   18.8390 H   0  0  0  0  0  0  0  0  0  0  0  0
  -30.3860  -15.5130   20.1860 C   0  0  0  0  0  0  0  0  0  0  0  0
  -30.3600  -13.0310   19.3340 C   0  0  0  0  0  2  0  0  0  0  0  0
  -29.4340  -12.7380   18.1250 C   0  0  0  0  0  2  0  0  0  0  0  0
  -28.0090  -12.4250   18.6020 C   0  0  0  0  0  2  0  0  0  0  0  0
  -27.5510  -13.4030   19.7100 C   0  0  0  0  0  3  0  0  0  0  0  0
  -28.6110  -13.6460   20.8080 C   0  0  0  0  0  2  0  0  0  0  0  0
  -29.7990  -14.1980   20.1330 N   0  0  0  0  0  0  0  0  0  0  0  0
  -31.6080  -15.4330   19.9760 O   0  0  0  0  0  0  0  0  0  0  0  0
  -28.8040  -17.8760   19.6330 C   0  0  0  0  0  2  0  0  0  0  0  0
  -30.4310  -18.2680   20.7230 C   0  0  0  0  0  2  0  0  0  0  0  0
  -29.1500  -19.2780   20.4610 C   0  0  0  0  0  3  0  0  0  0  0  0
  -29.7530  -16.8850   20.4040 N   0  0  0  0  0  0  0  0  0  0  0  0
  -25.2060  -13.9250   20.5420 C   0  0  0  0  0  0  0  0  0  0  0  0
  -24.1570  -13.1350   20.9170 C   0  0  0  0  0  0  0  0  0  0  0  0
  -24.6290  -11.7880   20.8480 C   0  0  0  0  0  0  0  0  0  0  0  0
  -26.2460  -13.0600   20.2540 N   0  0  0  0  0  0  0  0  0  0  0  0
  -25.9140  -11.7670   20.5080 N   0  0  0  0  0  0  0  0  0  0  0  0
  -23.9100  -10.5200   21.0270 C   0  0  0  0  0  0  0  0  0  0  0  0
  -24.3410   -9.5500   21.9590 C   0  0  0  0  0  3  0  0  0  0  0  0
  -23.6180   -8.3490   22.1290 C   0  0  0  0  0  3  0  0  0  0  0  0
  -22.4490   -8.1090   21.3680 C   0  0  0  0  0  0  0  0  0  0  0  0
  -22.0380   -9.0670   20.4240 C   0  0  0  0  0  3  0  0  0  0  0  0
  -22.7620  -10.2590   20.2520 C   0  0  0  0  0  3  0  0  0  0  0  0
  -21.6980   -6.9620   21.4470 O   0  0  0  0  0  0  0  0  0  0  0  0
  -21.6110   -6.2380   22.6090 C   0  0  0  0  0  0  0  0  0  0  0  0
  -21.1090   -6.8020   23.8030 C   0  0  0  0  0  3  0  0  0  0  0  0
  -20.9710   -6.0030   24.9560 C   0  0  0  0  0  3  0  0  0  0  0  0
  -21.3260   -4.6410   24.9150 C   0  0  0  0  0  0  0  0  0  0  0  0
  -21.8190   -4.0770   23.7270 C   0  0  0  0  0  3  0  0  0  0  0  0
  -21.9580   -4.8730   22.5760 C   0  0  0  0  0  0  0  0  0  0  0  0
  -22.4150   -4.3190   21.4270 F   0  0  0  0  0  0  0  0  0  0  0  0
  -21.1870   -3.8710   26.0210 F   0  0  0  0  0  0  0  0  0  0  0  0
  -22.7650  -13.6010   21.2230 C   0  0  0  0  0  0  0  0  0  0  0  0
  -22.0600  -12.8890   22.0940 N   0  0  0  0  0  0  0  0  0  0  0  0
  -22.3130  -14.6320   20.7250 O   0  0  0  0  0  0  0  0  0  0  0  0
  -22.4410  -12.0570   22.5180 H   0  0  0  0  0  0  0  0  0  0  0  0
  -21.1250  -13.1810   22.3420 H   0  0  0  0  0  0  0  0  0  0  0  0
  -25.3630  -15.3000   20.3900 N   0  0  0  0  0  0  0  0  0  0  0  0
  -24.6070  -15.9580   20.5430 H   0  0  0  0  0  0  0  0  0  0  0  0
  -26.2180  -15.7430   20.0810 H   0  0  0  0  0  0  0  0  0  0  0  0
  -28.2340  -25.8330   20.2980 O   0  0  0  0  0  0  0  0  0  0  0  0
  -24.6700  -31.9240   23.2540 C   0  0  0  0  0  0  0  0  0  0  0  0
  -27.1930  -26.9330   20.2870 C   0  0  0  0  0  0  0  0  0  0  0  0
  -23.4710  -30.5230   21.6220 C   0  0  0  0  0  3  0  0  0  0  0  0
  -24.9110  -28.8790   20.2190 C   0  0  0  0  0  0  0  0  0  0  0  0
  -26.0400  -30.6930   21.4870 C   0  0  0  0  0  2  0  0  0  0  0  0
  -26.1000  -29.2660   20.8470 C   0  0  0  0  0  0  0  0  0  0  0  0
  -27.2290  -28.3150   20.8560 C   0  0  0  0  0  3  0  0  0  0  0  0
  -25.9750  -26.7230   19.6000 C   0  0  0  0  0  3  0  0  0  0  0  0
  -24.8780  -27.6300   19.5740 C   0  0  0  0  0  3  0  0  0  0  0  0
  -23.7020  -29.8200   20.2550 C   0  0  0  0  0  2  0  0  0  0  0  0
  -24.7500  -31.0770   22.1750 N   0  0  0  0  0  0  0  0  0  0  0  0
  -23.5810  -32.2270   23.7690 O   0  0  0  0  0  0  0  0  0  0  0  0
  -22.7620  -29.5450   22.5970 C   0  0  0  0  0  0  0  0  0  0  0  0
  -21.4330  -29.3820   22.4640 N   0  0  0  0  0  0  0  0  0  0  0  0
  -23.4180  -28.9300   23.4410 O   0  0  0  0  0  0  0  0  0  0  0  0
  -20.9540  -29.9280   21.7620 H   0  0  0  0  0  0  0  0  0  0  0  0
  -18.0460  -28.1760   22.9690 C   0  0  0  0  0  0  0  0  0  0  0  0
  -20.6050  -28.4530   23.2420 C   0  0  0  0  0  3  0  0  0  0  0  0
  -20.7110  -27.0140   22.6830 C   0  0  0  0  0  2  0  0  0  0  0  0
  -19.6150  -26.6790   21.6660 C   0  0  0  0  0  2  0  0  0  0  0  0
  -18.2300  -26.8230   22.3030 C   0  0  0  0  0  2  0  0  0  0  0  0
  -19.1600  -28.9470   23.3960 C   0  0  0  0  0  0  0  0  0  0  0  0
  -18.9320  -30.2100   23.9850 C   0  0  0  0  0  3  0  0  0  0  0  0
  -17.6230  -30.7030   24.1470 C   0  0  0  0  0  3  0  0  0  0  0  0
  -16.5240  -29.9320   23.7320 C   0  0  0  0  0  3  0  0  0  0  0  0
  -16.7360  -28.6680   23.1500 C   0  0  0  0  0  3  0  0  0  0  0  0
  -25.9420  -32.5670   23.8860 C   0  0  0  0  0  3  0  0  0  0  0  0
  -25.6280  -33.9690   24.2210 N   0  0  0  0  0  0  0  0  0  0  0  0
  -25.9350  -35.0270   23.4590 C   0  0  0  0  0  0  0  0  0  0  0  0
  -26.5760  -34.9260   22.4090 O   0  0  0  0  0  0  0  0  0  0  0  0
  -25.0550  -34.1190   25.0380 H   0  0  0  0  0  0  0  0  0  0  0  0
  -24.1850  -36.8170   23.1780 C   0  0  0  0  0  1  0  0  0  0  0  0
  -25.4630  -36.4170   23.9340 C   0  0  0  0  0  3  0  0  0  0  0  0
  -27.6230  -37.3230   24.6730 C   0  0  0  0  0  1  0  0  0  0  0  0
  -26.4820  -37.4770   23.7740 N   0  0  0  0  0  0  0  0  0  0  0  0
  -26.0770  -38.3950   23.9340 H   0  0  0  0  0  0  0  0  0  0  0  0
  -26.4410  -31.8070   25.1770 C   0  0  1  0  0  0  0  0  0  0  0  0
  -25.3360  -31.5870   26.2390 C   0  0  0  0  0  1  0  0  0  0  0  0
  -27.0220  -30.4220   24.8140 C   0  0  0  0  0  1  0  0  0  0  0  0
  -27.5900  -32.6010   25.8440 C   0  0  0  0  0  1  0  0  0  0  0  0
  1  6  1  0
  2  6  2  0
  2  5  1  0
  3  1  2  0
  4 51  1  0
  4  2  1  0
  7  3  1  0
  7  4  2  0
  8  3  1  0
  9  8  1  0
 10  8  1  0
 11 22  1  0
 12 17  1  0
 13 14  1  0
 13 12  1  0
 15 14  1  0
 15 26  1  0
 15 16  1  0
 17 11  1  0
 17 16  1  0
 18 11  2  0
 19 22  1  0
 19 21  1  0
 21  1  1  0
 21 20  1  0
 22 20  1  0
 23 24  2  0
 24 43  1  0
 25 24  1  0
 25 28  1  0
 26 27  1  0
 26 23  1  0
 27 25  2  0
 28 29  1  0
 29 30  2  0
 31 34  1  0
 31 30  1  0
 32 31  2  0
 33 32  1  0
 33 28  2  0
 34 35  1  0
 35 36  1  0
 36 37  2  0
 38 37  1  0
 38 42  1  0
 39 38  2  0
 40 35  2  0
 40 39  1  0
 41 40  1  0
 43 44  1  0
 44 47  1  0
 44 46  1  0
 45 43  2  0
 48 23  1  0
 48 49  1  0
 50 48  1  0
 52 63  2  0
 53 51  1  0
 53 58  1  0
 54 62  1  0
 54 64  1  0
 55 61  1  0
 55 57  1  0
 56 62  1  0
 57 58  2  0
 57 56  1  0
 59 53  2  0
 60 59  1  0
 60 55  2  0
 61 54  1  0
 62 52  1  0
 64 66  2  0
 65 64  1  0
 67 65  1  0
 68 77  2  0
 68 73  1  0
 69 65  1  0
 69 73  1  0
 70 69  1  0
 71 72  1  0
 71 70  1  0
 72 68  1  0
 73 74  2  0
 74 75  1  0
 76 75  2  0
 77 76  1  0
 78 52  1  0
 78 79  1  0
 78 88  1  0
 79 82  1  0
 80 84  1  0
 80 79  1  0
 81 80  2  0
 84 83  1  0
 86 87  1  0
 86 84  1  0
 86 85  1  0
 88 91  1  1
 88 89  1  0
 90 88  1  0
M  ISO  4   4 101  11 100  22 100  51 101
M  END
>  <TORSDO>  (2) 
F 16

>  <SCORE>  (2) 
-16.096

>  <name>  (2) 
1

>  <ligand_id>  (2) 
1

>  <original_smiles>  (2) 
[H]c1c([H])c([H])c2c(c1[H])C([H])([H])C([H])([H])C([H])([H])C2([H])N([H])C(=O)C1([H])N(C(=O)C([H])(N([H])C(=O)C([H])(N([H])C([H])([H])[H])C([H])([H])[H])C(C([H])([H])[H])(C([H])([H])[H])C([H])([H])[H])C([H])([H])c2c([H])c(Oc3nc(N([H])[H])c(C4([H])C([H])([H])N(C(=O)N5C([H])([H])C([H])([H])C([H])([H])C([H])(n6nc(-c7c([H])c([H])c(Oc8c([H])c([H])c(F)c([H])c8F)c([H])c7[H])c(C(=O)N([H])[H])c6N([H])[H])C5([H])[H])C4([H])[H])nc3C([H])([H])[H])c([H])c([H])c2C1([H])[H]

>  <smiles>  (2) 
[H]c1c([H])c([H])c2c(c1[H])C([H])([H])C([H])([H])C([H])([H])C2([H])N([H])C(=O)C1([H])N(C(=O)C([H])(N([H])C(=O)C([H])(N([H])C([H])([H])[H])C([H])([H])[H])C(C([H])([H])[H])(C([H])([H])[H])C([H])([H])[H])C([H])([H])c2c([H])c(Oc3nc(N([H])[H])c(C4([H])C([H])([H])N(C(=O)N5C([H])([H])C([H])([H])C([H])([H])C([H])(n6nc(-c7c([H])c([H])c(Oc8c([H])c([H])c(F)c([H])c8F)c([H])c7[H])c(C(=O)N([H])[H])c6N([H])[H])C5([H])[H])C4([H])[H])nc3C([H])([H])[H])c([H])c([H])c2C1([H])[H]

$$$$
2:0:0
     RDKit          3D

 92101  0  0  1  0  0  0  0  0999 V2000
  -28.4500  -21.7660   21.3630 C   0  0  0  0  0  0  0  0  0  0  0  0
  -27.8800  -24.0150   21.0480 C   0  0  0  0  0  0  0  0  0  0  0  0
  -29.1020  -21.7010   20.0980 C   0  0  0  0  0  0  0  0  0  0  0  0
  -28.5190  -24.0460   19.7820 C   0  0  0  0  0  0  0  0  0  0  0  0
  -28.3720  -20.6130   22.3460 C   0  0  0  0  0  1  0  0  0  0  0  0
  -27.1630  -25.2060   21.6530 C   0  0  0  0  0  1  0  0  0  0  0  0
  -27.8520  -22.8980   21.8130 N   0  0  0  0  0  0  0  0  0  0  0  0
  -29.1200  -22.8670   19.3320 N   0  0  0  0  0  0  0  0  0  0  0  0
  -29.8650  -20.4050   19.5470 C   0  0  0  0  0  2  0  0  0  0  0  0
  -30.6500  -18.4040   21.1290 C   0  0  0  0  0  2  0  0  0  0  0  0
  -29.6660  -18.9130   20.1050 C   0  0  0  0  0  3  0  0  0  0  0  0
  -30.5910  -17.6210   19.8460 C   0  0  0  0  0  3  0  0  0  0  0  0
  -31.0110  -15.0600   19.8010 C   0  0  0  0  0  0  0  0  0  0  0  0
  -30.7960  -12.7280   18.9460 C   0  0  0  0  0  2  0  0  0  0  0  0
  -29.8020  -12.7200   17.7640 C   0  0  0  0  0  2  0  0  0  0  0  0
  -28.3540  -12.5670   18.2710 C   0  0  0  0  0  2  0  0  0  0  0  0
  -28.0250  -13.5250   19.4450 C   0  0  0  0  0  3  0  0  0  0  0  0
  -29.1340  -13.5120   20.5220 C   0  0  0  0  0  2  0  0  0  0  0  0
  -30.4000  -13.8300   19.8500 N   0  0  0  0  0  0  0  0  0  0  0  0
  -32.1680  -15.1660   19.3880 O   0  0  0  0  0  0  0  0  0  0  0  0
  -30.2360  -16.1800   20.0380 N   0  0  0  0  0  0  0  0  0  0  0  0
  -29.2880  -15.9890   20.3240 H   0  0  0  0  0  0  0  0  0  0  0  0
  -25.7070  -14.1530   20.3490 C   0  0  0  0  0  0  0  0  0  0  0  0
  -24.6470  -13.3920   20.7640 C   0  0  0  0  0  0  0  0  0  0  0  0
  -25.0700  -12.0320   20.6580 C   0  0  0  0  0  0  0  0  0  0  0  0
  -26.7080  -13.2560   20.0140 N   0  0  0  0  0  0  0  0  0  0  0  0
  -26.3360  -11.9730   20.2610 N   0  0  0  0  0  0  0  0  0  0  0  0
  -24.3240  -10.7820   20.8530 C   0  0  0  0  0  0  0  0  0  0  0  0
  -24.7240   -9.8250   21.8120 C   0  0  0  0  0  3  0  0  0  0  0  0
  -23.9790   -8.6400   21.9940 C   0  0  0  0  0  3  0  0  0  0  0  0
  -22.8200   -8.4040   21.2170 C   0  0  0  0  0  0  0  0  0  0  0  0
  -22.4390   -9.3490   20.2480 C   0  0  0  0  0  3  0  0  0  0  0  0
  -23.1850  -10.5240   20.0640 C   0  0  0  0  0  3  0  0  0  0  0  0
  -22.0490   -7.2700   21.3070 O   0  0  0  0  0  0  0  0  0  0  0  0
  -21.8670   -6.6150   22.5000 C   0  0  0  0  0  0  0  0  0  0  0  0
  -21.2750   -7.2490   23.6150 C   0  0  0  0  0  3  0  0  0  0  0  0
  -21.0430   -6.5190   24.7970 C   0  0  0  0  0  3  0  0  0  0  0  0
  -21.3950   -5.1570   24.8660 C   0  0  0  0  0  0  0  0  0  0  0  0
  -21.9810   -4.5240   23.7550 C   0  0  0  0  0  3  0  0  0  0  0  0
  -22.2130   -5.2510   22.5750 C   0  0  0  0  0  0  0  0  0  0  0  0
  -22.7580   -4.6310   21.5010 F   0  0  0  0  0  0  0  0  0  0  0  0
  -21.1650   -4.4550   25.9990 F   0  0  0  0  0  0  0  0  0  0  0  0
  -23.2830  -13.8940   21.1410 C   0  0  0  0  0  0  0  0  0  0  0  0
  -22.6000  -13.1960   22.0410 N   0  0  0  0  0  0  0  0  0  0  0  0
  -22.8340  -14.9400   20.6720 O   0  0  0  0  0  0  0  0  0  0  0  0
  -22.9780  -12.3500   22.4420 H   0  0  0  0  0  0  0  0  0  0  0  0
  -21.6880  -13.5130   22.3380 H   0  0  0  0  0  0  0  0  0  0  0  0
  -25.8930  -15.5250   20.2080 N   0  0  0  0  0  0  0  0  0  0  0  0
  -25.1450  -16.1860   20.3900 H   0  0  0  0  0  0  0  0  0  0  0  0
  -26.7120  -15.9580   19.8020 H   0  0  0  0  0  0  0  0  0  0  0  0
  -28.4820  -25.3240   18.8260 C   0  0  0  0  0  2  0  0  0  0  0  0
  -28.4470  -26.7360   19.3300 O   0  0  0  0  0  0  0  0  0  0  0  0
  -24.6770  -31.6910   22.9940 C   0  0  0  0  0  0  0  0  0  0  0  0
  -27.2840  -27.5320   19.3810 C   0  0  0  0  0  0  0  0  0  0  0  0
  -23.4370  -30.3990   21.2950 C   0  0  0  0  0  3  0  0  0  0  0  0
  -24.8630  -29.0510   19.6490 C   0  0  0  0  0  0  0  0  0  0  0  0
  -25.9490  -30.8400   21.0060 C   0  0  0  0  0  2  0  0  0  0  0  0
  -26.0440  -29.5290   20.2290 C   0  0  0  0  0  0  0  0  0  0  0  0
  -27.2530  -28.7830   20.0850 C   0  0  0  0  0  3  0  0  0  0  0  0
  -26.0710  -27.1130   18.7870 C   0  0  0  0  0  3  0  0  0  0  0  0
  -24.8800  -27.8530   18.9210 C   0  0  0  0  0  3  0  0  0  0  0  0
  -23.5990  -29.8630   19.8470 C   0  0  0  0  0  2  0  0  0  0  0  0
  -24.7100  -30.9900   21.8210 N   0  0  0  0  0  0  0  0  0  0  0  0
  -23.6150  -31.8690   23.6090 O   0  0  0  0  0  0  0  0  0  0  0  0
  -22.8700  -29.2700   22.1880 C   0  0  0  0  0  0  0  0  0  0  0  0
  -21.5500  -29.0320   22.0990 N   0  0  0  0  0  0  0  0  0  0  0  0
  -23.6150  -28.6160   22.9230 O   0  0  0  0  0  0  0  0  0  0  0  0
  -21.0030  -29.6170   21.4840 H   0  0  0  0  0  0  0  0  0  0  0  0
  -18.2660  -27.6050   22.6160 C   0  0  0  0  0  0  0  0  0  0  0  0
  -20.8150  -27.9890   22.8180 C   0  0  0  0  0  3  0  0  0  0  0  0
  -20.9720  -26.6180   22.1220 C   0  0  0  0  0  2  0  0  0  0  0  0
  -19.8490  -26.3150   21.1230 C   0  0  0  0  0  2  0  0  0  0  0  0
  -18.4880  -26.3270   21.8250 C   0  0  0  0  0  2  0  0  0  0  0  0
  -19.3570  -28.3930   23.0690 C   0  0  0  0  0  0  0  0  0  0  0  0
  -19.0930  -29.5890   23.7720 C   0  0  0  0  0  3  0  0  0  0  0  0
  -17.7700  -29.9980   24.0250 C   0  0  0  0  0  3  0  0  0  0  0  0
  -16.6940  -29.2070   23.5860 C   0  0  0  0  0  3  0  0  0  0  0  0
  -16.9430  -28.0120   22.8880 C   0  0  0  0  0  3  0  0  0  0  0  0
  -25.9670  -32.3210   23.6040 C   0  0  0  0  0  3  0  0  0  0  0  0
  -26.5550  -31.4840   24.8070 C   0  0  1  0  0  0  0  0  0  0  0  0
  -25.5160  -31.1520   25.9020 C   0  0  0  0  0  1  0  0  0  0  0  0
  -27.1530  -30.1500   24.3050 C   0  0  0  0  0  1  0  0  0  0  0  0
  -27.7130  -32.2660   25.4710 C   0  0  0  0  0  1  0  0  0  0  0  0
  -25.6330  -33.6850   24.0390 N   0  0  0  0  0  0  0  0  0  0  0  0
  -25.9200  -34.7970   23.3470 C   0  0  0  0  0  0  0  0  0  0  0  0
  -26.5620  -34.7820   22.2930 O   0  0  0  0  0  0  0  0  0  0  0  0
  -25.0560  -33.7680   24.8640 H   0  0  0  0  0  0  0  0  0  0  0  0
  -24.1380  -36.5650   23.1700 C   0  0  0  0  0  1  0  0  0  0  0  0
  -25.4130  -36.1370   23.9130 C   0  0  0  0  0  3  0  0  0  0  0  0
  -27.5470  -37.0260   24.7460 C   0  0  0  0  0  1  0  0  0  0  0  0
  -26.4170  -37.2230   23.8420 N   0  0  0  0  0  0  0  0  0  0  0  0
  -25.9910  -38.1200   24.0580 H   0  0  0  0  0  0  0  0  0  0  0  0
  1  7  1  0
  1  5  1  0
  2  6  1  0
  2  7  2  0
  3  1  2  0
  4  2  1  0
  8  4  2  0
  8  3  1  0
  9  3  1  0
 11  9  1  0
 11 10  1  0
 12 21  1  0
 12 11  1  0
 12 10  1  0
 13 19  1  0
 13 21  1  0
 14 19  1  0
 15 16  1  0
 15 14  1  0
 17 16  1  0
 17 26  1  0
 17 18  1  0
 19 18  1  0
 20 13  2  0
 21 22  1  0
 23 24  2  0
 24 43  1  0
 25 24  1  0
 25 28  1  0
 26 27  1  0
 26 23  1  0
 27 25  2  0
 28 29  1  0
 29 30  2  0
 31 34  1  0
 31 30  1  0
 32 31  2  0
 33 32  1  0
 33 28  2  0
 34 35  1  0
 35 40  2  0
 35 36  1  0
 36 37  2  0
 37 38  1  0
 38 42  1  0
 39 38  2  0
 40 39  1  0
 41 40  1  0
 43 44  1  0
 44 47  1  0
 44 46  1  0
 45 43  2  0
 48 23  1  0
 48 49  1  0
 50 48  1  0
 51 52  1  0
 51  4  1  0
 52 54  1  0
 53 64  2  0
 54 59  1  0
 55 63  1  0
 55 65  1  0
 56 62  1  0
 56 58  1  0
 57 63  1  0
 58 57  1  0
 59 58  2  0
 60 61  1  0
 60 54  2  0
 61 56  2  0
 62 55  1  0
 63 53  1  0
 65 67  2  0
 66 65  1  0
 68 66  1  0
 69 78  2  0
 69 74  1  0
 70 66  1  0
 70 74  1  0
 71 70  1  0
 72 73  1  0
 72 71  1  0
 73 69  1  0
 74 75  2  0
 75 76  1  0
 77 76  2  0
 78 77  1  0
 79 53  1  0
 79 84  1  0
 79 80  1  0
 80 83  1  1
 80 81  1  0
 82 80  1  0
 84 87  1  0
 85 89  1  0
 85 84  1  0
 86 85  2  0
 89 88  1  0
 91 89  1  0
 91 92  1  0
 91 90  1  0
M  ISO  4  13 100  21 100  51 101  52 101
M  END
>  <TORSDO>  (3) 
F 19

>  <SCORE>  (3) 
-11.232

>  <name>  (3) 
2

>  <ligand_id>  (3) 
2

>  <original_smiles>  (3) 
[H]c1c([H])c([H])c2c(c1[H])C([H])([H])C([H])([H])C([H])([H])C2([H])N([H])C(=O)C1([H])N(C(=O)C([H])(N([H])C(=O)C([H])(N([H])C([H])([H])[H])C([H])([H])[H])C(C([H])([H])[H])(C([H])([H])[H])C([H])([H])[H])C([H])([H])c2c([H])c(OC([H])([H])c3nc(C([H])([H])C4([H])C([H])([H])C4([H])N([H])C(=O)N4C([H])([H])C([H])([H])C([H])([H])C([H])(n5nc(-c6c([H])c([H])c(Oc7c([H])c([H])c(F)c([H])c7F)c([H])c6[H])c(C(=O)N([H])[H])c5N([H])[H])C4([H])[H])c(C([H])([H])[H])nc3C([H])([H])[H])c([H])c([H])c2C1([H])[H]

>  <smiles>  (3) 
[H]c1c([H])c([H])c2c(c1[H])C([H])([H])C([H])([H])C([H])([H])C2([H])N([H])C(=O)C1([H])N(C(=O)C([H])(N([H])C(=O)C([H])(N([H])C([H])([H])[H])C([H])([H])[H])C(C([H])([H])[H])(C([H])([H])[H])C([H])([H])[H])C([H])([H])c2c([H])c(OC([H])([H])c3nc(C([H])([H])C4([H])C([H])([H])C4([H])N([H])C(=O)N4C([H])([H])C([H])([H])C([H])([H])C([H])(n5nc(-c6c([H])c([H])c(Oc7c([H])c([H])c(F)c([H])c7F)c([H])c6[H])c(C(=O)N([H])[H])c5N([H])[H])C4([H])[H])c(C([H])([H])[H])nc3C([H])([H])[H])c([H])c([H])c2C1([H])[H]

$$$$
3:0:0
     RDKit          3D

 87 95  0  0  1  0  0  0  0  0999 V2000
  -30.4230  -15.2370   20.3440 C   0  0  0  0  0  0  0  0  0  0  0  0
  -30.4420  -12.7670   19.5590 C   0  0  0  0  0  2  0  0  0  0  0  0
  -29.5550  -12.5460   18.3070 C   0  0  0  0  0  2  0  0  0  0  0  0
  -28.0890  -12.3020   18.7060 C   0  0  0  0  0  2  0  0  0  0  0  0
  -27.6130  -13.2950   19.7950 C   0  0  0  0  0  3  0  0  0  0  0  0
  -28.6270  -13.4490   20.9490 C   0  0  0  0  0  2  0  0  0  0  0  0
  -29.8840  -13.9220   20.3490 N   0  0  0  0  0  0  0  0  0  0  0  0
  -31.6400  -15.2690   20.1030 O   0  0  0  0  0  0  0  0  0  0  0  0
  -30.2680  -20.3600   19.6440 C   0  0  0  0  0  3  0  0  0  0  0  0
  -28.4280  -18.8550   20.7690 C   0  0  0  0  0  3  0  0  0  0  0  0
  -29.1300  -21.1580   20.1110 C   0  0  0  0  0  0  0  0  0  0  0  0
  -29.5630  -18.0480   20.3070 C   0  0  0  0  0  0  0  0  0  0  0  0
  -28.2310  -20.2700   20.7040 N   0  0  0  0  0  0  0  0  0  0  0  0
  -30.4680  -18.9450   19.7280 N   0  0  0  0  0  0  0  0  0  0  0  0
  -29.5880  -16.4440   20.4620 N   0  0  0  0  0  0  0  0  0  0  0  0
  -28.6690  -16.1290   20.7300 H   0  0  0  0  0  0  0  0  0  0  0  0
  -25.2220  -13.8870   20.4650 C   0  0  0  0  0  0  0  0  0  0  0  0
  -24.1460  -13.1260   20.8230 C   0  0  0  0  0  0  0  0  0  0  0  0
  -24.6050  -11.7720   20.8330 C   0  0  0  0  0  0  0  0  0  0  0  0
  -26.2660  -13.0010   20.2690 N   0  0  0  0  0  0  0  0  0  0  0  0
  -25.9050  -11.7240   20.5580 N   0  0  0  0  0  0  0  0  0  0  0  0
  -23.8650  -10.5180   21.0280 C   0  0  0  0  0  0  0  0  0  0  0  0
  -24.2790   -9.5530   21.9720 C   0  0  0  0  0  3  0  0  0  0  0  0
  -23.5380   -8.3660   22.1560 C   0  0  0  0  0  3  0  0  0  0  0  0
  -22.3660   -8.1350   21.3960 C   0  0  0  0  0  0  0  0  0  0  0  0
  -21.9710   -9.0890   20.4410 C   0  0  0  0  0  3  0  0  0  0  0  0
  -22.7130  -10.2670   20.2560 C   0  0  0  0  0  3  0  0  0  0  0  0
  -21.5970   -7.0000   21.4880 O   0  0  0  0  0  0  0  0  0  0  0  0
  -21.5510   -6.2550   22.6390 C   0  0  0  0  0  0  0  0  0  0  0  0
  -21.1730   -6.8190   23.8770 C   0  0  0  0  0  3  0  0  0  0  0  0
  -21.0700   -6.0020   25.0200 C   0  0  0  0  0  3  0  0  0  0  0  0
  -21.3350   -4.6230   24.9270 C   0  0  0  0  0  0  0  0  0  0  0  0
  -21.7070   -4.0590   23.6940 C   0  0  0  0  0  3  0  0  0  0  0  0
  -21.8110   -4.8730   22.5530 C   0  0  0  0  0  0  0  0  0  0  0  0
  -22.1480   -4.3200   21.3630 F   0  0  0  0  0  0  0  0  0  0  0  0
  -21.2300   -3.8360   26.0240 F   0  0  0  0  0  0  0  0  0  0  0  0
  -22.7450  -13.6160   21.0390 C   0  0  0  0  0  0  0  0  0  0  0  0
  -21.9880  -12.9500   21.9030 N   0  0  0  0  0  0  0  0  0  0  0  0
  -22.3290  -14.6280   20.4750 O   0  0  0  0  0  0  0  0  0  0  0  0
  -22.3380  -12.1320   22.3820 H   0  0  0  0  0  0  0  0  0  0  0  0
  -21.0460  -13.2620   22.0910 H   0  0  0  0  0  0  0  0  0  0  0  0
  -25.3960  -15.2540   20.2580 N   0  0  0  0  0  0  0  0  0  0  0  0
  -24.6140  -15.8990   20.3070 H   0  0  0  0  0  0  0  0  0  0  0  0
  -26.2190  -15.6660   19.8410 H   0  0  0  0  0  0  0  0  0  0  0  0
  -29.1060  -22.8980   20.2780 C   0  0  0  0  0  3  0  0  0  0  0  0
  -28.0950  -24.2890   19.7960 C   0  0  0  0  0  3  0  0  0  0  0  0
  -28.2790  -25.9080   19.9990 O   0  0  0  0  0  0  0  0  0  0  0  0
  -24.6950  -31.7760   23.0450 C   0  0  0  0  0  0  0  0  0  0  0  0
  -27.2440  -26.9720   19.9440 C   0  0  0  0  0  0  0  0  0  0  0  0
  -23.4850  -30.3870   21.4110 C   0  0  0  0  0  3  0  0  0  0  0  0
  -24.9230  -28.8090   19.9500 C   0  0  0  0  0  0  0  0  0  0  0  0
  -26.0440  -30.6270   21.2240 C   0  0  0  0  0  2  0  0  0  0  0  0
  -26.1150  -29.2270   20.5550 C   0  0  0  0  0  0  0  0  0  0  0  0
  -27.2700  -28.3300   20.5270 C   0  0  0  0  0  3  0  0  0  0  0  0
  -26.0210  -26.6960   19.2950 C   0  0  0  0  0  3  0  0  0  0  0  0
  -24.8980  -27.5640   19.3000 C   0  0  0  0  0  3  0  0  0  0  0  0
  -23.6960  -29.7160   20.0250 C   0  0  0  0  0  2  0  0  0  0  0  0
  -24.7630  -30.9560   21.9470 N   0  0  0  0  0  0  0  0  0  0  0  0
  -23.6120  -32.0530   23.5860 O   0  0  0  0  0  0  0  0  0  0  0  0
  -22.8150  -29.3760   22.3790 C   0  0  0  0  0  0  0  0  0  0  0  0
  -21.4800  -29.2210   22.2900 N   0  0  0  0  0  0  0  0  0  0  0  0
  -23.5010  -28.7320   23.1770 O   0  0  0  0  0  0  0  0  0  0  0  0
  -20.9800  -29.7910   21.6220 H   0  0  0  0  0  0  0  0  0  0  0  0
  -18.1060  -28.0290   22.8800 C   0  0  0  0  0  0  0  0  0  0  0  0
  -20.6750  -28.2740   23.0680 C   0  0  0  0  0  3  0  0  0  0  0  0
  -20.7490  -26.8520   22.4630 C   0  0  0  0  0  2  0  0  0  0  0  0
  -19.6130  -26.5570   21.4770 C   0  0  0  0  0  2  0  0  0  0  0  0
  -18.2530  -26.6940   22.1670 C   0  0  0  0  0  2  0  0  0  0  0  0
  -19.2420  -28.7770   23.2880 C   0  0  0  0  0  0  0  0  0  0  0  0
  -19.0470  -30.0250   23.9180 C   0  0  0  0  0  3  0  0  0  0  0  0
  -17.7500  -30.5250   24.1420 C   0  0  0  0  0  3  0  0  0  0  0  0
  -16.6300  -29.7740   23.7470 C   0  0  0  0  0  3  0  0  0  0  0  0
  -16.8090  -28.5280   23.1220 C   0  0  0  0  0  3  0  0  0  0  0  0
  -25.9720  -32.4210   23.6640 C   0  0  0  0  0  3  0  0  0  0  0  0
  -25.6370  -33.8000   24.0580 N   0  0  0  0  0  0  0  0  0  0  0  0
  -25.9270  -34.8960   23.3430 C   0  0  0  0  0  0  0  0  0  0  0  0
  -26.5680  -34.8530   22.2900 O   0  0  0  0  0  0  0  0  0  0  0  0
  -25.0610  -33.9060   24.8810 H   0  0  0  0  0  0  0  0  0  0  0  0
  -24.1510  -36.6700   23.1350 C   0  0  0  0  0  1  0  0  0  0  0  0
  -25.4300  -36.2540   23.8790 C   0  0  0  0  0  3  0  0  0  0  0  0
  -27.5800  -37.1510   24.6630 C   0  0  0  0  0  1  0  0  0  0  0  0
  -26.4370  -37.3350   23.7730 N   0  0  0  0  0  0  0  0  0  0  0  0
  -26.0180  -38.2390   23.9760 H   0  0  0  0  0  0  0  0  0  0  0  0
  -26.5300  -31.6220   24.9060 C   0  0  1  0  0  0  0  0  0  0  0  0
  -25.4680  -31.3390   25.9940 C   0  0  0  0  0  1  0  0  0  0  0  0
  -27.1230  -30.2630   24.4680 C   0  0  0  0  0  1  0  0  0  0  0  0
  -27.6860  -32.4130   25.5620 C   0  0  0  0  0  1  0  0  0  0  0  0
  1  7  1  0
  1 15  1  0
  2  7  1  0
  3  4  1  0
  3  2  1  0
  5  4  1  0
  5 20  1  0
  5  6  1  0
  7  6  1  0
  8  1  2  0
  9 14  2  0
  9 11  1  0
 11 45  1  0
 11 13  2  0
 12 15  1  0
 12 10  2  0
 13 10  1  0
 14 12  1  0
 15 16  1  0
 17 18  2  0
 18 19  1  0
 18 37  1  0
 19 22  1  0
 20 17  1  0
 20 21  1  0
 21 19  2  0
 22 23  1  0
 23 24  2  0
 25 28  1  0
 25 24  1  0
 26 25  2  0
 27 26  1  0
 27 22  2  0
 28 29  1  0
 29 30  1  0
 30 31  2  0
 32 31  1  0
 32 36  1  0
 33 32  2  0
 34 29  2  0
 34 33  1  0
 35 34  1  0
 37 38  1  0
 38 41  1  0
 38 40  1  0
 39 37  2  0
 42 43  1  0
 42 17  1  0
 44 42  1  0
 46 47  1  0
 46 45  2  0
 48 59  2  0
 49 47  1  0
 49 54  1  0
 50 58  1  0
 50 60  1  0
 51 57  1  0
 51 53  1  0
 52 58  1  0
 53 52  1  0
 54 53  2  0
 55 56  1  0
 55 49  2  0
 56 51  2  0
 57 50  1  0
 58 48  1  0
 60 62  2  0
 61 60  1  0
 63 61  1  0
 64 73  2  0
 64 69  1  0
 65 61  1  0
 65 69  1  0
 66 65  1  0
 67 68  1  0
 67 66  1  0
 68 64  1  0
 69 70  2  0
 70 71  1  0
 72 71  2  0
 73 72  1  0
 74 48  1  0
 74 75  1  0
 74 84  1  0
 75 78  1  0
 76 80  1  0
 76 75  1  0
 77 76  2  0
 80 79  1  0
 82 80  1  0
 82 83  1  0
 82 81  1  0
 84 87  1  1
 84 85  1  0
 86 84  1  0
M  ISO  4   1 100  15 100  46 101  47 101
M  END
>  <TORSDO>  (4) 
F 17

>  <SCORE>  (4) 
-15.573

>  <name>  (4) 
3

>  <ligand_id>  (4) 
3

>  <original_smiles>  (4) 
[H]c1nc(C([H])([H])C([H])([H])Oc2c([H])c([H])c3c(c2[H])C([H])([H])N(C(=O)C([H])(N([H])C(=O)C([H])(N([H])C([H])([H])[H])C([H])([H])[H])C(C([H])([H])[H])(C([H])([H])[H])C([H])([H])[H])C([H])(C(=O)N([H])C2([H])c4c([H])c([H])c([H])c([H])c4C([H])([H])C([H])([H])C2([H])[H])C3([H])[H])c([H])nc1N([H])C(=O)N1C([H])([H])C([H])([H])C([H])([H])C([H])(n2nc(-c3c([H])c([H])c(Oc4c([H])c([H])c(F)c([H])c4F)c([H])c3[H])c(C(=O)N([H])[H])c2N([H])[H])C1([H])[H]

>  <smiles>  (4) 
[H]c1nc(C([H])([H])C([H])([H])Oc2c([H])c([H])c3c(c2[H])C([H])([H])N(C(=O)C([H])(N([H])C(=O)C([H])(N([H])C([H])([H])[H])C([H])([H])[H])C(C([H])([H])[H])(C([H])([H])[H])C([H])([H])[H])C([H])(C(=O)N([H])C2([H])c4c([H])c([H])c([H])c([H])c4C([H])([H])C([H])([H])C2([H])[H])C3([H])[H])c([H])nc1N([H])C(=O)N1C([H])([H])C([H])([H])C([H])([H])C([H])(n2nc(-c3c([H])c([H])c(Oc4c([H])c([H])c(F)c([H])c4F)c([H])c3[H])c(C(=O)N([H])[H])c2N([H])[H])C1([H])[H]

$$$$
4:0:0
     RDKit          3D

 89 98  0  0  1  0  0  0  0  0999 V2000
  -28.0400  -23.4940   19.0420 C   0  0  0  0  0  3  0  0  0  0  0  0
  -28.9600  -23.4640   21.1110 C   0  0  0  0  0  3  0  0  0  0  0  0
  -28.2820  -22.0260   18.9640 C   0  0  0  0  0  0  0  0  0  0  0  0
  -28.3440  -24.3880   20.1460 C   0  0  0  0  0  0  0  0  0  0  0  0
  -28.8840  -21.1860   20.0010 C   0  0  0  0  0  0  0  0  0  0  0  0
  -27.8550  -21.3520   17.6710 C   0  0  0  0  0  1  0  0  0  0  0  0
  -29.1890  -22.0430   21.0650 N   0  0  0  0  0  0  0  0  0  0  0  0
  -30.5400  -15.3490   19.9820 C   0  0  0  0  0  0  0  0  0  0  0  0
  -30.4730  -12.9100   19.0750 C   0  0  0  0  0  2  0  0  0  0  0  0
  -29.4950  -12.6900   17.8940 C   0  0  0  0  0  2  0  0  0  0  0  0
  -28.0750  -12.3960   18.4070 C   0  0  0  0  0  2  0  0  0  0  0  0
  -27.6730  -13.3380   19.5680 C   0  0  0  0  0  3  0  0  0  0  0  0
  -28.7800  -13.4910   20.6330 C   0  0  0  0  0  2  0  0  0  0  0  0
  -29.9550  -14.0430   19.9340 N   0  0  0  0  0  0  0  0  0  0  0  0
  -31.7430  -15.3170   19.6790 O   0  0  0  0  0  0  0  0  0  0  0  0
  -28.2310  -18.5270   20.9550 C   0  0  0  0  0  2  0  0  0  0  0  0
  -28.4880  -16.9680   20.6470 C   0  0  0  0  0  2  0  0  0  0  0  0
  -30.2440  -18.2220   19.8400 C   0  0  0  0  0  2  0  0  0  0  0  0
  -29.0190  -19.4150   19.9650 C   0  0  0  0  0  3  0  0  0  0  0  0
  -29.8410  -16.6740   20.1010 N   0  0  0  0  0  0  0  0  0  0  0  0
  -25.3480  -13.8540   20.4770 C   0  0  0  0  0  0  0  0  0  0  0  0
  -24.3130  -13.0600   20.8780 C   0  0  0  0  0  0  0  0  0  0  0  0
  -24.7840  -11.7150   20.7760 C   0  0  0  0  0  0  0  0  0  0  0  0
  -26.3790  -12.9960   20.1440 N   0  0  0  0  0  0  0  0  0  0  0  0
  -26.0560  -11.7000   20.3930 N   0  0  0  0  0  0  0  0  0  0  0  0
  -24.0720  -10.4450   20.9640 C   0  0  0  0  0  0  0  0  0  0  0  0
  -24.5170   -9.4780   21.8930 C   0  0  0  0  0  3  0  0  0  0  0  0
  -23.8010   -8.2740   22.0710 C   0  0  0  0  0  3  0  0  0  0  0  0
  -22.6260   -8.0290   21.3210 C   0  0  0  0  0  0  0  0  0  0  0  0
  -22.2020   -8.9840   20.3800 C   0  0  0  0  0  3  0  0  0  0  0  0
  -22.9190  -10.1790   20.2000 C   0  0  0  0  0  3  0  0  0  0  0  0
  -21.8800   -6.8780   21.4090 O   0  0  0  0  0  0  0  0  0  0  0  0
  -21.7830   -6.1720   22.5810 C   0  0  0  0  0  0  0  0  0  0  0  0
  -21.2800   -6.7580   23.7630 C   0  0  0  0  0  3  0  0  0  0  0  0
  -21.1320   -5.9770   24.9280 C   0  0  0  0  0  3  0  0  0  0  0  0
  -21.4770   -4.6120   24.9100 C   0  0  0  0  0  0  0  0  0  0  0  0
  -21.9720   -4.0260   23.7310 C   0  0  0  0  0  3  0  0  0  0  0  0
  -22.1220   -4.8050   22.5690 C   0  0  0  0  0  0  0  0  0  0  0  0
  -22.5800   -4.2310   21.4300 F   0  0  0  0  0  0  0  0  0  0  0  0
  -21.3270   -3.8590   26.0240 F   0  0  0  0  0  0  0  0  0  0  0  0
  -22.9310  -13.5210   21.2380 C   0  0  0  0  0  0  0  0  0  0  0  0
  -22.2550  -12.8000   22.1240 N   0  0  0  0  0  0  0  0  0  0  0  0
  -22.4620  -14.5570   20.7680 O   0  0  0  0  0  0  0  0  0  0  0  0
  -22.6510  -11.9620   22.5260 H   0  0  0  0  0  0  0  0  0  0  0  0
  -21.3310  -13.0910   22.4070 H   0  0  0  0  0  0  0  0  0  0  0  0
  -25.4890  -15.2310   20.3390 N   0  0  0  0  0  0  0  0  0  0  0  0
  -24.7290  -15.8730   20.5350 H   0  0  0  0  0  0  0  0  0  0  0  0
  -26.3170  -15.6930   19.9910 H   0  0  0  0  0  0  0  0  0  0  0  0
  -28.3170  -25.9300   20.1860 O   0  0  0  0  0  0  0  0  0  0  0  0
  -24.6950  -31.8410   23.1810 C   0  0  0  0  0  0  0  0  0  0  0  0
  -27.2600  -26.9790   20.1540 C   0  0  0  0  0  0  0  0  0  0  0  0
  -23.5060  -30.4590   21.5240 C   0  0  0  0  0  3  0  0  0  0  0  0
  -24.9580  -28.8540   20.1020 C   0  0  0  0  0  0  0  0  0  0  0  0
  -26.0710  -30.6650   21.3960 C   0  0  0  0  0  2  0  0  0  0  0  0
  -26.1400  -29.2560   20.7370 C   0  0  0  0  0  0  0  0  0  0  0  0
  -27.2810  -28.3370   20.7410 C   0  0  0  0  0  3  0  0  0  0  0  0
  -26.0520  -26.7230   19.4710 C   0  0  0  0  0  3  0  0  0  0  0  0
  -24.9380  -27.6080   19.4500 C   0  0  0  0  0  3  0  0  0  0  0  0
  -23.7420  -29.7790   20.1460 C   0  0  0  0  0  2  0  0  0  0  0  0
  -24.7790  -31.0170   22.0880 N   0  0  0  0  0  0  0  0  0  0  0  0
  -23.6040  -32.1300   23.6990 O   0  0  0  0  0  0  0  0  0  0  0  0
  -22.8040  -29.4590   22.4800 C   0  0  0  0  0  0  0  0  0  0  0  0
  -21.4750  -29.2960   22.3430 N   0  0  0  0  0  0  0  0  0  0  0  0
  -23.4620  -28.8320   23.3140 O   0  0  0  0  0  0  0  0  0  0  0  0
  -20.9970  -29.8530   21.6470 H   0  0  0  0  0  0  0  0  0  0  0  0
  -18.0880  -28.0870   22.8130 C   0  0  0  0  0  0  0  0  0  0  0  0
  -20.6440  -28.3560   23.1010 C   0  0  0  0  0  3  0  0  0  0  0  0
  -20.7530  -26.9270   22.5200 C   0  0  0  0  0  2  0  0  0  0  0  0
  -19.6610  -26.6080   21.4950 C   0  0  0  0  0  2  0  0  0  0  0  0
  -18.2740  -26.7450   22.1270 C   0  0  0  0  0  2  0  0  0  0  0  0
  -19.2010  -28.8500   23.2560 C   0  0  0  0  0  0  0  0  0  0  0  0
  -18.9720  -30.1050   23.8600 C   0  0  0  0  0  3  0  0  0  0  0  0
  -17.6640  -30.5990   24.0230 C   0  0  0  0  0  3  0  0  0  0  0  0
  -16.5660  -29.8330   23.5950 C   0  0  0  0  0  3  0  0  0  0  0  0
  -16.7790  -28.5780   22.9970 C   0  0  0  0  0  3  0  0  0  0  0  0
  -25.9650  -32.4730   23.8280 C   0  0  0  0  0  3  0  0  0  0  0  0
  -25.6500  -33.8710   24.1740 N   0  0  0  0  0  0  0  0  0  0  0  0
  -25.9650  -34.9370   23.4280 C   0  0  0  0  0  0  0  0  0  0  0  0
  -26.6140  -34.8500   22.3830 O   0  0  0  0  0  0  0  0  0  0  0  0
  -25.0700  -34.0120   24.9890 H   0  0  0  0  0  0  0  0  0  0  0  0
  -24.2090  -36.7230   23.1620 C   0  0  0  0  0  1  0  0  0  0  0  0
  -25.4860  -36.3200   23.9160 C   0  0  0  0  0  3  0  0  0  0  0  0
  -27.6430  -37.2250   24.6690 C   0  0  0  0  0  1  0  0  0  0  0  0
  -26.5040  -37.3850   23.7690 N   0  0  0  0  0  0  0  0  0  0  0  0
  -26.0940  -38.3000   23.9400 H   0  0  0  0  0  0  0  0  0  0  0  0
  -26.4610  -31.6960   25.1090 C   0  0  1  0  0  0  0  0  0  0  0  0
  -25.3550  -31.4610   26.1640 C   0  0  0  0  0  1  0  0  0  0  0  0
  -27.0430  -30.3160   24.7270 C   0  0  0  0  0  1  0  0  0  0  0  0
  -27.6080  -32.4820   25.7870 C   0  0  0  0  0  1  0  0  0  0  0  0
  1  4  1  0
  3  1  2  0
  3  5  1  0
  4 49  1  0
  4  2  2  0
  5  7  2  0
  6  3  1  0
  7  2  1  0
  8 20  1  0
  9 14  1  0
 10 11  1  0
 10  9  1  0
 12 11  1  0
 12 24  1  0
 12 13  1  0
 14  8  1  0
 14 13  1  0
 15  8  2  0
 17 16  1  0
 18 19  1  0
 18 20  1  0
 19  5  1  0
 19 16  1  0
 20 17  1  0
 21 22  2  0
 22 41  1  0
 23 22  1  0
 23 26  1  0
 24 25  1  0
 24 21  1  0
 25 23  2  0
 26 27  1  0
 27 28  2  0
 29 32  1  0
 29 28  1  0
 30 29  2  0
 31 30  1  0
 31 26  2  0
 32 33  1  0
 33 34  1  0
 34 35  2  0
 36 35  1  0
 36 40  1  0
 37 36  2  0
 38 33  2  0
 38 37  1  0
 39 38  1  0
 41 42  1  0
 42 45  1  0
 42 44  1  0
 43 41  2  0
 46 21  1  0
 46 47  1  0
 48 46  1  0
 50 61  2  0
 51 49  1  0
 51 56  1  0
 52 60  1  0
 52 62  1  0
 53 59  1  0
 53 55  1  0
 54 60  1  0
 55 56  2  0
 55 54  1  0
 57 51  2  0
 58 57  1  0
 58 53  2  0
 59 52  1  0
 60 50  1  0
 62 64  2  0
 63 62  1  0
 65 63  1  0
 66 75  2  0
 66 71  1  0
 67 63  1  0
 67 71  1  0
 68 67  1  0
 69 70  1  0
 69 68  1  0
 70 66  1  0
 71 72  2  0
 72 73  1  0
 74 73  2  0
 75 74  1  0
 76 50  1  0
 76 77  1  0
 76 86  1  0
 77 80  1  0
 78 82  1  0
 78 77  1  0
 79 78  2  0
 82 81  1  0
 84 82  1  0
 84 85  1  0
 84 83  1  0
 86 89  1  1
 86 87  1  0
 88 86  1  0
M  ISO  4   4 101   8 100  20 100  49 101
M  END
>  <TORSDO>  (5) 
F 16

>  <SCORE>  (5) 
-15.329

>  <name>  (5) 
4

>  <ligand_id>  (5) 
4

>  <original_smiles>  (5) 
[H]c1nc(C2([H])C([H])([H])N(C(=O)N3C([H])([H])C([H])([H])C([H])([H])C([H])(n4nc(-c5c([H])c([H])c(Oc6c([H])c([H])c(F)c([H])c6F)c([H])c5[H])c(C(=O)N([H])[H])c4N([H])[H])C3([H])[H])C([H])([H])C2([H])[H])c(C([H])([H])[H])c([H])c1Oc1c([H])c([H])c2c(c1[H])C([H])([H])N(C(=O)C([H])(N([H])C(=O)C([H])(N([H])C([H])([H])[H])C([H])([H])[H])C(C([H])([H])[H])(C([H])([H])[H])C([H])([H])[H])C([H])(C(=O)N([H])C1([H])c3c([H])c([H])c([H])c([H])c3C([H])([H])C([H])([H])C1([H])[H])C2([H])[H]

>  <smiles>  (5) 
[H]c1nc(C2([H])C([H])([H])N(C(=O)N3C([H])([H])C([H])([H])C([H])([H])C([H])(n4nc(-c5c([H])c([H])c(Oc6c([H])c([H])c(F)c([H])c6F)c([H])c5[H])c(C(=O)N([H])[H])c4N([H])[H])C3([H])[H])C([H])([H])C2([H])[H])c(C([H])([H])[H])c([H])c1Oc1c([H])c([H])c2c(c1[H])C([H])([H])N(C(=O)C([H])(N([H])C(=O)C([H])(N([H])C([H])([H])[H])C([H])([H])[H])C(C([H])([H])[H])(C([H])([H])[H])C([H])([H])[H])C([H])(C(=O)N([H])C1([H])c3c([H])c([H])c([H])c([H])c3C([H])([H])C([H])([H])C1([H])[H])C2([H])[H]

$$$$
5:0:0
     RDKit          3D

 90 99  0  0  1  0  0  0  0  0999 V2000
  -29.4190  -22.1460   21.1910 C   0  0  0  0  0  3  0  0  0  0  0  0
  -29.7850  -20.7090   21.1520 C   0  0  0  0  0  0  0  0  0  0  0  0
  -29.2910  -19.7170   20.2540 C   0  0  0  0  0  0  0  0  0  0  0  0
  -28.5020  -22.7870   20.2590 C   0  0  0  0  0  0  0  0  0  0  0  0
  -28.3920  -20.4090   19.3490 C   0  0  0  0  0  0  0  0  0  0  0  0
  -30.8130  -20.0310   22.0360 C   0  0  0  0  0  2  0  0  0  0  0  0
  -30.8360  -18.4950   21.6880 C   0  0  0  0  0  2  0  0  0  0  0  0
  -30.0720  -18.1880   20.3650 C   0  0  0  0  0  3  0  0  0  0  0  0
  -27.7590  -19.6260   18.2190 C   0  0  0  0  0  1  0  0  0  0  0  0
  -28.0350  -21.7910   19.3820 N   0  0  0  0  0  0  0  0  0  0  0  0
  -30.4200  -15.3080   20.2160 C   0  0  0  0  0  0  0  0  0  0  0  0
  -30.3670  -12.8770   19.3310 C   0  0  0  0  0  2  0  0  0  0  0  0
  -29.4240  -12.6800   18.1190 C   0  0  0  0  0  2  0  0  0  0  0  0
  -27.9840  -12.4100   18.5880 C   0  0  0  0  0  2  0  0  0  0  0  0
  -27.5540  -13.3680   19.7270 C   0  0  0  0  0  3  0  0  0  0  0  0
  -28.6240  -13.5160   20.8290 C   0  0  0  0  0  2  0  0  0  0  0  0
  -29.8410  -14.0130   20.1690 N   0  0  0  0  0  0  0  0  0  0  0  0
  -31.6370  -15.3040   19.9790 O   0  0  0  0  0  0  0  0  0  0  0  0
  -29.6750  -16.5790   20.3280 N   0  0  0  0  0  0  0  0  0  0  0  0
  -28.6860  -16.4190   20.4430 H   0  0  0  0  0  0  0  0  0  0  0  0
  -25.2020  -13.9110   20.5490 C   0  0  0  0  0  0  0  0  0  0  0  0
  -24.1490  -13.1260   20.9290 C   0  0  0  0  0  0  0  0  0  0  0  0
  -24.6150  -11.7770   20.8600 C   0  0  0  0  0  0  0  0  0  0  0  0
  -26.2390  -13.0420   20.2640 N   0  0  0  0  0  0  0  0  0  0  0  0
  -25.9000  -11.7500   20.5180 N   0  0  0  0  0  0  0  0  0  0  0  0
  -23.8930  -10.5110   21.0410 C   0  0  0  0  0  0  0  0  0  0  0  0
  -24.3250   -9.5380   21.9690 C   0  0  0  0  0  3  0  0  0  0  0  0
  -23.5990   -8.3390   22.1390 C   0  0  0  0  0  3  0  0  0  0  0  0
  -22.4260   -8.1040   21.3810 C   0  0  0  0  0  0  0  0  0  0  0  0
  -22.0140   -9.0660   20.4420 C   0  0  0  0  0  3  0  0  0  0  0  0
  -22.7410  -10.2560   20.2690 C   0  0  0  0  0  3  0  0  0  0  0  0
  -21.6720   -6.9590   21.4610 O   0  0  0  0  0  0  0  0  0  0  0  0
  -21.5950   -6.2280   22.6190 C   0  0  0  0  0  0  0  0  0  0  0  0
  -21.1040   -6.7850   23.8200 C   0  0  0  0  0  3  0  0  0  0  0  0
  -20.9760   -5.9800   24.9690 C   0  0  0  0  0  3  0  0  0  0  0  0
  -21.3260   -4.6180   24.9170 C   0  0  0  0  0  0  0  0  0  0  0  0
  -21.8090   -4.0590   23.7210 C   0  0  0  0  0  3  0  0  0  0  0  0
  -21.9400   -4.8620   22.5740 C   0  0  0  0  0  0  0  0  0  0  0  0
  -22.3850   -4.3140   21.4180 F   0  0  0  0  0  0  0  0  0  0  0  0
  -21.1960   -3.8410   26.0190 F   0  0  0  0  0  0  0  0  0  0  0  0
  -22.7580  -13.5970   21.2370 C   0  0  0  0  0  0  0  0  0  0  0  0
  -22.0490  -12.8880   22.1070 N   0  0  0  0  0  0  0  0  0  0  0  0
  -22.3100  -14.6310   20.7420 O   0  0  0  0  0  0  0  0  0  0  0  0
  -22.4260  -12.0510   22.5290 H   0  0  0  0  0  0  0  0  0  0  0  0
  -21.1160  -13.1850   22.3560 H   0  0  0  0  0  0  0  0  0  0  0  0
  -25.3560  -15.2850   20.3930 N   0  0  0  0  0  0  0  0  0  0  0  0
  -24.5840  -15.9310   20.5230 H   0  0  0  0  0  0  0  0  0  0  0  0
  -26.1820  -15.7280   20.0130 H   0  0  0  0  0  0  0  0  0  0  0  0
  -27.7200  -24.3500   20.2980 C   0  0  0  0  0  2  0  0  0  0  0  0
  -28.1380  -25.9320   20.3410 O   0  0  0  0  0  0  0  0  0  0  0  0
  -24.6340  -31.9450   23.2530 C   0  0  0  0  0  0  0  0  0  0  0  0
  -27.1520  -27.0440   20.2750 C   0  0  0  0  0  0  0  0  0  0  0  0
  -23.4300  -30.5480   21.6260 C   0  0  0  0  0  3  0  0  0  0  0  0
  -24.8670  -28.9320   20.2140 C   0  0  0  0  0  0  0  0  0  0  0  0
  -25.9980  -30.7450   21.4770 C   0  0  0  0  0  2  0  0  0  0  0  0
  -26.0590  -29.3330   20.8320 C   0  0  0  0  0  0  0  0  0  0  0  0
  -27.1970  -28.4110   20.8380 C   0  0  0  0  0  3  0  0  0  0  0  0
  -25.9300  -26.7980   19.6040 C   0  0  0  0  0  3  0  0  0  0  0  0
  -24.8280  -27.6840   19.5790 C   0  0  0  0  0  3  0  0  0  0  0  0
  -23.6550  -29.8580   20.2530 C   0  0  0  0  0  2  0  0  0  0  0  0
  -24.7090  -31.1060   22.1710 N   0  0  0  0  0  0  0  0  0  0  0  0
  -23.5470  -32.2460   23.7730 O   0  0  0  0  0  0  0  0  0  0  0  0
  -22.7300  -29.5610   22.5960 C   0  0  0  0  0  0  0  0  0  0  0  0
  -21.4000  -29.3970   22.4650 N   0  0  0  0  0  0  0  0  0  0  0  0
  -23.3890  -28.9420   23.4350 O   0  0  0  0  0  0  0  0  0  0  0  0
  -20.9220  -29.9460   21.7650 H   0  0  0  0  0  0  0  0  0  0  0  0
  -18.0100  -28.2080   22.9720 C   0  0  0  0  0  0  0  0  0  0  0  0
  -20.5700  -28.4710   23.2420 C   0  0  0  0  0  3  0  0  0  0  0  0
  -20.6700  -27.0320   22.6850 C   0  0  0  0  0  2  0  0  0  0  0  0
  -19.5700  -26.7010   21.6690 C   0  0  0  0  0  2  0  0  0  0  0  0
  -18.1860  -26.8530   22.3070 C   0  0  0  0  0  2  0  0  0  0  0  0
  -19.1290  -28.9740   23.3970 C   0  0  0  0  0  0  0  0  0  0  0  0
  -18.9070  -30.2390   23.9820 C   0  0  0  0  0  3  0  0  0  0  0  0
  -17.6010  -30.7400   24.1440 C   0  0  0  0  0  3  0  0  0  0  0  0
  -16.4980  -29.9720   23.7330 C   0  0  0  0  0  3  0  0  0  0  0  0
  -16.7020  -28.7070   23.1540 C   0  0  0  0  0  3  0  0  0  0  0  0
  -25.9100  -32.5830   23.8810 C   0  0  0  0  0  3  0  0  0  0  0  0
  -25.6000  -33.9850   24.2120 N   0  0  0  0  0  0  0  0  0  0  0  0
  -25.9090  -35.0400   23.4470 C   0  0  0  0  0  0  0  0  0  0  0  0
  -26.5480  -34.9370   22.3970 O   0  0  0  0  0  0  0  0  0  0  0  0
  -25.0330  -34.1380   25.0330 H   0  0  0  0  0  0  0  0  0  0  0  0
  -24.1600  -36.8290   23.1590 C   0  0  0  0  0  1  0  0  0  0  0  0
  -25.4350  -36.4300   23.9200 C   0  0  0  0  0  3  0  0  0  0  0  0
  -27.5950  -37.3340   24.6620 C   0  0  0  0  0  1  0  0  0  0  0  0
  -26.4570  -37.4880   23.7600 N   0  0  0  0  0  0  0  0  0  0  0  0
  -26.0530  -38.4070   23.9160 H   0  0  0  0  0  0  0  0  0  0  0  0
  -26.4130  -31.8200   25.1690 C   0  0  1  0  0  0  0  0  0  0  0  0
  -25.3120  -31.5980   26.2320 C   0  0  0  0  0  1  0  0  0  0  0  0
  -26.9920  -30.4340   24.8010 C   0  0  0  0  0  1  0  0  0  0  0  0
  -27.5640  -32.6130   25.8320 C   0  0  0  0  0  1  0  0  0  0  0  0
  2  1  1  0
  2  6  1  0
  3  8  1  0
  3  2  2  0
  4 49  1  0
  4  1  2  0
  5 10  2  0
  5  3  1  0
  7  6  1  0
  8 19  1  0
  8  7  1  0
  9  5  1  0
 10  4  1  0
 11 19  1  0
 12 17  1  0
 13 14  1  0
 13 12  1  0
 15 14  1  0
 15 24  1  0
 15 16  1  0
 17 11  1  0
 17 16  1  0
 18 11  2  0
 19 20  1  0
 21 22  2  0
 22 41  1  0
 23 22  1  0
 23 26  1  0
 24 25  1  0
 24 21  1  0
 25 23  2  0
 26 27  1  0
 27 28  2  0
 29 32  1  0
 29 28  1  0
 30 29  2  0
 31 30  1  0
 31 26  2  0
 32 33  1  0
 33 34  1  0
 34 35  2  0
 36 35  1  0
 36 40  1  0
 37 36  2  0
 38 33  2  0
 38 37  1  0
 39 38  1  0
 41 42  1  0
 42 45  1  0
 42 44  1  0
 43 41  2  0
 46 47  1  0
 46 21  1  0
 48 46  1  0
 49 50  1  0
 51 62  2  0
 52 50  1  0
 52 57  1  0
 53 61  1  0
 53 63  1  0
 54 60  1  0
 54 56  1  0
 55 61  1  0
 56 57  2  0
 56 55  1  0
 58 52  2  0
 59 58  1  0
 59 54  2  0
 60 53  1  0
 61 51  1  0
 63 65  2  0
 64 63  1  0
 66 64  1  0
 67 76  2  0
 67 72  1  0
 68 64  1  0
 68 72  1  0
 69 68  1  0
 70 71  1  0
 70 69  1  0
 71 67  1  0
 72 73  2  0
 73 74  1  0
 75 74  2  0
 76 75  1  0
 77 51  1  0
 77 78  1  0
 77 87  1  0
 78 81  1  0
 79 83  1  0
 79 78  1  0
 80 79  2  0
 83 82  1  0
 85 86  1  0
 85 83  1  0
 85 84  1  0
 87 90  1  1
 87 88  1  0
 89 87  1  0
M  ISO  4  11 100  19 100  49 101  50 101
M  END
>  <TORSDO>  (6) 
F 17

>  <SCORE>  (6) 
-15.980

>  <name>  (6) 
5

>  <ligand_id>  (6) 
5

>  <original_smiles>  (6) 
[H]c1c([H])c([H])c2c(c1[H])C([H])([H])C([H])([H])C([H])([H])C2([H])N([H])C(=O)C1([H])N(C(=O)C([H])(N([H])C(=O)C([H])(N([H])C([H])([H])[H])C([H])([H])[H])C(C([H])([H])[H])(C([H])([H])[H])C([H])([H])[H])C([H])([H])c2c([H])c(OC([H])([H])c3nc(C([H])([H])[H])c4c(c3[H])C([H])([H])C([H])([H])C4([H])N([H])C(=O)N3C([H])([H])C([H])([H])C([H])([H])C([H])(n4nc(-c5c([H])c([H])c(Oc6c([H])c([H])c(F)c([H])c6F)c([H])c5[H])c(C(=O)N([H])[H])c4N([H])[H])C3([H])[H])c([H])c([H])c2C1([H])[H]

>  <smiles>  (6) 
[H]c1c([H])c([H])c2c(c1[H])C([H])([H])C([H])([H])C([H])([H])C2([H])N([H])C(=O)C1([H])N(C(=O)C([H])(N([H])C(=O)C([H])(N([H])C([H])([H])[H])C([H])([H])[H])C(C([H])([H])[H])(C([H])([H])[H])C([H])([H])[H])C([H])([H])c2c([H])c(OC([H])([H])c3nc(C([H])([H])[H])c4c(c3[H])C([H])([H])C([H])([H])C4([H])N([H])C(=O)N3C([H])([H])C([H])([H])C([H])([H])C([H])(n4nc(-c5c([H])c([H])c(Oc6c([H])c([H])c(F)c([H])c6F)c([H])c5[H])c(C(=O)N([H])[H])c4N([H])[H])C3([H])[H])c([H])c([H])c2C1([H])[H]

$$$$
6:0:0
     RDKit          3D

 90 99  0  0  1  0  0  0  0  0999 V2000
  -30.2500  -22.7160   21.6600 C   0  0  0  0  0  3  0  0  0  0  0  0
  -29.8130  -20.6520   20.8530 C   0  0  0  0  0  0  0  0  0  0  0  0
  -30.7180  -20.6450   21.9150 C   0  0  0  0  0  0  0  0  0  0  0  0
  -31.4230  -19.5170   22.6170 C   0  0  0  0  0  1  0  0  0  0  0  0
  -30.9890  -21.9130   22.3910 N   0  0  0  0  0  0  0  0  0  0  0  0
  -29.4660  -22.1450   20.7330 N   0  0  0  0  0  0  0  0  0  0  0  0
  -30.5920  -15.1660   20.0780 C   0  0  0  0  0  0  0  0  0  0  0  0
  -30.4330  -12.8050   19.1140 C   0  0  0  0  0  2  0  0  0  0  0  0
  -29.4660  -12.7270   17.9120 C   0  0  0  0  0  2  0  0  0  0  0  0
  -28.0270  -12.4710   18.3970 C   0  0  0  0  0  2  0  0  0  0  0  0
  -27.6410  -13.3810   19.5930 C   0  0  0  0  0  3  0  0  0  0  0  0
  -28.7410  -13.4190   20.6770 C   0  0  0  0  0  2  0  0  0  0  0  0
  -29.9610  -13.9080   20.0140 N   0  0  0  0  0  0  0  0  0  0  0  0
  -31.7950  -15.1530   19.7830 O   0  0  0  0  0  0  0  0  0  0  0  0
  -28.4350  -18.3150   21.0320 C   0  0  0  0  0  2  0  0  0  0  0  0
  -28.5580  -16.7850   20.6500 C   0  0  0  0  0  2  0  0  0  0  0  0
  -30.4530  -17.9040   19.9240 C   0  0  0  0  0  2  0  0  0  0  0  0
  -29.4040  -19.1790   20.1940 C   0  0  0  0  0  3  0  0  0  0  0  0
  -29.9200  -16.4540   20.1870 N   0  0  0  0  0  0  0  0  0  0  0  0
  -25.2820  -13.9150   20.4240 C   0  0  0  0  0  0  0  0  0  0  0  0
  -24.2440  -13.1200   20.8180 C   0  0  0  0  0  0  0  0  0  0  0  0
  -24.7250  -11.7780   20.7560 C   0  0  0  0  0  0  0  0  0  0  0  0
  -26.3290  -13.0560   20.1380 N   0  0  0  0  0  0  0  0  0  0  0  0
  -26.0070  -11.7630   20.4070 N   0  0  0  0  0  0  0  0  0  0  0  0
  -24.0210  -10.5050   20.9550 C   0  0  0  0  0  0  0  0  0  0  0  0
  -24.4680   -9.5560   21.8990 C   0  0  0  0  0  3  0  0  0  0  0  0
  -23.7620   -8.3470   22.0900 C   0  0  0  0  0  3  0  0  0  0  0  0
  -22.5960   -8.0800   21.3340 C   0  0  0  0  0  0  0  0  0  0  0  0
  -22.1690   -9.0200   20.3800 C   0  0  0  0  0  3  0  0  0  0  0  0
  -22.8740  -10.2190   20.1870 C   0  0  0  0  0  3  0  0  0  0  0  0
  -21.8640   -6.9210   21.4300 O   0  0  0  0  0  0  0  0  0  0  0  0
  -21.7880   -6.2120   22.6010 C   0  0  0  0  0  0  0  0  0  0  0  0
  -21.2870   -6.7880   23.7890 C   0  0  0  0  0  3  0  0  0  0  0  0
  -21.1600   -6.0030   24.9530 C   0  0  0  0  0  3  0  0  0  0  0  0
  -21.5220   -4.6430   24.9280 C   0  0  0  0  0  0  0  0  0  0  0  0
  -22.0150   -4.0650   23.7440 C   0  0  0  0  0  3  0  0  0  0  0  0
  -22.1430   -4.8480   22.5820 C   0  0  0  0  0  0  0  0  0  0  0  0
  -22.5980   -4.2830   21.4380 F   0  0  0  0  0  0  0  0  0  0  0  0
  -21.3940   -3.8860   26.0440 F   0  0  0  0  0  0  0  0  0  0  0  0
  -22.8500  -13.5780   21.1320 C   0  0  0  0  0  0  0  0  0  0  0  0
  -22.1540  -12.8650   22.0130 N   0  0  0  0  0  0  0  0  0  0  0  0
  -22.3880  -14.6030   20.6350 O   0  0  0  0  0  0  0  0  0  0  0  0
  -22.5460  -12.0400   22.4410 H   0  0  0  0  0  0  0  0  0  0  0  0
  -21.2180  -13.1530   22.2590 H   0  0  0  0  0  0  0  0  0  0  0  0
  -25.4160  -15.2880   20.2580 N   0  0  0  0  0  0  0  0  0  0  0  0
  -24.6400  -15.9210   20.4170 H   0  0  0  0  0  0  0  0  0  0  0  0
  -26.2450  -15.7550   19.9160 H   0  0  0  0  0  0  0  0  0  0  0  0
  -28.6480  -23.2280   19.9070 C   0  0  0  0  0  2  0  0  0  0  0  0
  -28.0690  -24.7220   20.5480 C   0  0  0  0  0  2  0  0  0  0  0  0
  -28.3070  -26.2360   20.1920 O   0  0  0  0  0  0  0  0  0  0  0  0
  -24.6100  -31.9190   23.2140 C   0  0  0  0  0  0  0  0  0  0  0  0
  -27.2410  -27.2180   20.1830 C   0  0  0  0  0  0  0  0  0  0  0  0
  -23.4270  -30.5170   21.5680 C   0  0  0  0  0  3  0  0  0  0  0  0
  -24.8950  -28.9530   20.1460 C   0  0  0  0  0  0  0  0  0  0  0  0
  -25.9810  -30.7990   21.4140 C   0  0  0  0  0  2  0  0  0  0  0  0
  -26.0690  -29.4050   20.7610 C   0  0  0  0  0  0  0  0  0  0  0  0
  -27.2440  -28.5580   20.7590 C   0  0  0  0  0  3  0  0  0  0  0  0
  -26.0400  -26.8760   19.5250 C   0  0  0  0  0  3  0  0  0  0  0  0
  -24.8940  -27.7010   19.5100 C   0  0  0  0  0  3  0  0  0  0  0  0
  -23.6600  -29.8410   20.1890 C   0  0  0  0  0  2  0  0  0  0  0  0
  -24.6910  -31.1020   22.1190 N   0  0  0  0  0  0  0  0  0  0  0  0
  -23.5220  -32.1950   23.7400 O   0  0  0  0  0  0  0  0  0  0  0  0
  -22.7520  -29.5060   22.5270 C   0  0  0  0  0  0  0  0  0  0  0  0
  -21.4250  -29.3220   22.3920 N   0  0  0  0  0  0  0  0  0  0  0  0
  -23.4230  -28.8870   23.3560 O   0  0  0  0  0  0  0  0  0  0  0  0
  -20.9410  -29.8710   21.6960 H   0  0  0  0  0  0  0  0  0  0  0  0
  -18.0480  -28.1080   22.8910 C   0  0  0  0  0  0  0  0  0  0  0  0
  -20.6070  -28.3770   23.1550 C   0  0  0  0  0  3  0  0  0  0  0  0
  -20.7140  -26.9510   22.5680 C   0  0  0  0  0  2  0  0  0  0  0  0
  -19.6110  -26.6320   21.5530 C   0  0  0  0  0  2  0  0  0  0  0  0
  -18.2290  -26.7670   22.2010 C   0  0  0  0  0  2  0  0  0  0  0  0
  -19.1660  -28.8730   23.3240 C   0  0  0  0  0  0  0  0  0  0  0  0
  -18.9430  -30.1270   23.9300 C   0  0  0  0  0  3  0  0  0  0  0  0
  -17.6370  -30.6210   24.1070 C   0  0  0  0  0  3  0  0  0  0  0  0
  -16.5340  -29.8540   23.6920 C   0  0  0  0  0  3  0  0  0  0  0  0
  -16.7410  -28.6000   23.0910 C   0  0  0  0  0  3  0  0  0  0  0  0
  -25.8820  -32.5660   23.8450 C   0  0  0  0  0  3  0  0  0  0  0  0
  -25.5620  -33.9670   24.1650 N   0  0  0  0  0  0  0  0  0  0  0  0
  -25.8970  -35.0210   23.4090 C   0  0  0  0  0  0  0  0  0  0  0  0
  -26.5780  -34.9150   22.3850 O   0  0  0  0  0  0  0  0  0  0  0  0
  -24.9630  -34.1180   24.9630 H   0  0  0  0  0  0  0  0  0  0  0  0
  -24.1790  -36.8210   23.0240 C   0  0  0  0  0  1  0  0  0  0  0  0
  -25.4030  -36.4110   23.8580 C   0  0  0  0  0  3  0  0  0  0  0  0
  -27.5190  -37.2980   24.7340 C   0  0  0  0  0  1  0  0  0  0  0  0
  -26.4380  -37.4630   23.7650 N   0  0  0  0  0  0  0  0  0  0  0  0
  -26.0280  -38.3830   23.9000 H   0  0  0  0  0  0  0  0  0  0  0  0
  -26.3810  -31.8100   25.1390 C   0  0  1  0  0  0  0  0  0  0  0  0
  -25.2740  -31.5780   26.1940 C   0  0  0  0  0  1  0  0  0  0  0  0
  -26.9780  -30.4300   24.7750 C   0  0  0  0  0  1  0  0  0  0  0  0
  -27.5190  -32.6140   25.8090 C   0  0  0  0  0  1  0  0  0  0  0  0
  1  5  2  0
  2  3  2  0
  3  5  1  0
  3  4  1  0
  6  2  1  0
  6  1  1  0
  7 19  1  0
  8 13  1  0
  9 10  1  0
  9  8  1  0
 11 10  1  0
 11 23  1  0
 11 12  1  0
 13  7  1  0
 13 12  1  0
 14  7  2  0
 16 15  1  0
 17 19  1  0
 17 18  1  0
 18  2  1  0
 18 15  1  0
 19 16  1  0
 20 21  2  0
 21 40  1  0
 22 21  1  0
 22 25  1  0
 23 24  1  0
 23 20  1  0
 24 22  2  0
 25 26  1  0
 26 27  2  0
 28 31  1  0
 28 27  1  0
 29 28  2  0
 30 29  1  0
 30 25  2  0
 31 32  1  0
 32 33  1  0
 33 34  2  0
 35 34  1  0
 35 39  1  0
 36 35  2  0
 37 32  2  0
 37 36  1  0
 38 37  1  0
 40 41  1  0
 41 44  1  0
 41 43  1  0
 42 40  2  0
 45 46  1  0
 45 20  1  0
 47 45  1  0
 48 49  1  0
 48  6  1  0
 50 49  1  0
 51 62  2  0
 52 50  1  0
 52 57  1  0
 53 61  1  0
 53 63  1  0
 54 60  1  0
 54 56  1  0
 55 61  1  0
 56 55  1  0
 57 56  2  0
 58 52  2  0
 59 58  1  0
 59 54  2  0
 60 53  1  0
 61 51  1  0
 63 65  2  0
 64 63  1  0
 66 64  1  0
 67 76  2  0
 67 72  1  0
 68 64  1  0
 68 72  1  0
 69 68  1  0
 70 71  1  0
 70 69  1  0
 71 67  1  0
 72 73  2  0
 73 74  1  0
 75 74  2  0
 76 75  1  0
 77 51  1  0
 77 78  1  0
 77 87  1  0
 78 81  1  0
 79 83  1  0
 79 78  1  0
 80 79  2  0
 83 82  1  0
 85 83  1  0
 85 86  1  0
 85 84  1  0
 87 90  1  1
 87 88  1  0
 89 87  1  0
M  ISO  4   7 100  19 100  49 101  50 101
M  END
>  <TORSDO>  (7) 
F 18

>  <SCORE>  (7) 
-15.309

>  <name>  (7) 
6

>  <ligand_id>  (7) 
6

>  <original_smiles>  (7) 
[H]c1c([H])c([H])c2c(c1[H])C([H])([H])C([H])([H])C([H])([H])C2([H])N([H])C(=O)C1([H])N(C(=O)C([H])(N([H])C(=O)C([H])(N([H])C([H])([H])[H])C([H])([H])[H])C(C([H])([H])[H])(C([H])([H])[H])C([H])([H])[H])C([H])([H])c2c([H])c(OC([H])([H])C([H])([H])n3c([H])nc(C([H])([H])[H])c3C3([H])C([H])([H])N(C(=O)N4C([H])([H])C([H])([H])C([H])([H])C([H])(n5nc(-c6c([H])c([H])c(Oc7c([H])c([H])c(F)c([H])c7F)c([H])c6[H])c(C(=O)N([H])[H])c5N([H])[H])C4([H])[H])C([H])([H])C3([H])[H])c([H])c([H])c2C1([H])[H]

>  <smiles>  (7) 
[H]c1c([H])c([H])c2c(c1[H])C([H])([H])C([H])([H])C([H])([H])C2([H])N([H])C(=O)C1([H])N(C(=O)C([H])(N([H])C(=O)C([H])(N([H])C([H])([H])[H])C([H])([H])[H])C(C([H])([H])[H])(C([H])([H])[H])C([H])([H])[H])C([H])([H])c2c([H])c(OC([H])([H])C([H])([H])n3c([H])nc(C([H])([H])[H])c3C3([H])C([H])([H])N(C(=O)N4C([H])([H])C([H])([H])C([H])([H])C([H])(n5nc(-c6c([H])c([H])c(Oc7c([H])c([H])c(F)c([H])c7F)c([H])c6[H])c(C(=O)N([H])[H])c5N([H])[H])C4([H])[H])C([H])([H])C3([H])[H])c([H])c([H])c2C1([H])[H]

$$$$
7:0:0
     RDKit          3D

 91 99  0  0  1  0  0  0  0  0999 V2000
  -29.5460  -22.6660   21.2440 C   0  0  0  0  0  0  0  0  0  0  0  0
  -28.1310  -21.0900   19.5860 C   0  0  0  0  0  0  0  0  0  0  0  0
  -29.0890  -20.4230   20.4360 C   0  0  0  0  0  0  0  0  0  0  0  0
  -28.5530  -23.3270   20.4280 C   0  0  0  0  0  0  0  0  0  0  0  0
  -30.3590  -23.4360   22.2680 C   0  0  0  0  0  1  0  0  0  0  0  0
  -29.8040  -21.2910   21.2320 N   0  0  0  0  0  0  0  0  0  0  0  0
  -27.8950  -22.4630   19.5830 N   0  0  0  0  0  0  0  0  0  0  0  0
  -27.8140  -20.2720   17.2120 C   0  0  0  0  0  1  0  0  0  0  0  0
  -27.2350  -20.3160   18.6310 C   0  0  0  0  0  2  0  0  0  0  0  0
  -29.1250  -18.8020   20.7480 C   0  0  0  0  0  3  0  0  0  0  0  0
  -30.0280  -17.5930   20.0490 C   0  0  0  0  0  3  0  0  0  0  0  0
  -30.5440  -14.9120   20.1040 C   0  0  0  0  0  0  0  0  0  0  0  0
  -30.3620  -12.6020   19.1120 C   0  0  0  0  0  2  0  0  0  0  0  0
  -29.3860  -12.6280   17.9130 C   0  0  0  0  0  2  0  0  0  0  0  0
  -27.9340  -12.4290   18.3920 C   0  0  0  0  0  2  0  0  0  0  0  0
  -27.5830  -13.3160   19.6140 C   0  0  0  0  0  3  0  0  0  0  0  0
  -28.6780  -13.2640   20.7010 C   0  0  0  0  0  2  0  0  0  0  0  0
  -29.9400  -13.6630   20.0650 N   0  0  0  0  0  0  0  0  0  0  0  0
  -31.7160  -15.0040   19.7250 O   0  0  0  0  0  0  0  0  0  0  0  0
  -29.7780  -16.0690   20.3560 N   0  0  0  0  0  0  0  0  0  0  0  0
  -28.8430  -15.8620   20.6780 H   0  0  0  0  0  0  0  0  0  0  0  0
  -25.2210  -13.8850   20.4270 C   0  0  0  0  0  0  0  0  0  0  0  0
  -24.1720  -13.1030   20.8260 C   0  0  0  0  0  0  0  0  0  0  0  0
  -24.6410  -11.7550   20.7740 C   0  0  0  0  0  0  0  0  0  0  0  0
  -26.2590  -13.0120   20.1500 N   0  0  0  0  0  0  0  0  0  0  0  0
  -25.9220  -11.7250   20.4220 N   0  0  0  0  0  0  0  0  0  0  0  0
  -23.9260  -10.4890   20.9780 C   0  0  0  0  0  0  0  0  0  0  0  0
  -24.3800   -9.5220   21.9020 C   0  0  0  0  0  3  0  0  0  0  0  0
  -23.6630   -8.3210   22.0950 C   0  0  0  0  0  3  0  0  0  0  0  0
  -22.4750   -8.0780   21.3620 C   0  0  0  0  0  0  0  0  0  0  0  0
  -22.0410   -9.0320   20.4250 C   0  0  0  0  0  3  0  0  0  0  0  0
  -22.7590  -10.2240   20.2310 C   0  0  0  0  0  3  0  0  0  0  0  0
  -21.7280   -6.9300   21.4650 O   0  0  0  0  0  0  0  0  0  0  0  0
  -21.6920   -6.1960   22.6240 C   0  0  0  0  0  0  0  0  0  0  0  0
  -21.2660   -6.7560   23.8490 C   0  0  0  0  0  3  0  0  0  0  0  0
  -21.1780   -5.9470   25.0000 C   0  0  0  0  0  3  0  0  0  0  0  0
  -21.5060   -4.5800   24.9270 C   0  0  0  0  0  0  0  0  0  0  0  0
  -21.9250   -4.0200   23.7080 C   0  0  0  0  0  3  0  0  0  0  0  0
  -22.0150   -4.8260   22.5590 C   0  0  0  0  0  0  0  0  0  0  0  0
  -22.3990   -4.2760   21.3820 F   0  0  0  0  0  0  0  0  0  0  0  0
  -21.4150   -3.8000   26.0300 F   0  0  0  0  0  0  0  0  0  0  0  0
  -22.7810  -13.5730   21.1410 C   0  0  0  0  0  0  0  0  0  0  0  0
  -22.0810  -12.8700   22.0220 N   0  0  0  0  0  0  0  0  0  0  0  0
  -22.3260  -14.6010   20.6400 O   0  0  0  0  0  0  0  0  0  0  0  0
  -22.4630  -12.0410   22.4520 H   0  0  0  0  0  0  0  0  0  0  0  0
  -21.1470  -13.1660   22.2720 H   0  0  0  0  0  0  0  0  0  0  0  0
  -25.3710  -15.2580   20.2500 N   0  0  0  0  0  0  0  0  0  0  0  0
  -24.5980  -15.9000   20.3820 H   0  0  0  0  0  0  0  0  0  0  0  0
  -26.1840  -15.6950   19.8350 H   0  0  0  0  0  0  0  0  0  0  0  0
  -27.8570  -24.7930   20.7190 C   0  0  0  0  0  2  0  0  0  0  0  0
  -28.2430  -26.2100   20.2410 O   0  0  0  0  0  0  0  0  0  0  0  0
  -24.6140  -31.8690   23.2320 C   0  0  0  0  0  0  0  0  0  0  0  0
  -27.2030  -27.2000   20.1950 C   0  0  0  0  0  0  0  0  0  0  0  0
  -23.4150  -30.4750   21.5900 C   0  0  0  0  0  3  0  0  0  0  0  0
  -24.8680  -28.9180   20.1560 C   0  0  0  0  0  0  0  0  0  0  0  0
  -25.9660  -30.7580   21.4210 C   0  0  0  0  0  2  0  0  0  0  0  0
  -26.0450  -29.3710   20.7690 C   0  0  0  0  0  0  0  0  0  0  0  0
  -27.2170  -28.5290   20.7710 C   0  0  0  0  0  3  0  0  0  0  0  0
  -26.0080  -26.8520   19.5280 C   0  0  0  0  0  3  0  0  0  0  0  0
  -24.8620  -27.6730   19.5160 C   0  0  0  0  0  3  0  0  0  0  0  0
  -23.6350  -29.8040   20.2090 C   0  0  0  0  0  2  0  0  0  0  0  0
  -24.6840  -31.0560   22.1360 N   0  0  0  0  0  0  0  0  0  0  0  0
  -23.5290  -32.1480   23.7630 O   0  0  0  0  0  0  0  0  0  0  0  0
  -22.7430  -29.4610   22.5490 C   0  0  0  0  0  0  0  0  0  0  0  0
  -21.4150  -29.2860   22.4250 N   0  0  0  0  0  0  0  0  0  0  0  0
  -23.4190  -28.8330   23.3690 O   0  0  0  0  0  0  0  0  0  0  0  0
  -20.9260  -29.8430   21.7380 H   0  0  0  0  0  0  0  0  0  0  0  0
  -18.0380  -28.0780   22.9290 C   0  0  0  0  0  0  0  0  0  0  0  0
  -20.5960  -28.3470   23.1960 C   0  0  0  0  0  3  0  0  0  0  0  0
  -20.7020  -26.9150   22.6220 C   0  0  0  0  0  2  0  0  0  0  0  0
  -19.5990  -26.5900   21.6080 C   0  0  0  0  0  2  0  0  0  0  0  0
  -18.2170  -26.7300   22.2510 C   0  0  0  0  0  2  0  0  0  0  0  0
  -19.1550  -28.8440   23.3580 C   0  0  0  0  0  0  0  0  0  0  0  0
  -18.9300  -30.1040   23.9540 C   0  0  0  0  0  3  0  0  0  0  0  0
  -17.6230  -30.6010   24.1210 C   0  0  0  0  0  3  0  0  0  0  0  0
  -16.5220  -29.8320   23.7050 C   0  0  0  0  0  3  0  0  0  0  0  0
  -16.7310  -28.5720   23.1160 C   0  0  0  0  0  3  0  0  0  0  0  0
  -25.8930  -32.5050   23.8580 C   0  0  0  0  0  3  0  0  0  0  0  0
  -26.4020  -31.7390   25.1400 C   0  0  1  0  0  0  0  0  0  0  0  0
  -25.3040  -31.5070   26.2050 C   0  0  0  0  0  1  0  0  0  0  0  0
  -26.9830  -30.3580   24.7590 C   0  0  0  0  0  1  0  0  0  0  0  0
  -27.5520  -32.5340   25.8030 C   0  0  0  0  0  1  0  0  0  0  0  0
  -25.5800  -33.9060   24.1880 N   0  0  0  0  0  0  0  0  0  0  0  0
  -25.9100  -34.9590   23.4300 C   0  0  0  0  0  0  0  0  0  0  0  0
  -26.5770  -34.8560   22.3970 O   0  0  0  0  0  0  0  0  0  0  0  0
  -24.9880  -34.0600   24.9900 H   0  0  0  0  0  0  0  0  0  0  0  0
  -24.1820  -36.7550   23.0830 C   0  0  0  0  0  1  0  0  0  0  0  0
  -25.4250  -36.3490   23.8900 C   0  0  0  0  0  3  0  0  0  0  0  0
  -27.5630  -37.2330   24.7150 C   0  0  0  0  0  1  0  0  0  0  0  0
  -26.4580  -37.4020   23.7740 N   0  0  0  0  0  0  0  0  0  0  0  0
  -26.0530  -38.3220   23.9220 H   0  0  0  0  0  0  0  0  0  0  0  0
  1  5  1  0
  2  3  1  0
  3 10  1  0
  3  6  2  0
  4 50  1  0
  4  1  2  0
  6  1  1  0
  7  2  2  0
  7  4  1  0
  8  9  1  0
  9  2  1  0
 11 20  1  0
 11 10  2  0
 12 20  1  0
 13 18  1  0
 14 15  1  0
 14 13  1  0
 16 15  1  0
 16 25  1  0
 16 17  1  0
 18 12  1  0
 18 17  1  0
 19 12  2  0
 20 21  1  0
 22 23  2  0
 23 42  1  0
 24 23  1  0
 24 27  1  0
 25 26  1  0
 25 22  1  0
 26 24  2  0
 27 28  1  0
 28 29  2  0
 30 33  1  0
 30 29  1  0
 31 30  2  0
 32 31  1  0
 32 27  2  0
 33 34  1  0
 34 35  1  0
 35 36  2  0
 37 36  1  0
 37 41  1  0
 38 37  2  0
 39 34  2  0
 39 38  1  0
 40 39  1  0
 42 43  1  0
 43 46  1  0
 43 45  1  0
 44 42  2  0
 47 48  1  0
 47 22  1  0
 49 47  1  0
 51 50  1  0
 52 63  2  0
 53 51  1  0
 53 58  1  0
 54 62  1  0
 54 64  1  0
 55 61  1  0
 55 57  1  0
 56 62  1  0
 57 58  2  0
 57 56  1  0
 59 53  2  0
 60 59  1  0
 60 55  2  0
 61 54  1  0
 62 52  1  0
 64 66  2  0
 65 64  1  0
 67 65  1  0
 68 77  2  0
 68 73  1  0
 69 65  1  0
 69 73  1  0
 70 69  1  0
 71 72  1  0
 71 70  1  0
 72 68  1  0
 73 74  2  0
 74 75  1  0
 76 75  2  0
 77 76  1  0
 78 52  1  0
 78 83  1  0
 78 79  1  0
 79 82  1  1
 79 80  1  0
 81 79  1  0
 83 86  1  0
 84 88  1  0
 84 83  1  0
 85 84  2  0
 88 87  1  0
 90 88  1  0
 90 91  1  0
 90 89  1  0
M  ISO  4  12 100  20 100  50 101  51 101
M  END
>  <TORSDO>  (8) 
F 20

>  <SCORE>  (8) 
-13.935

>  <name>  (8) 
7

>  <ligand_id>  (8) 
7

>  <original_smiles>  (8) 
[H]c1c([H])c([H])c2c(c1[H])C([H])([H])C([H])([H])C([H])([H])C2([H])N([H])C(=O)C1([H])N(C(=O)C([H])(N([H])C(=O)C([H])(N([H])C([H])([H])[H])C([H])([H])[H])C(C([H])([H])[H])(C([H])([H])[H])C([H])([H])[H])C([H])([H])c2c([H])c(OC([H])([H])c3nc(C([H])([H])C([H])([H])[H])c(C([H])([H])C([H])([H])N([H])C(=O)N4C([H])([H])C([H])([H])C([H])([H])C([H])(n5nc(-c6c([H])c([H])c(Oc7c([H])c([H])c(F)c([H])c7F)c([H])c6[H])c(C(=O)N([H])[H])c5N([H])[H])C4([H])[H])nc3C([H])([H])[H])c([H])c([H])c2C1([H])[H]

>  <smiles>  (8) 
[H]c1c([H])c([H])c2c(c1[H])C([H])([H])C([H])([H])C([H])([H])C2([H])N([H])C(=O)C1([H])N(C(=O)C([H])(N([H])C(=O)C([H])(N([H])C([H])([H])[H])C([H])([H])[H])C(C([H])([H])[H])(C([H])([H])[H])C([H])([H])[H])C([H])([H])c2c([H])c(OC([H])([H])c3nc(C([H])([H])C([H])([H])[H])c(C([H])([H])C([H])([H])N([H])C(=O)N4C([H])([H])C([H])([H])C([H])([H])C([H])(n5nc(-c6c([H])c([H])c(Oc7c([H])c([H])c(F)c([H])c7F)c([H])c6[H])c(C(=O)N([H])[H])c5N([H])[H])C4([H])[H])nc3C([H])([H])[H])c([H])c([H])c2C1([H])[H]

$$$$
8:0:0
     RDKit          3D

 92101  0  0  1  0  0  0  0  0999 V2000
  -28.5160  -19.1090   19.2430 C   0  0  0  0  0  3  0  0  0  0  0  0
  -30.0090  -19.8540   20.9370 C   0  0  0  0  0  3  0  0  0  0  0  0
  -28.0680  -20.4700   19.1870 C   0  0  0  0  0  0  0  0  0  0  0  0
  -29.5440  -18.7460   20.1550 C   0  0  0  0  0  0  0  0  0  0  0  0
  -28.5800  -21.4970   20.0000 C   0  0  0  0  0  0  0  0  0  0  0  0
  -27.6950  -23.9200   20.4450 C   0  0  0  0  0  0  0  0  0  0  0  0
  -27.0390  -21.0210   18.2380 C   0  0  0  0  0  3  0  0  0  0  0  0
  -26.9120  -22.5070   18.6460 C   0  0  0  0  0  3  0  0  0  0  0  0
  -29.5530  -21.1580   20.8870 N   0  0  0  0  0  0  0  0  0  0  0  0
  -27.9350  -22.7860   19.6760 N   0  0  0  0  0  0  0  0  0  0  0  0
  -26.6190  -24.0410   21.0430 O   0  0  0  0  0  0  0  0  0  0  0  0
  -30.3520  -17.3570   20.1150 C   0  0  0  0  0  2  0  0  0  0  0  0
  -30.5860  -14.7840   20.3230 C   0  0  0  0  0  0  0  0  0  0  0  0
  -30.3650  -12.5100   19.3230 C   0  0  0  0  0  2  0  0  0  0  0  0
  -29.4050  -12.5770   18.1180 C   0  0  0  0  0  2  0  0  0  0  0  0
  -27.9440  -12.4040   18.5780 C   0  0  0  0  0  2  0  0  0  0  0  0
  -27.5940  -13.2880   19.8040 C   0  0  0  0  0  3  0  0  0  0  0  0
  -28.6710  -13.2200   20.9080 C   0  0  0  0  0  2  0  0  0  0  0  0
  -29.9490  -13.5650   20.2790 N   0  0  0  0  0  0  0  0  0  0  0  0
  -31.7840  -14.8500   20.0370 O   0  0  0  0  0  0  0  0  0  0  0  0
  -29.8340  -15.9530   20.4180 N   0  0  0  0  0  0  0  0  0  0  0  0
  -28.8430  -15.8530   20.5840 H   0  0  0  0  0  0  0  0  0  0  0  0
  -25.2240  -13.8700   20.5790 C   0  0  0  0  0  0  0  0  0  0  0  0
  -24.1650  -13.0930   20.9590 C   0  0  0  0  0  0  0  0  0  0  0  0
  -24.6240  -11.7420   20.9040 C   0  0  0  0  0  0  0  0  0  0  0  0
  -26.2630  -12.9920   20.3180 N   0  0  0  0  0  0  0  0  0  0  0  0
  -25.9100  -11.7060   20.5760 N   0  0  0  0  0  0  0  0  0  0  0  0
  -23.9010  -10.4780   21.0910 C   0  0  0  0  0  0  0  0  0  0  0  0
  -24.3510   -9.4940   21.9990 C   0  0  0  0  0  3  0  0  0  0  0  0
  -23.6250   -8.2960   22.1730 C   0  0  0  0  0  3  0  0  0  0  0  0
  -22.4380   -8.0720   21.4360 C   0  0  0  0  0  0  0  0  0  0  0  0
  -22.0080   -9.0440   20.5150 C   0  0  0  0  0  3  0  0  0  0  0  0
  -22.7340  -10.2340   20.3390 C   0  0  0  0  0  3  0  0  0  0  0  0
  -21.6830   -6.9280   21.5220 O   0  0  0  0  0  0  0  0  0  0  0  0
  -21.6510   -6.1690   22.6640 C   0  0  0  0  0  0  0  0  0  0  0  0
  -21.2410   -6.7050   23.9050 C   0  0  0  0  0  3  0  0  0  0  0  0
  -21.1570   -5.8730   25.0380 C   0  0  0  0  0  3  0  0  0  0  0  0
  -21.4750   -4.5050   24.9330 C   0  0  0  0  0  0  0  0  0  0  0  0
  -21.8790   -3.9690   23.6980 C   0  0  0  0  0  3  0  0  0  0  0  0
  -21.9640   -4.7990   22.5670 C   0  0  0  0  0  0  0  0  0  0  0  0
  -22.3330   -4.2720   21.3730 F   0  0  0  0  0  0  0  0  0  0  0  0
  -21.3880   -3.7020   26.0200 F   0  0  0  0  0  0  0  0  0  0  0  0
  -22.7710  -13.5670   21.2510 C   0  0  0  0  0  0  0  0  0  0  0  0
  -22.0570  -12.8640   22.1230 N   0  0  0  0  0  0  0  0  0  0  0  0
  -22.3290  -14.6000   20.7500 O   0  0  0  0  0  0  0  0  0  0  0  0
  -22.4290  -12.0280   22.5500 H   0  0  0  0  0  0  0  0  0  0  0  0
  -21.1210  -13.1620   22.3610 H   0  0  0  0  0  0  0  0  0  0  0  0
  -25.3840  -15.2430   20.4100 N   0  0  0  0  0  0  0  0  0  0  0  0
  -24.6120  -15.8890   20.5300 H   0  0  0  0  0  0  0  0  0  0  0  0
  -26.2100  -15.6880   20.0300 H   0  0  0  0  0  0  0  0  0  0  0  0
  -28.6930  -25.1450   20.5770 C   0  0  0  0  0  2  0  0  0  0  0  0
  -28.3870  -26.5190   20.0390 O   0  0  0  0  0  0  0  0  0  0  0  0
  -24.5980  -31.8690   23.2410 C   0  0  0  0  0  0  0  0  0  0  0  0
  -27.2230  -27.2870   20.2080 C   0  0  0  0  0  0  0  0  0  0  0  0
  -23.4020  -30.4710   21.5900 C   0  0  0  0  0  3  0  0  0  0  0  0
  -24.8610  -28.9050   20.1870 C   0  0  0  0  0  0  0  0  0  0  0  0
  -25.9420  -30.7840   21.4230 C   0  0  0  0  0  2  0  0  0  0  0  0
  -26.0270  -29.3990   20.7870 C   0  0  0  0  0  0  0  0  0  0  0  0
  -27.2150  -28.6040   20.7810 C   0  0  0  0  0  3  0  0  0  0  0  0
  -26.0310  -26.8430   19.6060 C   0  0  0  0  0  3  0  0  0  0  0  0
  -24.8600  -27.6330   19.5940 C   0  0  0  0  0  3  0  0  0  0  0  0
  -23.6270  -29.7860   20.2180 C   0  0  0  0  0  2  0  0  0  0  0  0
  -24.6640  -31.0640   22.1410 N   0  0  0  0  0  0  0  0  0  0  0  0
  -23.5140  -32.1460   23.7760 O   0  0  0  0  0  0  0  0  0  0  0  0
  -22.7310  -29.4600   22.5500 C   0  0  0  0  0  0  0  0  0  0  0  0
  -21.4050  -29.2890   22.4250 N   0  0  0  0  0  0  0  0  0  0  0  0
  -23.4090  -28.8250   23.3640 O   0  0  0  0  0  0  0  0  0  0  0  0
  -20.9230  -29.8390   21.7280 H   0  0  0  0  0  0  0  0  0  0  0  0
  -18.0220  -28.1090   22.9270 C   0  0  0  0  0  0  0  0  0  0  0  0
  -20.5830  -28.3520   23.1920 C   0  0  0  0  0  3  0  0  0  0  0  0
  -20.6790  -26.9240   22.6080 C   0  0  0  0  0  2  0  0  0  0  0  0
  -19.5730  -26.6160   21.5960 C   0  0  0  0  0  2  0  0  0  0  0  0
  -18.1920  -26.7650   22.2400 C   0  0  0  0  0  2  0  0  0  0  0  0
  -19.1470  -28.8610   23.3590 C   0  0  0  0  0  0  0  0  0  0  0  0
  -18.9370  -30.1200   23.9640 C   0  0  0  0  0  3  0  0  0  0  0  0
  -17.6360  -30.6250   24.1460 C   0  0  0  0  0  3  0  0  0  0  0  0
  -16.5260  -29.8700   23.7290 C   0  0  0  0  0  3  0  0  0  0  0  0
  -16.7210  -28.6170   23.1200 C   0  0  0  0  0  3  0  0  0  0  0  0
  -25.8800  -32.5010   23.8670 C   0  0  0  0  0  3  0  0  0  0  0  0
  -25.5650  -33.9000   24.1940 N   0  0  0  0  0  0  0  0  0  0  0  0
  -25.8970  -34.9540   23.4360 C   0  0  0  0  0  0  0  0  0  0  0  0
  -26.5680  -34.8490   22.4070 O   0  0  0  0  0  0  0  0  0  0  0  0
  -24.9690  -34.0530   24.9950 H   0  0  0  0  0  0  0  0  0  0  0  0
  -24.1710  -36.7530   23.0820 C   0  0  0  0  0  1  0  0  0  0  0  0
  -25.4100  -36.3430   23.8930 C   0  0  0  0  0  3  0  0  0  0  0  0
  -27.5440  -37.2340   24.7230 C   0  0  0  0  0  1  0  0  0  0  0  0
  -26.4430  -37.3980   23.7780 N   0  0  0  0  0  0  0  0  0  0  0  0
  -26.0340  -38.3170   23.9310 H   0  0  0  0  0  0  0  0  0  0  0  0
  -26.3850  -31.7310   25.1500 C   0  0  1  0  0  0  0  0  0  0  0  0
  -25.2860  -31.5000   26.2130 C   0  0  0  0  0  1  0  0  0  0  0  0
  -26.9710  -30.3530   24.7670 C   0  0  0  0  0  1  0  0  0  0  0  0
  -27.5270  -32.5280   25.8230 C   0  0  0  0  0  1  0  0  0  0  0  0
  1  4  1  0
  3  1  2  0
  3  5  1  0
  4  2  2  0
  5  9  2  0
  6 51  1  0
  6 11  2  0
  7  8  2  0
  7  3  1  0
  8 10  1  0
  9  2  1  0
 10  5  1  0
 10  6  1  0
 12  4  1  0
 12 21  1  0
 13 21  1  0
 14 19  1  0
 15 16  1  0
 15 14  1  0
 17 16  1  0
 17 26  1  0
 17 18  1  0
 19 13  1  0
 19 18  1  0
 20 13  2  0
 21 22  1  0
 23 24  2  0
 24 43  1  0
 25 24  1  0
 25 28  1  0
 26 27  1  0
 26 23  1  0
 27 25  2  0
 28 29  1  0
 29 30  2  0
 31 34  1  0
 31 30  1  0
 32 31  2  0
 33 32  1  0
 33 28  2  0
 34 35  1  0
 35 36  1  0
 36 37  2  0
 38 37  1  0
 38 42  1  0
 39 38  2  0
 40 35  2  0
 40 39  1  0
 41 40  1  0
 43 44  1  0
 44 47  1  0
 44 46  1  0
 45 43  2  0
 48 49  1  0
 48 23  1  0
 50 48  1  0
 52 54  1  0
 52 51  1  0
 53 64  2  0
 54 59  1  0
 55 63  1  0
 55 65  1  0
 56 62  1  0
 56 58  1  0
 57 63  1  0
 58 57  1  0
 59 58  2  0
 60 54  2  0
 61 60  1  0
 61 56  2  0
 62 55  1  0
 63 53  1  0
 65 67  2  0
 66 65  1  0
 68 66  1  0
 69 78  2  0
 69 74  1  0
 70 66  1  0
 70 74  1  0
 71 70  1  0
 72 73  1  0
 72 71  1  0
 73 69  1  0
 74 75  2  0
 75 76  1  0
 77 76  2  0
 78 77  1  0
 79 53  1  0
 79 80  1  0
 79 89  1  0
 80 83  1  0
 81 85  1  0
 81 80  1  0
 82 81  2  0
 85 84  1  0
 87 85  1  0
 87 88  1  0
 87 86  1  0
 89 92  1  1
 89 90  1  0
 91 89  1  0
M  ISO  4  13 100  21 100  51 101  52 101
M  END
>  <TORSDO>  (9) 
F 18

>  <SCORE>  (9) 
-14.966

>  <name>  (9) 
8

>  <ligand_id>  (9) 
8

>  <original_smiles>  (9) 
[H]c1nc2c(c([H])c1C([H])([H])N([H])C(=O)N1C([H])([H])C([H])([H])C([H])([H])C([H])(n3nc(-c4c([H])c([H])c(Oc5c([H])c([H])c(F)c([H])c5F)c([H])c4[H])c(C(=O)N([H])[H])c3N([H])[H])C1([H])[H])C([H])([H])C([H])([H])N2C(=O)C([H])([H])Oc1c([H])c([H])c2c(c1[H])C([H])([H])N(C(=O)C([H])(N([H])C(=O)C([H])(N([H])C([H])([H])[H])C([H])([H])[H])C(C([H])([H])[H])(C([H])([H])[H])C([H])([H])[H])C([H])(C(=O)N([H])C1([H])c3c([H])c([H])c([H])c([H])c3C([H])([H])C([H])([H])C1([H])[H])C2([H])[H]

>  <smiles>  (9) 
[H]c1nc2c(c([H])c1C([H])([H])N([H])C(=O)N1C([H])([H])C([H])([H])C([H])([H])C([H])(n3nc(-c4c([H])c([H])c(Oc5c([H])c([H])c(F)c([H])c5F)c([H])c4[H])c(C(=O)N([H])[H])c3N([H])[H])C1([H])[H])C([H])([H])C([H])([H])N2C(=O)C([H])([H])Oc1c([H])c([H])c2c(c1[H])C([H])([H])N(C(=O)C([H])(N([H])C(=O)C([H])(N([H])C([H])([H])[H])C([H])([H])[H])C(C([H])([H])[H])(C([H])([H])[H])C([H])([H])[H])C([H])(C(=O)N([H])C1([H])c3c([H])c([H])c([H])c([H])c3C([H])([H])C([H])([H])C1([H])[H])C2([H])[H]

$$$$
9:0:0
     RDKit          3D

 96105  0  0  1  0  0  0  0  0999 V2000
  -28.5630  -24.8060   21.6480 C   0  0  0  0  0  3  0  0  0  0  0  0
  -28.9140  -23.4400   21.8840 C   0  0  0  0  0  0  0  0  0  0  0  0
  -28.5170  -25.3370   20.3370 C   0  0  0  0  0  0  0  0  0  0  0  0
  -29.2090  -22.5760   20.7910 C   0  0  0  0  0  0  0  0  0  0  0  0
  -28.7490  -24.3820   19.3110 C   0  0  0  0  0  0  0  0  0  0  0  0
  -29.0610  -22.9670   23.3210 C   0  0  0  0  0  1  0  0  0  0  0  0
  -28.7170  -24.8020   17.8540 C   0  0  0  0  0  1  0  0  0  0  0  0
  -29.0660  -23.0650   19.5300 N   0  0  0  0  0  0  0  0  0  0  0  0
  -28.4600  -26.7270   20.0870 O   0  0  0  0  0  0  0  0  0  0  0  0
  -24.6810  -31.9930   23.2500 C   0  0  0  0  0  0  0  0  0  0  0  0
  -27.2950  -27.4970   20.1300 C   0  0  0  0  0  0  0  0  0  0  0  0
  -23.4740  -30.6200   21.5850 C   0  0  0  0  0  3  0  0  0  0  0  0
  -24.9230  -29.0820   20.1420 C   0  0  0  0  0  0  0  0  0  0  0  0
  -26.0080  -30.9440   21.4060 C   0  0  0  0  0  2  0  0  0  0  0  0
  -26.0860  -29.5730   20.7480 C   0  0  0  0  0  0  0  0  0  0  0  0
  -27.2740  -28.7900   20.7340 C   0  0  0  0  0  3  0  0  0  0  0  0
  -26.1140  -27.0440   19.5110 C   0  0  0  0  0  3  0  0  0  0  0  0
  -24.9370  -27.8220   19.5190 C   0  0  0  0  0  3  0  0  0  0  0  0
  -23.6860  -29.9570   20.1970 C   0  0  0  0  0  2  0  0  0  0  0  0
  -24.7400  -31.2040   22.1370 N   0  0  0  0  0  0  0  0  0  0  0  0
  -23.5990  -32.2630   23.7900 O   0  0  0  0  0  0  0  0  0  0  0  0
  -22.8100  -29.5930   22.5330 C   0  0  0  0  0  0  0  0  0  0  0  0
  -21.4850  -29.4210   22.4010 N   0  0  0  0  0  0  0  0  0  0  0  0
  -23.4880  -28.9540   23.3410 O   0  0  0  0  0  0  0  0  0  0  0  0
  -20.9990  -29.9890   21.7210 H   0  0  0  0  0  0  0  0  0  0  0  0
  -18.1010  -28.2450   22.8940 C   0  0  0  0  0  0  0  0  0  0  0  0
  -20.6620  -28.4740   23.1550 C   0  0  0  0  0  3  0  0  0  0  0  0
  -20.7490  -27.0550   22.5460 C   0  0  0  0  0  2  0  0  0  0  0  0
  -19.6370  -26.7650   21.5310 C   0  0  0  0  0  2  0  0  0  0  0  0
  -18.2610  -26.9100   22.1870 C   0  0  0  0  0  2  0  0  0  0  0  0
  -19.2290  -28.9870   23.3350 C   0  0  0  0  0  0  0  0  0  0  0  0
  -19.0260  -30.2380   23.9550 C   0  0  0  0  0  3  0  0  0  0  0  0
  -17.7270  -30.7480   24.1400 C   0  0  0  0  0  3  0  0  0  0  0  0
  -16.6130  -30.0020   23.7170 C   0  0  0  0  0  3  0  0  0  0  0  0
  -16.8000  -28.7520   23.0980 C   0  0  0  0  0  3  0  0  0  0  0  0
  -25.9660  -32.6110   23.8830 C   0  0  0  0  0  3  0  0  0  0  0  0
  -26.4700  -31.8290   25.1590 C   0  0  1  0  0  0  0  0  0  0  0  0
  -25.3670  -31.5920   26.2170 C   0  0  0  0  0  1  0  0  0  0  0  0
  -27.0480  -30.4500   24.7640 C   0  0  0  0  0  1  0  0  0  0  0  0
  -27.6200  -32.6130   25.8350 C   0  0  0  0  0  1  0  0  0  0  0  0
  -25.6680  -34.0100   24.2190 N   0  0  0  0  0  0  0  0  0  0  0  0
  -26.0330  -35.0660   23.4800 C   0  0  0  0  0  0  0  0  0  0  0  0
  -26.7260  -34.9640   22.4650 O   0  0  0  0  0  0  0  0  0  0  0  0
  -25.0560  -34.1650   25.0080 H   0  0  0  0  0  0  0  0  0  0  0  0
  -24.3550  -36.8980   23.0840 C   0  0  0  0  0  1  0  0  0  0  0  0
  -25.5530  -36.4570   23.9400 C   0  0  0  0  0  3  0  0  0  0  0  0
  -27.6610  -37.2920   24.8810 C   0  0  0  0  0  1  0  0  0  0  0  0
  -26.6090  -37.4910   23.8870 N   0  0  0  0  0  0  0  0  0  0  0  0
  -26.2140  -38.4170   24.0250 H   0  0  0  0  0  0  0  0  0  0  0  0
  -29.9740  -21.1950   20.9370 C   0  0  0  0  0  2  0  0  0  0  0  0
  -29.2500  -19.8960   21.2220 N   0  0  0  0  0  4  0  0  0  0  0  0
  -28.4960  -19.8520   20.5560 H   0  0  0  0  0  0  0  0  0  0  0  0
  -28.8410  -19.9600   22.1390 H   0  0  0  0  0  0  0  0  0  0  0  0
  -30.0850  -18.6170   21.1190 C   0  0  0  0  0  2  0  0  0  0  0  0
  -30.8310  -14.9810   20.6740 C   0  0  0  0  0  0  0  0  0  0  0  0
  -30.6080  -12.7920   19.5120 C   0  0  0  0  0  2  0  0  0  0  0  0
  -29.6860  -12.9270   18.2800 C   0  0  0  0  0  2  0  0  0  0  0  0
  -28.2110  -12.7540   18.6810 C   0  0  0  0  0  2  0  0  0  0  0  0
  -27.8190  -13.5570   19.9520 C   0  0  0  0  0  3  0  0  0  0  0  0
  -28.8680  -13.4240   21.0760 C   0  0  0  0  0  2  0  0  0  0  0  0
  -30.1640  -13.7940   20.5010 N   0  0  0  0  0  0  0  0  0  0  0  0
  -32.0590  -15.0040   20.5680 O   0  0  0  0  0  0  0  0  0  0  0  0
  -28.3660  -17.4950   19.5940 C   0  0  0  0  0  2  0  0  0  0  0  0
  -30.4570  -16.5340   18.8210 C   0  0  0  0  0  2  0  0  0  0  0  0
  -29.1490  -17.1570   18.3190 C   0  0  0  0  0  3  0  0  0  0  0  0
  -29.3370  -17.2350   20.7620 C   0  0  0  0  0  3  0  0  0  0  0  0
  -29.3760  -18.3490   17.3820 C   0  0  0  0  0  1  0  0  0  0  0  0
  -30.1780  -16.1060   20.1930 N   0  0  0  0  0  0  0  0  0  0  0  0
  -25.3960  -14.0630   20.6360 C   0  0  0  0  0  0  0  0  0  0  0  0
  -24.3420  -13.2490   20.9440 C   0  0  0  0  0  0  0  0  0  0  0  0
  -24.8470  -11.9150   20.8930 C   0  0  0  0  0  0  0  0  0  0  0  0
  -26.4730  -13.2220   20.4060 N   0  0  0  0  0  0  0  0  0  0  0  0
  -26.1480  -11.9230   20.6300 N   0  0  0  0  0  0  0  0  0  0  0  0
  -24.1540  -10.6280   21.0210 C   0  0  0  0  0  0  0  0  0  0  0  0
  -24.5770   -9.6520   21.9490 C   0  0  0  0  0  3  0  0  0  0  0  0
  -23.8810   -8.4300   22.0680 C   0  0  0  0  0  3  0  0  0  0  0  0
  -22.7480   -8.1770   21.2590 C   0  0  0  0  0  0  0  0  0  0  0  0
  -22.3460   -9.1430   20.3200 C   0  0  0  0  0  3  0  0  0  0  0  0
  -23.0420  -10.3570   20.1990 C   0  0  0  0  0  3  0  0  0  0  0  0
  -22.0240   -7.0090   21.2890 O   0  0  0  0  0  0  0  0  0  0  0  0
  -21.9090   -6.2640   22.4350 C   0  0  0  0  0  0  0  0  0  0  0  0
  -21.3330   -6.7910   23.6120 C   0  0  0  0  0  3  0  0  0  0  0  0
  -21.1700   -5.9690   24.7450 C   0  0  0  0  0  3  0  0  0  0  0  0
  -21.5720   -4.6200   24.7010 C   0  0  0  0  0  0  0  0  0  0  0  0
  -22.1400   -4.0930   23.5280 C   0  0  0  0  0  3  0  0  0  0  0  0
  -22.3050   -4.9120   22.3970 C   0  0  0  0  0  0  0  0  0  0  0  0
  -22.8330   -4.3930   21.2620 F   0  0  0  0  0  0  0  0  0  0  0  0
  -21.4090   -3.8280   25.7850 F   0  0  0  0  0  0  0  0  0  0  0  0
  -22.9240  -13.6800   21.1780 C   0  0  0  0  0  0  0  0  0  0  0  0
  -22.1950  -12.9540   22.0180 N   0  0  0  0  0  0  0  0  0  0  0  0
  -22.4680  -14.6950   20.6530 O   0  0  0  0  0  0  0  0  0  0  0  0
  -22.5760  -12.1330   22.4650 H   0  0  0  0  0  0  0  0  0  0  0  0
  -21.2420  -13.2210   22.2160 H   0  0  0  0  0  0  0  0  0  0  0  0
  -25.5200  -15.4410   20.5130 N   0  0  0  0  0  0  0  0  0  0  0  0
  -24.7310  -16.0680   20.6260 H   0  0  0  0  0  0  0  0  0  0  0  0
  -26.3750  -15.9160   20.2640 H   0  0  0  0  0  0  0  0  0  0  0  0
  1  2  1  0
  2  6  1  0
  3  1  2  0
  4 50  1  0
  4  2  2  0
  5  8  2  0
  5  3  1  0
  7  5  1  0
  8  4  1  0
  9 11  1  0
  9  3  1  0
 10 21  2  0
 11 16  1  0
 12 20  1  0
 12 22  1  0
 13 19  1  0
 13 15  1  0
 14 20  1  0
 15 14  1  0
 16 15  2  0
 17 18  1  0
 17 11  2  0
 18 13  2  0
 19 12  1  0
 20 10  1  0
 22 24  2  0
 23 22  1  0
 25 23  1  0
 26 35  2  0
 26 31  1  0
 27 23  1  0
 27 31  1  0
 28 27  1  0
 29 30  1  0
 29 28  1  0
 30 26  1  0
 31 32  2  0
 32 33  1  0
 34 33  2  0
 35 34  1  0
 36 10  1  0
 36 41  1  0
 36 37  1  0
 37 40  1  1
 37 38  1  0
 39 37  1  0
 41 44  1  0
 42 46  1  0
 42 41  1  0
 43 42  2  0
 46 45  1  0
 48 46  1  0
 48 49  1  0
 48 47  1  0
 50 51  1  0
 51 53  1  0
 52 51  1  0
 54 51  1  0
 56 61  1  0
 57 58  1  0
 57 56  1  0
 59 58  1  0
 59 72  1  0
 59 60  1  0
 61 55  1  0
 61 60  1  0
 62 55  2  0
 63 66  1  0
 64 68  1  0
 65 67  1  0
 65 64  1  0
 65 63  1  0
 66 54  1  0
 68 55  1  0
 68 66  1  0
 69 70  2  0
 70 89  1  0
 71 70  1  0
 71 74  1  0
 72 73  1  0
 72 69  1  0
 73 71  2  0
 74 75  1  0
 75 76  2  0
 77 80  1  0
 77 76  1  0
 78 77  2  0
 79 78  1  0
 79 74  2  0
 80 81  1  0
 81 82  1  0
 82 83  2  0
 84 83  1  0
 84 88  1  0
 85 84  2  0
 86 81  2  0
 86 85  1  0
 87 86  1  0
 89 90  1  0
 90 93  1  0
 90 92  1  0
 91 89  2  0
 94 95  1  0
 94 69  1  0
 96 94  1  0
M  ISO  4   3 101   9 101  55 100  68 100
M  END
>  <TORSDO>  (10) 
F 19

>  <SCORE>  (10) 
-13.800

>  <name>  (10) 
9

>  <ligand_id>  (10) 
9

>  <original_smiles>  (10) 
[H]c1c([H])c([H])c2c(c1[H])C([H])([H])C([H])([H])C([H])([H])C2([H])N([H])C(=O)C1([H])N(C(=O)C([H])(N([H])C(=O)C([H])(N([H])C([H])([H])[H])C([H])([H])[H])C(C([H])([H])[H])(C([H])([H])[H])C([H])([H])[H])C([H])([H])c2c([H])c(Oc3c(C([H])([H])[H])nc(C([H])([H])[N+]([H])([H])C([H])([H])C4([H])N(C(=O)N5C([H])([H])C([H])([H])C([H])([H])C([H])(n6nc(-c7c([H])c([H])c(Oc8c([H])c([H])c(F)c([H])c8F)c([H])c7[H])c(C(=O)N([H])[H])c6N([H])[H])C5([H])[H])C([H])([H])C([H])(C([H])([H])[H])C4([H])[H])c(C([H])([H])[H])c3[H])c([H])c([H])c2C1([H])[H]

>  <smiles>  (10) 
[H]c1c([H])c([H])c2c(c1[H])C([H])([H])C([H])([H])C([H])([H])C2([H])N([H])C(=O)C1([H])N(C(=O)C([H])(N([H])C(=O)C([H])(N([H])C([H])([H])[H])C([H])([H])[H])C(C([H])([H])[H])(C([H])([H])[H])C([H])([H])[H])C([H])([H])c2c([H])c(Oc3c(C([H])([H])[H])nc(C([H])([H])[N+]([H])([H])C([H])([H])C4([H])N(C(=O)N5C([H])([H])C([H])([H])C([H])([H])C([H])(n6nc(-c7c([H])c([H])c(Oc8c([H])c([H])c(F)c([H])c8F)c([H])c7[H])c(C(=O)N([H])[H])c6N([H])[H])C5([H])[H])C([H])([H])C([H])(C([H])([H])[H])C4([H])[H])c(C([H])([H])[H])c3[H])c([H])c([H])c2C1([H])[H]

$$$$
10:0:0
     RDKit          3D

 96105  0  0  1  0  0  0  0  0999 V2000
  -31.0680  -21.7100   21.7270 C   0  0  0  0  0  1  0  0  0  0  0  0
  -30.2010  -22.0770   20.5070 C   0  0  0  0  0  3  0  0  0  0  0  0
  -30.8050  -14.4580   20.1500 C   0  0  0  0  0  0  0  0  0  0  0  0
  -30.4330  -12.3640   18.9130 C   0  0  0  0  0  2  0  0  0  0  0  0
  -29.4250  -12.6490   17.7810 C   0  0  0  0  0  2  0  0  0  0  0  0
  -27.9780  -12.4920   18.2890 C   0  0  0  0  0  2  0  0  0  0  0  0
  -27.7190  -13.2610   19.6120 C   0  0  0  0  0  3  0  0  0  0  0  0
  -28.8350  -12.9600   20.6390 C   0  0  0  0  0  2  0  0  0  0  0  0
  -30.1350  -13.2820   20.0220 N   0  0  0  0  0  0  0  0  0  0  0  0
  -31.8740  -14.6890   19.5690 O   0  0  0  0  0  0  0  0  0  0  0  0
  -29.5060  -18.9390   21.6380 C   0  0  0  0  0  3  0  0  0  0  0  0
  -29.7210  -17.5540   21.7940 C   0  0  0  0  0  3  0  0  0  0  0  0
  -29.6920  -19.4790   20.3530 C   0  0  0  0  0  0  0  0  0  0  0  0
  -30.0430  -18.6300   19.3190 C   0  0  0  0  0  0  0  0  0  0  0  0
  -30.1000  -16.7590   20.6860 C   0  0  0  0  0  0  0  0  0  0  0  0
  -30.0670  -19.3330   17.9930 C   0  0  0  0  0  3  0  0  0  0  0  0
  -29.5970  -20.7720   18.3230 C   0  0  0  0  0  3  0  0  0  0  0  0
  -29.4000  -20.8890   19.8680 C   0  0  0  0  0  3  0  0  0  0  0  0
  -30.2540  -17.3080   19.4510 N   0  0  0  0  0  0  0  0  0  0  0  0
  -30.2050  -15.3670   20.9300 N   0  0  0  0  0  0  0  0  0  0  0  0
  -29.5210  -14.9920   21.5670 H   0  0  0  0  0  0  0  0  0  0  0  0
  -25.3550  -13.8340   20.4610 C   0  0  0  0  0  0  0  0  0  0  0  0
  -24.3110  -13.0420   20.8600 C   0  0  0  0  0  0  0  0  0  0  0  0
  -24.7750  -11.6960   20.7610 C   0  0  0  0  0  0  0  0  0  0  0  0
  -26.3910  -12.9670   20.1480 N   0  0  0  0  0  0  0  0  0  0  0  0
  -26.0470  -11.6740   20.3820 N   0  0  0  0  0  0  0  0  0  0  0  0
  -24.0670  -10.4220   20.9470 C   0  0  0  0  0  0  0  0  0  0  0  0
  -24.5110   -9.4600   21.8810 C   0  0  0  0  0  3  0  0  0  0  0  0
  -23.8020   -8.2520   22.0560 C   0  0  0  0  0  3  0  0  0  0  0  0
  -22.6340   -7.9980   21.2970 C   0  0  0  0  0  0  0  0  0  0  0  0
  -22.2090   -8.9490   20.3530 C   0  0  0  0  0  3  0  0  0  0  0  0
  -22.9190  -10.1490   20.1760 C   0  0  0  0  0  3  0  0  0  0  0  0
  -21.8990   -6.8400   21.3790 O   0  0  0  0  0  0  0  0  0  0  0  0
  -21.7880   -6.1390   22.5540 C   0  0  0  0  0  0  0  0  0  0  0  0
  -21.2610   -6.7280   23.7240 C   0  0  0  0  0  3  0  0  0  0  0  0
  -21.0990   -5.9530   24.8910 C   0  0  0  0  0  3  0  0  0  0  0  0
  -21.4540   -4.5900   24.8860 C   0  0  0  0  0  0  0  0  0  0  0  0
  -21.9760   -4.0030   23.7190 C   0  0  0  0  0  3  0  0  0  0  0  0
  -22.1380   -4.7740   22.5560 C   0  0  0  0  0  0  0  0  0  0  0  0
  -22.6210   -4.1990   21.4300 F   0  0  0  0  0  0  0  0  0  0  0  0
  -21.2930   -3.8440   26.0020 F   0  0  0  0  0  0  0  0  0  0  0  0
  -22.9280  -13.5030   21.2260 C   0  0  0  0  0  0  0  0  0  0  0  0
  -22.2510  -12.7770   22.1100 N   0  0  0  0  0  0  0  0  0  0  0  0
  -22.4550  -14.5400   20.7620 O   0  0  0  0  0  0  0  0  0  0  0  0
  -22.6450  -11.9380   22.5100 H   0  0  0  0  0  0  0  0  0  0  0  0
  -21.3270  -13.0720   22.3950 H   0  0  0  0  0  0  0  0  0  0  0  0
  -25.5060  -15.2110   20.3240 N   0  0  0  0  0  0  0  0  0  0  0  0
  -24.7450  -15.8590   20.4960 H   0  0  0  0  0  0  0  0  0  0  0  0
  -26.3420  -15.6650   19.9800 H   0  0  0  0  0  0  0  0  0  0  0  0
  -29.2600  -23.1720   20.8470 N   0  0  0  0  0  4  0  0  0  0  0  0
  -29.0900  -23.1590   21.8400 H   0  0  0  0  0  0  0  0  0  0  0  0
  -28.3900  -22.9130   20.4070 H   0  0  0  0  0  0  0  0  0  0  0  0
  -30.8480  -25.1310   21.0190 C   0  0  0  0  0  1  0  0  0  0  0  0
  -29.5670  -24.5560   20.3810 C   0  0  0  0  0  3  0  0  0  0  0  0
  -28.3440  -25.4550   20.6650 C   0  0  0  0  0  2  0  0  0  0  0  0
  -28.4680  -26.7550   20.0770 O   0  0  0  0  0  0  0  0  0  0  0  0
  -24.6080  -31.8480   23.2010 C   0  0  0  0  0  0  0  0  0  0  0  0
  -27.2980  -27.4780   20.0770 C   0  0  0  0  0  0  0  0  0  0  0  0
  -23.4170  -30.4550   21.5380 C   0  0  0  0  0  3  0  0  0  0  0  0
  -24.8880  -28.9490   20.1030 C   0  0  0  0  0  0  0  0  0  0  0  0
  -25.9360  -30.8450   21.3440 C   0  0  0  0  0  2  0  0  0  0  0  0
  -26.0380  -29.4790   20.6990 C   0  0  0  0  0  0  0  0  0  0  0  0
  -27.2480  -28.7500   20.6860 C   0  0  0  0  0  3  0  0  0  0  0  0
  -26.1340  -26.9660   19.4620 C   0  0  0  0  0  3  0  0  0  0  0  0
  -24.9290  -27.6890   19.4810 C   0  0  0  0  0  3  0  0  0  0  0  0
  -23.6370  -29.7940   20.1510 C   0  0  0  0  0  2  0  0  0  0  0  0
  -24.6730  -31.0620   22.0880 N   0  0  0  0  0  0  0  0  0  0  0  0
  -23.5240  -32.1020   23.7430 O   0  0  0  0  0  0  0  0  0  0  0  0
  -22.7750  -29.4150   22.4850 C   0  0  0  0  0  0  0  0  0  0  0  0
  -21.4520  -29.2210   22.3510 N   0  0  0  0  0  0  0  0  0  0  0  0
  -23.4620  -28.7870   23.2940 O   0  0  0  0  0  0  0  0  0  0  0  0
  -20.9580  -29.7880   21.6760 H   0  0  0  0  0  0  0  0  0  0  0  0
  -18.0880  -27.9940   22.8210 C   0  0  0  0  0  0  0  0  0  0  0  0
  -20.6420  -28.2670   23.1060 C   0  0  0  0  0  3  0  0  0  0  0  0
  -20.7570  -26.8440   22.5130 C   0  0  0  0  0  2  0  0  0  0  0  0
  -19.6620  -26.5250   21.4900 C   0  0  0  0  0  2  0  0  0  0  0  0
  -18.2770  -26.6530   22.1310 C   0  0  0  0  0  2  0  0  0  0  0  0
  -19.1990  -28.7580   23.2660 C   0  0  0  0  0  0  0  0  0  0  0  0
  -18.9700  -30.0120   23.8710 C   0  0  0  0  0  3  0  0  0  0  0  0
  -17.6620  -30.5040   24.0360 C   0  0  0  0  0  3  0  0  0  0  0  0
  -16.5650  -29.7370   23.6080 C   0  0  0  0  0  3  0  0  0  0  0  0
  -16.7780  -28.4830   23.0070 C   0  0  0  0  0  3  0  0  0  0  0  0
  -25.8880  -32.4830   23.8300 C   0  0  0  0  0  3  0  0  0  0  0  0
  -26.4090  -31.7020   25.0990 C   0  0  1  0  0  0  0  0  0  0  0  0
  -25.3180  -31.4420   26.1630 C   0  0  0  0  0  1  0  0  0  0  0  0
  -27.0030  -30.3350   24.6860 C   0  0  0  0  0  1  0  0  0  0  0  0
  -27.5540  -32.4970   25.7700 C   0  0  0  0  0  1  0  0  0  0  0  0
  -25.5730  -33.8760   24.1670 N   0  0  0  0  0  0  0  0  0  0  0  0
  -25.9040  -34.9330   23.4130 C   0  0  0  0  0  0  0  0  0  0  0  0
  -26.5800  -34.8370   22.3850 O   0  0  0  0  0  0  0  0  0  0  0  0
  -24.9750  -34.0250   24.9670 H   0  0  0  0  0  0  0  0  0  0  0  0
  -24.1740  -36.7210   23.0460 C   0  0  0  0  0  1  0  0  0  0  0  0
  -25.4070  -36.3160   23.8710 C   0  0  0  0  0  3  0  0  0  0  0  0
  -27.5270  -37.2040   24.7360 C   0  0  0  0  0  1  0  0  0  0  0  0
  -26.4390  -37.3730   23.7770 N   0  0  0  0  0  0  0  0  0  0  0  0
  -26.0280  -38.2910   23.9230 H   0  0  0  0  0  0  0  0  0  0  0  0
  2 50  1  0
  2  1  1  0
  3 20  1  0
  4  9  1  0
  5  6  1  0
  5  4  1  0
  7  6  1  0
  7 25  1  0
  7  8  1  0
  9  3  1  0
  9  8  1  0
 10  3  2  0
 11 12  1  0
 13 11  2  0
 14 19  2  0
 14 13  1  0
 15 20  1  0
 15 12  2  0
 16 17  2  0
 16 14  1  0
 17 18  1  0
 18 13  1  0
 18  2  1  0
 19 15  1  0
 20 21  1  0
 22 23  2  0
 23 42  1  0
 24 23  1  0
 24 27  1  0
 25 26  1  0
 25 22  1  0
 26 24  2  0
 27 28  1  0
 28 29  2  0
 30 33  1  0
 30 29  1  0
 31 30  2  0
 32 31  1  0
 32 27  2  0
 33 34  1  0
 34 39  2  0
 34 35  1  0
 35 36  2  0
 37 36  1  0
 37 41  1  0
 38 37  2  0
 39 38  1  0
 40 39  1  0
 42 43  1  0
 43 46  1  0
 43 45  1  0
 44 42  2  0
 47 22  1  0
 47 48  1  0
 49 47  1  0
 50 51  1  0
 52 50  1  0
 54 55  1  0
 54 50  1  0
 54 53  1  0
 56 58  1  0
 56 55  1  0
 57 68  2  0
 58 63  1  0
 59 67  1  0
 59 69  1  0
 60 66  1  0
 60 62  1  0
 61 67  1  0
 62 61  1  0
 63 62  2  0
 64 65  1  0
 64 58  2  0
 65 60  2  0
 66 59  1  0
 67 57  1  0
 69 71  2  0
 70 69  1  0
 72 70  1  0
 73 82  2  0
 73 78  1  0
 74 70  1  0
 74 78  1  0
 75 74  1  0
 76 77  1  0
 76 75  1  0
 77 73  1  0
 78 79  2  0
 79 80  1  0
 81 80  2  0
 82 81  1  0
 83 57  1  0
 83 88  1  0
 83 84  1  0
 84 87  1  1
 84 85  1  0
 86 84  1  0
 88 91  1  0
 89 93  1  0
 89 88  1  0
 90 89  2  0
 93 92  1  0
 95 93  1  0
 95 96  1  0
 95 94  1  0
M  ISO  4   3 100  20 100  55 101  56 101
M  END
>  <TORSDO>  (11) 
F 19

>  <SCORE>  (11) 
-13.520

>  <name>  (11) 
10

>  <ligand_id>  (11) 
10

>  <original_smiles>  (11) 
[H]c1c(N([H])C(=O)N2C([H])([H])C([H])([H])C([H])([H])C([H])(n3nc(-c4c([H])c([H])c(Oc5c([H])c([H])c(F)c([H])c5F)c([H])c4[H])c(C(=O)N([H])[H])c3N([H])[H])C2([H])[H])nc2c(c1[H])C([H])(C([H])(C([H])([H])[H])[N+]([H])([H])C([H])(C([H])([H])[H])C([H])([H])Oc1c([H])c([H])c3c(c1[H])C([H])([H])N(C(=O)C([H])(N([H])C(=O)C([H])(N([H])C([H])([H])[H])C([H])([H])[H])C(C([H])([H])[H])(C([H])([H])[H])C([H])([H])[H])C([H])(C(=O)N([H])C1([H])c4c([H])c([H])c([H])c([H])c4C([H])([H])C([H])([H])C1([H])[H])C3([H])[H])C([H])([H])C2([H])[H]

>  <smiles>  (11) 
[H]c1c(N([H])C(=O)N2C([H])([H])C([H])([H])C([H])([H])C([H])(n3nc(-c4c([H])c([H])c(Oc5c([H])c([H])c(F)c([H])c5F)c([H])c4[H])c(C(=O)N([H])[H])c3N([H])[H])C2([H])[H])nc2c(c1[H])C([H])(C([H])(C([H])([H])[H])[N+]([H])([H])C([H])(C([H])([H])[H])C([H])([H])Oc1c([H])c([H])c3c(c1[H])C([H])([H])N(C(=O)C([H])(N([H])C(=O)C([H])(N([H])C([H])([H])[H])C([H])([H])[H])C(C([H])([H])[H])(C([H])([H])[H])C([H])([H])[H])C([H])(C(=O)N([H])C1([H])c4c([H])c([H])c([H])c([H])c4C([H])([H])C([H])([H])C1([H])[H])C3([H])[H])C([H])([H])C2([H])[H]

$$$$
11:0:0
     RDKit          3D

 95105  0  0  1  0  0  0  0  0999 V2000
  -29.7870  -20.8240   18.1640 C   0  0  0  0  0  3  0  0  0  0  0  0
  -29.6630  -21.1050   19.5380 C   0  0  0  0  0  0  0  0  0  0  0  0
  -29.6140  -19.9890   20.4120 C   0  0  0  0  0  0  0  0  0  0  0  0
  -29.8710  -19.4650   17.7670 C   0  0  0  0  0  0  0  0  0  0  0  0
  -29.7980  -18.6220   19.9630 C   0  0  0  0  0  0  0  0  0  0  0  0
  -29.3940  -20.5190   21.8160 C   0  0  0  0  0  2  0  0  0  0  0  0
  -29.0780  -22.0500   21.6370 C   0  0  0  0  0  2  0  0  0  0  0  0
  -29.6840  -22.4870   20.2810 C   0  0  0  0  0  3  0  0  0  0  0  0
  -29.8940  -18.4110   18.6320 N   0  0  0  0  0  0  0  0  0  0  0  0
  -31.3100  -18.5280   15.8010 C   0  0  0  0  0  2  0  0  0  0  0  0
  -30.8290  -19.8850   15.3500 C   0  0  0  0  0  2  0  0  0  0  0  0
  -30.0000  -19.0760   16.3230 C   0  0  0  0  0  3  0  0  0  0  0  0
  -30.5810  -24.4660   18.9110 C   0  0  0  0  0  1  0  0  0  0  0  0
  -29.2910  -23.9310   19.6060 C   0  0  0  0  0  3  0  0  0  0  0  0
  -28.6320  -25.1090   20.5250 C   0  0  0  0  0  2  0  0  0  0  0  0
  -28.5820  -26.5450   20.0920 O   0  0  0  0  0  0  0  0  0  0  0  0
  -24.7040  -31.8800   23.2200 C   0  0  0  0  0  0  0  0  0  0  0  0
  -27.4080  -27.3340   20.1610 C   0  0  0  0  0  0  0  0  0  0  0  0
  -23.5230  -30.4750   21.5620 C   0  0  0  0  0  3  0  0  0  0  0  0
  -25.0030  -28.9170   20.1580 C   0  0  0  0  0  0  0  0  0  0  0  0
  -26.0620  -30.8030   21.4050 C   0  0  0  0  0  2  0  0  0  0  0  0
  -26.1610  -29.4200   20.7610 C   0  0  0  0  0  0  0  0  0  0  0  0
  -27.3640  -28.6430   20.7470 C   0  0  0  0  0  3  0  0  0  0  0  0
  -26.2170  -26.8780   19.5520 C   0  0  0  0  0  3  0  0  0  0  0  0
  -25.0360  -27.6530   19.5420 C   0  0  0  0  0  3  0  0  0  0  0  0
  -23.7580  -29.7840   20.1890 C   0  0  0  0  0  2  0  0  0  0  0  0
  -24.7810  -31.0710   22.1210 N   0  0  0  0  0  0  0  0  0  0  0  0
  -23.6190  -32.1540   23.7490 O   0  0  0  0  0  0  0  0  0  0  0  0
  -22.8510  -29.4640   22.5220 C   0  0  0  0  0  0  0  0  0  0  0  0
  -21.5260  -29.2890   22.3900 N   0  0  0  0  0  0  0  0  0  0  0  0
  -23.5240  -28.8370   23.3440 O   0  0  0  0  0  0  0  0  0  0  0  0
  -21.0390  -29.8470   21.7010 H   0  0  0  0  0  0  0  0  0  0  0  0
  -18.1540  -28.0670   22.8620 C   0  0  0  0  0  0  0  0  0  0  0  0
  -20.7080  -28.3420   23.1520 C   0  0  0  0  0  3  0  0  0  0  0  0
  -20.8230  -26.9130   22.5760 C   0  0  0  0  0  2  0  0  0  0  0  0
  -19.7340  -26.5840   21.5500 C   0  0  0  0  0  2  0  0  0  0  0  0
  -18.3460  -26.7200   22.1840 C   0  0  0  0  0  2  0  0  0  0  0  0
  -19.2650  -28.8350   23.3040 C   0  0  0  0  0  0  0  0  0  0  0  0
  -19.0360  -30.0930   23.8990 C   0  0  0  0  0  3  0  0  0  0  0  0
  -17.7280  -30.5900   24.0550 C   0  0  0  0  0  3  0  0  0  0  0  0
  -16.6320  -29.8200   23.6330 C   0  0  0  0  0  3  0  0  0  0  0  0
  -16.8440  -28.5590   23.0460 C   0  0  0  0  0  3  0  0  0  0  0  0
  -25.9830  -32.5170   23.8510 C   0  0  0  0  0  3  0  0  0  0  0  0
  -26.4980  -31.7510   25.1330 C   0  0  1  0  0  0  0  0  0  0  0  0
  -25.3990  -31.5210   26.1950 C   0  0  0  0  0  1  0  0  0  0  0  0
  -27.0850  -30.3710   24.7550 C   0  0  0  0  0  1  0  0  0  0  0  0
  -27.6450  -32.5470   25.8000 C   0  0  0  0  0  1  0  0  0  0  0  0
  -25.6690  -33.9150   24.1790 N   0  0  0  0  0  0  0  0  0  0  0  0
  -26.0070  -34.9710   23.4280 C   0  0  0  0  0  0  0  0  0  0  0  0
  -26.6850  -34.8710   22.4010 O   0  0  0  0  0  0  0  0  0  0  0  0
  -25.0650  -34.0670   24.9740 H   0  0  0  0  0  0  0  0  0  0  0  0
  -24.2800  -36.7680   23.0720 C   0  0  0  0  0  1  0  0  0  0  0  0
  -25.5160  -36.3580   23.8850 C   0  0  0  0  0  3  0  0  0  0  0  0
  -27.6410  -37.2440   24.7370 C   0  0  0  0  0  1  0  0  0  0  0  0
  -26.5470  -37.4120   23.7850 N   0  0  0  0  0  0  0  0  0  0  0  0
  -26.1360  -38.3290   23.9370 H   0  0  0  0  0  0  0  0  0  0  0  0
  -30.1110  -17.3570   20.8790 C   0  0  0  0  0  2  0  0  0  0  0  0
  -30.6300  -14.8010   20.3540 C   0  0  0  0  0  0  0  0  0  0  0  0
  -30.4910  -12.5050   19.3760 C   0  0  0  0  0  2  0  0  0  0  0  0
  -29.5630  -12.5420   18.1400 C   0  0  0  0  0  2  0  0  0  0  0  0
  -28.0880  -12.3560   18.5660 C   0  0  0  0  0  2  0  0  0  0  0  0
  -27.6850  -13.2820   19.7430 C   0  0  0  0  0  3  0  0  0  0  0  0
  -28.7240  -13.2230   20.8820 C   0  0  0  0  0  2  0  0  0  0  0  0
  -30.0260  -13.5700   20.2900 N   0  0  0  0  0  0  0  0  0  0  0  0
  -31.8360  -14.9160   20.1190 O   0  0  0  0  0  0  0  0  0  0  0  0
  -29.8110  -15.9090   20.4980 N   0  0  0  0  0  0  0  0  0  0  0  0
  -28.8320  -15.6810   20.4920 H   0  0  0  0  0  0  0  0  0  0  0  0
  -25.2850  -13.8820   20.4380 C   0  0  0  0  0  0  0  0  0  0  0  0
  -24.2150  -13.1100   20.8040 C   0  0  0  0  0  0  0  0  0  0  0  0
  -24.6870  -11.7600   20.8060 C   0  0  0  0  0  0  0  0  0  0  0  0
  -26.3340  -13.0010   20.2250 N   0  0  0  0  0  0  0  0  0  0  0  0
  -25.9800  -11.7250   20.5100 N   0  0  0  0  0  0  0  0  0  0  0  0
  -23.9640  -10.4990   21.0010 C   0  0  0  0  0  0  0  0  0  0  0  0
  -24.3890   -9.5410   21.9480 C   0  0  0  0  0  3  0  0  0  0  0  0
  -23.6590   -8.3460   22.1330 C   0  0  0  0  0  3  0  0  0  0  0  0
  -22.4920   -8.1010   21.3690 C   0  0  0  0  0  0  0  0  0  0  0  0
  -22.0870   -9.0490   20.4100 C   0  0  0  0  0  3  0  0  0  0  0  0
  -22.8200  -10.2330   20.2240 C   0  0  0  0  0  3  0  0  0  0  0  0
  -21.7430   -6.9530   21.4570 O   0  0  0  0  0  0  0  0  0  0  0  0
  -21.6860   -6.2190   22.6140 C   0  0  0  0  0  0  0  0  0  0  0  0
  -21.2470   -6.7820   23.8340 C   0  0  0  0  0  3  0  0  0  0  0  0
  -21.1380   -5.9750   24.9840 C   0  0  0  0  0  3  0  0  0  0  0  0
  -21.4600   -4.6060   24.9160 C   0  0  0  0  0  0  0  0  0  0  0  0
  -21.8950   -4.0420   23.7040 C   0  0  0  0  0  3  0  0  0  0  0  0
  -22.0050   -4.8470   22.5570 C   0  0  0  0  0  0  0  0  0  0  0  0
  -22.4020   -4.2960   21.3850 F   0  0  0  0  0  0  0  0  0  0  0  0
  -21.3510   -3.8280   26.0190 F   0  0  0  0  0  0  0  0  0  0  0  0
  -22.8130  -13.5880   21.0460 C   0  0  0  0  0  0  0  0  0  0  0  0
  -22.0680  -12.9130   21.9120 N   0  0  0  0  0  0  0  0  0  0  0  0
  -22.3840  -14.6080   20.5040 O   0  0  0  0  0  0  0  0  0  0  0  0
  -22.4200  -12.0940   22.3850 H   0  0  0  0  0  0  0  0  0  0  0  0
  -21.1280  -13.2240   22.1100 H   0  0  0  0  0  0  0  0  0  0  0  0
  -25.4420  -15.2520   20.2430 N   0  0  0  0  0  0  0  0  0  0  0  0
  -24.6600  -15.8930   20.3240 H   0  0  0  0  0  0  0  0  0  0  0  0
  -26.2700  -15.6900   19.8570 H   0  0  0  0  0  0  0  0  0  0  0  0
  1  2  1  0
  2  8  1  0
  2  3  2  0
  3  6  1  0
  4  1  2  0
  4  9  1  0
  5  3  1  0
  5 57  1  0
  7  6  1  0
  8 14  1  0
  8  7  1  0
  9  5  2  0
 10 12  1  0
 11 10  1  0
 11 12  1  0
 12  4  1  0
 14 13  1  0
 14 15  1  0
 16 18  1  0
 16 15  1  0
 17 28  2  0
 18 23  1  0
 19 27  1  0
 19 29  1  0
 20 26  1  0
 20 22  1  0
 21 27  1  0
 22 21  1  0
 23 22  2  0
 24 18  2  0
 25 24  1  0
 25 20  2  0
 26 19  1  0
 27 17  1  0
 29 31  2  0
 30 29  1  0
 32 30  1  0
 33 42  2  0
 33 38  1  0
 34 30  1  0
 34 38  1  0
 35 34  1  0
 36 37  1  0
 36 35  1  0
 37 33  1  0
 38 39  2  0
 39 40  1  0
 41 40  2  0
 42 41  1  0
 43 17  1  0
 43 48  1  0
 43 44  1  0
 44 47  1  1
 44 45  1  0
 46 44  1  0
 48 51  1  0
 49 53  1  0
 49 48  1  0
 50 49  2  0
 53 52  1  0
 55 53  1  0
 55 56  1  0
 55 54  1  0
 58 66  1  0
 59 64  1  0
 60 61  1  0
 60 59  1  0
 62 61  1  0
 62 71  1  0
 62 63  1  0
 64 58  1  0
 64 63  1  0
 65 58  2  0
 66 57  1  0
 67 66  1  0
 68 69  2  0
 69 70  1  0
 69 88  1  0
 70 73  1  0
 71 68  1  0
 71 72  1  0
 72 70  2  0
 73 74  1  0
 74 75  2  0
 76 79  1  0
 76 75  1  0
 77 76  2  0
 78 77  1  0
 78 73  2  0
 79 80  1  0
 80 81  1  0
 81 82  2  0
 83 82  1  0
 83 87  1  0
 84 83  2  0
 85 80  2  0
 85 84  1  0
 86 85  1  0
 88 89  1  0
 89 92  1  0
 89 91  1  0
 90 88  2  0
 93 94  1  0
 93 68  1  0
 95 93  1  0
M  ISO  4  15 101  16 101  58 100  66 100
M  END
>  <TORSDO>  (12) 
F 20

>  <SCORE>  (12) 
-13.846

>  <name>  (12) 
11

>  <ligand_id>  (12) 
11

>  <original_smiles>  (12) 
[H]c1c([H])c([H])c2c(c1[H])C([H])([H])C([H])([H])C([H])([H])C2([H])N([H])C(=O)C1([H])N(C(=O)C([H])(N([H])C(=O)C([H])(N([H])C([H])([H])[H])C([H])([H])[H])C(C([H])([H])[H])(C([H])([H])[H])C([H])([H])[H])C([H])([H])c2c([H])c(OC([H])([H])C([H])(C([H])([H])[H])C3([H])c4c([H])c(C5([H])C([H])([H])C5([H])[H])nc(C([H])([H])N([H])C(=O)N5C([H])([H])C([H])([H])C([H])([H])C([H])(n6nc(-c7c([H])c([H])c(Oc8c([H])c([H])c(F)c([H])c8F)c([H])c7[H])c(C(=O)N([H])[H])c6N([H])[H])C5([H])[H])c4C([H])([H])C3([H])[H])c([H])c([H])c2C1([H])[H]

>  <smiles>  (12) 
[H]c1c([H])c([H])c2c(c1[H])C([H])([H])C([H])([H])C([H])([H])C2([H])N([H])C(=O)C1([H])N(C(=O)C([H])(N([H])C(=O)C([H])(N([H])C([H])([H])[H])C([H])([H])[H])C(C([H])([H])[H])(C([H])([H])[H])C([H])([H])[H])C([H])([H])c2c([H])c(OC([H])([H])C([H])(C([H])([H])[H])C3([H])c4c([H])c(C5([H])C([H])([H])C5([H])[H])nc(C([H])([H])N([H])C(=O)N5C([H])([H])C([H])([H])C([H])([H])C([H])(n6nc(-c7c([H])c([H])c(Oc8c([H])c([H])c(F)c([H])c8F)c([H])c7[H])c(C(=O)N([H])[H])c6N([H])[H])C5([H])[H])c4C([H])([H])C3([H])[H])c([H])c([H])c2C1([H])[H]

$$$$
12:0:0
     RDKit          3D

 91100  0  0  1  0  0  0  0  0999 V2000
  -28.8040  -21.0790   21.3870 C   0  0  0  0  0  3  0  0  0  0  0  0
  -29.1830  -19.6940   21.2320 C   0  0  0  0  0  3  0  0  0  0  0  0
  -28.8820  -22.0990   20.3670 C   0  0  0  0  0  0  0  0  0  0  0  0
  -29.6850  -19.1880   20.0080 C   0  0  0  0  0  0  0  0  0  0  0  0
  -29.3590  -21.4740   19.1590 C   0  0  0  0  0  0  0  0  0  0  0  0
  -29.5060  -22.2990   17.9000 C   0  0  0  0  0  1  0  0  0  0  0  0
  -29.7370  -20.1360   19.0080 N   0  0  0  0  0  0  0  0  0  0  0  0
  -28.8780  -24.1180   22.1250 C   0  0  0  0  0  2  0  0  0  0  0  0
  -27.4380  -23.8670   21.7990 C   0  0  0  0  0  2  0  0  0  0  0  0
  -28.4950  -23.6840   20.7180 C   0  0  2  0  0  0  0  0  0  0  0  0
  -28.4610  -24.9510   19.6700 C   0  0  0  0  0  2  0  0  0  0  0  0
  -28.4060  -26.4430   20.1000 O   0  0  0  0  0  0  0  0  0  0  0  0
  -24.6500  -31.9140   23.2140 C   0  0  0  0  0  0  0  0  0  0  0  0
  -27.2880  -27.3430   20.0480 C   0  0  0  0  0  0  0  0  0  0  0  0
  -23.4570  -30.5330   21.5570 C   0  0  0  0  0  3  0  0  0  0  0  0
  -24.9160  -29.0170   20.0810 C   0  0  0  0  0  0  0  0  0  0  0  0
  -25.9990  -30.8590   21.3650 C   0  0  0  0  0  2  0  0  0  0  0  0
  -26.0910  -29.4840   20.6850 C   0  0  0  0  0  0  0  0  0  0  0  0
  -27.2730  -28.6620   20.6510 C   0  0  0  0  0  3  0  0  0  0  0  0
  -26.0850  -26.9650   19.4140 C   0  0  0  0  0  3  0  0  0  0  0  0
  -24.9250  -27.7720   19.4340 C   0  0  0  0  0  3  0  0  0  0  0  0
  -23.6720  -29.8860   20.1620 C   0  0  0  0  0  2  0  0  0  0  0  0
  -24.7220  -31.1240   22.1010 N   0  0  0  0  0  0  0  0  0  0  0  0
  -23.5660  -32.1650   23.7630 O   0  0  0  0  0  0  0  0  0  0  0  0
  -22.8110  -29.4920   22.5050 C   0  0  0  0  0  0  0  0  0  0  0  0
  -21.4880  -29.2850   22.3780 N   0  0  0  0  0  0  0  0  0  0  0  0
  -23.5020  -28.8740   23.3190 O   0  0  0  0  0  0  0  0  0  0  0  0
  -20.9870  -29.8370   21.6960 H   0  0  0  0  0  0  0  0  0  0  0  0
  -18.1460  -27.9770   22.8590 C   0  0  0  0  0  0  0  0  0  0  0  0
  -20.6940  -28.3160   23.1370 C   0  0  0  0  0  3  0  0  0  0  0  0
  -20.8420  -26.8940   22.5470 C   0  0  0  0  0  2  0  0  0  0  0  0
  -19.7540  -26.5490   21.5260 C   0  0  0  0  0  2  0  0  0  0  0  0
  -18.3660  -26.6420   22.1660 C   0  0  0  0  0  2  0  0  0  0  0  0
  -19.2380  -28.7690   23.2990 C   0  0  0  0  0  0  0  0  0  0  0  0
  -18.9770  -30.0160   23.9090 C   0  0  0  0  0  3  0  0  0  0  0  0
  -17.6560  -30.4720   24.0790 C   0  0  0  0  0  3  0  0  0  0  0  0
  -16.5780  -29.6780   23.6510 C   0  0  0  0  0  3  0  0  0  0  0  0
  -16.8230  -28.4310   23.0470 C   0  0  0  0  0  3  0  0  0  0  0  0
  -25.9250  -32.5600   23.8410 C   0  0  0  0  0  3  0  0  0  0  0  0
  -26.4390  -31.7960   25.1230 C   0  0  1  0  0  0  0  0  0  0  0  0
  -25.3420  -31.5550   26.1860 C   0  0  0  0  0  1  0  0  0  0  0  0
  -27.0340  -30.4220   24.7440 C   0  0  0  0  0  1  0  0  0  0  0  0
  -27.5810  -32.6000   25.7890 C   0  0  0  0  0  1  0  0  0  0  0  0
  -25.6020  -33.9580   24.1710 N   0  0  0  0  0  0  0  0  0  0  0  0
  -25.9270  -35.0160   23.4170 C   0  0  0  0  0  0  0  0  0  0  0  0
  -26.5970  -34.9190   22.3850 O   0  0  0  0  0  0  0  0  0  0  0  0
  -25.0060  -34.1050   24.9730 H   0  0  0  0  0  0  0  0  0  0  0  0
  -24.1920  -36.8050   23.0650 C   0  0  0  0  0  1  0  0  0  0  0  0
  -25.4320  -36.4020   23.8790 C   0  0  0  0  0  3  0  0  0  0  0  0
  -27.5560  -37.3000   24.7270 C   0  0  0  0  0  1  0  0  0  0  0  0
  -26.4600  -37.4590   23.7730 N   0  0  0  0  0  0  0  0  0  0  0  0
  -26.0490  -38.3780   23.9130 H   0  0  0  0  0  0  0  0  0  0  0  0
  -30.4380  -17.7440   19.7920 C   0  0  0  0  0  2  0  0  0  0  0  0
  -30.7180  -15.0990   19.9200 C   0  0  0  0  0  0  0  0  0  0  0  0
  -30.5010  -12.7830   18.9450 C   0  0  0  0  0  2  0  0  0  0  0  0
  -29.4930  -12.8000   17.7730 C   0  0  0  0  0  2  0  0  0  0  0  0
  -28.0590  -12.5930   18.2920 C   0  0  0  0  0  2  0  0  0  0  0  0
  -27.7370  -13.4830   19.5210 C   0  0  0  0  0  3  0  0  0  0  0  0
  -28.8620  -13.4580   20.5780 C   0  0  0  0  0  2  0  0  0  0  0  0
  -30.0990  -13.8560   19.8970 N   0  0  0  0  0  0  0  0  0  0  0  0
  -31.8950  -15.1580   19.5490 O   0  0  0  0  0  0  0  0  0  0  0  0
  -29.9850  -16.2880   20.1270 N   0  0  0  0  0  0  0  0  0  0  0  0
  -29.0220  -16.1800   20.4040 H   0  0  0  0  0  0  0  0  0  0  0  0
  -25.4140  -14.0370   20.4390 C   0  0  0  0  0  0  0  0  0  0  0  0
  -24.3770  -13.2510   20.8540 C   0  0  0  0  0  0  0  0  0  0  0  0
  -24.8350  -11.9010   20.7480 C   0  0  0  0  0  0  0  0  0  0  0  0
  -26.4360  -13.1680   20.0980 N   0  0  0  0  0  0  0  0  0  0  0  0
  -26.1020  -11.8760   20.3500 N   0  0  0  0  0  0  0  0  0  0  0  0
  -24.1210  -10.6330   20.9450 C   0  0  0  0  0  0  0  0  0  0  0  0
  -24.5760   -9.6630   21.8640 C   0  0  0  0  0  3  0  0  0  0  0  0
  -23.8590   -8.4600   22.0480 C   0  0  0  0  0  3  0  0  0  0  0  0
  -22.6720   -8.2210   21.3140 C   0  0  0  0  0  0  0  0  0  0  0  0
  -22.2370   -9.1810   20.3840 C   0  0  0  0  0  3  0  0  0  0  0  0
  -22.9540  -10.3740   20.1970 C   0  0  0  0  0  3  0  0  0  0  0  0
  -21.9250   -7.0720   21.4100 O   0  0  0  0  0  0  0  0  0  0  0  0
  -21.8640   -6.3480   22.5740 C   0  0  0  0  0  0  0  0  0  0  0  0
  -21.3730   -6.9050   23.7740 C   0  0  0  0  0  3  0  0  0  0  0  0
  -21.2630   -6.1050   24.9280 C   0  0  0  0  0  3  0  0  0  0  0  0
  -21.6330   -4.7480   24.8830 C   0  0  0  0  0  0  0  0  0  0  0  0
  -22.1190   -4.1900   23.6870 C   0  0  0  0  0  3  0  0  0  0  0  0
  -22.2310   -4.9880   22.5360 C   0  0  0  0  0  0  0  0  0  0  0  0
  -22.6790   -4.4400   21.3800 F   0  0  0  0  0  0  0  0  0  0  0  0
  -21.5210   -3.9770   25.9900 F   0  0  0  0  0  0  0  0  0  0  0  0
  -23.0020  -13.7180   21.2330 C   0  0  0  0  0  0  0  0  0  0  0  0
  -22.3300  -12.9920   22.1190 N   0  0  0  0  0  0  0  0  0  0  0  0
  -22.5350  -14.7630   20.7770 O   0  0  0  0  0  0  0  0  0  0  0  0
  -22.7220  -12.1470   22.5070 H   0  0  0  0  0  0  0  0  0  0  0  0
  -21.4100  -13.2860   22.4150 H   0  0  0  0  0  0  0  0  0  0  0  0
  -25.5650  -15.4140   20.2980 N   0  0  0  0  0  0  0  0  0  0  0  0
  -24.8010  -16.0570   20.4780 H   0  0  0  0  0  0  0  0  0  0  0  0
  -26.3760  -15.8660   19.8950 H   0  0  0  0  0  0  0  0  0  0  0  0
  2  1  1  0
  3 10  1  0
  3  1  2  0
  4  2  2  0
  5  3  1  0
  6  5  1  0
  7  5  2  0
  7  4  1  0
  9  8  1  0
 10  9  1  0
 10  8  1  0
 11 12  1  0
 10 11  1  6
 13 24  2  0
 14 12  1  0
 14 19  1  0
 15 23  1  0
 15 25  1  0
 16 22  1  0
 16 18  1  0
 17 23  1  0
 18 17  1  0
 19 18  2  0
 20 21  1  0
 20 14  2  0
 21 16  2  0
 22 15  1  0
 23 13  1  0
 25 27  2  0
 26 25  1  0
 28 26  1  0
 29 38  2  0
 29 34  1  0
 30 26  1  0
 30 34  1  0
 31 30  1  0
 32 33  1  0
 32 31  1  0
 33 29  1  0
 34 35  2  0
 35 36  1  0
 37 36  2  0
 38 37  1  0
 39 13  1  0
 39 44  1  0
 39 40  1  0
 40 43  1  1
 40 41  1  0
 42 40  1  0
 44 47  1  0
 45 49  1  0
 45 44  1  0
 46 45  2  0
 49 48  1  0
 51 49  1  0
 51 52  1  0
 51 50  1  0
 53  4  1  0
 53 62  1  0
 54 62  1  0
 55 60  1  0
 56 57  1  0
 56 55  1  0
 58 57  1  0
 58 67  1  0
 58 59  1  0
 60 54  1  0
 60 59  1  0
 61 54  2  0
 62 63  1  0
 64 65  2  0
 65 84  1  0
 66 65  1  0
 66 69  1  0
 67 68  1  0
 67 64  1  0
 68 66  2  0
 69 70  1  0
 70 71  2  0
 72 75  1  0
 72 71  1  0
 73 72  2  0
 74 73  1  0
 74 69  2  0
 75 76  1  0
 76 77  1  0
 77 78  2  0
 79 78  1  0
 79 83  1  0
 80 79  2  0
 81 76  2  0
 81 80  1  0
 82 81  1  0
 84 85  1  0
 85 88  1  0
 85 87  1  0
 86 84  2  0
 89 64  1  0
 89 90  1  0
 91 89  1  0
M  ISO  4  11 101  12 101  54 100  62 100
M  END
>  <TORSDO>  (13) 
F 19

>  <SCORE>  (13) 
-13.659

>  <name>  (13) 
12

>  <ligand_id>  (13) 
12

>  <original_smiles>  (13) 
[H]c1c(C([H])([H])N([H])C(=O)N2C([H])([H])C([H])([H])C([H])([H])C([H])(n3nc(-c4c([H])c([H])c(Oc5c([H])c([H])c(F)c([H])c5F)c([H])c4[H])c(C(=O)N([H])[H])c3N([H])[H])C2([H])[H])nc(C([H])([H])[H])c(C2(C([H])([H])Oc3c([H])c([H])c4c(c3[H])C([H])([H])N(C(=O)C([H])(N([H])C(=O)C([H])(N([H])C([H])([H])[H])C([H])([H])[H])C(C([H])([H])[H])(C([H])([H])[H])C([H])([H])[H])C([H])(C(=O)N([H])C3([H])c5c([H])c([H])c([H])c([H])c5C([H])([H])C([H])([H])C3([H])[H])C4([H])[H])C([H])([H])C2([H])[H])c1[H]

>  <smiles>  (13) 
[H]c1c(C([H])([H])N([H])C(=O)N2C([H])([H])C([H])([H])C([H])([H])C([H])(n3nc(-c4c([H])c([H])c(Oc5c([H])c([H])c(F)c([H])c5F)c([H])c4[H])c(C(=O)N([H])[H])c3N([H])[H])C2([H])[H])nc(C([H])([H])[H])c(C2(C([H])([H])Oc3c([H])c([H])c4c(c3[H])C([H])([H])N(C(=O)C([H])(N([H])C(=O)C([H])(N([H])C([H])([H])[H])C([H])([H])[H])C(C([H])([H])[H])(C([H])([H])[H])C([H])([H])[H])C([H])(C(=O)N([H])C3([H])c5c([H])c([H])c([H])c([H])c5C([H])([H])C([H])([H])C3([H])[H])C4([H])[H])C([H])([H])C2([H])[H])c1[H]

$$$$
13:0:0
     RDKit          3D

 92101  0  0  1  0  0  0  0  0999 V2000
  -29.0820  -22.7650   20.9950 C   0  0  0  0  0  3  0  0  0  0  0  0
  -28.9670  -22.6230   18.6630 C   0  0  0  0  0  3  0  0  0  0  0  0
  -28.7590  -23.4750   19.7870 C   0  0  0  0  0  0  0  0  0  0  0  0
  -29.5400  -21.3710   21.0400 C   0  0  0  0  0  0  0  0  0  0  0  0
  -29.6890  -20.6080   19.8340 C   0  0  0  0  0  0  0  0  0  0  0  0
  -29.3910  -21.3040   18.6860 N   0  0  0  0  0  0  0  0  0  0  0  0
  -30.7780  -15.1850   20.2170 C   0  0  0  0  0  0  0  0  0  0  0  0
  -30.6190  -12.8150   19.3540 C   0  0  0  0  0  2  0  0  0  0  0  0
  -29.6800  -12.7360   18.1300 C   0  0  0  0  0  2  0  0  0  0  0  0
  -28.2200  -12.5430   18.5810 C   0  0  0  0  0  2  0  0  0  0  0  0
  -27.8160  -13.5140   19.7220 C   0  0  0  0  0  3  0  0  0  0  0  0
  -28.8790  -13.5800   20.8390 C   0  0  0  0  0  2  0  0  0  0  0  0
  -30.1480  -13.9440   20.1990 N   0  0  0  0  0  0  0  0  0  0  0  0
  -32.0050  -15.2050   20.0640 O   0  0  0  0  0  0  0  0  0  0  0  0
  -29.2820  -18.2810   18.6170 C   0  0  0  0  0  2  0  0  0  0  0  0
  -29.6050  -16.7560   18.7090 C   0  0  0  0  0  2  0  0  0  0  0  0
  -30.1530  -17.7990   20.7170 C   0  0  0  0  0  2  0  0  0  0  0  0
  -30.1570  -19.0260   19.6330 C   0  0  2  0  0  0  0  0  0  0  0  0
  -31.6170  -19.0830   19.1240 C   0  0  0  0  0  1  0  0  0  0  0  0
  -30.0230  -16.3850   20.0780 N   0  0  0  0  0  0  0  0  0  0  0  0
  -25.4580  -14.1420   20.4850 C   0  0  0  0  0  0  0  0  0  0  0  0
  -24.3780  -13.3860   20.8500 C   0  0  0  0  0  0  0  0  0  0  0  0
  -24.8150  -12.0270   20.8080 C   0  0  0  0  0  0  0  0  0  0  0  0
  -26.4810  -13.2420   20.2340 N   0  0  0  0  0  0  0  0  0  0  0  0
  -26.1030  -11.9650   20.4950 N   0  0  0  0  0  0  0  0  0  0  0  0
  -24.0640  -10.7780   20.9920 C   0  0  0  0  0  0  0  0  0  0  0  0
  -24.4630   -9.8080   21.9370 C   0  0  0  0  0  3  0  0  0  0  0  0
  -23.7120   -8.6260   22.1080 C   0  0  0  0  0  3  0  0  0  0  0  0
  -22.5490   -8.4040   21.3320 C   0  0  0  0  0  0  0  0  0  0  0  0
  -22.1710   -9.3620   20.3750 C   0  0  0  0  0  3  0  0  0  0  0  0
  -22.9220  -10.5370   20.2030 C   0  0  0  0  0  3  0  0  0  0  0  0
  -21.7740   -7.2730   21.4110 O   0  0  0  0  0  0  0  0  0  0  0  0
  -21.6680   -6.5530   22.5750 C   0  0  0  0  0  0  0  0  0  0  0  0
  -21.1640   -7.1280   23.7620 C   0  0  0  0  0  3  0  0  0  0  0  0
  -21.0050   -6.3340   24.9150 C   0  0  0  0  0  3  0  0  0  0  0  0
  -21.3420   -4.9680   24.8830 C   0  0  0  0  0  0  0  0  0  0  0  0
  -21.8400   -4.3940   23.7000 C   0  0  0  0  0  3  0  0  0  0  0  0
  -21.9990   -5.1840   22.5490 C   0  0  0  0  0  0  0  0  0  0  0  0
  -22.4590   -4.6210   21.4050 F   0  0  0  0  0  0  0  0  0  0  0  0
  -21.1830   -4.2030   25.9890 F   0  0  0  0  0  0  0  0  0  0  0  0
  -22.9930  -13.8900   21.1280 C   0  0  0  0  0  0  0  0  0  0  0  0
  -22.2650  -13.2220   22.0170 N   0  0  0  0  0  0  0  0  0  0  0  0
  -22.5640  -14.9120   20.5930 O   0  0  0  0  0  0  0  0  0  0  0  0
  -22.6250  -12.3950   22.4690 H   0  0  0  0  0  0  0  0  0  0  0  0
  -21.3370  -13.5450   22.2490 H   0  0  0  0  0  0  0  0  0  0  0  0
  -25.6500  -15.5110   20.3210 N   0  0  0  0  0  0  0  0  0  0  0  0
  -24.9030  -16.1830   20.4570 H   0  0  0  0  0  0  0  0  0  0  0  0
  -26.5190  -15.9390   20.0270 H   0  0  0  0  0  0  0  0  0  0  0  0
  -30.0900  -21.4740   23.3830 C   0  0  0  0  0  1  0  0  0  0  0  0
  -29.8170  -20.7070   22.2160 O   0  0  0  0  0  0  0  0  0  0  0  0
  -27.8550  -24.8460   19.7070 C   0  0  0  0  0  2  0  0  0  0  0  0
  -28.2260  -26.3480   19.7750 O   0  0  0  0  0  0  0  0  0  0  0  0
  -24.5750  -31.8320   23.0850 C   0  0  0  0  0  0  0  0  0  0  0  0
  -27.1480  -27.3100   19.7800 C   0  0  0  0  0  0  0  0  0  0  0  0
  -23.3350  -30.4240   21.4900 C   0  0  0  0  0  3  0  0  0  0  0  0
  -24.7550  -28.9560   19.9380 C   0  0  0  0  0  0  0  0  0  0  0  0
  -25.8620  -30.8030   21.1770 C   0  0  0  0  0  2  0  0  0  0  0  0
  -25.9520  -29.4310   20.4890 C   0  0  0  0  0  0  0  0  0  0  0  0
  -27.1470  -28.6240   20.3990 C   0  0  0  0  0  3  0  0  0  0  0  0
  -25.9170  -26.9510   19.1790 C   0  0  0  0  0  3  0  0  0  0  0  0
  -24.7480  -27.7290   19.2680 C   0  0  0  0  0  3  0  0  0  0  0  0
  -23.4960  -29.7960   20.0830 C   0  0  0  0  0  2  0  0  0  0  0  0
  -24.6130  -31.0400   21.9710 N   0  0  0  0  0  0  0  0  0  0  0  0
  -23.5140  -32.0590   23.6840 O   0  0  0  0  0  0  0  0  0  0  0  0
  -22.7600  -29.3650   22.4630 C   0  0  0  0  0  0  0  0  0  0  0  0
  -21.4530  -29.0700   22.3460 N   0  0  0  0  0  0  0  0  0  0  0  0
  -23.4910  -28.8110   23.2880 O   0  0  0  0  0  0  0  0  0  0  0  0
  -20.9140  -29.5710   21.6520 H   0  0  0  0  0  0  0  0  0  0  0  0
  -18.2230  -27.4970   22.8100 C   0  0  0  0  0  0  0  0  0  0  0  0
  -20.7250  -28.0710   23.1330 C   0  0  0  0  0  3  0  0  0  0  0  0
  -21.0120  -26.6410   22.6180 C   0  0  0  0  0  2  0  0  0  0  0  0
  -19.9860  -26.1520   21.5890 C   0  0  0  0  0  2  0  0  0  0  0  0
  -18.5780  -26.1540   22.1910 C   0  0  0  0  0  2  0  0  0  0  0  0
  -19.2300  -28.4020   23.2370 C   0  0  0  0  0  0  0  0  0  0  0  0
  -18.8450  -29.6500   23.7750 C   0  0  0  0  0  3  0  0  0  0  0  0
  -17.4850  -29.9960   23.8890 C   0  0  0  0  0  3  0  0  0  0  0  0
  -16.4920  -29.0900   23.4770 C   0  0  0  0  0  3  0  0  0  0  0  0
  -16.8620  -27.8420   22.9440 C   0  0  0  0  0  3  0  0  0  0  0  0
  -25.8630  -32.5070   23.6470 C   0  0  0  0  0  3  0  0  0  0  0  0
  -25.5160  -33.8840   24.0290 N   0  0  0  0  0  0  0  0  0  0  0  0
  -25.8130  -34.9750   23.3100 C   0  0  0  0  0  0  0  0  0  0  0  0
  -26.4780  -34.9280   22.2710 O   0  0  0  0  0  0  0  0  0  0  0  0
  -24.9250  -33.9930   24.8400 H   0  0  0  0  0  0  0  0  0  0  0  0
  -24.0530  -36.7490   23.0190 C   0  0  0  0  0  1  0  0  0  0  0  0
  -25.2940  -36.3330   23.8230 C   0  0  0  0  0  3  0  0  0  0  0  0
  -27.4000  -37.2260   24.7180 C   0  0  0  0  0  1  0  0  0  0  0  0
  -26.3080  -37.4100   23.7670 N   0  0  0  0  0  0  0  0  0  0  0  0
  -25.8810  -38.3150   23.9460 H   0  0  0  0  0  0  0  0  0  0  0  0
  -26.4820  -31.7320   24.8760 C   0  0  1  0  0  0  0  0  0  0  0  0
  -25.4540  -31.4030   25.9830 C   0  0  0  0  0  1  0  0  0  0  0  0
  -27.1220  -30.4010   24.4200 C   0  0  0  0  0  1  0  0  0  0  0  0
  -27.6170  -32.5720   25.5050 C   0  0  0  0  0  1  0  0  0  0  0  0
  1  4  1  0
  2  6  2  0
  2  3  1  0
  3  1  2  0
  4 50  1  0
  5  4  2  0
  6  5  1  0
  8 13  1  0
  9 10  1  0
  9  8  1  0
 11 10  1  0
 11 24  1  0
 11 12  1  0
 13  7  1  0
 13 12  1  0
 14  7  2  0
 15 16  1  0
 15 18  1  0
 16 20  1  0
 18 19  1  6
 18  5  1  0
 18 17  1  0
 20  7  1  0
 20 17  1  0
 21 22  2  0
 22 41  1  0
 23 22  1  0
 23 26  1  0
 24 21  1  0
 24 25  1  0
 25 23  2  0
 26 27  1  0
 27 28  2  0
 29 32  1  0
 29 28  1  0
 30 29  2  0
 31 30  1  0
 31 26  2  0
 32 33  1  0
 33 34  1  0
 34 35  2  0
 36 35  1  0
 36 40  1  0
 37 36  2  0
 38 33  2  0
 38 37  1  0
 39 38  1  0
 41 42  1  0
 42 45  1  0
 42 44  1  0
 43 41  2  0
 46 47  1  0
 46 21  1  0
 48 46  1  0
 50 49  1  0
 51 52  1  0
 51  3  1  0
 52 54  1  0
 53 64  2  0
 54 59  1  0
 55 63  1  0
 55 65  1  0
 56 62  1  0
 56 58  1  0
 57 63  1  0
 58 57  1  0
 59 58  2  0
 60 61  1  0
 60 54  2  0
 61 56  2  0
 62 55  1  0
 63 53  1  0
 65 67  2  0
 66 65  1  0
 68 66  1  0
 69 78  2  0
 69 74  1  0
 70 66  1  0
 70 74  1  0
 71 70  1  0
 72 73  1  0
 72 71  1  0
 73 69  1  0
 74 75  2  0
 75 76  1  0
 77 76  2  0
 78 77  1  0
 79 53  1  0
 79 80  1  0
 79 89  1  0
 80 83  1  0
 81 85  1  0
 81 80  1  0
 82 81  2  0
 85 84  1  0
 87 85  1  0
 87 88  1  0
 87 86  1  0
 89 92  1  1
 89 90  1  0
 91 89  1  0
M  ISO  4   7 100  20 100  51 101  52 101
M  END
>  <TORSDO>  (14) 
F 18

>  <SCORE>  (14) 
-14.173

>  <name>  (14) 
13

>  <ligand_id>  (14) 
13

>  <original_smiles>  (14) 
[H]c1nc(C2(C([H])([H])[H])C([H])([H])N(C(=O)N3C([H])([H])C([H])([H])C([H])([H])C([H])(n4nc(-c5c([H])c([H])c(Oc6c([H])c([H])c(F)c([H])c6F)c([H])c5[H])c(C(=O)N([H])[H])c4N([H])[H])C3([H])[H])C([H])([H])C2([H])[H])c(OC([H])([H])[H])c([H])c1C([H])([H])Oc1c([H])c([H])c2c(c1[H])C([H])([H])N(C(=O)C([H])(N([H])C(=O)C([H])(N([H])C([H])([H])[H])C([H])([H])[H])C(C([H])([H])[H])(C([H])([H])[H])C([H])([H])[H])C([H])(C(=O)N([H])C1([H])c3c([H])c([H])c([H])c([H])c3C([H])([H])C([H])([H])C1([H])[H])C2([H])[H]

>  <smiles>  (14) 
[H]c1nc(C2(C([H])([H])[H])C([H])([H])N(C(=O)N3C([H])([H])C([H])([H])C([H])([H])C([H])(n4nc(-c5c([H])c([H])c(Oc6c([H])c([H])c(F)c([H])c6F)c([H])c5[H])c(C(=O)N([H])[H])c4N([H])[H])C3([H])[H])C([H])([H])C2([H])[H])c(OC([H])([H])[H])c([H])c1C([H])([H])Oc1c([H])c([H])c2c(c1[H])C([H])([H])N(C(=O)C([H])(N([H])C(=O)C([H])(N([H])C([H])([H])[H])C([H])([H])[H])C(C([H])([H])[H])(C([H])([H])[H])C([H])([H])[H])C([H])(C(=O)N([H])C1([H])c3c([H])c([H])c([H])c([H])c3C([H])([H])C([H])([H])C1([H])[H])C2([H])[H]

$$$$
14:0:0
     RDKit          3D

 89 98  0  0  1  0  0  0  0  0999 V2000
  -31.1790  -15.4590   19.2500 C   0  0  0  0  0  0  0  0  0  0  0  0
  -31.2860  -12.7990   19.5550 C   0  0  0  0  0  2  0  0  0  0  0  0
  -30.4940  -11.9410   18.5250 C   0  0  0  0  0  2  0  0  0  0  0  0
  -29.0240  -11.7930   18.9450 C   0  0  0  0  0  2  0  0  0  0  0  0
  -28.4570  -13.1340   19.4620 C   0  0  0  0  0  3  0  0  0  0  0  0
  -29.3900  -13.8690   20.4530 C   0  0  0  0  0  2  0  0  0  0  0  0
  -30.6410  -14.1810   19.7240 N   0  0  0  0  0  0  0  0  0  0  0  0
  -32.4200  -15.3370   19.1720 O   0  0  0  0  0  0  0  0  0  0  0  0
  -30.9220  -20.3360   16.4620 C   0  0  0  0  0  3  0  0  0  0  0  0
  -29.1990  -19.2550   18.1220 C   0  0  0  0  0  0  0  0  0  0  0  0
  -29.7840  -21.3060   16.5720 C   0  0  0  0  0  0  0  0  0  0  0  0
  -30.3400  -18.2820   18.0220 C   0  0  0  0  0  0  0  0  0  0  0  0
  -31.1690  -19.0250   17.1110 N   0  0  0  0  0  0  0  0  0  0  0  0
  -28.9670  -20.5550   17.4740 N   0  0  0  0  0  0  0  0  0  0  0  0
  -30.3980  -16.7240   18.7800 N   0  0  0  0  0  0  0  0  0  0  0  0
  -29.4530  -16.5150   19.0630 H   0  0  0  0  0  0  0  0  0  0  0  0
  -26.1920  -14.0590   20.1370 C   0  0  0  0  0  0  0  0  0  0  0  0
  -25.0130  -13.4690   20.4940 C   0  0  0  0  0  0  0  0  0  0  0  0
  -25.2620  -12.0610   20.5070 C   0  0  0  0  0  0  0  0  0  0  0  0
  -27.0880  -13.0260   19.9450 N   0  0  0  0  0  0  0  0  0  0  0  0
  -26.5400  -11.8160   20.2350 N   0  0  0  0  0  0  0  0  0  0  0  0
  -24.3350  -10.9360   20.7000 C   0  0  0  0  0  0  0  0  0  0  0  0
  -24.6490   -9.8560   21.5540 C   0  0  0  0  0  3  0  0  0  0  0  0
  -23.7320   -8.8000   21.7410 C   0  0  0  0  0  3  0  0  0  0  0  0
  -22.4830   -8.8180   21.0750 C   0  0  0  0  0  0  0  0  0  0  0  0
  -22.1830   -9.8840   20.2090 C   0  0  0  0  0  3  0  0  0  0  0  0
  -23.1000  -10.9310   20.0190 C   0  0  0  0  0  3  0  0  0  0  0  0
  -21.5410   -7.8230   21.1760 O   0  0  0  0  0  0  0  0  0  0  0  0
  -21.5050   -6.9720   22.2520 C   0  0  0  0  0  0  0  0  0  0  0  0
  -21.3310   -7.4450   23.5710 C   0  0  0  0  0  3  0  0  0  0  0  0
  -21.2300   -6.5310   24.6390 C   0  0  0  0  0  3  0  0  0  0  0  0
  -21.2930   -5.1480   24.3920 C   0  0  0  0  0  0  0  0  0  0  0  0
  -21.4610   -4.6740   23.0790 C   0  0  0  0  0  3  0  0  0  0  0  0
  -21.5640   -5.5840   22.0110 C   0  0  0  0  0  0  0  0  0  0  0  0
  -21.7030   -5.1220   20.7460 F   0  0  0  0  0  0  0  0  0  0  0  0
  -21.1890   -4.2690   25.4170 F   0  0  0  0  0  0  0  0  0  0  0  0
  -23.7040  -14.1690   20.7040 C   0  0  0  0  0  0  0  0  0  0  0  0
  -22.8890  -13.6830   21.6320 N   0  0  0  0  0  0  0  0  0  0  0  0
  -23.4200  -15.1900   20.0760 O   0  0  0  0  0  0  0  0  0  0  0  0
  -23.1300  -12.8580   22.1600 H   0  0  0  0  0  0  0  0  0  0  0  0
  -22.0100  -14.1440   21.8210 H   0  0  0  0  0  0  0  0  0  0  0  0
  -26.5710  -15.3810   19.9210 N   0  0  0  0  0  0  0  0  0  0  0  0
  -25.8800  -16.1240   19.9130 H   0  0  0  0  0  0  0  0  0  0  0  0
  -27.4370  -15.6430   19.4730 H   0  0  0  0  0  0  0  0  0  0  0  0
  -27.8240  -19.4790   20.3520 C   0  0  0  0  0  2  0  0  0  0  0  0
  -28.1870  -18.0240   20.2240 C   0  0  0  0  0  2  0  0  0  0  0  0
  -28.0230  -18.8700   18.9770 C   0  0  0  0  0  3  0  0  0  0  0  0
  -29.1760  -22.7870   15.5740 C   0  0  0  0  0  2  0  0  0  0  0  0
  -29.0430  -24.5450   15.5370 O   0  0  0  0  0  0  0  0  0  0  0  0
  -25.4430  -28.2750   21.3300 C   0  0  0  0  0  0  0  0  0  0  0  0
  -27.9860  -25.5370   16.1150 C   0  0  0  0  0  0  0  0  0  0  0  0
  -24.1760  -27.6450   19.3200 C   0  0  0  0  0  3  0  0  0  0  0  0
  -25.5640  -27.0480   17.1910 C   0  0  0  0  0  0  0  0  0  0  0  0
  -26.6980  -28.1720   19.0900 C   0  0  0  0  0  2  0  0  0  0  0  0
  -26.7970  -27.2260   17.8310 C   0  0  0  0  0  0  0  0  0  0  0  0
  -27.9840  -26.5060   17.2790 C   0  0  0  0  0  3  0  0  0  0  0  0
  -26.6960  -25.5710   15.5260 C   0  0  0  0  0  3  0  0  0  0  0  0
  -25.5480  -26.2590   16.0280 C   0  0  0  0  0  3  0  0  0  0  0  0
  -24.2950  -27.6980   17.7690 C   0  0  0  0  0  2  0  0  0  0  0  0
  -25.4670  -28.0390   19.9730 N   0  0  0  0  0  0  0  0  0  0  0  0
  -24.4030  -28.1550   22.0020 O   0  0  0  0  0  0  0  0  0  0  0  0
  -23.6760  -26.2440   19.7640 C   0  0  0  0  0  0  0  0  0  0  0  0
  -22.3530  -25.9960   19.7060 N   0  0  0  0  0  0  0  0  0  0  0  0
  -24.4870  -25.3910   20.1340 O   0  0  0  0  0  0  0  0  0  0  0  0
  -21.7410  -26.7400   19.4040 H   0  0  0  0  0  0  0  0  0  0  0  0
  -19.1630  -24.2720   19.9430 C   0  0  0  0  0  0  0  0  0  0  0  0
  -21.7120  -24.7090   20.0090 C   0  0  0  0  0  3  0  0  0  0  0  0
  -21.8000  -23.7490   18.7990 C   0  0  0  0  0  2  0  0  0  0  0  0
  -20.5690  -23.8130   17.8900 C   0  0  0  0  0  2  0  0  0  0  0  0
  -19.3030  -23.4520   18.6720 C   0  0  0  0  0  2  0  0  0  0  0  0
  -20.2910  -24.8750   20.5620 C   0  0  0  0  0  0  0  0  0  0  0  0
  -20.0980  -25.6490   21.7270 C   0  0  0  0  0  3  0  0  0  0  0  0
  -18.8110  -25.8260   22.2700 C   0  0  0  0  0  3  0  0  0  0  0  0
  -17.7000  -25.2180   21.6590 C   0  0  0  0  0  3  0  0  0  0  0  0
  -17.8770  -24.4390   20.5020 C   0  0  0  0  0  3  0  0  0  0  0  0
  -26.7190  -28.7200   22.1080 C   0  0  0  0  0  3  0  0  0  0  0  0
  -26.2890  -29.4440   23.3220 N   0  0  0  0  0  0  0  0  0  0  0  0
  -26.4500  -30.7570   23.5350 C   0  0  0  0  0  0  0  0  0  0  0  0
  -27.0330  -31.4920   22.7350 O   0  0  0  0  0  0  0  0  0  0  0  0
  -25.7530  -28.9150   23.9930 H   0  0  0  0  0  0  0  0  0  0  0  0
  -24.5580  -32.0830   24.5450 C   0  0  0  0  0  1  0  0  0  0  0  0
  -25.8780  -31.3510   24.8410 C   0  0  0  0  0  3  0  0  0  0  0  0
  -27.9690  -31.6040   26.1100 C   0  0  0  0  0  1  0  0  0  0  0  0
  -26.8080  -32.2750   25.5310 N   0  0  0  0  0  0  0  0  0  0  0  0
  -26.3290  -32.7760   26.2740 H   0  0  0  0  0  0  0  0  0  0  0  0
  -27.6480  -27.5090   22.5120 C   0  0  1  0  0  0  0  0  0  0  0  0
  -26.9000  -26.3590   23.2290 C   0  0  0  0  0  1  0  0  0  0  0  0
  -28.3510  -26.9080   21.2740 C   0  0  0  0  0  1  0  0  0  0  0  0
  -28.7720  -28.0040   23.4540 C   0  0  0  0  0  1  0  0  0  0  0  0
  1  7  1  0
  2  7  1  0
  3  4  1  0
  3  2  1  0
  5  4  1  0
  5 20  1  0
  5  6  1  0
  7  6  1  0
  8  1  2  0
  9 11  2  0
  9 13  1  0
 10 47  1  0
 11 14  1  0
 12 10  1  0
 12 15  1  0
 13 12  2  0
 14 10  2  0
 15 16  1  0
 15  1  1  0
 17 18  2  0
 18 19  1  0
 18 37  1  0
 19 22  1  0
 20 17  1  0
 20 21  1  0
 21 19  2  0
 22 23  1  0
 23 24  2  0
 25 28  1  0
 25 24  1  0
 26 25  2  0
 27 26  1  0
 27 22  2  0
 28 29  1  0
 29 30  1  0
 30 31  2  0
 32 31  1  0
 32 36  1  0
 33 32  2  0
 34 29  2  0
 34 33  1  0
 35 34  1  0
 37 38  1  0
 38 41  1  0
 38 40  1  0
 39 37  2  0
 42 17  1  0
 43 42  1  0
 44 42  1  0
 46 45  1  0
 47 46  1  0
 47 45  1  0
 48 11  1  0
 49 48  1  0
 49 51  1  0
 50 61  2  0
 51 56  1  0
 52 62  1  0
 52 60  1  0
 53 59  1  0
 53 55  1  0
 54 60  1  0
 55 54  1  0
 56 55  2  0
 57 58  1  0
 57 51  2  0
 58 53  2  0
 59 52  1  0
 60 50  1  0
 62 64  2  0
 63 62  1  0
 65 63  1  0
 66 75  2  0
 66 71  1  0
 67 63  1  0
 67 71  1  0
 68 67  1  0
 69 70  1  0
 69 68  1  0
 70 66  1  0
 71 72  2  0
 72 73  1  0
 74 73  2  0
 75 74  1  0
 76 50  1  0
 76 86  1  0
 76 77  1  0
 77 78  1  0
 77 80  1  0
 78 82  1  0
 79 78  2  0
 82 81  1  0
 82 84  1  0
 84 83  1  0
 84 85  1  0
 86 87  1  1
 86 89  1  0
 88 86  1  0
M  ISO  4   1 100  15 100  48 101  49 101
M  END
>  <TORSDO>  (15) 
F 17

>  <SCORE>  (15) 
-10.738

>  <name>  (15) 
14

>  <ligand_id>  (15) 
14

>  <original_smiles>  (15) 
[H]c1nc(N([H])C(=O)N2C([H])([H])C([H])([H])C([H])([H])C([H])(n3nc(-c4c([H])c([H])c(Oc5c([H])c([H])c(F)c([H])c5F)c([H])c4[H])c(C(=O)N([H])[H])c3N([H])[H])C2([H])[H])c(C2([H])C([H])([H])C2([H])[H])nc1C([H])([H])Oc1c([H])c([H])c2c(c1[H])C([H])([H])N(C(=O)C([H])(N([H])C(=O)C([H])(N([H])C([H])([H])[H])C([H])([H])[H])C(C([H])([H])[H])(C([H])([H])[H])C([H])([H])[H])C([H])(C(=O)N([H])C1([H])c3c([H])c([H])c([H])c([H])c3C([H])([H])C([H])([H])C1([H])[H])C2([H])[H]

>  <smiles>  (15) 
[H]c1nc(N([H])C(=O)N2C([H])([H])C([H])([H])C([H])([H])C([H])(n3nc(-c4c([H])c([H])c(Oc5c([H])c([H])c(F)c([H])c5F)c([H])c4[H])c(C(=O)N([H])[H])c3N([H])[H])C2([H])[H])c(C2([H])C([H])([H])C2([H])[H])nc1C([H])([H])Oc1c([H])c([H])c2c(c1[H])C([H])([H])N(C(=O)C([H])(N([H])C(=O)C([H])(N([H])C([H])([H])[H])C([H])([H])[H])C(C([H])([H])[H])(C([H])([H])[H])C([H])([H])[H])C([H])(C(=O)N([H])C1([H])c3c([H])c([H])c([H])c([H])c3C([H])([H])C([H])([H])C1([H])[H])C2([H])[H]

$$$$
15:0:0
     RDKit          3D

 92101  0  0  1  0  0  0  0  0999 V2000
  -30.5000  -15.1360   20.3280 C   0  0  0  0  0  0  0  0  0  0  0  0
  -30.4470  -12.7310   19.4580 C   0  0  0  0  0  2  0  0  0  0  0  0
  -29.5420  -12.5610   18.2150 C   0  0  0  0  0  2  0  0  0  0  0  0
  -28.0770  -12.3330   18.6420 C   0  0  0  0  0  2  0  0  0  0  0  0
  -27.6190  -13.3210   19.7470 C   0  0  0  0  0  3  0  0  0  0  0  0
  -28.6500  -13.4360   20.8870 C   0  0  0  0  0  2  0  0  0  0  0  0
  -29.9090  -13.8680   20.2630 N   0  0  0  0  0  0  0  0  0  0  0  0
  -31.7270  -15.1550   20.1810 O   0  0  0  0  0  0  0  0  0  0  0  0
  -30.5420  -17.9370   21.9020 C   0  0  0  0  0  3  0  0  0  0  0  0
  -29.6510  -22.3890   21.8350 C   0  0  0  0  0  3  0  0  0  0  0  0
  -30.6510  -19.1430   22.6150 C   0  0  0  0  0  0  0  0  0  0  0  0
  -30.1380  -20.3600   22.1010 C   0  0  0  0  0  0  0  0  0  0  0  0
  -29.4850  -20.3860   20.8130 C   0  0  0  0  0  0  0  0  0  0  0  0
  -29.8800  -17.8420   20.6640 C   0  0  0  0  0  0  0  0  0  0  0  0
  -31.3040  -19.1310   23.9900 C   0  0  0  0  0  1  0  0  0  0  0  0
  -30.2060  -21.5870   22.7250 N   0  0  0  0  0  0  0  0  0  0  0  0
  -29.3520  -19.0910   20.1200 N   0  0  0  0  0  0  0  0  0  0  0  0
  -29.1670  -21.8950   20.6770 N   0  0  0  0  0  0  0  0  0  0  0  0
  -29.7150  -16.3530   20.2360 N   0  0  0  0  0  0  0  0  0  0  0  0
  -28.7730  -16.1500   19.9440 H   0  0  0  0  0  0  0  0  0  0  0  0
  -25.2330  -13.9130   20.4450 C   0  0  0  0  0  0  0  0  0  0  0  0
  -24.1590  -13.1470   20.8060 C   0  0  0  0  0  0  0  0  0  0  0  0
  -24.6200  -11.7970   20.8070 C   0  0  0  0  0  0  0  0  0  0  0  0
  -26.2770  -13.0290   20.2370 N   0  0  0  0  0  0  0  0  0  0  0  0
  -25.9160  -11.7500   20.5190 N   0  0  0  0  0  0  0  0  0  0  0  0
  -23.8860  -10.5400   21.0030 C   0  0  0  0  0  0  0  0  0  0  0  0
  -24.2990   -9.5820   21.9560 C   0  0  0  0  0  3  0  0  0  0  0  0
  -23.5650   -8.3910   22.1380 C   0  0  0  0  0  3  0  0  0  0  0  0
  -22.4000   -8.1500   21.3700 C   0  0  0  0  0  0  0  0  0  0  0  0
  -22.0050   -9.0950   20.4070 C   0  0  0  0  0  3  0  0  0  0  0  0
  -22.7420  -10.2770   20.2220 C   0  0  0  0  0  3  0  0  0  0  0  0
  -21.6400   -7.0080   21.4610 O   0  0  0  0  0  0  0  0  0  0  0  0
  -21.5730   -6.2810   22.6210 C   0  0  0  0  0  0  0  0  0  0  0  0
  -21.1460   -6.8540   23.8390 C   0  0  0  0  0  3  0  0  0  0  0  0
  -21.0210   -6.0520   24.9910 C   0  0  0  0  0  3  0  0  0  0  0  0
  -21.3170   -4.6760   24.9270 C   0  0  0  0  0  0  0  0  0  0  0  0
  -21.7410   -4.1030   23.7150 C   0  0  0  0  0  3  0  0  0  0  0  0
  -21.8640   -4.9020   22.5660 C   0  0  0  0  0  0  0  0  0  0  0  0
  -22.2510   -4.3400   21.3950 F   0  0  0  0  0  0  0  0  0  0  0  0
  -21.1930   -3.9050   26.0330 F   0  0  0  0  0  0  0  0  0  0  0  0
  -22.7590  -13.6340   21.0360 C   0  0  0  0  0  0  0  0  0  0  0  0
  -22.0070  -12.9640   21.9000 N   0  0  0  0  0  0  0  0  0  0  0  0
  -22.3390  -14.6510   20.4840 O   0  0  0  0  0  0  0  0  0  0  0  0
  -22.3550  -12.1480   22.3810 H   0  0  0  0  0  0  0  0  0  0  0  0
  -21.0650  -13.2790   22.0890 H   0  0  0  0  0  0  0  0  0  0  0  0
  -25.4000  -15.2800   20.2480 N   0  0  0  0  0  0  0  0  0  0  0  0
  -24.6180  -15.9250   20.2970 H   0  0  0  0  0  0  0  0  0  0  0  0
  -26.2500  -15.7170   19.9240 H   0  0  0  0  0  0  0  0  0  0  0  0
  -27.6940  -22.4330   18.6590 C   0  0  0  0  0  1  0  0  0  0  0  0
  -28.6450  -23.0570   19.6900 C   0  0  0  0  0  3  0  0  0  0  0  0
  -27.9560  -24.5770   20.2110 C   0  0  0  0  0  2  0  0  0  0  0  0
  -28.1840  -26.0980   19.8060 O   0  0  0  0  0  0  0  0  0  0  0  0
  -24.6120  -31.7940   23.0260 C   0  0  0  0  0  0  0  0  0  0  0  0
  -27.1410  -27.1150   19.8400 C   0  0  0  0  0  0  0  0  0  0  0  0
  -23.3960  -30.4470   21.3650 C   0  0  0  0  0  3  0  0  0  0  0  0
  -24.8240  -28.9020   19.8810 C   0  0  0  0  0  0  0  0  0  0  0  0
  -25.9500  -30.7000   21.1790 C   0  0  0  0  0  2  0  0  0  0  0  0
  -26.0150  -29.3190   20.4870 C   0  0  0  0  0  0  0  0  0  0  0  0
  -27.1750  -28.4450   20.4460 C   0  0  0  0  0  3  0  0  0  0  0  0
  -25.9220  -26.8140   19.1950 C   0  0  0  0  0  3  0  0  0  0  0  0
  -24.7940  -27.6650   19.2160 C   0  0  0  0  0  3  0  0  0  0  0  0
  -23.6040  -29.8100   19.9640 C   0  0  0  0  0  2  0  0  0  0  0  0
  -24.6750  -31.0010   21.9120 N   0  0  0  0  0  0  0  0  0  0  0  0
  -23.5320  -32.0650   23.5740 O   0  0  0  0  0  0  0  0  0  0  0  0
  -22.7240  -29.4140   22.3060 C   0  0  0  0  0  0  0  0  0  0  0  0
  -21.3890  -29.2750   22.2180 N   0  0  0  0  0  0  0  0  0  0  0  0
  -23.4060  -28.7410   23.0830 O   0  0  0  0  0  0  0  0  0  0  0  0
  -20.8940  -29.8650   21.5630 H   0  0  0  0  0  0  0  0  0  0  0  0
  -17.9980  -28.1440   22.8220 C   0  0  0  0  0  0  0  0  0  0  0  0
  -20.5730  -28.3230   22.9770 C   0  0  0  0  0  3  0  0  0  0  0  0
  -20.6050  -26.9210   22.3260 C   0  0  0  0  0  2  0  0  0  0  0  0
  -19.4490  -26.6840   21.3500 C   0  0  0  0  0  2  0  0  0  0  0  0
  -18.1030  -26.8310   22.0650 C   0  0  0  0  0  2  0  0  0  0  0  0
  -19.1580  -28.8530   23.2360 C   0  0  0  0  0  0  0  0  0  0  0  0
  -19.0020  -30.0850   23.9070 C   0  0  0  0  0  3  0  0  0  0  0  0
  -17.7210  -30.6090   24.1670 C   0  0  0  0  0  3  0  0  0  0  0  0
  -16.5780  -29.8960   23.7630 C   0  0  0  0  0  3  0  0  0  0  0  0
  -16.7170  -28.6660   23.0980 C   0  0  0  0  0  3  0  0  0  0  0  0
  -25.8970  -32.4150   23.6580 C   0  0  0  0  0  3  0  0  0  0  0  0
  -25.5760  -33.7940   24.0660 N   0  0  0  0  0  0  0  0  0  0  0  0
  -25.8960  -34.8930   23.3700 C   0  0  0  0  0  0  0  0  0  0  0  0
  -26.5590  -34.8520   22.3300 O   0  0  0  0  0  0  0  0  0  0  0  0
  -24.9880  -33.8970   24.8790 H   0  0  0  0  0  0  0  0  0  0  0  0
  -24.1630  -36.7030   23.1250 C   0  0  0  0  0  1  0  0  0  0  0  0
  -25.4050  -36.2510   23.9100 C   0  0  0  0  0  3  0  0  0  0  0  0
  -27.5380  -37.0900   24.7920 C   0  0  0  0  0  1  0  0  0  0  0  0
  -26.4340  -37.3110   23.8620 N   0  0  0  0  0  0  0  0  0  0  0  0
  -26.0260  -38.2200   24.0620 H   0  0  0  0  0  0  0  0  0  0  0  0
  -26.4410  -31.5930   24.8900 C   0  0  1  0  0  0  0  0  0  0  0  0
  -25.3710  -31.3040   25.9700 C   0  0  0  0  0  1  0  0  0  0  0  0
  -27.0210  -30.2350   24.4310 C   0  0  0  0  0  1  0  0  0  0  0  0
  -27.6030  -32.3630   25.5620 C   0  0  0  0  0  1  0  0  0  0  0  0
  2  7  1  0
  3  4  1  0
  3  2  1  0
  5  4  1  0
  5 24  1  0
  5  6  1  0
  7  1  1  0
  7  6  1  0
  8  1  2  0
  9 11  1  0
 10 16  2  0
 11 15  1  0
 12 11  2  0
 12 16  1  0
 13 12  1  0
 14  9  2  0
 17 14  1  0
 17 13  2  0
 18 13  1  0
 18 10  1  0
 19  1  1  0
 19 14  1  0
 20 19  1  0
 21 22  2  0
 22 23  1  0
 22 41  1  0
 23 26  1  0
 24 21  1  0
 24 25  1  0
 25 23  2  0
 26 27  1  0
 27 28  2  0
 29 32  1  0
 29 28  1  0
 30 29  2  0
 31 30  1  0
 31 26  2  0
 32 33  1  0
 33 34  1  0
 34 35  2  0
 36 35  1  0
 36 40  1  0
 37 36  2  0
 38 33  2  0
 38 37  1  0
 39 38  1  0
 41 42  1  0
 42 45  1  0
 42 44  1  0
 43 41  2  0
 46 47  1  0
 46 21  1  0
 48 46  1  0
 50 49  1  0
 50 51  1  0
 50 18  1  0
 52 54  1  0
 52 51  1  0
 53 64  2  0
 54 59  1  0
 55 63  1  0
 55 65  1  0
 56 62  1  0
 56 58  1  0
 57 63  1  0
 58 57  1  0
 59 58  2  0
 60 61  1  0
 60 54  2  0
 61 56  2  0
 62 55  1  0
 63 53  1  0
 65 67  2  0
 66 65  1  0
 68 66  1  0
 69 78  2  0
 69 74  1  0
 70 66  1  0
 70 74  1  0
 71 70  1  0
 72 73  1  0
 72 71  1  0
 73 69  1  0
 74 75  2  0
 75 76  1  0
 77 76  2  0
 78 77  1  0
 79 53  1  0
 79 80  1  0
 79 89  1  0
 80 83  1  0
 81 85  1  0
 81 80  1  0
 82 81  2  0
 85 84  1  0
 87 85  1  0
 87 88  1  0
 87 86  1  0
 89 92  1  1
 89 90  1  0
 91 89  1  0
M  ISO  4   1 100  19 100  51 101  52 101
M  END
>  <TORSDO>  (16) 
F 17

>  <SCORE>  (16) 
-14.860

>  <name>  (16) 
15

>  <ligand_id>  (16) 
15

>  <original_smiles>  (16) 
[H]c1c([H])c([H])c2c(c1[H])C([H])([H])C([H])([H])C([H])([H])C2([H])N([H])C(=O)C1([H])N(C(=O)C([H])(N([H])C(=O)C([H])(N([H])C([H])([H])[H])C([H])([H])[H])C(C([H])([H])[H])(C([H])([H])[H])C([H])([H])[H])C([H])([H])c2c([H])c(OC([H])([H])C([H])(n3c([H])nc4c(C([H])([H])[H])c([H])c(N([H])C(=O)N5C([H])([H])C([H])([H])C([H])([H])C([H])(n6nc(-c7c([H])c([H])c(Oc8c([H])c([H])c(F)c([H])c8F)c([H])c7[H])c(C(=O)N([H])[H])c6N([H])[H])C5([H])[H])nc43)C([H])([H])[H])c([H])c([H])c2C1([H])[H]

>  <smiles>  (16) 
[H]c1c([H])c([H])c2c(c1[H])C([H])([H])C([H])([H])C([H])([H])C2([H])N([H])C(=O)C1([H])N(C(=O)C([H])(N([H])C(=O)C([H])(N([H])C([H])([H])[H])C([H])([H])[H])C(C([H])([H])[H])(C([H])([H])[H])C([H])([H])[H])C([H])([H])c2c([H])c(OC([H])([H])C([H])(n3c([H])nc4c(C([H])([H])[H])c([H])c(N([H])C(=O)N5C([H])([H])C([H])([H])C([H])([H])C([H])(n6nc(-c7c([H])c([H])c(Oc8c([H])c([H])c(F)c([H])c8F)c([H])c7[H])c(C(=O)N([H])[H])c6N([H])[H])C5([H])[H])nc43)C([H])([H])[H])c([H])c([H])c2C1([H])[H]

$$$$
16:0:0
     RDKit          3D

 89 98  0  0  1  0  0  0  0  0999 V2000
  -29.3420  -20.0970   20.4120 C   0  0  0  0  0  0  0  0  0  0  0  0
  -29.9690  -21.5420   22.0630 C   0  0  0  0  0  0  0  0  0  0  0  0
  -28.7820  -22.6280   20.4290 C   0  0  0  0  0  0  0  0  0  0  0  0
  -30.6970  -21.6920   23.3820 C   0  0  0  0  0  1  0  0  0  0  0  0
  -29.9460  -20.2860   21.5800 N   0  0  0  0  0  4  0  0  0  0  0  0
  -28.7320  -21.2920   19.8270 N   0  0  0  0  0  0  0  0  0  0  0  0
  -29.4490  -22.6870   21.5810 N   0  0  0  0  0  2  0  0  0  0  0  0
  -30.4410  -15.5140   20.1490 C   0  0  0  0  0  0  0  0  0  0  0  0
  -30.4810  -13.0380   19.2670 C   0  0  0  0  0  2  0  0  0  0  0  0
  -29.5400  -12.7630   18.0620 C   0  0  0  0  0  2  0  0  0  0  0  0
  -28.1110  -12.4440   18.5360 C   0  0  0  0  0  2  0  0  0  0  0  0
  -27.6620  -13.3910   19.6750 C   0  0  0  0  0  3  0  0  0  0  0  0
  -28.7410  -13.5490   20.7740 C   0  0  0  0  0  2  0  0  0  0  0  0
  -29.9160  -14.1670   20.1190 N   0  0  0  0  0  0  0  0  0  0  0  0
  -31.6330  -15.5150   19.8030 O   0  0  0  0  0  0  0  0  0  0  0  0
  -27.9980  -17.8770   19.7790 C   0  0  0  0  0  2  0  0  0  0  0  0
  -28.3640  -16.9430   20.9450 C   0  0  0  0  0  2  0  0  0  0  0  0
  -29.4250  -18.4190   19.8000 C   0  0  0  0  0  3  0  0  0  0  0  0
  -29.6850  -16.8170   20.3450 N   0  0  0  0  0  0  0  0  0  0  0  0
  -25.2920  -13.8950   20.4720 C   0  0  0  0  0  0  0  0  0  0  0  0
  -24.2550  -13.0990   20.8640 C   0  0  0  0  0  0  0  0  0  0  0  0
  -24.7440  -11.7580   20.8070 C   0  0  0  0  0  0  0  0  0  0  0  0
  -26.3490  -13.0430   20.2060 N   0  0  0  0  0  0  0  0  0  0  0  0
  -26.0310  -11.7490   20.4700 N   0  0  0  0  0  0  0  0  0  0  0  0
  -24.0390  -10.4840   20.9940 C   0  0  0  0  0  0  0  0  0  0  0  0
  -24.4850   -9.5220   21.9260 C   0  0  0  0  0  3  0  0  0  0  0  0
  -23.7760   -8.3160   22.1060 C   0  0  0  0  0  3  0  0  0  0  0  0
  -22.6040   -8.0620   21.3540 C   0  0  0  0  0  0  0  0  0  0  0  0
  -22.1760   -9.0140   20.4110 C   0  0  0  0  0  3  0  0  0  0  0  0
  -22.8870  -10.2110   20.2300 C   0  0  0  0  0  3  0  0  0  0  0  0
  -21.8640   -6.9090   21.4440 O   0  0  0  0  0  0  0  0  0  0  0  0
  -21.8000   -6.1830   22.6060 C   0  0  0  0  0  0  0  0  0  0  0  0
  -21.3130   -6.7430   23.8080 C   0  0  0  0  0  3  0  0  0  0  0  0
  -21.1980   -5.9430   24.9620 C   0  0  0  0  0  3  0  0  0  0  0  0
  -21.5610   -4.5830   24.9150 C   0  0  0  0  0  0  0  0  0  0  0  0
  -22.0420   -4.0230   23.7190 C   0  0  0  0  0  3  0  0  0  0  0  0
  -22.1570   -4.8210   22.5670 C   0  0  0  0  0  0  0  0  0  0  0  0
  -22.6010   -4.2700   21.4110 F   0  0  0  0  0  0  0  0  0  0  0  0
  -21.4440   -3.8120   26.0210 F   0  0  0  0  0  0  0  0  0  0  0  0
  -22.8580  -13.5540   21.1660 C   0  0  0  0  0  0  0  0  0  0  0  0
  -22.1600  -12.8470   22.0470 N   0  0  0  0  0  0  0  0  0  0  0  0
  -22.3940  -14.5750   20.6580 O   0  0  0  0  0  0  0  0  0  0  0  0
  -22.5500  -12.0240   22.4810 H   0  0  0  0  0  0  0  0  0  0  0  0
  -21.2230  -13.1340   22.2910 H   0  0  0  0  0  0  0  0  0  0  0  0
  -25.4050  -15.2680   20.2860 N   0  0  0  0  0  0  0  0  0  0  0  0
  -24.6180  -15.8930   20.4190 H   0  0  0  0  0  0  0  0  0  0  0  0
  -26.2040  -15.7200   19.8640 H   0  0  0  0  0  0  0  0  0  0  0  0
  -27.9890  -24.1670   19.9630 C   0  0  0  0  0  2  0  0  0  0  0  0
  -28.1680  -25.7980   20.3670 O   0  0  0  0  0  0  0  0  0  0  0  0
  -24.6150  -31.8860   23.2590 C   0  0  0  0  0  0  0  0  0  0  0  0
  -27.1850  -26.9450   20.2600 C   0  0  0  0  0  0  0  0  0  0  0  0
  -23.4360  -30.4940   21.6070 C   0  0  0  0  0  3  0  0  0  0  0  0
  -24.8960  -28.8790   20.1920 C   0  0  0  0  0  0  0  0  0  0  0  0
  -26.0080  -30.6790   21.4940 C   0  0  0  0  0  2  0  0  0  0  0  0
  -26.0810  -29.2640   20.8330 C   0  0  0  0  0  0  0  0  0  0  0  0
  -27.2140  -28.3190   20.8430 C   0  0  0  0  0  3  0  0  0  0  0  0
  -25.9730  -26.7350   19.5600 C   0  0  0  0  0  3  0  0  0  0  0  0
  -24.8740  -27.6390   19.5340 C   0  0  0  0  0  3  0  0  0  0  0  0
  -23.6800  -29.8100   20.2330 C   0  0  0  0  0  2  0  0  0  0  0  0
  -24.7080  -31.0480   22.1730 N   0  0  0  0  0  0  0  0  0  0  0  0
  -23.5200  -32.1800   23.7670 O   0  0  0  0  0  0  0  0  0  0  0  0
  -22.7250  -29.5040   22.5670 C   0  0  0  0  0  0  0  0  0  0  0  0
  -21.3960  -29.3410   22.4240 N   0  0  0  0  0  0  0  0  0  0  0  0
  -23.3760  -28.8830   23.4090 O   0  0  0  0  0  0  0  0  0  0  0  0
  -20.9220  -29.8920   21.7210 H   0  0  0  0  0  0  0  0  0  0  0  0
  -18.0060  -28.1280   22.8920 C   0  0  0  0  0  0  0  0  0  0  0  0
  -20.5630  -28.4020   23.1850 C   0  0  0  0  0  3  0  0  0  0  0  0
  -20.6730  -26.9700   22.6120 C   0  0  0  0  0  2  0  0  0  0  0  0
  -19.5850  -26.6450   21.5850 C   0  0  0  0  0  2  0  0  0  0  0  0
  -18.1950  -26.7820   22.2140 C   0  0  0  0  0  2  0  0  0  0  0  0
  -19.1160  -28.8950   23.3340 C   0  0  0  0  0  0  0  0  0  0  0  0
  -18.8830  -30.1520   23.9330 C   0  0  0  0  0  3  0  0  0  0  0  0
  -17.5730  -30.6420   24.0920 C   0  0  0  0  0  3  0  0  0  0  0  0
  -16.4770  -29.8720   23.6640 C   0  0  0  0  0  3  0  0  0  0  0  0
  -16.6950  -28.6170   23.0700 C   0  0  0  0  0  3  0  0  0  0  0  0
  -25.8780  -32.5280   23.9090 C   0  0  0  0  0  3  0  0  0  0  0  0
  -25.5660  -33.9360   24.2190 N   0  0  0  0  0  0  0  0  0  0  0  0
  -25.9120  -34.9860   23.4620 C   0  0  0  0  0  0  0  0  0  0  0  0
  -26.5880  -34.8710   22.4370 O   0  0  0  0  0  0  0  0  0  0  0  0
  -24.9630  -34.0980   25.0120 H   0  0  0  0  0  0  0  0  0  0  0  0
  -24.2000  -36.7980   23.0980 C   0  0  0  0  0  1  0  0  0  0  0  0
  -25.4370  -36.3840   23.9100 C   0  0  0  0  0  3  0  0  0  0  0  0
  -27.5740  -37.2660   24.7420 C   0  0  0  0  0  1  0  0  0  0  0  0
  -26.4780  -37.4290   23.7910 N   0  0  0  0  0  0  0  0  0  0  0  0
  -26.0790  -38.3540   23.9200 H   0  0  0  0  0  0  0  0  0  0  0  0
  -26.3480  -31.7790   25.2170 C   0  0  1  0  0  0  0  0  0  0  0  0
  -25.2220  -31.5760   26.2580 C   0  0  0  0  0  1  0  0  0  0  0  0
  -26.9260  -30.3860   24.8810 C   0  0  0  0  0  1  0  0  0  0  0  0
  -27.4890  -32.5740   25.8940 C   0  0  0  0  0  1  0  0  0  0  0  0
  1  5  2  0
  2  4  1  0
  3  7  1  0
  5  2  2  0
  6  1  1  0
  6  3  2  0
  7  2  1  0
  8 19  1  0
  9 14  1  0
 10 11  1  0
 10  9  1  0
 12 11  1  0
 12 23  1  0
 12 13  1  0
 14  8  1  0
 14 13  1  0
 15  8  2  0
 16 18  1  0
 16 17  1  0
 18 19  1  0
 18  1  1  0
 19 17  1  0
 20 21  2  0
 21 40  1  0
 22 21  1  0
 22 25  1  0
 23 24  1  0
 23 20  1  0
 24 22  2  0
 25 26  1  0
 26 27  2  0
 28 31  1  0
 28 27  1  0
 29 28  2  0
 30 29  1  0
 30 25  2  0
 31 32  1  0
 32 33  1  0
 33 34  2  0
 35 34  1  0
 35 39  1  0
 36 35  2  0
 37 32  2  0
 37 36  1  0
 38 37  1  0
 40 41  1  0
 41 44  1  0
 41 43  1  0
 42 40  2  0
 45 46  1  0
 45 20  1  0
 47 45  1  0
 48 49  1  0
 48  3  1  0
 50 61  2  0
 51 49  1  0
 51 56  1  0
 52 60  1  0
 52 62  1  0
 53 59  1  0
 53 55  1  0
 54 60  1  0
 55 56  2  0
 55 54  1  0
 57 51  2  0
 58 57  1  0
 58 53  2  0
 59 52  1  0
 60 50  1  0
 62 64  2  0
 63 62  1  0
 65 63  1  0
 66 75  2  0
 66 71  1  0
 67 63  1  0
 67 71  1  0
 68 67  1  0
 69 70  1  0
 69 68  1  0
 70 66  1  0
 71 72  2  0
 72 73  1  0
 74 73  2  0
 75 74  1  0
 76 50  1  0
 76 77  1  0
 76 86  1  0
 77 80  1  0
 78 82  1  0
 78 77  1  0
 79 78  2  0
 82 81  1  0
 84 82  1  0
 84 85  1  0
 84 83  1  0
 86 89  1  1
 86 87  1  0
 88 86  1  0
M  ISO  4   8 100  19 100  48 101  49 101
M  END
>  <TORSDO>  (17) 
F 17

>  <SCORE>  (17) 
-16.877

>  <name>  (17) 
16

>  <ligand_id>  (17) 
16

>  <original_smiles>  (17) 
[H]c1c([H])c([H])c2c(c1[H])C([H])([H])C([H])([H])C([H])([H])C2([H])N([H])C(=O)C1([H])N(C(=O)C([H])(N([H])C(=O)C([H])(N([H])C([H])([H])[H])C([H])([H])[H])C(C([H])([H])[H])(C([H])([H])[H])C([H])([H])[H])C([H])([H])c2c([H])c(OC([H])([H])c3nc(C([H])([H])[H])nc(C4([H])N(C(=O)N5C([H])([H])C([H])([H])C([H])([H])C([H])(n6nc(-c7c([H])c([H])c(Oc8c([H])c([H])c(F)c([H])c8F)c([H])c7[H])c(C(=O)N([H])[H])c6N([H])[H])C5([H])[H])C([H])([H])C4([H])[H])n3)c([H])c([H])c2C1([H])[H]

>  <smiles>  (17) 
[H]c1c([H])c([H])c2c(c1[H])C([H])([H])C([H])([H])C([H])([H])C2([H])N([H])C(=O)C1([H])N(C(=O)C([H])(N([H])C(=O)C([H])(N([H])C([H])([H])[H])C([H])([H])[H])C(C([H])([H])[H])(C([H])([H])[H])C([H])([H])[H])C([H])([H])c2c([H])c(OC([H])([H])c3nc(C([H])([H])[H])nc(C4([H])N(C(=O)N5C([H])([H])C([H])([H])C([H])([H])C([H])(n6nc(-c7c([H])c([H])c(Oc8c([H])c([H])c(F)c([H])c8F)c([H])c7[H])c(C(=O)N([H])[H])c6N([H])[H])C5([H])[H])C([H])([H])C4([H])[H])n3)c([H])c([H])c2C1([H])[H]

$$$$
17:0:0
     RDKit          3D

 91 99  0  0  1  0  0  0  0  0999 V2000
  -30.0670  -20.8820   21.0620 C   0  0  0  0  0  0  0  0  0  0  0  0
  -27.8590  -21.5400   19.7450 C   0  0  0  0  0  0  0  0  0  0  0  0
  -28.5130  -22.7250   20.3540 C   0  0  0  0  0  0  0  0  0  0  0  0
  -29.4270  -19.7140   20.4320 C   0  0  0  0  0  0  0  0  0  0  0  0
  -31.3580  -20.6820   21.8330 C   0  0  0  0  0  1  0  0  0  0  0  0
  -29.6330  -22.2480   21.0380 N   0  0  0  0  0  0  0  0  0  0  0  0
  -28.3040  -20.1800   19.7630 N   0  0  0  0  0  0  0  0  0  0  0  0
  -26.5900  -21.4110   17.5200 C   0  0  0  0  0  1  0  0  0  0  0  0
  -26.5060  -21.6320   19.0470 C   0  0  0  0  0  2  0  0  0  0  0  0
  -30.7560  -18.2200   18.7870 C   0  0  0  0  0  1  0  0  0  0  0  0
  -30.1460  -18.1340   20.1960 C   0  0  0  0  0  0  0  0  0  0  0  0
  -30.4290  -15.2540   20.2730 C   0  0  0  0  0  0  0  0  0  0  0  0
  -30.3450  -12.8470   19.3310 C   0  0  0  0  0  2  0  0  0  0  0  0
  -29.4150  -12.6930   18.1040 C   0  0  0  0  0  2  0  0  0  0  0  0
  -27.9580  -12.4510   18.5380 C   0  0  0  0  0  2  0  0  0  0  0  0
  -27.5340  -13.3730   19.7090 C   0  0  0  0  0  3  0  0  0  0  0  0
  -28.5960  -13.4680   20.8250 C   0  0  0  0  0  2  0  0  0  0  0  0
  -29.8290  -13.9690   20.1980 N   0  0  0  0  0  0  0  0  0  0  0  0
  -31.6440  -15.2290   20.0300 O   0  0  0  0  0  0  0  0  0  0  0  0
  -29.7210  -16.5440   20.4020 N   0  0  0  0  0  4  0  0  0  0  0  0
  -28.7400  -16.4230   20.6070 H   0  0  0  0  0  0  0  0  0  0  0  0
  -25.1640  -13.9170   20.4760 C   0  0  0  0  0  0  0  0  0  0  0  0
  -24.1070  -13.1350   20.8470 C   0  0  0  0  0  0  0  0  0  0  0  0
  -24.5810  -11.7870   20.8120 C   0  0  0  0  0  0  0  0  0  0  0  0
  -26.2090  -13.0480   20.2230 N   0  0  0  0  0  0  0  0  0  0  0  0
  -25.8710  -11.7590   20.4960 N   0  0  0  0  0  0  0  0  0  0  0  0
  -23.8600  -10.5190   21.0010 C   0  0  0  0  0  0  0  0  0  0  0  0
  -24.2890   -9.5560   21.9400 C   0  0  0  0  0  3  0  0  0  0  0  0
  -23.5650   -8.3570   22.1180 C   0  0  0  0  0  3  0  0  0  0  0  0
  -22.3990   -8.1110   21.3550 C   0  0  0  0  0  0  0  0  0  0  0  0
  -21.9910   -9.0610   20.4030 C   0  0  0  0  0  3  0  0  0  0  0  0
  -22.7150  -10.2520   20.2240 C   0  0  0  0  0  3  0  0  0  0  0  0
  -21.6450   -6.9660   21.4440 O   0  0  0  0  0  0  0  0  0  0  0  0
  -21.5770   -6.2350   22.6010 C   0  0  0  0  0  0  0  0  0  0  0  0
  -21.0950   -6.7920   23.8060 C   0  0  0  0  0  3  0  0  0  0  0  0
  -20.9780   -5.9870   24.9550 C   0  0  0  0  0  3  0  0  0  0  0  0
  -21.3320   -4.6250   24.9010 C   0  0  0  0  0  0  0  0  0  0  0  0
  -21.8050   -4.0670   23.7000 C   0  0  0  0  0  3  0  0  0  0  0  0
  -21.9230   -4.8700   22.5530 C   0  0  0  0  0  0  0  0  0  0  0  0
  -22.3610   -4.3220   21.3940 F   0  0  0  0  0  0  0  0  0  0  0  0
  -21.2090   -3.8490   26.0030 F   0  0  0  0  0  0  0  0  0  0  0  0
  -22.7070  -13.6030   21.1150 C   0  0  0  0  0  0  0  0  0  0  0  0
  -21.9780  -12.9010   21.9780 N   0  0  0  0  0  0  0  0  0  0  0  0
  -22.2660  -14.6240   20.5910 O   0  0  0  0  0  0  0  0  0  0  0  0
  -22.3510  -12.0770   22.4240 H   0  0  0  0  0  0  0  0  0  0  0  0
  -21.0360  -13.1960   22.1950 H   0  0  0  0  0  0  0  0  0  0  0  0
  -25.3210  -15.2900   20.3030 N   0  0  0  0  0  0  0  0  0  0  0  0
  -24.5600  -15.9480   20.4300 H   0  0  0  0  0  0  0  0  0  0  0  0
  -26.1650  -15.7250   19.9520 H   0  0  0  0  0  0  0  0  0  0  0  0
  -27.8060  -24.3200   20.5880 C   0  0  0  0  0  2  0  0  0  0  0  0
  -28.1930  -25.8920   20.3180 O   0  0  0  0  0  0  0  0  0  0  0  0
  -24.6310  -31.9000   23.2200 C   0  0  0  0  0  0  0  0  0  0  0  0
  -27.1940  -26.9970   20.2780 C   0  0  0  0  0  0  0  0  0  0  0  0
  -23.4430  -30.4870   21.5930 C   0  0  0  0  0  3  0  0  0  0  0  0
  -24.8970  -28.8710   20.1940 C   0  0  0  0  0  0  0  0  0  0  0  0
  -26.0080  -30.7020   21.4490 C   0  0  0  0  0  2  0  0  0  0  0  0
  -26.0810  -29.2850   20.8180 C   0  0  0  0  0  0  0  0  0  0  0  0
  -27.2270  -28.3660   20.8380 C   0  0  0  0  0  3  0  0  0  0  0  0
  -25.9840  -26.7450   19.5930 C   0  0  0  0  0  3  0  0  0  0  0  0
  -24.8720  -27.6230   19.5600 C   0  0  0  0  0  3  0  0  0  0  0  0
  -23.6750  -29.7880   20.2250 C   0  0  0  0  0  2  0  0  0  0  0  0
  -24.7150  -31.0570   22.1420 N   0  0  0  0  0  0  0  0  0  0  0  0
  -23.5400  -32.1920   23.7360 O   0  0  0  0  0  0  0  0  0  0  0  0
  -22.7450  -29.5000   22.5670 C   0  0  0  0  0  0  0  0  0  0  0  0
  -21.4150  -29.3370   22.4420 N   0  0  0  0  0  0  0  0  0  0  0  0
  -23.4080  -28.8820   23.4050 O   0  0  0  0  0  0  0  0  0  0  0  0
  -20.9320  -29.8850   21.7440 H   0  0  0  0  0  0  0  0  0  0  0  0
  -18.0260  -28.1520   22.9640 C   0  0  0  0  0  0  0  0  0  0  0  0
  -20.5870  -28.4090   23.2210 C   0  0  0  0  0  3  0  0  0  0  0  0
  -20.6820  -26.9730   22.6540 C   0  0  0  0  0  2  0  0  0  0  0  0
  -19.5750  -26.6470   21.6450 C   0  0  0  0  0  2  0  0  0  0  0  0
  -18.1950  -26.8000   22.2910 C   0  0  0  0  0  2  0  0  0  0  0  0
  -19.1470  -28.9140   23.3850 C   0  0  0  0  0  0  0  0  0  0  0  0
  -18.9300  -30.1780   23.9750 C   0  0  0  0  0  3  0  0  0  0  0  0
  -17.6270  -30.6790   24.1460 C   0  0  0  0  0  3  0  0  0  0  0  0
  -16.5190  -29.9150   23.7400 C   0  0  0  0  0  3  0  0  0  0  0  0
  -16.7190  -28.6530   23.1550 C   0  0  0  0  0  3  0  0  0  0  0  0
  -25.8990  -32.5510   23.8510 C   0  0  0  0  0  3  0  0  0  0  0  0
  -26.4000  -31.7980   25.1440 C   0  0  1  0  0  0  0  0  0  0  0  0
  -25.2950  -31.5780   26.2040 C   0  0  0  0  0  1  0  0  0  0  0  0
  -26.9890  -30.4160   24.7820 C   0  0  0  0  0  1  0  0  0  0  0  0
  -27.5460  -32.6010   25.8080 C   0  0  0  0  0  1  0  0  0  0  0  0
  -25.5800  -33.9520   24.1720 N   0  0  0  0  0  0  0  0  0  0  0  0
  -25.9110  -35.0080   23.4160 C   0  0  0  0  0  0  0  0  0  0  0  0
  -26.5790  -34.9050   22.3830 O   0  0  0  0  0  0  0  0  0  0  0  0
  -24.9960  -34.1070   24.9820 H   0  0  0  0  0  0  0  0  0  0  0  0
  -24.1840  -36.8070   23.0570 C   0  0  0  0  0  1  0  0  0  0  0  0
  -25.4220  -36.3980   23.8730 C   0  0  0  0  0  3  0  0  0  0  0  0
  -27.5540  -37.2810   24.7120 C   0  0  0  0  0  1  0  0  0  0  0  0
  -26.4550  -37.4520   23.7660 N   0  0  0  0  0  0  0  0  0  0  0  0
  -26.0450  -38.3690   23.9190 H   0  0  0  0  0  0  0  0  0  0  0  0
  1  5  1  0
  2  7  2  0
  2  3  1  0
  3 50  1  0
  3  6  2  0
  4  1  2  0
  6  1  1  0
  7  4  1  0
  8  9  1  0
  9  2  1  0
 10 11  1  0
 11 20  2  0
 11  4  1  0
 12 20  1  0
 13 18  1  0
 14 15  1  0
 14 13  1  0
 16 15  1  0
 16 25  1  0
 16 17  1  0
 18 12  1  0
 18 17  1  0
 19 12  2  0
 20 21  1  0
 22 23  2  0
 23 42  1  0
 24 23  1  0
 24 27  1  0
 25 22  1  0
 25 26  1  0
 26 24  2  0
 27 28  1  0
 28 29  2  0
 30 33  1  0
 30 29  1  0
 31 30  2  0
 32 31  1  0
 32 27  2  0
 33 34  1  0
 34 35  1  0
 35 36  2  0
 37 36  1  0
 37 41  1  0
 38 37  2  0
 39 34  2  0
 39 38  1  0
 40 39  1  0
 42 43  1  0
 43 46  1  0
 43 45  1  0
 44 42  2  0
 47 48  1  0
 47 22  1  0
 49 47  1  0
 51 50  1  0
 52 63  2  0
 53 51  1  0
 53 58  1  0
 54 62  1  0
 54 64  1  0
 55 61  1  0
 55 57  1  0
 56 62  1  0
 57 58  2  0
 57 56  1  0
 59 53  2  0
 60 59  1  0
 60 55  2  0
 61 54  1  0
 62 52  1  0
 64 66  2  0
 65 64  1  0
 67 65  1  0
 68 77  2  0
 68 73  1  0
 69 65  1  0
 69 73  1  0
 70 69  1  0
 71 72  1  0
 71 70  1  0
 72 68  1  0
 73 74  2  0
 74 75  1  0
 76 75  2  0
 77 76  1  0
 78 52  1  0
 78 83  1  0
 78 79  1  0
 79 82  1  1
 79 80  1  0
 81 79  1  0
 83 86  1  0
 84 88  1  0
 84 83  1  0
 85 84  2  0
 88 87  1  0
 90 88  1  0
 90 91  1  0
 90 89  1  0
M  ISO  4  12 100  20 100  50 101  51 101
M  END
>  <TORSDO>  (18) 
F 19

>  <SCORE>  (18) 
-15.258

>  <name>  (18) 
17

>  <ligand_id>  (18) 
17

>  <original_smiles>  (18) 
[H]c1c([H])c([H])c2c(c1[H])C([H])([H])C([H])([H])C([H])([H])C2([H])N([H])C(=O)C1([H])N(C(=O)C([H])(N([H])C(=O)C([H])(N([H])C([H])([H])[H])C([H])([H])[H])C(C([H])([H])[H])(C([H])([H])[H])C([H])([H])[H])C([H])([H])c2c([H])c(OC([H])([H])c3nc(C([H])([H])[H])c(C([H])(N([H])C(=O)N4C([H])([H])C([H])([H])C([H])([H])C([H])(n5nc(-c6c([H])c([H])c(Oc7c([H])c([H])c(F)c([H])c7F)c([H])c6[H])c(C(=O)N([H])[H])c5N([H])[H])C4([H])[H])C([H])([H])[H])nc3C([H])([H])C([H])([H])[H])c([H])c([H])c2C1([H])[H]

>  <smiles>  (18) 
[H]c1c([H])c([H])c2c(c1[H])C([H])([H])C([H])([H])C([H])([H])C2([H])N([H])C(=O)C1([H])N(C(=O)C([H])(N([H])C(=O)C([H])(N([H])C([H])([H])[H])C([H])([H])[H])C(C([H])([H])[H])(C([H])([H])[H])C([H])([H])[H])C([H])([H])c2c([H])c(OC([H])([H])c3nc(C([H])([H])[H])c(C([H])(N([H])C(=O)N4C([H])([H])C([H])([H])C([H])([H])C([H])(n5nc(-c6c([H])c([H])c(Oc7c([H])c([H])c(F)c([H])c7F)c([H])c6[H])c(C(=O)N([H])[H])c5N([H])[H])C4([H])[H])C([H])([H])[H])nc3C([H])([H])C([H])([H])[H])c([H])c([H])c2C1([H])[H]

$$$$
18:0:0
     RDKit          3D

 93102  0  0  1  0  0  0  0  0999 V2000
  -26.8750  -24.7160   21.2910 C   0  0  0  0  0  0  0  0  0  0  0  0
  -26.5440  -23.3440   21.3660 C   0  0  0  0  0  0  0  0  0  0  0  0
  -27.9420  -25.1100   20.4390 C   0  0  0  0  0  0  0  0  0  0  0  0
  -28.4570  -22.6890   20.2400 C   0  0  0  0  0  0  0  0  0  0  0  0
  -26.1100  -25.6970   22.1800 C   0  0  0  0  0  1  0  0  0  0  0  0
  -25.2700  -22.8680   22.0580 C   0  0  0  0  0  1  0  0  0  0  0  0
  -27.3230  -22.3640   20.8560 N   0  0  0  0  0  0  0  0  0  0  0  0
  -28.7480  -24.0360   19.9830 N   0  0  0  0  0  0  0  0  0  0  0  0
  -28.2380  -26.5240   20.1270 O   0  0  0  0  0  0  0  0  0  0  0  0
  -24.6840  -31.9590   23.5230 C   0  0  0  0  0  0  0  0  0  0  0  0
  -27.2380  -27.5580   20.0900 C   0  0  0  0  0  0  0  0  0  0  0  0
  -23.4650  -30.6750   21.8110 C   0  0  0  0  0  3  0  0  0  0  0  0
  -24.9030  -29.2580   20.2180 C   0  0  0  0  0  0  0  0  0  0  0  0
  -26.0060  -31.0030   21.6050 C   0  0  0  0  0  2  0  0  0  0  0  0
  -26.0820  -29.6710   20.8500 C   0  0  0  0  0  0  0  0  0  0  0  0
  -27.2530  -28.8330   20.7790 C   0  0  0  0  0  3  0  0  0  0  0  0
  -26.0560  -27.2780   19.3720 C   0  0  0  0  0  3  0  0  0  0  0  0
  -24.9020  -28.0810   19.4630 C   0  0  0  0  0  3  0  0  0  0  0  0
  -23.6570  -30.1140   20.3780 C   0  0  0  0  0  2  0  0  0  0  0  0
  -24.7390  -31.2310   22.3660 N   0  0  0  0  0  0  0  0  0  0  0  0
  -23.6110  -32.1780   24.0990 O   0  0  0  0  0  0  0  0  0  0  0  0
  -22.8340  -29.5820   22.7090 C   0  0  0  0  0  0  0  0  0  0  0  0
  -21.5150  -29.3620   22.5660 N   0  0  0  0  0  0  0  0  0  0  0  0
  -23.5320  -28.9370   23.4970 O   0  0  0  0  0  0  0  0  0  0  0  0
  -21.0150  -29.9200   21.8880 H   0  0  0  0  0  0  0  0  0  0  0  0
  -18.1970  -27.9800   22.9650 C   0  0  0  0  0  0  0  0  0  0  0  0
  -20.7350  -28.3510   23.2830 C   0  0  0  0  0  3  0  0  0  0  0  0
  -20.9170  -26.9590   22.6470 C   0  0  0  0  0  2  0  0  0  0  0  0
  -19.8470  -26.6210   21.6030 C   0  0  0  0  0  2  0  0  0  0  0  0
  -18.4510  -26.6730   22.2290 C   0  0  0  0  0  2  0  0  0  0  0  0
  -19.2710  -28.7730   23.4470 C   0  0  0  0  0  0  0  0  0  0  0  0
  -18.9790  -29.9900   24.1010 C   0  0  0  0  0  3  0  0  0  0  0  0
  -17.6500  -30.4160   24.2760 C   0  0  0  0  0  3  0  0  0  0  0  0
  -16.5910  -29.6160   23.8150 C   0  0  0  0  0  3  0  0  0  0  0  0
  -16.8640  -28.4030   23.1600 C   0  0  0  0  0  3  0  0  0  0  0  0
  -25.9710  -32.5680   24.1590 C   0  0  0  0  0  3  0  0  0  0  0  0
  -25.6610  -33.9550   24.5410 N   0  0  0  0  0  0  0  0  0  0  0  0
  -25.9910  -35.0380   23.8250 C   0  0  0  0  0  0  0  0  0  0  0  0
  -26.6560  -34.9740   22.7850 O   0  0  0  0  0  0  0  0  0  0  0  0
  -25.0640  -34.0780   25.3480 H   0  0  0  0  0  0  0  0  0  0  0  0
  -24.2690  -36.8540   23.5520 C   0  0  0  0  0  1  0  0  0  0  0  0
  -25.5150  -36.4110   24.3400 C   0  0  0  0  0  3  0  0  0  0  0  0
  -27.6520  -37.2630   25.2010 C   0  0  0  0  0  1  0  0  0  0  0  0
  -26.5520  -37.4650   24.2610 N   0  0  0  0  0  0  0  0  0  0  0  0
  -26.1480  -38.3830   24.4310 H   0  0  0  0  0  0  0  0  0  0  0  0
  -26.4860  -31.7550   25.4100 C   0  0  1  0  0  0  0  0  0  0  0  0
  -25.3920  -31.4850   26.4670 C   0  0  0  0  0  1  0  0  0  0  0  0
  -27.0680  -30.3900   24.9770 C   0  0  0  0  0  1  0  0  0  0  0  0
  -27.6370  -32.5230   26.1010 C   0  0  0  0  0  1  0  0  0  0  0  0
  -29.5370  -21.4500   20.1050 C   0  0  0  0  0  2  0  0  0  0  0  0
  -30.6560  -15.3710   19.8290 C   0  0  0  0  0  0  0  0  0  0  0  0
  -30.4290  -12.9960   18.9700 C   0  0  0  0  0  2  0  0  0  0  0  0
  -29.4390  -12.9090   17.7890 C   0  0  0  0  0  2  0  0  0  0  0  0
  -28.0130  -12.6960   18.3190 C   0  0  0  0  0  2  0  0  0  0  0  0
  -27.6590  -13.6810   19.4620 C   0  0  0  0  0  3  0  0  0  0  0  0
  -28.7660  -13.7610   20.5340 C   0  0  0  0  0  2  0  0  0  0  0  0
  -29.9940  -14.1420   19.8340 N   0  0  0  0  0  0  0  0  0  0  0  0
  -31.8520  -15.3160   19.5180 O   0  0  0  0  0  0  0  0  0  0  0  0
  -28.8660  -17.3070   20.4720 C   0  0  0  0  0  2  0  0  0  0  0  0
  -30.4570  -17.7050   18.7280 C   0  0  0  0  0  2  0  0  0  0  0  0
  -28.8780  -18.9180   20.8040 C   0  0  0  0  0  2  0  0  0  0  0  0
  -30.5350  -19.2510   19.1530 C   0  0  0  0  0  2  0  0  0  0  0  0
  -30.0010  -16.6520   19.7130 N   0  0  0  0  0  0  0  0  0  0  0  0
  -29.3060  -19.9160   19.7360 N   0  0  2  0  0  4  0  0  0  0  0  0
  -28.5940  -19.9410   19.0190 H   0  0  0  0  0  0  0  0  0  0  0  0
  -25.3380  -14.2960   20.3360 C   0  0  0  0  0  0  0  0  0  0  0  0
  -24.2780  -13.5380   20.7480 C   0  0  0  0  0  0  0  0  0  0  0  0
  -24.7090  -12.1780   20.6730 C   0  0  0  0  0  0  0  0  0  0  0  0
  -26.3480  -13.4010   20.0310 N   0  0  0  0  0  0  0  0  0  0  0  0
  -25.9810  -12.1190   20.2950 N   0  0  0  0  0  0  0  0  0  0  0  0
  -23.9650  -10.9320   20.8780 C   0  0  0  0  0  0  0  0  0  0  0  0
  -24.3480  -10.0040   21.8720 C   0  0  0  0  0  3  0  0  0  0  0  0
  -23.6070   -8.8190   22.0690 C   0  0  0  0  0  3  0  0  0  0  0  0
  -22.4690   -8.5550   21.2700 C   0  0  0  0  0  0  0  0  0  0  0  0
  -22.1010   -9.4750   20.2730 C   0  0  0  0  0  3  0  0  0  0  0  0
  -22.8420  -10.6500   20.0760 C   0  0  0  0  0  3  0  0  0  0  0  0
  -21.7000   -7.4200   21.3710 O   0  0  0  0  0  0  0  0  0  0  0  0
  -21.4910   -6.7950   22.5740 C   0  0  0  0  0  0  0  0  0  0  0  0
  -20.8900   -7.4600   23.6650 C   0  0  0  0  0  3  0  0  0  0  0  0
  -20.6340   -6.7610   24.8610 C   0  0  0  0  0  3  0  0  0  0  0  0
  -20.9680   -5.3970   24.9650 C   0  0  0  0  0  0  0  0  0  0  0  0
  -21.5640   -4.7340   23.8790 C   0  0  0  0  0  3  0  0  0  0  0  0
  -21.8220   -5.4300   22.6860 C   0  0  0  0  0  0  0  0  0  0  0  0
  -22.3760   -4.7800   21.6330 F   0  0  0  0  0  0  0  0  0  0  0  0
  -20.7170   -4.7230   26.1110 F   0  0  0  0  0  0  0  0  0  0  0  0
  -22.9110  -14.0430   21.0970 C   0  0  0  0  0  0  0  0  0  0  0  0
  -22.2170  -13.3540   21.9960 N   0  0  0  0  0  0  0  0  0  0  0  0
  -22.4730  -15.0840   20.6120 O   0  0  0  0  0  0  0  0  0  0  0  0
  -22.5850  -12.5070   22.4030 H   0  0  0  0  0  0  0  0  0  0  0  0
  -21.3000  -13.6750   22.2680 H   0  0  0  0  0  0  0  0  0  0  0  0
  -25.5210  -15.6650   20.1600 N   0  0  0  0  0  0  0  0  0  0  0  0
  -24.7780  -16.3390   20.3070 H   0  0  0  0  0  0  0  0  0  0  0  0
  -26.3380  -16.0640   19.7210 H   0  0  0  0  0  0  0  0  0  0  0  0
  1  2  2  0
  1  5  1  0
  2  6  1  0
  3  1  1  0
  4  7  2  0
  7  2  1  0
  8  4  1  0
  8  3  2  0
  9  3  1  0
 10 21  2  0
 11  9  1  0
 11 16  1  0
 12 20  1  0
 12 22  1  0
 13 19  1  0
 13 15  1  0
 14 20  1  0
 15 14  1  0
 16 15  2  0
 17 18  1  0
 17 11  2  0
 18 13  2  0
 19 12  1  0
 20 10  1  0
 22 24  2  0
 23 22  1  0
 25 23  1  0
 26 35  2  0
 26 31  1  0
 27 23  1  0
 27 31  1  0
 28 27  1  0
 29 30  1  0
 29 28  1  0
 30 26  1  0
 31 32  2  0
 32 33  1  0
 34 33  2  0
 35 34  1  0
 36 10  1  0
 36 37  1  0
 36 46  1  0
 37 40  1  0
 38 42  1  0
 38 37  1  0
 39 38  2  0
 42 41  1  0
 44 42  1  0
 44 45  1  0
 44 43  1  0
 46 49  1  1
 46 47  1  0
 48 46  1  0
 50  4  1  0
 51 57  1  0
 52 57  1  0
 53 54  1  0
 53 52  1  0
 55 54  1  0
 55 69  1  0
 55 56  1  0
 57 56  1  0
 58 51  2  0
 59 61  1  0
 60 62  1  0
 60 63  1  0
 62 64  1  0
 63 51  1  0
 63 59  1  0
 64 50  1  0
 64 61  1  0
 64 65  1  6
 66 67  2  0
 67 86  1  0
 68 67  1  0
 68 71  1  0
 69 70  1  0
 69 66  1  0
 70 68  2  0
 71 72  1  0
 72 73  2  0
 74 77  1  0
 74 73  1  0
 75 74  2  0
 76 75  1  0
 76 71  2  0
 77 78  1  0
 78 83  2  0
 78 79  1  0
 79 80  2  0
 80 81  1  0
 81 85  1  0
 82 81  2  0
 83 82  1  0
 84 83  1  0
 86 87  1  0
 87 90  1  0
 87 89  1  0
 88 86  2  0
 91 92  1  0
 91 66  1  0
 93 91  1  0
M  ISO  4   3 101   9 101  51 100  63 100
M  END
>  <TORSDO>  (19) 
F 17

>  <SCORE>  (19) 
-12.827

>  <name>  (19) 
18

>  <ligand_id>  (19) 
18

>  <original_smiles>  (19) 
[H]c1c([H])c([H])c2c(c1[H])C([H])([H])C([H])([H])C([H])([H])C2([H])N([H])C(=O)C1([H])N(C(=O)C([H])(N([H])C(=O)C([H])(N([H])C([H])([H])[H])C([H])([H])[H])C(C([H])([H])[H])(C([H])([H])[H])C([H])([H])[H])C([H])([H])c2c([H])c(Oc3nc(C([H])([H])[N+]4([H])C([H])([H])C([H])([H])N(C(=O)N5C([H])([H])C([H])([H])C([H])([H])C([H])(n6nc(-c7c([H])c([H])c(Oc8c([H])c([H])c(F)c([H])c8F)c([H])c7[H])c(C(=O)N([H])[H])c6N([H])[H])C5([H])[H])C([H])([H])C4([H])[H])nc(C([H])([H])[H])c3C([H])([H])[H])c([H])c([H])c2C1([H])[H]

>  <smiles>  (19) 
[H]c1c([H])c([H])c2c(c1[H])C([H])([H])C([H])([H])C([H])([H])C2([H])N([H])C(=O)C1([H])N(C(=O)C([H])(N([H])C(=O)C([H])(N([H])C([H])([H])[H])C([H])([H])[H])C(C([H])([H])[H])(C([H])([H])[H])C([H])([H])[H])C([H])([H])c2c([H])c(Oc3nc(C([H])([H])[N+]4([H])C([H])([H])C([H])([H])N(C(=O)N5C([H])([H])C([H])([H])C([H])([H])C([H])(n6nc(-c7c([H])c([H])c(Oc8c([H])c([H])c(F)c([H])c8F)c([H])c7[H])c(C(=O)N([H])[H])c6N([H])[H])C5([H])[H])C([H])([H])C4([H])[H])nc(C([H])([H])[H])c3C([H])([H])[H])c([H])c([H])c2C1([H])[H]

$$$$
19:0:0
     RDKit          3D

 93104  0  0  1  0  0  0  0  0999 V2000
  -30.5550  -15.1030   20.4020 C   0  0  0  0  0  0  0  0  0  0  0  0
  -30.4370  -12.7320   19.5010 C   0  0  0  0  0  2  0  0  0  0  0  0
  -29.5240  -12.6260   18.2600 C   0  0  0  0  0  2  0  0  0  0  0  0
  -28.0670  -12.3880   18.6950 C   0  0  0  0  0  2  0  0  0  0  0  0
  -27.6210  -13.3540   19.8230 C   0  0  0  0  0  3  0  0  0  0  0  0
  -28.6600  -13.4470   20.9560 C   0  0  0  0  0  2  0  0  0  0  0  0
  -29.9260  -13.8580   20.3360 N   0  0  0  0  0  0  0  0  0  0  0  0
  -31.7870  -15.0990   20.2780 O   0  0  0  0  0  0  0  0  0  0  0  0
  -28.4800  -22.1700   19.1490 C   0  0  0  0  0  2  0  0  0  0  0  0
  -29.5600  -21.3950   21.5020 C   0  0  0  0  0  3  0  0  0  0  0  0
  -28.8170  -20.7570   19.2970 C   0  0  0  0  0  0  0  0  0  0  0  0
  -28.7100  -19.5480   18.4590 C   0  0  0  0  0  0  0  0  0  0  0  0
  -29.3830  -20.3330   20.5440 C   0  0  0  0  0  0  0  0  0  0  0  0
  -29.1490  -18.4610   19.2100 C   0  0  0  0  0  0  0  0  0  0  0  0
  -28.6320  -23.2030   20.1520 C   0  0  0  0  0  0  0  0  0  0  0  0
  -29.3020  -16.9320   19.0920 C   0  0  0  0  0  3  0  0  0  0  0  0
  -30.1310  -17.6600   21.1630 C   0  0  0  0  0  2  0  0  0  0  0  0
  -29.1820  -22.7330   21.3210 N   0  0  0  0  0  0  0  0  0  0  0  0
  -29.5940  -18.8800   20.4220 N   0  0  0  0  0  0  0  0  0  0  0  0
  -29.8330  -16.3490   20.3780 N   0  0  0  0  0  0  0  0  0  0  0  0
  -25.2320  -13.9220   20.5300 C   0  0  0  0  0  0  0  0  0  0  0  0
  -24.1660  -13.1410   20.8780 C   0  0  0  0  0  0  0  0  0  0  0  0
  -24.6410  -11.7930   20.8660 C   0  0  0  0  0  0  0  0  0  0  0  0
  -26.2840  -13.0510   20.3130 N   0  0  0  0  0  0  0  0  0  0  0  0
  -25.9390  -11.7660   20.5880 N   0  0  0  0  0  0  0  0  0  0  0  0
  -23.9200  -10.5270   21.0460 C   0  0  0  0  0  0  0  0  0  0  0  0
  -24.3320   -9.5710   21.9990 C   0  0  0  0  0  3  0  0  0  0  0  0
  -23.6100   -8.3690   22.1670 C   0  0  0  0  0  3  0  0  0  0  0  0
  -22.4620   -8.1140   21.3780 C   0  0  0  0  0  0  0  0  0  0  0  0
  -22.0690   -9.0600   20.4140 C   0  0  0  0  0  3  0  0  0  0  0  0
  -22.7930  -10.2520   20.2460 C   0  0  0  0  0  3  0  0  0  0  0  0
  -21.7160   -6.9630   21.4520 O   0  0  0  0  0  0  0  0  0  0  0  0
  -21.6270   -6.2360   22.6120 C   0  0  0  0  0  0  0  0  0  0  0  0
  -21.1120   -6.7930   23.8020 C   0  0  0  0  0  3  0  0  0  0  0  0
  -20.9730   -5.9900   24.9520 C   0  0  0  0  0  3  0  0  0  0  0  0
  -21.3410   -4.6320   24.9140 C   0  0  0  0  0  0  0  0  0  0  0  0
  -21.8490   -4.0740   23.7260 C   0  0  0  0  0  3  0  0  0  0  0  0
  -21.9890   -4.8740   22.5790 C   0  0  0  0  0  0  0  0  0  0  0  0
  -22.4590   -4.3260   21.4310 F   0  0  0  0  0  0  0  0  0  0  0  0
  -21.2010   -3.8580   26.0150 F   0  0  0  0  0  0  0  0  0  0  0  0
  -22.7600  -13.6080   21.1120 C   0  0  0  0  0  0  0  0  0  0  0  0
  -22.0190  -12.9190   21.9710 N   0  0  0  0  0  0  0  0  0  0  0  0
  -22.3250  -14.6240   20.5680 O   0  0  0  0  0  0  0  0  0  0  0  0
  -22.3790  -12.0970   22.4340 H   0  0  0  0  0  0  0  0  0  0  0  0
  -21.0760  -13.2240   22.1760 H   0  0  0  0  0  0  0  0  0  0  0  0
  -25.3890  -15.2950   20.3520 N   0  0  0  0  0  0  0  0  0  0  0  0
  -24.6170  -15.9440   20.4600 H   0  0  0  0  0  0  0  0  0  0  0  0
  -26.2520  -15.7480   20.0840 H   0  0  0  0  0  0  0  0  0  0  0  0
  -28.8280  -18.6530   15.9680 C   0  0  0  0  0  2  0  0  0  0  0  0
  -28.9320  -20.1560   15.9070 C   0  0  0  0  0  2  0  0  0  0  0  0
  -28.1790  -19.4980   17.0460 C   0  0  0  0  0  3  0  0  0  0  0  0
  -27.8630  -24.6870   19.9980 C   0  0  0  0  0  2  0  0  0  0  0  0
  -28.2390  -26.1670   20.3730 O   0  0  0  0  0  0  0  0  0  0  0  0
  -24.6560  -31.9830   23.3030 C   0  0  0  0  0  0  0  0  0  0  0  0
  -27.2190  -27.2050   20.3000 C   0  0  0  0  0  0  0  0  0  0  0  0
  -23.4620  -30.5920   21.6590 C   0  0  0  0  0  3  0  0  0  0  0  0
  -24.9090  -29.0020   20.2550 C   0  0  0  0  0  0  0  0  0  0  0  0
  -26.0240  -30.8210   21.5260 C   0  0  0  0  0  2  0  0  0  0  0  0
  -26.0910  -29.4250   20.8750 C   0  0  0  0  0  0  0  0  0  0  0  0
  -27.2470  -28.5450   20.8820 C   0  0  0  0  0  3  0  0  0  0  0  0
  -26.0040  -26.9040   19.6380 C   0  0  0  0  0  3  0  0  0  0  0  0
  -24.8800  -27.7530   19.6250 C   0  0  0  0  0  3  0  0  0  0  0  0
  -23.6910  -29.9140   20.2870 C   0  0  0  0  0  2  0  0  0  0  0  0
  -24.7340  -31.1530   22.2170 N   0  0  0  0  0  0  0  0  0  0  0  0
  -23.5670  -32.2820   23.8160 O   0  0  0  0  0  0  0  0  0  0  0  0
  -22.7620  -29.5950   22.6180 C   0  0  0  0  0  0  0  0  0  0  0  0
  -21.4340  -29.4290   22.4750 N   0  0  0  0  0  0  0  0  0  0  0  0
  -23.4190  -28.9720   23.4590 O   0  0  0  0  0  0  0  0  0  0  0  0
  -20.9580  -29.9840   21.7770 H   0  0  0  0  0  0  0  0  0  0  0  0
  -18.0390  -28.2590   22.9590 C   0  0  0  0  0  0  0  0  0  0  0  0
  -20.5980  -28.5000   23.2440 C   0  0  0  0  0  3  0  0  0  0  0  0
  -20.6910  -27.0640   22.6770 C   0  0  0  0  0  2  0  0  0  0  0  0
  -19.5940  -26.7480   21.6560 C   0  0  0  0  0  2  0  0  0  0  0  0
  -18.2100  -26.9070   22.2880 C   0  0  0  0  0  2  0  0  0  0  0  0
  -19.1600  -29.0130   23.3940 C   0  0  0  0  0  0  0  0  0  0  0  0
  -18.9480  -30.2800   23.9810 C   0  0  0  0  0  3  0  0  0  0  0  0
  -17.6450  -30.7910   24.1380 C   0  0  0  0  0  3  0  0  0  0  0  0
  -16.5370  -30.0340   23.7190 C   0  0  0  0  0  3  0  0  0  0  0  0
  -16.7350  -28.7690   23.1360 C   0  0  0  0  0  3  0  0  0  0  0  0
  -25.9320  -32.6130   23.9400 C   0  0  0  0  0  3  0  0  0  0  0  0
  -25.6250  -34.0160   24.2640 N   0  0  0  0  0  0  0  0  0  0  0  0
  -25.9360  -35.0650   23.4890 C   0  0  0  0  0  0  0  0  0  0  0  0
  -26.5830  -34.9530   22.4460 O   0  0  0  0  0  0  0  0  0  0  0  0
  -25.0530  -34.1750   25.0800 H   0  0  0  0  0  0  0  0  0  0  0  0
  -24.1920  -36.8530   23.1820 C   0  0  0  0  0  1  0  0  0  0  0  0
  -25.4620  -36.4580   23.9520 C   0  0  0  0  0  3  0  0  0  0  0  0
  -27.6180  -37.3650   24.7050 C   0  0  0  0  0  1  0  0  0  0  0  0
  -26.4870  -37.5130   23.7920 N   0  0  0  0  0  0  0  0  0  0  0  0
  -26.0810  -38.4320   23.9440 H   0  0  0  0  0  0  0  0  0  0  0  0
  -26.4240  -31.8480   25.2280 C   0  0  1  0  0  0  0  0  0  0  0  0
  -25.3150  -31.6150   26.2820 C   0  0  0  0  0  1  0  0  0  0  0  0
  -27.0130  -30.4670   24.8630 C   0  0  0  0  0  1  0  0  0  0  0  0
  -27.5630  -32.6500   25.9030 C   0  0  0  0  0  1  0  0  0  0  0  0
  2  7  1  0
  3  4  1  0
  3  2  1  0
  5  4  1  0
  5 24  1  0
  5  6  1  0
  7  1  1  0
  7  6  1  0
  8  1  2  0
  9 11  1  0
  9 15  1  0
 11 13  1  0
 12 14  1  0
 12 11  2  0
 13 10  2  0
 14 19  1  0
 15 18  2  0
 16 14  2  0
 16 20  1  0
 18 10  1  0
 19 13  1  0
 19 17  1  0
 20  1  1  0
 20 17  1  0
 21 22  2  0
 22 41  1  0
 23 22  1  0
 23 26  1  0
 24 21  1  0
 24 25  1  0
 25 23  2  0
 26 27  1  0
 27 28  2  0
 29 32  1  0
 29 28  1  0
 30 29  2  0
 31 30  1  0
 31 26  2  0
 32 33  1  0
 33 34  1  0
 34 35  2  0
 36 35  1  0
 36 40  1  0
 37 36  2  0
 38 33  2  0
 38 37  1  0
 39 38  1  0
 41 42  1  0
 42 45  1  0
 42 44  1  0
 43 41  2  0
 46 47  1  0
 46 21  1  0
 48 46  1  0
 49 51  1  0
 50 49  1  0
 50 51  1  0
 51 12  1  0
 52 15  1  0
 52 53  1  0
 54 65  2  0
 55 53  1  0
 55 60  1  0
 56 64  1  0
 56 66  1  0
 57 63  1  0
 57 59  1  0
 58 64  1  0
 59 60  2  0
 59 58  1  0
 61 55  2  0
 62 61  1  0
 62 57  2  0
 63 56  1  0
 64 54  1  0
 66 68  2  0
 67 66  1  0
 69 67  1  0
 70 79  2  0
 70 75  1  0
 71 67  1  0
 71 75  1  0
 72 71  1  0
 73 74  1  0
 73 72  1  0
 74 70  1  0
 75 76  2  0
 76 77  1  0
 78 77  2  0
 79 78  1  0
 80 54  1  0
 80 81  1  0
 80 90  1  0
 81 84  1  0
 82 86  1  0
 82 81  1  0
 83 82  2  0
 86 85  1  0
 88 89  1  0
 88 86  1  0
 88 87  1  0
 90 93  1  1
 90 91  1  0
 92 90  1  0
M  ISO  4   1 100  20 100  52 101  53 101
M  END
>  <TORSDO>  (20) 
F 17

>  <SCORE>  (20) 
-15.394

>  <name>  (20) 
19

>  <ligand_id>  (20) 
19

>  <original_smiles>  (20) 
[H]c1c([H])c([H])c2c(c1[H])C([H])([H])C([H])([H])C([H])([H])C2([H])N([H])C(=O)C1([H])N(C(=O)C([H])(N([H])C(=O)C([H])(N([H])C([H])([H])[H])C([H])([H])[H])C(C([H])([H])[H])(C([H])([H])[H])C([H])([H])[H])C([H])([H])c2c([H])c(OC([H])([H])c3nc([H])c4c(c3[H])c(C3([H])C([H])([H])C3([H])[H])c3n4C([H])([H])N(C(=O)N4C([H])([H])C([H])([H])C([H])([H])C([H])(n5nc(-c6c([H])c([H])c(Oc7c([H])c([H])c(F)c([H])c7F)c([H])c6[H])c(C(=O)N([H])[H])c5N([H])[H])C4([H])[H])C3([H])[H])c([H])c([H])c2C1([H])[H]

>  <smiles>  (20) 
[H]c1c([H])c([H])c2c(c1[H])C([H])([H])C([H])([H])C([H])([H])C2([H])N([H])C(=O)C1([H])N(C(=O)C([H])(N([H])C(=O)C([H])(N([H])C([H])([H])[H])C([H])([H])[H])C(C([H])([H])[H])(C([H])([H])[H])C([H])([H])[H])C([H])([H])c2c([H])c(OC([H])([H])c3nc([H])c4c(c3[H])c(C3([H])C([H])([H])C3([H])[H])c3n4C([H])([H])N(C(=O)N4C([H])([H])C([H])([H])C([H])([H])C([H])(n5nc(-c6c([H])c([H])c(Oc7c([H])c([H])c(F)c([H])c7F)c([H])c6[H])c(C(=O)N([H])[H])c5N([H])[H])C4([H])[H])C3([H])[H])c([H])c([H])c2C1([H])[H]

$$$$
20:0:0
     RDKit          3D

 91100  0  0  1  0  0  0  0  0999 V2000
  -29.8730  -22.5150   17.7140 C   0  0  0  0  0  3  0  0  0  0  0  0
  -29.7510  -21.1620   18.0870 C   0  0  0  0  0  0  0  0  0  0  0  0
  -29.3970  -23.5700   18.4940 C   0  0  0  0  0  0  0  0  0  0  0  0
  -29.2890  -20.7870   19.4010 C   0  0  0  0  0  0  0  0  0  0  0  0
  -28.7890  -23.3030   19.7330 C   0  0  0  0  0  0  0  0  0  0  0  0
  -30.0630  -20.2370   16.9070 C   0  0  0  0  0  1  0  0  0  0  0  0
  -29.4750  -24.9670   17.9020 C   0  0  0  0  0  1  0  0  0  0  0  0
  -28.7890  -21.9160   20.1560 N   0  0  0  0  0  0  0  0  0  0  0  0
  -29.5370  -18.1010   18.8460 C   0  0  0  0  0  2  0  0  0  0  0  0
  -29.1310  -19.1480   19.8710 C   0  0  0  0  0  3  0  0  0  0  0  0
  -30.0500  -17.7050   20.1690 C   0  0  0  0  0  3  0  0  0  0  0  0
  -30.4780  -14.9810   20.2970 C   0  0  0  0  0  0  0  0  0  0  0  0
  -30.3370  -12.6150   19.3700 C   0  0  0  0  0  2  0  0  0  0  0  0
  -29.3960  -12.5630   18.1470 C   0  0  0  0  0  2  0  0  0  0  0  0
  -27.9340  -12.3690   18.5850 C   0  0  0  0  0  2  0  0  0  0  0  0
  -27.5410  -13.2850   19.7740 C   0  0  0  0  0  3  0  0  0  0  0  0
  -28.6110  -13.3050   20.8870 C   0  0  0  0  0  2  0  0  0  0  0  0
  -29.8700  -13.7210   20.2580 N   0  0  0  0  0  0  0  0  0  0  0  0
  -31.6840  -15.0210   20.0300 O   0  0  0  0  0  0  0  0  0  0  0  0
  -29.7100  -16.1860   20.3910 N   0  0  0  0  0  0  0  0  0  0  0  0
  -28.7300  -16.0150   20.5610 H   0  0  0  0  0  0  0  0  0  0  0  0
  -25.1640  -13.8630   20.5280 C   0  0  0  0  0  0  0  0  0  0  0  0
  -24.1020  -13.0890   20.9050 C   0  0  0  0  0  0  0  0  0  0  0  0
  -24.5650  -11.7370   20.8740 C   0  0  0  0  0  0  0  0  0  0  0  0
  -26.2070  -12.9850   20.2850 N   0  0  0  0  0  0  0  0  0  0  0  0
  -25.8580  -11.7010   20.5630 N   0  0  0  0  0  0  0  0  0  0  0  0
  -23.8350  -10.4770   21.0690 C   0  0  0  0  0  0  0  0  0  0  0  0
  -24.2760   -9.4990   21.9840 C   0  0  0  0  0  3  0  0  0  0  0  0
  -23.5450   -8.3070   22.1690 C   0  0  0  0  0  3  0  0  0  0  0  0
  -22.3560   -8.0830   21.4360 C   0  0  0  0  0  0  0  0  0  0  0  0
  -21.9300   -9.0500   20.5070 C   0  0  0  0  0  3  0  0  0  0  0  0
  -22.6640  -10.2340   20.3250 C   0  0  0  0  0  3  0  0  0  0  0  0
  -21.5980   -6.9410   21.5300 O   0  0  0  0  0  0  0  0  0  0  0  0
  -21.5800   -6.1770   22.6700 C   0  0  0  0  0  0  0  0  0  0  0  0
  -21.2070   -6.7140   23.9210 C   0  0  0  0  0  3  0  0  0  0  0  0
  -21.1400   -5.8800   25.0540 C   0  0  0  0  0  3  0  0  0  0  0  0
  -21.4290   -4.5080   24.9380 C   0  0  0  0  0  0  0  0  0  0  0  0
  -21.7860   -3.9680   23.6900 C   0  0  0  0  0  3  0  0  0  0  0  0
  -21.8590   -4.8000   22.5590 C   0  0  0  0  0  0  0  0  0  0  0  0
  -22.1860   -4.2710   21.3560 F   0  0  0  0  0  0  0  0  0  0  0  0
  -21.3520   -3.7020   26.0230 F   0  0  0  0  0  0  0  0  0  0  0  0
  -22.7060  -13.5690   21.1780 C   0  0  0  0  0  0  0  0  0  0  0  0
  -21.9800  -12.8810   22.0500 N   0  0  0  0  0  0  0  0  0  0  0  0
  -22.2700  -14.5950   20.6600 O   0  0  0  0  0  0  0  0  0  0  0  0
  -22.3390  -12.0490   22.4930 H   0  0  0  0  0  0  0  0  0  0  0  0
  -21.0470  -13.1950   22.2770 H   0  0  0  0  0  0  0  0  0  0  0  0
  -25.3260  -15.2320   20.3440 N   0  0  0  0  0  0  0  0  0  0  0  0
  -24.5550  -15.8850   20.4490 H   0  0  0  0  0  0  0  0  0  0  0  0
  -26.1640  -15.6650   19.9780 H   0  0  0  0  0  0  0  0  0  0  0  0
  -28.0300  -24.5900   20.4830 C   0  0  0  0  0  2  0  0  0  0  0  0
  -28.2590  -26.1260   20.2030 O   0  0  0  0  0  0  0  0  0  0  0  0
  -24.6400  -31.8580   23.1950 C   0  0  0  0  0  0  0  0  0  0  0  0
  -27.1970  -27.1080   20.1960 C   0  0  0  0  0  0  0  0  0  0  0  0
  -23.4300  -30.4520   21.5750 C   0  0  0  0  0  3  0  0  0  0  0  0
  -24.8690  -28.8600   20.1540 C   0  0  0  0  0  0  0  0  0  0  0  0
  -25.9800  -30.7070   21.3950 C   0  0  0  0  0  2  0  0  0  0  0  0
  -26.0500  -29.3090   20.7550 C   0  0  0  0  0  0  0  0  0  0  0  0
  -27.2150  -28.4500   20.7560 C   0  0  0  0  0  3  0  0  0  0  0  0
  -25.9960  -26.7670   19.5420 C   0  0  0  0  0  3  0  0  0  0  0  0
  -24.8560  -27.6070   19.5250 C   0  0  0  0  0  3  0  0  0  0  0  0
  -23.6410  -29.7570   20.2030 C   0  0  0  0  0  2  0  0  0  0  0  0
  -24.7040  -31.0260   22.1100 N   0  0  0  0  0  0  0  0  0  0  0  0
  -23.5570  -32.1500   23.7270 O   0  0  0  0  0  0  0  0  0  0  0  0
  -22.7580  -29.4500   22.5490 C   0  0  0  0  0  0  0  0  0  0  0  0
  -21.4280  -29.2820   22.4390 N   0  0  0  0  0  0  0  0  0  0  0  0
  -23.4350  -28.8260   23.3690 O   0  0  0  0  0  0  0  0  0  0  0  0
  -20.9360  -29.8440   21.7560 H   0  0  0  0  0  0  0  0  0  0  0  0
  -18.0540  -28.0660   22.9650 C   0  0  0  0  0  0  0  0  0  0  0  0
  -20.6110  -28.3430   23.2180 C   0  0  0  0  0  3  0  0  0  0  0  0
  -20.7180  -26.9070   22.6540 C   0  0  0  0  0  2  0  0  0  0  0  0
  -19.6120  -26.5680   21.6500 C   0  0  0  0  0  2  0  0  0  0  0  0
  -18.2320  -26.7110   22.2970 C   0  0  0  0  0  2  0  0  0  0  0  0
  -19.1720  -28.8410   23.3790 C   0  0  0  0  0  0  0  0  0  0  0  0
  -18.9480  -30.1050   23.9630 C   0  0  0  0  0  3  0  0  0  0  0  0
  -17.6420  -30.5990   24.1360 C   0  0  0  0  0  3  0  0  0  0  0  0
  -16.5410  -29.8260   23.7320 C   0  0  0  0  0  3  0  0  0  0  0  0
  -16.7470  -28.5600   23.1540 C   0  0  0  0  0  3  0  0  0  0  0  0
  -25.9220  -32.4950   23.8150 C   0  0  0  0  0  3  0  0  0  0  0  0
  -25.6070  -33.8890   24.1670 N   0  0  0  0  0  0  0  0  0  0  0  0
  -25.9090  -34.9550   23.4120 C   0  0  0  0  0  0  0  0  0  0  0  0
  -26.5580  -34.8690   22.3660 O   0  0  0  0  0  0  0  0  0  0  0  0
  -25.0430  -34.0240   24.9920 H   0  0  0  0  0  0  0  0  0  0  0  0
  -24.1560  -36.7410   23.1220 C   0  0  0  0  0  1  0  0  0  0  0  0
  -25.4220  -36.3360   23.8970 C   0  0  0  0  0  3  0  0  0  0  0  0
  -27.5700  -37.2340   24.6780 C   0  0  0  0  0  1  0  0  0  0  0  0
  -26.4410  -37.4020   23.7700 N   0  0  0  0  0  0  0  0  0  0  0  0
  -26.0280  -38.3130   23.9510 H   0  0  0  0  0  0  0  0  0  0  0  0
  -26.4540  -31.7260   25.0900 C   0  0  1  0  0  0  0  0  0  0  0  0
  -25.3730  -31.4870   26.1720 C   0  0  0  0  0  1  0  0  0  0  0  0
  -27.0440  -30.3510   24.6980 C   0  0  0  0  0  1  0  0  0  0  0  0
  -27.6040  -32.5310   25.7450 C   0  0  0  0  0  1  0  0  0  0  0  0
  1  2  2  0
  1  3  1  0
  2  4  1  0
  3  5  2  0
  4  8  2  0
  5  8  1  0
  5 50  1  0
  6  2  1  0
  7  3  1  0
  9 10  1  0
  9 11  1  0
 10  4  1  0
 10 11  1  0
 11 20  1  0
 12 20  1  0
 13 18  1  0
 14 15  1  0
 14 13  1  0
 16 15  1  0
 16 25  1  0
 16 17  1  0
 18 12  1  0
 18 17  1  0
 19 12  2  0
 20 21  1  0
 22 23  2  0
 23 42  1  0
 24 23  1  0
 24 27  1  0
 25 22  1  0
 25 26  1  0
 26 24  2  0
 27 28  1  0
 28 29  2  0
 30 33  1  0
 30 29  1  0
 31 30  2  0
 32 31  1  0
 32 27  2  0
 33 34  1  0
 34 35  1  0
 35 36  2  0
 37 36  1  0
 37 41  1  0
 38 37  2  0
 39 34  2  0
 39 38  1  0
 40 39  1  0
 42 43  1  0
 43 46  1  0
 43 45  1  0
 44 42  2  0
 47 48  1  0
 47 22  1  0
 49 47  1  0
 51 50  1  0
 52 63  2  0
 53 51  1  0
 53 58  1  0
 54 62  1  0
 54 64  1  0
 55 61  1  0
 55 57  1  0
 56 62  1  0
 57 58  2  0
 57 56  1  0
 59 53  2  0
 60 59  1  0
 60 55  2  0
 61 54  1  0
 62 52  1  0
 64 66  2  0
 65 64  1  0
 67 65  1  0
 68 77  2  0
 68 73  1  0
 69 65  1  0
 69 73  1  0
 70 69  1  0
 71 72  1  0
 71 70  1  0
 72 68  1  0
 73 74  2  0
 74 75  1  0
 76 75  2  0
 77 76  1  0
 78 52  1  0
 78 79  1  0
 78 88  1  0
 79 82  1  0
 80 84  1  0
 80 79  1  0
 81 80  2  0
 84 83  1  0
 86 84  1  0
 86 87  1  0
 86 85  1  0
 88 91  1  1
 88 89  1  0
 90 88  1  0
M  ISO  4  12 100  20 100  50 101  51 101
M  END
>  <TORSDO>  (21) 
F 18

>  <SCORE>  (21) 
-14.905

>  <name>  (21) 
20

>  <ligand_id>  (21) 
20

>  <original_smiles>  (21) 
[H]c1c([H])c([H])c2c(c1[H])C([H])([H])C([H])([H])C([H])([H])C2([H])N([H])C(=O)C1([H])N(C(=O)C([H])(N([H])C(=O)C([H])(N([H])C([H])([H])[H])C([H])([H])[H])C(C([H])([H])[H])(C([H])([H])[H])C([H])([H])[H])C([H])([H])c2c([H])c(OC([H])([H])c3nc(C4([H])C([H])([H])C4([H])N([H])C(=O)N4C([H])([H])C([H])([H])C([H])([H])C([H])(n5nc(-c6c([H])c([H])c(Oc7c([H])c([H])c(F)c([H])c7F)c([H])c6[H])c(C(=O)N([H])[H])c5N([H])[H])C4([H])[H])c(C([H])([H])[H])c([H])c3C([H])([H])[H])c([H])c([H])c2C1([H])[H]

>  <smiles>  (21) 
[H]c1c([H])c([H])c2c(c1[H])C([H])([H])C([H])([H])C([H])([H])C2([H])N([H])C(=O)C1([H])N(C(=O)C([H])(N([H])C(=O)C([H])(N([H])C([H])([H])[H])C([H])([H])[H])C(C([H])([H])[H])(C([H])([H])[H])C([H])([H])[H])C([H])([H])c2c([H])c(OC([H])([H])c3nc(C4([H])C([H])([H])C4([H])N([H])C(=O)N4C([H])([H])C([H])([H])C([H])([H])C([H])(n5nc(-c6c([H])c([H])c(Oc7c([H])c([H])c(F)c([H])c7F)c([H])c6[H])c(C(=O)N([H])[H])c5N([H])[H])C4([H])[H])c(C([H])([H])[H])c([H])c3C([H])([H])[H])c([H])c([H])c2C1([H])[H]

$$$$
21:0:0
     RDKit          3D

 94103  0  0  1  0  0  0  0  0999 V2000
  -28.8240  -23.6410   19.2840 C   0  0  0  0  0  0  0  0  0  0  0  0
  -29.1360  -24.2200   18.0140 C   0  0  0  0  0  0  0  0  0  0  0  0
  -29.0800  -22.1460   19.3130 C   0  0  0  0  0  0  0  0  0  0  0  0
  -29.7390  -22.2310   17.0920 C   0  0  0  0  0  0  0  0  0  0  0  0
  -28.9940  -25.6900   17.6560 C   0  0  0  0  0  1  0  0  0  0  0  0
  -30.1730  -21.4570   15.8670 C   0  0  0  0  0  1  0  0  0  0  0  0
  -29.5830  -23.5260   16.9590 N   0  0  0  0  0  0  0  0  0  0  0  0
  -29.5230  -21.5520   18.1930 N   0  0  0  0  0  0  0  0  0  0  0  0
  -28.9590  -21.0370   20.2730 N   0  0  0  0  0  0  0  0  0  0  0  0
  -28.6730  -21.3080   21.2080 H   0  0  0  0  0  0  0  0  0  0  0  0
  -30.6110  -14.9710   19.9970 C   0  0  0  0  0  0  0  0  0  0  0  0
  -30.3970  -12.6500   19.0140 C   0  0  0  0  0  2  0  0  0  0  0  0
  -29.4020  -12.6480   17.8340 C   0  0  0  0  0  2  0  0  0  0  0  0
  -27.9600  -12.4420   18.3360 C   0  0  0  0  0  2  0  0  0  0  0  0
  -27.6290  -13.3260   19.5700 C   0  0  0  0  0  3  0  0  0  0  0  0
  -28.7480  -13.3220   20.6320 C   0  0  0  0  0  2  0  0  0  0  0  0
  -29.9760  -13.7340   19.9480 N   0  0  0  0  0  0  0  0  0  0  0  0
  -31.8030  -14.9930   19.6660 O   0  0  0  0  0  0  0  0  0  0  0  0
  -28.7470  -18.4900   19.2640 C   0  0  0  0  0  2  0  0  0  0  0  0
  -29.8090  -18.6890   21.3700 C   0  0  0  0  0  2  0  0  0  0  0  0
  -29.4430  -17.0400   19.0490 C   0  0  0  0  0  2  0  0  0  0  0  0
  -30.5050  -17.2420   21.1590 C   0  0  0  0  0  2  0  0  0  0  0  0
  -29.5410  -19.5780   20.0940 C   0  0  0  0  0  3  0  0  0  0  0  0
  -29.9180  -16.2070   20.2220 N   0  0  0  0  0  0  0  0  0  0  0  0
  -25.3010  -13.8740   20.4660 C   0  0  0  0  0  0  0  0  0  0  0  0
  -24.2610  -13.0860   20.8740 C   0  0  0  0  0  0  0  0  0  0  0  0
  -24.7230  -11.7370   20.7750 C   0  0  0  0  0  0  0  0  0  0  0  0
  -26.3270  -13.0050   20.1390 N   0  0  0  0  0  0  0  0  0  0  0  0
  -25.9950  -11.7110   20.3900 N   0  0  0  0  0  0  0  0  0  0  0  0
  -24.0090  -10.4690   20.9710 C   0  0  0  0  0  0  0  0  0  0  0  0
  -24.4600   -9.5000   21.8950 C   0  0  0  0  0  3  0  0  0  0  0  0
  -23.7430   -8.2970   22.0790 C   0  0  0  0  0  3  0  0  0  0  0  0
  -22.5610   -8.0550   21.3380 C   0  0  0  0  0  0  0  0  0  0  0  0
  -22.1300   -9.0120   20.4030 C   0  0  0  0  0  3  0  0  0  0  0  0
  -22.8470  -10.2060   20.2180 C   0  0  0  0  0  3  0  0  0  0  0  0
  -21.8150   -6.9040   21.4310 O   0  0  0  0  0  0  0  0  0  0  0  0
  -21.7410   -6.1860   22.5980 C   0  0  0  0  0  0  0  0  0  0  0  0
  -21.2260   -6.7480   23.7870 C   0  0  0  0  0  3  0  0  0  0  0  0
  -21.1040   -5.9550   24.9450 C   0  0  0  0  0  3  0  0  0  0  0  0
  -21.4850   -4.5990   24.9150 C   0  0  0  0  0  0  0  0  0  0  0  0
  -21.9890   -4.0370   23.7290 C   0  0  0  0  0  3  0  0  0  0  0  0
  -22.1140   -4.8280   22.5730 C   0  0  0  0  0  0  0  0  0  0  0  0
  -22.5810   -4.2750   21.4290 F   0  0  0  0  0  0  0  0  0  0  0  0
  -21.3590   -3.8340   26.0240 F   0  0  0  0  0  0  0  0  0  0  0  0
  -22.8820  -13.5520   21.2390 C   0  0  0  0  0  0  0  0  0  0  0  0
  -22.2050  -12.8300   22.1240 N   0  0  0  0  0  0  0  0  0  0  0  0
  -22.4180  -14.5930   20.7760 O   0  0  0  0  0  0  0  0  0  0  0  0
  -22.5960  -11.9840   22.5140 H   0  0  0  0  0  0  0  0  0  0  0  0
  -21.2830  -13.1230   22.4110 H   0  0  0  0  0  0  0  0  0  0  0  0
  -25.4600  -15.2490   20.3240 N   0  0  0  0  0  0  0  0  0  0  0  0
  -24.7140  -15.9120   20.5060 H   0  0  0  0  0  0  0  0  0  0  0  0
  -26.3090  -15.6890   19.9930 H   0  0  0  0  0  0  0  0  0  0  0  0
  -28.1860  -24.7110   20.3530 C   0  0  0  0  0  2  0  0  0  0  0  0
  -28.3510  -26.2600   20.2470 O   0  0  0  0  0  0  0  0  0  0  0  0
  -24.6270  -31.8710   23.2240 C   0  0  0  0  0  0  0  0  0  0  0  0
  -27.2610  -27.1980   20.2160 C   0  0  0  0  0  0  0  0  0  0  0  0
  -23.4480  -30.4700   21.5720 C   0  0  0  0  0  3  0  0  0  0  0  0
  -24.9180  -28.9100   20.1560 C   0  0  0  0  0  0  0  0  0  0  0  0
  -25.9980  -30.7600   21.4260 C   0  0  0  0  0  2  0  0  0  0  0  0
  -26.0870  -29.3700   20.7750 C   0  0  0  0  0  0  0  0  0  0  0  0
  -27.2620  -28.5340   20.7800 C   0  0  0  0  0  3  0  0  0  0  0  0
  -26.0650  -26.8270   19.5680 C   0  0  0  0  0  3  0  0  0  0  0  0
  -24.9210  -27.6530   19.5320 C   0  0  0  0  0  3  0  0  0  0  0  0
  -23.6830  -29.7960   20.1930 C   0  0  0  0  0  2  0  0  0  0  0  0
  -24.7100  -31.0540   22.1300 N   0  0  0  0  0  0  0  0  0  0  0  0
  -23.5340  -32.1480   23.7440 O   0  0  0  0  0  0  0  0  0  0  0  0
  -22.7690  -29.4570   22.5260 C   0  0  0  0  0  0  0  0  0  0  0  0
  -21.4410  -29.2900   22.3950 N   0  0  0  0  0  0  0  0  0  0  0  0
  -23.4380  -28.8240   23.3480 O   0  0  0  0  0  0  0  0  0  0  0  0
  -20.9600  -29.8550   21.7090 H   0  0  0  0  0  0  0  0  0  0  0  0
  -18.0520  -28.1210   22.9050 C   0  0  0  0  0  0  0  0  0  0  0  0
  -20.6150  -28.3510   23.1550 C   0  0  0  0  0  3  0  0  0  0  0  0
  -20.6970  -26.9280   22.5570 C   0  0  0  0  0  2  0  0  0  0  0  0
  -19.5850  -26.6330   21.5470 C   0  0  0  0  0  2  0  0  0  0  0  0
  -18.2100  -26.7810   22.2040 C   0  0  0  0  0  2  0  0  0  0  0  0
  -19.1810  -28.8640   23.3370 C   0  0  0  0  0  0  0  0  0  0  0  0
  -18.9810  -30.1170   23.9560 C   0  0  0  0  0  3  0  0  0  0  0  0
  -17.6840  -30.6280   24.1440 C   0  0  0  0  0  3  0  0  0  0  0  0
  -16.5680  -29.8820   23.7270 C   0  0  0  0  0  3  0  0  0  0  0  0
  -16.7520  -28.6290   23.1140 C   0  0  0  0  0  3  0  0  0  0  0  0
  -25.8970  -32.5100   23.8640 C   0  0  0  0  0  3  0  0  0  0  0  0
  -25.5810  -33.9120   24.1860 N   0  0  0  0  0  0  0  0  0  0  0  0
  -25.9120  -34.9650   23.4260 C   0  0  0  0  0  0  0  0  0  0  0  0
  -26.5840  -34.8590   22.3970 O   0  0  0  0  0  0  0  0  0  0  0  0
  -24.9830  -34.0670   24.9840 H   0  0  0  0  0  0  0  0  0  0  0  0
  -24.1820  -36.7580   23.0640 C   0  0  0  0  0  1  0  0  0  0  0  0
  -25.4210  -36.3540   23.8800 C   0  0  0  0  0  3  0  0  0  0  0  0
  -27.5430  -37.2510   24.7280 C   0  0  0  0  0  1  0  0  0  0  0  0
  -26.4510  -37.4100   23.7710 N   0  0  0  0  0  0  0  0  0  0  0  0
  -26.0410  -38.3280   23.9080 H   0  0  0  0  0  0  0  0  0  0  0  0
  -26.3920  -31.7490   25.1560 C   0  0  1  0  0  0  0  0  0  0  0  0
  -25.2800  -31.5140   26.2050 C   0  0  0  0  0  1  0  0  0  0  0  0
  -26.9860  -30.3700   24.7870 C   0  0  0  0  0  1  0  0  0  0  0  0
  -27.5290  -32.5500   25.8330 C   0  0  0  0  0  1  0  0  0  0  0  0
  1  3  1  0
  1 53  1  0
  2  1  2  0
  3  9  1  0
  4  8  1  0
  5  2  1  0
  6  4  1  0
  7  4  2  0
  7  2  1  0
  8  3  2  0
  9 10  1  0
 11 24  1  0
 12 17  1  0
 13 14  1  0
 13 12  1  0
 15 14  1  0
 15 28  1  0
 15 16  1  0
 17 11  1  0
 17 16  1  0
 18 11  2  0
 19 23  1  0
 21 19  1  0
 21 24  1  0
 22 20  1  0
 23  9  1  0
 23 20  1  0
 24 22  1  0
 25 26  2  0
 26 45  1  0
 27 26  1  0
 27 30  1  0
 28 29  1  0
 28 25  1  0
 29 27  2  0
 30 31  1  0
 31 32  2  0
 33 36  1  0
 33 32  1  0
 34 33  2  0
 35 34  1  0
 35 30  2  0
 36 37  1  0
 37 38  1  0
 38 39  2  0
 40 39  1  0
 40 44  1  0
 41 40  2  0
 42 37  2  0
 42 41  1  0
 43 42  1  0
 45 46  1  0
 46 49  1  0
 46 48  1  0
 47 45  2  0
 50 25  1  0
 50 51  1  0
 52 50  1  0
 54 53  1  0
 55 66  2  0
 56 54  1  0
 56 61  1  0
 57 65  1  0
 57 67  1  0
 58 64  1  0
 58 60  1  0
 59 65  1  0
 60 61  2  0
 60 59  1  0
 62 56  2  0
 63 62  1  0
 63 58  2  0
 64 57  1  0
 65 55  1  0
 67 69  2  0
 68 67  1  0
 70 68  1  0
 71 80  2  0
 71 76  1  0
 72 68  1  0
 72 76  1  0
 73 72  1  0
 74 75  1  0
 74 73  1  0
 75 71  1  0
 76 77  2  0
 77 78  1  0
 79 78  2  0
 80 79  1  0
 81 55  1  0
 81 82  1  0
 81 91  1  0
 82 85  1  0
 83 87  1  0
 83 82  1  0
 84 83  2  0
 87 86  1  0
 89 87  1  0
 89 90  1  0
 89 88  1  0
 91 94  1  1
 91 92  1  0
 93 91  1  0
M  ISO  4  11 100  24 100  53 101  54 101
M  END
>  <TORSDO>  (22) 
F 17

>  <SCORE>  (22) 
-14.963

>  <name>  (22) 
21

>  <ligand_id>  (22) 
21

>  <original_smiles>  (22) 
[H]c1c([H])c([H])c2c(c1[H])C([H])([H])C([H])([H])C([H])([H])C2([H])N([H])C(=O)C1([H])N(C(=O)C([H])(N([H])C(=O)C([H])(N([H])C([H])([H])[H])C([H])([H])[H])C(C([H])([H])[H])(C([H])([H])[H])C([H])([H])[H])C([H])([H])c2c([H])c(OC([H])([H])c3c(N([H])C4([H])C([H])([H])C([H])([H])N(C(=O)N5C([H])([H])C([H])([H])C([H])([H])C([H])(n6nc(-c7c([H])c([H])c(Oc8c([H])c([H])c(F)c([H])c8F)c([H])c7[H])c(C(=O)N([H])[H])c6N([H])[H])C5([H])[H])C([H])([H])C4([H])[H])nc(C([H])([H])[H])nc3C([H])([H])[H])c([H])c([H])c2C1([H])[H]

>  <smiles>  (22) 
[H]c1c([H])c([H])c2c(c1[H])C([H])([H])C([H])([H])C([H])([H])C2([H])N([H])C(=O)C1([H])N(C(=O)C([H])(N([H])C(=O)C([H])(N([H])C([H])([H])[H])C([H])([H])[H])C(C([H])([H])[H])(C([H])([H])[H])C([H])([H])[H])C([H])([H])c2c([H])c(OC([H])([H])c3c(N([H])C4([H])C([H])([H])C([H])([H])N(C(=O)N5C([H])([H])C([H])([H])C([H])([H])C([H])(n6nc(-c7c([H])c([H])c(Oc8c([H])c([H])c(F)c([H])c8F)c([H])c7[H])c(C(=O)N([H])[H])c6N([H])[H])C5([H])[H])C([H])([H])C4([H])[H])nc(C([H])([H])[H])nc3C([H])([H])[H])c([H])c([H])c2C1([H])[H]

$$$$
22:0:0
     RDKit          3D

 91 92  0  0  1  0  0  0  0  0999 V2000
  -30.8160  -16.2570   20.9560 C   0  0  0  0  0  1  0  0  0  0  0  0
  -29.4850  -17.4700   20.3010 C   0  0  0  0  0  2  0  0  0  0  0  0
  -32.5920  -16.6810   20.0060 C   0  0  0  0  0  1  0  0  0  0  0  0
  -33.9340  -16.0060   20.0060 C   0  0  0  0  0  1  0  0  0  0  0  0
  -32.1880  -18.1900   18.7000 N   0  0  0  0  0 15  0  0  0  0  0  0
  -30.2630  -18.7880   18.8750 N   0  0  0  0  0 15  0  0  0  0  0  0
  -30.7550  -16.3590   18.6770 C   0  0  0  0  0  2  0  0  0  0  0  0
  -30.7620  -13.5050   17.9870 C   0  0  0  0  0  2  0  0  0  0  0  0
  -29.6700  -12.8740   17.0300 C   0  0  0  0  0  2  0  0  0  0  0  0
  -28.4000  -12.4750   17.7860 C   0  0  0  0  0  2  0  0  0  0  0  0
  -28.0950  -13.5520   18.8370 C   0  0  0  0  0  3  0  0  0  0  0  0
  -29.3260  -14.0420   19.6700 C   0  0  0  0  0  2  0  0  0  0  0  0
  -30.3440  -14.8120   18.8170 N   0  0  0  0  0  0  0  0  0  0  0  0
  -31.5140  -16.0140   17.6980 O   0  0  0  0  0  1  0  0  0  0  0  0
  -29.9850  -17.9830   22.7790 C   0  0  0  0  0  2  0  0  0  0  0  0
  -29.3640  -19.7360   21.3300 C   0  0  0  0  0  2  0  0  0  0  0  0
  -31.4970  -18.2240   22.2960 C   0  0  0  0  0  2  0  0  0  0  0  0
  -30.9240  -19.8190   21.0370 C   0  0  0  0  0  2  0  0  0  0  0  0
  -29.0030  -18.2440   21.5490 C   0  0  0  0  0  3  0  0  0  0  0  0
  -31.4170  -18.3630   20.7180 N   0  0  0  0  0  2  0  0  0  0  0  0
  -26.1160  -14.1720   20.2940 C   0  0  0  0  0  0  0  0  0  0  0  0
  -25.0790  -13.4730   20.8390 C   0  0  0  0  0  0  0  0  0  0  0  0
  -25.3020  -12.1020   20.4990 C   0  0  0  0  0  0  0  0  0  0  0  0
  -26.9150  -13.2460   19.6530 N   0  0  0  0  0  0  0  0  0  0  0  0
  -26.4490  -11.9760   19.8270 N   0  0  0  0  0  0  0  0  0  0  0  0
  -24.4460  -10.9250   20.7310 C   0  0  0  0  0  0  0  0  0  0  0  0
  -24.8580   -9.8530   21.5530 C   0  0  0  0  0  3  0  0  0  0  0  0
  -24.0040   -8.7500   21.7820 C   0  0  0  0  0  3  0  0  0  0  0  0
  -22.7180   -8.7090   21.1910 C   0  0  0  0  0  0  0  0  0  0  0  0
  -22.3190   -9.7680   20.3570 C   0  0  0  0  0  3  0  0  0  0  0  0
  -23.1730  -10.8620   20.1260 C   0  0  0  0  0  3  0  0  0  0  0  0
  -21.8340   -7.6650   21.3330 O   0  0  0  0  0  0  0  0  0  0  0  0
  -21.7260   -6.9670   22.5100 C   0  0  0  0  0  0  0  0  0  0  0  0
  -21.3310   -7.5940   23.7120 C   0  0  0  0  0  3  0  0  0  0  0  0
  -21.1640   -6.8270   24.8820 C   0  0  0  0  0  3  0  0  0  0  0  0
  -21.3820   -5.4360   24.8530 C   0  0  0  0  0  0  0  0  0  0  0  0
  -21.7700   -4.8110   23.6560 C   0  0  0  0  0  3  0  0  0  0  0  0
  -21.9380   -5.5740   22.4860 C   0  0  0  0  0  0  0  0  0  0  0  0
  -22.2890   -4.9600   21.3300 F   0  0  0  0  0  0  0  0  0  0  0  0
  -21.2150   -4.6990   25.9770 F   0  0  0  0  0  0  0  0  0  0  0  0
  -23.8960  -14.0630   21.5500 C   0  0  0  0  0  0  0  0  0  0  0  0
  -23.3240  -13.3400   22.5050 N   0  0  0  0  0  0  0  0  0  0  0  0
  -23.5060  -15.2010   21.2900 O   0  0  0  0  0  0  0  0  0  0  0  0
  -23.6590  -12.4140   22.7310 H   0  0  0  0  0  0  0  0  0  0  0  0
  -22.5360  -13.7150   23.0170 H   0  0  0  0  0  0  0  0  0  0  0  0
  -26.4370  -15.5260   20.2550 N   0  0  0  0  0  0  0  0  0  0  0  0
  -25.8390  -16.2290   20.6740 H   0  0  0  0  0  0  0  0  0  0  0  0
  -27.2130  -15.9190   19.7430 H   0  0  0  0  0  0  0  0  0  0  0  0
  -29.8450  -20.7630   18.4090 C   0  0  0  0  0 15  0  0  0  0  0  0
  -29.0230  -22.7990   18.8890 C   0  0  0  0  0 15  0  0  0  0  0  0
  -28.5440  -24.7220   18.4650 O   0  0  0  0  0  1  0  0  0  0  0  0
  -24.8050  -31.0120   22.2920 C   0  0  0  0  0  0  0  0  0  0  0  0
  -27.4840  -26.0290   18.6980 C   0  0  0  0  0  0  0  0  0  0  0  0
  -23.6110  -29.6450   20.6370 C   0  0  0  0  0  3  0  0  0  0  0  0
  -25.0680  -28.1490   18.9990 C   0  0  0  0  0  0  0  0  0  0  0  0
  -26.1810  -29.8800   20.3650 C   0  0  0  0  0  2  0  0  0  0  0  0
  -26.3010  -28.4640   19.5830 C   0  0  0  0  0  0  0  0  0  0  0  0
  -27.4600  -27.4570   19.3920 C   0  0  0  0  0  3  0  0  0  0  0  0
  -26.1800  -26.0510   18.0740 C   0  0  0  0  0  3  0  0  0  0  0  0
  -25.0700  -26.9740   18.2150 C   0  0  0  0  0  3  0  0  0  0  0  0
  -23.8130  -29.0510   19.2040 C   0  0  0  0  0  2  0  0  0  0  0  0
  -24.8980  -30.2230   21.1510 N   0  0  0  0  0  0  0  0  0  0  0  0
  -23.7290  -31.1910   22.8930 O   0  0  0  0  0  0  0  0  0  0  0  0
  -23.0210  -28.5700   21.5920 C   0  0  0  0  0  0  0  0  0  0  0  0
  -21.7240  -28.2200   21.4600 N   0  0  0  0  0  0  0  0  0  0  0  0
  -23.7550  -28.0390   22.4290 O   0  0  0  0  0  0  0  0  0  0  0  0
  -21.1680  -28.6980   20.7650 H   0  0  0  0  0  0  0  0  0  0  0  0
  -18.5870  -26.4230   21.9290 C   0  0  0  0  0  0  0  0  0  0  0  0
  -21.0600  -27.1360   22.2060 C   0  0  0  0  0  3  0  0  0  0  0  0
  -21.4090  -25.7540   21.6020 C   0  0  0  0  0  2  0  0  0  0  0  0
  -20.3840  -25.2690   20.5730 C   0  0  0  0  0  2  0  0  0  0  0  0
  -18.9980  -25.1490   21.2110 C   0  0  0  0  0  2  0  0  0  0  0  0
  -19.5520  -27.3640   22.3810 C   0  0  0  0  0  0  0  0  0  0  0  0
  -19.1110  -28.5420   23.0220 C   0  0  0  0  0  3  0  0  0  0  0  0
  -17.7370  -28.7890   23.2110 C   0  0  0  0  0  3  0  0  0  0  0  0
  -16.7870  -27.8500   22.7700 C   0  0  0  0  0  3  0  0  0  0  0  0
  -17.2110  -26.6680   22.1360 C   0  0  0  0  0  3  0  0  0  0  0  0
  -26.0400  -31.7380   22.9100 C   0  0  0  0  0  3  0  0  0  0  0  0
  -25.5910  -33.0090   23.5260 N   0  0  0  0  0  0  0  0  0  0  0  0
  -25.7870  -34.2340   23.0210 C   0  0  0  0  0  0  0  0  0  0  0  0
  -26.4090  -34.4240   21.9740 O   0  0  0  0  0  0  0  0  0  0  0  0
  -25.0220  -32.9250   24.3550 H   0  0  0  0  0  0  0  0  0  0  0  0
  -23.9080  -35.9190   23.1190 C   0  0  0  0  0  1  0  0  0  0  0  0
  -25.2070  -35.4430   23.7900 C   0  0  0  0  0  3  0  0  0  0  0  0
  -27.2840  -36.3180   24.7770 C   0  0  0  0  0  1  0  0  0  0  0  0
  -26.1450  -36.5850   23.9020 N   0  0  0  0  0  0  0  0  0  0  0  0
  -25.6680  -37.4140   24.2470 H   0  0  0  0  0  0  0  0  0  0  0  0
  -26.7820  -30.8700   24.0040 C   0  0  1  0  0  0  0  0  0  0  0  0
  -25.8530  -30.3480   25.1280 C   0  0  0  0  0  1  0  0  0  0  0  0
  -27.4740  -29.6430   23.3750 C   0  0  0  0  0  1  0  0  0  0  0  0
  -27.9070  -31.7050   24.6640 C   0  0  0  0  0  1  0  0  0  0  0  0
  2  1  1  0
  2 19  1  0
  4  3  1  0
  7 13  1  0
  8 13  1  0
  9 10  1  0
  9  8  1  0
 11 10  1  0
 11 24  1  0
 11 12  1  0
 13 12  1  0
 14  7  1  0
 16 19  1  0
 17 15  1  0
 18 16  1  0
 19 15  1  0
 20 18  1  0
 20 17  1  0
 21 22  2  0
 22 41  1  0
 23 26  1  0
 23 22  1  0
 24 25  1  0
 24 21  1  0
 25 23  2  0
 26 27  1  0
 27 28  2  0
 29 32  1  0
 29 28  1  0
 30 29  2  0
 31 30  1  0
 31 26  2  0
 32 33  1  0
 33 34  1  0
 34 35  2  0
 36 35  1  0
 36 40  1  0
 37 36  2  0
 38 33  2  0
 38 37  1  0
 39 38  1  0
 41 42  1  0
 42 44  1  0
 42 45  1  0
 43 41  2  0
 46 21  1  0
 46 47  1  0
 48 46  1  0
 51 53  1  0
 52 63  2  0
 53 58  1  0
 54 62  1  0
 54 64  1  0
 55 61  1  0
 55 57  1  0
 56 62  1  0
 57 56  1  0
 58 57  2  0
 59 60  1  0
 59 53  2  0
 60 55  2  0
 61 54  1  0
 62 52  1  0
 64 66  2  0
 65 64  1  0
 67 65  1  0
 68 77  2  0
 68 73  1  0
 69 65  1  0
 69 73  1  0
 70 69  1  0
 71 72  1  0
 71 70  1  0
 72 68  1  0
 73 74  2  0
 74 75  1  0
 76 75  2  0
 77 76  1  0
 78 52  1  0
 78 79  1  0
 78 88  1  0
 79 82  1  0
 80 79  1  0
 80 84  1  0
 81 80  2  0
 84 83  1  0
 84 86  1  0
 86 87  1  0
 86 85  1  0
 88 91  1  1
 88 89  1  0
 90 88  1  0
M  ISO  4   7 100  20 100  50 101  51 101
M  END
>  <TORSDO>  (23) 
F 18

>  <SCORE>  (23) 
-6.742

>  <name>  (23) 
22

>  <ligand_id>  (23) 
22

>  <original_smiles>  (23) 
[H]c1c([H])c([H])c2c(c1[H])C([H])([H])C([H])([H])C([H])([H])C2([H])N([H])C(=O)C1([H])N(C(=O)C([H])(N([H])C(=O)C([H])(N([H])C([H])([H])[H])C([H])([H])[H])C(C([H])([H])[H])(C([H])([H])[H])C([H])([H])[H])C([H])([H])c2c([H])c(OC([H])([H])C([H])([H])n3nc(C([H])([H])[H])c([H])c3C3([H])C([H])([H])C([H])([H])N(C(=O)N4C([H])([H])C([H])([H])C([H])([H])C([H])(n5nc(-c6c([H])c([H])c(Oc7c([H])c([H])c(F)c([H])c7F)c([H])c6[H])c(C(=O)N([H])[H])c5N([H])[H])C4([H])[H])C([H])([H])C3([H])[H])c([H])c([H])c2C1([H])[H]

>  <smiles>  (23) 
[H]c1c([H])c([H])c2c(c1[H])C([H])([H])C([H])([H])C([H])([H])C2([H])N([H])C(=O)C1([H])N(C(=O)C([H])(N([H])C(=O)C([H])(N([H])C([H])([H])[H])C([H])([H])[H])C(C([H])([H])[H])(C([H])([H])[H])C([H])([H])[H])C([H])([H])c2c([H])c(OC([H])([H])C([H])([H])n3nc(C([H])([H])[H])c([H])c3C3([H])C([H])([H])C([H])([H])N(C(=O)N4C([H])([H])C([H])([H])C([H])([H])C([H])(n5nc(-c6c([H])c([H])c(Oc7c([H])c([H])c(F)c([H])c7F)c([H])c6[H])c(C(=O)N([H])[H])c5N([H])[H])C4([H])[H])C([H])([H])C3([H])[H])c([H])c([H])c2C1([H])[H]

$$$$
23:0:0
     RDKit          3D

 96105  0  0  1  0  0  0  0  0999 V2000
  -30.5620  -21.6410   20.9800 C   0  0  0  0  0  3  0  0  0  0  0  0
  -28.4750  -22.3040   20.0100 C   0  0  0  0  0  3  0  0  0  0  0  0
  -29.3700  -21.2250   20.3540 C   0  0  0  0  0  0  0  0  0  0  0  0
  -30.7970  -23.0130   21.2360 C   0  0  0  0  0  0  0  0  0  0  0  0
  -28.7760  -23.6910   20.2920 C   0  0  0  0  0  0  0  0  0  0  0  0
  -32.0790  -23.4630   21.9040 C   0  0  0  0  0  1  0  0  0  0  0  0
  -29.9370  -24.0080   20.9060 N   0  0  0  0  0  0  0  0  0  0  0  0
  -29.5830  -18.4940   20.9460 C   0  0  0  0  0  2  0  0  0  0  0  0
  -29.7420  -19.2690   18.6590 C   0  0  0  0  0  2  0  0  0  0  0  0
  -29.1190  -19.6950   19.9970 C   0  0  0  0  0  3  0  0  0  0  0  0
  -30.1810  -17.2850   20.0840 C   0  0  0  0  0  3  0  0  0  0  0  0
  -29.7670  -17.7170   18.6570 C   0  0  0  0  0  3  0  0  0  0  0  0
  -30.5450  -14.6950   20.1130 C   0  0  0  0  0  0  0  0  0  0  0  0
  -30.2660  -12.4490   19.0730 C   0  0  0  0  0  2  0  0  0  0  0  0
  -29.2750  -12.5650   17.8940 C   0  0  0  0  0  2  0  0  0  0  0  0
  -27.8290  -12.3850   18.3900 C   0  0  0  0  0  2  0  0  0  0  0  0
  -27.5160  -13.2420   19.6460 C   0  0  0  0  0  3  0  0  0  0  0  0
  -28.6280  -13.1290   20.7120 C   0  0  0  0  0  2  0  0  0  0  0  0
  -29.9000  -13.4810   20.0680 N   0  0  0  0  0  0  0  0  0  0  0  0
  -31.6880  -14.8070   19.6660 O   0  0  0  0  0  0  0  0  0  0  0  0
  -29.8140  -15.8330   20.3980 N   0  0  0  0  0  0  0  0  0  0  0  0
  -28.8810  -15.6730   20.7470 H   0  0  0  0  0  0  0  0  0  0  0  0
  -25.1630  -13.8100   20.5000 C   0  0  0  0  0  0  0  0  0  0  0  0
  -24.1190  -13.0250   20.9050 C   0  0  0  0  0  0  0  0  0  0  0  0
  -24.5830  -11.6760   20.8220 C   0  0  0  0  0  0  0  0  0  0  0  0
  -26.1960  -12.9390   20.1940 N   0  0  0  0  0  0  0  0  0  0  0  0
  -25.8560  -11.6500   20.4490 N   0  0  0  0  0  0  0  0  0  0  0  0
  -23.8680  -10.4080   21.0200 C   0  0  0  0  0  0  0  0  0  0  0  0
  -24.3330   -9.4330   21.9290 C   0  0  0  0  0  3  0  0  0  0  0  0
  -23.6170   -8.2310   22.1160 C   0  0  0  0  0  3  0  0  0  0  0  0
  -22.4230   -7.9940   21.3930 C   0  0  0  0  0  0  0  0  0  0  0  0
  -21.9770   -8.9600   20.4720 C   0  0  0  0  0  3  0  0  0  0  0  0
  -22.6930  -10.1530   20.2840 C   0  0  0  0  0  3  0  0  0  0  0  0
  -21.6780   -6.8440   21.4900 O   0  0  0  0  0  0  0  0  0  0  0  0
  -21.6530   -6.0980   22.6400 C   0  0  0  0  0  0  0  0  0  0  0  0
  -21.2200   -6.6400   23.8710 C   0  0  0  0  0  3  0  0  0  0  0  0
  -21.1430   -5.8190   25.0140 C   0  0  0  0  0  3  0  0  0  0  0  0
  -21.4880   -4.4560   24.9270 C   0  0  0  0  0  0  0  0  0  0  0  0
  -21.9140   -3.9150   23.7020 C   0  0  0  0  0  3  0  0  0  0  0  0
  -21.9930   -4.7330   22.5620 C   0  0  0  0  0  0  0  0  0  0  0  0
  -22.3830   -4.2010   21.3780 F   0  0  0  0  0  0  0  0  0  0  0  0
  -21.4080   -3.6650   26.0230 F   0  0  0  0  0  0  0  0  0  0  0  0
  -22.7340  -13.4930   21.2540 C   0  0  0  0  0  0  0  0  0  0  0  0
  -22.0510  -12.7790   22.1410 N   0  0  0  0  0  0  0  0  0  0  0  0
  -22.2700  -14.5260   20.7750 O   0  0  0  0  0  0  0  0  0  0  0  0
  -22.4400  -11.9450   22.5540 H   0  0  0  0  0  0  0  0  0  0  0  0
  -21.1250  -13.0760   22.4160 H   0  0  0  0  0  0  0  0  0  0  0  0
  -25.3130  -15.1850   20.3440 N   0  0  0  0  0  0  0  0  0  0  0  0
  -24.5480  -15.8290   20.5100 H   0  0  0  0  0  0  0  0  0  0  0  0
  -26.1340  -15.6370   19.9610 H   0  0  0  0  0  0  0  0  0  0  0  0
  -30.6300  -17.1560   17.6010 N   0  0  0  0  0  4  0  0  0  0  0  0
  -31.5640  -17.5190   17.6620 H   0  0  0  0  0  0  0  0  0  0  0  0
  -30.2610  -17.3830   16.6940 H   0  0  0  0  0  0  0  0  0  0  0  0
  -30.6790  -16.1560   17.6750 H   0  0  0  0  0  0  0  0  0  0  0  0
  -27.7870  -24.8780   19.9340 C   0  0  0  0  0  2  0  0  0  0  0  0
  -28.1020  -26.3310   20.1590 O   0  0  0  0  0  0  0  0  0  0  0  0
  -24.4840  -31.8460   23.1790 C   0  0  0  0  0  0  0  0  0  0  0  0
  -27.0180  -27.2410   20.0910 C   0  0  0  0  0  0  0  0  0  0  0  0
  -23.2500  -30.4510   21.5630 C   0  0  0  0  0  3  0  0  0  0  0  0
  -24.6710  -28.9010   20.1090 C   0  0  0  0  0  0  0  0  0  0  0  0
  -25.7930  -30.7500   21.3420 C   0  0  0  0  0  2  0  0  0  0  0  0
  -25.8550  -29.3700   20.6910 C   0  0  0  0  0  0  0  0  0  0  0  0
  -27.0320  -28.5530   20.6730 C   0  0  0  0  0  3  0  0  0  0  0  0
  -25.8080  -26.8480   19.4670 C   0  0  0  0  0  3  0  0  0  0  0  0
  -24.6520  -27.6470   19.4860 C   0  0  0  0  0  3  0  0  0  0  0  0
  -23.4400  -29.7810   20.1780 C   0  0  0  0  0  2  0  0  0  0  0  0
  -24.5290  -31.0340   22.0820 N   0  0  0  0  0  0  0  0  0  0  0  0
  -23.4090  -32.1300   23.7290 O   0  0  0  0  0  0  0  0  0  0  0  0
  -22.5990  -29.4360   22.5320 C   0  0  0  0  0  0  0  0  0  0  0  0
  -21.2710  -29.2580   22.4240 N   0  0  0  0  0  0  0  0  0  0  0  0
  -23.2870  -28.8110   23.3430 O   0  0  0  0  0  0  0  0  0  0  0  0
  -20.7730  -29.8130   21.7410 H   0  0  0  0  0  0  0  0  0  0  0  0
  -17.9000  -28.0600   22.9690 C   0  0  0  0  0  0  0  0  0  0  0  0
  -20.4610  -28.3260   23.2100 C   0  0  0  0  0  3  0  0  0  0  0  0
  -20.5600  -26.8900   22.6440 C   0  0  0  0  0  2  0  0  0  0  0  0
  -19.4460  -26.5590   21.6450 C   0  0  0  0  0  2  0  0  0  0  0  0
  -18.0710  -26.7070   22.3020 C   0  0  0  0  0  2  0  0  0  0  0  0
  -19.0220  -28.8280   23.3820 C   0  0  0  0  0  0  0  0  0  0  0  0
  -18.8070  -30.0950   23.9670 C   0  0  0  0  0  3  0  0  0  0  0  0
  -17.5020  -30.5930   24.1450 C   0  0  0  0  0  3  0  0  0  0  0  0
  -16.3960  -29.8230   23.7470 C   0  0  0  0  0  3  0  0  0  0  0  0
  -16.5960  -28.5590   23.1650 C   0  0  0  0  0  3  0  0  0  0  0  0
  -25.7780  -32.4770   23.7780 C   0  0  0  0  0  3  0  0  0  0  0  0
  -26.3070  -31.7120   25.0530 C   0  0  1  0  0  0  0  0  0  0  0  0
  -25.2250  -31.4880   26.1370 C   0  0  0  0  0  1  0  0  0  0  0  0
  -26.8790  -30.3290   24.6680 C   0  0  0  0  0  1  0  0  0  0  0  0
  -27.4680  -32.5080   25.6960 C   0  0  0  0  0  1  0  0  0  0  0  0
  -25.4770  -33.8790   24.1030 N   0  0  0  0  0  0  0  0  0  0  0  0
  -25.8030  -34.9270   23.3340 C   0  0  0  0  0  0  0  0  0  0  0  0
  -26.4560  -34.8160   22.2930 O   0  0  0  0  0  0  0  0  0  0  0  0
  -24.8930  -34.0400   24.9110 H   0  0  0  0  0  0  0  0  0  0  0  0
  -24.0820  -36.7310   22.9930 C   0  0  0  0  0  1  0  0  0  0  0  0
  -25.3290  -36.3200   23.7920 C   0  0  0  0  0  3  0  0  0  0  0  0
  -27.4730  -37.1990   24.6040 C   0  0  0  0  0  1  0  0  0  0  0  0
  -26.3670  -37.3660   23.6660 N   0  0  0  0  0  0  0  0  0  0  0  0
  -25.9660  -38.2900   23.8090 H   0  0  0  0  0  0  0  0  0  0  0  0
  1  4  1  0
  2  5  2  0
  2  3  1  0
  3  1  2  0
  4  6  1  0
  5  7  1  0
  7  4  2  0
  9 10  1  0
 10  3  1  0
 10  8  1  0
 11 21  1  0
 11  8  1  0
 12 51  1  0
 12  9  1  0
 12 11  1  0
 13 21  1  0
 14 19  1  0
 15 16  1  0
 15 14  1  0
 17 16  1  0
 17 26  1  0
 17 18  1  0
 19 13  1  0
 19 18  1  0
 20 13  2  0
 21 22  1  0
 23 24  2  0
 24 43  1  0
 25 24  1  0
 25 28  1  0
 26 27  1  0
 26 23  1  0
 27 25  2  0
 28 29  1  0
 29 30  2  0
 31 34  1  0
 31 30  1  0
 32 31  2  0
 33 32  1  0
 33 28  2  0
 34 35  1  0
 35 36  1  0
 36 37  2  0
 38 37  1  0
 38 42  1  0
 39 38  2  0
 40 35  2  0
 40 39  1  0
 41 40  1  0
 43 44  1  0
 44 47  1  0
 44 46  1  0
 45 43  2  0
 48 23  1  0
 48 49  1  0
 50 48  1  0
 51 52  1  0
 51 54  1  0
 53 51  1  0
 55 56  1  0
 55  5  1  0
 57 68  2  0
 58 56  1  0
 58 63  1  0
 59 67  1  0
 59 69  1  0
 60 66  1  0
 60 62  1  0
 61 67  1  0
 62 61  1  0
 63 62  2  0
 64 65  1  0
 64 58  2  0
 65 60  2  0
 66 59  1  0
 67 57  1  0
 69 71  2  0
 70 69  1  0
 72 70  1  0
 73 82  2  0
 73 78  1  0
 74 70  1  0
 74 78  1  0
 75 74  1  0
 76 77  1  0
 76 75  1  0
 77 73  1  0
 78 79  2  0
 79 80  1  0
 81 80  2  0
 82 81  1  0
 83 57  1  0
 83 88  1  0
 83 84  1  0
 84 87  1  1
 84 85  1  0
 86 84  1  0
 88 91  1  0
 89 93  1  0
 89 88  1  0
 90 89  2  0
 93 92  1  0
 95 93  1  0
 95 96  1  0
 95 94  1  0
M  ISO  4  13 100  21 100  55 101  56 101
M  END
>  <TORSDO>  (24) 
F 19

>  <SCORE>  (24) 
-12.624

>  <name>  (24) 
23

>  <ligand_id>  (24) 
23

>  <original_smiles>  (24) 
[H]c1c([H])c([H])c2c(c1[H])C([H])([H])C([H])([H])C([H])([H])C2([H])N([H])C(=O)C1([H])N(C(=O)C([H])(N([H])C(=O)C([H])(N([H])C([H])([H])[H])C([H])([H])[H])C(C([H])([H])[H])(C([H])([H])[H])C([H])([H])[H])C([H])([H])c2c([H])c(OC([H])([H])c3nc(C([H])([H])[H])c([H])c(C4([H])C([H])([H])C([H])(N([H])C(=O)N5C([H])([H])C([H])([H])C([H])([H])C([H])(n6nc(-c7c([H])c([H])c(Oc8c([H])c([H])c(F)c([H])c8F)c([H])c7[H])c(C(=O)N([H])[H])c6N([H])[H])C5([H])[H])C([H])([N+]([H])([H])[H])C4([H])[H])c3[H])c([H])c([H])c2C1([H])[H]

>  <smiles>  (24) 
[H]c1c([H])c([H])c2c(c1[H])C([H])([H])C([H])([H])C([H])([H])C2([H])N([H])C(=O)C1([H])N(C(=O)C([H])(N([H])C(=O)C([H])(N([H])C([H])([H])[H])C([H])([H])[H])C(C([H])([H])[H])(C([H])([H])[H])C([H])([H])[H])C([H])([H])c2c([H])c(OC([H])([H])c3nc(C([H])([H])[H])c([H])c(C4([H])C([H])([H])C([H])(N([H])C(=O)N5C([H])([H])C([H])([H])C([H])([H])C([H])(n6nc(-c7c([H])c([H])c(Oc8c([H])c([H])c(F)c([H])c8F)c([H])c7[H])c(C(=O)N([H])[H])c6N([H])[H])C5([H])[H])C([H])([N+]([H])([H])[H])C4([H])[H])c3[H])c([H])c([H])c2C1([H])[H]

$$$$
24:0:0
     RDKit          3D

 92101  0  0  1  0  0  0  0  0999 V2000
  -29.5410  -20.8820   20.2410 N   0  0  0  0  0  4  0  0  0  0  0  0
  -30.3660  -20.9530   20.8130 H   0  0  0  0  0  0  0  0  0  0  0  0
  -29.8800  -20.9890   19.2990 H   0  0  0  0  0  0  0  0  0  0  0  0
  -28.0610  -23.2970   19.5690 C   0  0  0  0  0  2  0  0  0  0  0  0
  -29.3730  -23.6200   21.0520 C   0  0  0  0  0  2  0  0  0  0  0  0
  -28.6800  -22.2180   20.6200 C   0  0  0  0  0  3  0  0  0  0  0  0
  -28.1440  -24.5650   20.5830 C   0  0  0  0  0  3  0  0  0  0  0  0
  -28.2850  -26.1330   20.3000 O   0  0  0  0  0  0  0  0  0  0  0  0
  -24.5990  -31.8910   23.2270 C   0  0  0  0  0  0  0  0  0  0  0  0
  -27.2030  -27.1170   20.2610 C   0  0  0  0  0  0  0  0  0  0  0  0
  -23.4070  -30.4840   21.5880 C   0  0  0  0  0  3  0  0  0  0  0  0
  -24.8660  -28.8910   20.1820 C   0  0  0  0  0  0  0  0  0  0  0  0
  -25.9610  -30.7480   21.4230 C   0  0  0  0  0  2  0  0  0  0  0  0
  -26.0440  -29.3400   20.7920 C   0  0  0  0  0  0  0  0  0  0  0  0
  -27.2090  -28.4780   20.8000 C   0  0  0  0  0  3  0  0  0  0  0  0
  -25.9950  -26.7780   19.6090 C   0  0  0  0  0  3  0  0  0  0  0  0
  -24.8610  -27.6270   19.5670 C   0  0  0  0  0  3  0  0  0  0  0  0
  -23.6370  -29.7930   20.2160 C   0  0  0  0  0  2  0  0  0  0  0  0
  -24.6770  -31.0690   22.1330 N   0  0  0  0  0  0  0  0  0  0  0  0
  -23.5110  -32.1710   23.7560 O   0  0  0  0  0  0  0  0  0  0  0  0
  -22.7240  -29.4870   22.5580 C   0  0  0  0  0  0  0  0  0  0  0  0
  -21.3960  -29.3110   22.4300 N   0  0  0  0  0  0  0  0  0  0  0  0
  -23.3930  -28.8740   23.3930 O   0  0  0  0  0  0  0  0  0  0  0  0
  -20.9120  -29.8620   21.7350 H   0  0  0  0  0  0  0  0  0  0  0  0
  -18.0210  -28.0800   22.9160 C   0  0  0  0  0  0  0  0  0  0  0  0
  -20.5770  -28.3730   23.2030 C   0  0  0  0  0  3  0  0  0  0  0  0
  -20.6960  -26.9370   22.6420 C   0  0  0  0  0  2  0  0  0  0  0  0
  -19.6050  -26.5900   21.6240 C   0  0  0  0  0  2  0  0  0  0  0  0
  -18.2170  -26.7260   22.2540 C   0  0  0  0  0  2  0  0  0  0  0  0
  -19.1280  -28.8600   23.3480 C   0  0  0  0  0  0  0  0  0  0  0  0
  -18.8880  -30.1230   23.9310 C   0  0  0  0  0  3  0  0  0  0  0  0
  -17.5750  -30.6070   24.0870 C   0  0  0  0  0  3  0  0  0  0  0  0
  -16.4840  -29.8270   23.6680 C   0  0  0  0  0  3  0  0  0  0  0  0
  -16.7080  -28.5650   23.0870 C   0  0  0  0  0  3  0  0  0  0  0  0
  -25.8730  -32.5350   23.8570 C   0  0  0  0  0  3  0  0  0  0  0  0
  -25.5560  -33.9370   24.1810 N   0  0  0  0  0  0  0  0  0  0  0  0
  -25.8970  -34.9920   23.4290 C   0  0  0  0  0  0  0  0  0  0  0  0
  -26.5720  -34.8890   22.4010 O   0  0  0  0  0  0  0  0  0  0  0  0
  -24.9630  -34.0930   24.9820 H   0  0  0  0  0  0  0  0  0  0  0  0
  -24.1830  -36.7990   23.0640 C   0  0  0  0  0  1  0  0  0  0  0  0
  -25.4110  -36.3810   23.8870 C   0  0  0  0  0  3  0  0  0  0  0  0
  -27.5400  -37.2580   24.7420 C   0  0  0  0  0  1  0  0  0  0  0  0
  -26.4480  -37.4320   23.7890 N   0  0  0  0  0  0  0  0  0  0  0  0
  -26.0420  -38.3530   23.9320 H   0  0  0  0  0  0  0  0  0  0  0  0
  -26.3750  -31.7760   25.1460 C   0  0  1  0  0  0  0  0  0  0  0  0
  -25.2720  -31.5540   26.2060 C   0  0  0  0  0  1  0  0  0  0  0  0
  -26.9560  -30.3920   24.7770 C   0  0  0  0  0  1  0  0  0  0  0  0
  -27.5210  -32.5750   25.8080 C   0  0  0  0  0  1  0  0  0  0  0  0
  -29.1080  -19.3200   20.3950 C   0  0  0  0  0  2  0  0  0  0  0  0
  -30.4010  -15.1250   19.8430 C   0  0  0  0  0  0  0  0  0  0  0  0
  -30.1670  -12.7820   18.7980 C   0  0  0  0  0  2  0  0  0  0  0  0
  -29.1450  -12.7270   17.6330 C   0  0  0  0  0  2  0  0  0  0  0  0
  -27.7300  -12.4740   18.1790 C   0  0  0  0  0  2  0  0  0  0  0  0
  -27.4050  -13.3740   19.3960 C   0  0  0  0  0  3  0  0  0  0  0  0
  -28.5400  -13.3970   20.4390 C   0  0  0  0  0  2  0  0  0  0  0  0
  -29.7620  -13.8670   19.7610 N   0  0  0  0  0  0  0  0  0  0  0  0
  -31.5100  -15.1680   19.2940 O   0  0  0  0  0  0  0  0  0  0  0  0
  -31.2760  -18.0680   21.2400 C   0  0  0  0  0  2  0  0  0  0  0  0
  -29.7150  -16.3050   21.8520 C   0  0  0  0  0  2  0  0  0  0  0  0
  -30.1490  -17.9250   20.1980 C   0  0  0  0  0  3  0  0  0  0  0  0
  -30.9170  -17.1140   22.4000 C   0  0  2  0  0  0  0  0  0  0  0  0
  -30.5420  -17.8680   23.6920 C   0  0  0  0  0  1  0  0  0  0  0  0
  -32.1190  -16.1990   22.7210 C   0  0  0  0  0  1  0  0  0  0  0  0
  -29.8020  -16.3430   20.3860 N   0  0  0  0  0  0  0  0  0  0  0  0
  -25.0940  -13.9270   20.3320 C   0  0  0  0  0  0  0  0  0  0  0  0
  -24.0660  -13.1440   20.7800 C   0  0  0  0  0  0  0  0  0  0  0  0
  -24.5330  -11.7970   20.6990 C   0  0  0  0  0  0  0  0  0  0  0  0
  -26.1150  -13.0550   19.9970 N   0  0  0  0  0  0  0  0  0  0  0  0
  -25.7930  -11.7680   20.2830 N   0  0  0  0  0  0  0  0  0  0  0  0
  -23.8270  -10.5310   20.9400 C   0  0  0  0  0  0  0  0  0  0  0  0
  -24.2930   -9.5930   21.8890 C   0  0  0  0  0  3  0  0  0  0  0  0
  -23.5880   -8.3910   22.1160 C   0  0  0  0  0  3  0  0  0  0  0  0
  -22.4010   -8.1170   21.3950 C   0  0  0  0  0  0  0  0  0  0  0  0
  -21.9570   -9.0400   20.4310 C   0  0  0  0  0  3  0  0  0  0  0  0
  -22.6630  -10.2330   20.2030 C   0  0  0  0  0  3  0  0  0  0  0  0
  -21.6670   -6.9630   21.5250 O   0  0  0  0  0  0  0  0  0  0  0  0
  -21.5970   -6.2850   22.7140 C   0  0  0  0  0  0  0  0  0  0  0  0
  -21.1260   -6.8970   23.8960 C   0  0  0  0  0  3  0  0  0  0  0  0
  -21.0090   -6.1450   25.0820 C   0  0  0  0  0  3  0  0  0  0  0  0
  -21.3520   -4.7790   25.0870 C   0  0  0  0  0  0  0  0  0  0  0  0
  -21.8080   -4.1630   23.9070 C   0  0  0  0  0  3  0  0  0  0  0  0
  -21.9320   -4.9160   22.7250 C   0  0  0  0  0  0  0  0  0  0  0  0
  -22.3580   -4.3140   21.5890 F   0  0  0  0  0  0  0  0  0  0  0  0
  -21.2330   -4.0530   26.2220 F   0  0  0  0  0  0  0  0  0  0  0  0
  -22.6940  -13.6130   21.1680 C   0  0  0  0  0  0  0  0  0  0  0  0
  -22.0460  -12.9120   22.0890 N   0  0  0  0  0  0  0  0  0  0  0  0
  -22.2120  -14.6410   20.6930 O   0  0  0  0  0  0  0  0  0  0  0  0
  -22.4580  -12.0870   22.5030 H   0  0  0  0  0  0  0  0  0  0  0  0
  -21.1250  -13.2010   22.3850 H   0  0  0  0  0  0  0  0  0  0  0  0
  -25.2460  -15.2970   20.1520 N   0  0  0  0  0  0  0  0  0  0  0  0
  -24.4940  -15.9570   20.3290 H   0  0  0  0  0  0  0  0  0  0  0  0
  -26.0690  -15.7320   19.7570 H   0  0  0  0  0  0  0  0  0  0  0  0
  1 49  1  0
  1  2  1  0
  3  1  1  0
  4  7  1  0
  4  6  1  0
  6  1  1  0
  6  5  1  0
  7  8  1  0
  7  5  1  0
  9 20  2  0
 10  8  1  0
 10 15  1  0
 11 19  1  0
 11 21  1  0
 12 18  1  0
 12 14  1  0
 13 19  1  0
 14 15  2  0
 14 13  1  0
 16 10  2  0
 17 16  1  0
 17 12  2  0
 18 11  1  0
 19  9  1  0
 21 23  2  0
 22 21  1  0
 24 22  1  0
 25 34  2  0
 25 30  1  0
 26 22  1  0
 26 30  1  0
 27 26  1  0
 28 29  1  0
 28 27  1  0
 29 25  1  0
 30 31  2  0
 31 32  1  0
 33 32  2  0
 34 33  1  0
 35  9  1  0
 35 36  1  0
 35 45  1  0
 36 39  1  0
 37 41  1  0
 37 36  1  0
 38 37  2  0
 41 40  1  0
 43 41  1  0
 43 44  1  0
 43 42  1  0
 45 48  1  1
 45 46  1  0
 47 45  1  0
 50 64  1  0
 51 56  1  0
 52 53  1  0
 52 51  1  0
 54 53  1  0
 54 68  1  0
 54 55  1  0
 56 50  1  0
 56 55  1  0
 57 50  2  0
 58 61  1  0
 59 61  1  0
 60 64  1  0
 60 49  1  0
 60 58  1  0
 61 63  1  1
 61 62  1  0
 64 59  1  0
 65 66  2  0
 66 85  1  0
 67 66  1  0
 67 70  1  0
 68 69  1  0
 68 65  1  0
 69 67  2  0
 70 71  1  0
 71 72  2  0
 73 76  1  0
 73 72  1  0
 74 73  2  0
 75 74  1  0
 75 70  2  0
 76 77  1  0
 77 82  2  0
 77 78  1  0
 78 79  2  0
 79 80  1  0
 80 84  1  0
 81 80  2  0
 82 81  1  0
 83 82  1  0
 85 86  1  0
 86 89  1  0
 86 88  1  0
 87 85  2  0
 90 91  1  0
 90 65  1  0
 92 90  1  0
M  ISO  4   7 101   8 101  50 100  64 100
M  END
>  <TORSDO>  (25) 
F 18

>  <SCORE>  (25) 
-11.095

>  <name>  (25) 
24

>  <ligand_id>  (25) 
24

>  <original_smiles>  (25) 
[H]c1c([H])c([H])c2c(c1[H])C([H])([H])C([H])([H])C([H])([H])C2([H])N([H])C(=O)C1([H])N(C(=O)C([H])(N([H])C(=O)C([H])(N([H])C([H])([H])[H])C([H])([H])[H])C(C([H])([H])[H])(C([H])([H])[H])C([H])([H])[H])C([H])([H])c2c([H])c(OC3([H])C([H])([H])C([H])([N+]([H])([H])C([H])([H])C4([H])N(C(=O)N5C([H])([H])C([H])([H])C([H])([H])C([H])(n6nc(-c7c([H])c([H])c(Oc8c([H])c([H])c(F)c([H])c8F)c([H])c7[H])c(C(=O)N([H])[H])c6N([H])[H])C5([H])[H])C([H])([H])C(C([H])([H])[H])(C([H])([H])[H])C4([H])[H])C3([H])[H])c([H])c([H])c2C1([H])[H]

>  <smiles>  (25) 
[H]c1c([H])c([H])c2c(c1[H])C([H])([H])C([H])([H])C([H])([H])C2([H])N([H])C(=O)C1([H])N(C(=O)C([H])(N([H])C(=O)C([H])(N([H])C([H])([H])[H])C([H])([H])[H])C(C([H])([H])[H])(C([H])([H])[H])C([H])([H])[H])C([H])([H])c2c([H])c(OC3([H])C([H])([H])C([H])([N+]([H])([H])C([H])([H])C4([H])N(C(=O)N5C([H])([H])C([H])([H])C([H])([H])C([H])(n6nc(-c7c([H])c([H])c(Oc8c([H])c([H])c(F)c([H])c8F)c([H])c7[H])c(C(=O)N([H])[H])c6N([H])[H])C5([H])[H])C([H])([H])C(C([H])([H])[H])(C([H])([H])[H])C4([H])[H])C3([H])[H])c([H])c([H])c2C1([H])[H]

$$$$
25:0:0
     RDKit          3D

 93102  0  0  1  0  0  0  0  0999 V2000
  -29.4460  -22.8660   21.0880 C   0  0  0  0  0  3  0  0  0  0  0  0
  -29.8930  -21.4950   21.1820 C   0  0  0  0  0  3  0  0  0  0  0  0
  -28.2720  -22.2000   19.1640 C   0  0  0  0  0  3  0  0  0  0  0  0
  -28.5700  -23.2950   20.0520 C   0  0  0  0  0  0  0  0  0  0  0  0
  -29.5050  -20.4500   20.2710 C   0  0  0  0  0  0  0  0  0  0  0  0
  -28.6900  -20.8740   19.2540 N   0  0  0  0  0  0  0  0  0  0  0  0
  -29.7610  -18.9060   20.6740 C   0  0  0  0  0  3  0  0  0  0  0  0
  -31.2910  -17.3290   21.3480 C   0  0  0  0  0  0  0  0  0  0  0  0
  -30.6450  -17.8850   22.3750 C   0  0  0  0  0  0  0  0  0  0  0  0
  -30.5560  -17.5750   20.0520 C   0  0  0  0  0  3  0  0  0  0  0  0
  -32.5680  -16.5120   21.4290 C   0  0  0  0  0  1  0  0  0  0  0  0
  -31.0310  -17.8230   23.8370 C   0  0  0  0  0  1  0  0  0  0  0  0
  -29.6480  -18.7260   21.9330 N   0  0  0  0  0  2  0  0  0  0  0  0
  -30.6120  -14.9300   19.4630 C   0  0  0  0  0  0  0  0  0  0  0  0
  -30.2630  -12.6170   18.5070 C   0  0  0  0  0  2  0  0  0  0  0  0
  -29.2080  -12.6450   17.3780 C   0  0  0  0  0  2  0  0  0  0  0  0
  -27.7900  -12.4960   17.9580 C   0  0  0  0  0  2  0  0  0  0  0  0
  -27.5490  -13.4160   19.1840 C   0  0  0  0  0  3  0  0  0  0  0  0
  -28.7160  -13.3650   20.1940 C   0  0  0  0  0  2  0  0  0  0  0  0
  -29.9360  -13.7160   19.4570 N   0  0  0  0  0  0  0  0  0  0  0  0
  -31.7670  -14.9430   19.0310 O   0  0  0  0  0  0  0  0  0  0  0  0
  -29.9630  -16.1410   19.7920 N   0  0  0  0  0  0  0  0  0  0  0  0
  -28.9910  -16.0470   20.0420 H   0  0  0  0  0  0  0  0  0  0  0  0
  -25.2850  -14.0700   20.1850 C   0  0  0  0  0  0  0  0  0  0  0  0
  -24.2350  -13.3280   20.6510 C   0  0  0  0  0  0  0  0  0  0  0  0
  -24.6370  -11.9610   20.5440 C   0  0  0  0  0  0  0  0  0  0  0  0
  -26.2600  -13.1590   19.8170 N   0  0  0  0  0  0  0  0  0  0  0  0
  -25.8850  -11.8830   20.0960 N   0  0  0  0  0  0  0  0  0  0  0  0
  -23.8830  -10.7230   20.7840 C   0  0  0  0  0  0  0  0  0  0  0  0
  -24.3370   -9.7470   21.6970 C   0  0  0  0  0  3  0  0  0  0  0  0
  -23.5840   -8.5750   21.9260 C   0  0  0  0  0  3  0  0  0  0  0  0
  -22.3610   -8.3730   21.2430 C   0  0  0  0  0  0  0  0  0  0  0  0
  -21.9240   -9.3370   20.3170 C   0  0  0  0  0  3  0  0  0  0  0  0
  -22.6790  -10.5000   20.0870 C   0  0  0  0  0  3  0  0  0  0  0  0
  -21.5750   -7.2530   21.3830 O   0  0  0  0  0  0  0  0  0  0  0  0
  -21.5290   -6.5490   22.5580 C   0  0  0  0  0  0  0  0  0  0  0  0
  -21.1540   -7.1570   23.7770 C   0  0  0  0  0  3  0  0  0  0  0  0
  -21.0510   -6.3820   24.9490 C   0  0  0  0  0  3  0  0  0  0  0  0
  -21.3140   -4.9990   24.9050 C   0  0  0  0  0  0  0  0  0  0  0  0
  -21.6810   -4.3910   23.6910 C   0  0  0  0  0  3  0  0  0  0  0  0
  -21.7850   -5.1640   22.5210 C   0  0  0  0  0  0  0  0  0  0  0  0
  -22.1190   -4.5690   21.3510 F   0  0  0  0  0  0  0  0  0  0  0  0
  -21.2080   -4.2520   26.0280 F   0  0  0  0  0  0  0  0  0  0  0  0
  -22.8950  -13.8520   21.0790 C   0  0  0  0  0  0  0  0  0  0  0  0
  -22.2440  -13.1760   22.0180 N   0  0  0  0  0  0  0  0  0  0  0  0
  -22.4400  -14.8950   20.6130 O   0  0  0  0  0  0  0  0  0  0  0  0
  -22.6280  -12.3320   22.4160 H   0  0  0  0  0  0  0  0  0  0  0  0
  -21.3480  -13.5080   22.3470 H   0  0  0  0  0  0  0  0  0  0  0  0
  -25.4840  -15.4370   20.0160 N   0  0  0  0  0  0  0  0  0  0  0  0
  -24.7560  -16.1150   20.2160 H   0  0  0  0  0  0  0  0  0  0  0  0
  -26.2940  -15.8490   19.5730 H   0  0  0  0  0  0  0  0  0  0  0  0
  -27.7440  -24.7080   19.9350 C   0  0  0  0  0  2  0  0  0  0  0  0
  -28.1090  -26.1630   20.3030 O   0  0  0  0  0  0  0  0  0  0  0  0
  -24.5090  -31.9110   23.1660 C   0  0  0  0  0  0  0  0  0  0  0  0
  -27.0710  -27.1640   20.2000 C   0  0  0  0  0  0  0  0  0  0  0  0
  -23.2960  -30.4740   21.5760 C   0  0  0  0  0  3  0  0  0  0  0  0
  -24.7350  -28.8910   20.1640 C   0  0  0  0  0  0  0  0  0  0  0  0
  -25.8470  -30.7530   21.3730 C   0  0  0  0  0  2  0  0  0  0  0  0
  -25.9200  -29.3510   20.7510 C   0  0  0  0  0  0  0  0  0  0  0  0
  -27.0890  -28.5020   20.7590 C   0  0  0  0  0  3  0  0  0  0  0  0
  -25.8600  -26.8170   19.5510 C   0  0  0  0  0  3  0  0  0  0  0  0
  -24.7160  -27.6350   19.5500 C   0  0  0  0  0  3  0  0  0  0  0  0
  -23.5030  -29.7770   20.2060 C   0  0  0  0  0  2  0  0  0  0  0  0
  -24.5700  -31.0700   22.0910 N   0  0  0  0  0  0  0  0  0  0  0  0
  -23.4280  -32.2000   23.7040 O   0  0  0  0  0  0  0  0  0  0  0  0
  -22.6400  -29.4800   22.5650 C   0  0  0  0  0  0  0  0  0  0  0  0
  -21.3170  -29.2700   22.4370 N   0  0  0  0  0  0  0  0  0  0  0  0
  -23.3220  -28.9000   23.4130 O   0  0  0  0  0  0  0  0  0  0  0  0
  -20.8210  -29.7890   21.7260 H   0  0  0  0  0  0  0  0  0  0  0  0
  -17.9730  -27.9640   22.9240 C   0  0  0  0  0  0  0  0  0  0  0  0
  -20.5130  -28.3400   23.2370 C   0  0  0  0  0  3  0  0  0  0  0  0
  -20.6840  -26.8860   22.7410 C   0  0  0  0  0  2  0  0  0  0  0  0
  -19.6200  -26.4670   21.7200 C   0  0  0  0  0  2  0  0  0  0  0  0
  -18.2180  -26.5900   22.3230 C   0  0  0  0  0  2  0  0  0  0  0  0
  -19.0500  -28.7920   23.3380 C   0  0  0  0  0  0  0  0  0  0  0  0
  -18.7660  -30.0730   23.8600 C   0  0  0  0  0  3  0  0  0  0  0  0
  -17.4390  -30.5280   23.9710 C   0  0  0  0  0  3  0  0  0  0  0  0
  -16.3770  -29.6990   23.5710 C   0  0  0  0  0  3  0  0  0  0  0  0
  -16.6440  -28.4190   23.0540 C   0  0  0  0  0  3  0  0  0  0  0  0
  -25.7920  -32.5670   23.7610 C   0  0  0  0  0  3  0  0  0  0  0  0
  -25.4690  -33.9660   24.0840 N   0  0  0  0  0  0  0  0  0  0  0  0
  -25.7750  -35.0170   23.3120 C   0  0  0  0  0  0  0  0  0  0  0  0
  -26.4250  -34.9130   22.2680 O   0  0  0  0  0  0  0  0  0  0  0  0
  -24.8920  -34.1200   24.8970 H   0  0  0  0  0  0  0  0  0  0  0  0
  -24.0230  -36.7930   22.9760 C   0  0  0  0  0  1  0  0  0  0  0  0
  -25.2830  -36.4050   23.7680 C   0  0  0  0  0  3  0  0  0  0  0  0
  -27.4230  -37.3160   24.5550 C   0  0  0  0  0  1  0  0  0  0  0  0
  -26.3030  -37.4670   23.6300 N   0  0  0  0  0  0  0  0  0  0  0  0
  -25.8900  -38.3830   23.7780 H   0  0  0  0  0  0  0  0  0  0  0  0
  -26.3340  -31.8180   25.0400 C   0  0  1  0  0  0  0  0  0  0  0  0
  -25.2580  -31.5710   26.1220 C   0  0  0  0  0  1  0  0  0  0  0  0
  -26.9380  -30.4470   24.6600 C   0  0  0  0  0  1  0  0  0  0  0  0
  -27.4770  -32.6390   25.6820 C   0  0  0  0  0  1  0  0  0  0  0  0
  1  2  1  0
  3  6  2  0
  3  4  1  0
  4  1  2  0
  5  2  2  0
  6  5  1  0
  7  5  1  0
  7 13  1  0
  8 11  1  0
  8  9  2  0
  9 12  1  0
 10 22  1  0
 10  7  1  0
 10  8  1  0
 13  9  1  0
 14 22  1  0
 15 20  1  0
 16 17  1  0
 16 15  1  0
 18 17  1  0
 18 27  1  0
 18 19  1  0
 20 14  1  0
 20 19  1  0
 21 14  2  0
 22 23  1  0
 24 25  2  0
 25 44  1  0
 26 25  1  0
 26 29  1  0
 27 28  1  0
 27 24  1  0
 28 26  2  0
 29 30  1  0
 30 31  2  0
 32 35  1  0
 32 31  1  0
 33 32  2  0
 34 33  1  0
 34 29  2  0
 35 36  1  0
 36 37  1  0
 37 38  2  0
 39 38  1  0
 39 43  1  0
 40 39  2  0
 41 36  2  0
 41 40  1  0
 42 41  1  0
 44 45  1  0
 45 48  1  0
 45 47  1  0
 46 44  2  0
 49 24  1  0
 49 50  1  0
 51 49  1  0
 52  4  1  0
 52 53  1  0
 54 65  2  0
 55 53  1  0
 55 60  1  0
 56 64  1  0
 56 66  1  0
 57 63  1  0
 57 59  1  0
 58 64  1  0
 59 60  2  0
 59 58  1  0
 61 55  2  0
 62 61  1  0
 62 57  2  0
 63 56  1  0
 64 54  1  0
 66 68  2  0
 67 66  1  0
 69 67  1  0
 70 79  2  0
 70 75  1  0
 71 67  1  0
 71 75  1  0
 72 71  1  0
 73 74  1  0
 73 72  1  0
 74 70  1  0
 75 76  2  0
 76 77  1  0
 78 77  2  0
 79 78  1  0
 80 54  1  0
 80 81  1  0
 80 90  1  0
 81 84  1  0
 82 86  1  0
 82 81  1  0
 83 82  2  0
 86 85  1  0
 88 86  1  0
 88 89  1  0
 88 87  1  0
 90 93  1  1
 90 91  1  0
 92 90  1  0
M  ISO  4  14 100  22 100  52 101  53 101
M  END
>  <TORSDO>  (26) 
F 18

>  <SCORE>  (26) 
-10.733

>  <name>  (26) 
25

>  <ligand_id>  (26) 
25

>  <original_smiles>  (26) 
[H]c1nc(C2=NC(C([H])([H])[H])=C(C([H])([H])[H])C2([H])N([H])C(=O)N2C([H])([H])C([H])([H])C([H])([H])C([H])(n3nc(-c4c([H])c([H])c(Oc5c([H])c([H])c(F)c([H])c5F)c([H])c4[H])c(C(=O)N([H])[H])c3N([H])[H])C2([H])[H])c([H])c([H])c1C([H])([H])Oc1c([H])c([H])c2c(c1[H])C([H])([H])N(C(=O)C([H])(N([H])C(=O)C([H])(N([H])C([H])([H])[H])C([H])([H])[H])C(C([H])([H])[H])(C([H])([H])[H])C([H])([H])[H])C([H])(C(=O)N([H])C1([H])c3c([H])c([H])c([H])c([H])c3C([H])([H])C([H])([H])C1([H])[H])C2([H])[H]

>  <smiles>  (26) 
[H]c1nc(C2=NC(C([H])([H])[H])=C(C([H])([H])[H])C2([H])N([H])C(=O)N2C([H])([H])C([H])([H])C([H])([H])C([H])(n3nc(-c4c([H])c([H])c(Oc5c([H])c([H])c(F)c([H])c5F)c([H])c4[H])c(C(=O)N([H])[H])c3N([H])[H])C2([H])[H])c([H])c([H])c1C([H])([H])Oc1c([H])c([H])c2c(c1[H])C([H])([H])N(C(=O)C([H])(N([H])C(=O)C([H])(N([H])C([H])([H])[H])C([H])([H])[H])C(C([H])([H])[H])(C([H])([H])[H])C([H])([H])[H])C([H])(C(=O)N([H])C1([H])c3c([H])c([H])c([H])c([H])c3C([H])([H])C([H])([H])C1([H])[H])C2([H])[H]

$$$$
26:0:0
     RDKit          3D

 93102  0  0  1  0  0  0  0  0999 V2000
  -28.4090  -22.5450   20.4350 C   0  0  0  0  0  3  0  0  0  0  0  0
  -28.8930  -23.8650   20.2200 C   0  0  0  0  0  0  0  0  0  0  0  0
  -29.3170  -21.4670   20.4550 C   0  0  0  0  0  0  0  0  0  0  0  0
  -31.0050  -22.9840   20.0980 C   0  0  0  0  0  0  0  0  0  0  0  0
  -32.4860  -23.2180   19.8910 C   0  0  0  0  0  1  0  0  0  0  0  0
  -30.2170  -24.0620   20.0560 N   0  0  0  0  0  0  0  0  0  0  0  0
  -30.6250  -21.7140   20.2810 N   0  0  0  0  0  0  0  0  0  0  0  0
  -28.8780  -20.1300   20.6550 N   0  0  0  0  0  0  0  0  0  0  0  0
  -27.8810  -20.0160   20.8000 H   0  0  0  0  0  0  0  0  0  0  0  0
  -30.6810  -14.6040   20.1180 C   0  0  0  0  0  0  0  0  0  0  0  0
  -30.3120  -12.4120   19.0340 C   0  0  0  0  0  2  0  0  0  0  0  0
  -29.3220  -12.5800   17.8630 C   0  0  0  0  0  2  0  0  0  0  0  0
  -27.8730  -12.4280   18.3640 C   0  0  0  0  0  2  0  0  0  0  0  0
  -27.5800  -13.2770   19.6310 C   0  0  0  0  0  3  0  0  0  0  0  0
  -28.6940  -13.1360   20.6920 C   0  0  0  0  0  2  0  0  0  0  0  0
  -29.9720  -13.4380   20.0390 N   0  0  0  0  0  0  0  0  0  0  0  0
  -31.8490  -14.6650   19.7240 O   0  0  0  0  0  0  0  0  0  0  0  0
  -28.9530  -17.9370   19.4100 C   0  0  0  0  0  2  0  0  0  0  0  0
  -29.8180  -18.0060   21.6880 C   0  0  0  0  0  2  0  0  0  0  0  0
  -29.7220  -16.6010   19.1680 C   0  0  0  0  0  2  0  0  0  0  0  0
  -30.5690  -16.6550   21.4340 C   0  0  0  0  0  2  0  0  0  0  0  0
  -29.6500  -18.8780   20.4200 C   0  0  0  0  0  3  0  0  0  0  0  0
  -30.0060  -15.7770   20.3740 N   0  0  0  0  0  0  0  0  0  0  0  0
  -25.2320  -13.8580   20.4920 C   0  0  0  0  0  0  0  0  0  0  0  0
  -24.1810  -13.0780   20.8890 C   0  0  0  0  0  0  0  0  0  0  0  0
  -24.6340  -11.7270   20.7970 C   0  0  0  0  0  0  0  0  0  0  0  0
  -26.2590  -12.9830   20.1800 N   0  0  0  0  0  0  0  0  0  0  0  0
  -25.9080  -11.6930   20.4250 N   0  0  0  0  0  0  0  0  0  0  0  0
  -23.9110  -10.4610   20.9870 C   0  0  0  0  0  0  0  0  0  0  0  0
  -24.3520   -9.4890   21.9100 C   0  0  0  0  0  3  0  0  0  0  0  0
  -23.6290   -8.2900   22.0890 C   0  0  0  0  0  3  0  0  0  0  0  0
  -22.4500   -8.0540   21.3430 C   0  0  0  0  0  0  0  0  0  0  0  0
  -22.0270   -9.0160   20.4080 C   0  0  0  0  0  3  0  0  0  0  0  0
  -22.7510  -10.2050   20.2270 C   0  0  0  0  0  3  0  0  0  0  0  0
  -21.6970   -6.9080   21.4310 O   0  0  0  0  0  0  0  0  0  0  0  0
  -21.6120   -6.1900   22.5970 C   0  0  0  0  0  0  0  0  0  0  0  0
  -21.1200   -6.7640   23.7900 C   0  0  0  0  0  3  0  0  0  0  0  0
  -20.9830   -5.9710   24.9470 C   0  0  0  0  0  3  0  0  0  0  0  0
  -21.3290   -4.6070   24.9120 C   0  0  0  0  0  0  0  0  0  0  0  0
  -21.8140   -4.0330   23.7240 C   0  0  0  0  0  3  0  0  0  0  0  0
  -21.9520   -4.8230   22.5690 C   0  0  0  0  0  0  0  0  0  0  0  0
  -22.4000   -4.2600   21.4210 F   0  0  0  0  0  0  0  0  0  0  0  0
  -21.1910   -3.8430   26.0210 F   0  0  0  0  0  0  0  0  0  0  0  0
  -22.8010  -13.5520   21.2430 C   0  0  0  0  0  0  0  0  0  0  0  0
  -22.1160  -12.8400   22.1300 N   0  0  0  0  0  0  0  0  0  0  0  0
  -22.3400  -14.5890   20.7670 O   0  0  0  0  0  0  0  0  0  0  0  0
  -22.5020  -12.0010   22.5370 H   0  0  0  0  0  0  0  0  0  0  0  0
  -21.1920  -13.1390   22.4080 H   0  0  0  0  0  0  0  0  0  0  0  0
  -25.3960  -15.2320   20.3470 N   0  0  0  0  0  0  0  0  0  0  0  0
  -24.6440  -15.8900   20.5230 H   0  0  0  0  0  0  0  0  0  0  0  0
  -26.2450  -15.6760   20.0230 H   0  0  0  0  0  0  0  0  0  0  0  0
  -27.9000  -25.0450   20.0220 C   0  0  0  0  0  2  0  0  0  0  0  0
  -28.2600  -26.4650   20.2170 O   0  0  0  0  0  0  0  0  0  0  0  0
  -24.6160  -31.8840   23.2800 C   0  0  0  0  0  0  0  0  0  0  0  0
  -27.1690  -27.3500   20.1560 C   0  0  0  0  0  0  0  0  0  0  0  0
  -23.3930  -30.5150   21.6330 C   0  0  0  0  0  3  0  0  0  0  0  0
  -24.8220  -28.9830   20.1790 C   0  0  0  0  0  0  0  0  0  0  0  0
  -25.9360  -30.8160   21.4430 C   0  0  0  0  0  2  0  0  0  0  0  0
  -26.0000  -29.4490   20.7780 C   0  0  0  0  0  0  0  0  0  0  0  0
  -27.1780  -28.6430   20.7630 C   0  0  0  0  0  3  0  0  0  0  0  0
  -25.9660  -26.9540   19.5170 C   0  0  0  0  0  3  0  0  0  0  0  0
  -24.8060  -27.7400   19.5400 C   0  0  0  0  0  3  0  0  0  0  0  0
  -23.5930  -29.8620   20.2430 C   0  0  0  0  0  2  0  0  0  0  0  0
  -24.6680  -31.0860   22.1740 N   0  0  0  0  0  0  0  0  0  0  0  0
  -23.5370  -32.1650   23.8210 O   0  0  0  0  0  0  0  0  0  0  0  0
  -22.7290  -29.4870   22.5800 C   0  0  0  0  0  0  0  0  0  0  0  0
  -21.4030  -29.3090   22.4450 N   0  0  0  0  0  0  0  0  0  0  0  0
  -23.4040  -28.8570   23.3990 O   0  0  0  0  0  0  0  0  0  0  0  0
  -20.9190  -29.8690   21.7590 H   0  0  0  0  0  0  0  0  0  0  0  0
  -18.0230  -28.1100   22.9160 C   0  0  0  0  0  0  0  0  0  0  0  0
  -20.5790  -28.3700   23.2080 C   0  0  0  0  0  3  0  0  0  0  0  0
  -20.6860  -26.9380   22.6330 C   0  0  0  0  0  2  0  0  0  0  0  0
  -19.5930  -26.6170   21.6090 C   0  0  0  0  0  2  0  0  0  0  0  0
  -18.2060  -26.7610   22.2420 C   0  0  0  0  0  2  0  0  0  0  0  0
  -19.1390  -28.8720   23.3560 C   0  0  0  0  0  0  0  0  0  0  0  0
  -18.9150  -30.1340   23.9460 C   0  0  0  0  0  3  0  0  0  0  0  0
  -17.6080  -30.6360   24.1020 C   0  0  0  0  0  3  0  0  0  0  0  0
  -16.5080  -29.8710   23.6790 C   0  0  0  0  0  3  0  0  0  0  0  0
  -16.7160  -28.6090   23.0920 C   0  0  0  0  0  3  0  0  0  0  0  0
  -25.9070  -32.4980   23.9000 C   0  0  0  0  0  3  0  0  0  0  0  0
  -25.6130  -33.8970   24.2380 N   0  0  0  0  0  0  0  0  0  0  0  0
  -25.9230  -34.9480   23.4670 C   0  0  0  0  0  0  0  0  0  0  0  0
  -26.5580  -34.8410   22.4140 O   0  0  0  0  0  0  0  0  0  0  0  0
  -25.0450  -34.0550   25.0570 H   0  0  0  0  0  0  0  0  0  0  0  0
  -24.1750  -36.7340   23.1840 C   0  0  0  0  0  1  0  0  0  0  0  0
  -25.4540  -36.3380   23.9380 C   0  0  0  0  0  3  0  0  0  0  0  0
  -27.6220  -37.2350   24.6630 C   0  0  0  0  0  1  0  0  0  0  0  0
  -26.4780  -37.3930   23.7700 N   0  0  0  0  0  0  0  0  0  0  0  0
  -26.0760  -38.3130   23.9300 H   0  0  0  0  0  0  0  0  0  0  0  0
  -26.4190  -31.7130   25.1710 C   0  0  1  0  0  0  0  0  0  0  0  0
  -25.3240  -31.4800   26.2390 C   0  0  0  0  0  1  0  0  0  0  0  0
  -26.9880  -30.3320   24.7720 C   0  0  0  0  0  1  0  0  0  0  0  0
  -27.5770  -32.4930   25.8360 C   0  0  0  0  0  1  0  0  0  0  0  0
  1  3  1  0
  2  1  2  0
  3  8  1  0
  4  7  1  0
  5  4  1  0
  6  4  2  0
  6  2  1  0
  7  3  2  0
  8  9  1  0
 10 23  1  0
 11 16  1  0
 12 13  1  0
 12 11  1  0
 14 13  1  0
 14 27  1  0
 14 15  1  0
 16 10  1  0
 16 15  1  0
 17 10  2  0
 18 22  1  0
 20 18  1  0
 20 23  1  0
 21 19  1  0
 22  8  1  0
 22 19  1  0
 23 21  1  0
 24 25  2  0
 25 44  1  0
 26 25  1  0
 26 29  1  0
 27 28  1  0
 27 24  1  0
 28 26  2  0
 29 30  1  0
 30 31  2  0
 32 35  1  0
 32 31  1  0
 33 32  2  0
 34 33  1  0
 34 29  2  0
 35 36  1  0
 36 37  1  0
 37 38  2  0
 39 38  1  0
 39 43  1  0
 40 39  2  0
 41 36  2  0
 41 40  1  0
 42 41  1  0
 44 45  1  0
 45 48  1  0
 45 47  1  0
 46 44  2  0
 49 24  1  0
 49 50  1  0
 51 49  1  0
 52 53  1  0
 52  2  1  0
 54 65  2  0
 55 53  1  0
 55 60  1  0
 56 64  1  0
 56 66  1  0
 57 63  1  0
 57 59  1  0
 58 64  1  0
 59 58  1  0
 60 59  2  0
 61 62  1  0
 61 55  2  0
 62 57  2  0
 63 56  1  0
 64 54  1  0
 66 68  2  0
 67 66  1  0
 69 67  1  0
 70 79  2  0
 70 75  1  0
 71 67  1  0
 71 75  1  0
 72 71  1  0
 73 74  1  0
 73 72  1  0
 74 70  1  0
 75 76  2  0
 76 77  1  0
 78 77  2  0
 79 78  1  0
 80 54  1  0
 80 81  1  0
 80 90  1  0
 81 84  1  0
 82 86  1  0
 82 81  1  0
 83 82  2  0
 86 85  1  0
 88 89  1  0
 88 86  1  0
 88 87  1  0
 90 93  1  1
 90 91  1  0
 92 90  1  0
M  ISO  4  10 100  23 100  52 101  53 101
M  END
>  <TORSDO>  (27) 
F 17

>  <SCORE>  (27) 
-15.059

>  <name>  (27) 
26

>  <ligand_id>  (27) 
26

>  <original_smiles>  (27) 
[H]c1c(N([H])C2([H])C([H])([H])C([H])([H])N(C(=O)N3C([H])([H])C([H])([H])C([H])([H])C([H])(n4nc(-c5c([H])c([H])c(Oc6c([H])c([H])c(F)c([H])c6F)c([H])c5[H])c(C(=O)N([H])[H])c4N([H])[H])C3([H])[H])C([H])([H])C2([H])[H])nc(C([H])([H])[H])nc1C([H])([H])Oc1c([H])c([H])c2c(c1[H])C([H])([H])N(C(=O)C([H])(N([H])C(=O)C([H])(N([H])C([H])([H])[H])C([H])([H])[H])C(C([H])([H])[H])(C([H])([H])[H])C([H])([H])[H])C([H])(C(=O)N([H])C1([H])c3c([H])c([H])c([H])c([H])c3C([H])([H])C([H])([H])C1([H])[H])C2([H])[H]

>  <smiles>  (27) 
[H]c1c(N([H])C2([H])C([H])([H])C([H])([H])N(C(=O)N3C([H])([H])C([H])([H])C([H])([H])C([H])(n4nc(-c5c([H])c([H])c(Oc6c([H])c([H])c(F)c([H])c6F)c([H])c5[H])c(C(=O)N([H])[H])c4N([H])[H])C3([H])[H])C([H])([H])C2([H])[H])nc(C([H])([H])[H])nc1C([H])([H])Oc1c([H])c([H])c2c(c1[H])C([H])([H])N(C(=O)C([H])(N([H])C(=O)C([H])(N([H])C([H])([H])[H])C([H])([H])[H])C(C([H])([H])[H])(C([H])([H])[H])C([H])([H])[H])C([H])(C(=O)N([H])C1([H])c3c([H])c([H])c([H])c([H])c3C([H])([H])C([H])([H])C1([H])[H])C2([H])[H]

$$$$
27:0:0
     RDKit          3D

 92101  0  0  1  0  0  0  0  0999 V2000
  -29.2400  -23.0320   20.4670 C   0  0  0  0  0  3  0  0  0  0  0  0
  -29.6540  -21.6500   20.6930 C   0  0  0  0  0  0  0  0  0  0  0  0
  -28.7730  -23.5600   19.2160 C   0  0  0  0  0  0  0  0  0  0  0  0
  -29.6240  -20.6440   19.6580 C   0  0  0  0  0  0  0  0  0  0  0  0
  -28.7880  -22.4860   18.2470 C   0  0  0  0  0  0  0  0  0  0  0  0
  -28.2790  -22.7590   16.8450 C   0  0  0  0  0  1  0  0  0  0  0  0
  -29.1840  -21.1530   18.4530 N   0  0  0  0  0  0  0  0  0  0  0  0
  -31.2170  -15.5740   19.6800 C   0  0  0  0  0  0  0  0  0  0  0  0
  -31.0610  -13.1700   18.8830 C   0  0  0  0  0  2  0  0  0  0  0  0
  -30.0680  -12.9940   17.7150 C   0  0  0  0  0  2  0  0  0  0  0  0
  -28.6480  -12.7530   18.2550 C   0  0  0  0  0  2  0  0  0  0  0  0
  -28.2710  -13.7400   19.3920 C   0  0  0  0  0  3  0  0  0  0  0  0
  -29.3900  -13.9070   20.4400 C   0  0  0  0  0  2  0  0  0  0  0  0
  -30.5890  -14.3260   19.7060 N   0  0  0  0  0  0  0  0  0  0  0  0
  -32.4100  -15.5580   19.3640 O   0  0  0  0  0  0  0  0  0  0  0  0
  -29.4010  -17.6560   20.1310 C   0  0  0  0  0  2  0  0  0  0  0  0
  -30.9850  -18.1180   18.8690 C   0  0  0  0  0  2  0  0  0  0  0  0
  -30.1400  -19.0500   19.8260 C   0  0  0  0  0  3  0  0  0  0  0  0
  -30.5410  -16.8390   19.5560 N   0  0  0  0  0  0  0  0  0  0  0  0
  -25.9760  -14.2720   20.3800 C   0  0  0  0  0  0  0  0  0  0  0  0
  -24.9440  -13.4780   20.7990 C   0  0  0  0  0  0  0  0  0  0  0  0
  -25.3960  -12.1320   20.6530 C   0  0  0  0  0  0  0  0  0  0  0  0
  -26.9880  -13.4090   19.9990 N   0  0  0  0  0  0  0  0  0  0  0  0
  -26.6550  -12.1120   20.2300 N   0  0  0  0  0  0  0  0  0  0  0  0
  -24.6800  -10.8620   20.8350 C   0  0  0  0  0  0  0  0  0  0  0  0
  -25.0020   -9.9740   21.8860 C   0  0  0  0  0  3  0  0  0  0  0  0
  -24.2830   -8.7710   22.0520 C   0  0  0  0  0  3  0  0  0  0  0  0
  -23.2280   -8.4450   21.1670 C   0  0  0  0  0  0  0  0  0  0  0  0
  -22.9260   -9.3220   20.1090 C   0  0  0  0  0  3  0  0  0  0  0  0
  -23.6460  -10.5150   19.9410 C   0  0  0  0  0  3  0  0  0  0  0  0
  -22.4920   -7.2870   21.2360 O   0  0  0  0  0  0  0  0  0  0  0  0
  -21.9980   -6.8180   22.4270 C   0  0  0  0  0  0  0  0  0  0  0  0
  -21.1100   -7.5810   23.2180 C   0  0  0  0  0  3  0  0  0  0  0  0
  -20.5730   -7.0330   24.4000 C   0  0  0  0  0  3  0  0  0  0  0  0
  -20.9120   -5.7230   24.7880 C   0  0  0  0  0  0  0  0  0  0  0  0
  -21.7920   -4.9610   23.9980 C   0  0  0  0  0  3  0  0  0  0  0  0
  -22.3300   -5.5050   22.8200 C   0  0  0  0  0  0  0  0  0  0  0  0
  -23.1600   -4.7590   22.0530 F   0  0  0  0  0  0  0  0  0  0  0  0
  -20.3900   -5.1930   25.9190 F   0  0  0  0  0  0  0  0  0  0  0  0
  -23.5790  -13.9440   21.2140 C   0  0  0  0  0  0  0  0  0  0  0  0
  -22.9470  -13.2380   22.1430 N   0  0  0  0  0  0  0  0  0  0  0  0
  -23.0860  -14.9700   20.7460 O   0  0  0  0  0  0  0  0  0  0  0  0
  -23.3620  -12.4080   22.5410 H   0  0  0  0  0  0  0  0  0  0  0  0
  -22.0340  -13.5310   22.4620 H   0  0  0  0  0  0  0  0  0  0  0  0
  -26.1320  -15.6500   20.2620 N   0  0  0  0  0  0  0  0  0  0  0  0
  -25.3750  -16.2960   20.4620 H   0  0  0  0  0  0  0  0  0  0  0  0
  -26.9410  -16.0990   19.8550 H   0  0  0  0  0  0  0  0  0  0  0  0
  -29.1720  -21.8490   23.1740 C   0  0  0  0  0  1  0  0  0  0  0  0
  -31.5730  -21.6390   22.3640 C   0  0  0  0  0  1  0  0  0  0  0  0
  -30.1050  -21.2640   22.1040 C   0  0  0  0  0  3  0  0  0  0  0  0
  -27.9440  -25.0080   19.0750 C   0  0  0  0  0  2  0  0  0  0  0  0
  -28.3480  -26.5160   19.2430 O   0  0  0  0  0  0  0  0  0  0  0  0
  -24.8580  -31.6200   23.3300 C   0  0  0  0  0  0  0  0  0  0  0  0
  -27.3070  -27.5250   19.3910 C   0  0  0  0  0  0  0  0  0  0  0  0
  -23.5780  -30.4710   21.5680 C   0  0  0  0  0  3  0  0  0  0  0  0
  -24.9560  -29.2090   19.8060 C   0  0  0  0  0  0  0  0  0  0  0  0
  -26.1130  -30.8370   21.2830 C   0  0  0  0  0  2  0  0  0  0  0  0
  -26.1690  -29.5720   20.4040 C   0  0  0  0  0  0  0  0  0  0  0  0
  -27.3450  -28.7480   20.1860 C   0  0  0  0  0  3  0  0  0  0  0  0
  -26.0620  -27.2960   18.7590 C   0  0  0  0  0  3  0  0  0  0  0  0
  -24.9170  -28.0880   18.9680 C   0  0  0  0  0  3  0  0  0  0  0  0
  -23.7170  -30.0440   20.0840 C   0  0  0  0  0  2  0  0  0  0  0  0
  -24.8730  -30.9900   22.1160 N   0  0  0  0  0  0  0  0  0  0  0  0
  -23.8040  -31.7780   23.9680 O   0  0  0  0  0  0  0  0  0  0  0  0
  -22.9920  -29.2960   22.3920 C   0  0  0  0  0  0  0  0  0  0  0  0
  -21.6870  -29.0160   22.2230 N   0  0  0  0  0  0  0  0  0  0  0  0
  -23.7150  -28.6430   23.1510 O   0  0  0  0  0  0  0  0  0  0  0  0
  -21.1580  -29.6020   21.5920 H   0  0  0  0  0  0  0  0  0  0  0  0
  -18.4640  -27.3710   22.4230 C   0  0  0  0  0  0  0  0  0  0  0  0
  -20.9530  -27.9230   22.8650 C   0  0  0  0  0  3  0  0  0  0  0  0
  -21.2640  -26.5690   22.1850 C   0  0  0  0  0  2  0  0  0  0  0  0
  -20.2650  -26.2040   21.0830 C   0  0  0  0  0  2  0  0  0  0  0  0
  -18.8450  -26.1210   21.6500 C   0  0  0  0  0  2  0  0  0  0  0  0
  -19.4530  -28.2260   22.9790 C   0  0  0  0  0  0  0  0  0  0  0  0
  -19.0440  -29.3920   23.6610 C   0  0  0  0  0  3  0  0  0  0  0  0
  -17.6790  -29.7090   23.7920 C   0  0  0  0  0  3  0  0  0  0  0  0
  -16.7040  -28.8540   23.2500 C   0  0  0  0  0  3  0  0  0  0  0  0
  -17.0970  -27.6860   22.5730 C   0  0  0  0  0  3  0  0  0  0  0  0
  -26.1590  -32.1910   23.9690 C   0  0  0  0  0  3  0  0  0  0  0  0
  -25.8710  -33.5580   24.4290 N   0  0  0  0  0  0  0  0  0  0  0  0
  -26.1620  -34.6740   23.7470 C   0  0  0  0  0  0  0  0  0  0  0  0
  -26.7690  -34.6580   22.6740 O   0  0  0  0  0  0  0  0  0  0  0  0
  -25.3280  -33.6440   25.2760 H   0  0  0  0  0  0  0  0  0  0  0  0
  -24.4080  -36.4770   23.6730 C   0  0  0  0  0  1  0  0  0  0  0  0
  -25.7110  -36.0190   24.3500 C   0  0  0  0  0  3  0  0  0  0  0  0
  -27.8910  -36.8680   25.0980 C   0  0  0  0  0  1  0  0  0  0  0  0
  -26.7280  -37.0870   24.2410 N   0  0  0  0  0  0  0  0  0  0  0  0
  -26.3280  -37.9920   24.4750 H   0  0  0  0  0  0  0  0  0  0  0  0
  -26.6990  -31.3120   25.1640 C   0  0  1  0  0  0  0  0  0  0  0  0
  -25.6290  -30.9870   26.2340 C   0  0  0  0  0  1  0  0  0  0  0  0
  -27.2670  -29.9700   24.6480 C   0  0  0  0  0  1  0  0  0  0  0  0
  -27.8690  -32.0440   25.8640 C   0  0  0  0  0  1  0  0  0  0  0  0
  1  2  1  0
  2 50  1  0
  3  1  2  0
  4  2  2  0
  5  7  2  0
  5  3  1  0
  6  5  1  0
  7  4  1  0
  8 14  1  0
  9 14  1  0
 10 11  1  0
 10  9  1  0
 12 11  1  0
 12 23  1  0
 12 13  1  0
 14 13  1  0
 15  8  2  0
 17 19  1  0
 17 18  1  0
 18  4  1  0
 18 16  1  0
 19  8  1  0
 19 16  1  0
 20 21  2  0
 21 40  1  0
 22 21  1  0
 22 25  1  0
 23 24  1  0
 23 20  1  0
 24 22  2  0
 25 26  1  0
 26 27  2  0
 28 31  1  0
 28 27  1  0
 29 28  2  0
 30 29  1  0
 30 25  2  0
 31 32  1  0
 32 37  2  0
 32 33  1  0
 33 34  2  0
 34 35  1  0
 35 39  1  0
 36 35  2  0
 37 36  1  0
 38 37  1  0
 40 41  1  0
 41 44  1  0
 41 43  1  0
 42 40  2  0
 45 20  1  0
 45 46  1  0
 47 45  1  0
 50 49  1  0
 50 48  1  0
 51  3  1  0
 51 52  1  0
 52 54  1  0
 53 64  2  0
 54 59  1  0
 55 63  1  0
 55 65  1  0
 56 62  1  0
 56 58  1  0
 57 63  1  0
 58 57  1  0
 59 58  2  0
 60 61  1  0
 60 54  2  0
 61 56  2  0
 62 55  1  0
 63 53  1  0
 65 67  2  0
 66 65  1  0
 68 66  1  0
 69 78  2  0
 69 74  1  0
 70 66  1  0
 70 74  1  0
 71 70  1  0
 72 73  1  0
 72 71  1  0
 73 69  1  0
 74 75  2  0
 75 76  1  0
 77 76  2  0
 78 77  1  0
 79 53  1  0
 79 80  1  0
 79 89  1  0
 80 83  1  0
 81 85  1  0
 81 80  1  0
 82 81  2  0
 85 84  1  0
 87 85  1  0
 87 88  1  0
 87 86  1  0
 89 92  1  1
 89 90  1  0
 91 89  1  0
M  ISO  4   8 100  19 100  51 101  52 101
M  END
>  <TORSDO>  (28) 
F 18

>  <SCORE>  (28) 
-11.124

>  <name>  (28) 
27

>  <ligand_id>  (28) 
27

>  <original_smiles>  (28) 
[H]c1c([H])c([H])c2c(c1[H])C([H])([H])C([H])([H])C([H])([H])C2([H])N([H])C(=O)C1([H])N(C(=O)C([H])(N([H])C(=O)C([H])(N([H])C([H])([H])[H])C([H])([H])[H])C(C([H])([H])[H])(C([H])([H])[H])C([H])([H])[H])C([H])([H])c2c([H])c(OC([H])([H])c3c(C([H])([H])[H])nc(C4([H])C([H])([H])N(C(=O)N5C([H])([H])C([H])([H])C([H])([H])C([H])(n6nc(-c7c([H])c([H])c(Oc8c([H])c([H])c(F)c([H])c8F)c([H])c7[H])c(C(=O)N([H])[H])c6N([H])[H])C5([H])[H])C4([H])[H])c(C([H])(C([H])([H])[H])C([H])([H])[H])c3[H])c([H])c([H])c2C1([H])[H]

>  <smiles>  (28) 
[H]c1c([H])c([H])c2c(c1[H])C([H])([H])C([H])([H])C([H])([H])C2([H])N([H])C(=O)C1([H])N(C(=O)C([H])(N([H])C(=O)C([H])(N([H])C([H])([H])[H])C([H])([H])[H])C(C([H])([H])[H])(C([H])([H])[H])C([H])([H])[H])C([H])([H])c2c([H])c(OC([H])([H])c3c(C([H])([H])[H])nc(C4([H])C([H])([H])N(C(=O)N5C([H])([H])C([H])([H])C([H])([H])C([H])(n6nc(-c7c([H])c([H])c(Oc8c([H])c([H])c(F)c([H])c8F)c([H])c7[H])c(C(=O)N([H])[H])c6N([H])[H])C5([H])[H])C4([H])[H])c(C([H])(C([H])([H])[H])C([H])([H])[H])c3[H])c([H])c([H])c2C1([H])[H]

$$$$
28:0:0
     RDKit          3D

 85 93  0  0  1  0  0  0  0  0999 V2000
  -28.9640  -22.1730   20.1230 C   0  0  0  0  0  3  0  0  0  0  0  0
  -28.2980  -17.6480   19.7180 C   0  0  0  0  0  3  0  0  0  0  0  0
  -29.5630  -17.2640   20.0750 C   0  0  0  0  0  0  0  0  0  0  0  0
  -27.9300  -19.1860   19.7200 C   0  0  0  0  0  0  0  0  0  0  0  0
  -30.0950  -18.8820   20.3410 C   0  0  0  0  0  2  0  0  0  0  0  0
  -28.9240  -20.2380   20.3790 C   0  0  0  0  0  3  0  0  0  0  0  0
  -26.8800  -19.6030   19.2280 O   0  0  0  0  0  0  0  0  0  0  0  0
  -30.2710  -15.6960   19.9900 C   0  0  0  0  0  0  0  0  0  0  0  0
  -30.2890  -13.1560   19.1670 C   0  0  0  0  0  2  0  0  0  0  0  0
  -29.3490  -12.7780   17.9870 C   0  0  0  0  0  2  0  0  0  0  0  0
  -27.9440  -12.4240   18.4970 C   0  0  0  0  0  2  0  0  0  0  0  0
  -27.4810  -13.4170   19.5870 C   0  0  0  0  0  3  0  0  0  0  0  0
  -28.5560  -13.7370   20.6510 C   0  0  0  0  0  2  0  0  0  0  0  0
  -29.7120  -14.3420   19.9510 N   0  0  0  0  0  0  0  0  0  0  0  0
  -31.4950  -15.5620   19.7870 O   0  0  0  0  0  0  0  0  0  0  0  0
  -25.1690  -13.9260   20.5020 C   0  0  0  0  0  0  0  0  0  0  0  0
  -24.1290  -13.1370   20.9000 C   0  0  0  0  0  0  0  0  0  0  0  0
  -24.5940  -11.7880   20.8040 C   0  0  0  0  0  0  0  0  0  0  0  0
  -26.1960  -13.0620   20.1720 N   0  0  0  0  0  0  0  0  0  0  0  0
  -25.8690  -11.7670   20.4240 N   0  0  0  0  0  0  0  0  0  0  0  0
  -23.8740  -10.5220   20.9960 C   0  0  0  0  0  0  0  0  0  0  0  0
  -24.3240   -9.5420   21.9080 C   0  0  0  0  0  3  0  0  0  0  0  0
  -23.5970   -8.3460   22.0900 C   0  0  0  0  0  3  0  0  0  0  0  0
  -22.4060   -8.1190   21.3600 C   0  0  0  0  0  0  0  0  0  0  0  0
  -21.9750   -9.0870   20.4350 C   0  0  0  0  0  3  0  0  0  0  0  0
  -22.7020  -10.2750   20.2520 C   0  0  0  0  0  3  0  0  0  0  0  0
  -21.6510   -6.9750   21.4510 O   0  0  0  0  0  0  0  0  0  0  0  0
  -21.5950   -6.2400   22.6090 C   0  0  0  0  0  0  0  0  0  0  0  0
  -21.1210   -6.7910   23.8190 C   0  0  0  0  0  3  0  0  0  0  0  0
  -21.0140   -5.9810   24.9670 C   0  0  0  0  0  3  0  0  0  0  0  0
  -21.3710   -4.6210   24.9060 C   0  0  0  0  0  0  0  0  0  0  0  0
  -21.8390   -4.0690   23.7000 C   0  0  0  0  0  3  0  0  0  0  0  0
  -21.9460   -4.8770   22.5540 C   0  0  0  0  0  0  0  0  0  0  0  0
  -22.3770   -4.3340   21.3900 F   0  0  0  0  0  0  0  0  0  0  0  0
  -21.2630   -3.8410   26.0070 F   0  0  0  0  0  0  0  0  0  0  0  0
  -22.7480  -13.6070   21.2480 C   0  0  0  0  0  0  0  0  0  0  0  0
  -22.0610  -12.8940   22.1310 N   0  0  0  0  0  0  0  0  0  0  0  0
  -22.2910  -14.6460   20.7710 O   0  0  0  0  0  0  0  0  0  0  0  0
  -22.4460  -12.0550   22.5390 H   0  0  0  0  0  0  0  0  0  0  0  0
  -21.1360  -13.1940   22.4070 H   0  0  0  0  0  0  0  0  0  0  0  0
  -25.3200  -15.3010   20.3600 N   0  0  0  0  0  0  0  0  0  0  0  0
  -24.5600  -15.9480   20.5410 H   0  0  0  0  0  0  0  0  0  0  0  0
  -26.1540  -15.7520   20.0140 H   0  0  0  0  0  0  0  0  0  0  0  0
  -27.9710  -23.8300   20.3220 C   0  0  0  0  0  3  0  0  0  0  0  0
  -28.1570  -25.5830   20.2820 O   0  0  0  0  0  0  0  0  0  0  0  0
  -24.6510  -31.8740   23.2020 C   0  0  0  0  0  0  0  0  0  0  0  0
  -27.1750  -26.7840   20.2490 C   0  0  0  0  0  0  0  0  0  0  0  0
  -23.4630  -30.4680   21.5740 C   0  0  0  0  0  3  0  0  0  0  0  0
  -24.9090  -28.8120   20.1740 C   0  0  0  0  0  0  0  0  0  0  0  0
  -26.0420  -30.6120   21.4510 C   0  0  0  0  0  2  0  0  0  0  0  0
  -26.1050  -29.1760   20.8050 C   0  0  0  0  0  0  0  0  0  0  0  0
  -27.2240  -28.1910   20.8040 C   0  0  0  0  0  3  0  0  0  0  0  0
  -25.9430  -26.6260   19.5650 C   0  0  0  0  0  3  0  0  0  0  0  0
  -24.8660  -27.5630   19.5310 C   0  0  0  0  0  3  0  0  0  0  0  0
  -23.7030  -29.7630   20.2080 C   0  0  0  0  0  2  0  0  0  0  0  0
  -24.7430  -31.0170   22.1280 N   0  0  0  0  0  0  0  0  0  0  0  0
  -23.5580  -32.1770   23.7100 O   0  0  0  0  0  0  0  0  0  0  0  0
  -22.7470  -29.4950   22.5500 C   0  0  0  0  0  0  0  0  0  0  0  0
  -21.4160  -29.3310   22.4160 N   0  0  0  0  0  0  0  0  0  0  0  0
  -23.4010  -28.8850   23.4000 O   0  0  0  0  0  0  0  0  0  0  0  0
  -20.9390  -29.8730   21.7100 H   0  0  0  0  0  0  0  0  0  0  0  0
  -18.0340  -28.0970   22.9100 C   0  0  0  0  0  0  0  0  0  0  0  0
  -20.5890  -28.3990   23.1930 C   0  0  0  0  0  3  0  0  0  0  0  0
  -20.7110  -26.9580   22.6430 C   0  0  0  0  0  2  0  0  0  0  0  0
  -19.6230  -26.6080   21.6220 C   0  0  0  0  0  2  0  0  0  0  0  0
  -18.2340  -26.7440   22.2500 C   0  0  0  0  0  2  0  0  0  0  0  0
  -19.1390  -28.8810   23.3390 C   0  0  0  0  0  0  0  0  0  0  0  0
  -18.8960  -30.1440   23.9210 C   0  0  0  0  0  3  0  0  0  0  0  0
  -17.5820  -30.6250   24.0760 C   0  0  0  0  0  3  0  0  0  0  0  0
  -16.4920  -29.8400   23.6600 C   0  0  0  0  0  3  0  0  0  0  0  0
  -16.7190  -28.5780   23.0840 C   0  0  0  0  0  3  0  0  0  0  0  0
  -25.9140  -32.5270   23.8400 C   0  0  0  0  0  3  0  0  0  0  0  0
  -25.5920  -33.9310   24.1670 N   0  0  0  0  0  0  0  0  0  0  0  0
  -25.9120  -34.9920   23.4130 C   0  0  0  0  0  0  0  0  0  0  0  0
  -26.5650  -34.8930   22.3730 O   0  0  0  0  0  0  0  0  0  0  0  0
  -25.0070  -34.0800   24.9750 H   0  0  0  0  0  0  0  0  0  0  0  0
  -24.1710  -36.7910   23.1080 C   0  0  0  0  0  1  0  0  0  0  0  0
  -25.4340  -36.3830   23.8860 C   0  0  0  0  0  3  0  0  0  0  0  0
  -27.5810  -37.2840   24.6730 C   0  0  0  0  0  1  0  0  0  0  0  0
  -26.4600  -37.4400   23.7480 N   0  0  0  0  0  0  0  0  0  0  0  0
  -26.0530  -38.3590   23.8940 H   0  0  0  0  0  0  0  0  0  0  0  0
  -26.4080  -31.7770   25.1400 C   0  0  1  0  0  0  0  0  0  0  0  0
  -25.3000  -31.5630   26.1970 C   0  0  0  0  0  1  0  0  0  0  0  0
  -26.9920  -30.3890   24.7920 C   0  0  0  0  0  1  0  0  0  0  0  0
  -27.5530  -32.5780   25.8040 C   0  0  0  0  0  1  0  0  0  0  0  0
  1 44  2  0
  2  4  1  0
  2  3  2  0
  3  5  1  0
  4  6  1  0
  5  6  1  0
  6  1  1  0
  7  4  2  0
  8  3  1  0
  9 14  1  0
 10 11  1  0
 10  9  1  0
 12 11  1  0
 12 19  1  0
 12 13  1  0
 14  8  1  0
 14 13  1  0
 15  8  2  0
 16 17  2  0
 17 36  1  0
 18 17  1  0
 18 21  1  0
 19 20  1  0
 19 16  1  0
 20 18  2  0
 21 22  1  0
 22 23  2  0
 24 27  1  0
 24 23  1  0
 25 24  2  0
 26 25  1  0
 26 21  2  0
 27 28  1  0
 28 29  1  0
 29 30  2  0
 31 30  1  0
 31 35  1  0
 32 31  2  0
 33 28  2  0
 33 32  1  0
 34 33  1  0
 36 37  1  0
 37 40  1  0
 37 39  1  0
 38 36  2  0
 41 16  1  0
 41 42  1  0
 43 41  1  0
 45 44  1  0
 46 57  2  0
 47 45  1  0
 47 52  1  0
 48 56  1  0
 48 58  1  0
 49 55  1  0
 49 51  1  0
 50 56  1  0
 51 50  1  0
 52 51  2  0
 53 47  2  0
 54 53  1  0
 54 49  2  0
 55 48  1  0
 56 46  1  0
 58 60  2  0
 59 58  1  0
 61 59  1  0
 62 71  2  0
 62 67  1  0
 63 59  1  0
 63 67  1  0
 64 63  1  0
 65 66  1  0
 65 64  1  0
 66 62  1  0
 67 68  2  0
 68 69  1  0
 70 69  2  0
 71 70  1  0
 72 46  1  0
 72 73  1  0
 72 82  1  0
 73 76  1  0
 74 78  1  0
 74 73  1  0
 75 74  2  0
 78 77  1  0
 80 78  1  0
 80 81  1  0
 80 79  1  0
 82 85  1  1
 82 83  1  0
 84 82  1  0
M  ISO  4   3 100   8 100  44 101  45 101
M  END
>  <TORSDO>  (29) 
F 18

>  <SCORE>  (29) 
-16.620

>  <name>  (29) 
28

>  <ligand_id>  (29) 
28

>  <original_smiles>  (29) 
[H]C1=C(C(=O)N2C([H])([H])C([H])([H])C([H])([H])C([H])(n3nc(-c4c([H])c([H])c(Oc5c([H])c([H])c(F)c([H])c5F)c([H])c4[H])c(C(=O)N([H])[H])c3N([H])[H])C2([H])[H])C([H])([H])C([H])(C([H])([H])C([H])([H])Oc2c([H])c([H])c3c(c2[H])C([H])([H])N(C(=O)C([H])(N([H])C(=O)C([H])(N([H])C([H])([H])[H])C([H])([H])[H])C(C([H])([H])[H])(C([H])([H])[H])C([H])([H])[H])C([H])(C(=O)N([H])C2([H])c4c([H])c([H])c([H])c([H])c4C([H])([H])C([H])([H])C2([H])[H])C3([H])[H])C1=O

>  <smiles>  (29) 
[H]C1=C(C(=O)N2C([H])([H])C([H])([H])C([H])([H])C([H])(n3nc(-c4c([H])c([H])c(Oc5c([H])c([H])c(F)c([H])c5F)c([H])c4[H])c(C(=O)N([H])[H])c3N([H])[H])C2([H])[H])C([H])([H])C([H])(C([H])([H])C([H])([H])Oc2c([H])c([H])c3c(c2[H])C([H])([H])N(C(=O)C([H])(N([H])C(=O)C([H])(N([H])C([H])([H])[H])C([H])([H])[H])C(C([H])([H])[H])(C([H])([H])[H])C([H])([H])[H])C([H])(C(=O)N([H])C2([H])c4c([H])c([H])c([H])c([H])c4C([H])([H])C([H])([H])C2([H])[H])C3([H])[H])C1=O

$$$$
29:0:0
     RDKit          3D

 91100  0  0  1  0  0  0  0  0999 V2000
  -28.2870  -20.9220   20.1860 C   0  0  0  0  0  3  0  0  0  0  0  0
  -29.2540  -21.9720   20.0650 C   0  0  0  0  0  0  0  0  0  0  0  0
  -28.6850  -19.5150   20.2040 C   0  0  0  0  0  0  0  0  0  0  0  0
  -30.5560  -21.4670   19.9450 C   0  0  0  0  0  0  0  0  0  0  0  0
  -30.0580  -19.1070   20.0590 C   0  0  0  0  0  0  0  0  0  0  0  0
  -31.5330  -22.6010   19.7570 C   0  0  0  0  0  2  0  0  0  0  0  0
  -30.7170  -23.9050   20.0050 C   0  0  0  0  0  2  0  0  0  0  0  0
  -29.2050  -23.5910   19.8620 C   0  0  0  0  0  3  0  0  0  0  0  0
  -27.6170  -18.4540   20.3970 C   0  0  0  0  0  1  0  0  0  0  0  0
  -30.9510  -20.1450   19.9370 N   0  0  0  0  0  0  0  0  0  0  0  0
  -30.7400  -17.6150   20.1890 C   0  0  0  0  0  2  0  0  0  0  0  0
  -30.8500  -14.9700   19.9600 C   0  0  0  0  0  0  0  0  0  0  0  0
  -30.6060  -12.6550   18.9880 C   0  0  0  0  0  2  0  0  0  0  0  0
  -29.6120  -12.6660   17.8060 C   0  0  0  0  0  2  0  0  0  0  0  0
  -28.1690  -12.4790   18.3130 C   0  0  0  0  0  2  0  0  0  0  0  0
  -27.8440  -13.3890   19.5260 C   0  0  0  0  0  3  0  0  0  0  0  0
  -28.9560  -13.3640   20.5940 C   0  0  0  0  0  2  0  0  0  0  0  0
  -30.2020  -13.7420   19.9200 N   0  0  0  0  0  0  0  0  0  0  0  0
  -32.0390  -14.9990   19.6320 O   0  0  0  0  0  0  0  0  0  0  0  0
  -30.1470  -16.1750   20.1660 N   0  0  0  0  0  0  0  0  0  0  0  0
  -29.1600  -16.1000   20.3550 H   0  0  0  0  0  0  0  0  0  0  0  0
  -25.5140  -13.9820   20.4080 C   0  0  0  0  0  0  0  0  0  0  0  0
  -24.4620  -13.2100   20.8170 C   0  0  0  0  0  0  0  0  0  0  0  0
  -24.9050  -11.8550   20.7280 C   0  0  0  0  0  0  0  0  0  0  0  0
  -26.5310  -13.0960   20.0910 N   0  0  0  0  0  0  0  0  0  0  0  0
  -26.1770  -11.8110   20.3490 N   0  0  0  0  0  0  0  0  0  0  0  0
  -24.1730  -10.5970   20.9230 C   0  0  0  0  0  0  0  0  0  0  0  0
  -24.5750   -9.6490   21.8910 C   0  0  0  0  0  3  0  0  0  0  0  0
  -23.8400   -8.4570   22.0730 C   0  0  0  0  0  3  0  0  0  0  0  0
  -22.6900   -8.2050   21.2880 C   0  0  0  0  0  0  0  0  0  0  0  0
  -22.3070   -9.1410   20.3110 C   0  0  0  0  0  3  0  0  0  0  0  0
  -23.0430  -10.3240   20.1260 C   0  0  0  0  0  3  0  0  0  0  0  0
  -21.9300   -7.0640   21.3790 O   0  0  0  0  0  0  0  0  0  0  0  0
  -21.7790   -6.3920   22.5650 C   0  0  0  0  0  0  0  0  0  0  0  0
  -21.1860   -6.9970   23.6940 C   0  0  0  0  0  3  0  0  0  0  0  0
  -20.9870   -6.2490   24.8710 C   0  0  0  0  0  3  0  0  0  0  0  0
  -21.3710   -4.8960   24.9200 C   0  0  0  0  0  0  0  0  0  0  0  0
  -21.9570   -4.2890   23.7950 C   0  0  0  0  0  3  0  0  0  0  0  0
  -22.1570   -5.0360   22.6190 C   0  0  0  0  0  0  0  0  0  0  0  0
  -22.7020   -4.4410   21.5310 F   0  0  0  0  0  0  0  0  0  0  0  0
  -21.1740   -4.1740   26.0480 F   0  0  0  0  0  0  0  0  0  0  0  0
  -23.0870  -13.6980   21.1710 C   0  0  0  0  0  0  0  0  0  0  0  0
  -22.3940  -12.9870   22.0540 N   0  0  0  0  0  0  0  0  0  0  0  0
  -22.6390  -14.7430   20.7020 O   0  0  0  0  0  0  0  0  0  0  0  0
  -22.7710  -12.1400   22.4530 H   0  0  0  0  0  0  0  0  0  0  0  0
  -21.4750  -13.2960   22.3370 H   0  0  0  0  0  0  0  0  0  0  0  0
  -25.6860  -15.3540   20.2510 N   0  0  0  0  0  0  0  0  0  0  0  0
  -24.9240  -16.0070   20.3890 H   0  0  0  0  0  0  0  0  0  0  0  0
  -26.4980  -15.7760   19.8200 H   0  0  0  0  0  0  0  0  0  0  0  0
  -28.2720  -24.7530   20.6090 C   0  0  0  0  0  2  0  0  0  0  0  0
  -28.4820  -26.2830   20.4800 O   0  0  0  0  0  0  0  0  0  0  0  0
  -24.6800  -31.9350   23.2640 C   0  0  0  0  0  0  0  0  0  0  0  0
  -27.3940  -27.2140   20.4170 C   0  0  0  0  0  0  0  0  0  0  0  0
  -23.5400  -30.4940   21.6200 C   0  0  0  0  0  3  0  0  0  0  0  0
  -25.0450  -28.9040   20.2770 C   0  0  0  0  0  0  0  0  0  0  0  0
  -26.0930  -30.7900   21.5200 C   0  0  0  0  0  2  0  0  0  0  0  0
  -26.1990  -29.3870   20.9050 C   0  0  0  0  0  0  0  0  0  0  0  0
  -27.3780  -28.5590   20.9530 C   0  0  0  0  0  3  0  0  0  0  0  0
  -26.2160  -26.8180   19.7510 C   0  0  0  0  0  3  0  0  0  0  0  0
  -25.0640  -27.6310   19.6840 C   0  0  0  0  0  3  0  0  0  0  0  0
  -23.8060  -29.7850   20.2640 C   0  0  0  0  0  2  0  0  0  0  0  0
  -24.7890  -31.0960   22.1900 N   0  0  0  0  0  0  0  0  0  0  0  0
  -23.5780  -32.2200   23.7550 O   0  0  0  0  0  0  0  0  0  0  0  0
  -22.8470  -29.5010   22.5840 C   0  0  0  0  0  0  0  0  0  0  0  0
  -21.5240  -29.3210   22.4290 N   0  0  0  0  0  0  0  0  0  0  0  0
  -23.5040  -28.8910   23.4320 O   0  0  0  0  0  0  0  0  0  0  0  0
  -21.0540  -29.8660   21.7180 H   0  0  0  0  0  0  0  0  0  0  0  0
  -18.1260  -28.1570   22.9040 C   0  0  0  0  0  0  0  0  0  0  0  0
  -20.6860  -28.3950   23.1940 C   0  0  0  0  0  3  0  0  0  0  0  0
  -20.7770  -26.9590   22.6260 C   0  0  0  0  0  2  0  0  0  0  0  0
  -19.6810  -26.6450   21.6020 C   0  0  0  0  0  2  0  0  0  0  0  0
  -18.2960  -26.8050   22.2340 C   0  0  0  0  0  2  0  0  0  0  0  0
  -19.2490  -28.9110   23.3400 C   0  0  0  0  0  0  0  0  0  0  0  0
  -19.0370  -30.1770   23.9280 C   0  0  0  0  0  3  0  0  0  0  0  0
  -17.7360  -30.6890   24.0850 C   0  0  0  0  0  3  0  0  0  0  0  0
  -16.6280  -29.9340   23.6640 C   0  0  0  0  0  3  0  0  0  0  0  0
  -16.8240  -28.6700   23.0780 C   0  0  0  0  0  3  0  0  0  0  0  0
  -25.9350  -32.5950   23.9140 C   0  0  0  0  0  3  0  0  0  0  0  0
  -25.6000  -33.9960   24.2090 N   0  0  0  0  0  0  0  0  0  0  0  0
  -25.9440  -35.0420   23.4470 C   0  0  0  0  0  0  0  0  0  0  0  0
  -26.6430  -34.9300   22.4360 O   0  0  0  0  0  0  0  0  0  0  0  0
  -24.9800  -34.1560   24.9900 H   0  0  0  0  0  0  0  0  0  0  0  0
  -24.2110  -36.8150   23.0190 C   0  0  0  0  0  1  0  0  0  0  0  0
  -25.4320  -36.4340   23.8700 C   0  0  0  0  0  3  0  0  0  0  0  0
  -27.5270  -37.3560   24.7570 C   0  0  0  0  0  1  0  0  0  0  0  0
  -26.4580  -37.4950   23.7730 N   0  0  0  0  0  0  0  0  0  0  0  0
  -26.0370  -38.4130   23.8890 H   0  0  0  0  0  0  0  0  0  0  0  0
  -26.4150  -31.8580   25.2250 C   0  0  1  0  0  0  0  0  0  0  0  0
  -25.2810  -31.6000   26.2460 C   0  0  0  0  0  1  0  0  0  0  0  0
  -27.0580  -30.4940   24.8840 C   0  0  0  0  0  1  0  0  0  0  0  0
  -27.5080  -32.6980   25.9270 C   0  0  0  0  0  1  0  0  0  0  0  0
  1  3  1  0
  2  1  2  0
  3  9  1  0
  4  2  1  0
  5 11  1  0
  5  3  2  0
  6  4  1  0
  6  7  1  0
  8  7  1  0
  8  2  1  0
  8 50  1  0
 10  4  2  0
 10  5  1  0
 12 20  1  0
 13 18  1  0
 14 15  1  0
 14 13  1  0
 16 15  1  0
 16 25  1  0
 16 17  1  0
 18 12  1  0
 18 17  1  0
 19 12  2  0
 20 11  1  0
 20 21  1  0
 22 23  2  0
 23 42  1  0
 24 23  1  0
 24 27  1  0
 25 26  1  0
 25 22  1  0
 26 24  2  0
 27 28  1  0
 28 29  2  0
 30 33  1  0
 30 29  1  0
 31 30  2  0
 32 31  1  0
 32 27  2  0
 33 34  1  0
 34 39  2  0
 34 35  1  0
 35 36  2  0
 36 37  1  0
 37 41  1  0
 38 37  2  0
 39 38  1  0
 40 39  1  0
 42 43  1  0
 43 46  1  0
 43 45  1  0
 44 42  2  0
 47 48  1  0
 47 22  1  0
 49 47  1  0
 51 50  1  0
 52 63  2  0
 53 51  1  0
 53 58  1  0
 54 62  1  0
 54 64  1  0
 55 57  1  0
 56 62  1  0
 57 58  2  0
 57 56  1  0
 59 53  2  0
 60 59  1  0
 60 55  2  0
 61 55  1  0
 61 54  1  0
 62 52  1  0
 64 66  2  0
 65 64  1  0
 67 65  1  0
 68 77  2  0
 68 73  1  0
 69 65  1  0
 69 73  1  0
 70 69  1  0
 71 72  1  0
 71 70  1  0
 72 68  1  0
 73 74  2  0
 74 75  1  0
 76 75  2  0
 77 76  1  0
 78 52  1  0
 78 79  1  0
 78 88  1  0
 79 82  1  0
 80 84  1  0
 80 79  1  0
 81 80  2  0
 84 83  1  0
 86 84  1  0
 86 87  1  0
 86 85  1  0
 88 91  1  1
 88 89  1  0
 90 88  1  0
M  ISO  4  12 100  20 100  50 101  51 101
M  END
>  <TORSDO>  (30) 
F 18

>  <SCORE>  (30) 
-14.484

>  <name>  (30) 
29

>  <ligand_id>  (30) 
29

>  <original_smiles>  (30) 
[H]c1c([H])c([H])c2c(c1[H])C([H])([H])C([H])([H])C([H])([H])C2([H])N([H])C(=O)C1([H])N(C(=O)C([H])(N([H])C(=O)C([H])(N([H])C([H])([H])[H])C([H])([H])[H])C(C([H])([H])[H])(C([H])([H])[H])C([H])([H])[H])C([H])([H])c2c([H])c(OC([H])([H])C3([H])c4c(nc(C([H])([H])N([H])C(=O)N5C([H])([H])C([H])([H])C([H])([H])C([H])(n6nc(-c7c([H])c([H])c(Oc8c([H])c([H])c(F)c([H])c8F)c([H])c7[H])c(C(=O)N([H])[H])c6N([H])[H])C5([H])[H])c(C([H])([H])[H])c4[H])C([H])([H])C3([H])[H])c([H])c([H])c2C1([H])[H]

>  <smiles>  (30) 
[H]c1c([H])c([H])c2c(c1[H])C([H])([H])C([H])([H])C([H])([H])C2([H])N([H])C(=O)C1([H])N(C(=O)C([H])(N([H])C(=O)C([H])(N([H])C([H])([H])[H])C([H])([H])[H])C(C([H])([H])[H])(C([H])([H])[H])C([H])([H])[H])C([H])([H])c2c([H])c(OC([H])([H])C3([H])c4c(nc(C([H])([H])N([H])C(=O)N5C([H])([H])C([H])([H])C([H])([H])C([H])(n6nc(-c7c([H])c([H])c(Oc8c([H])c([H])c(F)c([H])c8F)c([H])c7[H])c(C(=O)N([H])[H])c6N([H])[H])C5([H])[H])c(C([H])([H])[H])c4[H])C([H])([H])C3([H])[H])c([H])c([H])c2C1([H])[H]

$$$$
30:0:0
     RDKit          3D

 93102  0  0  1  0  0  0  0  0999 V2000
  -28.6380  -21.2950   18.5630 C   0  0  0  0  0  3  0  0  0  0  0  0
  -28.4550  -22.6830   18.9060 C   0  0  0  0  0  3  0  0  0  0  0  0
  -29.2650  -20.3430   19.4290 C   0  0  0  0  0  0  0  0  0  0  0  0
  -29.6950  -20.9340   20.6400 C   0  0  0  0  0  0  0  0  0  0  0  0
  -28.8820  -23.2340   20.1460 C   0  0  0  0  0  0  0  0  0  0  0  0
  -30.4250  -19.9760   21.6100 C   0  0  0  0  0  2  0  0  0  0  0  0
  -30.1200  -18.4190   21.4800 C   0  0  0  0  0  2  0  0  0  0  0  0
  -29.4160  -18.7550   19.0890 C   0  0  0  0  0  3  0  0  0  0  0  0
  -30.2590  -17.7490   20.0680 C   0  0  0  0  0  3  0  0  0  0  0  0
  -29.5060  -22.2910   20.9770 N   0  0  0  0  0  0  0  0  0  0  0  0
  -30.7480  -14.9920   19.8790 C   0  0  0  0  0  0  0  0  0  0  0  0
  -30.5480  -12.6390   18.9480 C   0  0  0  0  0  2  0  0  0  0  0  0
  -29.5380  -12.6020   17.7790 C   0  0  0  0  0  2  0  0  0  0  0  0
  -28.1020  -12.3960   18.2990 C   0  0  0  0  0  2  0  0  0  0  0  0
  -27.7760  -13.3210   19.5010 C   0  0  0  0  0  3  0  0  0  0  0  0
  -28.9020  -13.3340   20.5560 C   0  0  0  0  0  2  0  0  0  0  0  0
  -30.1350  -13.7380   19.8670 N   0  0  0  0  0  0  0  0  0  0  0  0
  -31.9330  -15.0440   19.5380 O   0  0  0  0  0  0  0  0  0  0  0  0
  -29.9840  -16.1790   20.0700 N   0  0  0  0  0  0  0  0  0  0  0  0
  -29.0250  -15.9590   20.2860 H   0  0  0  0  0  0  0  0  0  0  0  0
  -25.4670  -13.9170   20.4330 C   0  0  0  0  0  0  0  0  0  0  0  0
  -24.4150  -13.1500   20.8490 C   0  0  0  0  0  0  0  0  0  0  0  0
  -24.8490  -11.7930   20.7430 C   0  0  0  0  0  0  0  0  0  0  0  0
  -26.4720  -13.0280   20.0860 N   0  0  0  0  0  0  0  0  0  0  0  0
  -26.1140  -11.7430   20.3400 N   0  0  0  0  0  0  0  0  0  0  0  0
  -24.1090  -10.5390   20.9450 C   0  0  0  0  0  0  0  0  0  0  0  0
  -24.5530   -9.5600   21.8600 C   0  0  0  0  0  3  0  0  0  0  0  0
  -23.8160   -8.3730   22.0510 C   0  0  0  0  0  3  0  0  0  0  0  0
  -22.6190   -8.1540   21.3270 C   0  0  0  0  0  0  0  0  0  0  0  0
  -22.1940   -9.1230   20.4010 C   0  0  0  0  0  3  0  0  0  0  0  0
  -22.9320  -10.3030   20.2080 C   0  0  0  0  0  3  0  0  0  0  0  0
  -21.8510   -7.0200   21.4290 O   0  0  0  0  0  0  0  0  0  0  0  0
  -21.7790   -6.3020   22.5960 C   0  0  0  0  0  0  0  0  0  0  0  0
  -21.3050   -6.8750   23.7960 C   0  0  0  0  0  3  0  0  0  0  0  0
  -21.1800   -6.0810   24.9530 C   0  0  0  0  0  3  0  0  0  0  0  0
  -21.5200   -4.7150   24.9120 C   0  0  0  0  0  0  0  0  0  0  0  0
  -21.9880   -4.1410   23.7160 C   0  0  0  0  0  3  0  0  0  0  0  0
  -22.1140   -4.9330   22.5610 C   0  0  0  0  0  0  0  0  0  0  0  0
  -22.5440   -4.3690   21.4060 F   0  0  0  0  0  0  0  0  0  0  0  0
  -21.3910   -3.9500   26.0210 F   0  0  0  0  0  0  0  0  0  0  0  0
  -23.0500  -13.6450   21.2280 C   0  0  0  0  0  0  0  0  0  0  0  0
  -22.3680  -12.9440   22.1250 N   0  0  0  0  0  0  0  0  0  0  0  0
  -22.5990  -14.6910   20.7620 O   0  0  0  0  0  0  0  0  0  0  0  0
  -22.7460  -12.0980   22.5250 H   0  0  0  0  0  0  0  0  0  0  0  0
  -21.4540  -13.2610   22.4190 H   0  0  0  0  0  0  0  0  0  0  0  0
  -25.6470  -15.2900   20.2960 N   0  0  0  0  0  0  0  0  0  0  0  0
  -24.9030  -15.9470   20.5100 H   0  0  0  0  0  0  0  0  0  0  0  0
  -26.4750  -15.7380   19.9280 H   0  0  0  0  0  0  0  0  0  0  0  0
  -31.0310  -19.3190   17.1200 C   0  0  0  0  0  1  0  0  0  0  0  0
  -29.8290  -18.4980   17.6160 C   0  0  0  0  0  3  0  0  0  0  0  0
  -28.7970  -18.7520   16.8070 F   0  0  0  0  0  0  0  0  0  0  0  0
  -28.3450  -24.7040   20.7220 C   0  0  0  0  0  2  0  0  0  0  0  0
  -28.6240  -26.1670   20.2440 O   0  0  0  0  0  0  0  0  0  0  0  0
  -24.7240  -31.7520   23.1690 C   0  0  0  0  0  0  0  0  0  0  0  0
  -27.5500  -27.1350   20.2060 C   0  0  0  0  0  0  0  0  0  0  0  0
  -23.6240  -30.3300   21.4810 C   0  0  0  0  0  3  0  0  0  0  0  0
  -25.1700  -28.8080   20.1020 C   0  0  0  0  0  0  0  0  0  0  0  0
  -26.1740  -30.6740   21.4080 C   0  0  0  0  0  2  0  0  0  0  0  0
  -26.3170  -29.2890   20.7500 C   0  0  0  0  0  0  0  0  0  0  0  0
  -27.5110  -28.4700   20.7790 C   0  0  0  0  0  3  0  0  0  0  0  0
  -26.3750  -26.7590   19.5190 C   0  0  0  0  0  3  0  0  0  0  0  0
  -25.2130  -27.5560   19.4720 C   0  0  0  0  0  3  0  0  0  0  0  0
  -23.9140  -29.6650   20.1090 C   0  0  0  0  0  2  0  0  0  0  0  0
  -24.8570  -30.9440   22.0730 N   0  0  0  0  0  0  0  0  0  0  0  0
  -23.6140  -31.9960   23.6630 O   0  0  0  0  0  0  0  0  0  0  0  0
  -22.9460  -29.2950   22.4140 C   0  0  0  0  0  0  0  0  0  0  0  0
  -21.6240  -29.0980   22.2590 N   0  0  0  0  0  0  0  0  0  0  0  0
  -23.6120  -28.6710   23.2450 O   0  0  0  0  0  0  0  0  0  0  0  0
  -21.1400  -29.6510   21.5650 H   0  0  0  0  0  0  0  0  0  0  0  0
  -18.2540  -27.8450   22.7020 C   0  0  0  0  0  0  0  0  0  0  0  0
  -20.8070  -28.1340   23.0020 C   0  0  0  0  0  3  0  0  0  0  0  0
  -20.9300  -26.7160   22.4000 C   0  0  0  0  0  2  0  0  0  0  0  0
  -19.8440  -26.4000   21.3660 C   0  0  0  0  0  2  0  0  0  0  0  0
  -18.4540  -26.5140   21.9990 C   0  0  0  0  0  2  0  0  0  0  0  0
  -19.3580  -28.6120   23.1610 C   0  0  0  0  0  0  0  0  0  0  0  0
  -19.1150  -29.8580   23.7790 C   0  0  0  0  0  3  0  0  0  0  0  0
  -17.8010  -30.3330   23.9500 C   0  0  0  0  0  3  0  0  0  0  0  0
  -16.7120  -29.5620   23.5090 C   0  0  0  0  0  3  0  0  0  0  0  0
  -16.9390  -28.3190   22.8900 C   0  0  0  0  0  3  0  0  0  0  0  0
  -25.9610  -32.4240   23.8390 C   0  0  0  0  0  3  0  0  0  0  0  0
  -25.5950  -33.8130   24.1600 N   0  0  0  0  0  0  0  0  0  0  0  0
  -25.8970  -34.8780   23.4050 C   0  0  0  0  0  0  0  0  0  0  0  0
  -26.5840  -34.7990   22.3830 O   0  0  0  0  0  0  0  0  0  0  0  0
  -24.9990  -33.9460   24.9630 H   0  0  0  0  0  0  0  0  0  0  0  0
  -24.1100  -36.6100   23.0320 C   0  0  0  0  0  1  0  0  0  0  0  0
  -25.3560  -36.2490   23.8560 C   0  0  0  0  0  3  0  0  0  0  0  0
  -27.4450  -37.2210   24.7080 C   0  0  0  0  0  1  0  0  0  0  0  0
  -26.3490  -37.3400   23.7490 N   0  0  0  0  0  0  0  0  0  0  0  0
  -25.9050  -38.2450   23.8870 H   0  0  0  0  0  0  0  0  0  0  0  0
  -26.4480  -31.6730   25.1390 C   0  0  1  0  0  0  0  0  0  0  0  0
  -25.3230  -31.4120   26.1690 C   0  0  0  0  0  1  0  0  0  0  0  0
  -27.0830  -30.3070   24.7900 C   0  0  0  0  0  1  0  0  0  0  0  0
  -27.5490  -32.5020   25.8410 C   0  0  0  0  0  1  0  0  0  0  0  0
  1  2  2  0
  1  3  1  0
  2  5  1  0
  3  4  2  0
  4 10  1  0
  4  6  1  0
  5 52  1  0
  5 10  2  0
  7  6  1  0
  8 50  1  0
  8  3  1  0
  8  9  1  0
  9 19  1  0
  9  7  1  0
 11 19  1  0
 12 17  1  0
 13 14  1  0
 13 12  1  0
 15 14  1  0
 15 24  1  0
 15 16  1  0
 17 11  1  0
 17 16  1  0
 18 11  2  0
 19 20  1  0
 21 22  2  0
 22 41  1  0
 23 22  1  0
 23 26  1  0
 24 25  1  0
 24 21  1  0
 25 23  2  0
 26 27  1  0
 27 28  2  0
 29 32  1  0
 29 28  1  0
 30 29  2  0
 31 30  1  0
 31 26  2  0
 32 33  1  0
 33 34  1  0
 34 35  2  0
 36 35  1  0
 36 40  1  0
 37 36  2  0
 38 33  2  0
 38 37  1  0
 39 38  1  0
 41 42  1  0
 42 45  1  0
 42 44  1  0
 43 41  2  0
 46 21  1  0
 46 47  1  0
 48 46  1  0
 50 49  1  0
 51 50  1  0
 53 52  1  0
 54 65  2  0
 55 53  1  0
 55 60  1  0
 56 64  1  0
 56 66  1  0
 57 63  1  0
 57 59  1  0
 58 64  1  0
 59 60  2  0
 59 58  1  0
 61 55  2  0
 62 61  1  0
 62 57  2  0
 63 56  1  0
 64 54  1  0
 66 68  2  0
 67 66  1  0
 69 67  1  0
 70 79  2  0
 70 75  1  0
 71 67  1  0
 71 75  1  0
 72 71  1  0
 73 74  1  0
 73 72  1  0
 74 70  1  0
 75 76  2  0
 76 77  1  0
 78 77  2  0
 79 78  1  0
 80 54  1  0
 80 81  1  0
 80 90  1  0
 81 84  1  0
 82 86  1  0
 82 81  1  0
 83 82  2  0
 86 85  1  0
 88 86  1  0
 88 89  1  0
 88 87  1  0
 90 93  1  1
 90 91  1  0
 92 90  1  0
M  ISO  4  11 100  19 100  52 101  53 101
M  END
>  <TORSDO>  (31) 
F 18

>  <SCORE>  (31) 
-14.360

>  <name>  (31) 
30

>  <ligand_id>  (31) 
30

>  <original_smiles>  (31) 
[H]c1c(C([H])([H])Oc2c([H])c([H])c3c(c2[H])C([H])([H])N(C(=O)C([H])(N([H])C(=O)C([H])(N([H])C([H])([H])[H])C([H])([H])[H])C(C([H])([H])[H])(C([H])([H])[H])C([H])([H])[H])C([H])(C(=O)N([H])C2([H])c4c([H])c([H])c([H])c([H])c4C([H])([H])C([H])([H])C2([H])[H])C3([H])[H])nc2c(c1[H])C([H])(C([H])(F)C([H])([H])[H])C([H])(N([H])C(=O)N1C([H])([H])C([H])([H])C([H])([H])C([H])(n3nc(-c4c([H])c([H])c(Oc5c([H])c([H])c(F)c([H])c5F)c([H])c4[H])c(C(=O)N([H])[H])c3N([H])[H])C1([H])[H])C([H])([H])C2([H])[H]

>  <smiles>  (31) 
[H]c1c(C([H])([H])Oc2c([H])c([H])c3c(c2[H])C([H])([H])N(C(=O)C([H])(N([H])C(=O)C([H])(N([H])C([H])([H])[H])C([H])([H])[H])C(C([H])([H])[H])(C([H])([H])[H])C([H])([H])[H])C([H])(C(=O)N([H])C2([H])c4c([H])c([H])c([H])c([H])c4C([H])([H])C([H])([H])C2([H])[H])C3([H])[H])nc2c(c1[H])C([H])(C([H])(F)C([H])([H])[H])C([H])(N([H])C(=O)N1C([H])([H])C([H])([H])C([H])([H])C([H])(n3nc(-c4c([H])c([H])c(Oc5c([H])c([H])c(F)c([H])c5F)c([H])c4[H])c(C(=O)N([H])[H])c3N([H])[H])C1([H])[H])C([H])([H])C2([H])[H]

$$$$
31:0:0
     RDKit          3D

 87 96  0  0  1  0  0  0  0  0999 V2000
  -28.1760  -22.3670   18.6460 C   0  0  0  0  0  3  0  0  0  0  0  0
  -28.2280  -21.0740   18.0800 C   0  0  0  0  0  3  0  0  0  0  0  0
  -28.5330  -22.5930   19.9820 C   0  0  0  0  0  0  0  0  0  0  0  0
  -29.0740  -19.9770   19.9660 C   0  0  0  0  0  0  0  0  0  0  0  0
  -28.6310  -19.9410   18.7130 N   0  0  0  0  0  0  0  0  0  0  0  0
  -28.9960  -21.3080   20.5920 N   0  0  0  0  0  0  0  0  0  0  0  0
  -30.4230  -15.4200   20.1990 C   0  0  0  0  0  0  0  0  0  0  0  0
  -30.4060  -12.9560   19.3160 C   0  0  0  0  0  2  0  0  0  0  0  0
  -29.4890  -12.6710   18.1020 C   0  0  0  0  0  2  0  0  0  0  0  0
  -28.0520  -12.3720   18.5620 C   0  0  0  0  0  2  0  0  0  0  0  0
  -27.5840  -13.3520   19.6670 C   0  0  0  0  0  3  0  0  0  0  0  0
  -28.6370  -13.5730   20.7730 C   0  0  0  0  0  2  0  0  0  0  0  0
  -29.8300  -14.1180   20.0990 N   0  0  0  0  0  0  0  0  0  0  0  0
  -31.6610  -15.3230   20.1230 O   0  0  0  0  0  0  0  0  0  0  0  0
  -30.6080  -17.7650   19.5130 C   0  0  0  0  0  2  0  0  0  0  0  0
  -29.7300  -18.3950   20.5140 C   0  0  0  0  0  3  0  0  0  0  0  0
  -29.7250  -16.7620   20.0760 N   0  0  0  0  0  0  0  0  0  0  0  0
  -25.2210  -13.8840   20.4400 C   0  0  0  0  0  0  0  0  0  0  0  0
  -24.1660  -13.0970   20.8100 C   0  0  0  0  0  0  0  0  0  0  0  0
  -24.6470  -11.7510   20.7830 C   0  0  0  0  0  0  0  0  0  0  0  0
  -26.2690  -13.0180   20.1930 N   0  0  0  0  0  0  0  0  0  0  0  0
  -25.9380  -11.7290   20.4700 N   0  0  0  0  0  0  0  0  0  0  0  0
  -23.9300  -10.4830   20.9760 C   0  0  0  0  0  0  0  0  0  0  0  0
  -24.3580   -9.5290   21.9250 C   0  0  0  0  0  3  0  0  0  0  0  0
  -23.6380   -8.3280   22.1080 C   0  0  0  0  0  3  0  0  0  0  0  0
  -22.4770   -8.0720   21.3400 C   0  0  0  0  0  0  0  0  0  0  0  0
  -22.0680   -9.0160   20.3810 C   0  0  0  0  0  3  0  0  0  0  0  0
  -22.7880  -10.2070   20.1970 C   0  0  0  0  0  3  0  0  0  0  0  0
  -21.7290   -6.9230   21.4320 O   0  0  0  0  0  0  0  0  0  0  0  0
  -21.6570   -6.2010   22.5960 C   0  0  0  0  0  0  0  0  0  0  0  0
  -21.1690   -6.7660   23.7940 C   0  0  0  0  0  3  0  0  0  0  0  0
  -21.0470   -5.9690   24.9500 C   0  0  0  0  0  3  0  0  0  0  0  0
  -21.4040   -4.6090   24.9080 C   0  0  0  0  0  0  0  0  0  0  0  0
  -21.8840   -4.0430   23.7150 C   0  0  0  0  0  3  0  0  0  0  0  0
  -22.0080   -4.8370   22.5610 C   0  0  0  0  0  0  0  0  0  0  0  0
  -22.4520   -4.2810   21.4080 F   0  0  0  0  0  0  0  0  0  0  0  0
  -21.2790   -3.8410   26.0170 F   0  0  0  0  0  0  0  0  0  0  0  0
  -22.7650  -13.5630   21.0740 C   0  0  0  0  0  0  0  0  0  0  0  0
  -22.0390  -12.8620   21.9370 N   0  0  0  0  0  0  0  0  0  0  0  0
  -22.3220  -14.5830   20.5490 O   0  0  0  0  0  0  0  0  0  0  0  0
  -22.4110  -12.0370   22.3830 H   0  0  0  0  0  0  0  0  0  0  0  0
  -21.0980  -13.1560   22.1570 H   0  0  0  0  0  0  0  0  0  0  0  0
  -25.3720  -15.2560   20.2600 N   0  0  0  0  0  0  0  0  0  0  0  0
  -24.6040  -15.9080   20.3790 H   0  0  0  0  0  0  0  0  0  0  0  0
  -26.2250  -15.7010   19.9470 H   0  0  0  0  0  0  0  0  0  0  0  0
  -28.0970  -24.1850   20.6550 C   0  0  0  0  0  2  0  0  0  0  0  0
  -28.2480  -25.7960   20.1990 O   0  0  0  0  0  0  0  0  0  0  0  0
  -24.6420  -31.8470   23.1860 C   0  0  0  0  0  0  0  0  0  0  0  0
  -27.2310  -26.9090   20.2290 C   0  0  0  0  0  0  0  0  0  0  0  0
  -23.4690  -30.4380   21.5460 C   0  0  0  0  0  3  0  0  0  0  0  0
  -24.9330  -28.8190   20.1510 C   0  0  0  0  0  0  0  0  0  0  0  0
  -26.0400  -30.6420   21.4230 C   0  0  0  0  0  2  0  0  0  0  0  0
  -26.1200  -29.2210   20.7780 C   0  0  0  0  0  0  0  0  0  0  0  0
  -27.2660  -28.2930   20.7810 C   0  0  0  0  0  3  0  0  0  0  0  0
  -26.0090  -26.6700   19.5600 C   0  0  0  0  0  3  0  0  0  0  0  0
  -24.9060  -27.5650   19.5210 C   0  0  0  0  0  3  0  0  0  0  0  0
  -23.7150  -29.7450   20.1780 C   0  0  0  0  0  2  0  0  0  0  0  0
  -24.7390  -31.0040   22.1050 N   0  0  0  0  0  0  0  0  0  0  0  0
  -23.5470  -32.1350   23.6950 O   0  0  0  0  0  0  0  0  0  0  0  0
  -22.7650  -29.4470   22.5120 C   0  0  0  0  0  0  0  0  0  0  0  0
  -21.4340  -29.2930   22.3900 N   0  0  0  0  0  0  0  0  0  0  0  0
  -23.4270  -28.8170   23.3410 O   0  0  0  0  0  0  0  0  0  0  0  0
  -20.9530  -29.8520   21.6990 H   0  0  0  0  0  0  0  0  0  0  0  0
  -18.0420  -28.1150   22.9200 C   0  0  0  0  0  0  0  0  0  0  0  0
  -20.6060  -28.3580   23.1610 C   0  0  0  0  0  3  0  0  0  0  0  0
  -20.6890  -26.9300   22.5740 C   0  0  0  0  0  2  0  0  0  0  0  0
  -19.5750  -26.6250   21.5680 C   0  0  0  0  0  2  0  0  0  0  0  0
  -18.2010  -26.7730   22.2270 C   0  0  0  0  0  2  0  0  0  0  0  0
  -19.1700  -28.8670   23.3440 C   0  0  0  0  0  0  0  0  0  0  0  0
  -18.9650  -30.1220   23.9580 C   0  0  0  0  0  3  0  0  0  0  0  0
  -17.6640  -30.6260   24.1480 C   0  0  0  0  0  3  0  0  0  0  0  0
  -16.5500  -29.8740   23.7380 C   0  0  0  0  0  3  0  0  0  0  0  0
  -16.7400  -28.6200   23.1300 C   0  0  0  0  0  3  0  0  0  0  0  0
  -25.9030  -32.5000   23.8280 C   0  0  0  0  0  3  0  0  0  0  0  0
  -25.5770  -33.9010   24.1480 N   0  0  0  0  0  0  0  0  0  0  0  0
  -25.9200  -34.9610   23.4030 C   0  0  0  0  0  0  0  0  0  0  0  0
  -26.6050  -34.8610   22.3820 O   0  0  0  0  0  0  0  0  0  0  0  0
  -24.9680  -34.0510   24.9390 H   0  0  0  0  0  0  0  0  0  0  0  0
  -24.2050  -36.7670   23.0300 C   0  0  0  0  0  1  0  0  0  0  0  0
  -25.4290  -36.3510   23.8600 C   0  0  0  0  0  3  0  0  0  0  0  0
  -27.5450  -37.2340   24.7420 C   0  0  0  0  0  1  0  0  0  0  0  0
  -26.4660  -37.4020   23.7720 N   0  0  0  0  0  0  0  0  0  0  0  0
  -26.0580  -38.3240   23.9080 H   0  0  0  0  0  0  0  0  0  0  0  0
  -26.3940  -31.7490   25.1280 C   0  0  1  0  0  0  0  0  0  0  0  0
  -25.2800  -31.5270   26.1790 C   0  0  0  0  0  1  0  0  0  0  0  0
  -26.9870  -30.3650   24.7780 C   0  0  0  0  0  1  0  0  0  0  0  0
  -27.5310  -32.5560   25.8000 C   0  0  0  0  0  1  0  0  0  0  0  0
  1  3  1  0
  2  1  2  0
  2  5  1  0
  3  6  2  0
  3 46  1  0
  4  6  1  0
  5  4  2  0
  8 13  1  0
  9 10  1  0
  9  8  1  0
 11 10  1  0
 11 21  1  0
 11 12  1  0
 13  7  1  0
 13 12  1  0
 14  7  2  0
 15 17  1  0
 15 16  1  0
 16  4  1  0
 17  7  1  0
 17 16  1  0
 18 19  2  0
 19 38  1  0
 20 19  1  0
 20 23  1  0
 21 18  1  0
 21 22  1  0
 22 20  2  0
 23 24  1  0
 24 25  2  0
 26 29  1  0
 26 25  1  0
 27 26  2  0
 28 27  1  0
 28 23  2  0
 29 30  1  0
 30 31  1  0
 31 32  2  0
 33 32  1  0
 33 37  1  0
 34 33  2  0
 35 30  2  0
 35 34  1  0
 36 35  1  0
 38 39  1  0
 39 42  1  0
 39 41  1  0
 40 38  2  0
 43 44  1  0
 43 18  1  0
 45 43  1  0
 47 49  1  0
 47 46  1  0
 48 59  2  0
 49 54  1  0
 50 58  1  0
 50 60  1  0
 51 57  1  0
 51 53  1  0
 52 58  1  0
 53 54  2  0
 53 52  1  0
 55 49  2  0
 56 55  1  0
 56 51  2  0
 57 50  1  0
 58 48  1  0
 60 62  2  0
 61 60  1  0
 63 61  1  0
 64 73  2  0
 64 69  1  0
 65 61  1  0
 65 69  1  0
 66 65  1  0
 67 68  1  0
 67 66  1  0
 68 64  1  0
 69 70  2  0
 70 71  1  0
 72 71  2  0
 73 72  1  0
 74 48  1  0
 74 75  1  0
 74 84  1  0
 75 78  1  0
 76 80  1  0
 76 75  1  0
 77 76  2  0
 80 79  1  0
 82 80  1  0
 82 83  1  0
 82 81  1  0
 84 87  1  1
 84 85  1  0
 86 84  1  0
M  ISO  4   7 100  17 100  46 101  47 101
M  END
>  <TORSDO>  (32) 
F 17

>  <SCORE>  (32) 
-16.700

>  <name>  (32) 
31

>  <ligand_id>  (32) 
31

>  <original_smiles>  (32) 
[H]c1nc(C2([H])N(C(=O)N3C([H])([H])C([H])([H])C([H])([H])C([H])(n4nc(-c5c([H])c([H])c(Oc6c([H])c([H])c(F)c([H])c6F)c([H])c5[H])c(C(=O)N([H])[H])c4N([H])[H])C3([H])[H])C2([H])[H])nc(C([H])([H])Oc2c([H])c([H])c3c(c2[H])C([H])([H])N(C(=O)C([H])(N([H])C(=O)C([H])(N([H])C([H])([H])[H])C([H])([H])[H])C(C([H])([H])[H])(C([H])([H])[H])C([H])([H])[H])C([H])(C(=O)N([H])C2([H])c4c([H])c([H])c([H])c([H])c4C([H])([H])C([H])([H])C2([H])[H])C3([H])[H])c1[H]

>  <smiles>  (32) 
[H]c1nc(C2([H])N(C(=O)N3C([H])([H])C([H])([H])C([H])([H])C([H])(n4nc(-c5c([H])c([H])c(Oc6c([H])c([H])c(F)c([H])c6F)c([H])c5[H])c(C(=O)N([H])[H])c4N([H])[H])C3([H])[H])C2([H])[H])nc(C([H])([H])Oc2c([H])c([H])c3c(c2[H])C([H])([H])N(C(=O)C([H])(N([H])C(=O)C([H])(N([H])C([H])([H])[H])C([H])([H])[H])C(C([H])([H])[H])(C([H])([H])[H])C([H])([H])[H])C([H])(C(=O)N([H])C2([H])c4c([H])c([H])c([H])c([H])c4C([H])([H])C([H])([H])C2([H])[H])C3([H])[H])c1[H]

$$$$
32:0:0
     RDKit          3D

 92101  0  0  1  0  0  0  0  0999 V2000
  -30.0810  -18.1730   20.1910 C   0  0  0  0  0  3  0  0  0  0  0  0
  -29.1000  -19.5960   19.9650 C   0  0  0  0  0  0  0  0  0  0  0  0
  -31.8540  -19.9720   19.5300 C   0  0  0  0  0  2  0  0  0  0  0  0
  -31.4830  -18.7830   20.4600 C   0  0  0  0  0  3  0  0  0  0  0  0
  -29.6280  -21.2340   20.2810 C   0  0  0  0  0  3  0  0  0  0  0  0
  -31.1420  -20.9190   20.5390 C   0  0  0  0  0  3  0  0  0  0  0  0
  -31.5580  -19.8430   21.6170 C   0  0  1  0  0  0  0  0  0  0  0  0
  -30.6580  -19.6590   22.8580 C   0  0  0  0  0  1  0  0  0  0  0  0
  -32.9630  -20.0350   22.2250 C   0  0  0  0  0  1  0  0  0  0  0  0
  -27.8900  -19.4260   19.6340 N   0  0  0  0  0  0  0  0  0  0  0  0
  -29.7920  -16.7850   20.2050 N   0  0  0  0  0  2  0  0  0  0  0  0
  -27.6990  -18.4350   19.5190 H   0  0  0  0  0  0  0  0  0  0  0  0
  -30.6130  -15.4720   20.1030 C   0  0  0  0  0  0  0  0  0  0  0  0
  -30.4770  -13.1580   18.9370 C   0  0  0  0  0  2  0  0  0  0  0  0
  -29.4480  -13.1420   17.7770 C   0  0  0  0  0  2  0  0  0  0  0  0
  -28.0350  -12.8270   18.3000 C   0  0  0  0  0  2  0  0  0  0  0  0
  -27.7010  -13.6290   19.5800 C   0  0  0  0  0  3  0  0  0  0  0  0
  -28.8440  -13.6150   20.6110 C   0  0  0  0  0  2  0  0  0  0  0  0
  -30.0370  -14.1770   19.9590 N   0  0  0  0  0  0  0  0  0  0  0  0
  -31.8330  -15.4480   19.8980 O   0  0  0  0  0  0  0  0  0  0  0  0
  -25.3790  -14.0850   20.5250 C   0  0  0  0  0  0  0  0  0  0  0  0
  -24.3620  -13.2630   20.9240 C   0  0  0  0  0  0  0  0  0  0  0  0
  -24.8580  -11.9290   20.8000 C   0  0  0  0  0  0  0  0  0  0  0  0
  -26.4220  -13.2510   20.1670 N   0  0  0  0  0  0  0  0  0  0  0  0
  -26.1260  -11.9450   20.4020 N   0  0  0  0  0  0  0  0  0  0  0  0
  -24.1740  -10.6410   20.9770 C   0  0  0  0  0  0  0  0  0  0  0  0
  -24.6280   -9.6820   21.9110 C   0  0  0  0  0  3  0  0  0  0  0  0
  -23.9390   -8.4620   22.0760 C   0  0  0  0  0  3  0  0  0  0  0  0
  -22.7820   -8.1890   21.3090 C   0  0  0  0  0  0  0  0  0  0  0  0
  -22.3480   -9.1360   20.3650 C   0  0  0  0  0  3  0  0  0  0  0  0
  -23.0380  -10.3490   20.1970 C   0  0  0  0  0  3  0  0  0  0  0  0
  -22.0640   -7.0200   21.3830 O   0  0  0  0  0  0  0  0  0  0  0  0
  -21.9370   -6.3270   22.5600 C   0  0  0  0  0  0  0  0  0  0  0  0
  -21.3310   -6.9000   23.7000 C   0  0  0  0  0  3  0  0  0  0  0  0
  -21.1570   -6.1290   24.8680 C   0  0  0  0  0  3  0  0  0  0  0  0
  -21.5780   -4.7870   24.8950 C   0  0  0  0  0  0  0  0  0  0  0  0
  -22.1770   -4.2130   23.7600 C   0  0  0  0  0  3  0  0  0  0  0  0
  -22.3520   -4.9810   22.5940 C   0  0  0  0  0  0  0  0  0  0  0  0
  -22.9100   -4.4160   21.4960 F   0  0  0  0  0  0  0  0  0  0  0  0
  -21.4060   -4.0440   26.0140 F   0  0  0  0  0  0  0  0  0  0  0  0
  -22.9750  -13.6910   21.3030 C   0  0  0  0  0  0  0  0  0  0  0  0
  -22.3340  -12.9620   22.2090 N   0  0  0  0  0  0  0  0  0  0  0  0
  -22.4690  -14.7080   20.8300 O   0  0  0  0  0  0  0  0  0  0  0  0
  -22.7580  -12.1390   22.6110 H   0  0  0  0  0  0  0  0  0  0  0  0
  -21.4060  -13.2300   22.5050 H   0  0  0  0  0  0  0  0  0  0  0  0
  -25.5010  -15.4670   20.4080 N   0  0  0  0  0  0  0  0  0  0  0  0
  -24.7400  -16.1030   20.6180 H   0  0  0  0  0  0  0  0  0  0  0  0
  -26.3370  -15.9360   20.0810 H   0  0  0  0  0  0  0  0  0  0  0  0
  -29.4230  -22.8790   19.5090 C   0  0  0  0  0  2  0  0  0  0  0  0
  -27.7440  -24.1300   18.0060 C   0  0  0  0  0  1  0  0  0  0  0  0
  -28.2620  -24.2760   19.4510 C   0  0  0  0  0  3  0  0  0  0  0  0
  -28.3990  -25.9310   19.6320 O   0  0  0  0  0  0  0  0  0  0  0  0
  -24.6900  -31.6310   23.0130 C   0  0  0  0  0  0  0  0  0  0  0  0
  -27.3350  -26.9930   19.6720 C   0  0  0  0  0  0  0  0  0  0  0  0
  -23.5050  -30.2800   21.3350 C   0  0  0  0  0  3  0  0  0  0  0  0
  -24.9690  -28.8070   19.7980 C   0  0  0  0  0  0  0  0  0  0  0  0
  -26.0610  -30.5910   21.1320 C   0  0  0  0  0  2  0  0  0  0  0  0
  -26.1650  -29.2200   20.3960 C   0  0  0  0  0  0  0  0  0  0  0  0
  -27.3420  -28.3410   20.3000 C   0  0  0  0  0  3  0  0  0  0  0  0
  -26.0780  -26.7250   19.0810 C   0  0  0  0  0  3  0  0  0  0  0  0
  -24.9490  -27.5810   19.1210 C   0  0  0  0  0  3  0  0  0  0  0  0
  -23.7220  -29.6820   19.9200 C   0  0  0  0  0  2  0  0  0  0  0  0
  -24.7750  -30.8580   21.8800 N   0  0  0  0  0  0  0  0  0  0  0  0
  -23.6050  -31.8520   23.5730 O   0  0  0  0  0  0  0  0  0  0  0  0
  -22.8720  -29.2080   22.2620 C   0  0  0  0  0  0  0  0  0  0  0  0
  -21.5500  -28.9830   22.1450 N   0  0  0  0  0  0  0  0  0  0  0  0
  -23.5780  -28.5810   23.0570 O   0  0  0  0  0  0  0  0  0  0  0  0
  -21.0310  -29.5440   21.4830 H   0  0  0  0  0  0  0  0  0  0  0  0
  -18.2540  -27.5250   22.5750 C   0  0  0  0  0  0  0  0  0  0  0  0
  -20.7840  -27.9730   22.8840 C   0  0  0  0  0  3  0  0  0  0  0  0
  -20.9980  -26.5640   22.2830 C   0  0  0  0  0  2  0  0  0  0  0  0
  -19.9370  -26.1830   21.2460 C   0  0  0  0  0  2  0  0  0  0  0  0
  -18.5390  -26.2100   21.8710 C   0  0  0  0  0  2  0  0  0  0  0  0
  -19.3070  -28.3610   23.0360 C   0  0  0  0  0  0  0  0  0  0  0  0
  -18.9840  -29.5870   23.6580 C   0  0  0  0  0  3  0  0  0  0  0  0
  -17.6430  -29.9810   23.8200 C   0  0  0  0  0  3  0  0  0  0  0  0
  -16.6040  -29.1460   23.3720 C   0  0  0  0  0  3  0  0  0  0  0  0
  -16.9110  -27.9200   22.7550 C   0  0  0  0  0  3  0  0  0  0  0  0
  -25.9520  -32.2890   23.6480 C   0  0  0  0  0  3  0  0  0  0  0  0
  -25.6090  -33.6780   24.0020 N   0  0  0  0  0  0  0  0  0  0  0  0
  -25.9060  -34.7550   23.2640 C   0  0  0  0  0  0  0  0  0  0  0  0
  -26.5600  -34.6860   22.2200 O   0  0  0  0  0  0  0  0  0  0  0  0
  -25.0270  -33.8030   24.8170 H   0  0  0  0  0  0  0  0  0  0  0  0
  -24.1210  -36.5130   23.0020 C   0  0  0  0  0  1  0  0  0  0  0  0
  -25.4020  -36.1260   23.7600 C   0  0  0  0  0  3  0  0  0  0  0  0
  -27.5340  -37.0700   24.5360 C   0  0  0  0  0  1  0  0  0  0  0  0
  -26.4020  -37.2090   23.6230 N   0  0  0  0  0  0  0  0  0  0  0  0
  -25.9740  -38.1170   23.7830 H   0  0  0  0  0  0  0  0  0  0  0  0
  -26.4740  -31.5180   24.9240 C   0  0  1  0  0  0  0  0  0  0  0  0
  -25.3850  -31.2720   25.9950 C   0  0  0  0  0  1  0  0  0  0  0  0
  -27.0640  -30.1440   24.5340 C   0  0  0  0  0  1  0  0  0  0  0  0
  -27.6210  -32.3180   25.5830 C   0  0  0  0  0  1  0  0  0  0  0  0
  1 11  1  0
  1  4  1  0
  2  1  1  0
  2  5  1  0
  4  3  1  0
  4  7  1  0
  5 49  1  0
  5  6  1  0
  6  3  1  0
  6  7  1  0
  7  9  1  1
  7  8  1  0
 10  2  2  0
 12 10  1  0
 13 11  1  0
 14 19  1  0
 15 16  1  0
 15 14  1  0
 17 16  1  0
 17 24  1  0
 17 18  1  0
 19 13  1  0
 19 18  1  0
 20 13  2  0
 21 22  2  0
 22 41  1  0
 23 22  1  0
 23 26  1  0
 24 25  1  0
 24 21  1  0
 25 23  2  0
 26 27  1  0
 27 28  2  0
 29 32  1  0
 29 28  1  0
 30 29  2  0
 31 30  1  0
 31 26  2  0
 32 33  1  0
 33 38  2  0
 33 34  1  0
 34 35  2  0
 35 36  1  0
 36 40  1  0
 37 36  2  0
 38 37  1  0
 39 38  1  0
 41 42  1  0
 42 45  1  0
 42 44  1  0
 43 41  2  0
 46 21  1  0
 46 47  1  0
 48 46  1  0
 51 50  1  0
 51 49  1  0
 51 52  1  0
 52 54  1  0
 53 64  2  0
 54 59  1  0
 55 63  1  0
 55 65  1  0
 56 62  1  0
 56 58  1  0
 57 63  1  0
 58 57  1  0
 59 58  2  0
 60 61  1  0
 60 54  2  0
 61 56  2  0
 62 55  1  0
 63 53  1  0
 65 67  2  0
 66 65  1  0
 68 66  1  0
 69 78  2  0
 69 74  1  0
 70 66  1  0
 70 74  1  0
 71 70  1  0
 72 73  1  0
 72 71  1  0
 73 69  1  0
 74 75  2  0
 75 76  1  0
 77 76  2  0
 78 77  1  0
 79 53  1  0
 79 80  1  0
 79 89  1  0
 80 83  1  0
 81 85  1  0
 81 80  1  0
 82 81  2  0
 85 84  1  0
 87 85  1  0
 87 88  1  0
 87 86  1  0
 89 92  1  1
 89 90  1  0
 91 89  1  0
M  ISO  4  11 100  13 100  51 101  52 101
M  END
>  <TORSDO>  (33) 
F 18

>  <SCORE>  (33) 
-15.201

>  <name>  (33) 
32

>  <ligand_id>  (33) 
32

>  <original_smiles>  (33) 
[H]N=C1C(=NC(=O)N2C([H])([H])C([H])([H])C([H])([H])C([H])(n3nc(-c4c([H])c([H])c(Oc5c([H])c([H])c(F)c([H])c5F)c([H])c4[H])c(C(=O)N([H])[H])c3N([H])[H])C2([H])[H])C2([H])C([H])([H])C([H])(C1([H])C([H])([H])C([H])(Oc1c([H])c([H])c3c(c1[H])C([H])([H])N(C(=O)C([H])(N([H])C(=O)C([H])(N([H])C([H])([H])[H])C([H])([H])[H])C(C([H])([H])[H])(C([H])([H])[H])C([H])([H])[H])C([H])(C(=O)N([H])C1([H])c4c([H])c([H])c([H])c([H])c4C([H])([H])C([H])([H])C1([H])[H])C3([H])[H])C([H])([H])[H])C2(C([H])([H])[H])C([H])([H])[H]

>  <smiles>  (33) 
[H]N=C1C(=NC(=O)N2C([H])([H])C([H])([H])C([H])([H])C([H])(n3nc(-c4c([H])c([H])c(Oc5c([H])c([H])c(F)c([H])c5F)c([H])c4[H])c(C(=O)N([H])[H])c3N([H])[H])C2([H])[H])C2([H])C([H])([H])C([H])(C1([H])C([H])([H])C([H])(Oc1c([H])c([H])c3c(c1[H])C([H])([H])N(C(=O)C([H])(N([H])C(=O)C([H])(N([H])C([H])([H])[H])C([H])([H])[H])C(C([H])([H])[H])(C([H])([H])[H])C([H])([H])[H])C([H])(C(=O)N([H])C1([H])c4c([H])c([H])c([H])c([H])c4C([H])([H])C([H])([H])C1([H])[H])C3([H])[H])C([H])([H])[H])C2(C([H])([H])[H])C([H])([H])[H]

$$$$
33:0:0
     RDKit          3D

 91100  0  0  1  0  0  0  0  0999 V2000
  -29.6500  -21.4360   21.7320 C   0  0  0  0  0  3  0  0  0  0  0  0
  -29.4510  -20.5110   20.6510 C   0  0  0  0  0  0  0  0  0  0  0  0
  -29.3570  -22.8530   21.6650 C   0  0  0  0  0  0  0  0  0  0  0  0
  -29.0750  -21.2400   19.4690 C   0  0  0  0  0  0  0  0  0  0  0  0
  -28.8070  -23.4450   20.4850 C   0  0  0  0  0  0  0  0  0  0  0  0
  -29.5960  -23.7050   22.9030 C   0  0  0  0  0  1  0  0  0  0  0  0
  -28.9930  -20.5630   18.1150 C   0  0  0  0  0  1  0  0  0  0  0  0
  -28.7480  -22.5870   19.4170 N   0  0  0  0  0  0  0  0  0  0  0  0
  -28.5730  -18.0210   20.1260 C   0  0  0  0  0  2  0  0  0  0  0  0
  -29.4990  -18.8900   20.9180 C   0  0  0  0  0  3  0  0  0  0  0  0
  -29.9790  -17.4850   20.1770 C   0  0  0  0  0  3  0  0  0  0  0  0
  -30.5960  -14.8800   20.2200 C   0  0  0  0  0  0  0  0  0  0  0  0
  -30.3580  -12.5940   19.1950 C   0  0  0  0  0  2  0  0  0  0  0  0
  -29.3830  -12.6430   17.9960 C   0  0  0  0  0  2  0  0  0  0  0  0
  -27.9250  -12.4750   18.4630 C   0  0  0  0  0  2  0  0  0  0  0  0
  -27.5850  -13.3490   19.6990 C   0  0  0  0  0  3  0  0  0  0  0  0
  -28.6780  -13.2780   20.7890 C   0  0  0  0  0  2  0  0  0  0  0  0
  -29.9600  -13.6480   20.1680 N   0  0  0  0  0  0  0  0  0  0  0  0
  -31.7350  -14.9870   19.7590 O   0  0  0  0  0  0  0  0  0  0  0  0
  -29.8660  -16.0160   20.5880 N   0  0  0  0  0  0  0  0  0  0  0  0
  -28.9810  -15.7840   21.0120 H   0  0  0  0  0  0  0  0  0  0  0  0
  -25.2210  -13.9190   20.5180 C   0  0  0  0  0  0  0  0  0  0  0  0
  -24.1640  -13.1370   20.9050 C   0  0  0  0  0  0  0  0  0  0  0  0
  -24.6220  -11.7870   20.8270 C   0  0  0  0  0  0  0  0  0  0  0  0
  -26.2530  -13.0430   20.2240 N   0  0  0  0  0  0  0  0  0  0  0  0
  -25.9020  -11.7540   20.4740 N   0  0  0  0  0  0  0  0  0  0  0  0
  -23.8960  -10.5210   21.0130 C   0  0  0  0  0  0  0  0  0  0  0  0
  -24.3370   -9.5470   21.9350 C   0  0  0  0  0  3  0  0  0  0  0  0
  -23.6150   -8.3460   22.1110 C   0  0  0  0  0  3  0  0  0  0  0  0
  -22.4350   -8.1130   21.3640 C   0  0  0  0  0  0  0  0  0  0  0  0
  -22.0140   -9.0740   20.4300 C   0  0  0  0  0  3  0  0  0  0  0  0
  -22.7370  -10.2660   20.2520 C   0  0  0  0  0  3  0  0  0  0  0  0
  -21.6830   -6.9660   21.4510 O   0  0  0  0  0  0  0  0  0  0  0  0
  -21.6150   -6.2340   22.6100 C   0  0  0  0  0  0  0  0  0  0  0  0
  -21.1460   -6.7920   23.8190 C   0  0  0  0  0  3  0  0  0  0  0  0
  -21.0300   -5.9850   24.9690 C   0  0  0  0  0  3  0  0  0  0  0  0
  -21.3700   -4.6210   24.9090 C   0  0  0  0  0  0  0  0  0  0  0  0
  -21.8310   -4.0610   23.7050 C   0  0  0  0  0  3  0  0  0  0  0  0
  -21.9500   -4.8660   22.5580 C   0  0  0  0  0  0  0  0  0  0  0  0
  -22.3750   -4.3170   21.3950 F   0  0  0  0  0  0  0  0  0  0  0  0
  -21.2510   -3.8430   26.0120 F   0  0  0  0  0  0  0  0  0  0  0  0
  -22.7780  -13.6120   21.2320 C   0  0  0  0  0  0  0  0  0  0  0  0
  -22.0700  -12.8960   22.1020 N   0  0  0  0  0  0  0  0  0  0  0  0
  -22.3270  -14.6500   20.7490 O   0  0  0  0  0  0  0  0  0  0  0  0
  -22.4460  -12.0560   22.5170 H   0  0  0  0  0  0  0  0  0  0  0  0
  -21.1400  -13.1950   22.3570 H   0  0  0  0  0  0  0  0  0  0  0  0
  -25.3870  -15.2920   20.3720 N   0  0  0  0  0  0  0  0  0  0  0  0
  -24.6470  -15.9590   20.5550 H   0  0  0  0  0  0  0  0  0  0  0  0
  -26.2280  -15.7250   20.0100 H   0  0  0  0  0  0  0  0  0  0  0  0
  -27.8930  -24.8010   20.4070 C   0  0  0  0  0  2  0  0  0  0  0  0
  -28.2760  -26.2860   20.3300 O   0  0  0  0  0  0  0  0  0  0  0  0
  -24.6210  -31.9270   23.2470 C   0  0  0  0  0  0  0  0  0  0  0  0
  -27.2050  -27.2430   20.2450 C   0  0  0  0  0  0  0  0  0  0  0  0
  -23.4180  -30.5320   21.6070 C   0  0  0  0  0  3  0  0  0  0  0  0
  -24.8660  -28.9630   20.1920 C   0  0  0  0  0  0  0  0  0  0  0  0
  -25.9690  -30.8070   21.4410 C   0  0  0  0  0  2  0  0  0  0  0  0
  -26.0430  -29.4160   20.7990 C   0  0  0  0  0  0  0  0  0  0  0  0
  -27.2110  -28.5720   20.8150 C   0  0  0  0  0  3  0  0  0  0  0  0
  -25.9920  -26.8820   19.6010 C   0  0  0  0  0  3  0  0  0  0  0  0
  -24.8480  -27.7030   19.5830 C   0  0  0  0  0  3  0  0  0  0  0  0
  -23.6390  -29.8570   20.2290 C   0  0  0  0  0  2  0  0  0  0  0  0
  -24.6900  -31.1090   22.1540 N   0  0  0  0  0  0  0  0  0  0  0  0
  -23.5370  -32.2140   23.7770 O   0  0  0  0  0  0  0  0  0  0  0  0
  -22.7420  -29.5240   22.5700 C   0  0  0  0  0  0  0  0  0  0  0  0
  -21.4140  -29.3520   22.4450 N   0  0  0  0  0  0  0  0  0  0  0  0
  -23.4140  -28.8990   23.3950 O   0  0  0  0  0  0  0  0  0  0  0  0
  -20.9280  -29.9100   21.7570 H   0  0  0  0  0  0  0  0  0  0  0  0
  -18.0290  -28.1660   22.9570 C   0  0  0  0  0  0  0  0  0  0  0  0
  -20.5900  -28.4200   23.2190 C   0  0  0  0  0  3  0  0  0  0  0  0
  -20.6840  -26.9850   22.6470 C   0  0  0  0  0  2  0  0  0  0  0  0
  -19.5790  -26.6640   21.6370 C   0  0  0  0  0  2  0  0  0  0  0  0
  -18.1990  -26.8160   22.2830 C   0  0  0  0  0  2  0  0  0  0  0  0
  -19.1520  -28.9260   23.3830 C   0  0  0  0  0  0  0  0  0  0  0  0
  -18.9370  -30.1890   23.9750 C   0  0  0  0  0  3  0  0  0  0  0  0
  -17.6340  -30.6930   24.1440 C   0  0  0  0  0  3  0  0  0  0  0  0
  -16.5260  -29.9310   23.7340 C   0  0  0  0  0  3  0  0  0  0  0  0
  -16.7250  -28.6690   23.1450 C   0  0  0  0  0  3  0  0  0  0  0  0
  -25.9030  -32.5580   23.8710 C   0  0  0  0  0  3  0  0  0  0  0  0
  -25.5980  -33.9590   24.1980 N   0  0  0  0  0  0  0  0  0  0  0  0
  -25.9160  -35.0110   23.4310 C   0  0  0  0  0  0  0  0  0  0  0  0
  -26.5680  -34.9060   22.3890 O   0  0  0  0  0  0  0  0  0  0  0  0
  -25.0190  -34.1180   25.0100 H   0  0  0  0  0  0  0  0  0  0  0  0
  -24.1770  -36.8010   23.1070 C   0  0  0  0  0  1  0  0  0  0  0  0
  -25.4340  -36.4000   23.8950 C   0  0  0  0  0  3  0  0  0  0  0  0
  -27.5940  -37.2830   24.6670 C   0  0  0  0  0  1  0  0  0  0  0  0
  -26.4580  -37.4600   23.7650 N   0  0  0  0  0  0  0  0  0  0  0  0
  -26.0510  -38.3720   23.9520 H   0  0  0  0  0  0  0  0  0  0  0  0
  -26.4120  -31.7930   25.1530 C   0  0  1  0  0  0  0  0  0  0  0  0
  -25.3160  -31.5710   26.2200 C   0  0  0  0  0  1  0  0  0  0  0  0
  -26.9900  -30.4090   24.7750 C   0  0  0  0  0  1  0  0  0  0  0  0
  -27.5650  -32.5850   25.8140 C   0  0  0  0  0  1  0  0  0  0  0  0
  2  1  2  0
  3  1  1  0
  3  6  1  0
  4  2  1  0
  5  3  2  0
  7  4  1  0
  8  4  2  0
  8  5  1  0
  9 11  1  0
  9 10  1  0
 10  2  1  0
 11 20  1  0
 11 10  1  0
 12 20  1  0
 13 18  1  0
 14 15  1  0
 14 13  1  0
 16 15  1  0
 16 25  1  0
 16 17  1  0
 18 12  1  0
 18 17  1  0
 19 12  2  0
 20 21  1  0
 22 23  2  0
 23 42  1  0
 24 23  1  0
 24 27  1  0
 25 26  1  0
 25 22  1  0
 26 24  2  0
 27 28  1  0
 28 29  2  0
 30 33  1  0
 30 29  1  0
 31 30  2  0
 32 31  1  0
 32 27  2  0
 33 34  1  0
 34 35  1  0
 35 36  2  0
 37 36  1  0
 37 41  1  0
 38 37  2  0
 39 34  2  0
 39 38  1  0
 40 39  1  0
 42 43  1  0
 43 46  1  0
 43 45  1  0
 44 42  2  0
 47 22  1  0
 47 48  1  0
 49 47  1  0
 50  5  1  0
 51 50  1  0
 52 63  2  0
 53 51  1  0
 53 58  1  0
 54 62  1  0
 54 64  1  0
 55 61  1  0
 55 57  1  0
 56 62  1  0
 57 58  2  0
 57 56  1  0
 59 53  2  0
 60 59  1  0
 60 55  2  0
 61 54  1  0
 62 52  1  0
 64 66  2  0
 65 64  1  0
 67 65  1  0
 68 77  2  0
 68 73  1  0
 69 65  1  0
 69 73  1  0
 70 69  1  0
 71 72  1  0
 71 70  1  0
 72 68  1  0
 73 74  2  0
 74 75  1  0
 76 75  2  0
 77 76  1  0
 78 52  1  0
 78 79  1  0
 78 88  1  0
 79 82  1  0
 80 84  1  0
 80 79  1  0
 81 80  2  0
 84 83  1  0
 86 84  1  0
 86 87  1  0
 86 85  1  0
 88 91  1  1
 88 89  1  0
 90 88  1  0
M  ISO  4  12 100  20 100  50 101  51 101
M  END
>  <TORSDO>  (34) 
F 18

>  <SCORE>  (34) 
-14.799

>  <name>  (34) 
33

>  <ligand_id>  (34) 
33

>  <original_smiles>  (34) 
[H]c1c([H])c([H])c2c(c1[H])C([H])([H])C([H])([H])C([H])([H])C2([H])N([H])C(=O)C1([H])N(C(=O)C([H])(N([H])C(=O)C([H])(N([H])C([H])([H])[H])C([H])([H])[H])C(C([H])([H])[H])(C([H])([H])[H])C([H])([H])[H])C([H])([H])c2c([H])c(OC([H])([H])c3nc(C([H])([H])[H])c(C4([H])C([H])([H])C4([H])N([H])C(=O)N4C([H])([H])C([H])([H])C([H])([H])C([H])(n5nc(-c6c([H])c([H])c(Oc7c([H])c([H])c(F)c([H])c7F)c([H])c6[H])c(C(=O)N([H])[H])c5N([H])[H])C4([H])[H])c([H])c3C([H])([H])[H])c([H])c([H])c2C1([H])[H]

>  <smiles>  (34) 
[H]c1c([H])c([H])c2c(c1[H])C([H])([H])C([H])([H])C([H])([H])C2([H])N([H])C(=O)C1([H])N(C(=O)C([H])(N([H])C(=O)C([H])(N([H])C([H])([H])[H])C([H])([H])[H])C(C([H])([H])[H])(C([H])([H])[H])C([H])([H])[H])C([H])([H])c2c([H])c(OC([H])([H])c3nc(C([H])([H])[H])c(C4([H])C([H])([H])C4([H])N([H])C(=O)N4C([H])([H])C([H])([H])C([H])([H])C([H])(n5nc(-c6c([H])c([H])c(Oc7c([H])c([H])c(F)c([H])c7F)c([H])c6[H])c(C(=O)N([H])[H])c5N([H])[H])C4([H])[H])c([H])c3C([H])([H])[H])c([H])c([H])c2C1([H])[H]

$$$$
34:0:0
     RDKit          3D

 89 98  0  0  1  0  0  0  0  0999 V2000
  -29.1200  -19.5740   19.9730 C   0  0  0  0  0  3  0  0  0  0  0  0
  -30.6350  -18.5690   21.5240 C   0  0  0  0  0  3  0  0  0  0  0  0
  -29.3060  -21.0260   20.4970 C   0  0  0  0  0  0  0  0  0  0  0  0
  -29.7830  -18.2530   20.4530 C   0  0  0  0  0  0  0  0  0  0  0  0
  -30.2140  -20.9410   21.5850 C   0  0  0  0  0  0  0  0  0  0  0  0
  -30.6400  -22.1930   22.3280 C   0  0  0  0  0  1  0  0  0  0  0  0
  -30.8150  -19.8090   22.0520 N   0  0  0  0  0  0  0  0  0  0  0  0
  -30.4250  -15.3920   20.1870 C   0  0  0  0  0  0  0  0  0  0  0  0
  -30.4160  -12.9390   19.2890 C   0  0  0  0  0  2  0  0  0  0  0  0
  -29.4690  -12.6810   18.0880 C   0  0  0  0  0  2  0  0  0  0  0  0
  -28.0340  -12.3970   18.5660 C   0  0  0  0  0  2  0  0  0  0  0  0
  -27.5930  -13.3800   19.6780 C   0  0  0  0  0  3  0  0  0  0  0  0
  -28.6630  -13.5620   20.7730 C   0  0  0  0  0  2  0  0  0  0  0  0
  -29.8610  -14.0840   20.0980 N   0  0  0  0  0  0  0  0  0  0  0  0
  -31.6580  -15.3820   20.0550 O   0  0  0  0  0  0  0  0  0  0  0  0
  -29.6410  -16.6620   20.1120 N   0  0  0  0  0  0  0  0  0  0  0  0
  -28.6980  -16.4340   19.8360 H   0  0  0  0  0  0  0  0  0  0  0  0
  -25.2460  -13.9480   20.4900 C   0  0  0  0  0  0  0  0  0  0  0  0
  -24.1860  -13.1770   20.8660 C   0  0  0  0  0  0  0  0  0  0  0  0
  -24.6420  -11.8240   20.8150 C   0  0  0  0  0  0  0  0  0  0  0  0
  -26.2780  -13.0680   20.2190 N   0  0  0  0  0  0  0  0  0  0  0  0
  -25.9280  -11.7820   20.4830 N   0  0  0  0  0  0  0  0  0  0  0  0
  -23.9090  -10.5650   21.0010 C   0  0  0  0  0  0  0  0  0  0  0  0
  -24.3360   -9.5880   21.9270 C   0  0  0  0  0  3  0  0  0  0  0  0
  -23.6000   -8.3960   22.1030 C   0  0  0  0  0  3  0  0  0  0  0  0
  -22.4200   -8.1740   21.3520 C   0  0  0  0  0  0  0  0  0  0  0  0
  -22.0120   -9.1390   20.4150 C   0  0  0  0  0  3  0  0  0  0  0  0
  -22.7500  -10.3220   20.2380 C   0  0  0  0  0  3  0  0  0  0  0  0
  -21.6540   -7.0360   21.4390 O   0  0  0  0  0  0  0  0  0  0  0  0
  -21.5940   -6.2940   22.5920 C   0  0  0  0  0  0  0  0  0  0  0  0
  -21.1510   -6.8500   23.8120 C   0  0  0  0  0  3  0  0  0  0  0  0
  -21.0380   -6.0360   24.9570 C   0  0  0  0  0  3  0  0  0  0  0  0
  -21.3580   -4.6670   24.8820 C   0  0  0  0  0  0  0  0  0  0  0  0
  -21.7960   -4.1120   23.6680 C   0  0  0  0  0  3  0  0  0  0  0  0
  -21.9100   -4.9230   22.5250 C   0  0  0  0  0  0  0  0  0  0  0  0
  -22.3110   -4.3780   21.3510 F   0  0  0  0  0  0  0  0  0  0  0  0
  -21.2440   -3.8830   25.9800 F   0  0  0  0  0  0  0  0  0  0  0  0
  -22.7960  -13.6620   21.1570 C   0  0  0  0  0  0  0  0  0  0  0  0
  -22.0700  -12.9630   22.0230 N   0  0  0  0  0  0  0  0  0  0  0  0
  -22.3640  -14.6980   20.6530 O   0  0  0  0  0  0  0  0  0  0  0  0
  -22.4330  -12.1220   22.4490 H   0  0  0  0  0  0  0  0  0  0  0  0
  -21.1400  -13.2740   22.2650 H   0  0  0  0  0  0  0  0  0  0  0  0
  -25.4150  -15.3210   20.3230 N   0  0  0  0  0  0  0  0  0  0  0  0
  -24.6480  -15.9750   20.4360 H   0  0  0  0  0  0  0  0  0  0  0  0
  -26.2620  -15.7630   19.9950 H   0  0  0  0  0  0  0  0  0  0  0  0
  -27.4770  -23.2660   19.7620 C   0  0  0  0  0  2  0  0  0  0  0  0
  -28.8740  -22.6920   19.9930 C   0  0  0  0  0  3  0  0  0  0  0  0
  -28.2550  -24.2440   20.6410 C   0  0  0  0  0  3  0  0  0  0  0  0
  -28.3230  -25.8710   20.2600 O   0  0  0  0  0  0  0  0  0  0  0  0
  -24.6400  -31.8560   23.1910 C   0  0  0  0  0  0  0  0  0  0  0  0
  -27.2730  -26.9440   20.2700 C   0  0  0  0  0  0  0  0  0  0  0  0
  -23.4800  -30.4340   21.5540 C   0  0  0  0  0  3  0  0  0  0  0  0
  -24.9600  -28.8200   20.1710 C   0  0  0  0  0  0  0  0  0  0  0  0
  -26.0460  -30.6600   21.4350 C   0  0  0  0  0  2  0  0  0  0  0  0
  -26.1380  -29.2400   20.7970 C   0  0  0  0  0  0  0  0  0  0  0  0
  -27.2920  -28.3280   20.8120 C   0  0  0  0  0  3  0  0  0  0  0  0
  -26.0570  -26.6760   19.6040 C   0  0  0  0  0  3  0  0  0  0  0  0
  -24.9430  -27.5580   19.5540 C   0  0  0  0  0  3  0  0  0  0  0  0
  -23.7360  -29.7370   20.1890 C   0  0  0  0  0  2  0  0  0  0  0  0
  -24.7430  -31.0110   22.1140 N   0  0  0  0  0  0  0  0  0  0  0  0
  -23.5410  -32.1430   23.6940 O   0  0  0  0  0  0  0  0  0  0  0  0
  -22.7800  -29.4430   22.5210 C   0  0  0  0  0  0  0  0  0  0  0  0
  -21.4490  -29.2830   22.3970 N   0  0  0  0  0  0  0  0  0  0  0  0
  -23.4440  -28.8160   23.3500 O   0  0  0  0  0  0  0  0  0  0  0  0
  -20.9650  -29.8400   21.7080 H   0  0  0  0  0  0  0  0  0  0  0  0
  -18.0610  -28.0940   22.9250 C   0  0  0  0  0  0  0  0  0  0  0  0
  -20.6250  -28.3460   23.1690 C   0  0  0  0  0  3  0  0  0  0  0  0
  -20.7150  -26.9160   22.5860 C   0  0  0  0  0  2  0  0  0  0  0  0
  -19.6040  -26.6050   21.5780 C   0  0  0  0  0  2  0  0  0  0  0  0
  -18.2280  -26.7500   22.2350 C   0  0  0  0  0  2  0  0  0  0  0  0
  -19.1870  -28.8500   23.3480 C   0  0  0  0  0  0  0  0  0  0  0  0
  -18.9770  -30.1060   23.9560 C   0  0  0  0  0  3  0  0  0  0  0  0
  -17.6750  -30.6090   24.1460 C   0  0  0  0  0  3  0  0  0  0  0  0
  -16.5650  -29.8500   23.7370 C   0  0  0  0  0  3  0  0  0  0  0  0
  -16.7580  -28.5960   23.1310 C   0  0  0  0  0  3  0  0  0  0  0  0
  -25.8960  -32.5190   23.8330 C   0  0  0  0  0  3  0  0  0  0  0  0
  -25.5600  -33.9200   24.1480 N   0  0  0  0  0  0  0  0  0  0  0  0
  -25.8990  -34.9790   23.4020 C   0  0  0  0  0  0  0  0  0  0  0  0
  -26.5880  -34.8810   22.3840 O   0  0  0  0  0  0  0  0  0  0  0  0
  -24.9460  -34.0670   24.9340 H   0  0  0  0  0  0  0  0  0  0  0  0
  -24.1760  -36.7780   23.0140 C   0  0  0  0  0  1  0  0  0  0  0  0
  -25.3960  -36.3660   23.8530 C   0  0  0  0  0  3  0  0  0  0  0  0
  -27.5020  -37.2650   24.7450 C   0  0  0  0  0  1  0  0  0  0  0  0
  -26.4270  -37.4240   23.7690 N   0  0  0  0  0  0  0  0  0  0  0  0
  -26.0130  -38.3420   23.9060 H   0  0  0  0  0  0  0  0  0  0  0  0
  -26.3890  -31.7760   25.1370 C   0  0  1  0  0  0  0  0  0  0  0  0
  -25.2730  -31.5520   26.1870 C   0  0  0  0  0  1  0  0  0  0  0  0
  -26.9930  -30.3930   24.7950 C   0  0  0  0  0  1  0  0  0  0  0  0
  -27.5150  -32.5940   25.8100 C   0  0  0  0  0  1  0  0  0  0  0  0
  1  4  2  0
  1  3  1  0
  2  7  2  0
  3  5  2  0
  4  2  1  0
  5  7  1  0
  5  6  1  0
  9 14  1  0
 10 11  1  0
 10  9  1  0
 12 11  1  0
 12 21  1  0
 12 13  1  0
 14  8  1  0
 14 13  1  0
 15  8  2  0
 16  8  1  0
 16  4  1  0
 17 16  1  0
 18 19  2  0
 19 38  1  0
 20 19  1  0
 20 23  1  0
 21 22  1  0
 21 18  1  0
 22 20  2  0
 23 24  1  0
 24 25  2  0
 26 29  1  0
 26 25  1  0
 27 26  2  0
 28 27  1  0
 28 23  2  0
 29 30  1  0
 30 31  1  0
 31 32  2  0
 33 32  1  0
 33 37  1  0
 34 33  2  0
 35 30  2  0
 35 34  1  0
 36 35  1  0
 38 39  1  0
 39 42  1  0
 39 41  1  0
 40 38  2  0
 43 44  1  0
 43 18  1  0
 45 43  1  0
 46 47  1  0
 46 48  1  0
 47  3  1  0
 47 48  1  0
 48 49  1  0
 49 51  1  0
 50 61  2  0
 51 56  1  0
 52 60  1  0
 52 62  1  0
 53 59  1  0
 53 55  1  0
 54 60  1  0
 55 56  2  0
 55 54  1  0
 57 51  2  0
 58 57  1  0
 58 53  2  0
 59 52  1  0
 60 50  1  0
 62 64  2  0
 63 62  1  0
 65 63  1  0
 66 75  2  0
 66 71  1  0
 67 63  1  0
 67 71  1  0
 68 67  1  0
 69 70  1  0
 69 68  1  0
 70 66  1  0
 71 72  2  0
 72 73  1  0
 74 73  2  0
 75 74  1  0
 76 50  1  0
 76 77  1  0
 76 86  1  0
 77 80  1  0
 78 82  1  0
 78 77  1  0
 79 78  2  0
 82 81  1  0
 84 82  1  0
 84 85  1  0
 84 83  1  0
 86 89  1  1
 86 87  1  0
 88 86  1  0
M  ISO  4   8 100  16 100  48 101  49 101
M  END
>  <TORSDO>  (35) 
F 17

>  <SCORE>  (35) 
-16.386

>  <name>  (35) 
34

>  <ligand_id>  (35) 
34

>  <original_smiles>  (35) 
[H]c1nc(C([H])([H])[H])c(C2([H])C([H])([H])C2([H])Oc2c([H])c([H])c3c(c2[H])C([H])([H])N(C(=O)C([H])(N([H])C(=O)C([H])(N([H])C([H])([H])[H])C([H])([H])[H])C(C([H])([H])[H])(C([H])([H])[H])C([H])([H])[H])C([H])(C(=O)N([H])C2([H])c4c([H])c([H])c([H])c([H])c4C([H])([H])C([H])([H])C2([H])[H])C3([H])[H])c([H])c1N([H])C(=O)N1C([H])([H])C([H])([H])C([H])([H])C([H])(n2nc(-c3c([H])c([H])c(Oc4c([H])c([H])c(F)c([H])c4F)c([H])c3[H])c(C(=O)N([H])[H])c2N([H])[H])C1([H])[H]

>  <smiles>  (35) 
[H]c1nc(C([H])([H])[H])c(C2([H])C([H])([H])C2([H])Oc2c([H])c([H])c3c(c2[H])C([H])([H])N(C(=O)C([H])(N([H])C(=O)C([H])(N([H])C([H])([H])[H])C([H])([H])[H])C(C([H])([H])[H])(C([H])([H])[H])C([H])([H])[H])C([H])(C(=O)N([H])C2([H])c4c([H])c([H])c([H])c([H])c4C([H])([H])C([H])([H])C2([H])[H])C3([H])[H])c([H])c1N([H])C(=O)N1C([H])([H])C([H])([H])C([H])([H])C([H])(n2nc(-c3c([H])c([H])c(Oc4c([H])c([H])c(F)c([H])c4F)c([H])c3[H])c(C(=O)N([H])[H])c2N([H])[H])C1([H])[H]

$$$$
35:0:0
     RDKit          3D

 91 99  0  0  1  0  0  0  0  0999 V2000
  -32.1650  -19.5040   19.8680 C   0  0  0  0  0  3  0  0  0  0  0  0
  -30.7390  -21.1430   21.6280 C   0  0  0  0  0  0  0  0  0  0  0  0
  -30.1690  -20.8800   20.3600 C   0  0  0  0  0  0  0  0  0  0  0  0
  -30.7660  -19.3970   19.9220 C   0  0  0  0  0  0  0  0  0  0  0  0
  -32.1060  -20.7990   21.7950 C   0  0  0  0  0  0  0  0  0  0  0  0
  -32.8970  -21.2620   23.0060 C   0  0  0  0  0  1  0  0  0  0  0  0
  -32.8230  -20.1350   20.8610 N   0  0  0  0  0  0  0  0  0  0  0  0
  -31.2550  -16.3430   20.3740 C   0  0  0  0  0  0  0  0  0  0  0  0
  -31.4440  -13.7030   19.9510 C   0  0  0  0  0  2  0  0  0  0  0  0
  -30.6970  -13.0950   18.7280 C   0  0  0  0  0  2  0  0  0  0  0  0
  -29.2360  -12.7810   19.0800 C   0  0  0  0  0  2  0  0  0  0  0  0
  -28.6040  -13.9220   19.9090 C   0  0  0  0  0  3  0  0  0  0  0  0
  -29.5030  -14.4260   21.0650 C   0  0  0  0  0  2  0  0  0  0  0  0
  -30.7370  -14.9720   20.4480 N   0  0  0  0  0  0  0  0  0  0  0  0
  -32.4990  -16.2640   20.3480 O   0  0  0  0  0  0  0  0  0  0  0  0
  -30.5020  -17.7020   20.1510 N   0  0  0  0  0  0  0  0  0  0  0  0
  -29.5140  -17.4950   20.1430 H   0  0  0  0  0  0  0  0  0  0  0  0
  -26.2230  -14.5470   20.5220 C   0  0  0  0  0  0  0  0  0  0  0  0
  -25.1050  -13.8120   20.7910 C   0  0  0  0  0  0  0  0  0  0  0  0
  -25.5120  -12.4420   20.7540 C   0  0  0  0  0  0  0  0  0  0  0  0
  -27.2410  -13.6340   20.3280 N   0  0  0  0  0  0  0  0  0  0  0  0
  -26.8220  -12.3570   20.5360 N   0  0  0  0  0  0  0  0  0  0  0  0
  -24.7130  -11.2130   20.8550 C   0  0  0  0  0  0  0  0  0  0  0  0
  -25.0200  -10.2040   21.7940 C   0  0  0  0  0  3  0  0  0  0  0  0
  -24.2210   -9.0430   21.8860 C   0  0  0  0  0  3  0  0  0  0  0  0
  -23.1000   -8.8840   21.0380 C   0  0  0  0  0  0  0  0  0  0  0  0
  -22.8100   -9.8810   20.0900 C   0  0  0  0  0  3  0  0  0  0  0  0
  -23.6100  -11.0320   19.9960 C   0  0  0  0  0  3  0  0  0  0  0  0
  -22.2810   -7.7790   21.0390 O   0  0  0  0  0  0  0  0  0  0  0  0
  -22.0560   -7.0520   22.1790 C   0  0  0  0  0  0  0  0  0  0  0  0
  -21.4860   -7.6320   23.3340 C   0  0  0  0  0  3  0  0  0  0  0  0
  -21.2070   -6.8330   24.4600 C   0  0  0  0  0  3  0  0  0  0  0  0
  -21.4880   -5.4530   24.4320 C   0  0  0  0  0  0  0  0  0  0  0  0
  -22.0510   -4.8730   23.2830 C   0  0  0  0  0  3  0  0  0  0  0  0
  -22.3310   -5.6690   22.1590 C   0  0  0  0  0  0  0  0  0  0  0  0
  -22.8530   -5.0990   21.0460 F   0  0  0  0  0  0  0  0  0  0  0  0
  -21.2150   -4.6830   25.5120 F   0  0  0  0  0  0  0  0  0  0  0  0
  -23.7160  -14.3500   20.9660 C   0  0  0  0  0  0  0  0  0  0  0  0
  -22.8960  -13.6800   21.7680 N   0  0  0  0  0  0  0  0  0  0  0  0
  -23.3680  -15.4010   20.4290 O   0  0  0  0  0  0  0  0  0  0  0  0
  -23.1890  -12.8290   22.2250 H   0  0  0  0  0  0  0  0  0  0  0  0
  -21.9590  -14.0250   21.9270 H   0  0  0  0  0  0  0  0  0  0  0  0
  -26.4570  -15.9120   20.3910 N   0  0  0  0  0  0  0  0  0  0  0  0
  -25.7120  -16.5970   20.4580 H   0  0  0  0  0  0  0  0  0  0  0  0
  -27.3390  -16.3170   20.1070 H   0  0  0  0  0  0  0  0  0  0  0  0
  -29.3180  -21.5420   23.7970 C   0  0  0  0  0  2  0  0  0  0  0  0
  -28.5700  -22.1930   22.6560 C   0  0  0  0  0  2  0  0  0  0  0  0
  -30.0750  -22.0700   22.6030 C   0  0  0  0  0  3  0  0  0  0  0  0
  -29.9790  -22.6280   19.6870 C   0  0  0  0  0  1  0  0  0  0  0  0
  -28.7850  -24.1960   19.7520 C   0  0  0  0  0  1  0  0  0  0  0  0
  -28.6620  -25.9360   19.3880 O   0  0  0  0  0  0  0  0  0  0  0  0
  -24.5670  -31.4240   23.1520 C   0  0  0  0  0  0  0  0  0  0  0  0
  -27.5680  -27.0430   19.5340 C   0  0  0  0  0  0  0  0  0  0  0  0
  -23.5230  -30.1770   21.3090 C   0  0  0  0  0  3  0  0  0  0  0  0
  -25.1240  -28.8700   19.7160 C   0  0  0  0  0  0  0  0  0  0  0  0
  -26.0840  -30.5530   21.2630 C   0  0  0  0  0  2  0  0  0  0  0  0
  -26.2810  -29.2360   20.4140 C   0  0  0  0  0  0  0  0  0  0  0  0
  -27.4850  -28.3570   20.2880 C   0  0  0  0  0  3  0  0  0  0  0  0
  -26.3540  -26.8920   18.8140 C   0  0  0  0  0  3  0  0  0  0  0  0
  -25.1990  -27.7310   18.8960 C   0  0  0  0  0  3  0  0  0  0  0  0
  -23.8360  -29.7000   19.8610 C   0  0  0  0  0  2  0  0  0  0  0  0
  -24.7460  -30.7470   21.9650 N   0  0  0  0  0  0  0  0  0  0  0  0
  -23.4460  -31.5520   23.6770 O   0  0  0  0  0  0  0  0  0  0  0  0
  -22.8840  -29.0170   22.1210 C   0  0  0  0  0  0  0  0  0  0  0  0
  -21.5830  -28.7410   21.9140 N   0  0  0  0  0  0  0  0  0  0  0  0
  -23.5750  -28.3660   22.9080 O   0  0  0  0  0  0  0  0  0  0  0  0
  -21.0710  -29.3250   21.2670 H   0  0  0  0  0  0  0  0  0  0  0  0
  -18.3180  -27.1580   22.1570 C   0  0  0  0  0  0  0  0  0  0  0  0
  -20.8370  -27.6320   22.5240 C   0  0  0  0  0  3  0  0  0  0  0  0
  -21.0840  -26.3090   21.7580 C   0  0  0  0  0  2  0  0  0  0  0  0
  -20.0330  -26.0310   20.6800 C   0  0  0  0  0  2  0  0  0  0  0  0
  -18.6360  -25.9460   21.2990 C   0  0  0  0  0  2  0  0  0  0  0  0
  -19.3500  -27.9590   22.7200 C   0  0  0  0  0  0  0  0  0  0  0  0
  -18.9960  -29.0890   23.4880 C   0  0  0  0  0  3  0  0  0  0  0  0
  -17.6450  -29.4230   23.6970 C   0  0  0  0  0  3  0  0  0  0  0  0
  -16.6290  -28.6210   23.1490 C   0  0  0  0  0  3  0  0  0  0  0  0
  -16.9660  -27.4900   22.3850 C   0  0  0  0  0  3  0  0  0  0  0  0
  -25.7600  -32.0840   23.9090 C   0  0  0  0  0  3  0  0  0  0  0  0
  -26.2020  -31.2720   25.1890 C   0  0  1  0  0  0  0  0  0  0  0  0
  -25.0430  -30.9590   26.1650 C   0  0  0  0  0  1  0  0  0  0  0  0
  -26.8500  -29.9250   24.7950 C   0  0  0  0  0  1  0  0  0  0  0  0
  -27.2800  -32.0660   25.9650 C   0  0  0  0  0  1  0  0  0  0  0  0
  -25.3590  -33.4520   24.3010 N   0  0  0  0  0  0  0  0  0  0  0  0
  -25.6740  -34.5720   23.6380 C   0  0  0  0  0  0  0  0  0  0  0  0
  -26.3920  -34.5660   22.6350 O   0  0  0  0  0  0  0  0  0  0  0  0
  -24.7200  -33.5220   25.0790 H   0  0  0  0  0  0  0  0  0  0  0  0
  -23.8810  -36.3190   23.3450 C   0  0  0  0  0  1  0  0  0  0  0  0
  -25.1130  -35.9090   24.1670 C   0  0  0  0  0  3  0  0  0  0  0  0
  -27.1670  -36.8460   25.1370 C   0  0  0  0  0  1  0  0  0  0  0  0
  -26.0990  -37.0130   24.1550 N   0  0  0  0  0  0  0  0  0  0  0  0
  -25.6450  -37.9060   24.3260 H   0  0  0  0  0  0  0  0  0  0  0  0
  1  4  2  0
  1  7  1  0
  2  5  1  0
  2 48  1  0
  3  2  2  0
  4 16  1  0
  4  3  1  0
  5  6  1  0
  7  5  2  0
  8 14  1  0
  9 14  1  0
 10 11  1  0
 10  9  1  0
 12 11  1  0
 12 21  1  0
 12 13  1  0
 14 13  1  0
 15  8  2  0
 16  8  1  0
 17 16  1  0
 18 19  2  0
 19 38  1  0
 20 19  1  0
 20 23  1  0
 21 18  1  0
 21 22  1  0
 22 20  2  0
 23 24  1  0
 24 25  2  0
 26 29  1  0
 26 25  1  0
 27 26  2  0
 28 27  1  0
 28 23  2  0
 29 30  1  0
 30 31  1  0
 31 32  2  0
 33 32  1  0
 33 37  1  0
 34 33  2  0
 35 30  2  0
 35 34  1  0
 36 35  1  0
 38 39  1  0
 39 42  1  0
 39 41  1  0
 40 38  2  0
 43 44  1  0
 43 18  1  0
 45 43  1  0
 47 46  1  0
 48 47  1  0
 48 46  1  0
 49  3  1  0
 51 53  1  0
 51 50  1  0
 52 63  2  0
 53 58  1  0
 54 62  1  0
 54 64  1  0
 55 61  1  0
 55 57  1  0
 56 62  1  0
 57 56  1  0
 58 57  2  0
 59 60  1  0
 59 53  2  0
 60 55  2  0
 61 54  1  0
 62 52  1  0
 64 66  2  0
 65 64  1  0
 67 65  1  0
 68 77  2  0
 68 73  1  0
 69 65  1  0
 69 73  1  0
 70 69  1  0
 71 72  1  0
 71 70  1  0
 72 68  1  0
 73 74  2  0
 74 75  1  0
 76 75  2  0
 77 76  1  0
 78 52  1  0
 78 83  1  0
 78 79  1  0
 79 82  1  1
 79 80  1  0
 81 79  1  0
 83 86  1  0
 84 88  1  0
 84 83  1  0
 85 84  2  0
 88 87  1  0
 90 88  1  0
 90 91  1  0
 90 89  1  0
M  ISO  4   8 100  16 100  50 101  51 101
M  END
>  <TORSDO>  (36) 
F 19

>  <SCORE>  (36) 
-11.926

>  <name>  (36) 
35

>  <ligand_id>  (36) 
35

>  <original_smiles>  (36) 
[H]c1nc(C([H])([H])[H])c(C2([H])C([H])([H])C2([H])[H])c(C([H])([H])C([H])([H])Oc2c([H])c([H])c3c(c2[H])C([H])([H])N(C(=O)C([H])(N([H])C(=O)C([H])(N([H])C([H])([H])[H])C([H])([H])[H])C(C([H])([H])[H])(C([H])([H])[H])C([H])([H])[H])C([H])(C(=O)N([H])C2([H])c4c([H])c([H])c([H])c([H])c4C([H])([H])C([H])([H])C2([H])[H])C3([H])[H])c1N([H])C(=O)N1C([H])([H])C([H])([H])C([H])([H])C([H])(n2nc(-c3c([H])c([H])c(Oc4c([H])c([H])c(F)c([H])c4F)c([H])c3[H])c(C(=O)N([H])[H])c2N([H])[H])C1([H])[H]

>  <smiles>  (36) 
[H]c1nc(C([H])([H])[H])c(C2([H])C([H])([H])C2([H])[H])c(C([H])([H])C([H])([H])Oc2c([H])c([H])c3c(c2[H])C([H])([H])N(C(=O)C([H])(N([H])C(=O)C([H])(N([H])C([H])([H])[H])C([H])([H])[H])C(C([H])([H])[H])(C([H])([H])[H])C([H])([H])[H])C([H])(C(=O)N([H])C2([H])c4c([H])c([H])c([H])c([H])c4C([H])([H])C([H])([H])C2([H])[H])C3([H])[H])c1N([H])C(=O)N1C([H])([H])C([H])([H])C([H])([H])C([H])(n2nc(-c3c([H])c([H])c(Oc4c([H])c([H])c(F)c([H])c4F)c([H])c3[H])c(C(=O)N([H])[H])c2N([H])[H])C1([H])[H]

$$$$
36:0:0
     RDKit          3D

 91100  0  0  1  0  0  0  0  0999 V2000
  -28.4180  -21.9870   20.0360 C   0  0  0  0  0  3  0  0  0  0  0  0
  -28.7030  -23.3450   20.3530 C   0  0  0  0  0  0  0  0  0  0  0  0
  -30.0120  -23.1600   20.8910 C   0  0  0  0  0  0  0  0  0  0  0  0
  -30.8920  -24.2120   21.5010 C   0  0  0  0  0  1  0  0  0  0  0  0
  -30.4380  -21.8780   20.8870 N   0  0  0  0  0  0  0  0  0  0  0  0
  -29.4720  -21.0670   20.3630 N   0  0  0  0  0  0  0  0  0  0  0  0
  -30.6050  -14.9440   19.9160 C   0  0  0  0  0  0  0  0  0  0  0  0
  -30.3290  -12.6310   18.9400 C   0  0  0  0  0  2  0  0  0  0  0  0
  -29.3190  -12.6190   17.7720 C   0  0  0  0  0  2  0  0  0  0  0  0
  -27.8950  -12.4030   18.3110 C   0  0  0  0  0  2  0  0  0  0  0  0
  -27.5730  -13.3190   19.5220 C   0  0  0  0  0  3  0  0  0  0  0  0
  -28.7050  -13.3330   20.5720 C   0  0  0  0  0  2  0  0  0  0  0  0
  -29.9290  -13.7280   19.8660 N   0  0  0  0  0  0  0  0  0  0  0  0
  -31.7870  -14.9220   19.5530 O   0  0  0  0  0  0  0  0  0  0  0  0
  -29.7150  -18.7460   18.9310 C   0  0  0  0  0  2  0  0  0  0  0  0
  -29.0530  -18.4670   21.2110 C   0  0  0  0  0  2  0  0  0  0  0  0
  -30.3190  -17.2520   18.9230 C   0  0  0  0  0  2  0  0  0  0  0  0
  -29.6420  -16.9550   21.2370 C   0  0  0  0  0  2  0  0  0  0  0  0
  -29.7770  -19.5130   20.2870 C   0  0  0  0  0  3  0  0  0  0  0  0
  -29.9360  -16.2080   19.9570 N   0  0  0  0  0  0  0  0  0  0  0  0
  -25.2590  -13.8800   20.4610 C   0  0  0  0  0  0  0  0  0  0  0  0
  -24.2170  -13.0970   20.8740 C   0  0  0  0  0  0  0  0  0  0  0  0
  -24.6670  -11.7460   20.7550 C   0  0  0  0  0  0  0  0  0  0  0  0
  -26.2750  -13.0080   20.1090 N   0  0  0  0  0  0  0  0  0  0  0  0
  -25.9310  -11.7150   20.3500 N   0  0  0  0  0  0  0  0  0  0  0  0
  -23.9440  -10.4810   20.9470 C   0  0  0  0  0  0  0  0  0  0  0  0
  -24.3860   -9.5100   21.8730 C   0  0  0  0  0  3  0  0  0  0  0  0
  -23.6640   -8.3100   22.0540 C   0  0  0  0  0  3  0  0  0  0  0  0
  -22.4840   -8.0730   21.3070 C   0  0  0  0  0  0  0  0  0  0  0  0
  -22.0610   -9.0320   20.3700 C   0  0  0  0  0  3  0  0  0  0  0  0
  -22.7840  -10.2240   20.1880 C   0  0  0  0  0  3  0  0  0  0  0  0
  -21.7330   -6.9270   21.3960 O   0  0  0  0  0  0  0  0  0  0  0  0
  -21.6190   -6.2290   22.5730 C   0  0  0  0  0  0  0  0  0  0  0  0
  -21.1060   -6.8250   23.7450 C   0  0  0  0  0  3  0  0  0  0  0  0
  -20.9410   -6.0550   24.9130 C   0  0  0  0  0  3  0  0  0  0  0  0
  -21.2790   -4.6890   24.9100 C   0  0  0  0  0  0  0  0  0  0  0  0
  -21.7870   -4.0920   23.7430 C   0  0  0  0  0  3  0  0  0  0  0  0
  -21.9530   -4.8600   22.5770 C   0  0  0  0  0  0  0  0  0  0  0  0
  -22.4220   -4.2740   21.4490 F   0  0  0  0  0  0  0  0  0  0  0  0
  -21.1150   -3.9470   26.0310 F   0  0  0  0  0  0  0  0  0  0  0  0
  -22.8480  -13.5730   21.2630 C   0  0  0  0  0  0  0  0  0  0  0  0
  -22.1820  -12.8550   22.1610 N   0  0  0  0  0  0  0  0  0  0  0  0
  -22.3800  -14.6150   20.8080 O   0  0  0  0  0  0  0  0  0  0  0  0
  -22.5760  -12.0140   22.5530 H   0  0  0  0  0  0  0  0  0  0  0  0
  -21.2660  -13.1550   22.4640 H   0  0  0  0  0  0  0  0  0  0  0  0
  -25.4230  -15.2560   20.3320 N   0  0  0  0  0  0  0  0  0  0  0  0
  -24.6760  -15.9100   20.5410 H   0  0  0  0  0  0  0  0  0  0  0  0
  -26.2590  -15.7040   19.9810 H   0  0  0  0  0  0  0  0  0  0  0  0
  -26.9120  -24.5760   21.6200 C   0  0  0  0  0  1  0  0  0  0  0  0
  -27.7500  -24.6800   20.3270 C   0  0  0  0  0  3  0  0  0  0  0  0
  -28.1950  -26.1710   20.2100 O   0  0  0  0  0  0  0  0  0  0  0  0
  -24.6410  -31.8660   23.1890 C   0  0  0  0  0  0  0  0  0  0  0  0
  -27.1890  -27.2010   20.0970 C   0  0  0  0  0  0  0  0  0  0  0  0
  -23.4300  -30.4920   21.5410 C   0  0  0  0  0  3  0  0  0  0  0  0
  -24.8730  -28.9520   20.0800 C   0  0  0  0  0  0  0  0  0  0  0  0
  -25.9830  -30.7640   21.3680 C   0  0  0  0  0  2  0  0  0  0  0  0
  -26.0540  -29.3840   20.7000 C   0  0  0  0  0  0  0  0  0  0  0  0
  -27.2140  -28.5200   20.6990 C   0  0  0  0  0  3  0  0  0  0  0  0
  -26.0000  -26.9000   19.3940 C   0  0  0  0  0  3  0  0  0  0  0  0
  -24.8590  -27.7250   19.4100 C   0  0  0  0  0  3  0  0  0  0  0  0
  -23.6450  -29.8440   20.1480 C   0  0  0  0  0  2  0  0  0  0  0  0
  -24.7040  -31.0600   22.0880 N   0  0  0  0  0  0  0  0  0  0  0  0
  -23.5590  -32.1430   23.7290 O   0  0  0  0  0  0  0  0  0  0  0  0
  -22.7620  -29.4660   22.4890 C   0  0  0  0  0  0  0  0  0  0  0  0
  -21.4320  -29.2980   22.3720 N   0  0  0  0  0  0  0  0  0  0  0  0
  -23.4420  -28.8270   23.2960 O   0  0  0  0  0  0  0  0  0  0  0  0
  -20.9380  -29.8660   21.6980 H   0  0  0  0  0  0  0  0  0  0  0  0
  -18.0540  -28.1040   22.8990 C   0  0  0  0  0  0  0  0  0  0  0  0
  -20.6170  -28.3540   23.1410 C   0  0  0  0  0  3  0  0  0  0  0  0
  -20.7070  -26.9270   22.5470 C   0  0  0  0  0  2  0  0  0  0  0  0
  -19.5920  -26.6240   21.5420 C   0  0  0  0  0  2  0  0  0  0  0  0
  -18.2190  -26.7640   22.2030 C   0  0  0  0  0  2  0  0  0  0  0  0
  -19.1810  -28.8580   23.3260 C   0  0  0  0  0  0  0  0  0  0  0  0
  -18.9710  -30.1120   23.9380 C   0  0  0  0  0  3  0  0  0  0  0  0
  -17.6690  -30.6140   24.1280 C   0  0  0  0  0  3  0  0  0  0  0  0
  -16.5570  -29.8580   23.7150 C   0  0  0  0  0  3  0  0  0  0  0  0
  -16.7510  -28.6050   23.1070 C   0  0  0  0  0  3  0  0  0  0  0  0
  -25.9230  -32.4970   23.8110 C   0  0  0  0  0  3  0  0  0  0  0  0
  -25.6130  -33.8910   24.1630 N   0  0  0  0  0  0  0  0  0  0  0  0
  -25.9160  -34.9560   23.4080 C   0  0  0  0  0  0  0  0  0  0  0  0
  -26.5550  -34.8670   22.3560 O   0  0  0  0  0  0  0  0  0  0  0  0
  -25.0440  -34.0290   24.9840 H   0  0  0  0  0  0  0  0  0  0  0  0
  -24.1620  -36.7380   23.1310 C   0  0  0  0  0  1  0  0  0  0  0  0
  -25.4350  -36.3370   23.8940 C   0  0  0  0  0  3  0  0  0  0  0  0
  -27.5890  -37.2370   24.6570 C   0  0  0  0  0  1  0  0  0  0  0  0
  -26.4550  -37.4000   23.7510 N   0  0  0  0  0  0  0  0  0  0  0  0
  -26.0470  -38.3160   23.9170 H   0  0  0  0  0  0  0  0  0  0  0  0
  -26.4440  -31.7110   25.0770 C   0  0  1  0  0  0  0  0  0  0  0  0
  -25.3550  -31.4630   26.1470 C   0  0  0  0  0  1  0  0  0  0  0  0
  -27.0270  -30.3370   24.6730 C   0  0  0  0  0  1  0  0  0  0  0  0
  -27.5950  -32.4990   25.7430 C   0  0  0  0  0  1  0  0  0  0  0  0
  1  2  2  0
  1  6  1  0
  2  3  1  0
  3  4  1  0
  5  3  2  0
  6  5  1  0
  7 20  1  0
  8 13  1  0
  9 10  1  0
  9  8  1  0
 11 10  1  0
 11 24  1  0
 11 12  1  0
 13  7  1  0
 13 12  1  0
 14  7  2  0
 16 18  1  0
 17 15  1  0
 17 20  1  0
 19 15  1  0
 19  6  1  0
 19 16  1  0
 20 18  1  0
 21 22  2  0
 22 41  1  0
 23 22  1  0
 23 26  1  0
 24 25  1  0
 24 21  1  0
 25 23  2  0
 26 27  1  0
 27 28  2  0
 29 32  1  0
 29 28  1  0
 30 29  2  0
 31 30  1  0
 31 26  2  0
 32 33  1  0
 33 38  2  0
 33 34  1  0
 34 35  2  0
 36 35  1  0
 36 40  1  0
 37 36  2  0
 38 37  1  0
 39 38  1  0
 41 42  1  0
 42 45  1  0
 42 44  1  0
 43 41  2  0
 46 21  1  0
 46 47  1  0
 48 46  1  0
 50  2  1  0
 50 49  1  0
 51 50  1  0
 52 63  2  0
 53 51  1  0
 53 58  1  0
 54 62  1  0
 54 64  1  0
 55 61  1  0
 55 57  1  0
 56 62  1  0
 57 56  1  0
 58 57  2  0
 59 60  1  0
 59 53  2  0
 60 55  2  0
 61 54  1  0
 62 52  1  0
 64 66  2  0
 65 64  1  0
 67 65  1  0
 68 77  2  0
 68 73  1  0
 69 65  1  0
 69 73  1  0
 70 69  1  0
 71 72  1  0
 71 70  1  0
 72 68  1  0
 73 74  2  0
 74 75  1  0
 76 75  2  0
 77 76  1  0
 78 52  1  0
 78 79  1  0
 78 88  1  0
 79 82  1  0
 80 84  1  0
 80 79  1  0
 81 80  2  0
 84 83  1  0
 86 84  1  0
 86 87  1  0
 86 85  1  0
 88 91  1  1
 88 89  1  0
 90 88  1  0
M  ISO  4   7 100  20 100  50 101  51 101
M  END
>  <TORSDO>  (37) 
F 17

>  <SCORE>  (37) 
-14.596

>  <name>  (37) 
36

>  <ligand_id>  (37) 
36

>  <original_smiles>  (37) 
[H]c1c([H])c([H])c2c(c1[H])C([H])([H])C([H])([H])C([H])([H])C2([H])N([H])C(=O)C1([H])N(C(=O)C([H])(N([H])C(=O)C([H])(N([H])C([H])([H])[H])C([H])([H])[H])C(C([H])([H])[H])(C([H])([H])[H])C([H])([H])[H])C([H])([H])c2c([H])c(OC([H])(c3c(C([H])([H])[H])nn(C4([H])C([H])([H])C([H])([H])N(C(=O)N5C([H])([H])C([H])([H])C([H])([H])C([H])(n6nc(-c7c([H])c([H])c(Oc8c([H])c([H])c(F)c([H])c8F)c([H])c7[H])c(C(=O)N([H])[H])c6N([H])[H])C5([H])[H])C([H])([H])C4([H])[H])c3[H])C([H])([H])[H])c([H])c([H])c2C1([H])[H]

>  <smiles>  (37) 
[H]c1c([H])c([H])c2c(c1[H])C([H])([H])C([H])([H])C([H])([H])C2([H])N([H])C(=O)C1([H])N(C(=O)C([H])(N([H])C(=O)C([H])(N([H])C([H])([H])[H])C([H])([H])[H])C(C([H])([H])[H])(C([H])([H])[H])C([H])([H])[H])C([H])([H])c2c([H])c(OC([H])(c3c(C([H])([H])[H])nn(C4([H])C([H])([H])C([H])([H])N(C(=O)N5C([H])([H])C([H])([H])C([H])([H])C([H])(n6nc(-c7c([H])c([H])c(Oc8c([H])c([H])c(F)c([H])c8F)c([H])c7[H])c(C(=O)N([H])[H])c6N([H])[H])C5([H])[H])C([H])([H])C4([H])[H])c3[H])C([H])([H])[H])c([H])c([H])c2C1([H])[H]

$$$$
37:0:0
     RDKit          3D

 92101  0  0  1  0  0  0  0  0999 V2000
  -30.5190  -15.3870   20.2190 C   0  0  0  0  0  0  0  0  0  0  0  0
  -30.4660  -12.9050   19.4300 C   0  0  0  0  0  2  0  0  0  0  0  0
  -29.5490  -12.5910   18.2230 C   0  0  0  0  0  2  0  0  0  0  0  0
  -28.1140  -12.3070   18.6970 C   0  0  0  0  0  2  0  0  0  0  0  0
  -27.6460  -13.3210   19.7670 C   0  0  0  0  0  3  0  0  0  0  0  0
  -28.7000  -13.5840   20.8660 C   0  0  0  0  0  2  0  0  0  0  0  0
  -29.9010  -14.0950   20.1780 N   0  0  0  0  0  0  0  0  0  0  0  0
  -31.7490  -15.2800   20.0830 O   0  0  0  0  0  0  0  0  0  0  0  0
  -30.6930  -20.9920   20.0750 C   0  0  0  0  0  3  0  0  0  0  0  0
  -29.9820  -19.7320   20.1960 C   0  0  0  0  0  0  0  0  0  0  0  0
  -30.1000  -22.3380   19.9830 C   0  0  0  0  0  0  0  0  0  0  0  0
  -28.6060  -20.0050   20.1390 C   0  0  0  0  0  0  0  0  0  0  0  0
  -28.6830  -22.6070   19.9870 C   0  0  0  0  0  0  0  0  0  0  0  0
  -27.8210  -18.6490   20.2600 C   0  0  0  0  0  2  0  0  0  0  0  0
  -28.4920  -17.1910   19.8650 C   0  0  0  0  0  2  0  0  0  0  0  0
  -30.6290  -18.1830   20.4460 C   0  0  0  0  0  3  0  0  0  0  0  0
  -31.0390  -23.5260   19.8730 C   0  0  0  0  0  1  0  0  0  0  0  0
  -28.0120  -21.3310   20.0490 N   0  0  0  0  0  0  0  0  0  0  0  0
  -29.8970  -16.7680   20.2550 N   0  0  0  0  0  0  0  0  0  0  0  0
  -25.3040  -13.8770   20.6000 C   0  0  0  0  0  0  0  0  0  0  0  0
  -24.2420  -13.1010   20.9670 C   0  0  0  0  0  0  0  0  0  0  0  0
  -24.6940  -11.7480   20.8860 C   0  0  0  0  0  0  0  0  0  0  0  0
  -26.3310  -13.0000   20.3070 N   0  0  0  0  0  0  0  0  0  0  0  0
  -25.9790  -11.7100   20.5490 N   0  0  0  0  0  0  0  0  0  0  0  0
  -23.9540  -10.4900   21.0480 C   0  0  0  0  0  0  0  0  0  0  0  0
  -24.3660   -9.5030   21.9710 C   0  0  0  0  0  3  0  0  0  0  0  0
  -23.6230   -8.3130   22.1260 C   0  0  0  0  0  3  0  0  0  0  0  0
  -22.4530   -8.1020   21.3580 C   0  0  0  0  0  0  0  0  0  0  0  0
  -22.0590   -9.0780   20.4250 C   0  0  0  0  0  3  0  0  0  0  0  0
  -22.8040  -10.2590   20.2680 C   0  0  0  0  0  3  0  0  0  0  0  0
  -21.6820   -6.9670   21.4230 O   0  0  0  0  0  0  0  0  0  0  0  0
  -21.5820   -6.2290   22.5760 C   0  0  0  0  0  0  0  0  0  0  0  0
  -21.1100   -6.7930   23.7820 C   0  0  0  0  0  3  0  0  0  0  0  0
  -20.9570   -5.9830   24.9250 C   0  0  0  0  0  3  0  0  0  0  0  0
  -21.2660   -4.6120   24.8630 C   0  0  0  0  0  0  0  0  0  0  0  0
  -21.7310   -4.0470   23.6620 C   0  0  0  0  0  3  0  0  0  0  0  0
  -21.8850   -4.8540   22.5220 C   0  0  0  0  0  0  0  0  0  0  0  0
  -22.3130   -4.3020   21.3610 F   0  0  0  0  0  0  0  0  0  0  0  0
  -21.1120   -3.8310   25.9580 F   0  0  0  0  0  0  0  0  0  0  0  0
  -22.8560  -13.5890   21.2710 C   0  0  0  0  0  0  0  0  0  0  0  0
  -22.1350  -12.8830   22.1320 N   0  0  0  0  0  0  0  0  0  0  0  0
  -22.4250  -14.6310   20.7790 O   0  0  0  0  0  0  0  0  0  0  0  0
  -22.4990  -12.0400   22.5500 H   0  0  0  0  0  0  0  0  0  0  0  0
  -21.2050  -13.1910   22.3800 H   0  0  0  0  0  0  0  0  0  0  0  0
  -25.4680  -15.2500   20.4580 N   0  0  0  0  0  0  0  0  0  0  0  0
  -24.7000  -15.8980   20.5960 H   0  0  0  0  0  0  0  0  0  0  0  0
  -26.3010  -15.6920   20.0940 H   0  0  0  0  0  0  0  0  0  0  0  0
  -32.2200  -19.2880   22.2160 C   0  0  0  0  0  1  0  0  0  0  0  0
  -30.2520  -17.9100   22.9740 C   0  0  0  0  0  1  0  0  0  0  0  0
  -31.2950  -18.1140   21.8580 C   0  0  0  0  0  3  0  0  0  0  0  0
  -27.8580  -24.1730   19.7880 C   0  0  0  0  0  2  0  0  0  0  0  0
  -28.1910  -25.7910   20.0070 O   0  0  0  0  0  0  0  0  0  0  0  0
  -24.6150  -31.7440   23.0910 C   0  0  0  0  0  0  0  0  0  0  0  0
  -27.1960  -26.9200   19.9640 C   0  0  0  0  0  0  0  0  0  0  0  0
  -23.4310  -30.3730   21.4240 C   0  0  0  0  0  3  0  0  0  0  0  0
  -24.8890  -28.8100   19.9620 C   0  0  0  0  0  0  0  0  0  0  0  0
  -25.9980  -30.5980   21.2820 C   0  0  0  0  0  2  0  0  0  0  0  0
  -26.0770  -29.2010   20.5930 C   0  0  0  0  0  0  0  0  0  0  0  0
  -27.2240  -28.2780   20.5700 C   0  0  0  0  0  3  0  0  0  0  0  0
  -25.9770  -26.6960   19.2840 C   0  0  0  0  0  3  0  0  0  0  0  0
  -24.8670  -27.5800   19.2870 C   0  0  0  0  0  3  0  0  0  0  0  0
  -23.6650  -29.7250   20.0320 C   0  0  0  0  0  2  0  0  0  0  0  0
  -24.7030  -30.9320   21.9860 N   0  0  0  0  0  0  0  0  0  0  0  0
  -23.5220  -32.0140   23.6170 O   0  0  0  0  0  0  0  0  0  0  0  0
  -22.7430  -29.3530   22.3690 C   0  0  0  0  0  0  0  0  0  0  0  0
  -21.4100  -29.2030   22.2620 N   0  0  0  0  0  0  0  0  0  0  0  0
  -23.4180  -28.6980   23.1670 O   0  0  0  0  0  0  0  0  0  0  0  0
  -20.9180  -29.7830   21.5950 H   0  0  0  0  0  0  0  0  0  0  0  0
  -18.0210  -28.0250   22.8230 C   0  0  0  0  0  0  0  0  0  0  0  0
  -20.5920  -28.2460   23.0170 C   0  0  0  0  0  3  0  0  0  0  0  0
  -20.6540  -26.8380   22.3810 C   0  0  0  0  0  2  0  0  0  0  0  0
  -19.5170  -26.5740   21.3870 C   0  0  0  0  0  2  0  0  0  0  0  0
  -18.1580  -26.7080   22.0790 C   0  0  0  0  0  2  0  0  0  0  0  0
  -19.1640  -28.7560   23.2480 C   0  0  0  0  0  0  0  0  0  0  0  0
  -18.9790  -29.9900   23.9080 C   0  0  0  0  0  3  0  0  0  0  0  0
  -17.6860  -30.4940   24.1430 C   0  0  0  0  0  3  0  0  0  0  0  0
  -16.5580  -29.7620   23.7290 C   0  0  0  0  0  3  0  0  0  0  0  0
  -16.7280  -28.5290   23.0760 C   0  0  0  0  0  3  0  0  0  0  0  0
  -25.8790  -32.3840   23.7360 C   0  0  0  0  0  3  0  0  0  0  0  0
  -25.5490  -33.7720   24.1080 N   0  0  0  0  0  0  0  0  0  0  0  0
  -25.8510  -34.8570   23.3820 C   0  0  0  0  0  0  0  0  0  0  0  0
  -26.5020  -34.7940   22.3360 O   0  0  0  0  0  0  0  0  0  0  0  0
  -24.9700  -33.8920   24.9270 H   0  0  0  0  0  0  0  0  0  0  0  0
  -24.0860  -36.6340   23.1320 C   0  0  0  0  0  1  0  0  0  0  0  0
  -25.3570  -36.2250   23.8940 C   0  0  0  0  0  3  0  0  0  0  0  0
  -27.4980  -37.1250   24.6930 C   0  0  0  0  0  1  0  0  0  0  0  0
  -26.3690  -37.2980   23.7820 N   0  0  0  0  0  0  0  0  0  0  0  0
  -25.9520  -38.2070   23.9640 H   0  0  0  0  0  0  0  0  0  0  0  0
  -26.3940  -31.5950   25.0030 C   0  0  1  0  0  0  0  0  0  0  0  0
  -25.2980  -31.3370   26.0650 C   0  0  0  0  0  1  0  0  0  0  0  0
  -26.9850  -30.2260   24.6000 C   0  0  0  0  0  1  0  0  0  0  0  0
  -27.5390  -32.3840   25.6810 C   0  0  0  0  0  1  0  0  0  0  0  0
  1 19  1  0
  2  7  1  0
  3  4  1  0
  3  2  1  0
  5  4  1  0
  5 23  1  0
  5  6  1  0
  7  1  1  0
  7  6  1  0
  8  1  2  0
  9 10  1  0
 10 16  1  0
 11 13  1  0
 11  9  2  0
 12 10  2  0
 12 14  1  0
 13 18  2  0
 15 19  1  0
 15 14  1  0
 16 50  1  0
 17 11  1  0
 18 12  1  0
 19 16  1  0
 20 21  2  0
 21 40  1  0
 22 21  1  0
 22 25  1  0
 23 24  1  0
 23 20  1  0
 24 22  2  0
 25 26  1  0
 26 27  2  0
 28 31  1  0
 28 27  1  0
 29 28  2  0
 30 29  1  0
 30 25  2  0
 31 32  1  0
 32 33  1  0
 33 34  2  0
 35 34  1  0
 35 39  1  0
 36 35  2  0
 37 32  2  0
 37 36  1  0
 38 37  1  0
 40 41  1  0
 41 44  1  0
 41 43  1  0
 42 40  2  0
 45 46  1  0
 45 20  1  0
 47 45  1  0
 50 48  1  0
 50 49  1  0
 51 13  1  0
 51 52  1  0
 53 64  2  0
 54 52  1  0
 54 59  1  0
 55 63  1  0
 55 65  1  0
 56 62  1  0
 56 58  1  0
 57 63  1  0
 58 57  1  0
 59 58  2  0
 60 61  1  0
 60 54  2  0
 61 56  2  0
 62 55  1  0
 63 53  1  0
 65 67  2  0
 66 65  1  0
 68 66  1  0
 69 78  2  0
 69 74  1  0
 70 66  1  0
 70 74  1  0
 71 70  1  0
 72 73  1  0
 72 71  1  0
 73 69  1  0
 74 75  2  0
 75 76  1  0
 77 76  2  0
 78 77  1  0
 79 53  1  0
 79 80  1  0
 79 89  1  0
 80 83  1  0
 81 85  1  0
 81 80  1  0
 82 81  2  0
 85 84  1  0
 87 85  1  0
 87 88  1  0
 87 86  1  0
 89 92  1  1
 89 90  1  0
 91 89  1  0
M  ISO  4   1 100  19 100  51 101  52 101
M  END
>  <TORSDO>  (38) 
F 17

>  <SCORE>  (38) 
-15.772

>  <name>  (38) 
37

>  <ligand_id>  (38) 
37

>  <original_smiles>  (38) 
[H]c1c([H])c([H])c2c(c1[H])C([H])([H])C([H])([H])C([H])([H])C2([H])N([H])C(=O)C1([H])N(C(=O)C([H])(N([H])C(=O)C([H])(N([H])C([H])([H])[H])C([H])([H])[H])C(C([H])([H])[H])(C([H])([H])[H])C([H])([H])[H])C([H])([H])c2c([H])c(OC([H])([H])c3nc4c(c([H])c3C([H])([H])[H])C([H])(C([H])(C([H])([H])[H])C([H])([H])[H])N(C(=O)N3C([H])([H])C([H])([H])C([H])([H])C([H])(n5nc(-c6c([H])c([H])c(Oc7c([H])c([H])c(F)c([H])c7F)c([H])c6[H])c(C(=O)N([H])[H])c5N([H])[H])C3([H])[H])C([H])([H])C4([H])[H])c([H])c([H])c2C1([H])[H]

>  <smiles>  (38) 
[H]c1c([H])c([H])c2c(c1[H])C([H])([H])C([H])([H])C([H])([H])C2([H])N([H])C(=O)C1([H])N(C(=O)C([H])(N([H])C(=O)C([H])(N([H])C([H])([H])[H])C([H])([H])[H])C(C([H])([H])[H])(C([H])([H])[H])C([H])([H])[H])C([H])([H])c2c([H])c(OC([H])([H])c3nc4c(c([H])c3C([H])([H])[H])C([H])(C([H])(C([H])([H])[H])C([H])([H])[H])N(C(=O)N3C([H])([H])C([H])([H])C([H])([H])C([H])(n5nc(-c6c([H])c([H])c(Oc7c([H])c([H])c(F)c([H])c7F)c([H])c6[H])c(C(=O)N([H])[H])c5N([H])[H])C3([H])[H])C([H])([H])C4([H])[H])c([H])c([H])c2C1([H])[H]

$$$$
38:0:0
     RDKit          3D

 89 97  0  0  1  0  0  0  0  0999 V2000
  -28.9450  -20.2720   20.4940 N   0  0  0  0  0  4  0  0  0  0  0  0
  -29.2230  -20.4410   21.4460 H   0  0  0  0  0  0  0  0  0  0  0  0
  -27.9740  -19.9990   20.5170 H   0  0  0  0  0  0  0  0  0  0  0  0
  -29.7610  -18.9690   20.0550 C   0  0  0  0  0  2  0  0  0  0  0  0
  -30.5950  -14.9730   19.6890 C   0  0  0  0  0  0  0  0  0  0  0  0
  -30.2310  -12.7170   18.5720 C   0  0  0  0  0  2  0  0  0  0  0  0
  -29.1410  -12.7890   17.4780 C   0  0  0  0  0  2  0  0  0  0  0  0
  -27.7620  -12.5320   18.0990 C   0  0  0  0  0  2  0  0  0  0  0  0
  -27.5290  -13.4080   19.3550 C   0  0  0  0  0  3  0  0  0  0  0  0
  -28.7190  -13.3210   20.3400 C   0  0  0  0  0  2  0  0  0  0  0  0
  -29.9250  -13.7460   19.6170 N   0  0  0  0  0  0  0  0  0  0  0  0
  -31.6620  -15.0470   19.0640 O   0  0  0  0  0  0  0  0  0  0  0  0
  -30.3440  -17.1540   22.7180 C   0  0  0  0  0  2  0  0  0  0  0  0
  -29.0150  -17.4750   22.0560 C   0  0  0  0  0  2  0  0  0  0  0  0
  -30.9380  -16.0610   21.8260 C   0  0  0  0  0  2  0  0  0  0  0  0
  -29.3330  -17.3960   20.5540 C   0  0  0  0  0  3  0  0  0  0  0  0
  -30.2120  -16.0600   20.5390 N   0  0  0  0  0  0  0  0  0  0  0  0
  -25.2730  -13.9900   20.4160 C   0  0  0  0  0  0  0  0  0  0  0  0
  -24.2370  -13.2160   20.8580 C   0  0  0  0  0  0  0  0  0  0  0  0
  -24.6460  -11.8600   20.6720 C   0  0  0  0  0  0  0  0  0  0  0  0
  -26.2510  -13.1080   19.9890 N   0  0  0  0  0  0  0  0  0  0  0  0
  -25.8870  -11.8150   20.2030 N   0  0  0  0  0  0  0  0  0  0  0  0
  -23.9060  -10.6050   20.8590 C   0  0  0  0  0  0  0  0  0  0  0  0
  -24.3720   -9.5940   21.7270 C   0  0  0  0  0  3  0  0  0  0  0  0
  -23.6300   -8.4080   21.9090 C   0  0  0  0  0  3  0  0  0  0  0  0
  -22.4080   -8.2240   21.2190 C   0  0  0  0  0  0  0  0  0  0  0  0
  -21.9600   -9.2240   20.3390 C   0  0  0  0  0  3  0  0  0  0  0  0
  -22.7020  -10.4010   20.1550 C   0  0  0  0  0  3  0  0  0  0  0  0
  -21.6320   -7.0920   21.3110 O   0  0  0  0  0  0  0  0  0  0  0  0
  -21.5740   -6.3540   22.4630 C   0  0  0  0  0  0  0  0  0  0  0  0
  -21.1670   -6.9200   23.6930 C   0  0  0  0  0  3  0  0  0  0  0  0
  -21.0530   -6.1100   24.8390 C   0  0  0  0  0  3  0  0  0  0  0  0
  -21.3360   -4.7330   24.7600 C   0  0  0  0  0  0  0  0  0  0  0  0
  -21.7380   -4.1660   23.5380 C   0  0  0  0  0  3  0  0  0  0  0  0
  -21.8500   -4.9730   22.3930 C   0  0  0  0  0  0  0  0  0  0  0  0
  -22.2160   -4.4180   21.2130 F   0  0  0  0  0  0  0  0  0  0  0  0
  -21.2200   -3.9510   25.8600 F   0  0  0  0  0  0  0  0  0  0  0  0
  -22.9010  -13.7050   21.3420 C   0  0  0  0  0  0  0  0  0  0  0  0
  -22.2830  -12.9720   22.2620 N   0  0  0  0  0  0  0  0  0  0  0  0
  -22.4250  -14.7660   20.9440 O   0  0  0  0  0  0  0  0  0  0  0  0
  -22.6720  -12.0970   22.5770 H   0  0  0  0  0  0  0  0  0  0  0  0
  -21.4100  -13.2910   22.6570 H   0  0  0  0  0  0  0  0  0  0  0  0
  -25.4640  -15.3660   20.3140 N   0  0  0  0  0  0  0  0  0  0  0  0
  -24.7490  -16.0380   20.5760 H   0  0  0  0  0  0  0  0  0  0  0  0
  -26.2770  -15.7950   19.8920 H   0  0  0  0  0  0  0  0  0  0  0  0
  -28.9450  -21.6910   19.7750 C   0  0  0  0  0  2  0  0  0  0  0  0
  -28.6200  -23.1730   20.5460 C   0  0  0  0  0  2  0  0  0  0  0  0
  -28.0390  -24.5950   19.8290 C   0  0  0  0  0  2  0  0  0  0  0  0
  -28.2310  -26.1000   20.2390 O   0  0  0  0  0  0  0  0  0  0  0  0
  -24.7010  -31.8750   23.1720 C   0  0  0  0  0  0  0  0  0  0  0  0
  -27.2060  -27.1130   20.1300 C   0  0  0  0  0  0  0  0  0  0  0  0
  -23.4860  -30.4740   21.5560 C   0  0  0  0  0  3  0  0  0  0  0  0
  -24.9080  -28.9010   20.1150 C   0  0  0  0  0  0  0  0  0  0  0  0
  -26.0400  -30.7250   21.3690 C   0  0  0  0  0  2  0  0  0  0  0  0
  -26.0980  -29.3270   20.7190 C   0  0  0  0  0  0  0  0  0  0  0  0
  -27.2430  -28.4470   20.7180 C   0  0  0  0  0  3  0  0  0  0  0  0
  -26.0010  -26.8150   19.4530 C   0  0  0  0  0  3  0  0  0  0  0  0
  -24.8770  -27.6630   19.4630 C   0  0  0  0  0  3  0  0  0  0  0  0
  -23.6900  -29.8010   20.1740 C   0  0  0  0  0  2  0  0  0  0  0  0
  -24.7640  -31.0470   22.0850 N   0  0  0  0  0  0  0  0  0  0  0  0
  -23.6210  -32.1610   23.7130 O   0  0  0  0  0  0  0  0  0  0  0  0
  -22.8170  -29.4680   22.5300 C   0  0  0  0  0  0  0  0  0  0  0  0
  -21.4890  -29.2930   22.4150 N   0  0  0  0  0  0  0  0  0  0  0  0
  -23.4950  -28.8510   23.3540 O   0  0  0  0  0  0  0  0  0  0  0  0
  -20.9970  -29.8380   21.7200 H   0  0  0  0  0  0  0  0  0  0  0  0
  -18.1100  -28.1030   22.9630 C   0  0  0  0  0  0  0  0  0  0  0  0
  -20.6740  -28.3670   23.2070 C   0  0  0  0  0  3  0  0  0  0  0  0
  -20.7710  -26.9310   22.6390 C   0  0  0  0  0  2  0  0  0  0  0  0
  -19.6570  -26.6040   21.6390 C   0  0  0  0  0  2  0  0  0  0  0  0
  -18.2810  -26.7510   22.2890 C   0  0  0  0  0  2  0  0  0  0  0  0
  -19.2320  -28.8690   23.3780 C   0  0  0  0  0  0  0  0  0  0  0  0
  -19.0110  -30.1370   23.9640 C   0  0  0  0  0  3  0  0  0  0  0  0
  -17.7060  -30.6330   24.1400 C   0  0  0  0  0  3  0  0  0  0  0  0
  -16.6000  -29.8640   23.7400 C   0  0  0  0  0  3  0  0  0  0  0  0
  -16.8050  -28.6020   23.1520 C   0  0  0  0  0  3  0  0  0  0  0  0
  -25.9870  -32.5120   23.7810 C   0  0  0  0  0  3  0  0  0  0  0  0
  -26.5270  -31.7300   25.0400 C   0  0  1  0  0  0  0  0  0  0  0  0
  -25.4520  -31.4670   26.1230 C   0  0  0  0  0  1  0  0  0  0  0  0
  -27.1140  -30.3600   24.6270 C   0  0  0  0  0  1  0  0  0  0  0  0
  -27.6890  -32.5230   25.6840 C   0  0  0  0  0  1  0  0  0  0  0  0
  -25.6690  -33.9060   24.1320 N   0  0  0  0  0  0  0  0  0  0  0  0
  -25.9840  -34.9720   23.3820 C   0  0  0  0  0  0  0  0  0  0  0  0
  -26.6320  -34.8830   22.3360 O   0  0  0  0  0  0  0  0  0  0  0  0
  -25.0730  -34.0450   24.9340 H   0  0  0  0  0  0  0  0  0  0  0  0
  -24.2390  -36.7660   23.0940 C   0  0  0  0  0  1  0  0  0  0  0  0
  -25.5030  -36.3550   23.8660 C   0  0  0  0  0  3  0  0  0  0  0  0
  -27.6560  -37.2470   24.6450 C   0  0  0  0  0  1  0  0  0  0  0  0
  -26.5270  -37.4150   23.7340 N   0  0  0  0  0  0  0  0  0  0  0  0
  -26.1200  -38.3320   23.8990 H   0  0  0  0  0  0  0  0  0  0  0  0
  1  3  1  0
  1  2  1  0
  4  1  1  0
  5 17  1  0
  6 11  1  0
  7  8  1  0
  7  6  1  0
  9  8  1  0
  9 21  1  0
  9 10  1  0
 11  5  1  0
 11 10  1  0
 12  5  2  0
 14 13  1  0
 15 13  1  0
 16  4  1  0
 16 14  1  0
 17 16  1  0
 17 15  1  0
 18 19  2  0
 19 38  1  0
 20 19  1  0
 20 23  1  0
 21 22  1  0
 21 18  1  0
 22 20  2  0
 23 24  1  0
 24 25  2  0
 26 29  1  0
 26 25  1  0
 27 26  2  0
 28 27  1  0
 28 23  2  0
 29 30  1  0
 30 31  1  0
 31 32  2  0
 33 32  1  0
 33 37  1  0
 34 33  2  0
 35 30  2  0
 35 34  1  0
 36 35  1  0
 38 39  1  0
 39 41  1  0
 39 42  1  0
 40 38  2  0
 43 18  1  0
 43 44  1  0
 45 43  1  0
 46  1  1  0
 46 47  1  0
 48 49  1  0
 48 47  1  0
 50 61  2  0
 51 49  1  0
 51 56  1  0
 52 60  1  0
 52 62  1  0
 53 59  1  0
 53 55  1  0
 54 60  1  0
 55 54  1  0
 56 55  2  0
 57 58  1  0
 57 51  2  0
 58 53  2  0
 59 52  1  0
 60 50  1  0
 62 64  2  0
 63 62  1  0
 65 63  1  0
 66 75  2  0
 66 71  1  0
 67 63  1  0
 67 71  1  0
 68 67  1  0
 69 70  1  0
 69 68  1  0
 70 66  1  0
 71 72  2  0
 72 73  1  0
 74 73  2  0
 75 74  1  0
 76 50  1  0
 76 81  1  0
 76 77  1  0
 77 80  1  1
 77 78  1  0
 79 77  1  0
 81 84  1  0
 82 86  1  0
 82 81  1  0
 83 82  2  0
 86 85  1  0
 88 86  1  0
 88 89  1  0
 88 87  1  0
M  ISO  4   5 100  17 100  48 101  49 101
M  END
>  <TORSDO>  (39) 
F 20

>  <SCORE>  (39) 
-12.932

>  <name>  (39) 
38

>  <ligand_id>  (39) 
38

>  <original_smiles>  (39) 
[H]c1c([H])c([H])c2c(c1[H])C([H])([H])C([H])([H])C([H])([H])C2([H])N([H])C(=O)C1([H])N(C(=O)C([H])(N([H])C(=O)C([H])(N([H])C([H])([H])[H])C([H])([H])[H])C(C([H])([H])[H])(C([H])([H])[H])C([H])([H])[H])C([H])([H])c2c([H])c(OC([H])([H])C([H])([H])C([H])([H])[N+]([H])([H])C([H])([H])C3([H])N(C(=O)N4C([H])([H])C([H])([H])C([H])([H])C([H])(n5nc(-c6c([H])c([H])c(Oc7c([H])c([H])c(F)c([H])c7F)c([H])c6[H])c(C(=O)N([H])[H])c5N([H])[H])C4([H])[H])C([H])([H])C([H])([H])C3([H])[H])c([H])c([H])c2C1([H])[H]

>  <smiles>  (39) 
[H]c1c([H])c([H])c2c(c1[H])C([H])([H])C([H])([H])C([H])([H])C2([H])N([H])C(=O)C1([H])N(C(=O)C([H])(N([H])C(=O)C([H])(N([H])C([H])([H])[H])C([H])([H])[H])C(C([H])([H])[H])(C([H])([H])[H])C([H])([H])[H])C([H])([H])c2c([H])c(OC([H])([H])C([H])([H])C([H])([H])[N+]([H])([H])C([H])([H])C3([H])N(C(=O)N4C([H])([H])C([H])([H])C([H])([H])C([H])(n5nc(-c6c([H])c([H])c(Oc7c([H])c([H])c(F)c([H])c7F)c([H])c6[H])c(C(=O)N([H])[H])c5N([H])[H])C4([H])[H])C([H])([H])C([H])([H])C3([H])[H])c([H])c([H])c2C1([H])[H]

$$$$
39:0:0
     RDKit          3D

 88 96  0  0  1  0  0  0  0  0999 V2000
  -28.7360  -20.5870   21.2640 C   0  0  0  0  0  3  0  0  0  0  0  0
  -29.3390  -19.7920   20.1950 C   0  0  0  0  0  0  0  0  0  0  0  0
  -29.1630  -22.0410   19.0750 C   0  0  0  0  0  0  0  0  0  0  0  0
  -28.5600  -22.8390   20.1490 C   0  0  0  0  0  0  0  0  0  0  0  0
  -29.4240  -22.6770   17.7230 C   0  0  0  0  0  1  0  0  0  0  0  0
  -28.3620  -21.9680   21.2310 N   0  0  0  0  0  0  0  0  0  0  0  0
  -29.5360  -20.6610   19.1160 N   0  0  0  0  0  0  0  0  0  0  0  0
  -30.1160  -18.2280   20.2660 C   0  0  0  0  0  2  0  0  0  0  0  0
  -30.4550  -15.3580   20.1930 C   0  0  0  0  0  0  0  0  0  0  0  0
  -30.4120  -12.9260   19.3140 C   0  0  0  0  0  2  0  0  0  0  0  0
  -29.4650  -12.7240   18.1040 C   0  0  0  0  0  2  0  0  0  0  0  0
  -28.0290  -12.4490   18.5830 C   0  0  0  0  0  2  0  0  0  0  0  0
  -27.5980  -13.4100   19.7190 C   0  0  0  0  0  3  0  0  0  0  0  0
  -28.6700  -13.5580   20.8190 C   0  0  0  0  0  2  0  0  0  0  0  0
  -29.8830  -14.0600   20.1530 N   0  0  0  0  0  0  0  0  0  0  0  0
  -31.6700  -15.3640   19.9470 O   0  0  0  0  0  0  0  0  0  0  0  0
  -29.7070  -16.6250   20.3040 N   0  0  0  0  0  0  0  0  0  0  0  0
  -28.7180  -16.4770   20.4420 H   0  0  0  0  0  0  0  0  0  0  0  0
  -25.2470  -13.9440   20.5480 C   0  0  0  0  0  0  0  0  0  0  0  0
  -24.1990  -13.1550   20.9310 C   0  0  0  0  0  0  0  0  0  0  0  0
  -24.6720  -11.8080   20.8630 C   0  0  0  0  0  0  0  0  0  0  0  0
  -26.2860  -13.0790   20.2580 N   0  0  0  0  0  0  0  0  0  0  0  0
  -25.9540  -11.7870   20.5160 N   0  0  0  0  0  0  0  0  0  0  0  0
  -23.9560  -10.5390   21.0450 C   0  0  0  0  0  0  0  0  0  0  0  0
  -24.3990   -9.5650   21.9660 C   0  0  0  0  0  3  0  0  0  0  0  0
  -23.6790   -8.3630   22.1380 C   0  0  0  0  0  3  0  0  0  0  0  0
  -22.5020   -8.1260   21.3890 C   0  0  0  0  0  0  0  0  0  0  0  0
  -22.0790   -9.0890   20.4550 C   0  0  0  0  0  3  0  0  0  0  0  0
  -22.8000  -10.2820   20.2810 C   0  0  0  0  0  3  0  0  0  0  0  0
  -21.7520   -6.9780   21.4720 O   0  0  0  0  0  0  0  0  0  0  0  0
  -21.6880   -6.2430   22.6280 C   0  0  0  0  0  0  0  0  0  0  0  0
  -21.1940   -6.7900   23.8340 C   0  0  0  0  0  3  0  0  0  0  0  0
  -21.0810   -5.9790   24.9800 C   0  0  0  0  0  3  0  0  0  0  0  0
  -21.4500   -4.6210   24.9220 C   0  0  0  0  0  0  0  0  0  0  0  0
  -21.9380   -4.0740   23.7220 C   0  0  0  0  0  3  0  0  0  0  0  0
  -22.0530   -4.8830   22.5790 C   0  0  0  0  0  0  0  0  0  0  0  0
  -22.5030   -4.3450   21.4190 F   0  0  0  0  0  0  0  0  0  0  0  0
  -21.3350   -3.8400   26.0210 F   0  0  0  0  0  0  0  0  0  0  0  0
  -22.8070  -13.6210   21.2430 C   0  0  0  0  0  0  0  0  0  0  0  0
  -22.1020  -12.9060   22.1120 N   0  0  0  0  0  0  0  0  0  0  0  0
  -22.3560  -14.6540   20.7520 O   0  0  0  0  0  0  0  0  0  0  0  0
  -22.4830  -12.0690   22.5300 H   0  0  0  0  0  0  0  0  0  0  0  0
  -21.1690  -13.1990   22.3630 H   0  0  0  0  0  0  0  0  0  0  0  0
  -25.3970  -15.3180   20.3920 N   0  0  0  0  0  0  0  0  0  0  0  0
  -24.6230  -15.9620   20.5220 H   0  0  0  0  0  0  0  0  0  0  0  0
  -26.2190  -15.7640   20.0070 H   0  0  0  0  0  0  0  0  0  0  0  0
  -27.7570  -24.3910   20.0260 C   0  0  0  0  0  2  0  0  0  0  0  0
  -28.1340  -25.9710   20.2380 O   0  0  0  0  0  0  0  0  0  0  0  0
  -24.6180  -31.9370   23.2370 C   0  0  0  0  0  0  0  0  0  0  0  0
  -27.1400  -27.0800   20.1820 C   0  0  0  0  0  0  0  0  0  0  0  0
  -23.4090  -30.5510   21.6050 C   0  0  0  0  0  3  0  0  0  0  0  0
  -24.8440  -28.9550   20.1650 C   0  0  0  0  0  0  0  0  0  0  0  0
  -25.9770  -30.7610   21.4390 C   0  0  0  0  0  2  0  0  0  0  0  0
  -26.0390  -29.3570   20.7770 C   0  0  0  0  0  0  0  0  0  0  0  0
  -27.1820  -28.4390   20.7620 C   0  0  0  0  0  3  0  0  0  0  0  0
  -25.9120  -26.8300   19.5250 C   0  0  0  0  0  3  0  0  0  0  0  0
  -24.8050  -27.7100   19.5210 C   0  0  0  0  0  3  0  0  0  0  0  0
  -23.6260  -29.8760   20.2240 C   0  0  0  0  0  2  0  0  0  0  0  0
  -24.6910  -31.1090   22.1470 N   0  0  0  0  0  0  0  0  0  0  0  0
  -23.5330  -32.2270   23.7660 O   0  0  0  0  0  0  0  0  0  0  0  0
  -22.7220  -29.5500   22.5710 C   0  0  0  0  0  0  0  0  0  0  0  0
  -21.3940  -29.3730   22.4410 N   0  0  0  0  0  0  0  0  0  0  0  0
  -23.3910  -28.9350   23.4050 O   0  0  0  0  0  0  0  0  0  0  0  0
  -20.9070  -29.9200   21.7440 H   0  0  0  0  0  0  0  0  0  0  0  0
  -18.0190  -28.1440   22.9480 C   0  0  0  0  0  0  0  0  0  0  0  0
  -20.5760  -28.4340   23.2150 C   0  0  0  0  0  3  0  0  0  0  0  0
  -20.6920  -26.9990   22.6470 C   0  0  0  0  0  2  0  0  0  0  0  0
  -19.5940  -26.6640   21.6320 C   0  0  0  0  0  2  0  0  0  0  0  0
  -18.2100  -26.7960   22.2730 C   0  0  0  0  0  2  0  0  0  0  0  0
  -19.1290  -28.9180   23.3750 C   0  0  0  0  0  0  0  0  0  0  0  0
  -18.8950  -30.1780   23.9690 C   0  0  0  0  0  3  0  0  0  0  0  0
  -17.5830  -30.6630   24.1370 C   0  0  0  0  0  3  0  0  0  0  0  0
  -16.4880  -29.8860   23.7240 C   0  0  0  0  0  3  0  0  0  0  0  0
  -16.7060  -28.6280   23.1340 C   0  0  0  0  0  3  0  0  0  0  0  0
  -25.8940  -32.5770   23.8640 C   0  0  0  0  0  3  0  0  0  0  0  0
  -25.5820  -33.9770   24.1990 N   0  0  0  0  0  0  0  0  0  0  0  0
  -25.8950  -35.0360   23.4390 C   0  0  0  0  0  0  0  0  0  0  0  0
  -26.5390  -34.9370   22.3920 O   0  0  0  0  0  0  0  0  0  0  0  0
  -25.0080  -34.1280   25.0160 H   0  0  0  0  0  0  0  0  0  0  0  0
  -24.1530  -36.8290   23.1480 C   0  0  0  0  0  1  0  0  0  0  0  0
  -25.4210  -36.4250   23.9180 C   0  0  0  0  0  3  0  0  0  0  0  0
  -27.5740  -37.3210   24.6860 C   0  0  0  0  0  1  0  0  0  0  0  0
  -26.4470  -37.4810   23.7720 N   0  0  0  0  0  0  0  0  0  0  0  0
  -26.0410  -38.4000   23.9250 H   0  0  0  0  0  0  0  0  0  0  0  0
  -26.4000  -31.8110   25.1490 C   0  0  1  0  0  0  0  0  0  0  0  0
  -25.3000  -31.5820   26.2120 C   0  0  0  0  0  1  0  0  0  0  0  0
  -26.9860  -30.4320   24.7760 C   0  0  0  0  0  1  0  0  0  0  0  0
  -27.5470  -32.6100   25.8120 C   0  0  0  0  0  1  0  0  0  0  0  0
  2  8  1  0
  2  1  2  0
  3  7  2  0
  3  4  1  0
  4  6  2  0
  5  3  1  0
  6  1  1  0
  7  2  1  0
  8 17  1  0
  9 17  1  0
 10 15  1  0
 11 12  1  0
 11 10  1  0
 13 12  1  0
 13 22  1  0
 13 14  1  0
 15  9  1  0
 15 14  1  0
 16  9  2  0
 17 18  1  0
 19 20  2  0
 20 39  1  0
 21 20  1  0
 21 24  1  0
 22 23  1  0
 22 19  1  0
 23 21  2  0
 24 25  1  0
 25 26  2  0
 27 30  1  0
 27 26  1  0
 28 27  2  0
 29 28  1  0
 29 24  2  0
 30 31  1  0
 31 32  1  0
 32 33  2  0
 34 33  1  0
 34 38  1  0
 35 34  2  0
 36 31  2  0
 36 35  1  0
 37 36  1  0
 39 40  1  0
 40 43  1  0
 40 42  1  0
 41 39  2  0
 44 45  1  0
 44 19  1  0
 46 44  1  0
 47  4  1  0
 47 48  1  0
 49 60  2  0
 50 48  1  0
 50 55  1  0
 51 59  1  0
 51 61  1  0
 52 58  1  0
 52 54  1  0
 53 59  1  0
 54 53  1  0
 55 54  2  0
 56 50  2  0
 57 56  1  0
 57 52  2  0
 58 51  1  0
 59 49  1  0
 61 63  2  0
 62 61  1  0
 64 62  1  0
 65 74  2  0
 65 70  1  0
 66 62  1  0
 66 70  1  0
 67 66  1  0
 68 69  1  0
 68 67  1  0
 69 65  1  0
 70 71  2  0
 71 72  1  0
 73 72  2  0
 74 73  1  0
 75 49  1  0
 75 76  1  0
 75 85  1  0
 76 79  1  0
 77 81  1  0
 77 76  1  0
 78 77  2  0
 81 80  1  0
 83 81  1  0
 83 84  1  0
 83 82  1  0
 85 88  1  1
 85 86  1  0
 87 85  1  0
M  ISO  4   9 100  17 100  47 101  48 101
M  END
>  <TORSDO>  (40) 
F 18

>  <SCORE>  (40) 
-15.796

>  <name>  (40) 
39

>  <ligand_id>  (40) 
39

>  <original_smiles>  (40) 
[H]c1nc(C([H])([H])Oc2c([H])c([H])c3c(c2[H])C([H])([H])N(C(=O)C([H])(N([H])C(=O)C([H])(N([H])C([H])([H])[H])C([H])([H])[H])C(C([H])([H])[H])(C([H])([H])[H])C([H])([H])[H])C([H])(C(=O)N([H])C2([H])c4c([H])c([H])c([H])c([H])c4C([H])([H])C([H])([H])C2([H])[H])C3([H])[H])c(C([H])([H])[H])nc1C([H])([H])N([H])C(=O)N1C([H])([H])C([H])([H])C([H])([H])C([H])(n2nc(-c3c([H])c([H])c(Oc4c([H])c([H])c(F)c([H])c4F)c([H])c3[H])c(C(=O)N([H])[H])c2N([H])[H])C1([H])[H]

>  <smiles>  (40) 
[H]c1nc(C([H])([H])Oc2c([H])c([H])c3c(c2[H])C([H])([H])N(C(=O)C([H])(N([H])C(=O)C([H])(N([H])C([H])([H])[H])C([H])([H])[H])C(C([H])([H])[H])(C([H])([H])[H])C([H])([H])[H])C([H])(C(=O)N([H])C2([H])c4c([H])c([H])c([H])c([H])c4C([H])([H])C([H])([H])C2([H])[H])C3([H])[H])c(C([H])([H])[H])nc1C([H])([H])N([H])C(=O)N1C([H])([H])C([H])([H])C([H])([H])C([H])(n2nc(-c3c([H])c([H])c(Oc4c([H])c([H])c(F)c([H])c4F)c([H])c3[H])c(C(=O)N([H])[H])c2N([H])[H])C1([H])[H]

$$$$
41:0:0
     RDKit          3D

 94103  0  0  1  0  0  0  0  0999 V2000
  -27.3570  -22.8540   20.8760 C   0  0  0  0  0  2  0  0  0  0  0  0
  -29.4400  -24.1070   19.7840 C   0  0  0  0  0  3  0  0  0  0  0  0
  -28.4620  -22.0360   20.4470 C   0  0  0  0  0  0  0  0  0  0  0  0
  -28.3250  -24.9210   20.2210 C   0  0  0  0  0  0  0  0  0  0  0  0
  -27.2810  -24.2330   20.7760 N   0  0  0  0  0  0  0  0  0  0  0  0
  -29.5050  -22.7170   19.8910 N   0  0  0  0  0  0  0  0  0  0  0  0
  -30.8840  -24.3180   17.7100 C   0  0  0  0  0  1  0  0  0  0  0  0
  -31.9270  -24.5440   20.0250 C   0  0  0  0  0  1  0  0  0  0  0  0
  -30.6710  -24.7630   19.1660 C   0  0  0  0  0  3  0  0  0  0  0  0
  -28.4290  -20.5800   20.6170 N   0  0  0  0  0  0  0  0  0  0  0  0
  -27.5740  -20.2910   21.0850 H   0  0  0  0  0  0  0  0  0  0  0  0
  -30.6040  -14.8750   20.1390 C   0  0  0  0  0  0  0  0  0  0  0  0
  -30.3640  -12.5820   19.1440 C   0  0  0  0  0  2  0  0  0  0  0  0
  -29.3870  -12.6160   17.9500 C   0  0  0  0  0  2  0  0  0  0  0  0
  -27.9380  -12.4220   18.4370 C   0  0  0  0  0  2  0  0  0  0  0  0
  -27.5950  -13.3140   19.6600 C   0  0  0  0  0  3  0  0  0  0  0  0
  -28.6950  -13.2810   20.7410 C   0  0  0  0  0  2  0  0  0  0  0  0
  -29.9510  -13.6570   20.0840 N   0  0  0  0  0  0  0  0  0  0  0  0
  -31.7960  -14.9060   19.8150 O   0  0  0  0  0  0  0  0  0  0  0  0
  -28.6410  -18.2570   19.4210 C   0  0  0  0  0  2  0  0  0  0  0  0
  -29.7510  -18.5050   21.5190 C   0  0  0  0  0  2  0  0  0  0  0  0
  -29.4360  -16.8860   19.1770 C   0  0  0  0  0  2  0  0  0  0  0  0
  -30.5360  -17.1370   21.2410 C   0  0  0  0  0  2  0  0  0  0  0  0
  -29.3290  -19.3810   20.2840 C   0  0  0  0  0  3  0  0  0  0  0  0
  -29.9100  -16.0900   20.3600 N   0  0  0  0  0  0  0  0  0  0  0  0
  -25.2500  -13.8800   20.5150 C   0  0  0  0  0  0  0  0  0  0  0  0
  -24.1990  -13.0970   20.9040 C   0  0  0  0  0  0  0  0  0  0  0  0
  -24.6580  -11.7460   20.8180 C   0  0  0  0  0  0  0  0  0  0  0  0
  -26.2790  -13.0070   20.2060 N   0  0  0  0  0  0  0  0  0  0  0  0
  -25.9350  -11.7160   20.4550 N   0  0  0  0  0  0  0  0  0  0  0  0
  -23.9370  -10.4800   21.0030 C   0  0  0  0  0  0  0  0  0  0  0  0
  -24.3740   -9.5090   21.9310 C   0  0  0  0  0  3  0  0  0  0  0  0
  -23.6510   -8.3090   22.1040 C   0  0  0  0  0  3  0  0  0  0  0  0
  -22.4780   -8.0710   21.3500 C   0  0  0  0  0  0  0  0  0  0  0  0
  -22.0600   -9.0310   20.4110 C   0  0  0  0  0  3  0  0  0  0  0  0
  -22.7840  -10.2220   20.2360 C   0  0  0  0  0  3  0  0  0  0  0  0
  -21.7260   -6.9240   21.4330 O   0  0  0  0  0  0  0  0  0  0  0  0
  -21.6350   -6.2060   22.5990 C   0  0  0  0  0  0  0  0  0  0  0  0
  -21.1410   -6.7790   23.7900 C   0  0  0  0  0  3  0  0  0  0  0  0
  -20.9980   -5.9860   24.9470 C   0  0  0  0  0  3  0  0  0  0  0  0
  -21.3410   -4.6210   24.9120 C   0  0  0  0  0  0  0  0  0  0  0  0
  -21.8300   -4.0470   23.7250 C   0  0  0  0  0  3  0  0  0  0  0  0
  -21.9730   -4.8370   22.5710 C   0  0  0  0  0  0  0  0  0  0  0  0
  -22.4240   -4.2750   21.4240 F   0  0  0  0  0  0  0  0  0  0  0  0
  -21.1990   -3.8580   26.0210 F   0  0  0  0  0  0  0  0  0  0  0  0
  -22.8150  -13.5680   21.2450 C   0  0  0  0  0  0  0  0  0  0  0  0
  -22.1210  -12.8500   22.1200 N   0  0  0  0  0  0  0  0  0  0  0  0
  -22.3600  -14.6080   20.7710 O   0  0  0  0  0  0  0  0  0  0  0  0
  -22.5030  -12.0090   22.5260 H   0  0  0  0  0  0  0  0  0  0  0  0
  -21.1950  -13.1480   22.3910 H   0  0  0  0  0  0  0  0  0  0  0  0
  -25.4120  -15.2550   20.3700 N   0  0  0  0  0  0  0  0  0  0  0  0
  -24.6590  -15.9110   20.5450 H   0  0  0  0  0  0  0  0  0  0  0  0
  -26.2630  -15.7020   20.0550 H   0  0  0  0  0  0  0  0  0  0  0  0
  -28.3120  -26.3730   20.1540 O   0  0  0  0  0  0  0  0  0  0  0  0
  -24.6170  -31.8850   23.2330 C   0  0  0  0  0  0  0  0  0  0  0  0
  -27.1900  -27.2500   20.1680 C   0  0  0  0  0  0  0  0  0  0  0  0
  -23.4040  -30.4920   21.5950 C   0  0  0  0  0  3  0  0  0  0  0  0
  -24.8430  -28.9290   20.1570 C   0  0  0  0  0  0  0  0  0  0  0  0
  -25.9480  -30.7840   21.4070 C   0  0  0  0  0  2  0  0  0  0  0  0
  -26.0190  -29.3970   20.7600 C   0  0  0  0  0  0  0  0  0  0  0  0
  -27.1920  -28.5680   20.7530 C   0  0  0  0  0  3  0  0  0  0  0  0
  -25.9960  -26.8630   19.5260 C   0  0  0  0  0  3  0  0  0  0  0  0
  -24.8390  -27.6720   19.5290 C   0  0  0  0  0  3  0  0  0  0  0  0
  -23.6120  -29.8170   20.2130 C   0  0  0  0  0  2  0  0  0  0  0  0
  -24.6760  -31.0750   22.1330 N   0  0  0  0  0  0  0  0  0  0  0  0
  -23.5360  -32.1630   23.7720 O   0  0  0  0  0  0  0  0  0  0  0  0
  -22.7420  -29.4770   22.5590 C   0  0  0  0  0  0  0  0  0  0  0  0
  -21.4150  -29.2970   22.4360 N   0  0  0  0  0  0  0  0  0  0  0  0
  -23.4220  -28.8540   23.3780 O   0  0  0  0  0  0  0  0  0  0  0  0
  -20.9240  -29.8510   21.7500 H   0  0  0  0  0  0  0  0  0  0  0  0
  -18.0420  -28.0840   22.9460 C   0  0  0  0  0  0  0  0  0  0  0  0
  -20.6010  -28.3560   23.2090 C   0  0  0  0  0  3  0  0  0  0  0  0
  -20.7080  -26.9240   22.6330 C   0  0  0  0  0  2  0  0  0  0  0  0
  -19.6050  -26.5980   21.6210 C   0  0  0  0  0  2  0  0  0  0  0  0
  -18.2240  -26.7360   22.2690 C   0  0  0  0  0  2  0  0  0  0  0  0
  -19.1590  -28.8510   23.3740 C   0  0  0  0  0  0  0  0  0  0  0  0
  -18.9350  -30.1120   23.9690 C   0  0  0  0  0  3  0  0  0  0  0  0
  -17.6280  -30.6060   24.1390 C   0  0  0  0  0  3  0  0  0  0  0  0
  -16.5270  -29.8350   23.7270 C   0  0  0  0  0  3  0  0  0  0  0  0
  -16.7350  -28.5760   23.1370 C   0  0  0  0  0  3  0  0  0  0  0  0
  -25.9010  -32.5180   23.8500 C   0  0  0  0  0  3  0  0  0  0  0  0
  -25.5920  -33.9160   24.1860 N   0  0  0  0  0  0  0  0  0  0  0  0
  -25.9130  -34.9730   23.4280 C   0  0  0  0  0  0  0  0  0  0  0  0
  -26.5700  -34.8730   22.3880 O   0  0  0  0  0  0  0  0  0  0  0  0
  -25.0070  -34.0660   24.9950 H   0  0  0  0  0  0  0  0  0  0  0  0
  -24.1790  -36.7680   23.1060 C   0  0  0  0  0  1  0  0  0  0  0  0
  -25.4320  -36.3600   23.8970 C   0  0  0  0  0  3  0  0  0  0  0  0
  -27.5760  -37.2470   24.7030 C   0  0  0  0  0  1  0  0  0  0  0  0
  -26.4630  -37.4150   23.7730 N   0  0  0  0  0  0  0  0  0  0  0  0
  -26.0570  -38.3340   23.9250 H   0  0  0  0  0  0  0  0  0  0  0  0
  -26.4220  -31.7460   25.1250 C   0  0  1  0  0  0  0  0  0  0  0  0
  -25.3320  -31.5090   26.1980 C   0  0  0  0  0  1  0  0  0  0  0  0
  -27.0020  -30.3680   24.7340 C   0  0  0  0  0  1  0  0  0  0  0  0
  -27.5750  -32.5390   25.7830 C   0  0  0  0  0  1  0  0  0  0  0  0
  2  9  1  0
  2  6  1  0
  2  4  1  0
  3 10  1  0
  3  1  1  0
  4  5  2  0
  5  1  1  0
  6  3  2  0
  7  9  1  0
  9  8  1  0
 10 11  1  0
 12 25  1  0
 13 18  1  0
 14 15  1  0
 14 13  1  0
 16 15  1  0
 16 29  1  0
 16 17  1  0
 18 12  1  0
 18 17  1  0
 19 12  2  0
 20 24  1  0
 22 20  1  0
 22 25  1  0
 23 21  1  0
 24 10  1  0
 24 21  1  0
 25 23  1  0
 26 27  2  0
 27 46  1  0
 28 27  1  0
 28 31  1  0
 29 30  1  0
 29 26  1  0
 30 28  2  0
 31 32  1  0
 32 33  2  0
 34 37  1  0
 34 33  1  0
 35 34  2  0
 36 35  1  0
 36 31  2  0
 37 38  1  0
 38 39  1  0
 39 40  2  0
 41 40  1  0
 41 45  1  0
 42 41  2  0
 43 38  2  0
 43 42  1  0
 44 43  1  0
 46 47  1  0
 47 50  1  0
 47 49  1  0
 48 46  2  0
 51 26  1  0
 51 52  1  0
 53 51  1  0
 54 56  1  0
 54  4  1  0
 55 66  2  0
 56 61  1  0
 57 65  1  0
 57 67  1  0
 58 64  1  0
 58 60  1  0
 59 65  1  0
 60 59  1  0
 61 60  2  0
 62 63  1  0
 62 56  2  0
 63 58  2  0
 64 57  1  0
 65 55  1  0
 67 69  2  0
 68 67  1  0
 70 68  1  0
 71 80  2  0
 71 76  1  0
 72 68  1  0
 72 76  1  0
 73 72  1  0
 74 75  1  0
 74 73  1  0
 75 71  1  0
 76 77  2  0
 77 78  1  0
 79 78  2  0
 80 79  1  0
 81 55  1  0
 81 82  1  0
 81 91  1  0
 82 85  1  0
 83 87  1  0
 83 82  1  0
 84 83  2  0
 87 86  1  0
 89 87  1  0
 89 90  1  0
 89 88  1  0
 91 94  1  1
 91 92  1  0
 93 91  1  0
M  ISO  4   4 101  12 100  25 100  54 101
M  END
>  <TORSDO>  (41) 
F 18

>  <SCORE>  (41) 
-14.659

>  <name>  (41) 
41

>  <ligand_id>  (41) 
41

>  <original_smiles>  (41) 
[H]c1nc(Oc2c([H])c([H])c3c(c2[H])C([H])([H])N(C(=O)C([H])(N([H])C(=O)C([H])(N([H])C([H])([H])[H])C([H])([H])[H])C(C([H])([H])[H])(C([H])([H])[H])C([H])([H])[H])C([H])(C(=O)N([H])C2([H])c4c([H])c([H])c([H])c([H])c4C([H])([H])C([H])([H])C2([H])[H])C3([H])[H])c(C([H])(C([H])([H])[H])C([H])([H])[H])nc1N([H])C1([H])C([H])([H])C([H])([H])N(C(=O)N2C([H])([H])C([H])([H])C([H])([H])C([H])(n3nc(-c4c([H])c([H])c(Oc5c([H])c([H])c(F)c([H])c5F)c([H])c4[H])c(C(=O)N([H])[H])c3N([H])[H])C2([H])[H])C([H])([H])C1([H])[H]

>  <smiles>  (41) 
[H]c1nc(Oc2c([H])c([H])c3c(c2[H])C([H])([H])N(C(=O)C([H])(N([H])C(=O)C([H])(N([H])C([H])([H])[H])C([H])([H])[H])C(C([H])([H])[H])(C([H])([H])[H])C([H])([H])[H])C([H])(C(=O)N([H])C2([H])c4c([H])c([H])c([H])c([H])c4C([H])([H])C([H])([H])C2([H])[H])C3([H])[H])c(C([H])(C([H])([H])[H])C([H])([H])[H])nc1N([H])C1([H])C([H])([H])C([H])([H])N(C(=O)N2C([H])([H])C([H])([H])C([H])([H])C([H])(n3nc(-c4c([H])c([H])c(Oc5c([H])c([H])c(F)c([H])c5F)c([H])c4[H])c(C(=O)N([H])[H])c3N([H])[H])C2([H])[H])C([H])([H])C1([H])[H]

$$$$
42:0:0
     RDKit          3D

 90 99  0  0  1  0  0  0  0  0999 V2000
  -30.4710  -15.2280   20.2290 C   0  0  0  0  0  0  0  0  0  0  0  0
  -30.5290  -12.7310   19.5510 C   0  0  0  0  0  2  0  0  0  0  0  0
  -29.6760  -12.4500   18.2870 C   0  0  0  0  0  2  0  0  0  0  0  0
  -28.2030  -12.2080   18.6630 C   0  0  0  0  0  2  0  0  0  0  0  0
  -27.6900  -13.2440   19.6950 C   0  0  0  0  0  3  0  0  0  0  0  0
  -28.6740  -13.4560   20.8660 C   0  0  0  0  0  2  0  0  0  0  0  0
  -29.9440  -13.9120   20.2780 N   0  0  0  0  0  0  0  0  0  0  0  0
  -31.6930  -15.2640   20.0160 O   0  0  0  0  0  0  0  0  0  0  0  0
  -29.1740  -21.1110   19.6900 C   0  0  0  0  0  0  0  0  0  0  0  0
  -30.3220  -20.2900   19.2860 C   0  0  0  0  0  0  0  0  0  0  0  0
  -28.4440  -18.8470   20.4560 C   0  0  0  0  0  0  0  0  0  0  0  0
  -29.5900  -18.0190   20.0530 C   0  0  0  0  0  0  0  0  0  0  0  0
  -31.5200  -20.9610   18.6440 C   0  0  0  0  0  1  0  0  0  0  0  0
  -27.2720  -18.1710   21.1370 C   0  0  0  0  0  1  0  0  0  0  0  0
  -28.2610  -20.2550   20.3000 N   0  0  0  0  0  0  0  0  0  0  0  0
  -30.5050  -18.8810   19.4500 N   0  0  0  0  0  0  0  0  0  0  0  0
  -29.6210  -16.4270   20.2740 N   0  0  0  0  0  0  0  0  0  0  0  0
  -28.6980  -16.1090   20.5220 H   0  0  0  0  0  0  0  0  0  0  0  0
  -25.2840  -13.8420   20.2990 C   0  0  0  0  0  0  0  0  0  0  0  0
  -24.2040  -13.0860   20.6590 C   0  0  0  0  0  0  0  0  0  0  0  0
  -24.6670  -11.7350   20.7110 C   0  0  0  0  0  0  0  0  0  0  0  0
  -26.3350  -12.9550   20.1470 N   0  0  0  0  0  0  0  0  0  0  0  0
  -25.9720  -11.6850   20.4620 N   0  0  0  0  0  0  0  0  0  0  0  0
  -23.9260  -10.4840   20.9200 C   0  0  0  0  0  0  0  0  0  0  0  0
  -24.3220   -9.5450   21.8980 C   0  0  0  0  0  3  0  0  0  0  0  0
  -23.5800   -8.3600   22.0940 C   0  0  0  0  0  3  0  0  0  0  0  0
  -22.4280   -8.1060   21.3120 C   0  0  0  0  0  0  0  0  0  0  0  0
  -22.0520   -9.0330   20.3240 C   0  0  0  0  0  3  0  0  0  0  0  0
  -22.7950  -10.2090   20.1250 C   0  0  0  0  0  3  0  0  0  0  0  0
  -21.6610   -6.9710   21.4160 O   0  0  0  0  0  0  0  0  0  0  0  0
  -21.5820   -6.2600   22.5870 C   0  0  0  0  0  0  0  0  0  0  0  0
  -21.1460   -6.8550   23.7910 C   0  0  0  0  0  3  0  0  0  0  0  0
  -21.0130   -6.0720   24.9540 C   0  0  0  0  0  3  0  0  0  0  0  0
  -21.3050   -4.6950   24.9160 C   0  0  0  0  0  0  0  0  0  0  0  0
  -21.7350   -4.1010   23.7170 C   0  0  0  0  0  3  0  0  0  0  0  0
  -21.8700   -4.8810   22.5540 C   0  0  0  0  0  0  0  0  0  0  0  0
  -22.2630   -4.2990   21.3960 F   0  0  0  0  0  0  0  0  0  0  0  0
  -21.1710   -3.9420   26.0320 F   0  0  0  0  0  0  0  0  0  0  0  0
  -22.7970  -13.5780   20.8350 C   0  0  0  0  0  0  0  0  0  0  0  0
  -22.0270  -12.9350   21.7060 N   0  0  0  0  0  0  0  0  0  0  0  0
  -22.3880  -14.5700   20.2330 O   0  0  0  0  0  0  0  0  0  0  0  0
  -22.3710  -12.1340   22.2130 H   0  0  0  0  0  0  0  0  0  0  0  0
  -21.0810  -13.2500   21.8670 H   0  0  0  0  0  0  0  0  0  0  0  0
  -25.4530  -15.1990   20.0500 N   0  0  0  0  0  0  0  0  0  0  0  0
  -24.6480  -15.8150   20.0160 H   0  0  0  0  0  0  0  0  0  0  0  0
  -26.2480  -15.5630   19.5430 H   0  0  0  0  0  0  0  0  0  0  0  0
  -28.9530  -23.5830   18.3610 C   0  0  0  0  0  2  0  0  0  0  0  0
  -29.0580  -22.8630   19.6990 C   0  0  0  0  0  3  0  0  0  0  0  0
  -28.0290  -24.2530   19.3450 C   0  0  0  0  0  3  0  0  0  0  0  0
  -28.2360  -25.8770   19.3270 O   0  0  0  0  0  0  0  0  0  0  0  0
  -24.7620  -31.5420   22.8340 C   0  0  0  0  0  0  0  0  0  0  0  0
  -27.1970  -26.9350   19.3780 C   0  0  0  0  0  0  0  0  0  0  0  0
  -23.4940  -30.2500   21.1650 C   0  0  0  0  0  3  0  0  0  0  0  0
  -24.8800  -28.7620   19.5690 C   0  0  0  0  0  0  0  0  0  0  0  0
  -26.0460  -30.5050   20.9050 C   0  0  0  0  0  2  0  0  0  0  0  0
  -26.0920  -29.1470   20.1540 C   0  0  0  0  0  0  0  0  0  0  0  0
  -27.2450  -28.2550   20.0360 C   0  0  0  0  0  3  0  0  0  0  0  0
  -25.9530  -26.6950   18.7540 C   0  0  0  0  0  3  0  0  0  0  0  0
  -24.8310  -27.5570   18.8490 C   0  0  0  0  0  3  0  0  0  0  0  0
  -23.6580  -29.6620   19.7360 C   0  0  0  0  0  2  0  0  0  0  0  0
  -24.7910  -30.7890   21.6890 N   0  0  0  0  0  0  0  0  0  0  0  0
  -23.6990  -31.7860   23.4290 O   0  0  0  0  0  0  0  0  0  0  0  0
  -22.8560  -29.1840   22.0930 C   0  0  0  0  0  0  0  0  0  0  0  0
  -21.5210  -29.0210   22.0260 N   0  0  0  0  0  0  0  0  0  0  0  0
  -23.5650  -28.5080   22.8420 O   0  0  0  0  0  0  0  0  0  0  0  0
  -21.0010  -29.6190   21.4000 H   0  0  0  0  0  0  0  0  0  0  0  0
  -18.1730  -27.7630   22.6240 C   0  0  0  0  0  0  0  0  0  0  0  0
  -20.7420  -28.0290   22.7740 C   0  0  0  0  0  3  0  0  0  0  0  0
  -20.8180  -26.6390   22.0990 C   0  0  0  0  0  2  0  0  0  0  0  0
  -19.6660  -26.3800   21.1220 C   0  0  0  0  0  2  0  0  0  0  0  0
  -18.3190  -26.4670   21.8450 C   0  0  0  0  0  2  0  0  0  0  0  0
  -19.3090  -28.5040   23.0470 C   0  0  0  0  0  0  0  0  0  0  0  0
  -19.1140  -29.7170   23.7410 C   0  0  0  0  0  3  0  0  0  0  0  0
  -17.8170  -30.1910   24.0140 C   0  0  0  0  0  3  0  0  0  0  0  0
  -16.6970  -29.4480   23.6040 C   0  0  0  0  0  3  0  0  0  0  0  0
  -16.8750  -28.2350   22.9170 C   0  0  0  0  0  3  0  0  0  0  0  0
  -26.0610  -32.1510   23.4460 C   0  0  0  0  0  3  0  0  0  0  0  0
  -26.6940  -31.2480   24.5760 C   0  0  1  0  0  0  0  0  0  0  0  0
  -25.6950  -30.8470   25.6880 C   0  0  0  0  0  1  0  0  0  0  0  0
  -27.2770  -29.9460   23.9820 C   0  0  0  0  0  1  0  0  0  0  0  0
  -27.8750  -31.9930   25.2420 C   0  0  0  0  0  1  0  0  0  0  0  0
  -25.7270  -33.4800   23.9870 N   0  0  0  0  0  0  0  0  0  0  0  0
  -25.9810  -34.6440   23.3730 C   0  0  0  0  0  0  0  0  0  0  0  0
  -26.5850  -34.7110   22.2980 O   0  0  0  0  0  0  0  0  0  0  0  0
  -25.1820  -33.4970   24.8360 H   0  0  0  0  0  0  0  0  0  0  0  0
  -24.1900  -36.4120   23.3920 C   0  0  0  0  0  1  0  0  0  0  0  0
  -25.4920  -35.9370   24.0560 C   0  0  0  0  0  3  0  0  0  0  0  0
  -27.6540  -36.7700   24.8720 C   0  0  0  0  0  1  0  0  0  0  0  0
  -26.4870  -37.0310   24.0320 N   0  0  0  0  0  0  0  0  0  0  0  0
  -26.0680  -37.9070   24.3360 H   0  0  0  0  0  0  0  0  0  0  0  0
  1 17  1  0
  1  7  1  0
  2  7  1  0
  3  4  1  0
  3  2  1  0
  5  4  1  0
  5 22  1  0
  5  6  1  0
  7  6  1  0
  8  1  2  0
  9 15  1  0
 10 16  1  0
 10  9  2  0
 11 14  1  0
 12 17  1  0
 12 11  1  0
 13 10  1  0
 15 11  2  0
 16 12  2  0
 17 18  1  0
 19 20  2  0
 20 21  1  0
 20 39  1  0
 21 24  1  0
 22 19  1  0
 22 23  1  0
 23 21  2  0
 24 25  1  0
 25 26  2  0
 27 30  1  0
 27 26  1  0
 28 27  2  0
 29 28  1  0
 29 24  2  0
 30 31  1  0
 31 32  1  0
 32 33  2  0
 34 33  1  0
 34 38  1  0
 35 34  2  0
 36 31  2  0
 36 35  1  0
 37 36  1  0
 39 40  1  0
 40 43  1  0
 40 42  1  0
 41 39  2  0
 44 19  1  0
 45 44  1  0
 46 44  1  0
 47 49  1  0
 47 48  1  0
 48  9  1  0
 49 50  1  0
 49 48  1  0
 50 52  1  0
 51 62  2  0
 52 57  1  0
 53 61  1  0
 53 63  1  0
 54 60  1  0
 54 56  1  0
 55 61  1  0
 56 55  1  0
 57 56  2  0
 58 59  1  0
 58 52  2  0
 59 54  2  0
 60 53  1  0
 61 51  1  0
 63 65  2  0
 64 63  1  0
 66 64  1  0
 67 76  2  0
 67 72  1  0
 68 64  1  0
 68 72  1  0
 69 68  1  0
 70 71  1  0
 70 69  1  0
 71 67  1  0
 72 73  2  0
 73 74  1  0
 75 74  2  0
 76 75  1  0
 77 51  1  0
 77 82  1  0
 77 78  1  0
 78 81  1  1
 78 79  1  0
 80 78  1  0
 82 85  1  0
 83 82  1  0
 83 87  1  0
 84 83  2  0
 87 86  1  0
 89 87  1  0
 89 90  1  0
 89 88  1  0
M  ISO  4   1 100  17 100  49 101  50 101
M  END
>  <TORSDO>  (42) 
F 16

>  <SCORE>  (42) 
-12.856

>  <name>  (42) 
42

>  <ligand_id>  (42) 
42

>  <original_smiles>  (42) 
[H]c1c([H])c([H])c2c(c1[H])C([H])([H])C([H])([H])C([H])([H])C2([H])N([H])C(=O)C1([H])N(C(=O)C([H])(N([H])C(=O)C([H])(N([H])C([H])([H])[H])C([H])([H])[H])C(C([H])([H])[H])(C([H])([H])[H])C([H])([H])[H])C([H])([H])c2c([H])c(OC3([H])C([H])([H])C3([H])c3nc(C([H])([H])[H])c(N([H])C(=O)N4C([H])([H])C([H])([H])C([H])([H])C([H])(n5nc(-c6c([H])c([H])c(Oc7c([H])c([H])c(F)c([H])c7F)c([H])c6[H])c(C(=O)N([H])[H])c5N([H])[H])C4([H])[H])nc3C([H])([H])[H])c([H])c([H])c2C1([H])[H]

>  <smiles>  (42) 
[H]c1c([H])c([H])c2c(c1[H])C([H])([H])C([H])([H])C([H])([H])C2([H])N([H])C(=O)C1([H])N(C(=O)C([H])(N([H])C(=O)C([H])(N([H])C([H])([H])[H])C([H])([H])[H])C(C([H])([H])[H])(C([H])([H])[H])C([H])([H])[H])C([H])([H])c2c([H])c(OC3([H])C([H])([H])C3([H])c3nc(C([H])([H])[H])c(N([H])C(=O)N4C([H])([H])C([H])([H])C([H])([H])C([H])(n5nc(-c6c([H])c([H])c(Oc7c([H])c([H])c(F)c([H])c7F)c([H])c6[H])c(C(=O)N([H])[H])c5N([H])[H])C4([H])[H])nc3C([H])([H])[H])c([H])c([H])c2C1([H])[H]

$$$$
43:0:0
     RDKit          3D

 93103  0  0  1  0  0  0  0  0999 V2000
  -31.1820  -21.9720   19.0550 C   0  0  0  0  0  2  0  0  0  0  0  0
  -30.5670  -22.9160   18.0150 C   0  0  0  0  0  2  0  0  0  0  0  0
  -29.8620  -21.2030   19.1840 C   0  0  0  0  0  3  0  0  0  0  0  0
  -29.1530  -22.7680   18.6030 C   0  0  2  0  0  0  0  0  0  0  0  0
  -28.0680  -22.5230   17.5570 C   0  0  0  0  0  1  0  0  0  0  0  0
  -30.2510  -17.0020   18.9100 C   0  0  0  0  0  0  0  0  0  0  0  0
  -28.8570  -17.4130   18.8020 C   0  0  0  0  0  0  0  0  0  0  0  0
  -28.6530  -18.8080   18.8000 C   0  0  0  0  0  0  0  0  0  0  0  0
  -30.7870  -18.3700   19.0050 C   0  0  0  0  0  0  0  0  0  0  0  0
  -27.7190  -16.4350   18.7380 C   0  0  0  0  0  1  0  0  0  0  0  0
  -32.2340  -18.6890   19.1950 C   0  0  0  0  0  1  0  0  0  0  0  0
  -29.8340  -19.5490   18.9320 N   0  0  0  0  0  0  0  0  0  0  0  0
  -30.9950  -15.4250   19.0350 C   0  0  0  0  0  0  0  0  0  0  0  0
  -31.0330  -12.8260   18.7510 C   0  0  0  0  0  2  0  0  0  0  0  0
  -30.0300  -12.3010   17.6880 C   0  0  0  0  0  2  0  0  0  0  0  0
  -28.6200  -12.1130   18.2790 C   0  0  0  0  0  2  0  0  0  0  0  0
  -28.2220  -13.2950   19.1980 C   0  0  0  0  0  3  0  0  0  0  0  0
  -29.3600  -13.6530   20.1790 C   0  0  0  0  0  2  0  0  0  0  0  0
  -30.5020  -14.1120   19.3590 N   0  0  0  0  0  0  0  0  0  0  0  0
  -32.1800  -15.3330   18.6790 O   0  0  0  0  0  0  0  0  0  0  0  0
  -26.0250  -14.0320   20.2760 C   0  0  0  0  0  0  0  0  0  0  0  0
  -24.9460  -13.3410   20.7480 C   0  0  0  0  0  0  0  0  0  0  0  0
  -25.2440  -11.9580   20.5490 C   0  0  0  0  0  0  0  0  0  0  0  0
  -26.9350  -13.0790   19.8520 N   0  0  0  0  0  0  0  0  0  0  0  0
  -26.4760  -11.8170   20.0680 N   0  0  0  0  0  0  0  0  0  0  0  0
  -24.3970  -10.7720   20.7310 C   0  0  0  0  0  0  0  0  0  0  0  0
  -24.7770   -9.7160   21.5890 C   0  0  0  0  0  3  0  0  0  0  0  0
  -23.9320   -8.5990   21.7660 C   0  0  0  0  0  3  0  0  0  0  0  0
  -22.6930   -8.5300   21.0860 C   0  0  0  0  0  0  0  0  0  0  0  0
  -22.3300   -9.5730   20.2140 C   0  0  0  0  0  3  0  0  0  0  0  0
  -23.1750  -10.6800   20.0350 C   0  0  0  0  0  3  0  0  0  0  0  0
  -21.8200   -7.4730   21.1770 O   0  0  0  0  0  0  0  0  0  0  0  0
  -21.6870   -6.7490   22.3340 C   0  0  0  0  0  0  0  0  0  0  0  0
  -21.3220   -7.3550   23.5550 C   0  0  0  0  0  3  0  0  0  0  0  0
  -21.1280   -6.5630   24.7050 C   0  0  0  0  0  3  0  0  0  0  0  0
  -21.2910   -5.1660   24.6340 C   0  0  0  0  0  0  0  0  0  0  0  0
  -21.6510   -4.5600   23.4170 C   0  0  0  0  0  3  0  0  0  0  0  0
  -21.8450   -5.3500   22.2700 C   0  0  0  0  0  0  0  0  0  0  0  0
  -22.1700   -4.7580   21.0960 F   0  0  0  0  0  0  0  0  0  0  0  0
  -21.0970   -4.4050   25.7350 F   0  0  0  0  0  0  0  0  0  0  0  0
  -23.6650  -13.9400   21.2490 C   0  0  0  0  0  0  0  0  0  0  0  0
  -22.9870  -13.2600   22.1660 N   0  0  0  0  0  0  0  0  0  0  0  0
  -23.2860  -15.0460   20.8660 O   0  0  0  0  0  0  0  0  0  0  0  0
  -23.3110  -12.3620   22.4960 H   0  0  0  0  0  0  0  0  0  0  0  0
  -22.1330  -13.6400   22.5460 H   0  0  0  0  0  0  0  0  0  0  0  0
  -26.2810  -15.3920   20.1380 N   0  0  0  0  0  0  0  0  0  0  0  0
  -25.5860  -16.0950   20.3670 H   0  0  0  0  0  0  0  0  0  0  0  0
  -27.1050  -15.7800   19.6970 H   0  0  0  0  0  0  0  0  0  0  0  0
  -27.0430  -20.7480   19.6060 C   0  0  0  0  0  2  0  0  0  0  0  0
  -26.2530  -19.4770   19.7330 C   0  0  0  0  0  2  0  0  0  0  0  0
  -27.3580  -19.5760   18.6970 C   0  0  0  0  0  3  0  0  0  0  0  0
  -28.5880  -24.3130   19.3780 C   0  0  0  0  0  2  0  0  0  0  0  0
  -28.4740  -25.9330   19.0460 O   0  0  0  0  0  0  0  0  0  0  0  0
  -24.6310  -31.3310   22.7590 C   0  0  0  0  0  0  0  0  0  0  0  0
  -27.3670  -26.9160   19.2320 C   0  0  0  0  0  0  0  0  0  0  0  0
  -23.4660  -30.0310   21.0230 C   0  0  0  0  0  3  0  0  0  0  0  0
  -24.9570  -28.6480   19.4240 C   0  0  0  0  0  0  0  0  0  0  0  0
  -26.0100  -30.4080   20.8290 C   0  0  0  0  0  2  0  0  0  0  0  0
  -26.1410  -29.0680   20.0450 C   0  0  0  0  0  0  0  0  0  0  0  0
  -27.3390  -28.2310   19.9170 C   0  0  0  0  0  3  0  0  0  0  0  0
  -26.1380  -26.6420   18.5910 C   0  0  0  0  0  3  0  0  0  0  0  0
  -24.9790  -27.4580   18.6780 C   0  0  0  0  0  3  0  0  0  0  0  0
  -23.6920  -29.4910   19.5830 C   0  0  0  0  0  2  0  0  0  0  0  0
  -24.7250  -30.6130   21.5930 N   0  0  0  0  0  0  0  0  0  0  0  0
  -23.5450  -31.5040   23.3340 O   0  0  0  0  0  0  0  0  0  0  0  0
  -22.8580  -28.9100   21.9070 C   0  0  0  0  0  0  0  0  0  0  0  0
  -21.5350  -28.6830   21.8020 N   0  0  0  0  0  0  0  0  0  0  0  0
  -23.5830  -28.2470   22.6530 O   0  0  0  0  0  0  0  0  0  0  0  0
  -21.0000  -29.2730   21.1810 H   0  0  0  0  0  0  0  0  0  0  0  0
  -18.2400  -27.2420   22.2860 C   0  0  0  0  0  0  0  0  0  0  0  0
  -20.7900  -27.6280   22.4990 C   0  0  0  0  0  3  0  0  0  0  0  0
  -20.9480  -26.2680   21.7790 C   0  0  0  0  0  2  0  0  0  0  0  0
  -19.8310  -25.9840   20.7710 C   0  0  0  0  0  2  0  0  0  0  0  0
  -18.4670  -25.9820   21.4690 C   0  0  0  0  0  2  0  0  0  0  0  0
  -19.3300  -28.0230   22.7560 C   0  0  0  0  0  0  0  0  0  0  0  0
  -19.0620  -29.2010   23.4870 C   0  0  0  0  0  3  0  0  0  0  0  0
  -17.7370  -29.6010   23.7480 C   0  0  0  0  0  3  0  0  0  0  0  0
  -16.6630  -28.8170   23.2910 C   0  0  0  0  0  3  0  0  0  0  0  0
  -16.9160  -27.6380   22.5670 C   0  0  0  0  0  3  0  0  0  0  0  0
  -25.8830  -31.9830   23.4200 C   0  0  0  0  0  3  0  0  0  0  0  0
  -26.4680  -31.1300   24.6130 C   0  0  1  0  0  0  0  0  0  0  0  0
  -25.4170  -30.7450   25.6800 C   0  0  0  0  0  1  0  0  0  0  0  0
  -27.1090  -29.8220   24.0950 C   0  0  0  0  0  1  0  0  0  0  0  0
  -27.5960  -31.9220   25.3190 C   0  0  0  0  0  1  0  0  0  0  0  0
  -25.5000  -33.3230   23.8970 N   0  0  0  0  0  0  0  0  0  0  0  0
  -25.7780  -34.4730   23.2680 C   0  0  0  0  0  0  0  0  0  0  0  0
  -26.4500  -34.5180   22.2340 O   0  0  0  0  0  0  0  0  0  0  0  0
  -24.9000  -33.3570   24.7090 H   0  0  0  0  0  0  0  0  0  0  0  0
  -23.9660  -36.2160   23.1240 C   0  0  0  0  0  1  0  0  0  0  0  0
  -25.2300  -35.7790   23.8810 C   0  0  0  0  0  3  0  0  0  0  0  0
  -27.3250  -36.6700   24.8040 C   0  0  0  0  0  1  0  0  0  0  0  0
  -26.2110  -36.8870   23.8860 N   0  0  0  0  0  0  0  0  0  0  0  0
  -25.7610  -37.7640   24.1360 H   0  0  0  0  0  0  0  0  0  0  0  0
  1  3  1  0
  2  4  1  0
  2  1  1  0
  3 12  1  0
  4  5  1  6
  4  3  1  0
  4 52  1  0
  6  9  2  0
  6 13  1  0
  7  6  1  0
  8  7  2  0
  8 12  1  0
  9 11  1  0
 10  7  1  0
 12  9  1  0
 13 19  1  0
 14 19  1  0
 15 16  1  0
 15 14  1  0
 17 16  1  0
 17 24  1  0
 17 18  1  0
 19 18  1  0
 20 13  2  0
 21 22  2  0
 22 41  1  0
 23 26  1  0
 23 22  1  0
 24 25  1  0
 24 21  1  0
 25 23  2  0
 26 27  1  0
 27 28  2  0
 29 32  1  0
 29 28  1  0
 30 29  2  0
 31 30  1  0
 31 26  2  0
 32 33  1  0
 33 34  1  0
 34 35  2  0
 36 35  1  0
 36 40  1  0
 37 36  2  0
 38 33  2  0
 38 37  1  0
 39 38  1  0
 41 42  1  0
 42 44  1  0
 42 45  1  0
 43 41  2  0
 46 21  1  0
 46 47  1  0
 48 46  1  0
 49 50  1  0
 51  8  1  0
 51 49  1  0
 51 50  1  0
 53 55  1  0
 53 52  1  0
 54 65  2  0
 55 60  1  0
 56 64  1  0
 56 66  1  0
 57 63  1  0
 57 59  1  0
 58 64  1  0
 59 58  1  0
 60 59  2  0
 61 62  1  0
 61 55  2  0
 62 57  2  0
 63 56  1  0
 64 54  1  0
 66 68  2  0
 67 66  1  0
 69 67  1  0
 70 79  2  0
 70 75  1  0
 71 67  1  0
 71 75  1  0
 72 71  1  0
 73 74  1  0
 73 72  1  0
 74 70  1  0
 75 76  2  0
 76 77  1  0
 78 77  2  0
 79 78  1  0
 80 54  1  0
 80 85  1  0
 80 81  1  0
 81 84  1  1
 81 82  1  0
 83 81  1  0
 85 88  1  0
 86 90  1  0
 86 85  1  0
 87 86  2  0
 90 89  1  0
 90 92  1  0
 92 93  1  0
 92 91  1  0
M  ISO  4   6 100  13 100  52 101  53 101
M  END
>  <TORSDO>  (43) 
F 19

>  <SCORE>  (43) 
-12.426

>  <name>  (43) 
43

>  <ligand_id>  (43) 
43

>  <original_smiles>  (43) 
[H]c1c([H])c([H])c2c(c1[H])C([H])([H])C([H])([H])C([H])([H])C2([H])N([H])C(=O)C1([H])N(C(=O)C([H])(N([H])C(=O)C([H])(N([H])C([H])([H])[H])C([H])([H])[H])C(C([H])([H])[H])(C([H])([H])[H])C([H])([H])[H])C([H])([H])c2c([H])c(OC([H])([H])C3(C([H])([H])[H])C([H])([H])C([H])([H])C3([H])n3c(C([H])([H])[H])c(C(=O)N4C([H])([H])C([H])([H])C([H])([H])C([H])(n5nc(-c6c([H])c([H])c(Oc7c([H])c([H])c(F)c([H])c7F)c([H])c6[H])c(C(=O)N([H])[H])c5N([H])[H])C4([H])[H])c(C([H])([H])[H])c3C3([H])C([H])([H])C3([H])[H])c([H])c([H])c2C1([H])[H]

>  <smiles>  (43) 
[H]c1c([H])c([H])c2c(c1[H])C([H])([H])C([H])([H])C([H])([H])C2([H])N([H])C(=O)C1([H])N(C(=O)C([H])(N([H])C(=O)C([H])(N([H])C([H])([H])[H])C([H])([H])[H])C(C([H])([H])[H])(C([H])([H])[H])C([H])([H])[H])C([H])([H])c2c([H])c(OC([H])([H])C3(C([H])([H])[H])C([H])([H])C([H])([H])C3([H])n3c(C([H])([H])[H])c(C(=O)N4C([H])([H])C([H])([H])C([H])([H])C([H])(n5nc(-c6c([H])c([H])c(Oc7c([H])c([H])c(F)c([H])c7F)c([H])c6[H])c(C(=O)N([H])[H])c5N([H])[H])C4([H])[H])c(C([H])([H])[H])c3C3([H])C([H])([H])C3([H])[H])c([H])c([H])c2C1([H])[H]

$$$$
44:0:0
     RDKit          3D

 97107  0  0  1  0  0  0  0  0999 V2000
  -28.7520  -20.5060   20.0830 C   0  0  0  0  0  3  0  0  0  0  0  0
  -31.3180  -20.9660   20.7200 C   0  0  0  0  0  3  0  0  0  0  0  0
  -30.4790  -22.1020   20.5810 C   0  0  0  0  0  0  0  0  0  0  0  0
  -29.1030  -21.9610   20.2360 C   0  0  0  0  0  0  0  0  0  0  0  0
  -29.6890  -19.3470   20.2740 C   0  0  0  0  0  0  0  0  0  0  0  0
  -31.0670  -23.4640   20.8620 C   0  0  0  0  0  0  0  0  0  0  0  0
  -28.8090  -24.1040   21.5660 C   0  0  0  0  0  2  0  0  0  0  0  0
  -28.1590  -23.3570   20.3810 C   0  0  2  0  0  0  0  0  0  0  0  0
  -26.7400  -22.9260   20.7820 C   0  0  0  0  0  1  0  0  0  0  0  0
  -30.9590  -19.6620   20.5900 N   0  0  0  0  0  0  0  0  0  0  0  0
  -30.2120  -24.4350   21.2630 N   0  0  0  0  0  0  0  0  0  0  0  0
  -32.2830  -23.6440   20.7550 O   0  0  0  0  0  0  0  0  0  0  0  0
  -29.4950  -17.7210   19.9370 C   0  0  0  0  0  2  0  0  0  0  0  0
  -30.4980  -15.2260   20.7760 C   0  0  0  0  0  0  0  0  0  0  0  0
  -30.6110  -12.7470   20.2040 C   0  0  0  0  0  2  0  0  0  0  0  0
  -29.8430  -12.4680   18.8900 C   0  0  0  0  0  2  0  0  0  0  0  0
  -28.3490  -12.2240   19.1710 C   0  0  0  0  0  2  0  0  0  0  0  0
  -27.7590  -13.2710   20.1530 C   0  0  0  0  0  3  0  0  0  0  0  0
  -28.6650  -13.5040   21.3830 C   0  0  0  0  0  2  0  0  0  0  0  0
  -29.9820  -13.9250   20.8850 N   0  0  0  0  0  0  0  0  0  0  0  0
  -31.6990  -15.3070   20.4890 O   0  0  0  0  0  0  0  0  0  0  0  0
  -29.6610  -16.3890   20.8170 N   0  0  0  0  0  0  0  0  0  0  0  0
  -28.7980  -16.1820   21.2930 H   0  0  0  0  0  0  0  0  0  0  0  0
  -25.3130  -13.8270   20.6580 C   0  0  0  0  0  0  0  0  0  0  0  0
  -24.2280  -13.0470   20.9500 C   0  0  0  0  0  0  0  0  0  0  0  0
  -24.7070  -11.7020   20.9870 C   0  0  0  0  0  0  0  0  0  0  0  0
  -26.3830  -12.9600   20.5300 N   0  0  0  0  0  0  0  0  0  0  0  0
  -26.0220  -11.6760   20.7920 N   0  0  0  0  0  0  0  0  0  0  0  0
  -23.9790  -10.4360   21.1410 C   0  0  0  0  0  0  0  0  0  0  0  0
  -24.3360   -9.4900   22.1300 C   0  0  0  0  0  3  0  0  0  0  0  0
  -23.6070   -8.2890   22.2680 C   0  0  0  0  0  3  0  0  0  0  0  0
  -22.5050   -8.0240   21.4190 C   0  0  0  0  0  0  0  0  0  0  0  0
  -22.1680   -8.9580   20.4230 C   0  0  0  0  0  3  0  0  0  0  0  0
  -22.8980  -10.1500   20.2820 C   0  0  0  0  0  3  0  0  0  0  0  0
  -21.7540   -6.8750   21.4650 O   0  0  0  0  0  0  0  0  0  0  0  0
  -21.6080   -6.1560   22.6240 C   0  0  0  0  0  0  0  0  0  0  0  0
  -21.0650   -6.7310   23.7940 C   0  0  0  0  0  3  0  0  0  0  0  0
  -20.8680   -5.9370   24.9420 C   0  0  0  0  0  3  0  0  0  0  0  0
  -21.2050   -4.5700   24.9200 C   0  0  0  0  0  0  0  0  0  0  0  0
  -21.7420   -3.9950   23.7550 C   0  0  0  0  0  3  0  0  0  0  0  0
  -21.9390   -4.7870   22.6090 C   0  0  0  0  0  0  0  0  0  0  0  0
  -22.4370   -4.2220   21.4830 F   0  0  0  0  0  0  0  0  0  0  0  0
  -21.0080   -3.8060   26.0210 F   0  0  0  0  0  0  0  0  0  0  0  0
  -22.8080  -13.5140   21.0840 C   0  0  0  0  0  0  0  0  0  0  0  0
  -22.0130  -12.8380   21.9080 N   0  0  0  0  0  0  0  0  0  0  0  0
  -22.4070  -14.5150   20.4940 O   0  0  0  0  0  0  0  0  0  0  0  0
  -22.3470  -12.0330   22.4190 H   0  0  0  0  0  0  0  0  0  0  0  0
  -21.0560  -13.1340   22.0320 H   0  0  0  0  0  0  0  0  0  0  0  0
  -25.4760  -15.1970   20.4620 N   0  0  0  0  0  0  0  0  0  0  0  0
  -24.6910  -15.8370   20.4810 H   0  0  0  0  0  0  0  0  0  0  0  0
  -26.3320  -15.6340   20.1460 H   0  0  0  0  0  0  0  0  0  0  0  0
  -30.6600  -25.8210   21.5020 C   0  0  0  0  0  2  0  0  0  0  0  0
  -31.5500  -28.0560   20.4180 C   0  0  0  0  0  2  0  0  0  0  0  0
  -32.5140  -26.9780   20.0000 C   0  0  0  0  0  2  0  0  0  0  0  0
  -31.0650  -26.6250   20.2700 C   0  0  0  0  0  3  0  0  0  0  0  0
  -27.9400  -24.6420   19.2800 C   0  0  0  0  0  2  0  0  0  0  0  0
  -27.9410  -26.1910   19.5600 O   0  0  0  0  0  0  0  0  0  0  0  0
  -24.6220  -31.7770   23.0180 C   0  0  0  0  0  0  0  0  0  0  0  0
  -26.8630  -27.1570   19.5780 C   0  0  0  0  0  0  0  0  0  0  0  0
  -23.2730  -30.5100   21.3840 C   0  0  0  0  0  3  0  0  0  0  0  0
  -24.5780  -28.9600   19.7880 C   0  0  0  0  0  0  0  0  0  0  0  0
  -25.8160  -30.7050   21.0690 C   0  0  0  0  0  2  0  0  0  0  0  0
  -25.8030  -29.3460   20.3420 C   0  0  0  0  0  0  0  0  0  0  0  0
  -26.9390  -28.4590   20.2210 C   0  0  0  0  0  3  0  0  0  0  0  0
  -25.6110  -26.8680   18.9960 C   0  0  0  0  0  3  0  0  0  0  0  0
  -24.4930  -27.7370   19.1010 C   0  0  0  0  0  3  0  0  0  0  0  0
  -23.3820  -29.8890   19.9640 C   0  0  0  0  0  2  0  0  0  0  0  0
  -24.5940  -31.0170   21.8780 N   0  0  0  0  0  0  0  0  0  0  0  0
  -23.5830  -32.0670   23.6290 O   0  0  0  0  0  0  0  0  0  0  0  0
  -22.6220  -29.4770   22.3400 C   0  0  0  0  0  0  0  0  0  0  0  0
  -21.2870  -29.3400   22.2740 N   0  0  0  0  0  0  0  0  0  0  0  0
  -23.3210  -28.8060   23.1040 O   0  0  0  0  0  0  0  0  0  0  0  0
  -20.7800  -29.9350   21.6350 H   0  0  0  0  0  0  0  0  0  0  0  0
  -17.9150  -28.1450   22.8530 C   0  0  0  0  0  0  0  0  0  0  0  0
  -20.4840  -28.3850   23.0440 C   0  0  0  0  0  3  0  0  0  0  0  0
  -20.5560  -26.9700   22.4230 C   0  0  0  0  0  2  0  0  0  0  0  0
  -19.4180  -26.6860   21.4360 C   0  0  0  0  0  2  0  0  0  0  0  0
  -18.0600  -26.8170   22.1300 C   0  0  0  0  0  2  0  0  0  0  0  0
  -19.0530  -28.8880   23.2690 C   0  0  0  0  0  0  0  0  0  0  0  0
  -18.8590  -30.1310   23.9090 C   0  0  0  0  0  3  0  0  0  0  0  0
  -17.5640  -30.6310   24.1370 C   0  0  0  0  0  3  0  0  0  0  0  0
  -16.4410  -29.8840   23.7350 C   0  0  0  0  0  3  0  0  0  0  0  0
  -16.6200  -28.6420   23.1000 C   0  0  0  0  0  3  0  0  0  0  0  0
  -25.9590  -32.3340   23.5970 C   0  0  0  0  0  3  0  0  0  0  0  0
  -26.5670  -31.4320   24.7420 C   0  0  1  0  0  0  0  0  0  0  0  0
  -25.5650  -31.1030   25.8730 C   0  0  0  0  0  1  0  0  0  0  0  0
  -27.0850  -30.0920   24.1680 C   0  0  0  0  0  1  0  0  0  0  0  0
  -27.7890  -32.1380   25.3740 C   0  0  0  0  0  1  0  0  0  0  0  0
  -25.6970  -33.6910   24.1020 N   0  0  0  0  0  0  0  0  0  0  0  0
  -26.0280  -34.8230   23.4660 C   0  0  0  0  0  0  0  0  0  0  0  0
  -26.6540  -34.8300   22.4020 O   0  0  0  0  0  0  0  0  0  0  0  0
  -25.1380  -33.7580   24.9400 H   0  0  0  0  0  0  0  0  0  0  0  0
  -24.3480  -36.6960   23.4030 C   0  0  0  0  0  1  0  0  0  0  0  0
  -25.6010  -36.1570   24.1100 C   0  0  0  0  0  3  0  0  0  0  0  0
  -27.7890  -36.8770   24.9610 C   0  0  0  0  0  1  0  0  0  0  0  0
  -26.6610  -37.1890   24.0880 N   0  0  0  0  0  0  0  0  0  0  0  0
  -26.2880  -38.0930   24.3640 H   0  0  0  0  0  0  0  0  0  0  0  0
  1  4  2  0
  1  5  1  0
  3  2  2  0
  3  6  1  0
  4  8  1  0
  4  3  1  0
  5 10  2  0
  6 11  1  0
  8  9  1  1
  8  7  1  0
 10  2  1  0
 11 52  1  0
 11  7  1  0
 12  6  2  0
 13  5  1  0
 13 22  1  0
 14 22  1  0
 14 20  1  0
 15 20  1  0
 16 17  1  0
 16 15  1  0
 18 17  1  0
 18 27  1  0
 18 19  1  0
 20 19  1  0
 21 14  2  0
 22 23  1  0
 24 25  2  0
 25 26  1  0
 25 44  1  0
 26 29  1  0
 27 24  1  0
 27 28  1  0
 28 26  2  0
 29 30  1  0
 30 31  2  0
 32 35  1  0
 32 31  1  0
 33 32  2  0
 34 33  1  0
 34 29  2  0
 35 36  1  0
 36 37  1  0
 37 38  2  0
 39 38  1  0
 39 43  1  0
 40 39  2  0
 41 36  2  0
 41 40  1  0
 42 41  1  0
 44 45  1  0
 45 48  1  0
 45 47  1  0
 46 44  2  0
 49 50  1  0
 49 24  1  0
 51 49  1  0
 54 55  1  0
 54 53  1  0
 55 53  1  0
 55 52  1  0
 56 57  1  0
 56  8  1  0
 57 59  1  0
 58 69  2  0
 59 64  1  0
 60 68  1  0
 60 70  1  0
 61 67  1  0
 61 63  1  0
 62 68  1  0
 63 62  1  0
 64 63  2  0
 65 66  1  0
 65 59  2  0
 66 61  2  0
 67 60  1  0
 68 58  1  0
 70 72  2  0
 71 70  1  0
 73 71  1  0
 74 83  2  0
 74 79  1  0
 75 71  1  0
 75 79  1  0
 76 75  1  0
 77 78  1  0
 77 76  1  0
 78 74  1  0
 79 80  2  0
 80 81  1  0
 82 81  2  0
 83 82  1  0
 84 58  1  0
 84 89  1  0
 84 85  1  0
 85 88  1  1
 85 86  1  0
 87 85  1  0
 89 92  1  0
 90 89  1  0
 90 94  1  0
 91 90  2  0
 94 93  1  0
 96 94  1  0
 96 97  1  0
 96 95  1  0
M  ISO  4  14 100  22 100  56 101  57 101
M  END
>  <TORSDO>  (44) 
F 20

>  <SCORE>  (44) 
-13.869

>  <name>  (44) 
44

>  <ligand_id>  (44) 
44

>  <original_smiles>  (44) 
[H]c1nc(C([H])([H])N([H])C(=O)N2C([H])([H])C([H])([H])C([H])([H])C([H])(n3nc(-c4c([H])c([H])c(Oc5c([H])c([H])c(F)c([H])c5F)c([H])c4[H])c(C(=O)N([H])[H])c3N([H])[H])C2([H])[H])c([H])c2c1C(=O)N(C([H])([H])C1([H])C([H])([H])C1([H])[H])C([H])([H])C2(C([H])([H])[H])C([H])([H])Oc1c([H])c([H])c2c(c1[H])C([H])([H])N(C(=O)C([H])(N([H])C(=O)C([H])(N([H])C([H])([H])[H])C([H])([H])[H])C(C([H])([H])[H])(C([H])([H])[H])C([H])([H])[H])C([H])(C(=O)N([H])C1([H])c3c([H])c([H])c([H])c([H])c3C([H])([H])C([H])([H])C1([H])[H])C2([H])[H]

>  <smiles>  (44) 
[H]c1nc(C([H])([H])N([H])C(=O)N2C([H])([H])C([H])([H])C([H])([H])C([H])(n3nc(-c4c([H])c([H])c(Oc5c([H])c([H])c(F)c([H])c5F)c([H])c4[H])c(C(=O)N([H])[H])c3N([H])[H])C2([H])[H])c([H])c2c1C(=O)N(C([H])([H])C1([H])C([H])([H])C1([H])[H])C([H])([H])C2(C([H])([H])[H])C([H])([H])Oc1c([H])c([H])c2c(c1[H])C([H])([H])N(C(=O)C([H])(N([H])C(=O)C([H])(N([H])C([H])([H])[H])C([H])([H])[H])C(C([H])([H])[H])(C([H])([H])[H])C([H])([H])[H])C([H])(C(=O)N([H])C1([H])c3c([H])c([H])c([H])c([H])c3C([H])([H])C([H])([H])C1([H])[H])C2([H])[H]

$$$$
45:0:0
     RDKit          3D

 91100  0  0  1  0  0  0  0  0999 V2000
  -28.0270  -22.7340   18.8100 C   0  0  0  0  0  3  0  0  0  0  0  0
  -29.4740  -21.7900   20.8990 C   0  0  0  0  0  3  0  0  0  0  0  0
  -29.0510  -20.7810   19.9700 C   0  0  0  0  0  0  0  0  0  0  0  0
  -28.2820  -21.3290   18.8970 C   0  0  0  0  0  0  0  0  0  0  0  0
  -28.5400  -23.6720   19.7420 C   0  0  0  0  0  0  0  0  0  0  0  0
  -27.7610  -20.4570   17.7620 C   0  0  0  0  0  1  0  0  0  0  0  0
  -29.2540  -23.1560   20.7890 N   0  0  0  0  0  0  0  0  0  0  0  0
  -30.6710  -14.8140   20.4290 C   0  0  0  0  0  0  0  0  0  0  0  0
  -30.3890  -12.5220   19.4630 C   0  0  0  0  0  2  0  0  0  0  0  0
  -29.4770  -12.5270   18.2190 C   0  0  0  0  0  2  0  0  0  0  0  0
  -28.0120  -12.3310   18.6400 C   0  0  0  0  0  2  0  0  0  0  0  0
  -27.6060  -13.2570   19.8150 C   0  0  0  0  0  3  0  0  0  0  0  0
  -28.6570  -13.2860   20.9490 C   0  0  0  0  0  2  0  0  0  0  0  0
  -29.9440  -13.6380   20.3390 N   0  0  0  0  0  0  0  0  0  0  0  0
  -31.8830  -14.7390   20.2080 O   0  0  0  0  0  0  0  0  0  0  0  0
  -30.5640  -18.7470   21.0250 C   0  0  0  0  0  2  0  0  0  0  0  0
  -28.3890  -18.1280   20.2370 C   0  0  0  0  0  2  0  0  0  0  0  0
  -31.0700  -17.2490   20.8570 C   0  0  0  0  0  2  0  0  0  0  0  0
  -28.8120  -16.5960   20.0700 C   0  0  0  0  0  2  0  0  0  0  0  0
  -29.4840  -19.2180   20.0140 C   0  0  0  0  0  3  0  0  0  0  0  0
  -30.1140  -16.1060   20.6140 N   0  0  0  0  0  0  0  0  0  0  0  0
  -25.2180  -13.8420   20.5240 C   0  0  0  0  0  0  0  0  0  0  0  0
  -24.1500  -13.0650   20.8860 C   0  0  0  0  0  0  0  0  0  0  0  0
  -24.6200  -11.7180   20.8700 C   0  0  0  0  0  0  0  0  0  0  0  0
  -26.2650  -12.9660   20.3050 N   0  0  0  0  0  0  0  0  0  0  0  0
  -25.9150  -11.6820   20.5800 N   0  0  0  0  0  0  0  0  0  0  0  0
  -23.8950  -10.4550   21.0540 C   0  0  0  0  0  0  0  0  0  0  0  0
  -24.3270   -9.4840   21.9860 C   0  0  0  0  0  3  0  0  0  0  0  0
  -23.6020   -8.2870   22.1600 C   0  0  0  0  0  3  0  0  0  0  0  0
  -22.4320   -8.0500   21.4020 C   0  0  0  0  0  0  0  0  0  0  0  0
  -22.0180   -9.0080   20.4590 C   0  0  0  0  0  3  0  0  0  0  0  0
  -22.7430  -10.1990   20.2820 C   0  0  0  0  0  3  0  0  0  0  0  0
  -21.6790   -6.9020   21.4830 O   0  0  0  0  0  0  0  0  0  0  0  0
  -21.6370   -6.1500   22.6300 C   0  0  0  0  0  0  0  0  0  0  0  0
  -21.2270   -6.6970   23.8650 C   0  0  0  0  0  3  0  0  0  0  0  0
  -21.1340   -5.8700   25.0040 C   0  0  0  0  0  3  0  0  0  0  0  0
  -21.4390   -4.4990   24.9070 C   0  0  0  0  0  0  0  0  0  0  0  0
  -21.8400   -3.9520   23.6730 C   0  0  0  0  0  3  0  0  0  0  0  0
  -21.9370   -4.7750   22.5390 C   0  0  0  0  0  0  0  0  0  0  0  0
  -22.3020   -4.2410   21.3500 F   0  0  0  0  0  0  0  0  0  0  0  0
  -21.3440   -3.7000   25.9960 F   0  0  0  0  0  0  0  0  0  0  0  0
  -22.7480  -13.5400   21.1330 C   0  0  0  0  0  0  0  0  0  0  0  0
  -22.0130  -12.8490   21.9960 N   0  0  0  0  0  0  0  0  0  0  0  0
  -22.3130  -14.5590   20.5990 O   0  0  0  0  0  0  0  0  0  0  0  0
  -22.3760  -12.0220   22.4480 H   0  0  0  0  0  0  0  0  0  0  0  0
  -21.0720  -13.1500   22.2070 H   0  0  0  0  0  0  0  0  0  0  0  0
  -25.3690  -15.2120   20.3400 N   0  0  0  0  0  0  0  0  0  0  0  0
  -24.5900  -15.8520   20.4450 H   0  0  0  0  0  0  0  0  0  0  0  0
  -26.2100  -15.6650   20.0130 H   0  0  0  0  0  0  0  0  0  0  0  0
  -28.5490  -25.2330   19.3440 C   0  0  0  0  0  2  0  0  0  0  0  0
  -28.3290  -26.4040   20.2490 O   0  0  0  0  0  0  0  0  0  0  0  0
  -24.6170  -31.8680   23.2140 C   0  0  0  0  0  0  0  0  0  0  0  0
  -27.2200  -27.2770   20.1440 C   0  0  0  0  0  0  0  0  0  0  0  0
  -23.4060  -30.4650   21.5840 C   0  0  0  0  0  3  0  0  0  0  0  0
  -24.8510  -28.9080   20.1440 C   0  0  0  0  0  0  0  0  0  0  0  0
  -25.9450  -30.7770   21.3860 C   0  0  0  0  0  2  0  0  0  0  0  0
  -26.0220  -29.3940   20.7400 C   0  0  0  0  0  0  0  0  0  0  0  0
  -27.2030  -28.5850   20.7370 C   0  0  0  0  0  3  0  0  0  0  0  0
  -26.0240  -26.8540   19.5230 C   0  0  0  0  0  3  0  0  0  0  0  0
  -24.8570  -27.6460   19.5250 C   0  0  0  0  0  3  0  0  0  0  0  0
  -23.6110  -29.7800   20.2050 C   0  0  0  0  0  2  0  0  0  0  0  0
  -24.6770  -31.0570   22.1170 N   0  0  0  0  0  0  0  0  0  0  0  0
  -23.5360  -32.1480   23.7550 O   0  0  0  0  0  0  0  0  0  0  0  0
  -22.7490  -29.4540   22.5530 C   0  0  0  0  0  0  0  0  0  0  0  0
  -21.4220  -29.2760   22.4370 N   0  0  0  0  0  0  0  0  0  0  0  0
  -23.4330  -28.8320   23.3700 O   0  0  0  0  0  0  0  0  0  0  0  0
  -20.9290  -29.8320   21.7500 H   0  0  0  0  0  0  0  0  0  0  0  0
  -18.0480  -28.0730   22.9560 C   0  0  0  0  0  0  0  0  0  0  0  0
  -20.6070  -28.3410   23.2140 C   0  0  0  0  0  3  0  0  0  0  0  0
  -20.7100  -26.9070   22.6430 C   0  0  0  0  0  2  0  0  0  0  0  0
  -19.6050  -26.5780   21.6350 C   0  0  0  0  0  2  0  0  0  0  0  0
  -18.2260  -26.7220   22.2830 C   0  0  0  0  0  2  0  0  0  0  0  0
  -19.1680  -28.8400   23.3780 C   0  0  0  0  0  0  0  0  0  0  0  0
  -18.9480  -30.1030   23.9680 C   0  0  0  0  0  3  0  0  0  0  0  0
  -17.6420  -30.6010   24.1420 C   0  0  0  0  0  3  0  0  0  0  0  0
  -16.5380  -29.8310   23.7360 C   0  0  0  0  0  3  0  0  0  0  0  0
  -16.7420  -28.5700   23.1480 C   0  0  0  0  0  3  0  0  0  0  0  0
  -25.9020  -32.5050   23.8270 C   0  0  0  0  0  3  0  0  0  0  0  0
  -25.5890  -33.9010   24.1680 N   0  0  0  0  0  0  0  0  0  0  0  0
  -25.9090  -34.9610   23.4140 C   0  0  0  0  0  0  0  0  0  0  0  0
  -26.5680  -34.8670   22.3750 O   0  0  0  0  0  0  0  0  0  0  0  0
  -25.0030  -34.0450   24.9760 H   0  0  0  0  0  0  0  0  0  0  0  0
  -24.1660  -36.7490   23.0950 C   0  0  0  0  0  1  0  0  0  0  0  0
  -25.4200  -36.3450   23.8860 C   0  0  0  0  0  3  0  0  0  0  0  0
  -27.5640  -37.2340   24.6920 C   0  0  0  0  0  1  0  0  0  0  0  0
  -26.4450  -37.4040   23.7680 N   0  0  0  0  0  0  0  0  0  0  0  0
  -26.0370  -38.3200   23.9300 H   0  0  0  0  0  0  0  0  0  0  0  0
  -26.4310  -31.7330   25.0980 C   0  0  1  0  0  0  0  0  0  0  0  0
  -25.3490  -31.4940   26.1780 C   0  0  0  0  0  1  0  0  0  0  0  0
  -27.0130  -30.3560   24.7020 C   0  0  0  0  0  1  0  0  0  0  0  0
  -27.5860  -32.5290   25.7520 C   0  0  0  0  0  1  0  0  0  0  0  0
  1  4  2  0
  1  5  1  0
  3  2  2  0
  4  3  1  0
  5  7  2  0
  6  4  1  0
  7  2  1  0
  8 21  1  0
  9 14  1  0
 10 11  1  0
 10  9  1  0
 12 11  1  0
 12 25  1  0
 12 13  1  0
 14  8  1  0
 14 13  1  0
 15  8  2  0
 18 16  1  0
 19 17  1  0
 19 21  1  0
 20  3  1  0
 20 17  1  0
 20 16  1  0
 21 18  1  0
 22 23  2  0
 23 42  1  0
 24 23  1  0
 24 27  1  0
 25 22  1  0
 25 26  1  0
 26 24  2  0
 27 28  1  0
 28 29  2  0
 30 33  1  0
 30 29  1  0
 31 30  2  0
 32 31  1  0
 32 27  2  0
 33 34  1  0
 34 35  1  0
 35 36  2  0
 37 36  1  0
 37 41  1  0
 38 37  2  0
 39 34  2  0
 39 38  1  0
 40 39  1  0
 42 43  1  0
 43 46  1  0
 43 45  1  0
 44 42  2  0
 47 48  1  0
 47 22  1  0
 49 47  1  0
 50  5  1  0
 50 51  1  0
 52 63  2  0
 53 51  1  0
 53 58  1  0
 54 62  1  0
 54 64  1  0
 55 61  1  0
 55 57  1  0
 56 62  1  0
 57 56  1  0
 58 57  2  0
 59 60  1  0
 59 53  2  0
 60 55  2  0
 61 54  1  0
 62 52  1  0
 64 66  2  0
 65 64  1  0
 67 65  1  0
 68 77  2  0
 68 73  1  0
 69 65  1  0
 69 73  1  0
 70 69  1  0
 71 72  1  0
 71 70  1  0
 72 68  1  0
 73 74  2  0
 74 75  1  0
 76 75  2  0
 77 76  1  0
 78 52  1  0
 78 79  1  0
 78 88  1  0
 79 82  1  0
 80 84  1  0
 80 79  1  0
 81 80  2  0
 84 83  1  0
 86 84  1  0
 86 87  1  0
 86 85  1  0
 88 91  1  1
 88 89  1  0
 90 88  1  0
M  ISO  4   8 100  21 100  50 101  51 101
M  END
>  <TORSDO>  (45) 
F 17

>  <SCORE>  (45) 
-15.401

>  <name>  (45) 
45

>  <ligand_id>  (45) 
45

>  <original_smiles>  (45) 
[H]c1nc(C([H])([H])Oc2c([H])c([H])c3c(c2[H])C([H])([H])N(C(=O)C([H])(N([H])C(=O)C([H])(N([H])C([H])([H])[H])C([H])([H])[H])C(C([H])([H])[H])(C([H])([H])[H])C([H])([H])[H])C([H])(C(=O)N([H])C2([H])c4c([H])c([H])c([H])c([H])c4C([H])([H])C([H])([H])C2([H])[H])C3([H])[H])c([H])c(C([H])([H])[H])c1C1([H])C([H])([H])C([H])([H])N(C(=O)N2C([H])([H])C([H])([H])C([H])([H])C([H])(n3nc(-c4c([H])c([H])c(Oc5c([H])c([H])c(F)c([H])c5F)c([H])c4[H])c(C(=O)N([H])[H])c3N([H])[H])C2([H])[H])C([H])([H])C1([H])[H]

>  <smiles>  (45) 
[H]c1nc(C([H])([H])Oc2c([H])c([H])c3c(c2[H])C([H])([H])N(C(=O)C([H])(N([H])C(=O)C([H])(N([H])C([H])([H])[H])C([H])([H])[H])C(C([H])([H])[H])(C([H])([H])[H])C([H])([H])[H])C([H])(C(=O)N([H])C2([H])c4c([H])c([H])c([H])c([H])c4C([H])([H])C([H])([H])C2([H])[H])C3([H])[H])c([H])c(C([H])([H])[H])c1C1([H])C([H])([H])C([H])([H])N(C(=O)N2C([H])([H])C([H])([H])C([H])([H])C([H])(n3nc(-c4c([H])c([H])c(Oc5c([H])c([H])c(F)c([H])c5F)c([H])c4[H])c(C(=O)N([H])[H])c3N([H])[H])C2([H])[H])C([H])([H])C1([H])[H]

$$$$
46:0:0
     RDKit          3D

 93102  0  0  1  0  0  0  0  0999 V2000
  -30.6350  -21.7130   20.7370 C   0  0  0  0  0  3  0  0  0  0  0  0
  -31.0110  -23.0720   20.8460 C   0  0  0  0  0  0  0  0  0  0  0  0
  -29.3100  -21.4410   20.3790 C   0  0  0  0  0  0  0  0  0  0  0  0
  -28.8780  -23.7660   20.3390 C   0  0  0  0  0  0  0  0  0  0  0  0
  -32.4450  -23.4620   21.1650 C   0  0  0  0  0  1  0  0  0  0  0  0
  -30.1340  -24.0850   20.6600 N   0  0  0  0  0  0  0  0  0  0  0  0
  -28.4580  -22.4830   20.1860 N   0  0  0  0  0  0  0  0  0  0  0  0
  -28.7760  -20.1300   20.2150 N   0  0  0  0  0  0  0  0  0  0  0  0
  -27.8330  -20.1250   19.8440 H   0  0  0  0  0  0  0  0  0  0  0  0
  -30.4720  -14.5190   20.0110 C   0  0  0  0  0  0  0  0  0  0  0  0
  -30.1100  -12.3270   18.9200 C   0  0  0  0  0  2  0  0  0  0  0  0
  -29.0910  -12.5110   17.7760 C   0  0  0  0  0  2  0  0  0  0  0  0
  -27.6510  -12.3550   18.3070 C   0  0  0  0  0  2  0  0  0  0  0  0
  -27.3880  -13.1780   19.5990 C   0  0  0  0  0  3  0  0  0  0  0  0
  -28.5290  -13.0030   20.6260 C   0  0  0  0  0  2  0  0  0  0  0  0
  -29.7820  -13.3390   19.9430 N   0  0  0  0  0  0  0  0  0  0  0  0
  -31.6390  -14.5920   19.6160 O   0  0  0  0  0  0  0  0  0  0  0  0
  -28.8090  -17.8540   19.1260 C   0  0  0  0  0  2  0  0  0  0  0  0
  -29.5160  -17.9870   21.4340 C   0  0  0  0  0  2  0  0  0  0  0  0
  -29.5280  -16.4770   18.9660 C   0  0  0  0  0  2  0  0  0  0  0  0
  -30.2490  -16.6020   21.2840 C   0  0  0  0  0  2  0  0  0  0  0  0
  -29.4940  -18.8200   20.1270 C   0  0  0  0  0  3  0  0  0  0  0  0
  -29.7670  -15.6910   20.2070 N   0  0  0  0  0  0  0  0  0  0  0  0
  -25.0550  -13.7420   20.5100 C   0  0  0  0  0  0  0  0  0  0  0  0
  -24.0140  -12.9550   20.9220 C   0  0  0  0  0  0  0  0  0  0  0  0
  -24.4710  -11.6060   20.8100 C   0  0  0  0  0  0  0  0  0  0  0  0
  -26.0790  -12.8730   20.1700 N   0  0  0  0  0  0  0  0  0  0  0  0
  -25.7370  -11.5800   20.4080 N   0  0  0  0  0  0  0  0  0  0  0  0
  -23.7580  -10.3380   21.0020 C   0  0  0  0  0  0  0  0  0  0  0  0
  -24.2280   -9.3550   21.9010 C   0  0  0  0  0  3  0  0  0  0  0  0
  -23.5160   -8.1500   22.0850 C   0  0  0  0  0  3  0  0  0  0  0  0
  -22.3170   -7.9200   21.3700 C   0  0  0  0  0  0  0  0  0  0  0  0
  -21.8630   -8.8920   20.4620 C   0  0  0  0  0  3  0  0  0  0  0  0
  -22.5760  -10.0870   20.2750 C   0  0  0  0  0  3  0  0  0  0  0  0
  -21.5710   -6.7690   21.4680 O   0  0  0  0  0  0  0  0  0  0  0  0
  -21.5380   -6.0270   22.6210 C   0  0  0  0  0  0  0  0  0  0  0  0
  -21.0510   -6.5580   23.8360 C   0  0  0  0  0  3  0  0  0  0  0  0
  -20.9690   -5.7390   24.9800 C   0  0  0  0  0  3  0  0  0  0  0  0
  -21.3640   -4.3890   24.9110 C   0  0  0  0  0  0  0  0  0  0  0  0
  -21.8410   -3.8560   23.6990 C   0  0  0  0  0  3  0  0  0  0  0  0
  -21.9270   -4.6740   22.5580 C   0  0  0  0  0  0  0  0  0  0  0  0
  -22.3690   -4.1500   21.3890 F   0  0  0  0  0  0  0  0  0  0  0  0
  -21.2800   -3.6000   26.0060 F   0  0  0  0  0  0  0  0  0  0  0  0
  -22.6420  -13.4230   21.3110 C   0  0  0  0  0  0  0  0  0  0  0  0
  -21.9700  -12.7000   22.2000 N   0  0  0  0  0  0  0  0  0  0  0  0
  -22.1710  -14.4650   20.8600 O   0  0  0  0  0  0  0  0  0  0  0  0
  -22.3630  -11.8600   22.5980 H   0  0  0  0  0  0  0  0  0  0  0  0
  -21.0490  -12.9950   22.4900 H   0  0  0  0  0  0  0  0  0  0  0  0
  -25.2080  -15.1190   20.3760 N   0  0  0  0  0  0  0  0  0  0  0  0
  -24.4580  -15.7690   20.5870 H   0  0  0  0  0  0  0  0  0  0  0  0
  -26.0540  -15.5760   20.0570 H   0  0  0  0  0  0  0  0  0  0  0  0
  -27.7990  -24.9010   20.1860 C   0  0  0  0  0  2  0  0  0  0  0  0
  -28.1140  -26.3570   20.2410 O   0  0  0  0  0  0  0  0  0  0  0  0
  -24.4680  -31.8350   23.2140 C   0  0  0  0  0  0  0  0  0  0  0  0
  -27.0110  -27.2310   20.1690 C   0  0  0  0  0  0  0  0  0  0  0  0
  -23.2320  -30.4280   21.6040 C   0  0  0  0  0  3  0  0  0  0  0  0
  -24.6550  -28.8590   20.1730 C   0  0  0  0  0  0  0  0  0  0  0  0
  -25.7690  -30.7320   21.3780 C   0  0  0  0  0  2  0  0  0  0  0  0
  -25.8340  -29.3480   20.7470 C   0  0  0  0  0  0  0  0  0  0  0  0
  -27.0170  -28.5490   20.7330 C   0  0  0  0  0  3  0  0  0  0  0  0
  -25.8000  -26.8070   19.5660 C   0  0  0  0  0  3  0  0  0  0  0  0
  -24.6370  -27.5960   19.5720 C   0  0  0  0  0  3  0  0  0  0  0  0
  -23.4230  -29.7350   20.2280 C   0  0  0  0  0  2  0  0  0  0  0  0
  -24.5090  -31.0170   22.1220 N   0  0  0  0  0  0  0  0  0  0  0  0
  -23.3940  -32.1160   23.7660 O   0  0  0  0  0  0  0  0  0  0  0  0
  -22.5730  -29.4270   22.5860 C   0  0  0  0  0  0  0  0  0  0  0  0
  -21.2510  -29.2350   22.4600 N   0  0  0  0  0  0  0  0  0  0  0  0
  -23.2570  -28.8250   23.4170 O   0  0  0  0  0  0  0  0  0  0  0  0
  -20.7570  -29.7660   21.7570 H   0  0  0  0  0  0  0  0  0  0  0  0
  -17.8890  -28.0060   22.9750 C   0  0  0  0  0  0  0  0  0  0  0  0
  -20.4410  -28.3070   23.2510 C   0  0  0  0  0  3  0  0  0  0  0  0
  -20.5670  -26.8620   22.7120 C   0  0  0  0  0  2  0  0  0  0  0  0
  -19.4760  -26.5010   21.7000 C   0  0  0  0  0  2  0  0  0  0  0  0
  -18.0870  -26.6450   22.3300 C   0  0  0  0  0  2  0  0  0  0  0  0
  -18.9940  -28.7960   23.3900 C   0  0  0  0  0  0  0  0  0  0  0  0
  -18.7500  -30.0710   23.9500 C   0  0  0  0  0  3  0  0  0  0  0  0
  -17.4360  -30.5540   24.0960 C   0  0  0  0  0  3  0  0  0  0  0  0
  -16.3460  -29.7630   23.6920 C   0  0  0  0  0  3  0  0  0  0  0  0
  -16.5730  -28.4910   23.1370 C   0  0  0  0  0  3  0  0  0  0  0  0
  -25.7630  -32.4600   23.8130 C   0  0  0  0  0  3  0  0  0  0  0  0
  -25.4670  -33.8640   24.1320 N   0  0  0  0  0  0  0  0  0  0  0  0
  -25.7840  -34.9050   23.3490 C   0  0  0  0  0  0  0  0  0  0  0  0
  -26.4200  -34.7850   22.2980 O   0  0  0  0  0  0  0  0  0  0  0  0
  -24.8960  -34.0340   24.9460 H   0  0  0  0  0  0  0  0  0  0  0  0
  -24.0560  -36.7070   23.0260 C   0  0  0  0  0  1  0  0  0  0  0  0
  -25.3210  -36.3020   23.8010 C   0  0  0  0  0  3  0  0  0  0  0  0
  -27.4770  -37.2010   24.5640 C   0  0  0  0  0  1  0  0  0  0  0  0
  -26.3560  -37.3470   23.6380 N   0  0  0  0  0  0  0  0  0  0  0  0
  -25.9560  -38.2720   23.7670 H   0  0  0  0  0  0  0  0  0  0  0  0
  -26.2920  -31.6990   25.0910 C   0  0  1  0  0  0  0  0  0  0  0  0
  -25.2120  -31.4730   26.1750 C   0  0  0  0  0  1  0  0  0  0  0  0
  -26.8620  -30.3140   24.7050 C   0  0  0  0  0  1  0  0  0  0  0  0
  -27.4520  -32.4970   25.7320 C   0  0  0  0  0  1  0  0  0  0  0  0
  1  2  2  0
  2  5  1  0
  3  1  1  0
  4  6  2  0
  6  2  1  0
  7  4  1  0
  7  3  2  0
  8  3  1  0
  9  8  1  0
 10 23  1  0
 11 16  1  0
 12 13  1  0
 12 11  1  0
 14 13  1  0
 14 27  1  0
 14 15  1  0
 16 10  1  0
 16 15  1  0
 17 10  2  0
 18 22  1  0
 20 18  1  0
 20 23  1  0
 21 19  1  0
 22  8  1  0
 22 19  1  0
 23 21  1  0
 24 25  2  0
 25 44  1  0
 26 25  1  0
 26 29  1  0
 27 28  1  0
 27 24  1  0
 28 26  2  0
 29 30  1  0
 30 31  2  0
 32 35  1  0
 32 31  1  0
 33 32  2  0
 34 33  1  0
 34 29  2  0
 35 36  1  0
 36 37  1  0
 37 38  2  0
 39 38  1  0
 39 43  1  0
 40 39  2  0
 41 36  2  0
 41 40  1  0
 42 41  1  0
 44 45  1  0
 45 48  1  0
 45 47  1  0
 46 44  2  0
 49 24  1  0
 49 50  1  0
 51 49  1  0
 52 53  1  0
 52  4  1  0
 54 65  2  0
 55 53  1  0
 55 60  1  0
 56 64  1  0
 56 66  1  0
 57 63  1  0
 57 59  1  0
 58 64  1  0
 59 58  1  0
 60 59  2  0
 61 62  1  0
 61 55  2  0
 62 57  2  0
 63 56  1  0
 64 54  1  0
 66 68  2  0
 67 66  1  0
 69 67  1  0
 70 79  2  0
 70 75  1  0
 71 67  1  0
 71 75  1  0
 72 71  1  0
 73 74  1  0
 73 72  1  0
 74 70  1  0
 75 76  2  0
 76 77  1  0
 78 77  2  0
 79 78  1  0
 80 54  1  0
 80 81  1  0
 80 90  1  0
 81 84  1  0
 82 86  1  0
 82 81  1  0
 83 82  2  0
 86 85  1  0
 88 89  1  0
 88 86  1  0
 88 87  1  0
 90 93  1  1
 90 91  1  0
 92 90  1  0
M  ISO  4  10 100  23 100  52 101  53 101
M  END
>  <TORSDO>  (46) 
F 17

>  <SCORE>  (46) 
-13.635

>  <name>  (46) 
46

>  <ligand_id>  (46) 
46

>  <original_smiles>  (46) 
[H]c1c(N([H])C2([H])C([H])([H])C([H])([H])N(C(=O)N3C([H])([H])C([H])([H])C([H])([H])C([H])(n4nc(-c5c([H])c([H])c(Oc6c([H])c([H])c(F)c([H])c6F)c([H])c5[H])c(C(=O)N([H])[H])c4N([H])[H])C3([H])[H])C([H])([H])C2([H])[H])nc(C([H])([H])Oc2c([H])c([H])c3c(c2[H])C([H])([H])N(C(=O)C([H])(N([H])C(=O)C([H])(N([H])C([H])([H])[H])C([H])([H])[H])C(C([H])([H])[H])(C([H])([H])[H])C([H])([H])[H])C([H])(C(=O)N([H])C2([H])c4c([H])c([H])c([H])c([H])c4C([H])([H])C([H])([H])C2([H])[H])C3([H])[H])nc1C([H])([H])[H]

>  <smiles>  (46) 
[H]c1c(N([H])C2([H])C([H])([H])C([H])([H])N(C(=O)N3C([H])([H])C([H])([H])C([H])([H])C([H])(n4nc(-c5c([H])c([H])c(Oc6c([H])c([H])c(F)c([H])c6F)c([H])c5[H])c(C(=O)N([H])[H])c4N([H])[H])C3([H])[H])C([H])([H])C2([H])[H])nc(C([H])([H])Oc2c([H])c([H])c3c(c2[H])C([H])([H])N(C(=O)C([H])(N([H])C(=O)C([H])(N([H])C([H])([H])[H])C([H])([H])[H])C(C([H])([H])[H])(C([H])([H])[H])C([H])([H])[H])C([H])(C(=O)N([H])C2([H])c4c([H])c([H])c([H])c([H])c4C([H])([H])C([H])([H])C2([H])[H])C3([H])[H])nc1C([H])([H])[H]

$$$$
47:0:0
     RDKit          3D

 91100  0  0  1  0  0  0  0  0999 V2000
  -30.3670  -15.3800   20.3510 C   0  0  0  0  0  0  0  0  0  0  0  0
  -30.4290  -12.8790   19.6000 C   0  0  0  0  0  2  0  0  0  0  0  0
  -29.5570  -12.6040   18.3450 C   0  0  0  0  0  2  0  0  0  0  0  0
  -28.0950  -12.3350   18.7390 C   0  0  0  0  0  2  0  0  0  0  0  0
  -27.5980  -13.3360   19.8140 C   0  0  0  0  0  3  0  0  0  0  0  0
  -28.6020  -13.5310   20.9710 C   0  0  0  0  0  2  0  0  0  0  0  0
  -29.8490  -14.0440   20.3810 N   0  0  0  0  0  0  0  0  0  0  0  0
  -31.5700  -15.3910   20.0440 O   0  0  0  0  0  0  0  0  0  0  0  0
  -29.3850  -19.5870   20.4920 C   0  0  0  0  0  3  0  0  0  0  0  0
  -27.5750  -19.0940   18.6320 C   0  0  0  0  0  3  0  0  0  0  0  0
  -27.6830  -20.4590   19.0290 C   0  0  0  0  0  0  0  0  0  0  0  0
  -28.6720  -20.8730   19.9650 C   0  0  0  0  0  0  0  0  0  0  0  0
  -29.1990  -18.1010   20.0700 C   0  0  0  0  0  0  0  0  0  0  0  0
  -28.2710  -18.0190   19.0940 N   0  0  0  0  0  0  0  0  0  0  0  0
  -29.6170  -16.6390   20.6650 N   0  0  0  0  0  0  0  0  0  0  0  0
  -28.8260  -16.3180   21.2000 H   0  0  0  0  0  0  0  0  0  0  0  0
  -25.2080  -13.9070   20.4900 C   0  0  0  0  0  0  0  0  0  0  0  0
  -24.1360  -13.1390   20.8460 C   0  0  0  0  0  0  0  0  0  0  0  0
  -24.6040  -11.7880   20.8530 C   0  0  0  0  0  0  0  0  0  0  0  0
  -26.2560  -13.0260   20.2900 N   0  0  0  0  0  0  0  0  0  0  0  0
  -25.9050  -11.7470   20.5790 N   0  0  0  0  0  0  0  0  0  0  0  0
  -23.8700  -10.5300   21.0540 C   0  0  0  0  0  0  0  0  0  0  0  0
  -24.2890   -9.5690   22.0010 C   0  0  0  0  0  3  0  0  0  0  0  0
  -23.5520   -8.3790   22.1880 C   0  0  0  0  0  3  0  0  0  0  0  0
  -22.3850   -8.1390   21.4270 C   0  0  0  0  0  0  0  0  0  0  0  0
  -21.9850   -9.0880   20.4700 C   0  0  0  0  0  3  0  0  0  0  0  0
  -22.7200  -10.2710   20.2810 C   0  0  0  0  0  3  0  0  0  0  0  0
  -21.6230   -7.0000   21.5210 O   0  0  0  0  0  0  0  0  0  0  0  0
  -21.5780   -6.2590   22.6740 C   0  0  0  0  0  0  0  0  0  0  0  0
  -21.1800   -6.8230   23.9070 C   0  0  0  0  0  3  0  0  0  0  0  0
  -21.0790   -6.0090   25.0530 C   0  0  0  0  0  3  0  0  0  0  0  0
  -21.3630   -4.6340   24.9690 C   0  0  0  0  0  0  0  0  0  0  0  0
  -21.7530   -4.0690   23.7420 C   0  0  0  0  0  3  0  0  0  0  0  0
  -21.8580   -4.8790   22.5980 C   0  0  0  0  0  0  0  0  0  0  0  0
  -22.2130   -4.3250   21.4140 F   0  0  0  0  0  0  0  0  0  0  0  0
  -21.2600   -3.8520   26.0680 F   0  0  0  0  0  0  0  0  0  0  0  0
  -22.7330  -13.6240   21.0660 C   0  0  0  0  0  0  0  0  0  0  0  0
  -21.9810  -12.9520   21.9280 N   0  0  0  0  0  0  0  0  0  0  0  0
  -22.3120  -14.6360   20.5060 O   0  0  0  0  0  0  0  0  0  0  0  0
  -22.3400  -12.1390   22.4080 H   0  0  0  0  0  0  0  0  0  0  0  0
  -21.0400  -13.2610   22.1190 H   0  0  0  0  0  0  0  0  0  0  0  0
  -25.3790  -15.2720   20.2920 N   0  0  0  0  0  0  0  0  0  0  0  0
  -24.6220  -15.9350   20.4210 H   0  0  0  0  0  0  0  0  0  0  0  0
  -26.2290  -15.7030   19.9510 H   0  0  0  0  0  0  0  0  0  0  0  0
  -25.5820  -22.0700   19.1880 C   0  0  0  0  0  2  0  0  0  0  0  0
  -26.7100  -21.4270   18.4050 C   0  0  0  0  0  3  0  0  0  0  0  0
  -25.2600  -21.0220   18.1570 C   0  0  0  0  0  3  0  0  0  0  0  0
  -24.5580  -21.3860   16.8640 C   0  0  0  0  0  1  0  0  0  0  0  0
  -28.8810  -22.6120   20.2780 C   0  0  0  0  0  3  0  0  0  0  0  0
  -27.9590  -24.1610   19.9220 C   0  0  0  0  0  3  0  0  0  0  0  0
  -28.1880  -25.8090   20.1130 O   0  0  0  0  0  0  0  0  0  0  0  0
  -24.6060  -31.8090   23.0640 C   0  0  0  0  0  0  0  0  0  0  0  0
  -27.1880  -26.9270   20.0380 C   0  0  0  0  0  0  0  0  0  0  0  0
  -23.4310  -30.4180   21.4110 C   0  0  0  0  0  3  0  0  0  0  0  0
  -24.8910  -28.8230   19.9850 C   0  0  0  0  0  0  0  0  0  0  0  0
  -25.9980  -30.6300   21.2830 C   0  0  0  0  0  2  0  0  0  0  0  0
  -26.0730  -29.2200   20.6200 C   0  0  0  0  0  0  0  0  0  0  0  0
  -27.2160  -28.2940   20.6210 C   0  0  0  0  0  3  0  0  0  0  0  0
  -25.9790  -26.6940   19.3470 C   0  0  0  0  0  3  0  0  0  0  0  0
  -24.8710  -27.5830   19.3240 C   0  0  0  0  0  3  0  0  0  0  0  0
  -23.6710  -29.7400   20.0320 C   0  0  0  0  0  2  0  0  0  0  0  0
  -24.6990  -30.9800   21.9720 N   0  0  0  0  0  0  0  0  0  0  0  0
  -23.5110  -32.0920   23.5770 O   0  0  0  0  0  0  0  0  0  0  0  0
  -22.7340  -29.4140   22.3700 C   0  0  0  0  0  0  0  0  0  0  0  0
  -21.3990  -29.2830   22.2760 N   0  0  0  0  0  0  0  0  0  0  0  0
  -23.4040  -28.7540   23.1690 O   0  0  0  0  0  0  0  0  0  0  0  0
  -20.9110  -29.8790   21.6210 H   0  0  0  0  0  0  0  0  0  0  0  0
  -18.0020  -28.1330   22.8400 C   0  0  0  0  0  0  0  0  0  0  0  0
  -20.5770  -28.3310   23.0340 C   0  0  0  0  0  3  0  0  0  0  0  0
  -20.6300  -26.9230   22.3960 C   0  0  0  0  0  2  0  0  0  0  0  0
  -19.4890  -26.6710   21.4070 C   0  0  0  0  0  2  0  0  0  0  0  0
  -18.1300  -26.8110   22.1000 C   0  0  0  0  0  2  0  0  0  0  0  0
  -19.1510  -28.8550   23.2610 C   0  0  0  0  0  0  0  0  0  0  0  0
  -18.9780  -30.0980   23.9090 C   0  0  0  0  0  3  0  0  0  0  0  0
  -17.6900  -30.6200   24.1330 C   0  0  0  0  0  3  0  0  0  0  0  0
  -16.5580  -29.8930   23.7250 C   0  0  0  0  0  3  0  0  0  0  0  0
  -16.7140  -28.6520   23.0870 C   0  0  0  0  0  3  0  0  0  0  0  0
  -25.8690  -32.4550   23.7100 C   0  0  0  0  0  3  0  0  0  0  0  0
  -25.5320  -33.8420   24.0810 N   0  0  0  0  0  0  0  0  0  0  0  0
  -25.8450  -34.9290   23.3610 C   0  0  0  0  0  0  0  0  0  0  0  0
  -26.5100  -34.8700   22.3230 O   0  0  0  0  0  0  0  0  0  0  0  0
  -24.9410  -33.9630   24.8910 H   0  0  0  0  0  0  0  0  0  0  0  0
  -24.0860  -36.7120   23.0910 C   0  0  0  0  0  1  0  0  0  0  0  0
  -25.3440  -36.2970   23.8720 C   0  0  0  0  0  3  0  0  0  0  0  0
  -27.4760  -37.1900   24.6990 C   0  0  0  0  0  1  0  0  0  0  0  0
  -26.3600  -37.3680   23.7760 N   0  0  0  0  0  0  0  0  0  0  0  0
  -25.9440  -38.2770   23.9560 H   0  0  0  0  0  0  0  0  0  0  0  0
  -26.3890  -31.6700   24.9780 C   0  0  1  0  0  0  0  0  0  0  0  0
  -25.2940  -31.4090   26.0390 C   0  0  0  0  0  1  0  0  0  0  0  0
  -26.9830  -30.3030   24.5730 C   0  0  0  0  0  1  0  0  0  0  0  0
  -27.5360  -32.4590   25.6500 C   0  0  0  0  0  1  0  0  0  0  0  0
  1  7  1  0
  1 15  1  0
  2  7  1  0
  3  4  1  0
  3  2  1  0
  5  4  1  0
  5 20  1  0
  5  6  1  0
  7  6  1  0
  8  1  2  0
 10 11  2  0
 10 14  1  0
 11 12  1  0
 12 49  1  0
 12  9  2  0
 13  9  1  0
 13 15  1  0
 14 13  2  0
 15 16  1  0
 17 18  2  0
 18 19  1  0
 18 37  1  0
 19 22  1  0
 20 17  1  0
 20 21  1  0
 21 19  2  0
 22 23  1  0
 23 24  2  0
 25 28  1  0
 25 24  1  0
 26 25  2  0
 27 26  1  0
 27 22  2  0
 28 29  1  0
 29 30  1  0
 30 31  2  0
 32 31  1  0
 32 36  1  0
 33 32  2  0
 34 29  2  0
 34 33  1  0
 35 34  1  0
 37 38  1  0
 38 41  1  0
 38 40  1  0
 39 37  2  0
 42 43  1  0
 42 17  1  0
 44 42  1  0
 46 11  1  0
 46 45  1  0
 47 48  1  0
 47 46  1  0
 47 45  1  0
 50 51  1  0
 50 49  2  0
 52 63  2  0
 53 51  1  0
 53 58  1  0
 54 62  1  0
 54 64  1  0
 55 61  1  0
 55 57  1  0
 56 62  1  0
 57 58  2  0
 57 56  1  0
 59 53  2  0
 60 59  1  0
 60 55  2  0
 61 54  1  0
 62 52  1  0
 64 66  2  0
 65 64  1  0
 67 65  1  0
 68 77  2  0
 68 73  1  0
 69 65  1  0
 69 73  1  0
 70 69  1  0
 71 72  1  0
 71 70  1  0
 72 68  1  0
 73 74  2  0
 74 75  1  0
 76 75  2  0
 77 76  1  0
 78 52  1  0
 78 79  1  0
 78 88  1  0
 79 82  1  0
 80 84  1  0
 80 79  1  0
 81 80  2  0
 84 83  1  0
 86 84  1  0
 86 87  1  0
 86 85  1  0
 88 91  1  1
 88 89  1  0
 90 88  1  0
M  ISO  4   1 100  15 100  50 101  51 101
M  END
>  <TORSDO>  (47) 
F 18

>  <SCORE>  (47) 
-16.279

>  <name>  (47) 
47

>  <ligand_id>  (47) 
47

>  <original_smiles>  (47) 
[H]c1nc(N([H])C(=O)N2C([H])([H])C([H])([H])C([H])([H])C([H])(n3nc(-c4c([H])c([H])c(Oc5c([H])c([H])c(F)c([H])c5F)c([H])c4[H])c(C(=O)N([H])[H])c3N([H])[H])C2([H])[H])c([H])c(C([H])([H])C([H])([H])Oc2c([H])c([H])c3c(c2[H])C([H])([H])N(C(=O)C([H])(N([H])C(=O)C([H])(N([H])C([H])([H])[H])C([H])([H])[H])C(C([H])([H])[H])(C([H])([H])[H])C([H])([H])[H])C([H])(C(=O)N([H])C2([H])c4c([H])c([H])c([H])c([H])c4C([H])([H])C([H])([H])C2([H])[H])C3([H])[H])c1C1([H])C([H])([H])C1([H])C([H])([H])[H]

>  <smiles>  (47) 
[H]c1nc(N([H])C(=O)N2C([H])([H])C([H])([H])C([H])([H])C([H])(n3nc(-c4c([H])c([H])c(Oc5c([H])c([H])c(F)c([H])c5F)c([H])c4[H])c(C(=O)N([H])[H])c3N([H])[H])C2([H])[H])c([H])c(C([H])([H])C([H])([H])Oc2c([H])c([H])c3c(c2[H])C([H])([H])N(C(=O)C([H])(N([H])C(=O)C([H])(N([H])C([H])([H])[H])C([H])([H])[H])C(C([H])([H])[H])(C([H])([H])[H])C([H])([H])[H])C([H])(C(=O)N([H])C2([H])c4c([H])c([H])c([H])c([H])c4C([H])([H])C([H])([H])C2([H])[H])C3([H])[H])c1C1([H])C([H])([H])C1([H])C([H])([H])[H]

$$$$
48:0:0
     RDKit          3D

 92101  0  0  1  0  0  0  0  0999 V2000
  -29.0670  -22.2800   19.1280 C   0  0  0  0  0  3  0  0  0  0  0  0
  -29.1530  -21.4820   21.7000 C   0  0  0  0  0  3  0  0  0  0  0  0
  -29.3880  -20.8840   19.4250 C   0  0  0  0  0  0  0  0  0  0  0  0
  -29.4280  -20.4320   20.7610 C   0  0  0  0  0  0  0  0  0  0  0  0
  -28.7820  -23.2880   20.1340 C   0  0  0  0  0  0  0  0  0  0  0  0
  -29.6880  -19.8210   18.3470 C   0  0  0  0  0  2  0  0  0  0  0  0
  -29.4430  -18.3010   18.7290 C   0  0  0  0  0  2  0  0  0  0  0  0
  -29.6770  -18.8740   21.1550 C   0  0  0  0  0  3  0  0  0  0  0  0
  -30.1340  -17.7760   20.0300 C   0  0  0  0  0  3  0  0  0  0  0  0
  -28.8470  -22.8070   21.4160 N   0  0  0  0  0  0  0  0  0  0  0  0
  -30.7430  -15.0610   20.1020 C   0  0  0  0  0  0  0  0  0  0  0  0
  -30.6270  -12.6940   19.2020 C   0  0  0  0  0  2  0  0  0  0  0  0
  -29.6510  -12.6290   18.0040 C   0  0  0  0  0  2  0  0  0  0  0  0
  -28.2070  -12.4040   18.4860 C   0  0  0  0  0  2  0  0  0  0  0  0
  -27.8280  -13.3330   19.6700 C   0  0  0  0  0  3  0  0  0  0  0  0
  -28.9220  -13.3730   20.7590 C   0  0  0  0  0  2  0  0  0  0  0  0
  -30.1690  -13.7900   20.1050 N   0  0  0  0  0  0  0  0  0  0  0  0
  -31.9220  -15.1490   19.7450 O   0  0  0  0  0  0  0  0  0  0  0  0
  -29.9450  -16.2210   20.2930 N   0  0  0  0  0  0  0  0  0  0  0  0
  -29.0100  -15.9880   20.5880 H   0  0  0  0  0  0  0  0  0  0  0  0
  -25.4840  -13.8880   20.5360 C   0  0  0  0  0  0  0  0  0  0  0  0
  -24.4360  -13.1020   20.9280 C   0  0  0  0  0  0  0  0  0  0  0  0
  -24.8940  -11.7520   20.8270 C   0  0  0  0  0  0  0  0  0  0  0  0
  -26.5130  -13.0180   20.2160 N   0  0  0  0  0  0  0  0  0  0  0  0
  -26.1700  -11.7260   20.4560 N   0  0  0  0  0  0  0  0  0  0  0  0
  -24.1710  -10.4860   21.0050 C   0  0  0  0  0  0  0  0  0  0  0  0
  -24.5980   -9.5150   21.9380 C   0  0  0  0  0  3  0  0  0  0  0  0
  -23.8740   -8.3150   22.1050 C   0  0  0  0  0  3  0  0  0  0  0  0
  -22.7090   -8.0760   21.3370 C   0  0  0  0  0  0  0  0  0  0  0  0
  -22.3020   -9.0340   20.3930 C   0  0  0  0  0  3  0  0  0  0  0  0
  -23.0270  -10.2260   20.2240 C   0  0  0  0  0  3  0  0  0  0  0  0
  -21.9580   -6.9270   21.4140 O   0  0  0  0  0  0  0  0  0  0  0  0
  -21.8270   -6.2300   22.5880 C   0  0  0  0  0  0  0  0  0  0  0  0
  -21.2850   -6.8220   23.7490 C   0  0  0  0  0  3  0  0  0  0  0  0
  -21.1030   -6.0490   24.9140 C   0  0  0  0  0  3  0  0  0  0  0  0
  -21.4510   -4.6850   24.9160 C   0  0  0  0  0  0  0  0  0  0  0  0
  -21.9850   -4.0930   23.7580 C   0  0  0  0  0  3  0  0  0  0  0  0
  -22.1690   -4.8630   22.5970 C   0  0  0  0  0  0  0  0  0  0  0  0
  -22.6630   -4.2810   21.4780 F   0  0  0  0  0  0  0  0  0  0  0  0
  -21.2690   -3.9400   26.0320 F   0  0  0  0  0  0  0  0  0  0  0  0
  -23.0550  -13.5720   21.2770 C   0  0  0  0  0  0  0  0  0  0  0  0
  -22.3670  -12.8550   22.1580 N   0  0  0  0  0  0  0  0  0  0  0  0
  -22.5950  -14.6100   20.8040 O   0  0  0  0  0  0  0  0  0  0  0  0
  -22.7520  -12.0150   22.5630 H   0  0  0  0  0  0  0  0  0  0  0  0
  -21.4410  -13.1520   22.4340 H   0  0  0  0  0  0  0  0  0  0  0  0
  -25.6420  -15.2650   20.3990 N   0  0  0  0  0  0  0  0  0  0  0  0
  -24.8760  -15.9090   20.5650 H   0  0  0  0  0  0  0  0  0  0  0  0
  -26.4560  -15.7120   19.9980 H   0  0  0  0  0  0  0  0  0  0  0  0
  -31.9260  -19.3940   22.3300 C   0  0  0  0  0  1  0  0  0  0  0  0
  -30.5440  -18.7250   22.4220 C   0  0  0  0  0  2  0  0  0  0  0  0
  -28.0220  -24.7330   19.8210 C   0  0  0  0  0  2  0  0  0  0  0  0
  -28.3320  -26.2000   20.2620 O   0  0  0  0  0  0  0  0  0  0  0  0
  -24.6860  -31.8660   23.2800 C   0  0  0  0  0  0  0  0  0  0  0  0
  -27.3040  -27.2170   20.1700 C   0  0  0  0  0  0  0  0  0  0  0  0
  -23.5080  -30.5060   21.5980 C   0  0  0  0  0  3  0  0  0  0  0  0
  -24.9770  -28.9740   20.1490 C   0  0  0  0  0  0  0  0  0  0  0  0
  -26.0660  -30.7760   21.4710 C   0  0  0  0  0  2  0  0  0  0  0  0
  -26.1480  -29.3980   20.7890 C   0  0  0  0  0  0  0  0  0  0  0  0
  -27.3110  -28.5350   20.7890 C   0  0  0  0  0  3  0  0  0  0  0  0
  -26.1110  -26.9180   19.4680 C   0  0  0  0  0  3  0  0  0  0  0  0
  -24.9730  -27.7480   19.4730 C   0  0  0  0  0  3  0  0  0  0  0  0
  -23.7470  -29.8660   20.2050 C   0  0  0  0  0  2  0  0  0  0  0  0
  -24.7730  -31.0700   22.1720 N   0  0  0  0  0  0  0  0  0  0  0  0
  -23.5930  -32.1360   23.8020 O   0  0  0  0  0  0  0  0  0  0  0  0
  -22.8220  -29.4720   22.5280 C   0  0  0  0  0  0  0  0  0  0  0  0
  -21.5000  -29.2850   22.3680 N   0  0  0  0  0  0  0  0  0  0  0  0
  -23.4830  -28.8450   23.3590 O   0  0  0  0  0  0  0  0  0  0  0  0
  -21.0220  -29.8440   21.6740 H   0  0  0  0  0  0  0  0  0  0  0  0
  -18.1260  -28.0270   22.7700 C   0  0  0  0  0  0  0  0  0  0  0  0
  -20.6720  -28.3270   23.1080 C   0  0  0  0  0  3  0  0  0  0  0  0
  -20.8120  -26.9020   22.5230 C   0  0  0  0  0  2  0  0  0  0  0  0
  -19.7420  -26.5720   21.4760 C   0  0  0  0  0  2  0  0  0  0  0  0
  -18.3410  -26.6880   22.0840 C   0  0  0  0  0  2  0  0  0  0  0  0
  -19.2190  -28.8030   23.2360 C   0  0  0  0  0  0  0  0  0  0  0  0
  -18.9630  -30.0540   23.8380 C   0  0  0  0  0  3  0  0  0  0  0  0
  -17.6450  -30.5300   23.9770 C   0  0  0  0  0  3  0  0  0  0  0  0
  -16.5650  -29.7510   23.5260 C   0  0  0  0  0  3  0  0  0  0  0  0
  -16.8060  -28.5020   22.9280 C   0  0  0  0  0  3  0  0  0  0  0  0
  -25.9560  -32.4900   23.9350 C   0  0  0  0  0  3  0  0  0  0  0  0
  -25.6500  -33.8930   24.2560 N   0  0  0  0  0  0  0  0  0  0  0  0
  -25.9720  -34.9430   23.4860 C   0  0  0  0  0  0  0  0  0  0  0  0
  -26.6240  -34.8310   22.4460 O   0  0  0  0  0  0  0  0  0  0  0  0
  -25.0680  -34.0540   25.0660 H   0  0  0  0  0  0  0  0  0  0  0  0
  -24.2280  -36.7300   23.1670 C   0  0  0  0  0  1  0  0  0  0  0  0
  -25.4950  -36.3360   23.9440 C   0  0  0  0  0  3  0  0  0  0  0  0
  -27.6490  -37.2410   24.7020 C   0  0  0  0  0  1  0  0  0  0  0  0
  -26.5200  -37.3910   23.7870 N   0  0  0  0  0  0  0  0  0  0  0  0
  -26.1150  -38.3120   23.9320 H   0  0  0  0  0  0  0  0  0  0  0  0
  -26.4280  -31.7220   25.2290 C   0  0  1  0  0  0  0  0  0  0  0  0
  -25.3020  -31.4960   26.2650 C   0  0  0  0  0  1  0  0  0  0  0  0
  -27.0120  -30.3370   24.8650 C   0  0  0  0  0  1  0  0  0  0  0  0
  -27.5660  -32.5090   25.9210 C   0  0  0  0  0  1  0  0  0  0  0  0
  1  3  2  0
  1  5  1  0
  3  4  1  0
  4  8  1  0
  4  2  2  0
  5 10  2  0
  6  7  1  0
  6  3  1  0
  7  9  1  0
  8 50  1  0
  9 19  1  0
  9  8  1  0
 10  2  1  0
 11 17  1  0
 11 19  1  0
 12 17  1  0
 13 14  1  0
 13 12  1  0
 15 14  1  0
 15 24  1  0
 15 16  1  0
 17 16  1  0
 18 11  2  0
 19 20  1  0
 21 22  2  0
 22 41  1  0
 23 22  1  0
 23 26  1  0
 24 25  1  0
 24 21  1  0
 25 23  2  0
 26 27  1  0
 27 28  2  0
 29 32  1  0
 29 28  1  0
 30 29  2  0
 31 30  1  0
 31 26  2  0
 32 33  1  0
 33 38  2  0
 33 34  1  0
 34 35  2  0
 35 36  1  0
 36 40  1  0
 37 36  2  0
 38 37  1  0
 39 38  1  0
 41 42  1  0
 42 45  1  0
 42 44  1  0
 43 41  2  0
 46 21  1  0
 46 47  1  0
 48 46  1  0
 49 50  1  0
 51  5  1  0
 51 52  1  0
 53 64  2  0
 54 52  1  0
 54 59  1  0
 55 63  1  0
 55 65  1  0
 56 62  1  0
 56 58  1  0
 57 63  1  0
 58 57  1  0
 59 58  2  0
 60 61  1  0
 60 54  2  0
 61 56  2  0
 62 55  1  0
 63 53  1  0
 65 67  2  0
 66 65  1  0
 68 66  1  0
 69 78  2  0
 69 74  1  0
 70 66  1  0
 70 74  1  0
 71 70  1  0
 72 73  1  0
 72 71  1  0
 73 69  1  0
 74 75  2  0
 75 76  1  0
 77 76  2  0
 78 77  1  0
 79 53  1  0
 79 80  1  0
 79 89  1  0
 80 83  1  0
 81 85  1  0
 81 80  1  0
 82 81  2  0
 85 84  1  0
 87 88  1  0
 87 85  1  0
 87 86  1  0
 89 92  1  1
 89 90  1  0
 91 89  1  0
M  ISO  4  11 100  19 100  51 101  52 101
M  END
>  <TORSDO>  (48) 
F 18

>  <SCORE>  (48) 
-14.216

>  <name>  (48) 
48

>  <ligand_id>  (48) 
48

>  <original_smiles>  (48) 
[H]c1nc(C([H])([H])Oc2c([H])c([H])c3c(c2[H])C([H])([H])N(C(=O)C([H])(N([H])C(=O)C([H])(N([H])C([H])([H])[H])C([H])([H])[H])C(C([H])([H])[H])(C([H])([H])[H])C([H])([H])[H])C([H])(C(=O)N([H])C2([H])c4c([H])c([H])c([H])c([H])c4C([H])([H])C([H])([H])C2([H])[H])C3([H])[H])c([H])c2c1C([H])(C([H])([H])C([H])([H])[H])C([H])(N([H])C(=O)N1C([H])([H])C([H])([H])C([H])([H])C([H])(n3nc(-c4c([H])c([H])c(Oc5c([H])c([H])c(F)c([H])c5F)c([H])c4[H])c(C(=O)N([H])[H])c3N([H])[H])C1([H])[H])C([H])([H])C2([H])[H]

>  <smiles>  (48) 
[H]c1nc(C([H])([H])Oc2c([H])c([H])c3c(c2[H])C([H])([H])N(C(=O)C([H])(N([H])C(=O)C([H])(N([H])C([H])([H])[H])C([H])([H])[H])C(C([H])([H])[H])(C([H])([H])[H])C([H])([H])[H])C([H])(C(=O)N([H])C2([H])c4c([H])c([H])c([H])c([H])c4C([H])([H])C([H])([H])C2([H])[H])C3([H])[H])c([H])c2c1C([H])(C([H])([H])C([H])([H])[H])C([H])(N([H])C(=O)N1C([H])([H])C([H])([H])C([H])([H])C([H])(n3nc(-c4c([H])c([H])c(Oc5c([H])c([H])c(F)c([H])c5F)c([H])c4[H])c(C(=O)N([H])[H])c3N([H])[H])C1([H])[H])C([H])([H])C2([H])[H]

$$$$
49:0:0
     RDKit          3D

 91100  0  0  1  0  0  0  0  0999 V2000
  -30.6940  -20.4020   20.5550 C   0  0  0  0  0  3  0  0  0  0  0  0
  -29.3850  -19.9830   20.2530 C   0  0  0  0  0  0  0  0  0  0  0  0
  -28.5020  -21.2640   20.1520 C   0  0  0  0  0  0  0  0  0  0  0  0
  -28.9000  -22.7590   20.2980 C   0  0  0  0  0  0  0  0  0  0  0  0
  -30.2980  -22.7860   20.5450 C   0  0  0  0  0  0  0  0  0  0  0  0
  -27.0320  -21.0520   19.8630 C   0  0  0  0  0  1  0  0  0  0  0  0
  -31.0480  -24.0950   20.6620 C   0  0  0  0  0  1  0  0  0  0  0  0
  -31.1060  -21.6930   20.6780 N   0  0  0  0  0  0  0  0  0  0  0  0
  -30.5400  -15.4880   20.2330 C   0  0  0  0  0  0  0  0  0  0  0  0
  -30.4650  -13.0650   19.2810 C   0  0  0  0  0  2  0  0  0  0  0  0
  -29.5490  -12.7860   18.0720 C   0  0  0  0  0  2  0  0  0  0  0  0
  -28.1150  -12.4730   18.5460 C   0  0  0  0  0  2  0  0  0  0  0  0
  -27.6430  -13.4440   19.6610 C   0  0  0  0  0  3  0  0  0  0  0  0
  -28.7080  -13.6590   20.7540 C   0  0  0  0  0  2  0  0  0  0  0  0
  -29.8810  -14.2280   20.0570 N   0  0  0  0  0  0  0  0  0  0  0  0
  -31.7700  -15.3040   20.1940 O   0  0  0  0  0  0  0  0  0  0  0  0
  -29.6770  -17.9210   17.7330 C   0  0  0  0  0  2  0  0  0  0  0  0
  -28.4800  -18.1400   18.6590 C   0  0  0  0  0  2  0  0  0  0  0  0
  -30.7790  -17.3550   18.6360 C   0  0  0  0  0  2  0  0  0  0  0  0
  -29.0980  -18.2380   20.0630 C   0  0  0  0  0  3  0  0  0  0  0  0
  -30.0900  -16.8810   19.8480 N   0  0  0  0  0  0  0  0  0  0  0  0
  -25.2780  -13.9450   20.4670 C   0  0  0  0  0  0  0  0  0  0  0  0
  -24.2340  -13.1460   20.8420 C   0  0  0  0  0  0  0  0  0  0  0  0
  -24.7260  -11.8050   20.7990 C   0  0  0  0  0  0  0  0  0  0  0  0
  -26.3330  -13.0910   20.2010 N   0  0  0  0  0  0  0  0  0  0  0  0
  -26.0150  -11.7960   20.4710 N   0  0  0  0  0  0  0  0  0  0  0  0
  -24.0250  -10.5260   20.9830 C   0  0  0  0  0  0  0  0  0  0  0  0
  -24.4570   -9.5710   21.9290 C   0  0  0  0  0  3  0  0  0  0  0  0
  -23.7520   -8.3630   22.1030 C   0  0  0  0  0  3  0  0  0  0  0  0
  -22.5950   -8.0980   21.3320 C   0  0  0  0  0  0  0  0  0  0  0  0
  -22.1810   -9.0420   20.3740 C   0  0  0  0  0  3  0  0  0  0  0  0
  -22.8900  -10.2410   20.1980 C   0  0  0  0  0  3  0  0  0  0  0  0
  -21.8550   -6.9440   21.4180 O   0  0  0  0  0  0  0  0  0  0  0  0
  -21.7710   -6.2280   22.5850 C   0  0  0  0  0  0  0  0  0  0  0  0
  -21.2430   -6.7890   23.7680 C   0  0  0  0  0  3  0  0  0  0  0  0
  -21.1080   -5.9940   24.9250 C   0  0  0  0  0  3  0  0  0  0  0  0
  -21.4980   -4.6400   24.9030 C   0  0  0  0  0  0  0  0  0  0  0  0
  -22.0170   -4.0790   23.7220 C   0  0  0  0  0  3  0  0  0  0  0  0
  -22.1500   -4.8700   22.5680 C   0  0  0  0  0  0  0  0  0  0  0  0
  -22.6320   -4.3180   21.4290 F   0  0  0  0  0  0  0  0  0  0  0  0
  -21.3620   -3.8760   26.0110 F   0  0  0  0  0  0  0  0  0  0  0  0
  -22.8270  -13.5950   21.1130 C   0  0  0  0  0  0  0  0  0  0  0  0
  -22.1080  -12.8920   21.9820 N   0  0  0  0  0  0  0  0  0  0  0  0
  -22.3720  -14.6090   20.5840 O   0  0  0  0  0  0  0  0  0  0  0  0
  -22.4800  -12.0790   22.4480 H   0  0  0  0  0  0  0  0  0  0  0  0
  -21.1620  -13.1810   22.1890 H   0  0  0  0  0  0  0  0  0  0  0  0
  -25.4210  -15.3200   20.2900 N   0  0  0  0  0  0  0  0  0  0  0  0
  -24.6630  -15.9810   20.4140 H   0  0  0  0  0  0  0  0  0  0  0  0
  -26.2760  -15.7530   19.9580 H   0  0  0  0  0  0  0  0  0  0  0  0
  -27.9430  -24.2610   20.2080 C   0  0  0  0  0  2  0  0  0  0  0  0
  -28.2400  -25.9050   20.3050 O   0  0  0  0  0  0  0  0  0  0  0  0
  -24.6780  -31.9350   23.2880 C   0  0  0  0  0  0  0  0  0  0  0  0
  -27.2340  -27.0280   20.2580 C   0  0  0  0  0  0  0  0  0  0  0  0
  -23.4840  -30.5530   21.6370 C   0  0  0  0  0  3  0  0  0  0  0  0
  -24.9350  -28.9420   20.2170 C   0  0  0  0  0  0  0  0  0  0  0  0
  -26.0550  -30.7440   21.5070 C   0  0  0  0  0  2  0  0  0  0  0  0
  -26.1240  -29.3320   20.8440 C   0  0  0  0  0  0  0  0  0  0  0  0
  -27.2650  -28.4010   20.8370 C   0  0  0  0  0  3  0  0  0  0  0  0
  -26.0080  -26.8020   19.5860 C   0  0  0  0  0  3  0  0  0  0  0  0
  -24.9060  -27.6970   19.5660 C   0  0  0  0  0  3  0  0  0  0  0  0
  -23.7210  -29.8700   20.2610 C   0  0  0  0  0  2  0  0  0  0  0  0
  -24.7610  -31.1050   22.1990 N   0  0  0  0  0  0  0  0  0  0  0  0
  -23.5870  -32.2270   23.8090 O   0  0  0  0  0  0  0  0  0  0  0  0
  -22.7780  -29.5610   22.5980 C   0  0  0  0  0  0  0  0  0  0  0  0
  -21.4490  -29.3970   22.4660 N   0  0  0  0  0  0  0  0  0  0  0  0
  -23.4360  -28.9350   23.4330 O   0  0  0  0  0  0  0  0  0  0  0  0
  -20.9700  -29.9500   21.7690 H   0  0  0  0  0  0  0  0  0  0  0  0
  -18.0620  -28.1760   22.9500 C   0  0  0  0  0  0  0  0  0  0  0  0
  -20.6200  -28.4550   23.2280 C   0  0  0  0  0  3  0  0  0  0  0  0
  -20.7310  -27.0240   22.6540 C   0  0  0  0  0  2  0  0  0  0  0  0
  -19.6370  -26.6960   21.6330 C   0  0  0  0  0  2  0  0  0  0  0  0
  -18.2510  -26.8310   22.2690 C   0  0  0  0  0  2  0  0  0  0  0  0
  -19.1750  -28.9440   23.3860 C   0  0  0  0  0  0  0  0  0  0  0  0
  -18.9420  -30.2000   23.9880 C   0  0  0  0  0  3  0  0  0  0  0  0
  -17.6330  -30.6910   24.1520 C   0  0  0  0  0  3  0  0  0  0  0  0
  -16.5360  -29.9200   23.7310 C   0  0  0  0  0  3  0  0  0  0  0  0
  -16.7510  -28.6630   23.1370 C   0  0  0  0  0  3  0  0  0  0  0  0
  -25.9490  -32.5730   23.9330 C   0  0  0  0  0  3  0  0  0  0  0  0
  -25.6400  -33.9760   24.2590 N   0  0  0  0  0  0  0  0  0  0  0  0
  -25.9450  -35.0290   23.4870 C   0  0  0  0  0  0  0  0  0  0  0  0
  -26.5760  -34.9210   22.4330 O   0  0  0  0  0  0  0  0  0  0  0  0
  -25.0750  -34.1350   25.0810 H   0  0  0  0  0  0  0  0  0  0  0  0
  -24.1900  -36.8170   23.2200 C   0  0  0  0  0  1  0  0  0  0  0  0
  -25.4790  -36.4220   23.9580 C   0  0  0  0  0  3  0  0  0  0  0  0
  -27.6490  -37.3390   24.6560 C   0  0  0  0  0  1  0  0  0  0  0  0
  -26.4950  -37.4810   23.7730 N   0  0  0  0  0  0  0  0  0  0  0  0
  -26.0900  -38.4000   23.9260 H   0  0  0  0  0  0  0  0  0  0  0  0
  -26.4360  -31.8110   25.2290 C   0  0  1  0  0  0  0  0  0  0  0  0
  -25.3240  -31.6010   26.2830 C   0  0  0  0  0  1  0  0  0  0  0  0
  -27.0120  -30.4200   24.8750 C   0  0  0  0  0  1  0  0  0  0  0  0
  -27.5840  -32.6010   25.9010 C   0  0  0  0  0  1  0  0  0  0  0  0
  1  8  1  0
  2  1  2  0
  3  2  1  0
  3  4  2  0
  4  5  1  0
  5  7  1  0
  5  8  2  0
  6  3  1  0
 10 15  1  0
 11 12  1  0
 11 10  1  0
 13 12  1  0
 13 25  1  0
 13 14  1  0
 15  9  1  0
 15 14  1  0
 16  9  2  0
 17 19  1  0
 17 18  1  0
 18 20  1  0
 19 21  1  0
 20  2  1  0
 21 20  1  0
 21  9  1  0
 22 23  2  0
 23 42  1  0
 24 23  1  0
 24 27  1  0
 25 22  1  0
 25 26  1  0
 26 24  2  0
 27 28  1  0
 28 29  2  0
 30 33  1  0
 30 29  1  0
 31 30  2  0
 32 31  1  0
 32 27  2  0
 33 34  1  0
 34 35  1  0
 35 36  2  0
 37 36  1  0
 37 41  1  0
 38 37  2  0
 39 34  2  0
 39 38  1  0
 40 39  1  0
 42 43  1  0
 43 46  1  0
 43 45  1  0
 44 42  2  0
 47 48  1  0
 47 22  1  0
 49 47  1  0
 50  4  1  0
 50 51  1  0
 52 63  2  0
 53 51  1  0
 53 58  1  0
 54 62  1  0
 54 64  1  0
 55 61  1  0
 55 57  1  0
 56 62  1  0
 57 56  1  0
 58 57  2  0
 59 53  2  0
 60 59  1  0
 60 55  2  0
 61 54  1  0
 62 52  1  0
 64 66  2  0
 65 64  1  0
 67 65  1  0
 68 77  2  0
 68 73  1  0
 69 65  1  0
 69 73  1  0
 70 69  1  0
 71 72  1  0
 71 70  1  0
 72 68  1  0
 73 74  2  0
 74 75  1  0
 76 75  2  0
 77 76  1  0
 78 52  1  0
 78 79  1  0
 78 88  1  0
 79 82  1  0
 80 84  1  0
 80 79  1  0
 81 80  2  0
 84 83  1  0
 86 87  1  0
 86 84  1  0
 86 85  1  0
 88 91  1  1
 88 89  1  0
 90 88  1  0
M  ISO  4   9 100  21 100  50 101  51 101
M  END
>  <TORSDO>  (49) 
F 17

>  <SCORE>  (49) 
-16.547

>  <name>  (49) 
49

>  <ligand_id>  (49) 
49

>  <original_smiles>  (49) 
[H]c1nc(C([H])([H])[H])c(C([H])([H])Oc2c([H])c([H])c3c(c2[H])C([H])([H])N(C(=O)C([H])(N([H])C(=O)C([H])(N([H])C([H])([H])[H])C([H])([H])[H])C(C([H])([H])[H])(C([H])([H])[H])C([H])([H])[H])C([H])(C(=O)N([H])C2([H])c4c([H])c([H])c([H])c([H])c4C([H])([H])C([H])([H])C2([H])[H])C3([H])[H])c(C([H])([H])[H])c1C1([H])N(C(=O)N2C([H])([H])C([H])([H])C([H])([H])C([H])(n3nc(-c4c([H])c([H])c(Oc5c([H])c([H])c(F)c([H])c5F)c([H])c4[H])c(C(=O)N([H])[H])c3N([H])[H])C2([H])[H])C([H])([H])C([H])([H])C1([H])[H]

>  <smiles>  (49) 
[H]c1nc(C([H])([H])[H])c(C([H])([H])Oc2c([H])c([H])c3c(c2[H])C([H])([H])N(C(=O)C([H])(N([H])C(=O)C([H])(N([H])C([H])([H])[H])C([H])([H])[H])C(C([H])([H])[H])(C([H])([H])[H])C([H])([H])[H])C([H])(C(=O)N([H])C2([H])c4c([H])c([H])c([H])c([H])c4C([H])([H])C([H])([H])C2([H])[H])C3([H])[H])c(C([H])([H])[H])c1C1([H])N(C(=O)N2C([H])([H])C([H])([H])C([H])([H])C([H])(n3nc(-c4c([H])c([H])c(Oc5c([H])c([H])c(F)c([H])c5F)c([H])c4[H])c(C(=O)N([H])[H])c3N([H])[H])C2([H])[H])C([H])([H])C([H])([H])C1([H])[H]

$$$$
50:0:0
     RDKit          3D

 89 98  0  0  1  0  0  0  0  0999 V2000
  -30.4690  -15.3500   20.3430 C   0  0  0  0  0  0  0  0  0  0  0  0
  -30.4290  -12.8670   19.5470 C   0  0  0  0  0  2  0  0  0  0  0  0
  -29.5470  -12.5990   18.3000 C   0  0  0  0  0  2  0  0  0  0  0  0
  -28.0900  -12.3280   18.7120 C   0  0  0  0  0  2  0  0  0  0  0  0
  -27.6030  -13.3340   19.7810 C   0  0  0  0  0  3  0  0  0  0  0  0
  -28.6220  -13.5470   20.9290 C   0  0  0  0  0  2  0  0  0  0  0  0
  -29.8680  -14.0480   20.3150 N   0  0  0  0  0  0  0  0  0  0  0  0
  -31.6860  -15.2920   20.1120 O   0  0  0  0  0  0  0  0  0  0  0  0
  -27.5290  -19.1860   19.0070 C   0  0  0  0  0  2  0  0  0  0  0  0
  -28.3390  -16.9770   20.5160 C   0  0  0  0  0  2  0  0  0  0  0  0
  -27.6300  -20.5540   19.8070 C   0  0  0  0  0  2  0  0  0  0  0  0
  -29.7960  -19.8320   20.6210 C   0  0  0  0  0  2  0  0  0  0  0  0
  -28.4780  -17.9690   19.3230 C   0  0  0  0  0  3  0  0  0  0  0  0
  -29.8530  -18.2550   19.8570 C   0  0  0  0  0  3  0  0  0  0  0  0
  -29.7830  -16.6880   20.4200 N   0  0  0  0  0  0  0  0  0  0  0  0
  -29.0070  -21.1160   19.9600 N   0  0  2  0  0  4  0  0  0  0  0  0
  -29.3700  -21.1620   19.0180 H   0  0  0  0  0  0  0  0  0  0  0  0
  -25.2090  -13.9160   20.4560 C   0  0  0  0  0  0  0  0  0  0  0  0
  -24.1390  -13.1530   20.8210 C   0  0  0  0  0  0  0  0  0  0  0  0
  -24.6030  -11.8030   20.8320 C   0  0  0  0  0  0  0  0  0  0  0  0
  -26.2610  -13.0360   20.2650 N   0  0  0  0  0  0  0  0  0  0  0  0
  -25.9030  -11.7590   20.5580 N   0  0  0  0  0  0  0  0  0  0  0  0
  -23.8640  -10.5500   21.0250 C   0  0  0  0  0  0  0  0  0  0  0  0
  -24.2770   -9.5850   21.9690 C   0  0  0  0  0  3  0  0  0  0  0  0
  -23.5330   -8.3990   22.1520 C   0  0  0  0  0  3  0  0  0  0  0  0
  -22.3620   -8.1720   21.3900 C   0  0  0  0  0  0  0  0  0  0  0  0
  -21.9670   -9.1250   20.4350 C   0  0  0  0  0  3  0  0  0  0  0  0
  -22.7120  -10.3020   20.2500 C   0  0  0  0  0  3  0  0  0  0  0  0
  -21.5910   -7.0380   21.4820 O   0  0  0  0  0  0  0  0  0  0  0  0
  -21.5440   -6.2920   22.6330 C   0  0  0  0  0  0  0  0  0  0  0  0
  -21.1520   -6.8540   23.8680 C   0  0  0  0  0  3  0  0  0  0  0  0
  -21.0500   -6.0360   25.0110 C   0  0  0  0  0  3  0  0  0  0  0  0
  -21.3290   -4.6590   24.9210 C   0  0  0  0  0  0  0  0  0  0  0  0
  -21.7140   -4.0980   23.6910 C   0  0  0  0  0  3  0  0  0  0  0  0
  -21.8180   -4.9130   22.5490 C   0  0  0  0  0  0  0  0  0  0  0  0
  -22.1690   -4.3640   21.3610 F   0  0  0  0  0  0  0  0  0  0  0  0
  -21.2230   -3.8720   26.0170 F   0  0  0  0  0  0  0  0  0  0  0  0
  -22.7380  -13.6450   21.0370 C   0  0  0  0  0  0  0  0  0  0  0  0
  -21.9830  -12.9810   21.9030 N   0  0  0  0  0  0  0  0  0  0  0  0
  -22.3230  -14.6580   20.4740 O   0  0  0  0  0  0  0  0  0  0  0  0
  -22.3320  -12.1630   22.3810 H   0  0  0  0  0  0  0  0  0  0  0  0
  -21.0410  -13.2950   22.0910 H   0  0  0  0  0  0  0  0  0  0  0  0
  -25.3510  -15.2790   20.2340 N   0  0  0  0  0  0  0  0  0  0  0  0
  -24.5540  -15.9050   20.2800 H   0  0  0  0  0  0  0  0  0  0  0  0
  -26.1630  -15.7040   19.8090 H   0  0  0  0  0  0  0  0  0  0  0  0
  -28.9540  -22.7510   21.9870 C   0  0  0  0  0  1  0  0  0  0  0  0
  -29.0570  -22.7330   20.4530 C   0  0  0  0  0  3  0  0  0  0  0  0
  -28.1710  -24.2170   19.8730 C   0  0  0  0  0  2  0  0  0  0  0  0
  -28.3090  -25.8540   20.1450 O   0  0  0  0  0  0  0  0  0  0  0  0
  -24.6680  -31.8040   23.0700 C   0  0  0  0  0  0  0  0  0  0  0  0
  -27.2830  -26.9430   20.0540 C   0  0  0  0  0  0  0  0  0  0  0  0
  -23.4950  -30.4050   21.4180 C   0  0  0  0  0  3  0  0  0  0  0  0
  -24.9650  -28.8120   19.9970 C   0  0  0  0  0  0  0  0  0  0  0  0
  -26.0610  -30.6320   21.2900 C   0  0  0  0  0  2  0  0  0  0  0  0
  -26.1450  -29.2230   20.6290 C   0  0  0  0  0  0  0  0  0  0  0  0
  -27.2950  -28.3100   20.6320 C   0  0  0  0  0  3  0  0  0  0  0  0
  -26.0720  -26.6890   19.3690 C   0  0  0  0  0  3  0  0  0  0  0  0
  -24.9550  -27.5670   19.3470 C   0  0  0  0  0  3  0  0  0  0  0  0
  -23.7380  -29.7250   20.0420 C   0  0  0  0  0  2  0  0  0  0  0  0
  -24.7620  -30.9740   21.9790 N   0  0  0  0  0  0  0  0  0  0  0  0
  -23.5730  -32.0840   23.5850 O   0  0  0  0  0  0  0  0  0  0  0  0
  -22.8000  -29.4030   22.3770 C   0  0  0  0  0  0  0  0  0  0  0  0
  -21.4660  -29.2590   22.2700 N   0  0  0  0  0  0  0  0  0  0  0  0
  -23.4690  -28.7550   23.1870 O   0  0  0  0  0  0  0  0  0  0  0  0
  -20.9800  -29.8310   21.5940 H   0  0  0  0  0  0  0  0  0  0  0  0
  -18.0720  -28.0990   22.8250 C   0  0  0  0  0  0  0  0  0  0  0  0
  -20.6420  -28.3170   23.0370 C   0  0  0  0  0  3  0  0  0  0  0  0
  -20.7060  -26.8980   22.4280 C   0  0  0  0  0  2  0  0  0  0  0  0
  -19.5760  -26.6190   21.4310 C   0  0  0  0  0  2  0  0  0  0  0  0
  -18.2120  -26.7660   22.1100 C   0  0  0  0  0  2  0  0  0  0  0  0
  -19.2130  -28.8350   23.2470 C   0  0  0  0  0  0  0  0  0  0  0  0
  -19.0240  -30.0810   23.8810 C   0  0  0  0  0  3  0  0  0  0  0  0
  -17.7310  -30.5940   24.0970 C   0  0  0  0  0  3  0  0  0  0  0  0
  -16.6060  -29.8550   23.6880 C   0  0  0  0  0  3  0  0  0  0  0  0
  -16.7780  -28.6100   23.0580 C   0  0  0  0  0  3  0  0  0  0  0  0
  -25.9290  -32.4540   23.7130 C   0  0  0  0  0  3  0  0  0  0  0  0
  -25.5880  -33.8400   24.0830 N   0  0  0  0  0  0  0  0  0  0  0  0
  -25.8970  -34.9260   23.3610 C   0  0  0  0  0  0  0  0  0  0  0  0
  -26.5610  -34.8670   22.3230 O   0  0  0  0  0  0  0  0  0  0  0  0
  -24.9960  -33.9560   24.8920 H   0  0  0  0  0  0  0  0  0  0  0  0
  -24.1320  -36.7030   23.0930 C   0  0  0  0  0  1  0  0  0  0  0  0
  -25.3930  -36.2930   23.8700 C   0  0  0  0  0  3  0  0  0  0  0  0
  -27.5260  -37.1960   24.6930 C   0  0  0  0  0  1  0  0  0  0  0  0
  -26.4050  -37.3690   23.7720 N   0  0  0  0  0  0  0  0  0  0  0  0
  -25.9840  -38.2760   23.9530 H   0  0  0  0  0  0  0  0  0  0  0  0
  -26.4520  -31.6700   24.9810 C   0  0  1  0  0  0  0  0  0  0  0  0
  -25.3600  -31.4040   26.0440 C   0  0  0  0  0  1  0  0  0  0  0  0
  -27.0520  -30.3030   24.5770 C   0  0  0  0  0  1  0  0  0  0  0  0
  -27.5920  -32.4670   25.6560 C   0  0  0  0  0  1  0  0  0  0  0  0
  1 15  1  0
  2  7  1  0
  3  4  1  0
  3  2  1  0
  5  4  1  0
  5 21  1  0
  5  6  1  0
  7  1  1  0
  7  6  1  0
  8  1  2  0
  9 11  1  0
 11 16  1  0
 13  9  1  0
 13 14  1  0
 13 10  1  0
 14 15  1  0
 14 12  1  0
 15 10  1  0
 16 47  1  0
 16 12  1  0
 16 17  1  6
 18 19  2  0
 19 20  1  0
 19 38  1  0
 20 23  1  0
 21 18  1  0
 21 22  1  0
 22 20  2  0
 23 24  1  0
 24 25  2  0
 26 29  1  0
 26 25  1  0
 27 26  2  0
 28 27  1  0
 28 23  2  0
 29 30  1  0
 30 31  1  0
 31 32  2  0
 33 32  1  0
 33 37  1  0
 34 33  2  0
 35 30  2  0
 35 34  1  0
 36 35  1  0
 38 39  1  0
 39 42  1  0
 39 41  1  0
 40 38  2  0
 43 44  1  0
 43 18  1  0
 45 43  1  0
 47 46  1  0
 48 49  1  0
 48 47  1  0
 50 61  2  0
 51 49  1  0
 51 56  1  0
 52 60  1  0
 52 62  1  0
 53 59  1  0
 53 55  1  0
 54 60  1  0
 55 56  2  0
 55 54  1  0
 57 51  2  0
 58 57  1  0
 58 53  2  0
 59 52  1  0
 60 50  1  0
 62 64  2  0
 63 62  1  0
 65 63  1  0
 66 75  2  0
 66 71  1  0
 67 63  1  0
 67 71  1  0
 68 67  1  0
 69 70  1  0
 69 68  1  0
 70 66  1  0
 71 72  2  0
 72 73  1  0
 74 73  2  0
 75 74  1  0
 76 50  1  0
 76 77  1  0
 76 86  1  0
 77 80  1  0
 78 82  1  0
 78 77  1  0
 79 78  2  0
 82 81  1  0
 84 82  1  0
 84 85  1  0
 84 83  1  0
 86 89  1  1
 86 87  1  0
 88 86  1  0
M  ISO  4   1 100  15 100  48 101  49 101
M  END
>  <TORSDO>  (50) 
F 17

>  <SCORE>  (50) 
-16.600

>  <name>  (50) 
50

>  <ligand_id>  (50) 
50

>  <original_smiles>  (50) 
[H]c1c([H])c([H])c2c(c1[H])C([H])([H])C([H])([H])C([H])([H])C2([H])N([H])C(=O)C1([H])N(C(=O)C([H])(N([H])C(=O)C([H])(N([H])C([H])([H])[H])C([H])([H])[H])C(C([H])([H])[H])(C([H])([H])[H])C([H])([H])[H])C([H])([H])c2c([H])c(OC([H])([H])C([H])(C([H])([H])[H])[N+]3([H])C([H])([H])C([H])([H])C4([H])C([H])([H])N(C(=O)N5C([H])([H])C([H])([H])C([H])([H])C([H])(n6nc(-c7c([H])c([H])c(Oc8c([H])c([H])c(F)c([H])c8F)c([H])c7[H])c(C(=O)N([H])[H])c6N([H])[H])C5([H])[H])C4([H])C3([H])[H])c([H])c([H])c2C1([H])[H]

>  <smiles>  (50) 
[H]c1c([H])c([H])c2c(c1[H])C([H])([H])C([H])([H])C([H])([H])C2([H])N([H])C(=O)C1([H])N(C(=O)C([H])(N([H])C(=O)C([H])(N([H])C([H])([H])[H])C([H])([H])[H])C(C([H])([H])[H])(C([H])([H])[H])C([H])([H])[H])C([H])([H])c2c([H])c(OC([H])([H])C([H])(C([H])([H])[H])[N+]3([H])C([H])([H])C([H])([H])C4([H])C([H])([H])N(C(=O)N5C([H])([H])C([H])([H])C([H])([H])C([H])(n6nc(-c7c([H])c([H])c(Oc8c([H])c([H])c(F)c([H])c8F)c([H])c7[H])c(C(=O)N([H])[H])c6N([H])[H])C5([H])[H])C4([H])C3([H])[H])c([H])c([H])c2C1([H])[H]

$$$$
51:0:0
     RDKit          3D

 90 99  0  0  1  0  0  0  0  0999 V2000
  -27.9570  -18.4240   19.3440 C   0  0  0  0  0  0  0  0  0  0  0  0
  -29.2090  -18.4880   19.9660 C   0  0  0  0  0  0  0  0  0  0  0  0
  -27.4860  -20.7360   19.3540 C   0  0  0  0  0  0  0  0  0  0  0  0
  -28.7280  -21.1010   19.9470 C   0  0  0  0  0  0  0  0  0  0  0  0
  -27.6680  -17.1040   18.7080 C   0  0  0  0  0  2  0  0  0  0  0  0
  -29.0260  -16.4160   18.5530 C   0  0  0  0  0  2  0  0  0  0  0  0
  -30.0020  -16.9380   19.6610 C   0  0  1  0  0  0  0  0  0  0  0  0
  -26.4700  -21.7540   18.8840 C   0  0  0  0  0  1  0  0  0  0  0  0
  -31.2750  -17.3340   18.8800 C   0  0  0  0  0  1  0  0  0  0  0  0
  -27.1220  -19.4560   19.0760 N   0  0  0  0  0  0  0  0  0  0  0  0
  -29.5870  -19.9070   20.2180 N   0  0  0  0  0  0  0  0  0  0  0  0
  -30.4960  -15.4240   20.4880 C   0  0  0  0  0  0  0  0  0  0  0  0
  -30.5460  -12.9240   19.8200 C   0  0  0  0  0  2  0  0  0  0  0  0
  -29.7190  -12.5780   18.5620 C   0  0  0  0  0  2  0  0  0  0  0  0
  -28.2390  -12.3340   18.9120 C   0  0  0  0  0  2  0  0  0  0  0  0
  -27.6840  -13.3400   19.9550 C   0  0  0  0  0  3  0  0  0  0  0  0
  -28.6690  -13.6320   21.1030 C   0  0  0  0  0  2  0  0  0  0  0  0
  -29.9180  -14.1190   20.4860 N   0  0  0  0  0  0  0  0  0  0  0  0
  -31.7150  -15.3250   20.7020 O   0  0  0  0  0  0  0  0  0  0  0  0
  -25.2750  -13.8770   20.5790 C   0  0  0  0  0  0  0  0  0  0  0  0
  -24.2030  -13.0980   20.8690 C   0  0  0  0  0  0  0  0  0  0  0  0
  -24.6960  -11.7600   20.9060 C   0  0  0  0  0  0  0  0  0  0  0  0
  -26.3470  -13.0180   20.4160 N   0  0  0  0  0  0  0  0  0  0  0  0
  -26.0080  -11.7360   20.6900 N   0  0  0  0  0  0  0  0  0  0  0  0
  -23.9820  -10.4980   21.0750 C   0  0  0  0  0  0  0  0  0  0  0  0
  -24.3770   -9.5590   22.0500 C   0  0  0  0  0  3  0  0  0  0  0  0
  -23.6570   -8.3580   22.2100 C   0  0  0  0  0  3  0  0  0  0  0  0
  -22.5300   -8.0940   21.3950 C   0  0  0  0  0  0  0  0  0  0  0  0
  -22.1580   -9.0230   20.4080 C   0  0  0  0  0  3  0  0  0  0  0  0
  -22.8800  -10.2160   20.2450 C   0  0  0  0  0  3  0  0  0  0  0  0
  -21.7850   -6.9420   21.4640 O   0  0  0  0  0  0  0  0  0  0  0  0
  -21.6900   -6.2170   22.6230 C   0  0  0  0  0  0  0  0  0  0  0  0
  -21.2070   -6.7870   23.8210 C   0  0  0  0  0  3  0  0  0  0  0  0
  -21.0630   -5.9870   24.9720 C   0  0  0  0  0  3  0  0  0  0  0  0
  -21.3900   -4.6180   24.9240 C   0  0  0  0  0  0  0  0  0  0  0  0
  -21.8690   -4.0500   23.7300 C   0  0  0  0  0  3  0  0  0  0  0  0
  -22.0170   -4.8480   22.5830 C   0  0  0  0  0  0  0  0  0  0  0  0
  -22.4600   -4.2910   21.4280 F   0  0  0  0  0  0  0  0  0  0  0  0
  -21.2440   -3.8470   26.0260 F   0  0  0  0  0  0  0  0  0  0  0  0
  -22.7850  -13.5640   21.0140 C   0  0  0  0  0  0  0  0  0  0  0  0
  -22.0080  -12.8920   21.8500 N   0  0  0  0  0  0  0  0  0  0  0  0
  -22.3790  -14.5680   20.4260 O   0  0  0  0  0  0  0  0  0  0  0  0
  -22.3560  -12.0870   22.3510 H   0  0  0  0  0  0  0  0  0  0  0  0
  -21.0520  -13.1860   21.9980 H   0  0  0  0  0  0  0  0  0  0  0  0
  -25.4020  -15.2460   20.4190 N   0  0  0  0  0  0  0  0  0  0  0  0
  -24.6100  -15.8750   20.4720 H   0  0  0  0  0  0  0  0  0  0  0  0
  -26.2780  -15.7180   20.2580 H   0  0  0  0  0  0  0  0  0  0  0  0
  -29.0220  -22.8160   20.2210 C   0  0  0  0  0  3  0  0  0  0  0  0
  -28.0730  -24.3380   19.9040 C   0  0  0  0  0  3  0  0  0  0  0  0
  -28.2630  -25.9600   20.1590 O   0  0  0  0  0  0  0  0  0  0  0  0
  -24.5990  -31.8880   23.1250 C   0  0  0  0  0  0  0  0  0  0  0  0
  -27.2290  -27.0380   20.1030 C   0  0  0  0  0  0  0  0  0  0  0  0
  -23.4260  -30.4770   21.4850 C   0  0  0  0  0  3  0  0  0  0  0  0
  -24.8960  -28.8800   20.0710 C   0  0  0  0  0  0  0  0  0  0  0  0
  -25.9900  -30.7130   21.3470 C   0  0  0  0  0  2  0  0  0  0  0  0
  -26.0790  -29.3040   20.6900 C   0  0  0  0  0  0  0  0  0  0  0  0
  -27.2380  -28.4030   20.6810 C   0  0  0  0  0  3  0  0  0  0  0  0
  -26.0100  -26.7620   19.4450 C   0  0  0  0  0  3  0  0  0  0  0  0
  -24.8860  -27.6290   19.4310 C   0  0  0  0  0  3  0  0  0  0  0  0
  -23.6660  -29.7870   20.1140 C   0  0  0  0  0  2  0  0  0  0  0  0
  -24.6930  -31.0550   22.0380 N   0  0  0  0  0  0  0  0  0  0  0  0
  -23.5040  -32.1700   23.6400 O   0  0  0  0  0  0  0  0  0  0  0  0
  -22.7350  -29.4800   22.4530 C   0  0  0  0  0  0  0  0  0  0  0  0
  -21.4040  -29.3180   22.3390 N   0  0  0  0  0  0  0  0  0  0  0  0
  -23.4080  -28.8490   23.2720 O   0  0  0  0  0  0  0  0  0  0  0  0
  -20.9120  -29.8810   21.6600 H   0  0  0  0  0  0  0  0  0  0  0  0
  -18.0210  -28.1240   22.8960 C   0  0  0  0  0  0  0  0  0  0  0  0
  -20.5870  -28.3770   23.1160 C   0  0  0  0  0  3  0  0  0  0  0  0
  -20.6710  -26.9490   22.5290 C   0  0  0  0  0  2  0  0  0  0  0  0
  -19.5520  -26.6410   21.5300 C   0  0  0  0  0  2  0  0  0  0  0  0
  -18.1810  -26.7840   22.1980 C   0  0  0  0  0  2  0  0  0  0  0  0
  -19.1510  -28.8780   23.3130 C   0  0  0  0  0  0  0  0  0  0  0  0
  -18.9440  -30.1310   23.9310 C   0  0  0  0  0  3  0  0  0  0  0  0
  -17.6440  -30.6310   24.1310 C   0  0  0  0  0  3  0  0  0  0  0  0
  -16.5290  -29.8750   23.7260 C   0  0  0  0  0  3  0  0  0  0  0  0
  -16.7200  -28.6230   23.1140 C   0  0  0  0  0  3  0  0  0  0  0  0
  -25.8620  -32.5450   23.7610 C   0  0  0  0  0  3  0  0  0  0  0  0
  -25.5180  -33.9330   24.1220 N   0  0  0  0  0  0  0  0  0  0  0  0
  -25.8390  -35.0160   23.4010 C   0  0  0  0  0  0  0  0  0  0  0  0
  -26.5200  -34.9540   22.3750 O   0  0  0  0  0  0  0  0  0  0  0  0
  -24.9100  -34.0540   24.9190 H   0  0  0  0  0  0  0  0  0  0  0  0
  -24.1010  -36.8110   23.0790 C   0  0  0  0  0  1  0  0  0  0  0  0
  -25.3310  -36.3860   23.8970 C   0  0  0  0  0  3  0  0  0  0  0  0
  -27.4400  -37.2670   24.7950 C   0  0  0  0  0  1  0  0  0  0  0  0
  -26.3550  -37.4520   23.8370 N   0  0  0  0  0  0  0  0  0  0  0  0
  -25.9350  -38.3640   24.0030 H   0  0  0  0  0  0  0  0  0  0  0  0
  -26.3910  -31.7700   25.0320 C   0  0  1  0  0  0  0  0  0  0  0  0
  -25.3030  -31.5080   26.0990 C   0  0  0  0  0  1  0  0  0  0  0  0
  -26.9970  -30.4030   24.6400 C   0  0  0  0  0  1  0  0  0  0  0  0
  -27.5270  -32.5780   25.7000 C   0  0  0  0  0  1  0  0  0  0  0  0
  1  2  1  0
  2 11  2  0
  3  4  2  0
  4 11  1  0
  4 48  1  0
  5  1  1  0
  6  5  1  0
  6  7  1  0
  7  9  1  6
  7  2  1  0
  7 12  1  0
  8  3  1  0
 10  1  2  0
 10  3  1  0
 12 19  2  0
 13 18  1  0
 14 15  1  0
 14 13  1  0
 16 15  1  0
 16 23  1  0
 16 17  1  0
 18 12  1  0
 18 17  1  0
 20 21  2  0
 21 22  1  0
 21 40  1  0
 22 25  1  0
 23 20  1  0
 23 24  1  0
 24 22  2  0
 25 26  1  0
 26 27  2  0
 28 31  1  0
 28 27  1  0
 29 28  2  0
 30 29  1  0
 30 25  2  0
 31 32  1  0
 32 33  1  0
 33 34  2  0
 35 34  1  0
 35 39  1  0
 36 35  2  0
 37 32  2  0
 37 36  1  0
 38 37  1  0
 40 41  1  0
 41 44  1  0
 41 43  1  0
 42 40  2  0
 45 46  1  0
 45 20  1  0
 47 45  1  0
 49 50  1  0
 49 48  2  0
 51 62  2  0
 52 50  1  0
 52 57  1  0
 53 61  1  0
 53 63  1  0
 54 60  1  0
 54 56  1  0
 55 61  1  0
 56 55  1  0
 57 56  2  0
 58 52  2  0
 59 58  1  0
 59 54  2  0
 60 53  1  0
 61 51  1  0
 63 65  2  0
 64 63  1  0
 66 64  1  0
 67 76  2  0
 67 72  1  0
 68 64  1  0
 68 72  1  0
 69 68  1  0
 70 71  1  0
 70 69  1  0
 71 67  1  0
 72 73  2  0
 73 74  1  0
 75 74  2  0
 76 75  1  0
 77 51  1  0
 77 78  1  0
 77 87  1  0
 78 81  1  0
 79 83  1  0
 79 78  1  0
 80 79  2  0
 83 82  1  0
 85 83  1  0
 85 86  1  0
 85 84  1  0
 87 90  1  1
 87 88  1  0
 89 87  1  0
M  ISO  4   7 100  12 100  49 101  50 101
M  END
>  <TORSDO>  (51) 
F 18

>  <SCORE>  (51) 
-16.351

>  <name>  (51) 
51

>  <ligand_id>  (51) 
51

>  <original_smiles>  (51) 
[H]c1c([H])c([H])c2c(c1[H])C([H])([H])C([H])([H])C([H])([H])C2([H])N([H])C(=O)C1([H])N(C(=O)C([H])(N([H])C(=O)C([H])(N([H])C([H])([H])[H])C([H])([H])[H])C(C([H])([H])[H])(C([H])([H])[H])C([H])([H])[H])C([H])([H])c2c([H])c(OC([H])([H])C([H])([H])c3nc4c(nc3C([H])([H])[H])C([H])([H])C([H])([H])C4(C(=O)N3C([H])([H])C([H])([H])C([H])([H])C([H])(n4nc(-c5c([H])c([H])c(Oc6c([H])c([H])c(F)c([H])c6F)c([H])c5[H])c(C(=O)N([H])[H])c4N([H])[H])C3([H])[H])C([H])([H])[H])c([H])c([H])c2C1([H])[H]

>  <smiles>  (51) 
[H]c1c([H])c([H])c2c(c1[H])C([H])([H])C([H])([H])C([H])([H])C2([H])N([H])C(=O)C1([H])N(C(=O)C([H])(N([H])C(=O)C([H])(N([H])C([H])([H])[H])C([H])([H])[H])C(C([H])([H])[H])(C([H])([H])[H])C([H])([H])[H])C([H])([H])c2c([H])c(OC([H])([H])C([H])([H])c3nc4c(nc3C([H])([H])[H])C([H])([H])C([H])([H])C4(C(=O)N3C([H])([H])C([H])([H])C([H])([H])C([H])(n4nc(-c5c([H])c([H])c(Oc6c([H])c([H])c(F)c([H])c6F)c([H])c5[H])c(C(=O)N([H])[H])c4N([H])[H])C3([H])[H])C([H])([H])[H])c([H])c([H])c2C1([H])[H]

$$$$
52:0:0
     RDKit          3D

 92101  0  0  1  0  0  0  0  0999 V2000
  -30.3220  -21.4750   21.4230 C   0  0  0  0  0  2  0  0  0  0  0  0
  -30.2030  -23.0310   21.1070 C   0  0  0  0  0  2  0  0  0  0  0  0
  -28.3990  -21.9100   20.1100 C   0  0  0  0  0  2  0  0  0  0  0  0
  -29.5300  -20.7330   20.3270 C   0  0  0  0  0  3  0  0  0  0  0  0
  -28.7300  -23.3890   20.7270 C   0  0  1  0  0  0  0  0  0  0  0  0
  -27.9170  -23.5650   22.0240 C   0  0  0  0  0  1  0  0  0  0  0  0
  -30.0750  -17.9560   20.9150 C   0  0  0  0  0  3  0  0  0  0  0  0
  -29.2650  -19.0760   20.3350 C   0  0  0  0  0  0  0  0  0  0  0  0
  -28.2010  -18.5800   19.5180 C   0  0  0  0  0  0  0  0  0  0  0  0
  -29.7630  -16.4990   20.7570 C   0  0  0  0  0  0  0  0  0  0  0  0
  -27.9320  -17.1930   19.4370 C   0  0  0  0  0  0  0  0  0  0  0  0
  -27.3780  -19.5070   18.6240 C   0  0  0  0  0  1  0  0  0  0  0  0
  -26.7900  -16.6320   18.6030 C   0  0  0  0  0  1  0  0  0  0  0  0
  -28.6660  -16.2410   20.0280 N   0  0  0  0  0  0  0  0  0  0  0  0
  -30.6230  -15.1480   21.0590 C   0  0  0  0  0  0  0  0  0  0  0  0
  -30.6770  -12.7520   20.2170 C   0  0  0  0  0  2  0  0  0  0  0  0
  -29.8520  -12.6250   18.9130 C   0  0  0  0  0  2  0  0  0  0  0  0
  -28.3740  -12.3240   19.2280 C   0  0  0  0  0  2  0  0  0  0  0  0
  -27.8160  -13.2580   20.3260 C   0  0  0  0  0  3  0  0  0  0  0  0
  -28.7720  -13.4110   21.5300 C   0  0  0  0  0  2  0  0  0  0  0  0
  -30.0820  -13.8530   21.0270 N   0  0  0  0  0  0  0  0  0  0  0  0
  -31.8590  -15.2170   21.0360 O   0  0  0  0  0  0  0  0  0  0  0  0
  -25.3860  -13.8060   20.8950 C   0  0  0  0  0  0  0  0  0  0  0  0
  -24.3070  -13.0090   21.1580 C   0  0  0  0  0  0  0  0  0  0  0  0
  -24.7990  -11.6680   21.1500 C   0  0  0  0  0  0  0  0  0  0  0  0
  -26.4560  -12.9420   20.7240 N   0  0  0  0  0  0  0  0  0  0  0  0
  -26.1100  -11.6520   20.9490 N   0  0  0  0  0  0  0  0  0  0  0  0
  -24.0900  -10.3910   21.2630 C   0  0  0  0  0  0  0  0  0  0  0  0
  -24.4550   -9.4290   22.2290 C   0  0  0  0  0  3  0  0  0  0  0  0
  -23.7470   -8.2130   22.3290 C   0  0  0  0  0  3  0  0  0  0  0  0
  -22.6610   -7.9520   21.4600 C   0  0  0  0  0  0  0  0  0  0  0  0
  -22.3160   -8.9040   20.4850 C   0  0  0  0  0  3  0  0  0  0  0  0
  -23.0250  -10.1120   20.3830 C   0  0  0  0  0  3  0  0  0  0  0  0
  -21.9310   -6.7880   21.4690 O   0  0  0  0  0  0  0  0  0  0  0  0
  -21.7710   -6.0490   22.6130 C   0  0  0  0  0  0  0  0  0  0  0  0
  -21.1670   -6.5860   23.7700 C   0  0  0  0  0  3  0  0  0  0  0  0
  -20.9600   -5.7700   24.9000 C   0  0  0  0  0  3  0  0  0  0  0  0
  -21.3480   -4.4170   24.8720 C   0  0  0  0  0  0  0  0  0  0  0  0
  -21.9460   -3.8790   23.7190 C   0  0  0  0  0  3  0  0  0  0  0  0
  -22.1550   -4.6930   22.5920 C   0  0  0  0  0  0  0  0  0  0  0  0
  -22.7130   -4.1650   21.4760 F   0  0  0  0  0  0  0  0  0  0  0  0
  -21.1430   -3.6310   25.9550 F   0  0  0  0  0  0  0  0  0  0  0  0
  -22.8830  -13.4560   21.3130 C   0  0  0  0  0  0  0  0  0  0  0  0
  -22.1010  -12.7400   22.1120 N   0  0  0  0  0  0  0  0  0  0  0  0
  -22.4670  -14.4750   20.7610 O   0  0  0  0  0  0  0  0  0  0  0  0
  -22.4490  -11.9160   22.5810 H   0  0  0  0  0  0  0  0  0  0  0  0
  -21.1420  -13.0200   22.2600 H   0  0  0  0  0  0  0  0  0  0  0  0
  -25.5470  -15.1810   20.7630 N   0  0  0  0  0  0  0  0  0  0  0  0
  -24.7830  -15.8390   20.8590 H   0  0  0  0  0  0  0  0  0  0  0  0
  -26.4430  -15.6210   20.5760 H   0  0  0  0  0  0  0  0  0  0  0  0
  -28.3990  -24.7780   19.8170 C   0  0  0  0  0  2  0  0  0  0  0  0
  -28.3900  -26.2860   20.2140 O   0  0  0  0  0  0  0  0  0  0  0  0
  -24.6130  -31.8900   23.1100 C   0  0  0  0  0  0  0  0  0  0  0  0
  -27.2880  -27.2150   20.0970 C   0  0  0  0  0  0  0  0  0  0  0  0
  -23.4410  -30.4690   21.4720 C   0  0  0  0  0  3  0  0  0  0  0  0
  -24.9190  -28.9160   20.0550 C   0  0  0  0  0  0  0  0  0  0  0  0
  -25.9890  -30.7770   21.3140 C   0  0  0  0  0  2  0  0  0  0  0  0
  -26.0870  -29.3850   20.6680 C   0  0  0  0  0  0  0  0  0  0  0  0
  -27.2650  -28.5480   20.6770 C   0  0  0  0  0  3  0  0  0  0  0  0
  -26.0890  -26.8490   19.4410 C   0  0  0  0  0  3  0  0  0  0  0  0
  -24.9340  -27.6610   19.4280 C   0  0  0  0  0  3  0  0  0  0  0  0
  -23.6760  -29.7900   20.0960 C   0  0  0  0  0  2  0  0  0  0  0  0
  -24.7000  -31.0680   22.0200 N   0  0  0  0  0  0  0  0  0  0  0  0
  -23.5220  -32.1600   23.6350 O   0  0  0  0  0  0  0  0  0  0  0  0
  -22.7760  -29.4550   22.4360 C   0  0  0  0  0  0  0  0  0  0  0  0
  -21.4520  -29.2590   22.3040 N   0  0  0  0  0  0  0  0  0  0  0  0
  -23.4540  -28.8470   23.2680 O   0  0  0  0  0  0  0  0  0  0  0  0
  -20.9600  -29.8030   21.6080 H   0  0  0  0  0  0  0  0  0  0  0  0
  -18.0910  -27.9930   22.7860 C   0  0  0  0  0  0  0  0  0  0  0  0
  -20.6430  -28.3130   23.0750 C   0  0  0  0  0  3  0  0  0  0  0  0
  -20.7790  -26.8770   22.5170 C   0  0  0  0  0  2  0  0  0  0  0  0
  -19.6940  -26.5210   21.4940 C   0  0  0  0  0  2  0  0  0  0  0  0
  -18.3030  -26.6430   22.1230 C   0  0  0  0  0  2  0  0  0  0  0  0
  -19.1900  -28.7840   23.2180 C   0  0  0  0  0  0  0  0  0  0  0  0
  -18.9370  -30.0460   23.8000 C   0  0  0  0  0  3  0  0  0  0  0  0
  -17.6210  -30.5190   23.9520 C   0  0  0  0  0  3  0  0  0  0  0  0
  -16.5370  -29.7260   23.5340 C   0  0  0  0  0  3  0  0  0  0  0  0
  -16.7730  -28.4650   22.9570 C   0  0  0  0  0  3  0  0  0  0  0  0
  -25.8800  -32.5480   23.7380 C   0  0  0  0  0  3  0  0  0  0  0  0
  -25.5360  -33.9340   24.0910 N   0  0  0  0  0  0  0  0  0  0  0  0
  -25.8580  -35.0120   23.3610 C   0  0  0  0  0  0  0  0  0  0  0  0
  -26.5410  -34.9420   22.3350 O   0  0  0  0  0  0  0  0  0  0  0  0
  -24.9300  -34.0600   24.8890 H   0  0  0  0  0  0  0  0  0  0  0  0
  -24.1090  -36.7900   23.0220 C   0  0  0  0  0  1  0  0  0  0  0  0
  -25.3420  -36.3810   23.8440 C   0  0  0  0  0  3  0  0  0  0  0  0
  -27.4460  -37.2800   24.7370 C   0  0  0  0  0  1  0  0  0  0  0  0
  -26.3600  -37.4530   23.7760 N   0  0  0  0  0  0  0  0  0  0  0  0
  -25.9360  -38.3630   23.9380 H   0  0  0  0  0  0  0  0  0  0  0  0
  -26.4160  -31.7760   25.0070 C   0  0  1  0  0  0  0  0  0  0  0  0
  -25.3310  -31.5040   26.0750 C   0  0  0  0  0  1  0  0  0  0  0  0
  -27.0270  -30.4140   24.6040 C   0  0  0  0  0  1  0  0  0  0  0  0
  -27.5520  -32.5870   25.6730 C   0  0  0  0  0  1  0  0  0  0  0  0
  2  1  1  0
  3  4  1  0
  3  5  1  0
  4  8  1  0
  4  1  1  0
  5  2  1  0
  5  6  1  1
  8  7  2  0
  9  8  1  0
 10  7  1  0
 10 15  1  0
 11  9  2  0
 11 14  1  0
 12  9  1  0
 13 11  1  0
 14 10  2  0
 16 21  1  0
 17 18  1  0
 17 16  1  0
 19 18  1  0
 19 26  1  0
 19 20  1  0
 21 15  1  0
 21 20  1  0
 22 15  2  0
 23 24  2  0
 24 43  1  0
 25 24  1  0
 25 28  1  0
 26 23  1  0
 26 27  1  0
 27 25  2  0
 28 29  1  0
 29 30  2  0
 31 34  1  0
 31 30  1  0
 32 31  2  0
 33 32  1  0
 33 28  2  0
 34 35  1  0
 35 36  1  0
 36 37  2  0
 38 37  1  0
 38 42  1  0
 39 38  2  0
 40 35  2  0
 40 39  1  0
 41 40  1  0
 43 44  1  0
 44 47  1  0
 44 46  1  0
 45 43  2  0
 48 49  1  0
 48 23  1  0
 50 48  1  0
 51 52  1  0
 51  5  1  0
 53 64  2  0
 54 52  1  0
 54 59  1  0
 55 63  1  0
 55 65  1  0
 56 62  1  0
 56 58  1  0
 57 63  1  0
 58 59  2  0
 58 57  1  0
 60 54  2  0
 61 60  1  0
 61 56  2  0
 62 55  1  0
 63 53  1  0
 65 67  2  0
 66 65  1  0
 68 66  1  0
 69 78  2  0
 69 74  1  0
 70 66  1  0
 70 74  1  0
 71 70  1  0
 72 73  1  0
 72 71  1  0
 73 69  1  0
 74 75  2  0
 75 76  1  0
 77 76  2  0
 78 77  1  0
 79 53  1  0
 79 80  1  0
 79 89  1  0
 80 83  1  0
 81 85  1  0
 81 80  1  0
 82 81  2  0
 85 84  1  0
 87 85  1  0
 87 88  1  0
 87 86  1  0
 89 92  1  1
 89 90  1  0
 91 89  1  0
M  ISO  4  10 100  15 100  51 101  52 101
M  END
>  <TORSDO>  (52) 
F 18

>  <SCORE>  (52) 
-14.128

>  <name>  (52) 
52

>  <ligand_id>  (52) 
52

>  <original_smiles>  (52) 
[H]c1c([H])c([H])c2c(c1[H])C([H])([H])C([H])([H])C([H])([H])C2([H])N([H])C(=O)C1([H])N(C(=O)C([H])(N([H])C(=O)C([H])(N([H])C([H])([H])[H])C([H])([H])[H])C(C([H])([H])[H])(C([H])([H])[H])C([H])([H])[H])C([H])([H])c2c([H])c(OC([H])([H])C3(C([H])([H])[H])C([H])([H])C([H])([H])C([H])(c4c([H])c(C(=O)N5C([H])([H])C([H])([H])C([H])([H])C([H])(n6nc(-c7c([H])c([H])c(Oc8c([H])c([H])c(F)c([H])c8F)c([H])c7[H])c(C(=O)N([H])[H])c6N([H])[H])C5([H])[H])nc(C([H])([H])[H])c4C([H])([H])[H])C3([H])[H])c([H])c([H])c2C1([H])[H]

>  <smiles>  (52) 
[H]c1c([H])c([H])c2c(c1[H])C([H])([H])C([H])([H])C([H])([H])C2([H])N([H])C(=O)C1([H])N(C(=O)C([H])(N([H])C(=O)C([H])(N([H])C([H])([H])[H])C([H])([H])[H])C(C([H])([H])[H])(C([H])([H])[H])C([H])([H])[H])C([H])([H])c2c([H])c(OC([H])([H])C3(C([H])([H])[H])C([H])([H])C([H])([H])C([H])(c4c([H])c(C(=O)N5C([H])([H])C([H])([H])C([H])([H])C([H])(n6nc(-c7c([H])c([H])c(Oc8c([H])c([H])c(F)c([H])c8F)c([H])c7[H])c(C(=O)N([H])[H])c6N([H])[H])C5([H])[H])nc(C([H])([H])[H])c4C([H])([H])[H])C3([H])[H])c([H])c([H])c2C1([H])[H]

$$$$
53:0:0
     RDKit          3D

 91100  0  0  1  0  0  0  0  0999 V2000
  -30.3760  -15.3840   20.3710 C   0  0  0  0  0  0  0  0  0  0  0  0
  -30.3780  -12.9230   19.4850 C   0  0  0  0  0  2  0  0  0  0  0  0
  -29.4750  -12.6800   18.2480 C   0  0  0  0  0  2  0  0  0  0  0  0
  -28.0260  -12.3930   18.6790 C   0  0  0  0  0  2  0  0  0  0  0  0
  -27.5520  -13.3660   19.7860 C   0  0  0  0  0  3  0  0  0  0  0  0
  -28.5850  -13.5420   20.9180 C   0  0  0  0  0  2  0  0  0  0  0  0
  -29.8080  -14.0710   20.2870 N   0  0  0  0  0  0  0  0  0  0  0  0
  -31.6080  -15.3440   20.2070 O   0  0  0  0  0  0  0  0  0  0  0  0
  -28.9790  -19.5460   20.2560 C   0  0  0  0  0  3  0  0  0  0  0  0
  -29.3470  -21.0430   20.4520 C   0  0  0  0  0  0  0  0  0  0  0  0
  -30.6800  -21.0890   20.8750 C   0  0  0  0  0  0  0  0  0  0  0  0
  -31.4670  -19.9370   21.1600 C   0  0  0  0  0  0  0  0  0  0  0  0
  -29.8520  -18.2840   20.5340 C   0  0  0  0  0  0  0  0  0  0  0  0
  -31.2330  -22.4910   20.7650 C   0  0  0  0  0  2  0  0  0  0  0  0
  -30.3390  -23.1850   19.7200 C   0  0  0  0  0  2  0  0  0  0  0  0
  -28.8890  -22.6850   19.9390 C   0  0  1  0  0  0  0  0  0  0  0  0
  -32.9130  -20.0900   21.5960 C   0  0  0  0  0  1  0  0  0  0  0  0
  -28.1400  -22.5140   18.6090 C   0  0  0  0  0  1  0  0  0  0  0  0
  -31.0650  -18.6440   21.0160 N   0  0  0  0  0  0  0  0  0  0  0  0
  -29.6060  -16.6750   20.3890 N   0  0  0  0  0  0  0  0  0  0  0  0
  -28.6220  -16.4700   20.3150 H   0  0  0  0  0  0  0  0  0  0  0  0
  -25.1760  -13.9230   20.5110 C   0  0  0  0  0  0  0  0  0  0  0  0
  -24.1110  -13.1490   20.8720 C   0  0  0  0  0  0  0  0  0  0  0  0
  -24.5800  -11.7980   20.8540 C   0  0  0  0  0  0  0  0  0  0  0  0
  -26.2220  -13.0490   20.2840 N   0  0  0  0  0  0  0  0  0  0  0  0
  -25.8760  -11.7640   20.5590 N   0  0  0  0  0  0  0  0  0  0  0  0
  -23.8500  -10.5370   21.0370 C   0  0  0  0  0  0  0  0  0  0  0  0
  -24.2670   -9.5720   21.9790 C   0  0  0  0  0  3  0  0  0  0  0  0
  -23.5360   -8.3780   22.1530 C   0  0  0  0  0  3  0  0  0  0  0  0
  -22.3740   -8.1380   21.3830 C   0  0  0  0  0  0  0  0  0  0  0  0
  -21.9760   -9.0910   20.4290 C   0  0  0  0  0  3  0  0  0  0  0  0
  -22.7070  -10.2770   20.2540 C   0  0  0  0  0  3  0  0  0  0  0  0
  -21.6140   -6.9970   21.4660 O   0  0  0  0  0  0  0  0  0  0  0  0
  -21.5440   -6.2610   22.6230 C   0  0  0  0  0  0  0  0  0  0  0  0
  -21.0960   -6.8260   23.8370 C   0  0  0  0  0  3  0  0  0  0  0  0
  -20.9730   -6.0180   24.9850 C   0  0  0  0  0  3  0  0  0  0  0  0
  -21.2850   -4.6460   24.9190 C   0  0  0  0  0  0  0  0  0  0  0  0
  -21.7240   -4.0820   23.7090 C   0  0  0  0  0  3  0  0  0  0  0  0
  -21.8500   -4.8870   22.5630 C   0  0  0  0  0  0  0  0  0  0  0  0
  -22.2530   -4.3330   21.3940 F   0  0  0  0  0  0  0  0  0  0  0  0
  -21.1580   -3.8680   26.0190 F   0  0  0  0  0  0  0  0  0  0  0  0
  -22.7100  -13.6260   21.1150 C   0  0  0  0  0  0  0  0  0  0  0  0
  -21.9670  -12.9380   21.9760 N   0  0  0  0  0  0  0  0  0  0  0  0
  -22.2820  -14.6450   20.5760 O   0  0  0  0  0  0  0  0  0  0  0  0
  -22.3270  -12.1140   22.4340 H   0  0  0  0  0  0  0  0  0  0  0  0
  -21.0260  -13.2400   22.1800 H   0  0  0  0  0  0  0  0  0  0  0  0
  -25.3370  -15.2940   20.3240 N   0  0  0  0  0  0  0  0  0  0  0  0
  -24.5570  -15.9390   20.4050 H   0  0  0  0  0  0  0  0  0  0  0  0
  -26.1660  -15.7260   19.9370 H   0  0  0  0  0  0  0  0  0  0  0  0
  -28.1730  -24.2070   20.6600 C   0  0  0  0  0  2  0  0  0  0  0  0
  -28.2880  -25.8510   20.3400 O   0  0  0  0  0  0  0  0  0  0  0  0
  -24.6340  -31.8710   23.2300 C   0  0  0  0  0  0  0  0  0  0  0  0
  -27.2490  -26.9370   20.3250 C   0  0  0  0  0  0  0  0  0  0  0  0
  -23.4680  -30.4420   21.6010 C   0  0  0  0  0  3  0  0  0  0  0  0
  -24.9410  -28.8200   20.2210 C   0  0  0  0  0  0  0  0  0  0  0  0
  -26.0360  -30.6640   21.4760 C   0  0  0  0  0  2  0  0  0  0  0  0
  -26.1230  -29.2400   20.8460 C   0  0  0  0  0  0  0  0  0  0  0  0
  -27.2720  -28.3230   20.8630 C   0  0  0  0  0  3  0  0  0  0  0  0
  -26.0340  -26.6720   19.6550 C   0  0  0  0  0  3  0  0  0  0  0  0
  -24.9240  -27.5580   19.6040 C   0  0  0  0  0  3  0  0  0  0  0  0
  -23.7180  -29.7380   20.2390 C   0  0  0  0  0  2  0  0  0  0  0  0
  -24.7340  -31.0220   22.1550 N   0  0  0  0  0  0  0  0  0  0  0  0
  -23.5380  -32.1580   23.7360 O   0  0  0  0  0  0  0  0  0  0  0  0
  -22.7700  -29.4580   22.5750 C   0  0  0  0  0  0  0  0  0  0  0  0
  -21.4400  -29.2870   22.4450 N   0  0  0  0  0  0  0  0  0  0  0  0
  -23.4330  -28.8450   23.4160 O   0  0  0  0  0  0  0  0  0  0  0  0
  -20.9590  -29.8310   21.7420 H   0  0  0  0  0  0  0  0  0  0  0  0
  -18.0600  -28.0710   22.9540 C   0  0  0  0  0  0  0  0  0  0  0  0
  -20.6170  -28.3550   23.2230 C   0  0  0  0  0  3  0  0  0  0  0  0
  -20.7280  -26.9160   22.6630 C   0  0  0  0  0  2  0  0  0  0  0  0
  -19.6310  -26.5790   21.6480 C   0  0  0  0  0  2  0  0  0  0  0  0
  -18.2470  -26.7190   22.2880 C   0  0  0  0  0  2  0  0  0  0  0  0
  -19.1720  -28.8460   23.3800 C   0  0  0  0  0  0  0  0  0  0  0  0
  -18.9410  -30.1100   23.9660 C   0  0  0  0  0  3  0  0  0  0  0  0
  -17.6310  -30.5970   24.1310 C   0  0  0  0  0  3  0  0  0  0  0  0
  -16.5330  -29.8210   23.7200 C   0  0  0  0  0  3  0  0  0  0  0  0
  -16.7490  -28.5590   23.1360 C   0  0  0  0  0  3  0  0  0  0  0  0
  -25.8920  -32.5360   23.8670 C   0  0  0  0  0  3  0  0  0  0  0  0
  -25.5570  -33.9360   24.1810 N   0  0  0  0  0  0  0  0  0  0  0  0
  -25.8880  -34.9940   23.4280 C   0  0  0  0  0  0  0  0  0  0  0  0
  -26.5700  -34.8940   22.4040 O   0  0  0  0  0  0  0  0  0  0  0  0
  -24.9520  -34.0840   24.9750 H   0  0  0  0  0  0  0  0  0  0  0  0
  -24.1510  -36.7820   23.0590 C   0  0  0  0  0  1  0  0  0  0  0  0
  -25.3900  -36.3830   23.8790 C   0  0  0  0  0  3  0  0  0  0  0  0
  -27.5100  -37.2900   24.7250 C   0  0  0  0  0  1  0  0  0  0  0  0
  -26.4160  -37.4440   23.7710 N   0  0  0  0  0  0  0  0  0  0  0  0
  -26.0010  -38.3620   23.9090 H   0  0  0  0  0  0  0  0  0  0  0  0
  -26.3890  -31.7940   25.1700 C   0  0  1  0  0  0  0  0  0  0  0  0
  -25.2800  -31.5720   26.2250 C   0  0  0  0  0  1  0  0  0  0  0  0
  -26.9880  -30.4120   24.8250 C   0  0  0  0  0  1  0  0  0  0  0  0
  -27.5240  -32.6100   25.8350 C   0  0  0  0  0  1  0  0  0  0  0  0
  1 20  1  0
  2  7  1  0
  3  4  1  0
  3  2  1  0
  5  4  1  0
  5 25  1  0
  5  6  1  0
  7  1  1  0
  7  6  1  0
  8  1  2  0
  9 10  2  0
  9 13  1  0
 10 11  1  0
 11 12  2  0
 12 17  1  0
 13 19  2  0
 14 11  1  0
 15 16  1  0
 15 14  1  0
 16 18  1  6
 16 10  1  0
 16 50  1  0
 19 12  1  0
 20 13  1  0
 21 20  1  0
 22 23  2  0
 23 42  1  0
 24 23  1  0
 24 27  1  0
 25 22  1  0
 25 26  1  0
 26 24  2  0
 27 28  1  0
 28 29  2  0
 30 33  1  0
 30 29  1  0
 31 30  2  0
 32 31  1  0
 32 27  2  0
 33 34  1  0
 34 35  1  0
 35 36  2  0
 37 36  1  0
 37 41  1  0
 38 37  2  0
 39 34  2  0
 39 38  1  0
 40 39  1  0
 42 43  1  0
 43 46  1  0
 43 45  1  0
 44 42  2  0
 47 48  1  0
 47 22  1  0
 49 47  1  0
 51 50  1  0
 52 63  2  0
 53 51  1  0
 53 58  1  0
 54 62  1  0
 54 64  1  0
 55 61  1  0
 55 57  1  0
 56 62  1  0
 57 58  2  0
 57 56  1  0
 59 53  2  0
 60 59  1  0
 60 55  2  0
 61 54  1  0
 62 52  1  0
 64 66  2  0
 65 64  1  0
 67 65  1  0
 68 77  2  0
 68 73  1  0
 69 65  1  0
 69 73  1  0
 70 69  1  0
 71 72  1  0
 71 70  1  0
 72 68  1  0
 73 74  2  0
 74 75  1  0
 76 75  2  0
 77 76  1  0
 78 52  1  0
 78 79  1  0
 78 88  1  0
 79 82  1  0
 80 84  1  0
 80 79  1  0
 81 80  2  0
 84 83  1  0
 86 84  1  0
 86 87  1  0
 86 85  1  0
 88 91  1  1
 88 89  1  0
 90 88  1  0
M  ISO  4   1 100  20 100  50 101  51 101
M  END
>  <TORSDO>  (53) 
F 16

>  <SCORE>  (53) 
-17.000

>  <name>  (53) 
53

>  <ligand_id>  (53) 
53

>  <original_smiles>  (53) 
[H]c1c([H])c([H])c2c(c1[H])C([H])([H])C([H])([H])C([H])([H])C2([H])N([H])C(=O)C1([H])N(C(=O)C([H])(N([H])C(=O)C([H])(N([H])C([H])([H])[H])C([H])([H])[H])C(C([H])([H])[H])(C([H])([H])[H])C([H])([H])[H])C([H])([H])c2c([H])c(OC([H])([H])C3(C([H])([H])[H])c4c([H])c(N([H])C(=O)N5C([H])([H])C([H])([H])C([H])([H])C([H])(n6nc(-c7c([H])c([H])c(Oc8c([H])c([H])c(F)c([H])c8F)c([H])c7[H])c(C(=O)N([H])[H])c6N([H])[H])C5([H])[H])nc(C([H])([H])[H])c4C([H])([H])C3([H])[H])c([H])c([H])c2C1([H])[H]

>  <smiles>  (53) 
[H]c1c([H])c([H])c2c(c1[H])C([H])([H])C([H])([H])C([H])([H])C2([H])N([H])C(=O)C1([H])N(C(=O)C([H])(N([H])C(=O)C([H])(N([H])C([H])([H])[H])C([H])([H])[H])C(C([H])([H])[H])(C([H])([H])[H])C([H])([H])[H])C([H])([H])c2c([H])c(OC([H])([H])C3(C([H])([H])[H])c4c([H])c(N([H])C(=O)N5C([H])([H])C([H])([H])C([H])([H])C([H])(n6nc(-c7c([H])c([H])c(Oc8c([H])c([H])c(F)c([H])c8F)c([H])c7[H])c(C(=O)N([H])[H])c6N([H])[H])C5([H])[H])nc(C([H])([H])[H])c4C([H])([H])C3([H])[H])c([H])c([H])c2C1([H])[H]

$$$$
54:0:0
     RDKit          3D

 91100  0  0  1  0  0  0  0  0999 V2000
  -28.6680  -22.1720   20.7350 C   0  0  0  0  0  3  0  0  0  0  0  0
  -29.2950  -21.0250   20.0900 C   0  0  0  0  0  0  0  0  0  0  0  0
  -28.7320  -23.5190   20.1630 C   0  0  0  0  0  0  0  0  0  0  0  0
  -29.9440  -22.5470   18.4500 C   0  0  0  0  0  0  0  0  0  0  0  0
  -30.6510  -22.7720   17.1270 C   0  0  0  0  0  1  0  0  0  0  0  0
  -29.9170  -21.2920   18.9200 N   0  0  0  0  0  0  0  0  0  0  0  0
  -29.4010  -23.6360   18.9990 N   0  0  0  0  0  0  0  0  0  0  0  0
  -30.6460  -14.9230   20.3530 C   0  0  0  0  0  0  0  0  0  0  0  0
  -30.3970  -12.6120   19.3750 C   0  0  0  0  0  2  0  0  0  0  0  0
  -29.4730  -12.5840   18.1420 C   0  0  0  0  0  2  0  0  0  0  0  0
  -28.0130  -12.3690   18.5750 C   0  0  0  0  0  2  0  0  0  0  0  0
  -27.6050  -13.2900   19.7550 C   0  0  0  0  0  3  0  0  0  0  0  0
  -28.6640  -13.3550   20.8780 C   0  0  0  0  0  2  0  0  0  0  0  0
  -29.9390  -13.7290   20.2520 N   0  0  0  0  0  0  0  0  0  0  0  0
  -31.8580  -14.8600   20.1240 O   0  0  0  0  0  0  0  0  0  0  0  0
  -28.6610  -18.3410   19.7330 C   0  0  0  0  0  2  0  0  0  0  0  0
  -30.7750  -18.8150   20.7550 C   0  0  0  0  0  2  0  0  0  0  0  0
  -28.7620  -16.7890   20.1820 C   0  0  0  0  0  2  0  0  0  0  0  0
  -30.8590  -17.3070   21.2900 C   0  0  0  0  0  2  0  0  0  0  0  0
  -29.3570  -19.4640   20.5960 C   0  0  0  0  0  3  0  0  0  0  0  0
  -30.0800  -16.2060   20.6110 N   0  0  0  0  0  0  0  0  0  0  0  0
  -25.2260  -13.8630   20.4900 C   0  0  0  0  0  0  0  0  0  0  0  0
  -24.1630  -13.0840   20.8550 C   0  0  0  0  0  0  0  0  0  0  0  0
  -24.6370  -11.7360   20.8330 C   0  0  0  0  0  0  0  0  0  0  0  0
  -26.2730  -12.9880   20.2570 N   0  0  0  0  0  0  0  0  0  0  0  0
  -25.9300  -11.7040   20.5350 N   0  0  0  0  0  0  0  0  0  0  0  0
  -23.9190  -10.4710   21.0200 C   0  0  0  0  0  0  0  0  0  0  0  0
  -24.3440   -9.5110   21.9660 C   0  0  0  0  0  3  0  0  0  0  0  0
  -23.6200   -8.3120   22.1420 C   0  0  0  0  0  3  0  0  0  0  0  0
  -22.4610   -8.0630   21.3710 C   0  0  0  0  0  0  0  0  0  0  0  0
  -22.0550   -9.0110   20.4160 C   0  0  0  0  0  3  0  0  0  0  0  0
  -22.7770  -10.2030   20.2370 C   0  0  0  0  0  3  0  0  0  0  0  0
  -21.7100   -6.9150   21.4580 O   0  0  0  0  0  0  0  0  0  0  0  0
  -21.6460   -6.1840   22.6170 C   0  0  0  0  0  0  0  0  0  0  0  0
  -21.1850   -6.7460   23.8280 C   0  0  0  0  0  3  0  0  0  0  0  0
  -21.0680   -5.9410   24.9790 C   0  0  0  0  0  3  0  0  0  0  0  0
  -21.4000   -4.5750   24.9200 C   0  0  0  0  0  0  0  0  0  0  0  0
  -21.8530   -4.0120   23.7130 C   0  0  0  0  0  3  0  0  0  0  0  0
  -21.9720   -4.8140   22.5650 C   0  0  0  0  0  0  0  0  0  0  0  0
  -22.3880   -4.2620   21.4000 F   0  0  0  0  0  0  0  0  0  0  0  0
  -21.2790   -3.7980   26.0220 F   0  0  0  0  0  0  0  0  0  0  0  0
  -22.7610  -13.5550   21.1080 C   0  0  0  0  0  0  0  0  0  0  0  0
  -22.0270  -12.8590   21.9680 N   0  0  0  0  0  0  0  0  0  0  0  0
  -22.3250  -14.5780   20.5800 O   0  0  0  0  0  0  0  0  0  0  0  0
  -22.3910  -12.0320   22.4180 H   0  0  0  0  0  0  0  0  0  0  0  0
  -21.0840  -13.1560   22.1780 H   0  0  0  0  0  0  0  0  0  0  0  0
  -25.3810  -15.2340   20.3080 N   0  0  0  0  0  0  0  0  0  0  0  0
  -24.6120  -15.8860   20.4220 H   0  0  0  0  0  0  0  0  0  0  0  0
  -26.2330  -15.6760   19.9890 H   0  0  0  0  0  0  0  0  0  0  0  0
  -28.0150  -24.8650   20.7290 C   0  0  0  0  0  2  0  0  0  0  0  0
  -28.2800  -26.2910   20.2300 O   0  0  0  0  0  0  0  0  0  0  0  0
  -24.6150  -31.8840   23.2420 C   0  0  0  0  0  0  0  0  0  0  0  0
  -27.2080  -27.2330   20.2130 C   0  0  0  0  0  0  0  0  0  0  0  0
  -23.4130  -30.4870   21.6020 C   0  0  0  0  0  3  0  0  0  0  0  0
  -24.8630  -28.9180   20.1810 C   0  0  0  0  0  0  0  0  0  0  0  0
  -25.9600  -30.7770   21.4280 C   0  0  0  0  0  2  0  0  0  0  0  0
  -26.0390  -29.3890   20.7830 C   0  0  0  0  0  0  0  0  0  0  0  0
  -27.2180  -28.5620   20.7800 C   0  0  0  0  0  3  0  0  0  0  0  0
  -26.0090  -26.8490   19.5770 C   0  0  0  0  0  3  0  0  0  0  0  0
  -24.8560  -27.6590   19.5650 C   0  0  0  0  0  3  0  0  0  0  0  0
  -23.6320  -29.8060   20.2240 C   0  0  0  0  0  2  0  0  0  0  0  0
  -24.6820  -31.0700   22.1460 N   0  0  0  0  0  0  0  0  0  0  0  0
  -23.5300  -32.1650   23.7750 O   0  0  0  0  0  0  0  0  0  0  0  0
  -22.7410  -29.4770   22.5650 C   0  0  0  0  0  0  0  0  0  0  0  0
  -21.4130  -29.3010   22.4390 N   0  0  0  0  0  0  0  0  0  0  0  0
  -23.4140  -28.8520   23.3880 O   0  0  0  0  0  0  0  0  0  0  0  0
  -20.9250  -29.8530   21.7480 H   0  0  0  0  0  0  0  0  0  0  0  0
  -18.0370  -28.0980   22.9500 C   0  0  0  0  0  0  0  0  0  0  0  0
  -20.5950  -28.3640   23.2120 C   0  0  0  0  0  3  0  0  0  0  0  0
  -20.7000  -26.9300   22.6410 C   0  0  0  0  0  2  0  0  0  0  0  0
  -19.5950  -26.6050   21.6300 C   0  0  0  0  0  2  0  0  0  0  0  0
  -18.2140  -26.7500   22.2740 C   0  0  0  0  0  2  0  0  0  0  0  0
  -19.1550  -28.8630   23.3760 C   0  0  0  0  0  0  0  0  0  0  0  0
  -18.9350  -30.1260   23.9700 C   0  0  0  0  0  3  0  0  0  0  0  0
  -17.6300  -30.6250   24.1370 C   0  0  0  0  0  3  0  0  0  0  0  0
  -16.5270  -29.8570   23.7260 C   0  0  0  0  0  3  0  0  0  0  0  0
  -16.7300  -28.5950   23.1410 C   0  0  0  0  0  3  0  0  0  0  0  0
  -25.8930  -32.5240   23.8640 C   0  0  0  0  0  3  0  0  0  0  0  0
  -25.5820  -33.9250   24.1870 N   0  0  0  0  0  0  0  0  0  0  0  0
  -25.9140  -34.9770   23.4260 C   0  0  0  0  0  0  0  0  0  0  0  0
  -26.5820  -34.8680   22.3950 O   0  0  0  0  0  0  0  0  0  0  0  0
  -24.9940  -34.0850   24.9920 H   0  0  0  0  0  0  0  0  0  0  0  0
  -24.1910  -36.7730   23.0670 C   0  0  0  0  0  1  0  0  0  0  0  0
  -25.4300  -36.3690   23.8810 C   0  0  0  0  0  3  0  0  0  0  0  0
  -27.5630  -37.2490   24.7140 C   0  0  0  0  0  1  0  0  0  0  0  0
  -26.4640  -37.4210   23.7690 N   0  0  0  0  0  0  0  0  0  0  0  0
  -26.0580  -38.3400   23.9180 H   0  0  0  0  0  0  0  0  0  0  0  0
  -26.4040  -31.7650   25.1500 C   0  0  1  0  0  0  0  0  0  0  0  0
  -25.3080  -31.5370   26.2160 C   0  0  0  0  0  1  0  0  0  0  0  0
  -26.9900  -30.3840   24.7750 C   0  0  0  0  0  1  0  0  0  0  0  0
  -27.5510  -32.5640   25.8090 C   0  0  0  0  0  1  0  0  0  0  0  0
  2  1  2  0
  3 50  1  0
  3  1  1  0
  4  6  2  0
  4  7  1  0
  5  4  1  0
  6  2  1  0
  7  3  2  0
  8 21  1  0
  9 14  1  0
 10 11  1  0
 10  9  1  0
 12 11  1  0
 12 25  1  0
 12 13  1  0
 14  8  1  0
 14 13  1  0
 15  8  2  0
 16 18  1  0
 16 20  1  0
 17 19  1  0
 18 21  1  0
 20  2  1  0
 20 17  1  0
 21 19  1  0
 22 23  2  0
 23 42  1  0
 24 23  1  0
 24 27  1  0
 25 22  1  0
 25 26  1  0
 26 24  2  0
 27 28  1  0
 28 29  2  0
 30 33  1  0
 30 29  1  0
 31 30  2  0
 32 31  1  0
 32 27  2  0
 33 34  1  0
 34 35  1  0
 35 36  2  0
 37 36  1  0
 37 41  1  0
 38 37  2  0
 39 34  2  0
 39 38  1  0
 40 39  1  0
 42 43  1  0
 43 46  1  0
 43 45  1  0
 44 42  2  0
 47 48  1  0
 47 22  1  0
 49 47  1  0
 51 50  1  0
 52 63  2  0
 53 51  1  0
 53 58  1  0
 54 62  1  0
 54 64  1  0
 55 61  1  0
 55 57  1  0
 56 62  1  0
 57 56  1  0
 58 57  2  0
 59 53  2  0
 60 59  1  0
 60 55  2  0
 61 54  1  0
 62 52  1  0
 64 66  2  0
 65 64  1  0
 67 65  1  0
 68 77  2  0
 68 73  1  0
 69 65  1  0
 69 73  1  0
 70 69  1  0
 71 72  1  0
 71 70  1  0
 72 68  1  0
 73 74  2  0
 74 75  1  0
 76 75  2  0
 77 76  1  0
 78 52  1  0
 78 79  1  0
 78 88  1  0
 79 82  1  0
 80 84  1  0
 80 79  1  0
 81 80  2  0
 84 83  1  0
 86 84  1  0
 86 87  1  0
 86 85  1  0
 88 91  1  1
 88 89  1  0
 90 88  1  0
M  ISO  4   8 100  21 100  50 101  51 101
M  END
>  <TORSDO>  (54) 
F 17

>  <SCORE>  (54) 
-15.251

>  <name>  (54) 
54

>  <ligand_id>  (54) 
54

>  <original_smiles>  (54) 
[H]c1c(C([H])([H])Oc2c([H])c([H])c3c(c2[H])C([H])([H])N(C(=O)C([H])(N([H])C(=O)C([H])(N([H])C([H])([H])[H])C([H])([H])[H])C(C([H])([H])[H])(C([H])([H])[H])C([H])([H])[H])C([H])(C(=O)N([H])C2([H])c4c([H])c([H])c([H])c([H])c4C([H])([H])C([H])([H])C2([H])[H])C3([H])[H])nc(C([H])([H])[H])nc1C1([H])C([H])([H])C([H])([H])N(C(=O)N2C([H])([H])C([H])([H])C([H])([H])C([H])(n3nc(-c4c([H])c([H])c(Oc5c([H])c([H])c(F)c([H])c5F)c([H])c4[H])c(C(=O)N([H])[H])c3N([H])[H])C2([H])[H])C([H])([H])C1([H])[H]

>  <smiles>  (54) 
[H]c1c(C([H])([H])Oc2c([H])c([H])c3c(c2[H])C([H])([H])N(C(=O)C([H])(N([H])C(=O)C([H])(N([H])C([H])([H])[H])C([H])([H])[H])C(C([H])([H])[H])(C([H])([H])[H])C([H])([H])[H])C([H])(C(=O)N([H])C2([H])c4c([H])c([H])c([H])c([H])c4C([H])([H])C([H])([H])C2([H])[H])C3([H])[H])nc(C([H])([H])[H])nc1C1([H])C([H])([H])C([H])([H])N(C(=O)N2C([H])([H])C([H])([H])C([H])([H])C([H])(n3nc(-c4c([H])c([H])c(Oc5c([H])c([H])c(F)c([H])c5F)c([H])c4[H])c(C(=O)N([H])[H])c3N([H])[H])C2([H])[H])C([H])([H])C1([H])[H]

$$$$
55:0:0
     RDKit          3D

 94 99  0  0  1  0  0  0  0  0999 V2000
  -28.4610  -19.7610   19.7980 C   0  0  0  0  0  0  0  0  0  0  0  0
  -28.5950  -18.1600   19.9550 C   0  0  0  0  0  0  0  0  0  0  0  0
  -28.0860  -20.7170   18.6560 C   0  0  0  0  0  3  0  0  0  0  0  0
  -28.1960  -16.8720   19.1370 C   0  0  0  0  0  3  0  0  0  0  0  0
  -27.6700  -19.4130   17.8920 C   0  0  0  0  0  0  0  0  0  0  0  0
  -28.6790  -20.5950   21.0600 C   0  0  0  0  0  1  0  0  0  0  0  0
  -29.4600  -17.8520   21.1280 C   0  0  0  0  0  1  0  0  0  0  0  0
  -26.9180  -19.7380   16.6120 C   0  0  0  0  0  1  0  0  0  0  0  0
  -27.7370  -17.8700   18.1010 N   0  0  0  0  0  0  0  0  0  0  0  0
  -27.7900  -22.7670   18.3730 C   0  0  0  0  0 15  0  0  0  0  0  0
  -28.3960  -24.6300   18.2950 O   0  0  0  0  0  1  0  0  0  0  0  0
  -25.6760  -30.7060   22.6240 C   0  0  0  0  0  0  0  0  0  0  0  0
  -27.7350  -26.1200   18.4800 C   0  0  0  0  0  0  0  0  0  0  0  0
  -24.3810  -29.5680   20.8840 C   0  0  0  0  0  3  0  0  0  0  0  0
  -25.6780  -28.3670   18.9590 C   0  0  0  0  0  0  0  0  0  0  0  0
  -26.9160  -29.8290   20.5080 C   0  0  0  0  0  2  0  0  0  0  0  0
  -26.9220  -28.5250   19.5740 C   0  0  0  0  0  0  0  0  0  0  0  0
  -27.9410  -27.4260   19.3120 C   0  0  0  0  0  3  0  0  0  0  0  0
  -26.5530  -26.3600   17.7470 C   0  0  0  0  0  3  0  0  0  0  0  0
  -25.5650  -27.3560   17.9980 C   0  0  0  0  0  3  0  0  0  0  0  0
  -24.4780  -29.2400   19.3630 C   0  0  0  0  0  2  0  0  0  0  0  0
  -25.6920  -30.0770   21.3930 N   0  0  0  0  0  0  0  0  0  0  0  0
  -24.6410  -30.7890   23.3100 O   0  0  0  0  0  0  0  0  0  0  0  0
  -23.8900  -28.3330   21.6900 C   0  0  0  0  0  0  0  0  0  0  0  0
  -22.6110  -27.9350   21.5410 N   0  0  0  0  0  0  0  0  0  0  0  0
  -24.6750  -27.7390   22.4360 O   0  0  0  0  0  0  0  0  0  0  0  0
  -22.0080  -28.4810   20.9390 H   0  0  0  0  0  0  0  0  0  0  0  0
  -19.6020  -25.9090   21.7480 C   0  0  0  0  0  0  0  0  0  0  0  0
  -22.0140  -26.7490   22.1670 C   0  0  0  0  0  3  0  0  0  0  0  0
  -22.4720  -25.4550   21.4530 C   0  0  0  0  0  2  0  0  0  0  0  0
  -21.5080  -25.0010   20.3530 C   0  0  0  0  0  2  0  0  0  0  0  0
  -20.1170  -24.7330   20.9350 C   0  0  0  0  0  2  0  0  0  0  0  0
  -20.4900  -26.8630   22.3130 C   0  0  0  0  0  0  0  0  0  0  0  0
  -19.9530  -27.9500   23.0380 C   0  0  0  0  0  3  0  0  0  0  0  0
  -18.5610  -28.0910   23.1970 C   0  0  0  0  0  3  0  0  0  0  0  0
  -17.6880  -27.1400   22.6440 C   0  0  0  0  0  3  0  0  0  0  0  0
  -18.2100  -26.0500   21.9260 C   0  0  0  0  0  3  0  0  0  0  0  0
  -26.9500  -31.3640   23.2400 C   0  0  0  0  0  3  0  0  0  0  0  0
  -27.8070  -30.3580   24.1050 C   0  0  1  0  0  0  0  0  0  0  0  0
  -26.9860  -29.5980   25.1740 C   0  0  0  0  0  1  0  0  0  0  0  0
  -28.5000  -29.3010   23.2200 C   0  0  0  0  0  1  0  0  0  0  0  0
  -28.9420  -31.1210   24.8290 C   0  0  0  0  0  1  0  0  0  0  0  0
  -26.5290  -32.5020   24.0880 N   0  0  0  0  0  0  0  0  0  0  0  0
  -26.7230  -33.7990   23.8120 C   0  0  0  0  0  0  0  0  0  0  0  0
  -27.3280  -34.1750   22.8060 O   0  0  0  0  0  0  0  0  0  0  0  0
  -25.9760  -32.2690   24.9010 H   0  0  0  0  0  0  0  0  0  0  0  0
  -24.8800  -35.4780   24.2200 C   0  0  0  0  0  1  0  0  0  0  0  0
  -26.1580  -34.8460   24.7990 C   0  0  0  0  0  3  0  0  0  0  0  0
  -28.2460  -35.4500   25.9460 C   0  0  0  0  0  1  0  0  0  0  0  0
  -27.1200  -35.9180   25.1430 N   0  0  0  0  0  0  0  0  0  0  0  0
  -26.6580  -36.6650   25.6550 H   0  0  0  0  0  0  0  0  0  0  0  0
  -28.4190  -14.7100   19.2810 C   0  0  0  0  0  1  0  0  0  0  0  0
  -29.9110  -15.3070   21.6840 C   0  0  0  0  0  2  0  0  0  0  0  0
  -31.1660  -14.3890   21.8140 C   0  0  0  0  0  2  0  0  0  0  0  0
  -29.2150  -14.3370   20.7080 C   0  0  0  0  0  3  0  0  0  0  0  0
  -30.4430  -13.2910   21.0050 C   0  0  0  0  0  3  0  0  0  0  0  0
  -32.0220  -11.3470   19.9860 C   0  0  0  0  0  0  0  0  0  0  0  0
  -32.1250   -9.0160   21.0190 C   0  0  0  0  0  2  0  0  0  0  0  0
  -31.0490   -8.0140   20.4590 C   0  0  0  0  0  2  0  0  0  0  0  0
  -29.5610   -8.3800   20.7130 C   0  0  0  0  0  2  0  0  0  0  0  0
  -29.4480   -9.8740   20.4690 C   0  0  0  0  0  3  0  0  0  0  0  0
  -30.4120  -10.4400   21.5460 C   0  0  0  0  0  2  0  0  0  0  0  0
  -31.6770  -10.4210   20.9140 N   0  0  0  0  0  0  0  0  0  0  0  0
  -32.9340  -11.0610   19.1820 O   0  0  0  0  0  0  0  0  0  0  0  0
  -31.2330  -12.5110   19.9330 N   0  0  0  0  0  0  0  0  0  0  0  0
  -31.4280  -13.0630   19.1110 H   0  0  0  0  0  0  0  0  0  0  0  0
  -26.8810  -11.7120   20.0070 C   0  0  0  0  0  2  0  0  0  0  0  0
  -25.5880  -11.5100   21.1930 C   0  0  0  0  0  3  0  0  0  0  0  0
  -25.8480  -10.1390   22.2370 C   0  0  0  0  0  3  0  0  0  0  0  0
  -28.1820  -10.3890   20.6550 N   0  0  0  0  0  2  0  0  0  0  0  0
  -27.3780   -9.6450   22.0290 N   0  0  0  0  0  2  0  0  0  0  0  0
  -24.8030   -8.8420   22.2080 C   0  0  0  0  0  0  0  0  0  0  0  0
  -24.4440   -8.0640   23.3610 C   0  0  0  0  0  3  0  0  0  0  0  0
  -23.4220   -7.0490   23.4060 C   0  0  0  0  0  3  0  0  0  0  0  0
  -22.6630   -6.6770   22.2710 C   0  0  0  0  0  0  0  0  0  0  0  0
  -23.0970   -7.2780   21.0630 C   0  0  0  0  0  3  0  0  0  0  0  0
  -24.1320   -8.2840   21.0340 C   0  0  0  0  0  3  0  0  0  0  0  0
  -21.6020   -5.7620   22.2840 O   0  0  0  0  0  0  0  0  0  0  0  0
  -20.6240   -5.7250   23.2770 C   0  0  0  0  0  0  0  0  0  0  0  0
  -19.7840   -6.8320   23.5400 C   0  0  0  0  0  3  0  0  0  0  0  0
  -18.7830   -6.7670   24.5350 C   0  0  0  0  0  3  0  0  0  0  0  0
  -18.6010   -5.5860   25.2820 C   0  0  0  0  0  0  0  0  0  0  0  0
  -19.4070   -4.4670   25.0120 C   0  0  0  0  0  3  0  0  0  0  0  0
  -20.4000   -4.5310   24.0150 C   0  0  0  0  0  0  0  0  0  0  0  0
  -21.1400   -3.4250   23.7610 F   0  0  0  0  0  0  0  0  0  0  0  0
  -17.6600   -5.5280   26.2550 F   0  0  0  0  0  0  0  0  0  0  0  0
  -24.2160  -11.9900   21.0980 C   0  0  0  0  0  0  0  0  0  0  0  0
  -23.3280  -11.5670   21.9980 N   0  0  0  0  0  0  0  0  0  0  0  0
  -23.9410  -12.7580   20.2010 O   0  0  0  0  0  0  0  0  0  0  0  0
  -23.5820  -10.9210   22.7310 H   0  0  0  0  0  0  0  0  0  0  0  0
  -22.3710  -11.8900   21.9410 H   0  0  0  0  0  0  0  0  0  0  0  0
  -27.2010  -12.6450   19.1350 N   0  0  0  0  0  0  0  0  0  0  0  0
  -26.5760  -13.4420   19.0840 H   0  0  0  0  0  0  0  0  0  0  0  0
  -28.1650  -12.9490   19.0310 H   0  0  0  0  0  0  0  0  0  0  0  0
  1  2  1  0
  1  6  1  0
  2  7  1  0
  3  1  2  0
  4  2  2  0
  5  9  2  0
  5  3  1  0
  8  5  1  0
  9  4  1  0
 11 13  1  0
 12 23  2  0
 13 18  1  0
 14 22  1  0
 14 24  1  0
 15 21  1  0
 15 17  1  0
 16 22  1  0
 17 16  1  0
 18 17  2  0
 19 20  1  0
 19 13  2  0
 20 15  2  0
 21 14  1  0
 22 12  1  0
 24 26  2  0
 25 24  1  0
 27 25  1  0
 28 37  2  0
 28 33  1  0
 29 25  1  0
 29 33  1  0
 30 29  1  0
 31 32  1  0
 31 30  1  0
 32 28  1  0
 33 34  2  0
 34 35  1  0
 36 35  2  0
 37 36  1  0
 38 12  1  0
 38 43  1  0
 38 39  1  0
 39 42  1  1
 39 40  1  0
 41 39  1  0
 43 46  1  0
 44 43  1  0
 44 48  1  0
 45 44  2  0
 48 47  1  0
 48 50  1  0
 50 51  1  0
 50 49  1  0
 53 54  1  0
 55 52  1  0
 55 56  1  0
 55 53  1  0
 56 65  1  0
 56 54  1  0
 57 63  1  0
 59 60  1  0
 59 58  1  0
 61 70  1  0
 61 60  1  0
 61 62  1  0
 63 58  1  0
 63 62  1  0
 64 57  2  0
 65 57  1  0
 66 65  1  0
 68 67  1  0
 68 69  1  0
 69 71  1  0
 70 71  1  0
 72 69  1  0
 72 73  1  0
 73 74  2  0
 75 78  1  0
 75 74  1  0
 76 75  2  0
 77 76  1  0
 77 72  2  0
 78 79  1  0
 79 80  2  0
 79 84  1  0
 80 81  1  0
 81 82  2  0
 82 86  1  0
 83 82  1  0
 84 83  2  0
 85 84  1  0
 87 68  1  0
 87 88  1  0
 88 90  1  0
 89 87  2  0
 91 88  1  0
 92 67  1  0
 93 92  1  0
 94 92  1  0
M  ISO  4  10 101  11 101  57 100  65 100
M  END
>  <TORSDO>  (55) 
F 19

>  <SCORE>  (55) 
-6.733

>  <name>  (55) 
55

>  <ligand_id>  (55) 
55

>  <original_smiles>  (55) 
[H]c1c([H])c([H])c2c(c1[H])C([H])([H])C([H])([H])C([H])([H])C2([H])N([H])C(=O)C1([H])N(C(=O)C([H])(N([H])C(=O)C([H])(N([H])C([H])([H])[H])C([H])([H])[H])C(C([H])([H])[H])(C([H])([H])[H])C([H])([H])[H])C([H])([H])c2c([H])c(OC([H])([H])c3c(C([H])([H])[H])nc(C([H])([H])C4([H])C([H])([H])C([H])([H])C4([H])N([H])C(=O)N4C([H])([H])C([H])([H])C([H])([H])C([H])(n5nc(-c6c([H])c([H])c(Oc7c([H])c([H])c(F)c([H])c7F)c([H])c6[H])c(C(=O)N([H])[H])c5N([H])[H])C4([H])[H])c(C([H])([H])[H])c3C([H])([H])[H])c([H])c([H])c2C1([H])[H]

>  <smiles>  (55) 
[H]c1c([H])c([H])c2c(c1[H])C([H])([H])C([H])([H])C([H])([H])C2([H])N([H])C(=O)C1([H])N(C(=O)C([H])(N([H])C(=O)C([H])(N([H])C([H])([H])[H])C([H])([H])[H])C(C([H])([H])[H])(C([H])([H])[H])C([H])([H])[H])C([H])([H])c2c([H])c(OC([H])([H])c3c(C([H])([H])[H])nc(C([H])([H])C4([H])C([H])([H])C([H])([H])C4([H])N([H])C(=O)N4C([H])([H])C([H])([H])C([H])([H])C([H])(n5nc(-c6c([H])c([H])c(Oc7c([H])c([H])c(F)c([H])c7F)c([H])c6[H])c(C(=O)N([H])[H])c5N([H])[H])C4([H])[H])c(C([H])([H])[H])c3C([H])([H])[H])c([H])c([H])c2C1([H])[H]

$$$$
56:0:0
     RDKit          3D

 89 98  0  0  1  0  0  0  0  0999 V2000
  -28.3850  -21.7910   19.5350 C   0  0  0  0  0  3  0  0  0  0  0  0
  -29.4750  -22.8200   21.3730 C   0  0  0  0  0  3  0  0  0  0  0  0
  -28.9410  -20.4790   19.9460 C   0  0  0  0  0  0  0  0  0  0  0  0
  -28.6330  -23.0730   20.2460 C   0  0  0  0  0  0  0  0  0  0  0  0
  -29.7220  -20.4390   21.0760 C   0  0  0  0  0  0  0  0  0  0  0  0
  -28.8410  -18.9610   19.4230 C   0  0  0  0  0  2  0  0  0  0  0  0
  -30.1700  -18.9620   21.4410 C   0  0  0  0  0  2  0  0  0  0  0  0
  -29.9090  -17.9700   20.1990 C   0  0  0  0  0  3  0  0  0  0  0  0
  -29.9880  -21.5890   21.7720 N   0  0  0  0  0  0  0  0  0  0  0  0
  -30.5120  -15.1660   20.2020 C   0  0  0  0  0  0  0  0  0  0  0  0
  -30.4380  -12.7720   19.2980 C   0  0  0  0  0  2  0  0  0  0  0  0
  -29.4830  -12.6530   18.0850 C   0  0  0  0  0  2  0  0  0  0  0  0
  -28.0380  -12.4060   18.5540 C   0  0  0  0  0  2  0  0  0  0  0  0
  -27.6290  -13.3550   19.7080 C   0  0  0  0  0  3  0  0  0  0  0  0
  -28.7020  -13.4250   20.8160 C   0  0  0  0  0  2  0  0  0  0  0  0
  -29.9440  -13.8810   20.1780 N   0  0  0  0  0  0  0  0  0  0  0  0
  -31.7070  -15.2260   19.8860 O   0  0  0  0  0  0  0  0  0  0  0  0
  -29.7210  -16.3640   20.3790 N   0  0  0  0  0  0  0  0  0  0  0  0
  -28.7750  -16.1260   20.6370 H   0  0  0  0  0  0  0  0  0  0  0  0
  -25.2700  -13.9190   20.5130 C   0  0  0  0  0  0  0  0  0  0  0  0
  -24.2140  -13.1370   20.8930 C   0  0  0  0  0  0  0  0  0  0  0  0
  -24.6760  -11.7870   20.8290 C   0  0  0  0  0  0  0  0  0  0  0  0
  -26.3060  -13.0440   20.2350 N   0  0  0  0  0  0  0  0  0  0  0  0
  -25.9610  -11.7560   20.4910 N   0  0  0  0  0  0  0  0  0  0  0  0
  -23.9520  -10.5210   21.0120 C   0  0  0  0  0  0  0  0  0  0  0  0
  -24.3820   -9.5520   21.9440 C   0  0  0  0  0  3  0  0  0  0  0  0
  -23.6540   -8.3540   22.1180 C   0  0  0  0  0  3  0  0  0  0  0  0
  -22.4860   -8.1170   21.3570 C   0  0  0  0  0  0  0  0  0  0  0  0
  -22.0760   -9.0750   20.4130 C   0  0  0  0  0  3  0  0  0  0  0  0
  -22.8030  -10.2650   20.2390 C   0  0  0  0  0  3  0  0  0  0  0  0
  -21.7330   -6.9720   21.4380 O   0  0  0  0  0  0  0  0  0  0  0  0
  -21.6470   -6.2470   22.5990 C   0  0  0  0  0  0  0  0  0  0  0  0
  -21.1360   -6.8060   23.7910 C   0  0  0  0  0  3  0  0  0  0  0  0
  -21.0000   -6.0070   24.9430 C   0  0  0  0  0  3  0  0  0  0  0  0
  -21.3670   -4.6480   24.9060 C   0  0  0  0  0  0  0  0  0  0  0  0
  -21.8730   -4.0880   23.7190 C   0  0  0  0  0  3  0  0  0  0  0  0
  -22.0090   -4.8840   22.5680 C   0  0  0  0  0  0  0  0  0  0  0  0
  -22.4760   -4.3340   21.4220 F   0  0  0  0  0  0  0  0  0  0  0  0
  -21.2300   -3.8780   26.0090 F   0  0  0  0  0  0  0  0  0  0  0  0
  -22.8240  -13.6120   21.2000 C   0  0  0  0  0  0  0  0  0  0  0  0
  -22.1160  -12.9080   22.0750 N   0  0  0  0  0  0  0  0  0  0  0  0
  -22.3750  -14.6420   20.7000 O   0  0  0  0  0  0  0  0  0  0  0  0
  -22.4930  -12.0740   22.5010 H   0  0  0  0  0  0  0  0  0  0  0  0
  -21.1840  -13.2080   22.3260 H   0  0  0  0  0  0  0  0  0  0  0  0
  -25.4280  -15.2910   20.3520 N   0  0  0  0  0  0  0  0  0  0  0  0
  -24.6560  -15.9370   20.4760 H   0  0  0  0  0  0  0  0  0  0  0  0
  -26.2490  -15.7310   19.9560 H   0  0  0  0  0  0  0  0  0  0  0  0
  -27.8740  -24.5530   19.9090 C   0  0  0  0  0  2  0  0  0  0  0  0
  -28.1980  -26.0700   20.2860 O   0  0  0  0  0  0  0  0  0  0  0  0
  -24.6430  -31.8970   23.2740 C   0  0  0  0  0  0  0  0  0  0  0  0
  -27.1910  -27.1330   20.2010 C   0  0  0  0  0  0  0  0  0  0  0  0
  -23.4380  -30.5160   21.6300 C   0  0  0  0  0  3  0  0  0  0  0  0
  -24.8820  -28.9490   20.1810 C   0  0  0  0  0  0  0  0  0  0  0  0
  -25.9980  -30.7570   21.4670 C   0  0  0  0  0  2  0  0  0  0  0  0
  -26.0670  -29.3650   20.8000 C   0  0  0  0  0  0  0  0  0  0  0  0
  -27.2190  -28.4730   20.7970 C   0  0  0  0  0  3  0  0  0  0  0  0
  -25.9810  -26.8530   19.5240 C   0  0  0  0  0  3  0  0  0  0  0  0
  -24.8580  -27.7090   19.5240 C   0  0  0  0  0  3  0  0  0  0  0  0
  -23.6580  -29.8550   20.2430 C   0  0  0  0  0  2  0  0  0  0  0  0
  -24.7140  -31.0790   22.1780 N   0  0  0  0  0  0  0  0  0  0  0  0
  -23.5580  -32.1800   23.8070 O   0  0  0  0  0  0  0  0  0  0  0  0
  -22.7580  -29.5020   22.5850 C   0  0  0  0  0  0  0  0  0  0  0  0
  -21.4310  -29.3220   22.4550 N   0  0  0  0  0  0  0  0  0  0  0  0
  -23.4300  -28.8800   23.4140 O   0  0  0  0  0  0  0  0  0  0  0  0
  -20.9450  -29.8760   21.7620 H   0  0  0  0  0  0  0  0  0  0  0  0
  -18.0580  -28.0880   22.9440 C   0  0  0  0  0  0  0  0  0  0  0  0
  -20.6140  -28.3770   23.2230 C   0  0  0  0  0  3  0  0  0  0  0  0
  -20.7320  -26.9460   22.6490 C   0  0  0  0  0  2  0  0  0  0  0  0
  -19.6380  -26.6120   21.6300 C   0  0  0  0  0  2  0  0  0  0  0  0
  -18.2500  -26.7420   22.2680 C   0  0  0  0  0  2  0  0  0  0  0  0
  -19.1670  -28.8620   23.3790 C   0  0  0  0  0  0  0  0  0  0  0  0
  -18.9300  -30.1190   23.9770 C   0  0  0  0  0  3  0  0  0  0  0  0
  -17.6190  -30.6040   24.1400 C   0  0  0  0  0  3  0  0  0  0  0  0
  -16.5250  -29.8270   23.7210 C   0  0  0  0  0  3  0  0  0  0  0  0
  -16.7460  -28.5720   23.1280 C   0  0  0  0  0  3  0  0  0  0  0  0
  -25.9190  -32.5320   23.9000 C   0  0  0  0  0  3  0  0  0  0  0  0
  -25.6140  -33.9360   24.2230 N   0  0  0  0  0  0  0  0  0  0  0  0
  -25.9250  -34.9850   23.4500 C   0  0  0  0  0  0  0  0  0  0  0  0
  -26.5650  -34.8720   22.4000 O   0  0  0  0  0  0  0  0  0  0  0  0
  -25.0430  -34.0960   25.0410 H   0  0  0  0  0  0  0  0  0  0  0  0
  -24.1800  -36.7730   23.1460 C   0  0  0  0  0  1  0  0  0  0  0  0
  -25.4540  -36.3810   23.9110 C   0  0  0  0  0  3  0  0  0  0  0  0
  -27.6130  -37.2900   24.6440 C   0  0  0  0  0  1  0  0  0  0  0  0
  -26.4780  -37.4340   23.7390 N   0  0  0  0  0  0  0  0  0  0  0  0
  -26.0740  -38.3570   23.8810 H   0  0  0  0  0  0  0  0  0  0  0  0
  -26.4180  -31.7710   25.1910 C   0  0  1  0  0  0  0  0  0  0  0  0
  -25.3110  -31.5510   26.2490 C   0  0  0  0  0  1  0  0  0  0  0  0
  -27.0010  -30.3870   24.8250 C   0  0  0  0  0  1  0  0  0  0  0  0
  -27.5660  -32.5670   25.8530 C   0  0  0  0  0  1  0  0  0  0  0  0
  1  3  2  0
  1  4  1  0
  2  9  1  0
  3  5  1  0
  4  2  2  0
  5  7  1  0
  5  9  2  0
  6  3  1  0
  6  8  1  0
  8 18  1  0
  8  7  1  0
 10 18  1  0
 11 16  1  0
 12 13  1  0
 12 11  1  0
 14 13  1  0
 14 23  1  0
 14 15  1  0
 16 10  1  0
 16 15  1  0
 17 10  2  0
 18 19  1  0
 20 21  2  0
 21 40  1  0
 22 21  1  0
 22 25  1  0
 23 24  1  0
 23 20  1  0
 24 22  2  0
 25 26  1  0
 26 27  2  0
 28 31  1  0
 28 27  1  0
 29 28  2  0
 30 29  1  0
 30 25  2  0
 31 32  1  0
 32 33  1  0
 33 34  2  0
 35 34  1  0
 35 39  1  0
 36 35  2  0
 37 32  2  0
 37 36  1  0
 38 37  1  0
 40 41  1  0
 41 44  1  0
 41 43  1  0
 42 40  2  0
 45 46  1  0
 45 20  1  0
 47 45  1  0
 48  4  1  0
 48 49  1  0
 50 61  2  0
 51 49  1  0
 51 56  1  0
 52 60  1  0
 52 62  1  0
 53 59  1  0
 53 55  1  0
 54 60  1  0
 55 54  1  0
 56 55  2  0
 57 58  1  0
 57 51  2  0
 58 53  2  0
 59 52  1  0
 60 50  1  0
 62 64  2  0
 63 62  1  0
 65 63  1  0
 66 75  2  0
 66 71  1  0
 67 63  1  0
 67 71  1  0
 68 67  1  0
 69 70  1  0
 69 68  1  0
 70 66  1  0
 71 72  2  0
 72 73  1  0
 74 73  2  0
 75 74  1  0
 76 50  1  0
 76 77  1  0
 76 86  1  0
 77 80  1  0
 78 82  1  0
 78 77  1  0
 79 78  2  0
 82 81  1  0
 84 85  1  0
 84 82  1  0
 84 83  1  0
 86 89  1  1
 86 87  1  0
 88 86  1  0
M  ISO  4  10 100  18 100  48 101  49 101
M  END
>  <TORSDO>  (56) 
F 17

>  <SCORE>  (56) 
-15.694

>  <name>  (56) 
56

>  <ligand_id>  (56) 
56

>  <original_smiles>  (56) 
[H]c1nc2c(c([H])c1C([H])([H])Oc1c([H])c([H])c3c(c1[H])C([H])([H])N(C(=O)C([H])(N([H])C(=O)C([H])(N([H])C([H])([H])[H])C([H])([H])[H])C(C([H])([H])[H])(C([H])([H])[H])C([H])([H])[H])C([H])(C(=O)N([H])C1([H])c4c([H])c([H])c([H])c([H])c4C([H])([H])C([H])([H])C1([H])[H])C3([H])[H])C([H])([H])C([H])(N([H])C(=O)N1C([H])([H])C([H])([H])C([H])([H])C([H])(n3nc(-c4c([H])c([H])c(Oc5c([H])c([H])c(F)c([H])c5F)c([H])c4[H])c(C(=O)N([H])[H])c3N([H])[H])C1([H])[H])C2([H])[H]

>  <smiles>  (56) 
[H]c1nc2c(c([H])c1C([H])([H])Oc1c([H])c([H])c3c(c1[H])C([H])([H])N(C(=O)C([H])(N([H])C(=O)C([H])(N([H])C([H])([H])[H])C([H])([H])[H])C(C([H])([H])[H])(C([H])([H])[H])C([H])([H])[H])C([H])(C(=O)N([H])C1([H])c4c([H])c([H])c([H])c([H])c4C([H])([H])C([H])([H])C1([H])[H])C3([H])[H])C([H])([H])C([H])(N([H])C(=O)N1C([H])([H])C([H])([H])C([H])([H])C([H])(n3nc(-c4c([H])c([H])c(Oc5c([H])c([H])c(F)c([H])c5F)c([H])c4[H])c(C(=O)N([H])[H])c3N([H])[H])C1([H])[H])C2([H])[H]

$$$$
57:0:0
     RDKit          3D

 90 99  0  0  1  0  0  0  0  0999 V2000
  -27.0830  -21.7390   20.0030 C   0  0  0  0  0  0  0  0  0  0  0  0
  -26.6330  -22.6090   21.1750 C   0  0  0  0  0  2  0  0  0  0  0  0
  -27.9360  -23.2760   21.6140 C   0  0  0  0  0  2  0  0  0  0  0  0
  -28.7690  -23.2240   20.3180 C   0  0  0  0  0  3  0  0  0  0  0  0
  -28.4310  -21.6890   19.8830 N   0  0  0  0  0  0  0  0  0  0  0  0
  -26.2550  -21.1260   19.3260 O   0  0  0  0  0  0  0  0  0  0  0  0
  -30.7240  -15.4710   20.0240 C   0  0  0  0  0  0  0  0  0  0  0  0
  -30.6040  -13.0700   19.1330 C   0  0  0  0  0  2  0  0  0  0  0  0
  -29.6670  -12.8770   17.9200 C   0  0  0  0  0  2  0  0  0  0  0  0
  -28.2220  -12.6260   18.3850 C   0  0  0  0  0  2  0  0  0  0  0  0
  -27.8030  -13.5960   19.5160 C   0  0  0  0  0  3  0  0  0  0  0  0
  -28.8620  -13.7590   20.6230 C   0  0  0  0  0  2  0  0  0  0  0  0
  -30.0890  -14.2140   19.9610 N   0  0  0  0  0  0  0  0  0  0  0  0
  -31.9430  -15.4050   19.8130 O   0  0  0  0  0  0  0  0  0  0  0  0
  -30.4380  -19.5720   19.9470 C   0  0  0  0  0  2  0  0  0  0  0  0
  -28.1450  -18.8230   20.0650 C   0  0  0  0  0  2  0  0  0  0  0  0
  -30.8620  -18.0900   20.5590 C   0  0  0  0  0  2  0  0  0  0  0  0
  -28.7810  -17.3450   19.6520 C   0  0  0  0  0  2  0  0  0  0  0  0
  -29.0060  -20.1960   20.3280 C   0  0  0  0  0  3  0  0  0  0  0  0
  -30.0960  -16.7940   20.2030 N   0  0  0  0  0  0  0  0  0  0  0  0
  -25.4890  -14.1900   20.4000 C   0  0  0  0  0  0  0  0  0  0  0  0
  -24.4210  -13.4310   20.7710 C   0  0  0  0  0  0  0  0  0  0  0  0
  -24.8430  -12.0690   20.6520 C   0  0  0  0  0  0  0  0  0  0  0  0
  -26.4920  -13.2980   20.0640 N   0  0  0  0  0  0  0  0  0  0  0  0
  -26.1200  -12.0120   20.2900 N   0  0  0  0  0  0  0  0  0  0  0  0
  -24.0910  -10.8210   20.8030 C   0  0  0  0  0  0  0  0  0  0  0  0
  -24.5020   -9.8150   21.7050 C   0  0  0  0  0  3  0  0  0  0  0  0
  -23.7440   -8.6350   21.8450 C   0  0  0  0  0  3  0  0  0  0  0  0
  -22.5640   -8.4490   21.0850 C   0  0  0  0  0  0  0  0  0  0  0  0
  -22.1760   -9.4460   20.1710 C   0  0  0  0  0  3  0  0  0  0  0  0
  -22.9340  -10.6190   20.0290 C   0  0  0  0  0  3  0  0  0  0  0  0
  -21.7760   -7.3260   21.1420 O   0  0  0  0  0  0  0  0  0  0  0  0
  -21.6770   -6.5750   22.2870 C   0  0  0  0  0  0  0  0  0  0  0  0
  -21.2000   -7.1210   23.4980 C   0  0  0  0  0  3  0  0  0  0  0  0
  -21.0470   -6.2940   24.6300 C   0  0  0  0  0  3  0  0  0  0  0  0
  -21.3620   -4.9240   24.5490 C   0  0  0  0  0  0  0  0  0  0  0  0
  -21.8290   -4.3780   23.3410 C   0  0  0  0  0  3  0  0  0  0  0  0
  -21.9850   -5.2020   22.2110 C   0  0  0  0  0  0  0  0  0  0  0  0
  -22.4180   -4.6680   21.0460 F   0  0  0  0  0  0  0  0  0  0  0  0
  -21.2060   -4.1260   25.6330 F   0  0  0  0  0  0  0  0  0  0  0  0
  -23.0540  -13.9340   21.1160 C   0  0  0  0  0  0  0  0  0  0  0  0
  -22.3420  -13.2300   21.9880 N   0  0  0  0  0  0  0  0  0  0  0  0
  -22.6290  -14.9910   20.6440 O   0  0  0  0  0  0  0  0  0  0  0  0
  -22.7010  -12.3810   22.3980 H   0  0  0  0  0  0  0  0  0  0  0  0
  -21.4210  -13.5510   22.2550 H   0  0  0  0  0  0  0  0  0  0  0  0
  -25.6830  -15.5640   20.2950 N   0  0  0  0  0  0  0  0  0  0  0  0
  -24.9390  -16.2280   20.4730 H   0  0  0  0  0  0  0  0  0  0  0  0
  -26.5430  -15.9960   19.9930 H   0  0  0  0  0  0  0  0  0  0  0  0
  -28.2900  -24.6850   19.4530 C   0  0  0  0  0  2  0  0  0  0  0  0
  -28.4010  -26.2680   19.7820 O   0  0  0  0  0  0  0  0  0  0  0  0
  -24.5670  -31.7960   22.9890 C   0  0  0  0  0  0  0  0  0  0  0  0
  -27.3360  -27.2800   19.7270 C   0  0  0  0  0  0  0  0  0  0  0  0
  -23.4240  -30.4260   21.2890 C   0  0  0  0  0  3  0  0  0  0  0  0
  -24.9470  -29.0020   19.7680 C   0  0  0  0  0  0  0  0  0  0  0  0
  -25.9660  -30.8100   21.1280 C   0  0  0  0  0  2  0  0  0  0  0  0
  -26.1130  -29.4500   20.4000 C   0  0  0  0  0  0  0  0  0  0  0  0
  -27.3040  -28.6030   20.3690 C   0  0  0  0  0  3  0  0  0  0  0  0
  -26.1410  -26.9790   19.0450 C   0  0  0  0  0  3  0  0  0  0  0  0
  -24.9800  -27.7840   19.0750 C   0  0  0  0  0  3  0  0  0  0  0  0
  -23.6750  -29.8470   19.8700 C   0  0  0  0  0  2  0  0  0  0  0  0
  -24.6740  -31.0280   21.8580 N   0  0  0  0  0  0  0  0  0  0  0  0
  -23.4720  -31.9970   23.5330 O   0  0  0  0  0  0  0  0  0  0  0  0
  -22.8090  -29.3290   22.1980 C   0  0  0  0  0  0  0  0  0  0  0  0
  -21.4890  -29.1040   22.0940 N   0  0  0  0  0  0  0  0  0  0  0  0
  -23.5280  -28.6860   22.9700 O   0  0  0  0  0  0  0  0  0  0  0  0
  -20.9500  -29.6980   21.4790 H   0  0  0  0  0  0  0  0  0  0  0  0
  -18.1740  -27.7540   22.6500 C   0  0  0  0  0  0  0  0  0  0  0  0
  -20.7320  -28.0870   22.8320 C   0  0  0  0  0  3  0  0  0  0  0  0
  -20.8520  -26.7020   22.1570 C   0  0  0  0  0  2  0  0  0  0  0  0
  -19.7230  -26.4140   21.1630 C   0  0  0  0  0  2  0  0  0  0  0  0
  -18.3650  -26.4650   21.8690 C   0  0  0  0  0  2  0  0  0  0  0  0
  -19.2830  -28.5250   23.0890 C   0  0  0  0  0  0  0  0  0  0  0  0
  -19.0450  -29.7340   23.7800 C   0  0  0  0  0  3  0  0  0  0  0  0
  -17.7310  -30.1730   24.0330 C   0  0  0  0  0  3  0  0  0  0  0  0
  -16.6360  -29.3940   23.6180 C   0  0  0  0  0  3  0  0  0  0  0  0
  -16.8610  -28.1910   22.9250 C   0  0  0  0  0  3  0  0  0  0  0  0
  -25.8180  -32.4750   23.6370 C   0  0  0  0  0  3  0  0  0  0  0  0
  -25.4500  -33.8470   24.0180 N   0  0  0  0  0  0  0  0  0  0  0  0
  -25.7290  -34.9440   23.3040 C   0  0  0  0  0  0  0  0  0  0  0  0
  -26.4010  -34.9160   22.2700 O   0  0  0  0  0  0  0  0  0  0  0  0
  -24.8840  -33.9570   24.8470 H   0  0  0  0  0  0  0  0  0  0  0  0
  -23.9270  -36.6680   23.0200 C   0  0  0  0  0  1  0  0  0  0  0  0
  -25.1750  -36.2840   23.8250 C   0  0  0  0  0  3  0  0  0  0  0  0
  -27.2480  -37.2220   24.7320 C   0  0  0  0  0  1  0  0  0  0  0  0
  -26.1550  -37.3870   23.7820 N   0  0  0  0  0  0  0  0  0  0  0  0
  -25.6980  -38.2750   23.9790 H   0  0  0  0  0  0  0  0  0  0  0  0
  -26.3650  -31.6960   24.9000 C   0  0  1  0  0  0  0  0  0  0  0  0
  -25.2790  -31.3900   25.9570 C   0  0  0  0  0  1  0  0  0  0  0  0
  -27.0080  -30.3550   24.4880 C   0  0  0  0  0  1  0  0  0  0  0  0
  -27.4830  -32.5200   25.5890 C   0  0  0  0  0  1  0  0  0  0  0  0
  1  2  1  0
  2  3  1  0
  4 49  1  0
  4  3  1  0
  5  1  1  0
  5  4  1  0
  6  1  2  0
  7 20  1  0
  8 13  1  0
  9 10  1  0
  9  8  1  0
 11 10  1  0
 11 24  1  0
 11 12  1  0
 13  7  1  0
 13 12  1  0
 14  7  2  0
 15 19  1  0
 15 17  1  0
 16 19  1  0
 18 16  1  0
 18 20  1  0
 19  5  1  0
 20 17  1  0
 21 22  2  0
 22 41  1  0
 23 22  1  0
 23 26  1  0
 24 25  1  0
 24 21  1  0
 25 23  2  0
 26 27  1  0
 27 28  2  0
 29 32  1  0
 29 28  1  0
 30 29  2  0
 31 30  1  0
 31 26  2  0
 32 33  1  0
 33 34  1  0
 34 35  2  0
 36 35  1  0
 36 40  1  0
 37 36  2  0
 38 33  2  0
 38 37  1  0
 39 38  1  0
 41 42  1  0
 42 45  1  0
 42 44  1  0
 43 41  2  0
 46 21  1  0
 46 47  1  0
 48 46  1  0
 49 50  1  0
 51 62  2  0
 52 50  1  0
 52 57  1  0
 53 61  1  0
 53 63  1  0
 54 60  1  0
 54 56  1  0
 55 61  1  0
 56 55  1  0
 57 56  2  0
 58 59  1  0
 58 52  2  0
 59 54  2  0
 60 53  1  0
 61 51  1  0
 63 65  2  0
 64 63  1  0
 66 64  1  0
 67 76  2  0
 67 72  1  0
 68 64  1  0
 68 72  1  0
 69 68  1  0
 70 71  1  0
 70 69  1  0
 71 67  1  0
 72 73  2  0
 73 74  1  0
 75 74  2  0
 76 75  1  0
 77 51  1  0
 77 78  1  0
 77 87  1  0
 78 81  1  0
 79 83  1  0
 79 78  1  0
 80 79  2  0
 83 82  1  0
 85 83  1  0
 85 86  1  0
 85 84  1  0
 87 90  1  1
 87 88  1  0
 89 87  1  0
M  ISO  4   7 100  20 100  49 101  50 101
M  END
>  <TORSDO>  (57) 
F 17

>  <SCORE>  (57) 
-14.454

>  <name>  (57) 
57

>  <ligand_id>  (57) 
57

>  <original_smiles>  (57) 
[H]c1c([H])c([H])c2c(c1[H])C([H])([H])C([H])([H])C([H])([H])C2([H])N([H])C(=O)C1([H])N(C(=O)C([H])(N([H])C(=O)C([H])(N([H])C([H])([H])[H])C([H])([H])[H])C(C([H])([H])[H])(C([H])([H])[H])C([H])([H])[H])C([H])([H])c2c([H])c(OC([H])([H])C3([H])N(C4([H])C([H])([H])C([H])([H])N(C(=O)N5C([H])([H])C([H])([H])C([H])([H])C([H])(n6nc(-c7c([H])c([H])c(Oc8c([H])c([H])c(F)c([H])c8F)c([H])c7[H])c(C(=O)N([H])[H])c6N([H])[H])C5([H])[H])C([H])([H])C4([H])[H])C(=O)C([H])([H])C3([H])[H])c([H])c([H])c2C1([H])[H]

>  <smiles>  (57) 
[H]c1c([H])c([H])c2c(c1[H])C([H])([H])C([H])([H])C([H])([H])C2([H])N([H])C(=O)C1([H])N(C(=O)C([H])(N([H])C(=O)C([H])(N([H])C([H])([H])[H])C([H])([H])[H])C(C([H])([H])[H])(C([H])([H])[H])C([H])([H])[H])C([H])([H])c2c([H])c(OC([H])([H])C3([H])N(C4([H])C([H])([H])C([H])([H])N(C(=O)N5C([H])([H])C([H])([H])C([H])([H])C([H])(n6nc(-c7c([H])c([H])c(Oc8c([H])c([H])c(F)c([H])c8F)c([H])c7[H])c(C(=O)N([H])[H])c6N([H])[H])C5([H])[H])C([H])([H])C4([H])[H])C(=O)C([H])([H])C3([H])[H])c([H])c([H])c2C1([H])[H]

$$$$
58:0:0
     RDKit          3D

 91100  0  0  1  0  0  0  0  0999 V2000
  -29.2770  -20.4810   19.8040 C   0  0  0  0  0  3  0  0  0  0  0  0
  -30.1000  -20.3630   22.3730 C   0  0  0  0  0  3  0  0  0  0  0  0
  -29.3320  -21.7990   20.5090 C   0  0  0  0  0  0  0  0  0  0  0  0
  -29.8360  -21.6440   21.8210 C   0  0  0  0  0  0  0  0  0  0  0  0
  -29.6210  -19.1600   20.4250 C   0  0  0  0  0  0  0  0  0  0  0  0
  -30.2960  -22.8840   22.5810 C   0  0  0  0  0  2  0  0  0  0  0  0
  -31.1700  -23.8060   21.6890 C   0  0  0  0  0  2  0  0  0  0  0  0
  -30.7100  -23.9140   20.2060 C   0  0  0  0  0  2  0  0  0  0  0  0
  -29.2710  -23.3840   19.9560 C   0  0  0  0  0  3  0  0  0  0  0  0
  -29.9850  -19.1810   21.7190 N   0  0  0  0  0  0  0  0  0  0  0  0
  -29.7680  -17.6520   19.7330 C   0  0  0  0  0  2  0  0  0  0  0  0
  -30.5130  -15.0190   20.3350 C   0  0  0  0  0  0  0  0  0  0  0  0
  -30.4440  -12.6280   19.4910 C   0  0  0  0  0  2  0  0  0  0  0  0
  -29.5270  -12.5280   18.2440 C   0  0  0  0  0  2  0  0  0  0  0  0
  -28.0570  -12.3310   18.6600 C   0  0  0  0  0  2  0  0  0  0  0  0
  -27.6260  -13.2600   19.8270 C   0  0  0  0  0  3  0  0  0  0  0  0
  -28.6720  -13.3170   20.9590 C   0  0  0  0  0  2  0  0  0  0  0  0
  -29.9430  -13.7400   20.3570 N   0  0  0  0  0  0  0  0  0  0  0  0
  -31.7090  -15.0820   20.0290 O   0  0  0  0  0  0  0  0  0  0  0  0
  -29.7190  -16.2090   20.4200 N   0  0  0  0  0  0  0  0  0  0  0  0
  -28.8030  -16.0210   20.7910 H   0  0  0  0  0  0  0  0  0  0  0  0
  -25.2450  -13.8200   20.5730 C   0  0  0  0  0  0  0  0  0  0  0  0
  -24.1800  -13.0400   20.9220 C   0  0  0  0  0  0  0  0  0  0  0  0
  -24.6420  -11.6890   20.8720 C   0  0  0  0  0  0  0  0  0  0  0  0
  -26.2880  -12.9470   20.3190 N   0  0  0  0  0  0  0  0  0  0  0  0
  -25.9350  -11.6570   20.5670 N   0  0  0  0  0  0  0  0  0  0  0  0
  -23.9080  -10.4260   21.0420 C   0  0  0  0  0  0  0  0  0  0  0  0
  -24.3630   -9.4160   21.9180 C   0  0  0  0  0  3  0  0  0  0  0  0
  -23.6320   -8.2190   22.0730 C   0  0  0  0  0  3  0  0  0  0  0  0
  -22.4290   -8.0230   21.3530 C   0  0  0  0  0  0  0  0  0  0  0  0
  -21.9960   -9.0210   20.4620 C   0  0  0  0  0  3  0  0  0  0  0  0
  -22.7270  -10.2090   20.3050 C   0  0  0  0  0  3  0  0  0  0  0  0
  -21.6620   -6.8860   21.4210 O   0  0  0  0  0  0  0  0  0  0  0  0
  -21.6810   -6.0740   22.5270 C   0  0  0  0  0  0  0  0  0  0  0  0
  -21.4020   -6.5640   23.8230 C   0  0  0  0  0  3  0  0  0  0  0  0
  -21.3670   -5.6780   24.9180 C   0  0  0  0  0  3  0  0  0  0  0  0
  -21.6040   -4.3050   24.7240 C   0  0  0  0  0  0  0  0  0  0  0  0
  -21.8850   -3.8140   23.4360 C   0  0  0  0  0  3  0  0  0  0  0  0
  -21.9210   -4.6970   22.3420 C   0  0  0  0  0  0  0  0  0  0  0  0
  -22.1700   -4.2150   21.1000 F   0  0  0  0  0  0  0  0  0  0  0  0
  -21.5610   -3.4540   25.7740 F   0  0  0  0  0  0  0  0  0  0  0  0
  -22.7820  -13.5140   21.1890 C   0  0  0  0  0  0  0  0  0  0  0  0
  -22.0540  -12.8110   22.0450 N   0  0  0  0  0  0  0  0  0  0  0  0
  -22.3510  -14.5450   20.6760 O   0  0  0  0  0  0  0  0  0  0  0  0
  -22.4290  -11.9810   22.4830 H   0  0  0  0  0  0  0  0  0  0  0  0
  -21.1100  -13.1000   22.2570 H   0  0  0  0  0  0  0  0  0  0  0  0
  -25.4110  -15.1960   20.4190 N   0  0  0  0  0  0  0  0  0  0  0  0
  -24.6300  -15.8360   20.5030 H   0  0  0  0  0  0  0  0  0  0  0  0
  -26.2380  -15.6270   20.0250 H   0  0  0  0  0  0  0  0  0  0  0  0
  -28.1950  -24.6400   20.4050 C   0  0  0  0  0  2  0  0  0  0  0  0
  -28.3630  -26.1850   20.1750 O   0  0  0  0  0  0  0  0  0  0  0  0
  -24.6460  -31.8490   23.1850 C   0  0  0  0  0  0  0  0  0  0  0  0
  -27.2750  -27.1400   20.1620 C   0  0  0  0  0  0  0  0  0  0  0  0
  -23.4600  -30.4540   21.5240 C   0  0  0  0  0  3  0  0  0  0  0  0
  -24.9250  -28.8750   20.1160 C   0  0  0  0  0  0  0  0  0  0  0  0
  -26.0120  -30.7170   21.3930 C   0  0  0  0  0  2  0  0  0  0  0  0
  -26.0930  -29.3210   20.7470 C   0  0  0  0  0  0  0  0  0  0  0  0
  -27.2620  -28.4680   20.7580 C   0  0  0  0  0  3  0  0  0  0  0  0
  -26.0850  -26.8040   19.4770 C   0  0  0  0  0  3  0  0  0  0  0  0
  -24.9360  -27.6310   19.4610 C   0  0  0  0  0  3  0  0  0  0  0  0
  -23.7010  -29.7780   20.1480 C   0  0  0  0  0  2  0  0  0  0  0  0
  -24.7230  -31.0310   22.0880 N   0  0  0  0  0  0  0  0  0  0  0  0
  -23.5540  -32.1420   23.6990 O   0  0  0  0  0  0  0  0  0  0  0  0
  -22.7660  -29.4530   22.4840 C   0  0  0  0  0  0  0  0  0  0  0  0
  -21.4320  -29.3070   22.3620 N   0  0  0  0  0  0  0  0  0  0  0  0
  -23.4320  -28.8090   23.2960 O   0  0  0  0  0  0  0  0  0  0  0  0
  -20.9510  -29.8880   21.6910 H   0  0  0  0  0  0  0  0  0  0  0  0
  -18.0330  -28.1330   22.8450 C   0  0  0  0  0  0  0  0  0  0  0  0
  -20.5940  -28.3710   23.1240 C   0  0  0  0  0  3  0  0  0  0  0  0
  -20.6820  -26.9410   22.5390 C   0  0  0  0  0  2  0  0  0  0  0  0
  -19.5810  -26.6340   21.5190 C   0  0  0  0  0  2  0  0  0  0  0  0
  -18.1980  -26.7870   22.1570 C   0  0  0  0  0  2  0  0  0  0  0  0
  -19.1560  -28.8810   23.2840 C   0  0  0  0  0  0  0  0  0  0  0  0
  -18.9470  -30.1390   23.8890 C   0  0  0  0  0  3  0  0  0  0  0  0
  -17.6450  -30.6520   24.0490 C   0  0  0  0  0  3  0  0  0  0  0  0
  -16.5360  -29.9000   23.6280 C   0  0  0  0  0  3  0  0  0  0  0  0
  -16.7300  -28.6400   23.0350 C   0  0  0  0  0  3  0  0  0  0  0  0
  -25.9200  -32.4740   23.8280 C   0  0  0  0  0  3  0  0  0  0  0  0
  -25.6050  -33.8560   24.2300 N   0  0  0  0  0  0  0  0  0  0  0  0
  -25.9080  -34.9450   23.5110 C   0  0  0  0  0  0  0  0  0  0  0  0
  -26.5560  -34.8930   22.4630 O   0  0  0  0  0  0  0  0  0  0  0  0
  -25.0520  -33.9690   25.0660 H   0  0  0  0  0  0  0  0  0  0  0  0
  -24.1550  -36.7230   23.2650 C   0  0  0  0  0  1  0  0  0  0  0  0
  -25.4150  -36.3070   24.0370 C   0  0  0  0  0  3  0  0  0  0  0  0
  -27.5610  -37.1810   24.8460 C   0  0  0  0  0  1  0  0  0  0  0  0
  -26.4310  -37.3760   23.9420 N   0  0  0  0  0  0  0  0  0  0  0  0
  -26.0200  -38.2850   24.1360 H   0  0  0  0  0  0  0  0  0  0  0  0
  -26.4540  -31.6520   25.0640 C   0  0  1  0  0  0  0  0  0  0  0  0
  -25.3740  -31.3570   26.1330 C   0  0  0  0  0  1  0  0  0  0  0  0
  -27.0440  -30.2990   24.6070 C   0  0  0  0  0  1  0  0  0  0  0  0
  -27.6220  -32.4130   25.7360 C   0  0  0  0  0  1  0  0  0  0  0  0
  1  5  2  0
  1  3  1  0
  3  4  2  0
  4  2  1  0
  4  6  1  0
  5 10  1  0
  7  6  1  0
  8  7  1  0
  9  8  1  0
  9 50  1  0
  9  3  1  0
 10  2  2  0
 11 20  1  0
 11  5  1  0
 12 18  1  0
 12 20  1  0
 13 18  1  0
 14 15  1  0
 14 13  1  0
 16 15  1  0
 16 25  1  0
 16 17  1  0
 18 17  1  0
 19 12  2  0
 20 21  1  0
 22 23  2  0
 23 42  1  0
 24 23  1  0
 24 27  1  0
 25 26  1  0
 25 22  1  0
 26 24  2  0
 27 28  1  0
 28 29  2  0
 30 33  1  0
 30 29  1  0
 31 30  2  0
 32 31  1  0
 32 27  2  0
 33 34  1  0
 34 35  1  0
 35 36  2  0
 37 36  1  0
 37 41  1  0
 38 37  2  0
 39 34  2  0
 39 38  1  0
 40 39  1  0
 42 43  1  0
 43 46  1  0
 43 45  1  0
 44 42  2  0
 47 48  1  0
 47 22  1  0
 49 47  1  0
 51 50  1  0
 52 63  2  0
 53 51  1  0
 53 58  1  0
 54 62  1  0
 54 64  1  0
 55 61  1  0
 55 57  1  0
 56 62  1  0
 57 58  2  0
 57 56  1  0
 59 53  2  0
 60 59  1  0
 60 55  2  0
 61 54  1  0
 62 52  1  0
 64 66  2  0
 65 64  1  0
 67 65  1  0
 68 77  2  0
 68 73  1  0
 69 65  1  0
 69 73  1  0
 70 69  1  0
 71 72  1  0
 71 70  1  0
 72 68  1  0
 73 74  2  0
 74 75  1  0
 76 75  2  0
 77 76  1  0
 78 52  1  0
 78 79  1  0
 78 88  1  0
 79 82  1  0
 80 84  1  0
 80 79  1  0
 81 80  2  0
 84 83  1  0
 86 84  1  0
 86 87  1  0
 86 85  1  0
 88 91  1  1
 88 89  1  0
 90 88  1  0
M  ISO  4  12 100  20 100  50 101  51 101
M  END
>  <TORSDO>  (58) 
F 18

>  <SCORE>  (58) 
-14.228

>  <name>  (58) 
58

>  <ligand_id>  (58) 
58

>  <original_smiles>  (58) 
[H]c1nc(C([H])([H])N([H])C(=O)N2C([H])([H])C([H])([H])C([H])([H])C([H])(n3nc(-c4c([H])c([H])c(Oc5c([H])c([H])c(F)c([H])c5F)c([H])c4[H])c(C(=O)N([H])[H])c3N([H])[H])C2([H])[H])c([H])c2c1C([H])([H])C([H])([H])C([H])([H])C2([H])C([H])([H])Oc1c([H])c([H])c2c(c1[H])C([H])([H])N(C(=O)C([H])(N([H])C(=O)C([H])(N([H])C([H])([H])[H])C([H])([H])[H])C(C([H])([H])[H])(C([H])([H])[H])C([H])([H])[H])C([H])(C(=O)N([H])C1([H])c3c([H])c([H])c([H])c([H])c3C([H])([H])C([H])([H])C1([H])[H])C2([H])[H]

>  <smiles>  (58) 
[H]c1nc(C([H])([H])N([H])C(=O)N2C([H])([H])C([H])([H])C([H])([H])C([H])(n3nc(-c4c([H])c([H])c(Oc5c([H])c([H])c(F)c([H])c5F)c([H])c4[H])c(C(=O)N([H])[H])c3N([H])[H])C2([H])[H])c([H])c2c1C([H])([H])C([H])([H])C([H])([H])C2([H])C([H])([H])Oc1c([H])c([H])c2c(c1[H])C([H])([H])N(C(=O)C([H])(N([H])C(=O)C([H])(N([H])C([H])([H])[H])C([H])([H])[H])C(C([H])([H])[H])(C([H])([H])[H])C([H])([H])[H])C([H])(C(=O)N([H])C1([H])c3c([H])c([H])c([H])c([H])c3C([H])([H])C([H])([H])C1([H])[H])C2([H])[H]

$$$$
59:0:0
     RDKit          3D

 87 95  0  0  1  0  0  0  0  0999 V2000
  -30.3260  -15.6850   20.2700 C   0  0  0  0  0  0  0  0  0  0  0  0
  -30.4450  -13.1130   19.5470 C   0  0  0  0  0  2  0  0  0  0  0  0
  -29.5750  -12.6880   18.3290 C   0  0  0  0  0  2  0  0  0  0  0  0
  -28.1390  -12.3540   18.7640 C   0  0  0  0  0  2  0  0  0  0  0  0
  -27.6130  -13.3880   19.7860 C   0  0  0  0  0  3  0  0  0  0  0  0
  -28.6220  -13.7230   20.9110 C   0  0  0  0  0  2  0  0  0  0  0  0
  -29.8170  -14.3140   20.2640 N   0  0  0  0  0  0  0  0  0  0  0  0
  -31.5590  -15.6330   20.0840 O   0  0  0  0  0  0  0  0  0  0  0  0
  -27.8810  -20.9780   20.5590 C   0  0  0  0  0  3  0  0  0  0  0  0
  -28.1880  -19.4950   20.6400 C   0  0  0  0  0  3  0  0  0  0  0  0
  -28.6760  -22.1190   20.0440 C   0  0  0  0  0  0  0  0  0  0  0  0
  -29.8660  -21.2880   19.6360 C   0  0  0  0  0  0  0  0  0  0  0  0
  -29.3820  -18.7270   20.2280 C   0  0  0  0  0  0  0  0  0  0  0  0
  -30.9910  -22.0310   18.9450 C   0  0  0  0  0  1  0  0  0  0  0  0
  -30.1640  -19.8340   19.7380 N   0  0  0  0  0  0  0  0  0  0  0  0
  -29.5080  -17.0090   20.3370 N   0  0  0  0  0  0  0  0  0  0  0  0
  -28.5810  -16.6730   20.5440 H   0  0  0  0  0  0  0  0  0  0  0  0
  -25.2450  -13.9480   20.5120 C   0  0  0  0  0  0  0  0  0  0  0  0
  -24.1740  -13.1810   20.8710 C   0  0  0  0  0  0  0  0  0  0  0  0
  -24.6330  -11.8280   20.8560 C   0  0  0  0  0  0  0  0  0  0  0  0
  -26.2850  -13.0670   20.2880 N   0  0  0  0  0  0  0  0  0  0  0  0
  -25.9290  -11.7840   20.5630 N   0  0  0  0  0  0  0  0  0  0  0  0
  -23.8900  -10.5730   21.0420 C   0  0  0  0  0  0  0  0  0  0  0  0
  -24.3010   -9.6020   21.9810 C   0  0  0  0  0  3  0  0  0  0  0  0
  -23.5560   -8.4170   22.1590 C   0  0  0  0  0  3  0  0  0  0  0  0
  -22.3850   -8.1930   21.3960 C   0  0  0  0  0  0  0  0  0  0  0  0
  -21.9920   -9.1520   20.4470 C   0  0  0  0  0  3  0  0  0  0  0  0
  -22.7370  -10.3290   20.2680 C   0  0  0  0  0  3  0  0  0  0  0  0
  -21.6130   -7.0590   21.4830 O   0  0  0  0  0  0  0  0  0  0  0  0
  -21.5510   -6.3160   22.6340 C   0  0  0  0  0  0  0  0  0  0  0  0
  -21.1230   -6.8740   23.8580 C   0  0  0  0  0  3  0  0  0  0  0  0
  -21.0070   -6.0580   25.0020 C   0  0  0  0  0  3  0  0  0  0  0  0
  -21.3080   -4.6860   24.9220 C   0  0  0  0  0  0  0  0  0  0  0  0
  -21.7290   -4.1270   23.7020 C   0  0  0  0  0  3  0  0  0  0  0  0
  -21.8460   -4.9400   22.5620 C   0  0  0  0  0  0  0  0  0  0  0  0
  -22.2310   -4.3920   21.3840 F   0  0  0  0  0  0  0  0  0  0  0  0
  -21.1900   -3.9000   26.0180 F   0  0  0  0  0  0  0  0  0  0  0  0
  -22.7760  -13.6720   21.1090 C   0  0  0  0  0  0  0  0  0  0  0  0
  -22.0300  -12.9990   21.9750 N   0  0  0  0  0  0  0  0  0  0  0  0
  -22.3570  -14.6920   20.5620 O   0  0  0  0  0  0  0  0  0  0  0  0
  -22.3840  -12.1730   22.4380 H   0  0  0  0  0  0  0  0  0  0  0  0
  -21.0910  -13.3120   22.1810 H   0  0  0  0  0  0  0  0  0  0  0  0
  -25.4150  -15.3160   20.3220 N   0  0  0  0  0  0  0  0  0  0  0  0
  -24.6340  -15.9610   20.3880 H   0  0  0  0  0  0  0  0  0  0  0  0
  -26.2440  -15.7410   19.9300 H   0  0  0  0  0  0  0  0  0  0  0  0
  -28.0330  -23.8530   19.7190 C   0  0  0  0  0  2  0  0  0  0  0  0
  -28.2610  -25.5590   20.0530 O   0  0  0  0  0  0  0  0  0  0  0  0
  -24.6900  -31.7730   23.0350 C   0  0  0  0  0  0  0  0  0  0  0  0
  -27.2900  -26.7720   19.9810 C   0  0  0  0  0  0  0  0  0  0  0  0
  -23.5220  -30.3830   21.3760 C   0  0  0  0  0  3  0  0  0  0  0  0
  -24.9940  -28.7740   19.9440 C   0  0  0  0  0  0  0  0  0  0  0  0
  -26.0980  -30.5600   21.2640 C   0  0  0  0  0  2  0  0  0  0  0  0
  -26.1830  -29.1370   20.5880 C   0  0  0  0  0  0  0  0  0  0  0  0
  -27.3130  -28.1630   20.5780 C   0  0  0  0  0  3  0  0  0  0  0  0
  -26.0670  -26.6230   19.2760 C   0  0  0  0  0  3  0  0  0  0  0  0
  -24.9760  -27.5430   19.2640 C   0  0  0  0  0  3  0  0  0  0  0  0
  -23.7730  -29.7060   19.9970 C   0  0  0  0  0  2  0  0  0  0  0  0
  -24.7940  -30.9380   21.9440 N   0  0  0  0  0  0  0  0  0  0  0  0
  -23.5920  -32.0520   23.5460 O   0  0  0  0  0  0  0  0  0  0  0  0
  -22.8160  -29.3850   22.3330 C   0  0  0  0  0  0  0  0  0  0  0  0
  -21.4790  -29.2490   22.2330 N   0  0  0  0  0  0  0  0  0  0  0  0
  -23.4830  -28.7310   23.1390 O   0  0  0  0  0  0  0  0  0  0  0  0
  -20.9910  -29.8220   21.5600 H   0  0  0  0  0  0  0  0  0  0  0  0
  -18.0840  -28.0980   22.8300 C   0  0  0  0  0  0  0  0  0  0  0  0
  -20.6600  -28.3010   23.0000 C   0  0  0  0  0  3  0  0  0  0  0  0
  -20.7040  -26.8910   22.3640 C   0  0  0  0  0  2  0  0  0  0  0  0
  -19.5560  -26.6380   21.3810 C   0  0  0  0  0  2  0  0  0  0  0  0
  -18.2040  -26.7800   22.0840 C   0  0  0  0  0  2  0  0  0  0  0  0
  -19.2360  -28.8200   23.2460 C   0  0  0  0  0  0  0  0  0  0  0  0
  -19.0650  -30.0540   23.9100 C   0  0  0  0  0  3  0  0  0  0  0  0
  -17.7780  -30.5660   24.1590 C   0  0  0  0  0  3  0  0  0  0  0  0
  -16.6430  -29.8430   23.7540 C   0  0  0  0  0  3  0  0  0  0  0  0
  -16.7970  -28.6100   23.0960 C   0  0  0  0  0  3  0  0  0  0  0  0
  -25.9430  -32.4310   23.6850 C   0  0  0  0  0  3  0  0  0  0  0  0
  -25.5960  -33.8170   24.0560 N   0  0  0  0  0  0  0  0  0  0  0  0
  -25.8990  -34.9080   23.3390 C   0  0  0  0  0  0  0  0  0  0  0  0
  -26.5590  -34.8530   22.2980 O   0  0  0  0  0  0  0  0  0  0  0  0
  -25.0050  -33.9290   24.8670 H   0  0  0  0  0  0  0  0  0  0  0  0
  -24.1300  -36.6860   23.0840 C   0  0  0  0  0  1  0  0  0  0  0  0
  -25.3960  -36.2740   23.8540 C   0  0  0  0  0  3  0  0  0  0  0  0
  -27.5280  -37.1820   24.6760 C   0  0  0  0  0  1  0  0  0  0  0  0
  -26.4060  -37.3520   23.7540 N   0  0  0  0  0  0  0  0  0  0  0  0
  -25.9850  -38.2580   23.9330 H   0  0  0  0  0  0  0  0  0  0  0  0
  -26.4580  -31.6520   24.9600 C   0  0  1  0  0  0  0  0  0  0  0  0
  -25.3600  -31.3950   26.0190 C   0  0  0  0  0  1  0  0  0  0  0  0
  -27.0590  -30.2830   24.5720 C   0  0  0  0  0  1  0  0  0  0  0  0
  -27.5950  -32.4520   25.6380 C   0  0  0  0  0  1  0  0  0  0  0  0
  1 16  1  0
  2  7  1  0
  3  4  1  0
  3  2  1  0
  5  4  1  0
  5 21  1  0
  5  6  1  0
  7  1  1  0
  7  6  1  0
  8  1  2  0
  9 10  1  0
 11  9  2  0
 12 15  2  0
 12 11  1  0
 13 16  1  0
 13 10  2  0
 14 12  1  0
 15 13  1  0
 16 17  1  0
 18 19  2  0
 19 38  1  0
 20 19  1  0
 20 23  1  0
 21 18  1  0
 21 22  1  0
 22 20  2  0
 23 24  1  0
 24 25  2  0
 26 29  1  0
 26 25  1  0
 27 26  2  0
 28 27  1  0
 28 23  2  0
 29 30  1  0
 30 31  1  0
 31 32  2  0
 33 32  1  0
 33 37  1  0
 34 33  2  0
 35 30  2  0
 35 34  1  0
 36 35  1  0
 38 39  1  0
 39 42  1  0
 39 41  1  0
 40 38  2  0
 43 44  1  0
 43 18  1  0
 45 43  1  0
 46 11  1  0
 46 47  1  0
 48 59  2  0
 49 47  1  0
 49 54  1  0
 50 58  1  0
 50 60  1  0
 51 57  1  0
 51 53  1  0
 52 58  1  0
 53 52  1  0
 54 53  2  0
 55 49  2  0
 56 55  1  0
 56 51  2  0
 57 50  1  0
 58 48  1  0
 60 62  2  0
 61 60  1  0
 63 61  1  0
 64 73  2  0
 64 69  1  0
 65 61  1  0
 65 69  1  0
 66 65  1  0
 67 68  1  0
 67 66  1  0
 68 64  1  0
 69 70  2  0
 70 71  1  0
 72 71  2  0
 73 72  1  0
 74 48  1  0
 74 75  1  0
 74 84  1  0
 75 78  1  0
 76 80  1  0
 76 75  1  0
 77 76  2  0
 80 79  1  0
 82 80  1  0
 82 83  1  0
 82 81  1  0
 84 87  1  1
 84 85  1  0
 86 84  1  0
M  ISO  4   1 100  16 100  46 101  47 101
M  END
>  <TORSDO>  (59) 
F 16

>  <SCORE>  (59) 
-16.119

>  <name>  (59) 
59

>  <ligand_id>  (59) 
59

>  <original_smiles>  (59) 
[H]c1c(N([H])C(=O)N2C([H])([H])C([H])([H])C([H])([H])C([H])(n3nc(-c4c([H])c([H])c(Oc5c([H])c([H])c(F)c([H])c5F)c([H])c4[H])c(C(=O)N([H])[H])c3N([H])[H])C2([H])[H])nc(C([H])([H])[H])c(C([H])([H])Oc2c([H])c([H])c3c(c2[H])C([H])([H])N(C(=O)C([H])(N([H])C(=O)C([H])(N([H])C([H])([H])[H])C([H])([H])[H])C(C([H])([H])[H])(C([H])([H])[H])C([H])([H])[H])C([H])(C(=O)N([H])C2([H])c4c([H])c([H])c([H])c([H])c4C([H])([H])C([H])([H])C2([H])[H])C3([H])[H])c1[H]

>  <smiles>  (59) 
[H]c1c(N([H])C(=O)N2C([H])([H])C([H])([H])C([H])([H])C([H])(n3nc(-c4c([H])c([H])c(Oc5c([H])c([H])c(F)c([H])c5F)c([H])c4[H])c(C(=O)N([H])[H])c3N([H])[H])C2([H])[H])nc(C([H])([H])[H])c(C([H])([H])Oc2c([H])c([H])c3c(c2[H])C([H])([H])N(C(=O)C([H])(N([H])C(=O)C([H])(N([H])C([H])([H])[H])C([H])([H])[H])C(C([H])([H])[H])(C([H])([H])[H])C([H])([H])[H])C([H])(C(=O)N([H])C2([H])c4c([H])c([H])c([H])c([H])c4C([H])([H])C([H])([H])C2([H])[H])C3([H])[H])c1[H]

$$$$
60:0:0
     RDKit          3D

 92101  0  0  1  0  0  0  0  0999 V2000
  -30.3990  -19.3350   20.5450 C   0  0  0  0  0  0  0  0  0  0  0  0
  -30.1070  -19.0740   19.1810 C   0  0  0  0  0  0  0  0  0  0  0  0
  -29.8140  -21.6220   20.3670 C   0  0  0  0  0  0  0  0  0  0  0  0
  -29.4360  -21.5290   19.0000 C   0  0  0  0  0  0  0  0  0  0  0  0
  -29.8490  -22.9300   21.1310 C   0  0  0  0  0  1  0  0  0  0  0  0
  -30.2550  -20.5660   21.0970 N   0  0  0  0  0  0  0  0  0  0  0  0
  -29.6210  -20.2130   18.4370 N   0  0  0  0  0  0  0  0  0  0  0  0
  -30.1790  -17.1270   21.9440 C   0  0  0  0  0  2  0  0  0  0  0  0
  -30.5830  -18.1860   22.9300 C   0  0  0  0  0  2  0  0  0  0  0  0
  -31.0000  -18.3110   21.4740 C   0  0  0  0  0  3  0  0  0  0  0  0
  -29.0500  -22.9280   18.1510 C   0  0  0  0  0  2  0  0  0  0  0  0
  -28.0350  -24.2460   18.5920 C   0  0  0  0  0  2  0  0  0  0  0  0
  -28.1850  -25.7970   18.3330 O   0  0  0  0  0  0  0  0  0  0  0  0
  -24.8250  -30.5920   22.8930 C   0  0  0  0  0  0  0  0  0  0  0  0
  -27.1320  -26.7550   18.6250 C   0  0  0  0  0  0  0  0  0  0  0  0
  -23.4930  -29.6090   21.0690 C   0  0  0  0  0  3  0  0  0  0  0  0
  -24.8170  -28.4410   19.1980 C   0  0  0  0  0  0  0  0  0  0  0  0
  -26.0280  -29.9400   20.7700 C   0  0  0  0  0  2  0  0  0  0  0  0
  -26.0450  -28.7430   19.7990 C   0  0  0  0  0  0  0  0  0  0  0  0
  -27.2020  -27.9220   19.4960 C   0  0  0  0  0  3  0  0  0  0  0  0
  -25.8730  -26.5740   18.0100 C   0  0  0  0  0  3  0  0  0  0  0  0
  -24.7440  -27.3770   18.2880 C   0  0  0  0  0  3  0  0  0  0  0  0
  -23.6000  -29.2830   19.5560 C   0  0  0  0  0  2  0  0  0  0  0  0
  -24.8070  -30.0570   21.6350 N   0  0  0  0  0  0  0  0  0  0  0  0
  -23.7860  -30.7260   23.5580 O   0  0  0  0  0  0  0  0  0  0  0  0
  -22.8910  -28.3920   21.8140 C   0  0  0  0  0  0  0  0  0  0  0  0
  -21.5650  -28.1940   21.6980 N   0  0  0  0  0  0  0  0  0  0  0  0
  -23.6160  -27.6340   22.4620 O   0  0  0  0  0  0  0  0  0  0  0  0
  -21.0310  -28.8620   21.1590 H   0  0  0  0  0  0  0  0  0  0  0  0
  -18.2600  -26.7350   21.9980 C   0  0  0  0  0  0  0  0  0  0  0  0
  -20.8090  -27.0790   22.2750 C   0  0  0  0  0  3  0  0  0  0  0  0
  -20.9680  -25.7990   21.4230 C   0  0  0  0  0  2  0  0  0  0  0  0
  -19.8580  -25.6270   20.3800 C   0  0  0  0  0  2  0  0  0  0  0  0
  -18.4880  -25.5630   21.0590 C   0  0  0  0  0  2  0  0  0  0  0  0
  -19.3500  -27.4570   22.5560 C   0  0  0  0  0  0  0  0  0  0  0  0
  -19.0800  -28.5590   23.3970 C   0  0  0  0  0  3  0  0  0  0  0  0
  -17.7560  -28.9410   23.6820 C   0  0  0  0  0  3  0  0  0  0  0  0
  -16.6820  -28.2150   23.1370 C   0  0  0  0  0  3  0  0  0  0  0  0
  -16.9360  -27.1120   22.3020 C   0  0  0  0  0  3  0  0  0  0  0  0
  -26.1500  -31.0810   23.5530 C   0  0  0  0  0  3  0  0  0  0  0  0
  -26.7350  -30.0560   24.6010 C   0  0  1  0  0  0  0  0  0  0  0  0
  -25.7130  -29.6080   25.6720 C   0  0  0  0  0  1  0  0  0  0  0  0
  -27.2630  -28.7860   23.8950 C   0  0  0  0  0  1  0  0  0  0  0  0
  -27.9460  -30.6870   25.3300 C   0  0  0  0  0  1  0  0  0  0  0  0
  -25.8800  -32.3750   24.2000 N   0  0  0  0  0  0  0  0  0  0  0  0
  -26.2350  -33.5680   23.7050 C   0  0  0  0  0  0  0  0  0  0  0  0
  -26.8910  -33.6890   22.6670 O   0  0  0  0  0  0  0  0  0  0  0  0
  -25.2950  -32.3530   25.0230 H   0  0  0  0  0  0  0  0  0  0  0  0
  -24.5770  -35.4600   23.7890 C   0  0  0  0  0  1  0  0  0  0  0  0
  -25.7940  -34.8240   24.4820 C   0  0  0  0  0  3  0  0  0  0  0  0
  -27.9410  -35.4120   25.5160 C   0  0  0  0  0  1  0  0  0  0  0  0
  -26.8650  -35.8350   24.6240 N   0  0  0  0  0  0  0  0  0  0  0  0
  -26.4890  -36.7130   24.9740 H   0  0  0  0  0  0  0  0  0  0  0  0
  -30.4770  -17.5730   18.5370 C   0  0  0  0  0  2  0  0  0  0  0  0
  -31.0640  -14.9100   19.0890 C   0  0  0  0  0  0  0  0  0  0  0  0
  -30.9220  -12.4180   18.6020 C   0  0  0  0  0  2  0  0  0  0  0  0
  -29.8470  -12.1320   17.5260 C   0  0  0  0  0  2  0  0  0  0  0  0
  -28.4580  -11.9750   18.1730 C   0  0  0  0  0  2  0  0  0  0  0  0
  -28.1660  -13.0850   19.2160 C   0  0  0  0  0  3  0  0  0  0  0  0
  -29.3520  -13.3150   20.1760 C   0  0  0  0  0  2  0  0  0  0  0  0
  -30.5160  -13.6490   19.3460 N   0  0  0  0  0  0  0  0  0  0  0  0
  -32.2070  -14.9260   18.6190 O   0  0  0  0  0  0  0  0  0  0  0  0
  -30.2850  -16.1100   19.1550 N   0  0  0  0  0  0  0  0  0  0  0  0
  -29.3720  -15.9650   19.5550 H   0  0  0  0  0  0  0  0  0  0  0  0
  -26.0620  -13.7930   20.4860 C   0  0  0  0  0  0  0  0  0  0  0  0
  -24.9900  -13.0890   20.9600 C   0  0  0  0  0  0  0  0  0  0  0  0
  -25.2540  -11.7170   20.6610 C   0  0  0  0  0  0  0  0  0  0  0  0
  -26.9150  -12.8560   19.9290 N   0  0  0  0  0  0  0  0  0  0  0  0
  -26.4490  -11.5910   20.0950 N   0  0  0  0  0  0  0  0  0  0  0  0
  -24.4090  -10.5260   20.8260 C   0  0  0  0  0  0  0  0  0  0  0  0
  -24.7330   -9.5120   21.7550 C   0  0  0  0  0  3  0  0  0  0  0  0
  -23.8930   -8.3880   21.9090 C   0  0  0  0  0  3  0  0  0  0  0  0
  -22.7150   -8.2700   21.1350 C   0  0  0  0  0  0  0  0  0  0  0  0
  -22.4080   -9.2720   20.1960 C   0  0  0  0  0  3  0  0  0  0  0  0
  -23.2470  -10.3860   20.0400 C   0  0  0  0  0  3  0  0  0  0  0  0
  -21.8530   -7.2020   21.2000 O   0  0  0  0  0  0  0  0  0  0  0  0
  -21.4750   -6.6540   22.4000 C   0  0  0  0  0  0  0  0  0  0  0  0
  -20.7900   -7.4060   23.3790 C   0  0  0  0  0  3  0  0  0  0  0  0
  -20.3580   -6.7850   24.5690 C   0  0  0  0  0  3  0  0  0  0  0  0
  -20.6010   -5.4140   24.7770 C   0  0  0  0  0  0  0  0  0  0  0  0
  -21.2780   -4.6630   23.8000 C   0  0  0  0  0  3  0  0  0  0  0  0
  -21.7110   -5.2810   22.6130 C   0  0  0  0  0  0  0  0  0  0  0  0
  -22.3440   -4.5480   21.6660 F   0  0  0  0  0  0  0  0  0  0  0  0
  -20.1800   -4.8160   25.9150 F   0  0  0  0  0  0  0  0  0  0  0  0
  -23.7430  -13.6670   21.5630 C   0  0  0  0  0  0  0  0  0  0  0  0
  -23.1210  -12.9490   22.4910 N   0  0  0  0  0  0  0  0  0  0  0  0
  -23.3410  -14.7860   21.2480 O   0  0  0  0  0  0  0  0  0  0  0  0
  -23.4630  -12.0400   22.7660 H   0  0  0  0  0  0  0  0  0  0  0  0
  -22.2900  -13.3130   22.9340 H   0  0  0  0  0  0  0  0  0  0  0  0
  -26.3680  -15.1490   20.4530 N   0  0  0  0  0  0  0  0  0  0  0  0
  -25.7200  -15.8500   20.7930 H   0  0  0  0  0  0  0  0  0  0  0  0
  -27.1480  -15.5460   19.9460 H   0  0  0  0  0  0  0  0  0  0  0  0
  1  6  1  0
  1 10  1  0
  2  1  2  0
  3  6  2  0
  3  5  1  0
  4  3  1  0
  7  4  2  0
  7  2  1  0
  8  9  1  0
 10  8  1  0
 10  9  1  0
 11 12  1  0
 11  4  1  0
 13 12  1  0
 13 15  1  0
 14 25  2  0
 15 20  1  0
 16 24  1  0
 16 26  1  0
 17 23  1  0
 17 19  1  0
 18 24  1  0
 19 18  1  0
 20 19  2  0
 21 22  1  0
 21 15  2  0
 22 17  2  0
 23 16  1  0
 24 14  1  0
 26 28  2  0
 27 26  1  0
 29 27  1  0
 30 39  2  0
 30 35  1  0
 31 27  1  0
 31 35  1  0
 32 31  1  0
 33 34  1  0
 33 32  1  0
 34 30  1  0
 35 36  2  0
 36 37  1  0
 38 37  2  0
 39 38  1  0
 40 14  1  0
 40 45  1  0
 40 41  1  0
 41 44  1  1
 41 42  1  0
 43 41  1  0
 45 48  1  0
 46 45  1  0
 46 50  1  0
 47 46  2  0
 50 49  1  0
 50 52  1  0
 52 53  1  0
 52 51  1  0
 54 63  1  0
 54  2  1  0
 55 63  1  0
 55 61  1  0
 56 61  1  0
 57 58  1  0
 57 56  1  0
 59 58  1  0
 59 68  1  0
 59 60  1  0
 61 60  1  0
 62 55  2  0
 63 64  1  0
 65 66  2  0
 66 85  1  0
 67 70  1  0
 67 66  1  0
 68 69  1  0
 68 65  1  0
 69 67  2  0
 70 71  1  0
 71 72  2  0
 73 76  1  0
 73 72  1  0
 74 73  2  0
 75 74  1  0
 75 70  2  0
 76 77  1  0
 77 82  2  0
 77 78  1  0
 78 79  2  0
 79 80  1  0
 80 84  1  0
 81 80  2  0
 82 81  1  0
 83 82  1  0
 85 86  1  0
 86 88  1  0
 86 89  1  0
 87 85  2  0
 90 65  1  0
 90 91  1  0
 92 90  1  0
M  ISO  4  12 101  13 101  55 100  63 100
M  END
>  <TORSDO>  (60) 
F 20

>  <SCORE>  (60) 
-9.920

>  <name>  (60) 
60

>  <ligand_id>  (60) 
60

>  <original_smiles>  (60) 
[H]c1c([H])c([H])c2c(c1[H])C([H])([H])C([H])([H])C([H])([H])C2([H])N([H])C(=O)C1([H])N(C(=O)C([H])(N([H])C(=O)C([H])(N([H])C([H])([H])[H])C([H])([H])[H])C(C([H])([H])[H])(C([H])([H])[H])C([H])([H])[H])C([H])([H])c2c([H])c(OC([H])([H])C([H])([H])c3nc(C([H])([H])N([H])C(=O)N4C([H])([H])C([H])([H])C([H])([H])C([H])(n5nc(-c6c([H])c([H])c(Oc7c([H])c([H])c(F)c([H])c7F)c([H])c6[H])c(C(=O)N([H])[H])c5N([H])[H])C4([H])[H])c(C4([H])C([H])([H])C4([H])[H])nc3C([H])([H])[H])c([H])c([H])c2C1([H])[H]

>  <smiles>  (60) 
[H]c1c([H])c([H])c2c(c1[H])C([H])([H])C([H])([H])C([H])([H])C2([H])N([H])C(=O)C1([H])N(C(=O)C([H])(N([H])C(=O)C([H])(N([H])C([H])([H])[H])C([H])([H])[H])C(C([H])([H])[H])(C([H])([H])[H])C([H])([H])[H])C([H])([H])c2c([H])c(OC([H])([H])C([H])([H])c3nc(C([H])([H])N([H])C(=O)N4C([H])([H])C([H])([H])C([H])([H])C([H])(n5nc(-c6c([H])c([H])c(Oc7c([H])c([H])c(F)c([H])c7F)c([H])c6[H])c(C(=O)N([H])[H])c5N([H])[H])C4([H])[H])c(C4([H])C([H])([H])C4([H])[H])nc3C([H])([H])[H])c([H])c([H])c2C1([H])[H]

$$$$
61:0:0
     RDKit          3D

 95105  0  0  1  0  0  0  0  0999 V2000
  -30.6000  -22.7080   21.2110 C   0  0  0  0  0  3  0  0  0  0  0  0
  -29.6630  -20.6340   20.3310 C   0  0  0  0  0  0  0  0  0  0  0  0
  -30.7840  -21.3680   20.8040 C   0  0  0  0  0  0  0  0  0  0  0  0
  -29.3310  -23.3180   21.1450 C   0  0  0  0  0  0  0  0  0  0  0  0
  -28.4210  -21.3300   20.2830 C   0  0  0  0  0  0  0  0  0  0  0  0
  -32.1800  -20.7740   20.9420 C   0  0  0  0  0  1  0  0  0  0  0  0
  -27.1510  -20.6700   19.7640 C   0  0  0  0  0  1  0  0  0  0  0  0
  -28.2590  -22.6230   20.6930 N   0  0  0  0  0  0  0  0  0  0  0  0
  -30.1130  -25.7590   21.6030 C   0  0  0  0  0  2  0  0  0  0  0  0
  -29.1100  -24.6510   21.8570 C   0  0  0  0  0  3  0  0  0  0  0  0
  -28.6500  -26.0750   21.4480 C   0  0  0  0  0  3  0  0  0  0  0  0
  -28.3600  -26.5420   20.1180 O   0  0  0  0  0  0  0  0  0  0  0  0
  -24.5170  -31.7780   23.1310 C   0  0  0  0  0  0  0  0  0  0  0  0
  -27.2410  -27.3540   20.0730 C   0  0  0  0  0  0  0  0  0  0  0  0
  -23.3490  -30.3770   21.4600 C   0  0  0  0  0  3  0  0  0  0  0  0
  -24.8410  -28.8610   20.0400 C   0  0  0  0  0  0  0  0  0  0  0  0
  -25.8760  -30.7520   21.3060 C   0  0  0  0  0  2  0  0  0  0  0  0
  -25.9840  -29.3830   20.6600 C   0  0  0  0  0  0  0  0  0  0  0  0
  -27.1870  -28.6370   20.6760 C   0  0  0  0  0  3  0  0  0  0  0  0
  -26.0890  -26.8600   19.4290 C   0  0  0  0  0  3  0  0  0  0  0  0
  -24.8910  -27.6010   19.4170 C   0  0  0  0  0  3  0  0  0  0  0  0
  -23.5870  -29.7100   20.0780 C   0  0  0  0  0  2  0  0  0  0  0  0
  -24.5990  -30.9840   22.0250 N   0  0  0  0  0  0  0  0  0  0  0  0
  -23.4260  -32.0360   23.6560 O   0  0  0  0  0  0  0  0  0  0  0  0
  -22.6910  -29.3440   22.4030 C   0  0  0  0  0  0  0  0  0  0  0  0
  -21.3670  -29.1620   22.2650 N   0  0  0  0  0  0  0  0  0  0  0  0
  -23.3690  -28.7120   23.2180 O   0  0  0  0  0  0  0  0  0  0  0  0
  -20.8830  -29.7240   21.5800 H   0  0  0  0  0  0  0  0  0  0  0  0
  -17.9900  -27.9610   22.7230 C   0  0  0  0  0  0  0  0  0  0  0  0
  -20.5450  -28.2140   23.0180 C   0  0  0  0  0  3  0  0  0  0  0  0
  -20.6520  -26.7910   22.4210 C   0  0  0  0  0  2  0  0  0  0  0  0
  -19.5560  -26.4820   21.3970 C   0  0  0  0  0  2  0  0  0  0  0  0
  -18.1700  -26.6190   22.0320 C   0  0  0  0  0  2  0  0  0  0  0  0
  -19.1060  -28.7160   23.1730 C   0  0  0  0  0  0  0  0  0  0  0  0
  -18.8830  -29.9720   23.7780 C   0  0  0  0  0  3  0  0  0  0  0  0
  -17.5770  -30.4720   23.9410 C   0  0  0  0  0  3  0  0  0  0  0  0
  -16.4760  -29.7130   23.5080 C   0  0  0  0  0  3  0  0  0  0  0  0
  -16.6830  -28.4600   22.9040 C   0  0  0  0  0  3  0  0  0  0  0  0
  -25.7890  -32.4130   23.7730 C   0  0  0  0  0  3  0  0  0  0  0  0
  -26.3010  -31.6270   25.0420 C   0  0  1  0  0  0  0  0  0  0  0  0
  -25.2010  -31.3620   26.0960 C   0  0  0  0  0  1  0  0  0  0  0  0
  -26.8990  -30.2610   24.6320 C   0  0  0  0  0  1  0  0  0  0  0  0
  -27.4380  -32.4220   25.7260 C   0  0  0  0  0  1  0  0  0  0  0  0
  -25.4620  -33.8030   24.1190 N   0  0  0  0  0  0  0  0  0  0  0  0
  -25.7980  -34.8690   23.3790 C   0  0  0  0  0  0  0  0  0  0  0  0
  -26.4840  -34.7850   22.3570 O   0  0  0  0  0  0  0  0  0  0  0  0
  -24.8470  -33.9420   24.9080 H   0  0  0  0  0  0  0  0  0  0  0  0
  -24.0590  -36.6480   23.0170 C   0  0  0  0  0  1  0  0  0  0  0  0
  -25.2900  -36.2460   23.8460 C   0  0  0  0  0  3  0  0  0  0  0  0
  -27.4020  -37.1380   24.7240 C   0  0  0  0  0  1  0  0  0  0  0  0
  -26.3150  -37.3090   23.7640 N   0  0  0  0  0  0  0  0  0  0  0  0
  -25.8980  -38.2240   23.9180 H   0  0  0  0  0  0  0  0  0  0  0  0
  -29.8290  -19.2390   19.7750 C   0  0  0  0  0  0  0  0  0  0  0  0
  -30.2270  -19.0650   18.6210 O   0  0  0  0  0  0  0  0  0  0  0  0
  -30.2140  -17.7450   21.9150 C   0  0  0  0  0  2  0  0  0  0  0  0
  -29.4890  -18.0140   20.6220 C   0  0  0  0  0  3  0  0  0  0  0  0
  -30.5420  -16.8860   20.7090 C   0  0  0  0  0  3  0  0  0  0  0  0
  -30.8250  -14.4610   20.1520 C   0  0  0  0  0  0  0  0  0  0  0  0
  -30.4520  -12.3340   18.9530 C   0  0  0  0  0  2  0  0  0  0  0  0
  -29.4590  -12.5920   17.8010 C   0  0  0  0  0  2  0  0  0  0  0  0
  -28.0030  -12.4670   18.2910 C   0  0  0  0  0  2  0  0  0  0  0  0
  -27.7410  -13.2610   19.5990 C   0  0  0  0  0  3  0  0  0  0  0  0
  -28.8400  -12.9850   20.6460 C   0  0  0  0  0  2  0  0  0  0  0  0
  -30.1400  -13.2910   20.0290 N   0  0  0  0  0  0  0  0  0  0  0  0
  -31.9400  -14.6340   19.6500 O   0  0  0  0  0  0  0  0  0  0  0  0
  -30.1380  -15.4880   20.7020 N   0  0  0  0  0  0  0  0  0  0  0  0
  -29.2260  -15.2600   21.0660 H   0  0  0  0  0  0  0  0  0  0  0  0
  -25.3840  -13.8880   20.4150 C   0  0  0  0  0  0  0  0  0  0  0  0
  -24.3220  -13.1250   20.8190 C   0  0  0  0  0  0  0  0  0  0  0  0
  -24.7630  -11.7690   20.7520 C   0  0  0  0  0  0  0  0  0  0  0  0
  -26.4060  -12.9970   20.1310 N   0  0  0  0  0  0  0  0  0  0  0  0
  -26.0390  -11.7160   20.3920 N   0  0  0  0  0  0  0  0  0  0  0  0
  -24.0300  -10.5130   20.9580 C   0  0  0  0  0  0  0  0  0  0  0  0
  -24.4760   -9.5390   21.8780 C   0  0  0  0  0  3  0  0  0  0  0  0
  -23.7440   -8.3490   22.0720 C   0  0  0  0  0  3  0  0  0  0  0  0
  -22.5510   -8.1220   21.3450 C   0  0  0  0  0  0  0  0  0  0  0  0
  -22.1230   -9.0850   20.4130 C   0  0  0  0  0  3  0  0  0  0  0  0
  -22.8550  -10.2680   20.2180 C   0  0  0  0  0  3  0  0  0  0  0  0
  -21.7880   -6.9850   21.4480 O   0  0  0  0  0  0  0  0  0  0  0  0
  -21.7410   -6.2530   22.6080 C   0  0  0  0  0  0  0  0  0  0  0  0
  -21.3250   -6.8230   23.8310 C   0  0  0  0  0  3  0  0  0  0  0  0
  -21.2230   -6.0190   24.9840 C   0  0  0  0  0  3  0  0  0  0  0  0
  -21.5260   -4.6460   24.9150 C   0  0  0  0  0  0  0  0  0  0  0  0
  -21.9320   -4.0750   23.6960 C   0  0  0  0  0  3  0  0  0  0  0  0
  -22.0370   -4.8760   22.5450 C   0  0  0  0  0  0  0  0  0  0  0  0
  -22.4090   -4.3170   21.3690 F   0  0  0  0  0  0  0  0  0  0  0  0
  -21.4210   -3.8710   26.0200 F   0  0  0  0  0  0  0  0  0  0  0  0
  -22.9450  -13.6170   21.1580 C   0  0  0  0  0  0  0  0  0  0  0  0
  -22.2470  -12.9180   22.0450 N   0  0  0  0  0  0  0  0  0  0  0  0
  -22.4970  -14.6530   20.6680 O   0  0  0  0  0  0  0  0  0  0  0  0
  -22.6250  -12.0800   22.4620 H   0  0  0  0  0  0  0  0  0  0  0  0
  -21.3210  -13.2250   22.3110 H   0  0  0  0  0  0  0  0  0  0  0  0
  -25.5640  -15.2590   20.2440 N   0  0  0  0  0  0  0  0  0  0  0  0
  -24.8120  -15.9270   20.3780 H   0  0  0  0  0  0  0  0  0  0  0  0
  -26.3990  -15.6800   19.8570 H   0  0  0  0  0  0  0  0  0  0  0  0
  2  3  1  0
  3  6  1  0
  3  1  2  0
  4  1  1  0
  5  2  2  0
  5  8  1  0
  7  5  1  0
  8  4  2  0
  9 10  1  0
 10  4  1  0
 11 12  1  0
 11  9  1  0
 11 10  1  0
 13 24  2  0
 14 12  1  0
 14 19  1  0
 15 23  1  0
 15 25  1  0
 16 22  1  0
 16 18  1  0
 17 23  1  0
 18 19  2  0
 18 17  1  0
 20 14  2  0
 21 20  1  0
 21 16  2  0
 22 15  1  0
 23 13  1  0
 25 27  2  0
 26 25  1  0
 28 26  1  0
 29 38  2  0
 29 34  1  0
 30 26  1  0
 30 34  1  0
 31 30  1  0
 32 33  1  0
 32 31  1  0
 33 29  1  0
 34 35  2  0
 35 36  1  0
 37 36  2  0
 38 37  1  0
 39 13  1  0
 39 44  1  0
 39 40  1  0
 40 43  1  1
 40 41  1  0
 42 40  1  0
 44 47  1  0
 45 49  1  0
 45 44  1  0
 46 45  2  0
 49 48  1  0
 51 49  1  0
 51 52  1  0
 51 50  1  0
 53  2  1  0
 54 53  2  0
 56 53  1  0
 56 57  1  0
 56 55  1  0
 57 66  1  0
 57 55  1  0
 58 66  1  0
 59 64  1  0
 60 61  1  0
 60 59  1  0
 62 61  1  0
 62 71  1  0
 62 63  1  0
 64 58  1  0
 64 63  1  0
 65 58  2  0
 66 67  1  0
 68 69  2  0
 69 88  1  0
 70 69  1  0
 70 73  1  0
 71 72  1  0
 71 68  1  0
 72 70  2  0
 73 74  1  0
 74 75  2  0
 76 79  1  0
 76 75  1  0
 77 76  2  0
 78 77  1  0
 78 73  2  0
 79 80  1  0
 80 81  1  0
 81 82  2  0
 83 82  1  0
 83 87  1  0
 84 83  2  0
 85 80  2  0
 85 84  1  0
 86 85  1  0
 88 89  1  0
 89 92  1  0
 89 91  1  0
 90 88  2  0
 93 94  1  0
 93 68  1  0
 95 93  1  0
M  ISO  4  11 101  12 101  58 100  66 100
M  END
>  <TORSDO>  (61) 
F 19

>  <SCORE>  (61) 
-14.122

>  <name>  (61) 
61

>  <ligand_id>  (61) 
61

>  <original_smiles>  (61) 
[H]c1c([H])c([H])c2c(c1[H])C([H])([H])C([H])([H])C([H])([H])C2([H])N([H])C(=O)C1([H])N(C(=O)C([H])(N([H])C(=O)C([H])(N([H])C([H])([H])[H])C([H])([H])[H])C(C([H])([H])[H])(C([H])([H])[H])C([H])([H])[H])C([H])([H])c2c([H])c(OC3([H])C([H])([H])C3([H])c3nc(C([H])([H])[H])c(C(=O)C4([H])C([H])([H])C4([H])N([H])C(=O)N4C([H])([H])C([H])([H])C([H])([H])C([H])(n5nc(-c6c([H])c([H])c(Oc7c([H])c([H])c(F)c([H])c7F)c([H])c6[H])c(C(=O)N([H])[H])c5N([H])[H])C4([H])[H])c(C([H])([H])[H])c3[H])c([H])c([H])c2C1([H])[H]

>  <smiles>  (61) 
[H]c1c([H])c([H])c2c(c1[H])C([H])([H])C([H])([H])C([H])([H])C2([H])N([H])C(=O)C1([H])N(C(=O)C([H])(N([H])C(=O)C([H])(N([H])C([H])([H])[H])C([H])([H])[H])C(C([H])([H])[H])(C([H])([H])[H])C([H])([H])[H])C([H])([H])c2c([H])c(OC3([H])C([H])([H])C3([H])c3nc(C([H])([H])[H])c(C(=O)C4([H])C([H])([H])C4([H])N([H])C(=O)N4C([H])([H])C([H])([H])C([H])([H])C([H])(n5nc(-c6c([H])c([H])c(Oc7c([H])c([H])c(F)c([H])c7F)c([H])c6[H])c(C(=O)N([H])[H])c5N([H])[H])C4([H])[H])c(C([H])([H])[H])c3[H])c([H])c([H])c2C1([H])[H]

$$$$
62:0:0
     RDKit          3D

 90 99  0  0  1  0  0  0  0  0999 V2000
  -28.9570  -21.3200   18.6280 C   0  0  0  0  0  3  0  0  0  0  0  0
  -28.7390  -22.7110   18.9680 C   0  0  0  0  0  3  0  0  0  0  0  0
  -29.5590  -22.2560   21.1450 C   0  0  0  0  0  3  0  0  0  0  0  0
  -29.4670  -20.3270   19.5310 C   0  0  0  0  0  0  0  0  0  0  0  0
  -29.7900  -20.8460   20.8060 C   0  0  0  0  0  0  0  0  0  0  0  0
  -29.0080  -23.2700   20.2540 C   0  0  0  0  0  0  0  0  0  0  0  0
  -29.6010  -18.7560   19.1610 C   0  0  0  0  0  2  0  0  0  0  0  0
  -30.4040  -19.8290   21.7930 C   0  0  0  0  0  2  0  0  0  0  0  0
  -30.0870  -18.2930   21.5620 C   0  0  0  0  0  2  0  0  0  0  0  0
  -30.3590  -17.6940   20.1410 C   0  0  0  0  0  3  0  0  0  0  0  0
  -30.8540  -14.9540   19.8760 C   0  0  0  0  0  0  0  0  0  0  0  0
  -30.6390  -12.6050   18.9460 C   0  0  0  0  0  2  0  0  0  0  0  0
  -29.6260  -12.5770   17.7790 C   0  0  0  0  0  2  0  0  0  0  0  0
  -28.1880  -12.3980   18.3040 C   0  0  0  0  0  2  0  0  0  0  0  0
  -27.8740  -13.3310   19.5020 C   0  0  0  0  0  3  0  0  0  0  0  0
  -29.0010  -13.3190   20.5570 C   0  0  0  0  0  2  0  0  0  0  0  0
  -30.2370  -13.7060   19.8650 N   0  0  0  0  0  0  0  0  0  0  0  0
  -32.0420  -15.0080   19.5440 O   0  0  0  0  0  0  0  0  0  0  0  0
  -30.0820  -16.1330   20.0610 N   0  0  0  0  0  0  0  0  0  0  0  0
  -29.1150  -15.9060   20.2350 H   0  0  0  0  0  0  0  0  0  0  0  0
  -25.5700  -13.9590   20.4220 C   0  0  0  0  0  0  0  0  0  0  0  0
  -24.5080  -13.2050   20.8420 C   0  0  0  0  0  0  0  0  0  0  0  0
  -24.9260  -11.8420   20.7380 C   0  0  0  0  0  0  0  0  0  0  0  0
  -26.5650  -13.0570   20.0840 N   0  0  0  0  0  0  0  0  0  0  0  0
  -26.1920  -11.7760   20.3410 N   0  0  0  0  0  0  0  0  0  0  0  0
  -24.1730  -10.5970   20.9400 C   0  0  0  0  0  0  0  0  0  0  0  0
  -24.6040   -9.6110   21.8550 C   0  0  0  0  0  3  0  0  0  0  0  0
  -23.8500   -8.4330   22.0450 C   0  0  0  0  0  3  0  0  0  0  0  0
  -22.6520   -8.2320   21.3200 C   0  0  0  0  0  0  0  0  0  0  0  0
  -22.2400   -9.2050   20.3920 C   0  0  0  0  0  3  0  0  0  0  0  0
  -22.9930  -10.3750   20.2010 C   0  0  0  0  0  3  0  0  0  0  0  0
  -21.8690   -7.1070   21.4200 O   0  0  0  0  0  0  0  0  0  0  0  0
  -21.7830   -6.3930   22.5880 C   0  0  0  0  0  0  0  0  0  0  0  0
  -21.3290   -6.9800   23.7890 C   0  0  0  0  0  3  0  0  0  0  0  0
  -21.1880   -6.1940   24.9500 C   0  0  0  0  0  3  0  0  0  0  0  0
  -21.4920   -4.8190   24.9090 C   0  0  0  0  0  0  0  0  0  0  0  0
  -21.9390   -4.2310   23.7130 C   0  0  0  0  0  3  0  0  0  0  0  0
  -22.0810   -5.0160   22.5550 C   0  0  0  0  0  0  0  0  0  0  0  0
  -22.4910   -4.4390   21.3990 F   0  0  0  0  0  0  0  0  0  0  0  0
  -21.3500   -4.0600   26.0220 F   0  0  0  0  0  0  0  0  0  0  0  0
  -23.1480  -13.7160   21.2200 C   0  0  0  0  0  0  0  0  0  0  0  0
  -22.4620  -13.0230   22.1210 N   0  0  0  0  0  0  0  0  0  0  0  0
  -22.7060  -14.7640   20.7500 O   0  0  0  0  0  0  0  0  0  0  0  0
  -22.8350  -12.1750   22.5230 H   0  0  0  0  0  0  0  0  0  0  0  0
  -21.5500  -13.3440   22.4150 H   0  0  0  0  0  0  0  0  0  0  0  0
  -25.7630  -15.3300   20.2720 N   0  0  0  0  0  0  0  0  0  0  0  0
  -25.0200  -15.9970   20.4480 H   0  0  0  0  0  0  0  0  0  0  0  0
  -26.5800  -15.7530   19.8550 H   0  0  0  0  0  0  0  0  0  0  0  0
  -28.4540  -24.7460   20.7700 C   0  0  0  0  0  2  0  0  0  0  0  0
  -28.7520  -26.1890   20.2730 O   0  0  0  0  0  0  0  0  0  0  0  0
  -24.8240  -31.7310   23.2090 C   0  0  0  0  0  0  0  0  0  0  0  0
  -27.6740  -27.1480   20.2290 C   0  0  0  0  0  0  0  0  0  0  0  0
  -23.7280  -30.3000   21.5290 C   0  0  0  0  0  3  0  0  0  0  0  0
  -25.2800  -28.7960   20.1380 C   0  0  0  0  0  0  0  0  0  0  0  0
  -26.2730  -30.6690   21.4410 C   0  0  0  0  0  2  0  0  0  0  0  0
  -26.4230  -29.2840   20.7860 C   0  0  0  0  0  0  0  0  0  0  0  0
  -27.6240  -28.4770   20.8150 C   0  0  0  0  0  3  0  0  0  0  0  0
  -26.5080  -26.7690   19.5310 C   0  0  0  0  0  3  0  0  0  0  0  0
  -25.3360  -27.5510   19.4940 C   0  0  0  0  0  3  0  0  0  0  0  0
  -24.0140  -29.6400   20.1550 C   0  0  0  0  0  2  0  0  0  0  0  0
  -24.9590  -30.9230   22.1150 N   0  0  0  0  0  0  0  0  0  0  0  0
  -23.7130  -31.9690   23.7070 O   0  0  0  0  0  0  0  0  0  0  0  0
  -23.0640  -29.2600   22.4660 C   0  0  0  0  0  0  0  0  0  0  0  0
  -21.7480  -29.0350   22.2980 N   0  0  0  0  0  0  0  0  0  0  0  0
  -23.7350  -28.6580   23.3080 O   0  0  0  0  0  0  0  0  0  0  0  0
  -21.2610  -29.5740   21.5950 H   0  0  0  0  0  0  0  0  0  0  0  0
  -18.4060  -27.6970   22.6930 C   0  0  0  0  0  0  0  0  0  0  0  0
  -20.9420  -28.0620   23.0400 C   0  0  0  0  0  3  0  0  0  0  0  0
  -21.1200  -26.6380   22.4650 C   0  0  0  0  0  2  0  0  0  0  0  0
  -20.0640  -26.2760   21.4150 C   0  0  0  0  0  2  0  0  0  0  0  0
  -18.6590  -26.3600   22.0160 C   0  0  0  0  0  2  0  0  0  0  0  0
  -19.4780  -28.5030   23.1590 C   0  0  0  0  0  0  0  0  0  0  0  0
  -19.1880  -29.7520   23.7510 C   0  0  0  0  0  3  0  0  0  0  0  0
  -17.8580  -30.1960   23.8810 C   0  0  0  0  0  3  0  0  0  0  0  0
  -16.8000  -29.3870   23.4310 C   0  0  0  0  0  3  0  0  0  0  0  0
  -17.0740  -28.1390   22.8430 C   0  0  0  0  0  3  0  0  0  0  0  0
  -26.0580  -32.4130   23.8750 C   0  0  0  0  0  3  0  0  0  0  0  0
  -25.6850  -33.8000   24.1950 N   0  0  0  0  0  0  0  0  0  0  0  0
  -25.9900  -34.8670   23.4430 C   0  0  0  0  0  0  0  0  0  0  0  0
  -26.6820  -34.7890   22.4250 O   0  0  0  0  0  0  0  0  0  0  0  0
  -25.0680  -33.9310   24.9840 H   0  0  0  0  0  0  0  0  0  0  0  0
  -24.1930  -36.5900   23.0690 C   0  0  0  0  0  1  0  0  0  0  0  0
  -25.4420  -36.2360   23.8920 C   0  0  0  0  0  3  0  0  0  0  0  0
  -27.5290  -37.2150   24.7410 C   0  0  0  0  0  1  0  0  0  0  0  0
  -26.4320  -37.3310   23.7830 N   0  0  0  0  0  0  0  0  0  0  0  0
  -25.9870  -38.2340   23.9220 H   0  0  0  0  0  0  0  0  0  0  0  0
  -26.5540  -31.6650   25.1740 C   0  0  1  0  0  0  0  0  0  0  0  0
  -25.4320  -31.3920   26.2040 C   0  0  0  0  0  1  0  0  0  0  0  0
  -27.1980  -30.3060   24.8150 C   0  0  0  0  0  1  0  0  0  0  0  0
  -27.6520  -32.4990   25.8740 C   0  0  0  0  0  1  0  0  0  0  0  0
  1  2  2  0
  1  4  1  0
  2  6  1  0
  4  5  2  0
  5  3  1  0
  5  8  1  0
  6 49  1  0
  6  3  2  0
  7  4  1  0
  7 10  1  0
  9  8  1  0
 10 19  1  0
 10  9  1  0
 11 19  1  0
 12 17  1  0
 13 14  1  0
 13 12  1  0
 15 14  1  0
 15 24  1  0
 15 16  1  0
 17 11  1  0
 17 16  1  0
 18 11  2  0
 19 20  1  0
 21 22  2  0
 22 41  1  0
 23 22  1  0
 23 26  1  0
 24 25  1  0
 24 21  1  0
 25 23  2  0
 26 27  1  0
 27 28  2  0
 29 32  1  0
 29 28  1  0
 30 29  2  0
 31 30  1  0
 31 26  2  0
 32 33  1  0
 33 34  1  0
 34 35  2  0
 36 35  1  0
 36 40  1  0
 37 36  2  0
 38 33  2  0
 38 37  1  0
 39 38  1  0
 41 42  1  0
 42 45  1  0
 42 44  1  0
 43 41  2  0
 46 21  1  0
 46 47  1  0
 48 46  1  0
 50 49  1  0
 51 62  2  0
 52 50  1  0
 52 57  1  0
 53 61  1  0
 53 63  1  0
 54 60  1  0
 54 56  1  0
 55 61  1  0
 56 57  2  0
 56 55  1  0
 58 52  2  0
 59 58  1  0
 59 54  2  0
 60 53  1  0
 61 51  1  0
 63 65  2  0
 64 63  1  0
 66 64  1  0
 67 76  2  0
 67 72  1  0
 68 64  1  0
 68 72  1  0
 69 68  1  0
 70 71  1  0
 70 69  1  0
 71 67  1  0
 72 73  2  0
 73 74  1  0
 75 74  2  0
 76 75  1  0
 77 51  1  0
 77 78  1  0
 77 87  1  0
 78 81  1  0
 79 83  1  0
 79 78  1  0
 80 79  2  0
 83 82  1  0
 85 83  1  0
 85 86  1  0
 85 84  1  0
 87 90  1  1
 87 88  1  0
 89 87  1  0
M  ISO  4  11 100  19 100  49 101  50 101
M  END
>  <TORSDO>  (62) 
F 17

>  <SCORE>  (62) 
-14.240

>  <name>  (62) 
62

>  <ligand_id>  (62) 
62

>  <original_smiles>  (62) 
[H]c1c([H])c([H])c2c(c1[H])C([H])([H])C([H])([H])C([H])([H])C2([H])N([H])C(=O)C1([H])N(C(=O)C([H])(N([H])C(=O)C([H])(N([H])C([H])([H])[H])C([H])([H])[H])C(C([H])([H])[H])(C([H])([H])[H])C([H])([H])[H])C([H])([H])c2c([H])c(OC([H])([H])c3c([H])c([H])c4c(c3[H])C([H])([H])C([H])([H])C([H])(N([H])C(=O)N3C([H])([H])C([H])([H])C([H])([H])C([H])(n5nc(-c6c([H])c([H])c(Oc7c([H])c([H])c(F)c([H])c7F)c([H])c6[H])c(C(=O)N([H])[H])c5N([H])[H])C3([H])[H])C4([H])[H])c([H])c([H])c2C1([H])[H]

>  <smiles>  (62) 
[H]c1c([H])c([H])c2c(c1[H])C([H])([H])C([H])([H])C([H])([H])C2([H])N([H])C(=O)C1([H])N(C(=O)C([H])(N([H])C(=O)C([H])(N([H])C([H])([H])[H])C([H])([H])[H])C(C([H])([H])[H])(C([H])([H])[H])C([H])([H])[H])C([H])([H])c2c([H])c(OC([H])([H])c3c([H])c([H])c4c(c3[H])C([H])([H])C([H])([H])C([H])(N([H])C(=O)N3C([H])([H])C([H])([H])C([H])([H])C([H])(n5nc(-c6c([H])c([H])c(Oc7c([H])c([H])c(F)c([H])c7F)c([H])c6[H])c(C(=O)N([H])[H])c5N([H])[H])C3([H])[H])C4([H])[H])c([H])c([H])c2C1([H])[H]

$$$$
63:0:0
     RDKit          3D

 88 97  0  0  1  0  0  0  0  0999 V2000
  -27.7760  -21.6680   20.6020 C   0  0  0  0  0  3  0  0  0  0  0  0
  -29.7770  -22.1540   19.6930 C   0  0  0  0  0  3  0  0  0  0  0  0
  -28.5520  -22.8000   20.1460 C   0  0  0  0  0  0  0  0  0  0  0  0
  -29.3010  -19.7590   20.1920 C   0  0  0  0  0  0  0  0  0  0  0  0
  -28.1240  -20.3010   20.6360 N   0  0  0  0  0  0  0  0  0  0  0  0
  -30.1270  -20.7650   19.7480 N   0  0  0  0  0  0  0  0  0  0  0  0
  -30.5600  -15.3040   19.9090 C   0  0  0  0  0  0  0  0  0  0  0  0
  -30.4770  -12.8990   18.9370 C   0  0  0  0  0  2  0  0  0  0  0  0
  -29.4630  -12.7440   17.7750 C   0  0  0  0  0  2  0  0  0  0  0  0
  -28.0490  -12.4590   18.3140 C   0  0  0  0  0  2  0  0  0  0  0  0
  -27.6890  -13.3810   19.5050 C   0  0  0  0  0  3  0  0  0  0  0  0
  -28.8190  -13.4720   20.5510 C   0  0  0  0  0  2  0  0  0  0  0  0
  -30.0040  -13.9980   19.8540 N   0  0  0  0  0  0  0  0  0  0  0  0
  -31.7170  -15.3690   19.4670 O   0  0  0  0  0  0  0  0  0  0  0  0
  -30.6440  -17.8320   21.8620 C   0  0  0  0  0  2  0  0  0  0  0  0
  -29.9640  -16.4470   21.8760 C   0  0  0  0  0  2  0  0  0  0  0  0
  -29.7850  -18.1460   20.6700 C   0  0  0  0  0  3  0  0  0  0  0  0
  -29.8250  -16.4920   20.3860 N   0  0  0  0  0  0  0  0  0  0  0  0
  -25.3860  -13.9090   20.4690 C   0  0  0  0  0  0  0  0  0  0  0  0
  -24.3520  -13.1150   20.8830 C   0  0  0  0  0  0  0  0  0  0  0  0
  -24.8100  -11.7680   20.7500 C   0  0  0  0  0  0  0  0  0  0  0  0
  -26.4010  -13.0460   20.1000 N   0  0  0  0  0  0  0  0  0  0  0  0
  -26.0720  -11.7480   20.3350 N   0  0  0  0  0  0  0  0  0  0  0  0
  -24.0950  -10.4970   20.9360 C   0  0  0  0  0  0  0  0  0  0  0  0
  -24.5300   -9.5340   21.8720 C   0  0  0  0  0  3  0  0  0  0  0  0
  -23.8120   -8.3310   22.0470 C   0  0  0  0  0  3  0  0  0  0  0  0
  -22.6450   -8.0820   21.2870 C   0  0  0  0  0  0  0  0  0  0  0  0
  -22.2280   -9.0360   20.3410 C   0  0  0  0  0  3  0  0  0  0  0  0
  -22.9470  -10.2300   20.1630 C   0  0  0  0  0  3  0  0  0  0  0  0
  -21.9000   -6.9320   21.3710 O   0  0  0  0  0  0  0  0  0  0  0  0
  -21.7600   -6.2490   22.5530 C   0  0  0  0  0  0  0  0  0  0  0  0
  -21.2260   -6.8600   23.7080 C   0  0  0  0  0  3  0  0  0  0  0  0
  -21.0350   -6.1030   24.8810 C   0  0  0  0  0  3  0  0  0  0  0  0
  -21.3690   -4.7360   24.8990 C   0  0  0  0  0  0  0  0  0  0  0  0
  -21.8970   -4.1240   23.7480 C   0  0  0  0  0  3  0  0  0  0  0  0
  -22.0880   -4.8790   22.5780 C   0  0  0  0  0  0  0  0  0  0  0  0
  -22.5770   -4.2790   21.4650 F   0  0  0  0  0  0  0  0  0  0  0  0
  -21.1800   -4.0060   26.0240 F   0  0  0  0  0  0  0  0  0  0  0  0
  -22.9830  -13.5790   21.2840 C   0  0  0  0  0  0  0  0  0  0  0  0
  -22.3280  -12.8510   22.1810 N   0  0  0  0  0  0  0  0  0  0  0  0
  -22.5050  -14.6220   20.8380 O   0  0  0  0  0  0  0  0  0  0  0  0
  -22.7290  -12.0060   22.5620 H   0  0  0  0  0  0  0  0  0  0  0  0
  -21.4120  -13.1420   22.4920 H   0  0  0  0  0  0  0  0  0  0  0  0
  -25.5410  -15.2860   20.3490 N   0  0  0  0  0  0  0  0  0  0  0  0
  -24.7930  -15.9380   20.5630 H   0  0  0  0  0  0  0  0  0  0  0  0
  -26.3730  -15.7400   19.9950 H   0  0  0  0  0  0  0  0  0  0  0  0
  -27.8680  -24.3850   19.9030 C   0  0  0  0  0  2  0  0  0  0  0  0
  -28.1850  -25.9280   20.3210 O   0  0  0  0  0  0  0  0  0  0  0  0
  -24.6510  -31.8950   23.2480 C   0  0  0  0  0  0  0  0  0  0  0  0
  -27.1970  -27.0380   20.2260 C   0  0  0  0  0  0  0  0  0  0  0  0
  -23.4530  -30.5040   21.6080 C   0  0  0  0  0  3  0  0  0  0  0  0
  -24.9000  -28.9070   20.1810 C   0  0  0  0  0  0  0  0  0  0  0  0
  -26.0190  -30.7150   21.4630 C   0  0  0  0  0  2  0  0  0  0  0  0
  -26.0870  -29.3090   20.8060 C   0  0  0  0  0  0  0  0  0  0  0  0
  -27.2300  -28.3940   20.8100 C   0  0  0  0  0  3  0  0  0  0  0  0
  -25.9850  -26.7900   19.5400 C   0  0  0  0  0  3  0  0  0  0  0  0
  -24.8730  -27.6660   19.5280 C   0  0  0  0  0  3  0  0  0  0  0  0
  -23.6820  -29.8250   20.2300 C   0  0  0  0  0  2  0  0  0  0  0  0
  -24.7300  -31.0640   22.1600 N   0  0  0  0  0  0  0  0  0  0  0  0
  -23.5620  -32.1870   23.7700 O   0  0  0  0  0  0  0  0  0  0  0  0
  -22.7590  -29.5070   22.5710 C   0  0  0  0  0  0  0  0  0  0  0  0
  -21.4280  -29.3440   22.4440 N   0  0  0  0  0  0  0  0  0  0  0  0
  -23.4220  -28.8800   23.4010 O   0  0  0  0  0  0  0  0  0  0  0  0
  -20.9460  -29.9000   21.7510 H   0  0  0  0  0  0  0  0  0  0  0  0
  -18.0420  -28.1430   22.9470 C   0  0  0  0  0  0  0  0  0  0  0  0
  -20.6020  -28.4090   23.2150 C   0  0  0  0  0  3  0  0  0  0  0  0
  -20.7030  -26.9750   22.6430 C   0  0  0  0  0  2  0  0  0  0  0  0
  -19.6030  -26.6520   21.6270 C   0  0  0  0  0  2  0  0  0  0  0  0
  -18.2200  -26.7950   22.2690 C   0  0  0  0  0  2  0  0  0  0  0  0
  -19.1590  -28.9080   23.3770 C   0  0  0  0  0  0  0  0  0  0  0  0
  -18.9370  -30.1670   23.9740 C   0  0  0  0  0  3  0  0  0  0  0  0
  -17.6310  -30.6640   24.1440 C   0  0  0  0  0  3  0  0  0  0  0  0
  -16.5280  -29.8980   23.7270 C   0  0  0  0  0  3  0  0  0  0  0  0
  -16.7340  -28.6390   23.1360 C   0  0  0  0  0  3  0  0  0  0  0  0
  -25.9250  -32.5330   23.8800 C   0  0  0  0  0  3  0  0  0  0  0  0
  -25.6120  -33.9340   24.2120 N   0  0  0  0  0  0  0  0  0  0  0  0
  -25.9310  -34.9910   23.4530 C   0  0  0  0  0  0  0  0  0  0  0  0
  -26.5810  -34.8900   22.4100 O   0  0  0  0  0  0  0  0  0  0  0  0
  -25.0310  -34.0870   25.0230 H   0  0  0  0  0  0  0  0  0  0  0  0
  -24.1850  -36.7820   23.1540 C   0  0  0  0  0  1  0  0  0  0  0  0
  -25.4540  -36.3820   23.9230 C   0  0  0  0  0  3  0  0  0  0  0  0
  -27.6100  -37.2830   24.6830 C   0  0  0  0  0  1  0  0  0  0  0  0
  -26.4790  -37.4380   23.7720 N   0  0  0  0  0  0  0  0  0  0  0  0
  -26.0730  -38.3580   23.9250 H   0  0  0  0  0  0  0  0  0  0  0  0
  -26.4240  -31.7690   25.1700 C   0  0  1  0  0  0  0  0  0  0  0  0
  -25.3180  -31.5440   26.2290 C   0  0  0  0  0  1  0  0  0  0  0  0
  -27.0050  -30.3850   24.8020 C   0  0  0  0  0  1  0  0  0  0  0  0
  -27.5710  -32.5630   25.8370 C   0  0  0  0  0  1  0  0  0  0  0  0
  1  5  1  0
  2  6  2  0
  2  3  1  0
  3  1  2  0
  4  5  2  0
  6  4  1  0
  7 18  1  0
  8 13  1  0
  9 10  1  0
  9  8  1  0
 11 10  1  0
 11 22  1  0
 11 12  1  0
 13  7  1  0
 13 12  1  0
 14  7  2  0
 15 16  1  0
 17  4  1  0
 17 15  1  0
 18 17  1  0
 18 16  1  0
 19 20  2  0
 20 39  1  0
 21 20  1  0
 21 24  1  0
 22 23  1  0
 22 19  1  0
 23 21  2  0
 24 25  1  0
 25 26  2  0
 27 30  1  0
 27 26  1  0
 28 27  2  0
 29 28  1  0
 29 24  2  0
 30 31  1  0
 31 36  2  0
 31 32  1  0
 32 33  2  0
 33 34  1  0
 34 38  1  0
 35 34  2  0
 36 35  1  0
 37 36  1  0
 39 40  1  0
 40 43  1  0
 40 42  1  0
 41 39  2  0
 44 19  1  0
 44 45  1  0
 46 44  1  0
 47  3  1  0
 47 48  1  0
 49 60  2  0
 50 48  1  0
 50 55  1  0
 51 59  1  0
 51 61  1  0
 52 58  1  0
 52 54  1  0
 53 59  1  0
 54 55  2  0
 54 53  1  0
 56 50  2  0
 57 56  1  0
 57 52  2  0
 58 51  1  0
 59 49  1  0
 61 63  2  0
 62 61  1  0
 64 62  1  0
 65 74  2  0
 65 70  1  0
 66 62  1  0
 66 70  1  0
 67 66  1  0
 68 69  1  0
 68 67  1  0
 69 65  1  0
 70 71  2  0
 71 72  1  0
 73 72  2  0
 74 73  1  0
 75 49  1  0
 75 76  1  0
 75 85  1  0
 76 79  1  0
 77 81  1  0
 77 76  1  0
 78 77  2  0
 81 80  1  0
 83 81  1  0
 83 84  1  0
 83 82  1  0
 85 88  1  1
 85 86  1  0
 87 85  1  0
M  ISO  4   7 100  18 100  47 101  48 101
M  END
>  <TORSDO>  (63) 
F 17

>  <SCORE>  (63) 
-15.869

>  <name>  (63) 
63

>  <ligand_id>  (63) 
63

>  <original_smiles>  (63) 
[H]c1nc(C2([H])N(C(=O)N3C([H])([H])C([H])([H])C([H])([H])C([H])(n4nc(-c5c([H])c([H])c(Oc6c([H])c([H])c(F)c([H])c6F)c([H])c5[H])c(C(=O)N([H])[H])c4N([H])[H])C3([H])[H])C([H])([H])C2([H])[H])nc([H])c1C([H])([H])Oc1c([H])c([H])c2c(c1[H])C([H])([H])N(C(=O)C([H])(N([H])C(=O)C([H])(N([H])C([H])([H])[H])C([H])([H])[H])C(C([H])([H])[H])(C([H])([H])[H])C([H])([H])[H])C([H])(C(=O)N([H])C1([H])c3c([H])c([H])c([H])c([H])c3C([H])([H])C([H])([H])C1([H])[H])C2([H])[H]

>  <smiles>  (63) 
[H]c1nc(C2([H])N(C(=O)N3C([H])([H])C([H])([H])C([H])([H])C([H])(n4nc(-c5c([H])c([H])c(Oc6c([H])c([H])c(F)c([H])c6F)c([H])c5[H])c(C(=O)N([H])[H])c4N([H])[H])C3([H])[H])C([H])([H])C2([H])[H])nc([H])c1C([H])([H])Oc1c([H])c([H])c2c(c1[H])C([H])([H])N(C(=O)C([H])(N([H])C(=O)C([H])(N([H])C([H])([H])[H])C([H])([H])[H])C(C([H])([H])[H])(C([H])([H])[H])C([H])([H])[H])C([H])(C(=O)N([H])C1([H])c3c([H])c([H])c([H])c([H])c3C([H])([H])C([H])([H])C1([H])[H])C2([H])[H]

$$$$
64:0:0
     RDKit          3D

 93102  0  0  1  0  0  0  0  0999 V2000
  -29.0150  -23.1750   21.7510 C   0  0  0  0  0  3  0  0  0  0  0  0
  -29.3290  -21.7790   21.8100 C   0  0  0  0  0  0  0  0  0  0  0  0
  -28.6520  -23.8380   20.5480 C   0  0  0  0  0  0  0  0  0  0  0  0
  -29.3470  -20.9930   20.6200 C   0  0  0  0  0  0  0  0  0  0  0  0
  -28.6620  -22.9670   19.4140 C   0  0  0  0  0  0  0  0  0  0  0  0
  -28.2190  -23.4750   18.0550 C   0  0  0  0  0  1  0  0  0  0  0  0
  -29.0030  -21.6240   19.4540 N   0  0  0  0  0  0  0  0  0  0  0  0
  -30.9830  -15.0650   20.0380 C   0  0  0  0  0  0  0  0  0  0  0  0
  -30.6370  -12.7930   19.0540 C   0  0  0  0  0  2  0  0  0  0  0  0
  -29.6570  -12.8290   17.8680 C   0  0  0  0  0  2  0  0  0  0  0  0
  -28.2160  -12.6300   18.3740 C   0  0  0  0  0  2  0  0  0  0  0  0
  -27.8850  -13.5330   19.5910 C   0  0  0  0  0  3  0  0  0  0  0  0
  -29.0030  -13.5310   20.6600 C   0  0  0  0  0  2  0  0  0  0  0  0
  -30.2450  -13.8960   19.9730 N   0  0  0  0  0  0  0  0  0  0  0  0
  -32.1730  -14.9810   19.7220 O   0  0  0  0  0  0  0  0  0  0  0  0
  -28.6650  -18.3320   20.4250 C   0  0  0  0  0  2  0  0  0  0  0  0
  -30.8710  -18.9840   19.6830 C   0  0  0  0  0  2  0  0  0  0  0  0
  -29.1460  -16.8370   20.7190 C   0  0  0  0  0  2  0  0  0  0  0  0
  -31.3890  -17.5070   19.8920 C   0  0  0  0  0  2  0  0  0  0  0  0
  -29.7450  -19.4320   20.6300 C   0  0  0  0  0  3  0  0  0  0  0  0
  -30.4330  -16.3650   20.1190 N   0  0  0  0  0  0  0  0  0  0  0  0
  -25.5580  -14.0970   20.5020 C   0  0  0  0  0  0  0  0  0  0  0  0
  -24.5110  -13.3090   20.8970 C   0  0  0  0  0  0  0  0  0  0  0  0
  -24.9620  -11.9610   20.7760 C   0  0  0  0  0  0  0  0  0  0  0  0
  -26.5770  -13.2240   20.1570 N   0  0  0  0  0  0  0  0  0  0  0  0
  -26.2320  -11.9330   20.3880 N   0  0  0  0  0  0  0  0  0  0  0  0
  -24.2380  -10.6950   20.9450 C   0  0  0  0  0  0  0  0  0  0  0  0
  -24.6510   -9.7250   21.8850 C   0  0  0  0  0  3  0  0  0  0  0  0
  -23.9250   -8.5250   22.0400 C   0  0  0  0  0  3  0  0  0  0  0  0
  -22.7720   -8.2860   21.2580 C   0  0  0  0  0  0  0  0  0  0  0  0
  -22.3780   -9.2420   20.3060 C   0  0  0  0  0  3  0  0  0  0  0  0
  -23.1050  -10.4350   20.1470 C   0  0  0  0  0  3  0  0  0  0  0  0
  -22.0180   -7.1390   21.3260 O   0  0  0  0  0  0  0  0  0  0  0  0
  -21.8470   -6.4620   22.5070 C   0  0  0  0  0  0  0  0  0  0  0  0
  -21.2460   -7.0680   23.6320 C   0  0  0  0  0  3  0  0  0  0  0  0
  -21.0260   -6.3140   24.8020 C   0  0  0  0  0  3  0  0  0  0  0  0
  -21.3960   -4.9560   24.8470 C   0  0  0  0  0  0  0  0  0  0  0  0
  -21.9930   -4.3520   23.7260 C   0  0  0  0  0  3  0  0  0  0  0  0
  -22.2150   -5.1030   22.5590 C   0  0  0  0  0  0  0  0  0  0  0  0
  -22.7710   -4.5100   21.4760 F   0  0  0  0  0  0  0  0  0  0  0  0
  -21.1760   -4.2300   25.9670 F   0  0  0  0  0  0  0  0  0  0  0  0
  -23.1350  -13.7820   21.2650 C   0  0  0  0  0  0  0  0  0  0  0  0
  -22.4570  -13.0600   22.1510 N   0  0  0  0  0  0  0  0  0  0  0  0
  -22.6730  -14.8260   20.8020 O   0  0  0  0  0  0  0  0  0  0  0  0
  -22.8430  -12.2110   22.5440 H   0  0  0  0  0  0  0  0  0  0  0  0
  -21.5400  -13.3660   22.4450 H   0  0  0  0  0  0  0  0  0  0  0  0
  -25.7130  -15.4720   20.3800 N   0  0  0  0  0  0  0  0  0  0  0  0
  -24.9410  -16.1050   20.5610 H   0  0  0  0  0  0  0  0  0  0  0  0
  -26.5200  -15.9350   19.9840 H   0  0  0  0  0  0  0  0  0  0  0  0
  -30.9730  -21.1610   23.7010 C   0  0  0  0  0  1  0  0  0  0  0  0
  -29.5250  -21.1430   23.1880 C   0  0  0  0  0  2  0  0  0  0  0  0
  -27.9440  -25.2750   20.6660 C   0  0  0  0  0  2  0  0  0  0  0  0
  -28.3480  -26.5860   20.0390 O   0  0  0  0  0  0  0  0  0  0  0  0
  -24.6160  -31.9480   23.2340 C   0  0  0  0  0  0  0  0  0  0  0  0
  -27.2910  -27.5300   19.9940 C   0  0  0  0  0  0  0  0  0  0  0  0
  -23.4290  -30.5770   21.5640 C   0  0  0  0  0  3  0  0  0  0  0  0
  -24.9020  -29.1270   20.0550 C   0  0  0  0  0  0  0  0  0  0  0  0
  -25.9610  -30.9620   21.3600 C   0  0  0  0  0  2  0  0  0  0  0  0
  -26.0700  -29.6060   20.6630 C   0  0  0  0  0  0  0  0  0  0  0  0
  -27.2710  -28.8200   20.6260 C   0  0  0  0  0  3  0  0  0  0  0  0
  -26.1080  -27.1460   19.3220 C   0  0  0  0  0  3  0  0  0  0  0  0
  -24.9260  -27.9050   19.3710 C   0  0  0  0  0  3  0  0  0  0  0  0
  -23.6440  -29.9650   20.1550 C   0  0  0  0  0  2  0  0  0  0  0  0
  -24.6880  -31.1790   22.1080 N   0  0  0  0  0  0  0  0  0  0  0  0
  -23.5320  -32.1740   23.7920 O   0  0  0  0  0  0  0  0  0  0  0  0
  -22.8080  -29.5040   22.4940 C   0  0  0  0  0  0  0  0  0  0  0  0
  -21.4940  -29.2560   22.3490 N   0  0  0  0  0  0  0  0  0  0  0  0
  -23.5100  -28.9010   23.3100 O   0  0  0  0  0  0  0  0  0  0  0  0
  -20.9840  -29.7930   21.6630 H   0  0  0  0  0  0  0  0  0  0  0  0
  -18.1930  -27.8260   22.7500 C   0  0  0  0  0  0  0  0  0  0  0  0
  -20.7200  -28.2610   23.0940 C   0  0  0  0  0  3  0  0  0  0  0  0
  -20.9360  -26.8410   22.5200 C   0  0  0  0  0  2  0  0  0  0  0  0
  -19.8870  -26.4490   21.4730 C   0  0  0  0  0  2  0  0  0  0  0  0
  -18.4810  -26.4960   22.0760 C   0  0  0  0  0  2  0  0  0  0  0  0
  -19.2430  -28.6610   23.2150 C   0  0  0  0  0  0  0  0  0  0  0  0
  -18.9200  -29.9030   23.8060 C   0  0  0  0  0  3  0  0  0  0  0  0
  -17.5800  -30.3130   23.9350 C   0  0  0  0  0  3  0  0  0  0  0  0
  -16.5430  -29.4730   23.4900 C   0  0  0  0  0  3  0  0  0  0  0  0
  -16.8510  -28.2330   22.9030 C   0  0  0  0  0  3  0  0  0  0  0  0
  -25.8860  -32.6000   23.8590 C   0  0  0  0  0  3  0  0  0  0  0  0
  -25.5590  -33.9980   24.1780 N   0  0  0  0  0  0  0  0  0  0  0  0
  -25.9040  -35.0520   23.4260 C   0  0  0  0  0  0  0  0  0  0  0  0
  -26.6010  -34.9490   22.4130 O   0  0  0  0  0  0  0  0  0  0  0  0
  -24.9460  -34.1480   24.9670 H   0  0  0  0  0  0  0  0  0  0  0  0
  -24.1820  -36.8380   23.0160 C   0  0  0  0  0  1  0  0  0  0  0  0
  -25.3970  -36.4400   23.8670 C   0  0  0  0  0  3  0  0  0  0  0  0
  -27.5020  -37.3330   24.7630 C   0  0  0  0  0  1  0  0  0  0  0  0
  -26.4280  -37.4970   23.7860 N   0  0  0  0  0  0  0  0  0  0  0  0
  -26.0130  -38.4150   23.9190 H   0  0  0  0  0  0  0  0  0  0  0  0
  -26.3990  -31.8450   25.1480 C   0  0  1  0  0  0  0  0  0  0  0  0
  -25.2960  -31.5860   26.2020 C   0  0  0  0  0  1  0  0  0  0  0  0
  -27.0180  -30.4780   24.7740 C   0  0  0  0  0  1  0  0  0  0  0  0
  -27.5250  -32.6660   25.8210 C   0  0  0  0  0  1  0  0  0  0  0  0
  1  2  1  0
  2 51  1  0
  3 52  1  0
  3  1  2  0
  4  2  2  0
  5  7  2  0
  5  3  1  0
  6  5  1  0
  7  4  1  0
  8 21  1  0
  9 14  1  0
 10 11  1  0
 10  9  1  0
 12 11  1  0
 12 25  1  0
 12 13  1  0
 14  8  1  0
 14 13  1  0
 15  8  2  0
 16 20  1  0
 16 18  1  0
 17 19  1  0
 17 20  1  0
 19 21  1  0
 20  4  1  0
 21 18  1  0
 22 23  2  0
 23 42  1  0
 24 23  1  0
 24 27  1  0
 25 26  1  0
 25 22  1  0
 26 24  2  0
 27 28  1  0
 28 29  2  0
 30 33  1  0
 30 29  1  0
 31 30  2  0
 32 31  1  0
 32 27  2  0
 33 34  1  0
 34 39  2  0
 34 35  1  0
 35 36  2  0
 36 37  1  0
 37 41  1  0
 38 37  2  0
 39 38  1  0
 40 39  1  0
 42 43  1  0
 43 46  1  0
 43 45  1  0
 44 42  2  0
 47 22  1  0
 47 48  1  0
 49 47  1  0
 51 50  1  0
 53 52  1  0
 54 65  2  0
 55 53  1  0
 55 60  1  0
 56 64  1  0
 56 66  1  0
 57 63  1  0
 57 59  1  0
 58 64  1  0
 59 58  1  0
 60 59  2  0
 61 62  1  0
 61 55  2  0
 62 57  2  0
 63 56  1  0
 64 54  1  0
 66 68  2  0
 67 66  1  0
 69 67  1  0
 70 79  2  0
 70 75  1  0
 71 67  1  0
 71 75  1  0
 72 71  1  0
 73 74  1  0
 73 72  1  0
 74 70  1  0
 75 76  2  0
 76 77  1  0
 78 77  2  0
 79 78  1  0
 80 54  1  0
 80 81  1  0
 80 90  1  0
 81 84  1  0
 82 86  1  0
 82 81  1  0
 83 82  2  0
 86 85  1  0
 88 86  1  0
 88 89  1  0
 88 87  1  0
 90 93  1  1
 90 91  1  0
 92 90  1  0
M  ISO  4   8 100  21 100  52 101  53 101
M  END
>  <TORSDO>  (64) 
F 18

>  <SCORE>  (64) 
-14.495

>  <name>  (64) 
64

>  <ligand_id>  (64) 
64

>  <original_smiles>  (64) 
[H]c1c([H])c([H])c2c(c1[H])C([H])([H])C([H])([H])C([H])([H])C2([H])N([H])C(=O)C1([H])N(C(=O)C([H])(N([H])C(=O)C([H])(N([H])C([H])([H])[H])C([H])([H])[H])C(C([H])([H])[H])(C([H])([H])[H])C([H])([H])[H])C([H])([H])c2c([H])c(OC([H])([H])c3c(C([H])([H])[H])nc(C4([H])C([H])([H])C([H])([H])N(C(=O)N5C([H])([H])C([H])([H])C([H])([H])C([H])(n6nc(-c7c([H])c([H])c(Oc8c([H])c([H])c(F)c([H])c8F)c([H])c7[H])c(C(=O)N([H])[H])c6N([H])[H])C5([H])[H])C([H])([H])C4([H])[H])c(C([H])([H])C([H])([H])[H])c3[H])c([H])c([H])c2C1([H])[H]

>  <smiles>  (64) 
[H]c1c([H])c([H])c2c(c1[H])C([H])([H])C([H])([H])C([H])([H])C2([H])N([H])C(=O)C1([H])N(C(=O)C([H])(N([H])C(=O)C([H])(N([H])C([H])([H])[H])C([H])([H])[H])C(C([H])([H])[H])(C([H])([H])[H])C([H])([H])[H])C([H])([H])c2c([H])c(OC([H])([H])c3c(C([H])([H])[H])nc(C4([H])C([H])([H])C([H])([H])N(C(=O)N5C([H])([H])C([H])([H])C([H])([H])C([H])(n6nc(-c7c([H])c([H])c(Oc8c([H])c([H])c(F)c([H])c8F)c([H])c7[H])c(C(=O)N([H])[H])c6N([H])[H])C5([H])[H])C([H])([H])C4([H])[H])c(C([H])([H])C([H])([H])[H])c3[H])c([H])c([H])c2C1([H])[H]

$$$$
65:0:0
     RDKit          3D

 92101  0  0  1  0  0  0  0  0999 V2000
  -28.6440  -21.7930   19.4510 C   0  0  0  0  0  0  0  0  0  0  0  0
  -29.5320  -23.1940   21.5770 C   0  0  0  0  0  0  0  0  0  0  0  0
  -29.5080  -21.1550   20.3940 C   0  0  0  0  0  0  0  0  0  0  0  0
  -28.6550  -23.8300   20.6450 C   0  0  0  0  0  0  0  0  0  0  0  0
  -28.1360  -21.0690   18.2210 C   0  0  0  0  0  1  0  0  0  0  0  0
  -30.0480  -23.9160   22.8080 C   0  0  0  0  0  1  0  0  0  0  0  0
  -29.9420  -21.8920   21.4540 N   0  0  0  0  0  0  0  0  0  0  0  0
  -28.2190  -23.0930   19.5820 N   0  0  0  0  0  0  0  0  0  0  0  0
  -30.1700  -19.7310   20.2060 C   0  0  0  0  0  2  0  0  0  0  0  0
  -30.5860  -14.6800   20.3730 C   0  0  0  0  0  0  0  0  0  0  0  0
  -30.3270  -12.4260   19.3730 C   0  0  0  0  0  2  0  0  0  0  0  0
  -29.3910  -12.5250   18.1510 C   0  0  0  0  0  2  0  0  0  0  0  0
  -27.9200  -12.3640   18.5830 C   0  0  0  0  0  2  0  0  0  0  0  0
  -27.5470  -13.2400   19.8100 C   0  0  0  0  0  3  0  0  0  0  0  0
  -28.6160  -13.1700   20.9230 C   0  0  0  0  0  2  0  0  0  0  0  0
  -29.9150  -13.4840   20.3130 N   0  0  0  0  0  0  0  0  0  0  0  0
  -31.8000  -14.7310   20.1570 O   0  0  0  0  0  0  0  0  0  0  0  0
  -28.6900  -17.7330   19.3530 C   0  0  0  0  0  2  0  0  0  0  0  0
  -29.3560  -16.3670   19.1050 C   0  0  0  0  0  2  0  0  0  0  0  0
  -30.2970  -17.1340   21.0310 C   0  0  0  0  0  2  0  0  0  0  0  0
  -29.4170  -18.3650   20.5460 C   0  0  0  0  0  3  0  0  0  0  0  0
  -29.8480  -15.8520   20.3900 N   0  0  0  0  0  0  0  0  0  0  0  0
  -25.1600  -13.8390   20.5220 C   0  0  0  0  0  0  0  0  0  0  0  0
  -24.0910  -13.0660   20.8810 C   0  0  0  0  0  0  0  0  0  0  0  0
  -24.5560  -11.7160   20.8590 C   0  0  0  0  0  0  0  0  0  0  0  0
  -26.2060  -12.9570   20.2990 N   0  0  0  0  0  0  0  0  0  0  0  0
  -25.8490  -11.6760   20.5640 N   0  0  0  0  0  0  0  0  0  0  0  0
  -23.8320  -10.4530   21.0450 C   0  0  0  0  0  0  0  0  0  0  0  0
  -24.2600   -9.4890   21.9830 C   0  0  0  0  0  3  0  0  0  0  0  0
  -23.5370   -8.2890   22.1570 C   0  0  0  0  0  3  0  0  0  0  0  0
  -22.3710   -8.0480   21.3920 C   0  0  0  0  0  0  0  0  0  0  0  0
  -21.9640   -9.0010   20.4430 C   0  0  0  0  0  3  0  0  0  0  0  0
  -22.6870  -10.1910   20.2670 C   0  0  0  0  0  3  0  0  0  0  0  0
  -21.6180   -6.9020   21.4760 O   0  0  0  0  0  0  0  0  0  0  0  0
  -21.5600   -6.1630   22.6310 C   0  0  0  0  0  0  0  0  0  0  0  0
  -21.1110   -6.7190   23.8490 C   0  0  0  0  0  3  0  0  0  0  0  0
  -21.0010   -5.9050   24.9940 C   0  0  0  0  0  3  0  0  0  0  0  0
  -21.3300   -4.5390   24.9240 C   0  0  0  0  0  0  0  0  0  0  0  0
  -21.7720   -3.9830   23.7100 C   0  0  0  0  0  3  0  0  0  0  0  0
  -21.8840   -4.7930   22.5660 C   0  0  0  0  0  0  0  0  0  0  0  0
  -22.2910   -4.2480   21.3940 F   0  0  0  0  0  0  0  0  0  0  0  0
  -21.2150   -3.7550   26.0210 F   0  0  0  0  0  0  0  0  0  0  0  0
  -22.6910  -13.5420   21.1400 C   0  0  0  0  0  0  0  0  0  0  0  0
  -21.9580  -12.8470   22.0040 N   0  0  0  0  0  0  0  0  0  0  0  0
  -22.2550  -14.5650   20.6130 O   0  0  0  0  0  0  0  0  0  0  0  0
  -22.3230  -12.0190   22.4500 H   0  0  0  0  0  0  0  0  0  0  0  0
  -21.0180  -13.1470   22.2200 H   0  0  0  0  0  0  0  0  0  0  0  0
  -25.3240  -15.2110   20.3420 N   0  0  0  0  0  0  0  0  0  0  0  0
  -24.5630  -15.8710   20.4570 H   0  0  0  0  0  0  0  0  0  0  0  0
  -26.1920  -15.6500   20.0640 H   0  0  0  0  0  0  0  0  0  0  0  0
  -27.9300  -25.2000   20.9450 C   0  0  0  0  0  2  0  0  0  0  0  0
  -28.2290  -26.4450   20.2040 O   0  0  0  0  0  0  0  0  0  0  0  0
  -24.5730  -31.8840   23.2320 C   0  0  0  0  0  0  0  0  0  0  0  0
  -27.1510  -27.3370   20.1590 C   0  0  0  0  0  0  0  0  0  0  0  0
  -23.3550  -30.4930   21.5940 C   0  0  0  0  0  3  0  0  0  0  0  0
  -24.7950  -28.9450   20.1560 C   0  0  0  0  0  0  0  0  0  0  0  0
  -25.8930  -30.8080   21.3980 C   0  0  0  0  0  2  0  0  0  0  0  0
  -25.9670  -29.4320   20.7500 C   0  0  0  0  0  0  0  0  0  0  0  0
  -27.1520  -28.6380   20.7450 C   0  0  0  0  0  3  0  0  0  0  0  0
  -25.9660  -26.9070   19.5250 C   0  0  0  0  0  3  0  0  0  0  0  0
  -24.7960  -27.6870   19.5320 C   0  0  0  0  0  3  0  0  0  0  0  0
  -23.5590  -29.8190   20.2110 C   0  0  0  0  0  2  0  0  0  0  0  0
  -24.6260  -31.0780   22.1320 N   0  0  0  0  0  0  0  0  0  0  0  0
  -23.4930  -32.1630   23.7730 O   0  0  0  0  0  0  0  0  0  0  0  0
  -22.6930  -29.4770   22.5560 C   0  0  0  0  0  0  0  0  0  0  0  0
  -21.3670  -29.3020   22.4310 N   0  0  0  0  0  0  0  0  0  0  0  0
  -23.3730  -28.8480   23.3710 O   0  0  0  0  0  0  0  0  0  0  0  0
  -20.8780  -29.8620   21.7470 H   0  0  0  0  0  0  0  0  0  0  0  0
  -17.9860  -28.1200   22.9410 C   0  0  0  0  0  0  0  0  0  0  0  0
  -20.5470  -28.3680   23.2040 C   0  0  0  0  0  3  0  0  0  0  0  0
  -20.6400  -26.9360   22.6270 C   0  0  0  0  0  2  0  0  0  0  0  0
  -19.5330  -26.6200   21.6160 C   0  0  0  0  0  2  0  0  0  0  0  0
  -18.1540  -26.7710   22.2640 C   0  0  0  0  0  2  0  0  0  0  0  0
  -19.1100  -28.8770   23.3680 C   0  0  0  0  0  0  0  0  0  0  0  0
  -18.8990  -30.1400   23.9620 C   0  0  0  0  0  3  0  0  0  0  0  0
  -17.5970  -30.6480   24.1320 C   0  0  0  0  0  3  0  0  0  0  0  0
  -16.4870  -29.8890   23.7210 C   0  0  0  0  0  3  0  0  0  0  0  0
  -16.6830  -28.6260   23.1320 C   0  0  0  0  0  3  0  0  0  0  0  0
  -25.8610  -32.5090   23.8490 C   0  0  0  0  0  3  0  0  0  0  0  0
  -25.5620  -33.9080   24.1820 N   0  0  0  0  0  0  0  0  0  0  0  0
  -25.8930  -34.9600   23.4210 C   0  0  0  0  0  0  0  0  0  0  0  0
  -26.5550  -34.8540   22.3850 O   0  0  0  0  0  0  0  0  0  0  0  0
  -24.9740  -34.0650   24.9890 H   0  0  0  0  0  0  0  0  0  0  0  0
  -24.1740  -36.7630   23.0780 C   0  0  0  0  0  1  0  0  0  0  0  0
  -25.4160  -36.3510   23.8830 C   0  0  0  0  0  3  0  0  0  0  0  0
  -27.5590  -37.2230   24.7050 C   0  0  0  0  0  1  0  0  0  0  0  0
  -26.4540  -37.3990   23.7670 N   0  0  0  0  0  0  0  0  0  0  0  0
  -26.0530  -38.3200   23.9170 H   0  0  0  0  0  0  0  0  0  0  0  0
  -26.3790  -31.7320   25.1220 C   0  0  1  0  0  0  0  0  0  0  0  0
  -25.2900  -31.5010   26.1960 C   0  0  0  0  0  1  0  0  0  0  0  0
  -26.9520  -30.3520   24.7260 C   0  0  0  0  0  1  0  0  0  0  0  0
  -27.5370  -32.5190   25.7790 C   0  0  0  0  0  1  0  0  0  0  0  0
  1  8  2  0
  1  3  1  0
  2  6  1  0
  3  7  2  0
  4 51  1  0
  4  2  2  0
  5  1  1  0
  7  2  1  0
  8  4  1  0
  9  3  1  0
 10 22  1  0
 11 16  1  0
 12 13  1  0
 12 11  1  0
 14 13  1  0
 14 26  1  0
 14 15  1  0
 16 10  1  0
 16 15  1  0
 17 10  2  0
 18 21  1  0
 19 18  1  0
 19 22  1  0
 21  9  1  0
 21 20  1  0
 22 20  1  0
 23 24  2  0
 24 43  1  0
 25 24  1  0
 25 28  1  0
 26 23  1  0
 26 27  1  0
 27 25  2  0
 28 29  1  0
 29 30  2  0
 31 34  1  0
 31 30  1  0
 32 31  2  0
 33 32  1  0
 33 28  2  0
 34 35  1  0
 35 36  1  0
 36 37  2  0
 38 37  1  0
 38 42  1  0
 39 38  2  0
 40 35  2  0
 40 39  1  0
 41 40  1  0
 43 44  1  0
 44 47  1  0
 44 46  1  0
 45 43  2  0
 48 49  1  0
 48 23  1  0
 50 48  1  0
 52 51  1  0
 53 64  2  0
 54 52  1  0
 54 59  1  0
 55 63  1  0
 55 65  1  0
 56 62  1  0
 56 58  1  0
 57 63  1  0
 58 57  1  0
 59 58  2  0
 60 61  1  0
 60 54  2  0
 61 56  2  0
 62 55  1  0
 63 53  1  0
 65 67  2  0
 66 65  1  0
 68 66  1  0
 69 78  2  0
 69 74  1  0
 70 66  1  0
 70 74  1  0
 71 70  1  0
 72 73  1  0
 72 71  1  0
 73 69  1  0
 74 75  2  0
 75 76  1  0
 77 76  2  0
 78 77  1  0
 79 53  1  0
 79 80  1  0
 79 89  1  0
 80 83  1  0
 81 85  1  0
 81 80  1  0
 82 81  2  0
 85 84  1  0
 87 85  1  0
 87 88  1  0
 87 86  1  0
 89 92  1  1
 89 90  1  0
 91 89  1  0
M  ISO  4  10 100  22 100  51 101  52 101
M  END
>  <TORSDO>  (65) 
F 18

>  <SCORE>  (65) 
-14.731

>  <name>  (65) 
65

>  <ligand_id>  (65) 
65

>  <original_smiles>  (65) 
[H]c1c([H])c([H])c2c(c1[H])C([H])([H])C([H])([H])C([H])([H])C2([H])N([H])C(=O)C1([H])N(C(=O)C([H])(N([H])C(=O)C([H])(N([H])C([H])([H])[H])C([H])([H])[H])C(C([H])([H])[H])(C([H])([H])[H])C([H])([H])[H])C([H])([H])c2c([H])c(OC([H])([H])c3nc(C([H])([H])[H])c(C([H])([H])C4([H])C([H])([H])N(C(=O)N5C([H])([H])C([H])([H])C([H])([H])C([H])(n6nc(-c7c([H])c([H])c(Oc8c([H])c([H])c(F)c([H])c8F)c([H])c7[H])c(C(=O)N([H])[H])c6N([H])[H])C5([H])[H])C([H])([H])C4([H])[H])nc3C([H])([H])[H])c([H])c([H])c2C1([H])[H]

>  <smiles>  (65) 
[H]c1c([H])c([H])c2c(c1[H])C([H])([H])C([H])([H])C([H])([H])C2([H])N([H])C(=O)C1([H])N(C(=O)C([H])(N([H])C(=O)C([H])(N([H])C([H])([H])[H])C([H])([H])[H])C(C([H])([H])[H])(C([H])([H])[H])C([H])([H])[H])C([H])([H])c2c([H])c(OC([H])([H])c3nc(C([H])([H])[H])c(C([H])([H])C4([H])C([H])([H])N(C(=O)N5C([H])([H])C([H])([H])C([H])([H])C([H])(n6nc(-c7c([H])c([H])c(Oc8c([H])c([H])c(F)c([H])c8F)c([H])c7[H])c(C(=O)N([H])[H])c6N([H])[H])C5([H])[H])C([H])([H])C4([H])[H])nc3C([H])([H])[H])c([H])c([H])c2C1([H])[H]

$$$$
66:0:0
     RDKit          3D

 92102  0  0  1  0  0  0  0  0999 V2000
  -27.9630  -20.3540   19.9900 C   0  0  0  0  0  3  0  0  0  0  0  0
  -30.2340  -20.5460   20.5370 C   0  0  0  0  0  3  0  0  0  0  0  0
  -29.1500  -19.6660   20.3420 C   0  0  0  0  0  0  0  0  0  0  0  0
  -28.9790  -22.4510   20.0080 C   0  0  0  0  0  0  0  0  0  0  0  0
  -27.8890  -21.7050   19.8120 N   0  0  0  0  0  0  0  0  0  0  0  0
  -30.1400  -21.9030   20.3910 N   0  0  0  0  0  0  0  0  0  0  0  0
  -30.6900  -14.6520   19.9380 C   0  0  0  0  0  0  0  0  0  0  0  0
  -30.3740  -12.4500   18.8080 C   0  0  0  0  0  2  0  0  0  0  0  0
  -29.3390  -12.6020   17.6720 C   0  0  0  0  0  2  0  0  0  0  0  0
  -27.9030  -12.4360   18.2050 C   0  0  0  0  0  2  0  0  0  0  0  0
  -27.6450  -13.2630   19.4890 C   0  0  0  0  0  3  0  0  0  0  0  0
  -28.7820  -13.0740   20.5140 C   0  0  0  0  0  2  0  0  0  0  0  0
  -30.0420  -13.4430   19.8550 N   0  0  0  0  0  0  0  0  0  0  0  0
  -31.7970  -14.7990   19.4060 O   0  0  0  0  0  0  0  0  0  0  0  0
  -29.7980  -17.6490   21.9330 C   0  0  0  0  0  2  0  0  0  0  0  0
  -29.9350  -16.1110   21.8100 C   0  0  0  0  0  2  0  0  0  0  0  0
  -29.8220  -17.0570   19.6440 C   0  0  0  0  0  2  0  0  0  0  0  0
  -29.1710  -18.1050   20.6200 C   0  0  0  0  0  3  0  0  0  0  0  0
  -29.9690  -15.7520   20.3790 N   0  0  0  0  0  0  0  0  0  0  0  0
  -25.3210  -13.8520   20.4020 C   0  0  0  0  0  0  0  0  0  0  0  0
  -24.2830  -13.0760   20.8360 C   0  0  0  0  0  0  0  0  0  0  0  0
  -24.7340  -11.7230   20.7410 C   0  0  0  0  0  0  0  0  0  0  0  0
  -26.3390  -12.9740   20.0690 N   0  0  0  0  0  0  0  0  0  0  0  0
  -25.9970  -11.6860   20.3340 N   0  0  0  0  0  0  0  0  0  0  0  0
  -24.0200  -10.4590   20.9580 C   0  0  0  0  0  0  0  0  0  0  0  0
  -24.4880   -9.4930   21.8750 C   0  0  0  0  0  3  0  0  0  0  0  0
  -23.7720   -8.2930   22.0790 C   0  0  0  0  0  3  0  0  0  0  0  0
  -22.5740   -8.0530   21.3660 C   0  0  0  0  0  0  0  0  0  0  0  0
  -22.1270   -9.0060   20.4350 C   0  0  0  0  0  3  0  0  0  0  0  0
  -22.8440  -10.1970   20.2290 C   0  0  0  0  0  3  0  0  0  0  0  0
  -21.8250   -6.9070   21.4830 O   0  0  0  0  0  0  0  0  0  0  0  0
  -21.7720   -6.1970   22.6570 C   0  0  0  0  0  0  0  0  0  0  0  0
  -21.3390   -6.7840   23.8660 C   0  0  0  0  0  3  0  0  0  0  0  0
  -21.2340   -6.0000   25.0310 C   0  0  0  0  0  3  0  0  0  0  0  0
  -21.5510   -4.6290   24.9870 C   0  0  0  0  0  0  0  0  0  0  0  0
  -21.9740   -4.0410   23.7820 C   0  0  0  0  0  3  0  0  0  0  0  0
  -22.0820   -4.8240   22.6190 C   0  0  0  0  0  0  0  0  0  0  0  0
  -22.4730   -4.2470   21.4560 F   0  0  0  0  0  0  0  0  0  0  0  0
  -21.4410   -3.8740   26.1040 F   0  0  0  0  0  0  0  0  0  0  0  0
  -22.9110  -13.5490   21.2240 C   0  0  0  0  0  0  0  0  0  0  0  0
  -22.2530  -12.8460   22.1370 N   0  0  0  0  0  0  0  0  0  0  0  0
  -22.4350  -14.5800   20.7510 O   0  0  0  0  0  0  0  0  0  0  0  0
  -22.6520  -12.0150   22.5480 H   0  0  0  0  0  0  0  0  0  0  0  0
  -21.3330  -13.1400   22.4300 H   0  0  0  0  0  0  0  0  0  0  0  0
  -25.4800  -15.2250   20.2370 N   0  0  0  0  0  0  0  0  0  0  0  0
  -24.7300  -15.8810   20.4290 H   0  0  0  0  0  0  0  0  0  0  0  0
  -26.3190  -15.6690   19.8840 H   0  0  0  0  0  0  0  0  0  0  0  0
  -28.7850  -24.2160   18.0660 C   0  0  0  0  0  2  0  0  0  0  0  0
  -30.1280  -24.4060   18.6790 C   0  0  0  0  0  2  0  0  0  0  0  0
  -28.9650  -23.9640   19.5570 C   0  0  2  0  0  0  0  0  0  0  0  0
  -28.3540  -25.0490   20.5280 C   0  0  0  0  0  2  0  0  0  0  0  0
  -28.4950  -26.4940   20.1810 O   0  0  0  0  0  0  0  0  0  0  0  0
  -24.6630  -31.8350   23.1810 C   0  0  0  0  0  0  0  0  0  0  0  0
  -27.3560  -27.3110   20.1560 C   0  0  0  0  0  0  0  0  0  0  0  0
  -23.4880  -30.4230   21.5260 C   0  0  0  0  0  3  0  0  0  0  0  0
  -24.9690  -28.8870   20.1130 C   0  0  0  0  0  0  0  0  0  0  0  0
  -26.0210  -30.7730   21.3650 C   0  0  0  0  0  2  0  0  0  0  0  0
  -26.1230  -29.3930   20.7240 C   0  0  0  0  0  0  0  0  0  0  0  0
  -27.3210  -28.6170   20.7330 C   0  0  0  0  0  3  0  0  0  0  0  0
  -26.1850  -26.8540   19.5170 C   0  0  0  0  0  3  0  0  0  0  0  0
  -25.0050  -27.6230   19.4950 C   0  0  0  0  0  3  0  0  0  0  0  0
  -23.7200  -29.7510   20.1440 C   0  0  0  0  0  2  0  0  0  0  0  0
  -24.7420  -31.0290   22.0810 N   0  0  0  0  0  0  0  0  0  0  0  0
  -23.5720  -32.1030   23.7070 O   0  0  0  0  0  0  0  0  0  0  0  0
  -22.8270  -29.4000   22.4820 C   0  0  0  0  0  0  0  0  0  0  0  0
  -21.5070  -29.2080   22.3350 N   0  0  0  0  0  0  0  0  0  0  0  0
  -23.5020  -28.7870   23.3130 O   0  0  0  0  0  0  0  0  0  0  0  0
  -21.0270  -29.7570   21.6350 H   0  0  0  0  0  0  0  0  0  0  0  0
  -18.1410  -27.9550   22.7670 C   0  0  0  0  0  0  0  0  0  0  0  0
  -20.6880  -28.2620   23.0930 C   0  0  0  0  0  3  0  0  0  0  0  0
  -20.8270  -26.8290   22.5300 C   0  0  0  0  0  2  0  0  0  0  0  0
  -19.7530  -26.4770   21.4950 C   0  0  0  0  0  2  0  0  0  0  0  0
  -18.3550  -26.6030   22.1050 C   0  0  0  0  0  2  0  0  0  0  0  0
  -19.2360  -28.7400   23.2160 C   0  0  0  0  0  0  0  0  0  0  0  0
  -18.9830  -30.0020   23.7940 C   0  0  0  0  0  3  0  0  0  0  0  0
  -17.6660  -30.4830   23.9260 C   0  0  0  0  0  3  0  0  0  0  0  0
  -16.5850  -29.6950   23.4930 C   0  0  0  0  0  3  0  0  0  0  0  0
  -16.8230  -28.4330   22.9190 C   0  0  0  0  0  3  0  0  0  0  0  0
  -25.9360  -32.4730   23.8210 C   0  0  0  0  0  3  0  0  0  0  0  0
  -25.6130  -33.8650   24.1630 N   0  0  0  0  0  0  0  0  0  0  0  0
  -25.9320  -34.9260   23.4100 C   0  0  0  0  0  0  0  0  0  0  0  0
  -26.6080  -34.8370   22.3820 O   0  0  0  0  0  0  0  0  0  0  0  0
  -25.0200  -34.0140   24.9680 H   0  0  0  0  0  0  0  0  0  0  0  0
  -24.1800  -36.6960   23.0640 C   0  0  0  0  0  1  0  0  0  0  0  0
  -25.4240  -36.3030   23.8740 C   0  0  0  0  0  3  0  0  0  0  0  0
  -27.5450  -37.2070   24.7170 C   0  0  0  0  0  1  0  0  0  0  0  0
  -26.4420  -37.3710   23.7750 N   0  0  0  0  0  0  0  0  0  0  0  0
  -26.0230  -38.2850   23.9310 H   0  0  0  0  0  0  0  0  0  0  0  0
  -26.4530  -31.6950   25.0930 C   0  0  1  0  0  0  0  0  0  0  0  0
  -25.3570  -31.4320   26.1510 C   0  0  0  0  0  1  0  0  0  0  0  0
  -27.0550  -30.3270   24.6900 C   0  0  0  0  0  1  0  0  0  0  0  0
  -27.5940  -32.4940   25.7680 C   0  0  0  0  0  1  0  0  0  0  0  0
  1  3  2  0
  3  2  1  0
  4  6  1  0
  5  1  1  0
  5  4  2  0
  6  2  2  0
  7 19  1  0
  8 13  1  0
  9 10  1  0
  9  8  1  0
 11 10  1  0
 11 23  1  0
 11 12  1  0
 13  7  1  0
 13 12  1  0
 14  7  2  0
 16 15  1  0
 17 19  1  0
 17 18  1  0
 18  3  1  0
 18 15  1  0
 19 16  1  0
 20 21  2  0
 21 40  1  0
 22 21  1  0
 22 25  1  0
 23 24  1  0
 23 20  1  0
 24 22  2  0
 25 26  1  0
 26 27  2  0
 28 31  1  0
 28 27  1  0
 29 28  2  0
 30 29  1  0
 30 25  2  0
 31 32  1  0
 32 33  1  0
 33 34  2  0
 35 34  1  0
 35 39  1  0
 36 35  2  0
 37 32  2  0
 37 36  1  0
 38 37  1  0
 40 41  1  0
 41 44  1  0
 41 43  1  0
 42 40  2  0
 45 20  1  0
 45 46  1  0
 47 45  1  0
 48 49  1  0
 48 50  1  0
 49 50  1  0
 50  4  1  0
 50 51  1  1
 52 51  1  0
 53 64  2  0
 54 52  1  0
 54 59  1  0
 55 63  1  0
 55 65  1  0
 56 62  1  0
 56 58  1  0
 57 63  1  0
 58 59  2  0
 58 57  1  0
 60 54  2  0
 61 60  1  0
 61 56  2  0
 62 55  1  0
 63 53  1  0
 65 67  2  0
 66 65  1  0
 68 66  1  0
 69 78  2  0
 69 74  1  0
 70 66  1  0
 70 74  1  0
 71 70  1  0
 72 73  1  0
 72 71  1  0
 73 69  1  0
 74 75  2  0
 75 76  1  0
 77 76  2  0
 78 77  1  0
 79 53  1  0
 79 80  1  0
 79 89  1  0
 80 83  1  0
 81 85  1  0
 81 80  1  0
 82 81  2  0
 85 84  1  0
 87 85  1  0
 87 88  1  0
 87 86  1  0
 89 92  1  1
 89 90  1  0
 91 89  1  0
M  ISO  4   7 100  19 100  51 101  52 101
M  END
>  <TORSDO>  (66) 
F 18

>  <SCORE>  (66) 
-14.075

>  <name>  (66) 
66

>  <ligand_id>  (66) 
66

>  <original_smiles>  (66) 
[H]c1nc(C2(C([H])([H])Oc3c([H])c([H])c4c(c3[H])C([H])([H])N(C(=O)C([H])(N([H])C(=O)C([H])(N([H])C([H])([H])[H])C([H])([H])[H])C(C([H])([H])[H])(C([H])([H])[H])C([H])([H])[H])C([H])(C(=O)N([H])C3([H])c5c([H])c([H])c([H])c([H])c5C([H])([H])C([H])([H])C3([H])[H])C4([H])[H])C([H])([H])C2([H])[H])nc([H])c1C1([H])C([H])([H])N(C(=O)N2C([H])([H])C([H])([H])C([H])([H])C([H])(n3nc(-c4c([H])c([H])c(Oc5c([H])c([H])c(F)c([H])c5F)c([H])c4[H])c(C(=O)N([H])[H])c3N([H])[H])C2([H])[H])C([H])([H])C1([H])[H]

>  <smiles>  (66) 
[H]c1nc(C2(C([H])([H])Oc3c([H])c([H])c4c(c3[H])C([H])([H])N(C(=O)C([H])(N([H])C(=O)C([H])(N([H])C([H])([H])[H])C([H])([H])[H])C(C([H])([H])[H])(C([H])([H])[H])C([H])([H])[H])C([H])(C(=O)N([H])C3([H])c5c([H])c([H])c([H])c([H])c5C([H])([H])C([H])([H])C3([H])[H])C4([H])[H])C([H])([H])C2([H])[H])nc([H])c1C1([H])C([H])([H])N(C(=O)N2C([H])([H])C([H])([H])C([H])([H])C([H])(n3nc(-c4c([H])c([H])c(Oc5c([H])c([H])c(F)c([H])c5F)c([H])c4[H])c(C(=O)N([H])[H])c3N([H])[H])C2([H])[H])C([H])([H])C1([H])[H]

$$$$
67:0:0
     RDKit          3D

 90 99  0  0  1  0  0  0  0  0999 V2000
  -30.2880  -15.6810   20.2880 C   0  0  0  0  0  0  0  0  0  0  0  0
  -30.4850  -13.1080   19.5860 C   0  0  0  0  0  2  0  0  0  0  0  0
  -29.6550  -12.6410   18.3560 C   0  0  0  0  0  2  0  0  0  0  0  0
  -28.2190  -12.2750   18.7650 C   0  0  0  0  0  2  0  0  0  0  0  0
  -27.6410  -13.3120   19.7540 C   0  0  0  0  0  3  0  0  0  0  0  0
  -28.6130  -13.6900   20.8950 C   0  0  0  0  0  2  0  0  0  0  0  0
  -29.8050  -14.3010   20.2590 N   0  0  0  0  0  0  0  0  0  0  0  0
  -31.5340  -15.6510   20.2090 O   0  0  0  0  0  0  0  0  0  0  0  0
  -28.1810  -19.4000   19.4110 C   0  0  0  0  0  3  0  0  0  0  0  0
  -29.5720  -21.2950   20.5970 C   0  0  0  0  0  3  0  0  0  0  0  0
  -27.8030  -20.8730   19.3300 C   0  0  0  0  0  0  0  0  0  0  0  0
  -28.4720  -22.0670   19.9240 C   0  0  0  0  0  0  0  0  0  0  0  0
  -29.2850  -18.6970   20.0990 C   0  0  0  0  0  0  0  0  0  0  0  0
  -29.9290  -19.8540   20.6630 N   0  0  0  0  0  0  0  0  0  0  0  0
  -29.4390  -16.9800   20.1820 N   0  0  0  0  0  0  0  0  0  0  0  0
  -28.5060  -16.6130   20.0780 H   0  0  0  0  0  0  0  0  0  0  0  0
  -25.2400  -13.8280   20.4030 C   0  0  0  0  0  0  0  0  0  0  0  0
  -24.1790  -13.0400   20.7480 C   0  0  0  0  0  0  0  0  0  0  0  0
  -24.6720  -11.7000   20.7820 C   0  0  0  0  0  0  0  0  0  0  0  0
  -26.3070  -12.9680   20.2310 N   0  0  0  0  0  0  0  0  0  0  0  0
  -25.9790  -11.6830   20.5280 N   0  0  0  0  0  0  0  0  0  0  0  0
  -23.9590  -10.4300   20.9810 C   0  0  0  0  0  0  0  0  0  0  0  0
  -24.3770   -9.4890   21.9460 C   0  0  0  0  0  3  0  0  0  0  0  0
  -23.6590   -8.2880   22.1330 C   0  0  0  0  0  3  0  0  0  0  0  0
  -22.5090   -8.0200   21.3540 C   0  0  0  0  0  0  0  0  0  0  0  0
  -22.1100   -8.9500   20.3770 C   0  0  0  0  0  3  0  0  0  0  0  0
  -22.8280  -10.1420   20.1900 C   0  0  0  0  0  3  0  0  0  0  0  0
  -21.7660   -6.8670   21.4470 O   0  0  0  0  0  0  0  0  0  0  0  0
  -21.7100   -6.1390   22.6090 C   0  0  0  0  0  0  0  0  0  0  0  0
  -21.2770   -6.7100   23.8260 C   0  0  0  0  0  3  0  0  0  0  0  0
  -21.1660   -5.9100   24.9790 C   0  0  0  0  0  3  0  0  0  0  0  0
  -21.4780   -4.5390   24.9180 C   0  0  0  0  0  0  0  0  0  0  0  0
  -21.9040   -3.9670   23.7060 C   0  0  0  0  0  3  0  0  0  0  0  0
  -22.0150   -4.7640   22.5550 C   0  0  0  0  0  0  0  0  0  0  0  0
  -22.4060   -4.2040   21.3840 F   0  0  0  0  0  0  0  0  0  0  0  0
  -21.3650   -3.7670   26.0240 F   0  0  0  0  0  0  0  0  0  0  0  0
  -22.7620  -13.5000   20.9340 C   0  0  0  0  0  0  0  0  0  0  0  0
  -22.0090  -12.8330   21.7990 N   0  0  0  0  0  0  0  0  0  0  0  0
  -22.3320  -14.4910   20.3440 O   0  0  0  0  0  0  0  0  0  0  0  0
  -22.3710  -12.0320   22.2980 H   0  0  0  0  0  0  0  0  0  0  0  0
  -21.0570  -13.1280   21.9670 H   0  0  0  0  0  0  0  0  0  0  0  0
  -25.3830  -15.1950   20.1880 N   0  0  0  0  0  0  0  0  0  0  0  0
  -24.5940  -15.8330   20.2310 H   0  0  0  0  0  0  0  0  0  0  0  0
  -26.2290  -15.6380   19.8620 H   0  0  0  0  0  0  0  0  0  0  0  0
  -25.2870  -21.7110   19.1410 C   0  0  0  0  0  2  0  0  0  0  0  0
  -25.3150  -20.2580   18.7490 C   0  0  0  0  0  2  0  0  0  0  0  0
  -26.5450  -21.1220   18.5390 C   0  0  0  0  0  3  0  0  0  0  0  0
  -27.3560  -23.9300   21.5240 C   0  0  0  0  0  1  0  0  0  0  0  0
  -27.7620  -23.8070   20.0520 C   0  0  0  0  0  3  0  0  0  0  0  0
  -28.0560  -25.5060   19.7430 O   0  0  0  0  0  0  0  0  0  0  0  0
  -24.6890  -31.7550   22.9590 C   0  0  0  0  0  0  0  0  0  0  0  0
  -27.0990  -26.7300   19.7970 C   0  0  0  0  0  0  0  0  0  0  0  0
  -23.4500  -30.4060   21.3210 C   0  0  0  0  0  3  0  0  0  0  0  0
  -24.8480  -28.7780   19.8440 C   0  0  0  0  0  0  0  0  0  0  0  0
  -26.0260  -30.5310   21.1390 C   0  0  0  0  0  2  0  0  0  0  0  0
  -26.0630  -29.1110   20.4540 C   0  0  0  0  0  0  0  0  0  0  0  0
  -27.1770  -28.1190   20.3960 C   0  0  0  0  0  3  0  0  0  0  0  0
  -25.8490  -26.6080   19.1410 C   0  0  0  0  0  3  0  0  0  0  0  0
  -24.7780  -27.5510   19.1630 C   0  0  0  0  0  3  0  0  0  0  0  0
  -23.6510  -29.7370   19.9310 C   0  0  0  0  0  2  0  0  0  0  0  0
  -24.7470  -30.9280   21.8600 N   0  0  0  0  0  0  0  0  0  0  0  0
  -23.6110  -32.0540   23.5020 O   0  0  0  0  0  0  0  0  0  0  0  0
  -22.7470  -29.4150   22.2880 C   0  0  0  0  0  0  0  0  0  0  0  0
  -21.4080  -29.2970   22.2080 N   0  0  0  0  0  0  0  0  0  0  0  0
  -23.4190  -28.7490   23.0800 O   0  0  0  0  0  0  0  0  0  0  0  0
  -20.9160  -29.8850   21.5510 H   0  0  0  0  0  0  0  0  0  0  0  0
  -18.0130  -28.1580   22.8240 C   0  0  0  0  0  0  0  0  0  0  0  0
  -20.5890  -28.3520   22.9800 C   0  0  0  0  0  3  0  0  0  0  0  0
  -20.6260  -26.9420   22.3470 C   0  0  0  0  0  2  0  0  0  0  0  0
  -19.4740  -26.6890   21.3700 C   0  0  0  0  0  2  0  0  0  0  0  0
  -18.1260  -26.8370   22.0820 C   0  0  0  0  0  2  0  0  0  0  0  0
  -19.1680  -28.8770   23.2310 C   0  0  0  0  0  0  0  0  0  0  0  0
  -19.0060  -30.1130   23.8930 C   0  0  0  0  0  3  0  0  0  0  0  0
  -17.7210  -30.6330   24.1470 C   0  0  0  0  0  3  0  0  0  0  0  0
  -16.5820  -29.9110   23.7510 C   0  0  0  0  0  3  0  0  0  0  0  0
  -16.7290  -28.6750   23.0960 C   0  0  0  0  0  3  0  0  0  0  0  0
  -25.9740  -32.3810   23.5820 C   0  0  0  0  0  3  0  0  0  0  0  0
  -25.6470  -33.7480   24.0360 N   0  0  0  0  0  0  0  0  0  0  0  0
  -25.9380  -34.8730   23.3700 C   0  0  0  0  0  0  0  0  0  0  0  0
  -26.5670  -34.8710   22.3100 O   0  0  0  0  0  0  0  0  0  0  0  0
  -25.0800  -33.8180   24.8690 H   0  0  0  0  0  0  0  0  0  0  0  0
  -24.1810  -36.6770   23.2590 C   0  0  0  0  0  1  0  0  0  0  0  0
  -25.4620  -36.2130   23.9710 C   0  0  0  0  0  3  0  0  0  0  0  0
  -27.6240  -37.0570   24.7800 C   0  0  0  0  0  1  0  0  0  0  0  0
  -26.4780  -37.2870   23.9040 N   0  0  0  0  0  0  0  0  0  0  0  0
  -26.0700  -38.1870   24.1450 H   0  0  0  0  0  0  0  0  0  0  0  0
  -26.5440  -31.5380   24.7900 C   0  0  1  0  0  0  0  0  0  0  0  0
  -25.4950  -31.2290   25.8850 C   0  0  0  0  0  1  0  0  0  0  0  0
  -27.1170  -30.1890   24.3030 C   0  0  0  0  0  1  0  0  0  0  0  0
  -27.7160  -32.2990   25.4520 C   0  0  0  0  0  1  0  0  0  0  0  0
  2  7  1  0
  3  4  1  0
  3  2  1  0
  5  4  1  0
  5 20  1  0
  5  6  1  0
  7  1  1  0
  7  6  1  0
  8  1  2  0
  9 13  1  0
 10 14  1  0
 11  9  2  0
 11 12  1  0
 12 49  1  0
 12 10  2  0
 13 15  1  0
 13 14  2  0
 15  1  1  0
 16 15  1  0
 17 18  2  0
 18 19  1  0
 18 37  1  0
 19 22  1  0
 20 17  1  0
 20 21  1  0
 21 19  2  0
 22 23  1  0
 23 24  2  0
 25 28  1  0
 25 24  1  0
 26 25  2  0
 27 26  1  0
 27 22  2  0
 28 29  1  0
 29 30  1  0
 30 31  2  0
 32 31  1  0
 32 36  1  0
 33 32  2  0
 34 29  2  0
 34 33  1  0
 35 34  1  0
 37 38  1  0
 38 41  1  0
 38 40  1  0
 39 37  2  0
 42 43  1  0
 42 17  1  0
 44 42  1  0
 46 45  1  0
 47 46  1  0
 47 45  1  0
 47 11  1  0
 49 48  1  0
 50 52  1  0
 50 49  1  0
 51 62  2  0
 52 57  1  0
 53 61  1  0
 53 63  1  0
 54 60  1  0
 54 56  1  0
 55 61  1  0
 56 55  1  0
 57 56  2  0
 58 59  1  0
 58 52  2  0
 59 54  2  0
 60 53  1  0
 61 51  1  0
 63 65  2  0
 64 63  1  0
 66 64  1  0
 67 76  2  0
 67 72  1  0
 68 64  1  0
 68 72  1  0
 69 68  1  0
 70 71  1  0
 70 69  1  0
 71 67  1  0
 72 73  2  0
 73 74  1  0
 75 74  2  0
 76 75  1  0
 77 51  1  0
 77 78  1  0
 77 87  1  0
 78 81  1  0
 79 83  1  0
 79 78  1  0
 80 79  2  0
 83 82  1  0
 85 83  1  0
 85 86  1  0
 85 84  1  0
 87 90  1  1
 87 88  1  0
 89 87  1  0
M  ISO  4   1 100  15 100  49 101  50 101
M  END
>  <TORSDO>  (67) 
F 17

>  <SCORE>  (67) 
-15.060

>  <name>  (67) 
67

>  <ligand_id>  (67) 
67

>  <original_smiles>  (67) 
[H]c1nc(N([H])C(=O)N2C([H])([H])C([H])([H])C([H])([H])C([H])(n3nc(-c4c([H])c([H])c(Oc5c([H])c([H])c(F)c([H])c5F)c([H])c4[H])c(C(=O)N([H])[H])c3N([H])[H])C2([H])[H])c([H])c(C2([H])C([H])([H])C2([H])[H])c1C([H])(Oc1c([H])c([H])c2c(c1[H])C([H])([H])N(C(=O)C([H])(N([H])C(=O)C([H])(N([H])C([H])([H])[H])C([H])([H])[H])C(C([H])([H])[H])(C([H])([H])[H])C([H])([H])[H])C([H])(C(=O)N([H])C1([H])c3c([H])c([H])c([H])c([H])c3C([H])([H])C([H])([H])C1([H])[H])C2([H])[H])C([H])([H])[H]

>  <smiles>  (67) 
[H]c1nc(N([H])C(=O)N2C([H])([H])C([H])([H])C([H])([H])C([H])(n3nc(-c4c([H])c([H])c(Oc5c([H])c([H])c(F)c([H])c5F)c([H])c4[H])c(C(=O)N([H])[H])c3N([H])[H])C2([H])[H])c([H])c(C2([H])C([H])([H])C2([H])[H])c1C([H])(Oc1c([H])c([H])c2c(c1[H])C([H])([H])N(C(=O)C([H])(N([H])C(=O)C([H])(N([H])C([H])([H])[H])C([H])([H])[H])C(C([H])([H])[H])(C([H])([H])[H])C([H])([H])[H])C([H])(C(=O)N([H])C1([H])c3c([H])c([H])c([H])c([H])c3C([H])([H])C([H])([H])C1([H])[H])C2([H])[H])C([H])([H])[H]

$$$$
68:0:0
     RDKit          3D

 90 99  0  0  1  0  0  0  0  0999 V2000
  -27.3400  -23.3240   20.0250 C   0  0  0  0  0  3  0  0  0  0  0  0
  -26.8630  -22.0150   19.9390 C   0  0  0  0  0  0  0  0  0  0  0  0
  -28.7160  -23.5550   20.0560 C   0  0  0  0  0  0  0  0  0  0  0  0
  -28.9980  -21.0220   20.0110 C   0  0  0  0  0  0  0  0  0  0  0  0
  -25.3800  -21.7310   19.8200 C   0  0  0  0  0  1  0  0  0  0  0  0
  -27.6700  -20.9390   19.9240 N   0  0  0  0  0  0  0  0  0  0  0  0
  -29.5360  -22.3450   20.0760 N   0  0  0  0  0  0  0  0  0  0  0  0
  -31.0520  -15.5440   19.8500 C   0  0  0  0  0  0  0  0  0  0  0  0
  -30.8950  -13.1440   18.9650 C   0  0  0  0  0  2  0  0  0  0  0  0
  -29.9260  -13.0450   17.7640 C   0  0  0  0  0  2  0  0  0  0  0  0
  -28.4800  -12.8380   18.2480 C   0  0  0  0  0  2  0  0  0  0  0  0
  -28.1130  -13.7820   19.4240 C   0  0  0  0  0  3  0  0  0  0  0  0
  -29.2100  -13.8370   20.5110 C   0  0  0  0  0  2  0  0  0  0  0  0
  -30.4440  -14.2730   19.8450 N   0  0  0  0  0  0  0  0  0  0  0  0
  -32.2150  -15.5610   19.4290 O   0  0  0  0  0  0  0  0  0  0  0  0
  -30.0680  -18.8740   21.5620 C   0  0  0  0  0  2  0  0  0  0  0  0
  -30.0860  -17.2840   21.4600 C   0  0  0  0  0  2  0  0  0  0  0  0
  -30.2650  -18.1830   19.3070 C   0  0  0  0  0  2  0  0  0  0  0  0
  -29.6040  -19.4160   20.2060 C   0  0  0  0  0  3  0  0  0  0  0  0
  -30.3370  -16.7940   20.0760 N   0  0  0  0  0  0  0  0  0  0  0  0
  -25.7960  -14.3790   20.3150 C   0  0  0  0  0  0  0  0  0  0  0  0
  -24.7300  -13.6160   20.6990 C   0  0  0  0  0  0  0  0  0  0  0  0
  -25.1510  -12.2550   20.5800 C   0  0  0  0  0  0  0  0  0  0  0  0
  -26.7980  -13.4860   19.9770 N   0  0  0  0  0  0  0  0  0  0  0  0
  -26.4240  -12.2000   20.2030 N   0  0  0  0  0  0  0  0  0  0  0  0
  -24.3960  -11.0060   20.7450 C   0  0  0  0  0  0  0  0  0  0  0  0
  -24.7490  -10.0510   21.7230 C   0  0  0  0  0  3  0  0  0  0  0  0
  -23.9920   -8.8690   21.8760 C   0  0  0  0  0  3  0  0  0  0  0  0
  -22.8660   -8.6350   21.0500 C   0  0  0  0  0  0  0  0  0  0  0  0
  -22.5330   -9.5790   20.0640 C   0  0  0  0  0  3  0  0  0  0  0  0
  -23.2900  -10.7520   19.9090 C   0  0  0  0  0  3  0  0  0  0  0  0
  -22.0870   -7.5060   21.1120 O   0  0  0  0  0  0  0  0  0  0  0  0
  -21.8320   -6.8700   22.3010 C   0  0  0  0  0  0  0  0  0  0  0  0
  -21.1960   -7.5290   23.3770 C   0  0  0  0  0  3  0  0  0  0  0  0
  -20.8890   -6.8190   24.5540 C   0  0  0  0  0  3  0  0  0  0  0  0
  -21.2090   -5.4520   24.6570 C   0  0  0  0  0  0  0  0  0  0  0  0
  -21.8370   -4.7930   23.5850 C   0  0  0  0  0  3  0  0  0  0  0  0
  -22.1440   -5.5010   22.4100 C   0  0  0  0  0  0  0  0  0  0  0  0
  -22.7300   -4.8560   21.3710 F   0  0  0  0  0  0  0  0  0  0  0  0
  -20.9080   -4.7670   25.7850 F   0  0  0  0  0  0  0  0  0  0  0  0
  -23.3640  -14.1210   21.0620 C   0  0  0  0  0  0  0  0  0  0  0  0
  -22.6700  -13.4240   21.9560 N   0  0  0  0  0  0  0  0  0  0  0  0
  -22.9230  -15.1660   20.5880 O   0  0  0  0  0  0  0  0  0  0  0  0
  -23.0400  -12.5780   22.3620 H   0  0  0  0  0  0  0  0  0  0  0  0
  -21.7530  -13.7430   22.2370 H   0  0  0  0  0  0  0  0  0  0  0  0
  -25.9920  -15.7520   20.1970 N   0  0  0  0  0  0  0  0  0  0  0  0
  -25.2530  -16.4240   20.3780 H   0  0  0  0  0  0  0  0  0  0  0  0
  -26.8440  -16.1810   19.8570 H   0  0  0  0  0  0  0  0  0  0  0  0
  -29.1480  -25.1630   19.7740 C   0  0  0  0  0  2  0  0  0  0  0  0
  -28.7340  -26.5310   20.4840 O   0  0  0  0  0  0  0  0  0  0  0  0
  -24.5680  -31.9620   23.2940 C   0  0  0  0  0  0  0  0  0  0  0  0
  -27.6120  -27.4460   20.3030 C   0  0  0  0  0  0  0  0  0  0  0  0
  -23.5420  -30.5040   21.5890 C   0  0  0  0  0  3  0  0  0  0  0  0
  -25.1600  -29.0530   20.1920 C   0  0  0  0  0  0  0  0  0  0  0  0
  -26.0750  -30.9470   21.5310 C   0  0  0  0  0  2  0  0  0  0  0  0
  -26.2770  -29.5670   20.8610 C   0  0  0  0  0  0  0  0  0  0  0  0
  -27.4930  -28.7780   20.9010 C   0  0  0  0  0  3  0  0  0  0  0  0
  -26.4670  -27.0480   19.5810 C   0  0  0  0  0  3  0  0  0  0  0  0
  -25.2730  -27.8120   19.5370 C   0  0  0  0  0  3  0  0  0  0  0  0
  -23.8660  -29.8590   20.2120 C   0  0  0  0  0  2  0  0  0  0  0  0
  -24.7450  -31.1640   22.1920 N   0  0  0  0  0  0  0  0  0  0  0  0
  -23.4440  -32.1570   23.7820 O   0  0  0  0  0  0  0  0  0  0  0  0
  -22.8990  -29.4390   22.5160 C   0  0  0  0  0  0  0  0  0  0  0  0
  -21.5980  -29.1550   22.3210 N   0  0  0  0  0  0  0  0  0  0  0  0
  -23.5760  -28.8710   23.3760 O   0  0  0  0  0  0  0  0  0  0  0  0
  -21.1020  -29.6730   21.6100 H   0  0  0  0  0  0  0  0  0  0  0  0
  -18.3150  -27.6540   22.6460 C   0  0  0  0  0  0  0  0  0  0  0  0
  -20.8230  -28.1430   23.0470 C   0  0  0  0  0  3  0  0  0  0  0  0
  -21.0810  -26.7290   22.4740 C   0  0  0  0  0  2  0  0  0  0  0  0
  -20.0670  -26.3170   21.4020 C   0  0  0  0  0  2  0  0  0  0  0  0
  -18.6460  -26.3330   21.9740 C   0  0  0  0  0  2  0  0  0  0  0  0
  -19.3370  -28.5110   23.1350 C   0  0  0  0  0  0  0  0  0  0  0  0
  -18.9720  -29.7420   23.7240 C   0  0  0  0  0  3  0  0  0  0  0  0
  -17.6210  -30.1190   23.8270 C   0  0  0  0  0  3  0  0  0  0  0  0
  -16.6130  -29.2600   23.3530 C   0  0  0  0  0  3  0  0  0  0  0  0
  -16.9610  -28.0300   22.7690 C   0  0  0  0  0  3  0  0  0  0  0  0
  -25.7680  -32.6840   23.9810 C   0  0  0  0  0  3  0  0  0  0  0  0
  -25.3620  -34.0720   24.2560 N   0  0  0  0  0  0  0  0  0  0  0  0
  -25.6820  -35.1290   23.4950 C   0  0  0  0  0  0  0  0  0  0  0  0
  -26.4130  -35.0390   22.5050 O   0  0  0  0  0  0  0  0  0  0  0  0
  -24.7160  -34.2110   25.0190 H   0  0  0  0  0  0  0  0  0  0  0  0
  -23.8850  -36.8250   23.0110 C   0  0  0  0  0  1  0  0  0  0  0  0
  -25.1000  -36.5000   23.8950 C   0  0  0  0  0  3  0  0  0  0  0  0
  -27.1320  -37.5190   24.8210 C   0  0  0  0  0  1  0  0  0  0  0  0
  -26.0810  -37.6040   23.8110 N   0  0  0  0  0  0  0  0  0  0  0  0
  -25.6200  -38.5040   23.9080 H   0  0  0  0  0  0  0  0  0  0  0  0
  -26.2350  -31.9790   25.3160 C   0  0  1  0  0  0  0  0  0  0  0  0
  -25.0820  -31.6930   26.3070 C   0  0  0  0  0  1  0  0  0  0  0  0
  -26.9340  -30.6350   25.0120 C   0  0  0  0  0  1  0  0  0  0  0  0
  -27.2800  -32.8630   26.0380 C   0  0  0  0  0  1  0  0  0  0  0  0
  1  3  1  0
  2  1  2  0
  3  7  2  0
  4  7  1  0
  5  2  1  0
  6  2  1  0
  6  4  2  0
  8 20  1  0
  9 14  1  0
 10 11  1  0
 10  9  1  0
 12 11  1  0
 12 24  1  0
 12 13  1  0
 14  8  1  0
 14 13  1  0
 15  8  2  0
 17 16  1  0
 18 20  1  0
 18 19  1  0
 19  4  1  0
 19 16  1  0
 20 17  1  0
 21 22  2  0
 22 41  1  0
 23 22  1  0
 23 26  1  0
 24 25  1  0
 24 21  1  0
 25 23  2  0
 26 27  1  0
 27 28  2  0
 29 32  1  0
 29 28  1  0
 30 29  2  0
 31 30  1  0
 31 26  2  0
 32 33  1  0
 33 38  2  0
 33 34  1  0
 34 35  2  0
 35 36  1  0
 36 40  1  0
 37 36  2  0
 38 37  1  0
 39 38  1  0
 41 42  1  0
 42 45  1  0
 42 44  1  0
 43 41  2  0
 46 21  1  0
 46 47  1  0
 48 46  1  0
 49  3  1  0
 49 50  1  0
 51 62  2  0
 52 50  1  0
 52 57  1  0
 53 61  1  0
 53 63  1  0
 54 60  1  0
 54 56  1  0
 55 61  1  0
 56 57  2  0
 56 55  1  0
 58 52  2  0
 59 58  1  0
 59 54  2  0
 60 53  1  0
 61 51  1  0
 63 65  2  0
 64 63  1  0
 66 64  1  0
 67 76  2  0
 67 72  1  0
 68 64  1  0
 68 72  1  0
 69 68  1  0
 70 71  1  0
 70 69  1  0
 71 67  1  0
 72 73  2  0
 73 74  1  0
 75 74  2  0
 76 75  1  0
 77 51  1  0
 77 78  1  0
 77 87  1  0
 78 81  1  0
 79 83  1  0
 79 78  1  0
 80 79  2  0
 83 82  1  0
 85 83  1  0
 85 86  1  0
 85 84  1  0
 87 90  1  1
 87 88  1  0
 89 87  1  0
M  ISO  4   8 100  20 100  49 101  50 101
M  END
>  <TORSDO>  (68) 
F 17

>  <SCORE>  (68) 
-12.558

>  <name>  (68) 
68

>  <ligand_id>  (68) 
68

>  <original_smiles>  (68) 
[H]c1c(C([H])([H])[H])nc(C2([H])C([H])([H])N(C(=O)N3C([H])([H])C([H])([H])C([H])([H])C([H])(n4nc(-c5c([H])c([H])c(Oc6c([H])c([H])c(F)c([H])c6F)c([H])c5[H])c(C(=O)N([H])[H])c4N([H])[H])C3([H])[H])C([H])([H])C2([H])[H])nc1C([H])([H])Oc1c([H])c([H])c2c(c1[H])C([H])([H])N(C(=O)C([H])(N([H])C(=O)C([H])(N([H])C([H])([H])[H])C([H])([H])[H])C(C([H])([H])[H])(C([H])([H])[H])C([H])([H])[H])C([H])(C(=O)N([H])C1([H])c3c([H])c([H])c([H])c([H])c3C([H])([H])C([H])([H])C1([H])[H])C2([H])[H]

>  <smiles>  (68) 
[H]c1c(C([H])([H])[H])nc(C2([H])C([H])([H])N(C(=O)N3C([H])([H])C([H])([H])C([H])([H])C([H])(n4nc(-c5c([H])c([H])c(Oc6c([H])c([H])c(F)c([H])c6F)c([H])c5[H])c(C(=O)N([H])[H])c4N([H])[H])C3([H])[H])C([H])([H])C2([H])[H])nc1C([H])([H])Oc1c([H])c([H])c2c(c1[H])C([H])([H])N(C(=O)C([H])(N([H])C(=O)C([H])(N([H])C([H])([H])[H])C([H])([H])[H])C(C([H])([H])[H])(C([H])([H])[H])C([H])([H])[H])C([H])(C(=O)N([H])C1([H])c3c([H])c([H])c([H])c([H])c3C([H])([H])C([H])([H])C1([H])[H])C2([H])[H]

$$$$
69:0:0
     RDKit          3D

 89 98  0  0  1  0  0  0  0  0999 V2000
  -27.9140  -21.7200   20.2360 C   0  0  0  0  0  3  0  0  0  0  0  0
  -30.0060  -22.2830   19.5130 C   0  0  0  0  0  3  0  0  0  0  0  0
  -28.7400  -22.8720   19.9100 C   0  0  0  0  0  0  0  0  0  0  0  0
  -28.2880  -20.2880   20.1880 C   0  0  0  0  0  0  0  0  0  0  0  0
  -29.6110  -19.8030   19.8300 C   0  0  0  0  0  0  0  0  0  0  0  0
  -27.1860  -19.2870   20.5110 C   0  0  0  0  0  1  0  0  0  0  0  0
  -30.4000  -20.9130   19.5150 N   0  0  0  0  0  0  0  0  0  0  0  0
  -30.8900  -15.3240   19.8080 C   0  0  0  0  0  0  0  0  0  0  0  0
  -30.7940  -12.8940   18.9300 C   0  0  0  0  0  2  0  0  0  0  0  0
  -29.7670  -12.7000   17.7870 C   0  0  0  0  0  2  0  0  0  0  0  0
  -28.3600  -12.4420   18.3550 C   0  0  0  0  0  2  0  0  0  0  0  0
  -28.0140  -13.4030   19.5190 C   0  0  0  0  0  3  0  0  0  0  0  0
  -29.1560  -13.5300   20.5480 C   0  0  0  0  0  2  0  0  0  0  0  0
  -30.3310  -14.0220   19.8150 N   0  0  0  0  0  0  0  0  0  0  0  0
  -32.0450  -15.3640   19.3600 O   0  0  0  0  0  0  0  0  0  0  0  0
  -30.6330  -18.0950   21.3740 C   0  0  0  0  0  2  0  0  0  0  0  0
  -29.8280  -16.8070   21.4930 C   0  0  0  0  0  2  0  0  0  0  0  0
  -30.3150  -18.2040   19.8690 C   0  0  0  0  0  3  0  0  0  0  0  0
  -30.1400  -16.5600   20.0890 N   0  0  0  0  0  0  0  0  0  0  0  0
  -25.7730  -13.9590   20.6110 C   0  0  0  0  0  0  0  0  0  0  0  0
  -24.7240  -13.1790   21.0150 C   0  0  0  0  0  0  0  0  0  0  0  0
  -25.1170  -11.8270   20.7710 C   0  0  0  0  0  0  0  0  0  0  0  0
  -26.7370  -13.0800   20.1430 N   0  0  0  0  0  0  0  0  0  0  0  0
  -26.3600  -11.7860   20.3050 N   0  0  0  0  0  0  0  0  0  0  0  0
  -24.3560  -10.5760   20.9000 C   0  0  0  0  0  0  0  0  0  0  0  0
  -24.7410   -9.5680   21.8100 C   0  0  0  0  0  3  0  0  0  0  0  0
  -23.9810   -8.3840   21.9300 C   0  0  0  0  0  3  0  0  0  0  0  0
  -22.8220   -8.2010   21.1390 C   0  0  0  0  0  0  0  0  0  0  0  0
  -22.4560   -9.1990   20.2170 C   0  0  0  0  0  3  0  0  0  0  0  0
  -23.2160  -10.3740   20.0970 C   0  0  0  0  0  3  0  0  0  0  0  0
  -22.0370   -7.0730   21.1690 O   0  0  0  0  0  0  0  0  0  0  0  0
  -21.7900   -6.3990   22.3380 C   0  0  0  0  0  0  0  0  0  0  0  0
  -21.1450   -7.0170   23.4320 C   0  0  0  0  0  3  0  0  0  0  0  0
  -20.8480   -6.2680   24.5890 C   0  0  0  0  0  3  0  0  0  0  0  0
  -21.1860   -4.9030   24.6500 C   0  0  0  0  0  0  0  0  0  0  0  0
  -21.8220   -4.2860   23.5590 C   0  0  0  0  0  3  0  0  0  0  0  0
  -22.1190   -5.0310   22.4060 C   0  0  0  0  0  0  0  0  0  0  0  0
  -22.7140   -4.4260   21.3480 F   0  0  0  0  0  0  0  0  0  0  0  0
  -20.8940   -4.1820   25.7570 F   0  0  0  0  0  0  0  0  0  0  0  0
  -23.3910  -13.6690   21.5020 C   0  0  0  0  0  0  0  0  0  0  0  0
  -22.7480  -12.9180   22.3910 N   0  0  0  0  0  0  0  0  0  0  0  0
  -22.9340  -14.7490   21.1310 O   0  0  0  0  0  0  0  0  0  0  0  0
  -23.1310  -12.0410   22.7100 H   0  0  0  0  0  0  0  0  0  0  0  0
  -21.8590  -13.2260   22.7570 H   0  0  0  0  0  0  0  0  0  0  0  0
  -25.9820  -15.3330   20.5740 N   0  0  0  0  0  0  0  0  0  0  0  0
  -25.2650  -15.9930   20.8570 H   0  0  0  0  0  0  0  0  0  0  0  0
  -26.7980  -15.7790   20.1760 H   0  0  0  0  0  0  0  0  0  0  0  0
  -28.0920  -24.4650   19.6980 C   0  0  0  0  0  2  0  0  0  0  0  0
  -28.4170  -25.9740   20.2010 O   0  0  0  0  0  0  0  0  0  0  0  0
  -24.7590  -31.7860   23.2620 C   0  0  0  0  0  0  0  0  0  0  0  0
  -27.4240  -27.0750   20.1340 C   0  0  0  0  0  0  0  0  0  0  0  0
  -23.6150  -30.4280   21.5580 C   0  0  0  0  0  3  0  0  0  0  0  0
  -25.1080  -28.9060   20.1090 C   0  0  0  0  0  0  0  0  0  0  0  0
  -26.1770  -30.6950   21.4590 C   0  0  0  0  0  2  0  0  0  0  0  0
  -26.2790  -29.3090   20.7640 C   0  0  0  0  0  0  0  0  0  0  0  0
  -27.4360  -28.4120   20.7570 C   0  0  0  0  0  3  0  0  0  0  0  0
  -26.2250  -26.8260   19.4280 C   0  0  0  0  0  3  0  0  0  0  0  0
  -25.1020  -27.6850   19.4240 C   0  0  0  0  0  3  0  0  0  0  0  0
  -23.8750  -29.8030   20.1630 C   0  0  0  0  0  2  0  0  0  0  0  0
  -24.8710  -30.9930   22.1490 N   0  0  0  0  0  0  0  0  0  0  0  0
  -23.6550  -32.0410   23.7730 O   0  0  0  0  0  0  0  0  0  0  0  0
  -22.9220  -29.3840   22.4760 C   0  0  0  0  0  0  0  0  0  0  0  0
  -21.5960  -29.2100   22.3260 N   0  0  0  0  0  0  0  0  0  0  0  0
  -23.5840  -28.7380   23.2910 O   0  0  0  0  0  0  0  0  0  0  0  0
  -21.1140  -29.7870   21.6510 H   0  0  0  0  0  0  0  0  0  0  0  0
  -18.2050  -28.0090   22.7990 C   0  0  0  0  0  0  0  0  0  0  0  0
  -20.7710  -28.2380   23.0520 C   0  0  0  0  0  3  0  0  0  0  0  0
  -20.8530  -26.8400   22.3960 C   0  0  0  0  0  2  0  0  0  0  0  0
  -19.7370  -26.5850   21.3780 C   0  0  0  0  0  2  0  0  0  0  0  0
  -18.3630  -26.7010   22.0440 C   0  0  0  0  0  2  0  0  0  0  0  0
  -19.3350  -28.7390   23.2600 C   0  0  0  0  0  0  0  0  0  0  0  0
  -19.1300  -29.9640   23.9300 C   0  0  0  0  0  3  0  0  0  0  0  0
  -17.8300  -30.4610   24.1420 C   0  0  0  0  0  3  0  0  0  0  0  0
  -16.7160  -29.7300   23.6960 C   0  0  0  0  0  3  0  0  0  0  0  0
  -16.9050  -28.5040   23.0310 C   0  0  0  0  0  3  0  0  0  0  0  0
  -26.0090  -32.4250   23.9380 C   0  0  0  0  0  3  0  0  0  0  0  0
  -25.6800  -33.8220   24.2710 N   0  0  0  0  0  0  0  0  0  0  0  0
  -25.9770  -34.8820   23.5070 C   0  0  0  0  0  0  0  0  0  0  0  0
  -26.6230  -34.7880   22.4600 O   0  0  0  0  0  0  0  0  0  0  0  0
  -25.1100  -33.9680   25.0890 H   0  0  0  0  0  0  0  0  0  0  0  0
  -24.2040  -36.6440   23.2100 C   0  0  0  0  0  1  0  0  0  0  0  0
  -25.4830  -36.2650   23.9760 C   0  0  0  0  0  3  0  0  0  0  0  0
  -27.6220  -37.2080   24.7320 C   0  0  0  0  0  1  0  0  0  0  0  0
  -26.4900  -37.3380   23.8190 N   0  0  0  0  0  0  0  0  0  0  0  0
  -26.0690  -38.2510   23.9630 H   0  0  0  0  0  0  0  0  0  0  0  0
  -26.4720  -31.6520   25.2340 C   0  0  1  0  0  0  0  0  0  0  0  0
  -25.3350  -31.4040   26.2540 C   0  0  0  0  0  1  0  0  0  0  0  0
  -27.0750  -30.2760   24.8670 C   0  0  0  0  0  1  0  0  0  0  0  0
  -27.5890  -32.4460   25.9510 C   0  0  0  0  0  1  0  0  0  0  0  0
  2  7  2  0
  2  3  1  0
  3  1  2  0
  4  1  1  0
  4  6  1  0
  5  4  2  0
  7  5  1  0
  8 14  1  0
  8 19  1  0
  9 14  1  0
 10 11  1  0
 10  9  1  0
 12 11  1  0
 12 23  1  0
 12 13  1  0
 14 13  1  0
 15  8  2  0
 16 17  1  0
 18  5  1  0
 18 19  1  0
 18 16  1  0
 19 17  1  0
 20 21  2  0
 21 40  1  0
 22 25  1  0
 22 21  1  0
 23 24  1  0
 23 20  1  0
 24 22  2  0
 25 26  1  0
 26 27  2  0
 28 31  1  0
 28 27  1  0
 29 28  2  0
 30 29  1  0
 30 25  2  0
 31 32  1  0
 32 37  2  0
 32 33  1  0
 33 34  2  0
 34 35  1  0
 35 39  1  0
 36 35  2  0
 37 36  1  0
 38 37  1  0
 40 41  1  0
 41 43  1  0
 41 44  1  0
 42 40  2  0
 45 20  1  0
 45 46  1  0
 47 45  1  0
 48  3  1  0
 48 49  1  0
 50 61  2  0
 51 49  1  0
 51 56  1  0
 52 60  1  0
 52 62  1  0
 53 59  1  0
 53 55  1  0
 54 60  1  0
 55 54  1  0
 56 55  2  0
 57 51  2  0
 58 57  1  0
 58 53  2  0
 59 52  1  0
 60 50  1  0
 62 64  2  0
 63 62  1  0
 65 63  1  0
 66 75  2  0
 66 71  1  0
 67 63  1  0
 67 71  1  0
 68 67  1  0
 69 70  1  0
 69 68  1  0
 70 66  1  0
 71 72  2  0
 72 73  1  0
 74 73  2  0
 75 74  1  0
 76 50  1  0
 76 77  1  0
 76 86  1  0
 77 80  1  0
 78 82  1  0
 78 77  1  0
 79 78  2  0
 82 81  1  0
 84 85  1  0
 84 82  1  0
 84 83  1  0
 86 89  1  1
 86 87  1  0
 88 86  1  0
M  ISO  4   8 100  19 100  48 101  49 101
M  END
>  <TORSDO>  (69) 
F 17

>  <SCORE>  (69) 
-14.457

>  <name>  (69) 
69

>  <ligand_id>  (69) 
69

>  <original_smiles>  (69) 
[H]c1nc(C2([H])N(C(=O)N3C([H])([H])C([H])([H])C([H])([H])C([H])(n4nc(-c5c([H])c([H])c(Oc6c([H])c([H])c(F)c([H])c6F)c([H])c5[H])c(C(=O)N([H])[H])c4N([H])[H])C3([H])[H])C([H])([H])C2([H])[H])c(C([H])([H])[H])c([H])c1C([H])([H])Oc1c([H])c([H])c2c(c1[H])C([H])([H])N(C(=O)C([H])(N([H])C(=O)C([H])(N([H])C([H])([H])[H])C([H])([H])[H])C(C([H])([H])[H])(C([H])([H])[H])C([H])([H])[H])C([H])(C(=O)N([H])C1([H])c3c([H])c([H])c([H])c([H])c3C([H])([H])C([H])([H])C1([H])[H])C2([H])[H]

>  <smiles>  (69) 
[H]c1nc(C2([H])N(C(=O)N3C([H])([H])C([H])([H])C([H])([H])C([H])(n4nc(-c5c([H])c([H])c(Oc6c([H])c([H])c(F)c([H])c6F)c([H])c5[H])c(C(=O)N([H])[H])c4N([H])[H])C3([H])[H])C([H])([H])C2([H])[H])c(C([H])([H])[H])c([H])c1C([H])([H])Oc1c([H])c([H])c2c(c1[H])C([H])([H])N(C(=O)C([H])(N([H])C(=O)C([H])(N([H])C([H])([H])[H])C([H])([H])[H])C(C([H])([H])[H])(C([H])([H])[H])C([H])([H])[H])C([H])(C(=O)N([H])C1([H])c3c([H])c([H])c([H])c([H])c3C([H])([H])C([H])([H])C1([H])[H])C2([H])[H]

$$$$
70:0:0
     RDKit          3D

 89 97  0  0  1  0  0  0  0  0999 V2000
  -29.2020  -21.1450   20.5060 N   0  0  0  0  0  4  0  0  0  0  0  0
  -30.1920  -21.2840   20.3720 H   0  0  0  0  0  0  0  0  0  0  0  0
  -29.0800  -21.2100   21.5050 H   0  0  0  0  0  0  0  0  0  0  0  0
  -30.3770  -15.3630   19.8930 C   0  0  0  0  0  0  0  0  0  0  0  0
  -30.2870  -12.9450   18.9230 C   0  0  0  0  0  2  0  0  0  0  0  0
  -29.2760  -12.7380   17.7690 C   0  0  0  0  0  2  0  0  0  0  0  0
  -27.8730  -12.4370   18.3200 C   0  0  0  0  0  2  0  0  0  0  0  0
  -27.5010  -13.3730   19.4970 C   0  0  0  0  0  3  0  0  0  0  0  0
  -28.6320  -13.5180   20.5350 C   0  0  0  0  0  2  0  0  0  0  0  0
  -29.7890  -14.0640   19.8090 N   0  0  0  0  0  0  0  0  0  0  0  0
  -31.6000  -15.3220   19.6820 O   0  0  0  0  0  0  0  0  0  0  0  0
  -28.8290  -18.8750   18.8190 C   0  0  0  0  0  2  0  0  0  0  0  0
  -28.8430  -17.2580   18.9040 C   0  0  0  0  0  2  0  0  0  0  0  0
  -28.9560  -19.4900   20.2330 C   0  0  0  0  0  3  0  0  0  0  0  0
  -29.9340  -18.1330   20.6920 C   0  0  0  0  0  3  0  0  0  0  0  0
  -29.9350  -17.9740   22.2190 C   0  0  0  0  0  1  0  0  0  0  0  0
  -29.6550  -16.6790   20.0240 N   0  0  0  0  0  0  0  0  0  0  0  0
  -25.2030  -13.8970   20.4580 C   0  0  0  0  0  0  0  0  0  0  0  0
  -24.1710  -13.1060   20.8750 C   0  0  0  0  0  0  0  0  0  0  0  0
  -24.6360  -11.7590   20.7640 C   0  0  0  0  0  0  0  0  0  0  0  0
  -26.2220  -13.0340   20.1030 N   0  0  0  0  0  0  0  0  0  0  0  0
  -25.9000  -11.7380   20.3570 N   0  0  0  0  0  0  0  0  0  0  0  0
  -23.9240  -10.4890   20.9640 C   0  0  0  0  0  0  0  0  0  0  0  0
  -24.3920   -9.5110   21.8690 C   0  0  0  0  0  3  0  0  0  0  0  0
  -23.6760   -8.3100   22.0580 C   0  0  0  0  0  3  0  0  0  0  0  0
  -22.4770   -8.0770   21.3440 C   0  0  0  0  0  0  0  0  0  0  0  0
  -22.0280   -9.0440   20.4250 C   0  0  0  0  0  3  0  0  0  0  0  0
  -22.7450  -10.2370   20.2340 C   0  0  0  0  0  3  0  0  0  0  0  0
  -21.7290   -6.9290   21.4440 O   0  0  0  0  0  0  0  0  0  0  0  0
  -21.6840   -6.1990   22.6050 C   0  0  0  0  0  0  0  0  0  0  0  0
  -21.2510   -6.7650   23.8240 C   0  0  0  0  0  3  0  0  0  0  0  0
  -21.1520   -5.9620   24.9770 C   0  0  0  0  0  3  0  0  0  0  0  0
  -21.4770   -4.5930   24.9130 C   0  0  0  0  0  0  0  0  0  0  0  0
  -21.9040   -4.0270   23.6990 C   0  0  0  0  0  3  0  0  0  0  0  0
  -22.0040   -4.8280   22.5480 C   0  0  0  0  0  0  0  0  0  0  0  0
  -22.3940   -4.2720   21.3760 F   0  0  0  0  0  0  0  0  0  0  0  0
  -21.3760   -3.8190   26.0190 F   0  0  0  0  0  0  0  0  0  0  0  0
  -22.7980  -13.5720   21.2600 C   0  0  0  0  0  0  0  0  0  0  0  0
  -22.1370  -12.8510   22.1590 N   0  0  0  0  0  0  0  0  0  0  0  0
  -22.3240  -14.6100   20.7990 O   0  0  0  0  0  0  0  0  0  0  0  0
  -22.5360  -12.0120   22.5510 H   0  0  0  0  0  0  0  0  0  0  0  0
  -21.2180  -13.1450   22.4590 H   0  0  0  0  0  0  0  0  0  0  0  0
  -25.3540  -15.2750   20.3210 N   0  0  0  0  0  0  0  0  0  0  0  0
  -24.6030  -15.9240   20.5260 H   0  0  0  0  0  0  0  0  0  0  0  0
  -26.1900  -15.7310   19.9790 H   0  0  0  0  0  0  0  0  0  0  0  0
  -28.8890  -22.7530   18.4730 C   0  0  0  0  0  1  0  0  0  0  0  0
  -28.4760  -22.5620   19.9410 C   0  0  0  0  0  3  0  0  0  0  0  0
  -28.3210  -24.2240   20.7000 C   0  0  0  0  0  2  0  0  0  0  0  0
  -28.3550  -25.8510   20.2960 O   0  0  0  0  0  0  0  0  0  0  0  0
  -24.6920  -31.8520   23.2420 C   0  0  0  0  0  0  0  0  0  0  0  0
  -27.3110  -26.9290   20.3200 C   0  0  0  0  0  0  0  0  0  0  0  0
  -23.5320  -30.4340   21.5980 C   0  0  0  0  0  3  0  0  0  0  0  0
  -25.0070  -28.8170   20.2190 C   0  0  0  0  0  0  0  0  0  0  0  0
  -26.0990  -30.6530   21.4850 C   0  0  0  0  0  2  0  0  0  0  0  0
  -26.1870  -29.2310   20.8510 C   0  0  0  0  0  0  0  0  0  0  0  0
  -27.3360  -28.3120   20.8670 C   0  0  0  0  0  3  0  0  0  0  0  0
  -26.0970  -26.6720   19.6470 C   0  0  0  0  0  3  0  0  0  0  0  0
  -24.9890  -27.5590   19.5970 C   0  0  0  0  0  3  0  0  0  0  0  0
  -23.7880  -29.7400   20.2330 C   0  0  0  0  0  2  0  0  0  0  0  0
  -24.7960  -31.0080   22.1630 N   0  0  0  0  0  0  0  0  0  0  0  0
  -23.5930  -32.1380   23.7440 O   0  0  0  0  0  0  0  0  0  0  0  0
  -22.8280  -29.4440   22.5620 C   0  0  0  0  0  0  0  0  0  0  0  0
  -21.5000  -29.2750   22.4240 N   0  0  0  0  0  0  0  0  0  0  0  0
  -23.4850  -28.8240   23.4020 O   0  0  0  0  0  0  0  0  0  0  0  0
  -21.0220  -29.8270   21.7250 H   0  0  0  0  0  0  0  0  0  0  0  0
  -18.1160  -28.0490   22.8950 C   0  0  0  0  0  0  0  0  0  0  0  0
  -20.6710  -28.3370   23.1890 C   0  0  0  0  0  3  0  0  0  0  0  0
  -20.7900  -26.9010   22.6270 C   0  0  0  0  0  2  0  0  0  0  0  0
  -19.7030  -26.5640   21.6000 C   0  0  0  0  0  2  0  0  0  0  0  0
  -18.3130  -26.7000   22.2250 C   0  0  0  0  0  2  0  0  0  0  0  0
  -19.2230  -28.8250   23.3330 C   0  0  0  0  0  0  0  0  0  0  0  0
  -18.9840  -30.0850   23.9210 C   0  0  0  0  0  3  0  0  0  0  0  0
  -17.6720  -30.5720   24.0750 C   0  0  0  0  0  3  0  0  0  0  0  0
  -16.5800  -29.7940   23.6520 C   0  0  0  0  0  3  0  0  0  0  0  0
  -16.8030  -28.5350   23.0680 C   0  0  0  0  0  3  0  0  0  0  0  0
  -25.9480  -32.5100   23.8900 C   0  0  0  0  0  3  0  0  0  0  0  0
  -25.6160  -33.9110   24.2060 N   0  0  0  0  0  0  0  0  0  0  0  0
  -25.9380  -34.9680   23.4490 C   0  0  0  0  0  0  0  0  0  0  0  0
  -26.6090  -34.8670   22.4180 O   0  0  0  0  0  0  0  0  0  0  0  0
  -25.0210  -34.0620   25.0070 H   0  0  0  0  0  0  0  0  0  0  0  0
  -24.1870  -36.7440   23.1050 C   0  0  0  0  0  1  0  0  0  0  0  0
  -25.4410  -36.3560   23.9030 C   0  0  0  0  0  3  0  0  0  0  0  0
  -27.5740  -37.2760   24.7040 C   0  0  0  0  0  1  0  0  0  0  0  0
  -26.4610  -37.4200   23.7690 N   0  0  0  0  0  0  0  0  0  0  0  0
  -26.0440  -38.3370   23.9120 H   0  0  0  0  0  0  0  0  0  0  0  0
  -26.4350  -31.7620   25.1920 C   0  0  1  0  0  0  0  0  0  0  0  0
  -25.3160  -31.5400   26.2390 C   0  0  0  0  0  1  0  0  0  0  0  0
  -27.0310  -30.3800   24.8440 C   0  0  0  0  0  1  0  0  0  0  0  0
  -27.5680  -32.5710   25.8680 C   0  0  0  0  0  1  0  0  0  0  0  0
  1  3  1  0
  2  1  1  0
  4 17  1  0
  5 10  1  0
  6  7  1  0
  6  5  1  0
  8  7  1  0
  8 21  1  0
  8  9  1  0
 10  4  1  0
 10  9  1  0
 11  4  2  0
 12 13  1  0
 12 14  1  0
 13 17  1  0
 14  1  1  0
 14 15  1  0
 15 16  1  0
 17 15  1  0
 18 19  2  0
 19 38  1  0
 20 19  1  0
 20 23  1  0
 21 22  1  0
 21 18  1  0
 22 20  2  0
 23 24  1  0
 24 25  2  0
 26 29  1  0
 26 25  1  0
 27 26  2  0
 28 27  1  0
 28 23  2  0
 29 30  1  0
 30 31  1  0
 31 32  2  0
 33 32  1  0
 33 37  1  0
 34 33  2  0
 35 30  2  0
 35 34  1  0
 36 35  1  0
 38 39  1  0
 39 42  1  0
 39 41  1  0
 40 38  2  0
 43 18  1  0
 43 44  1  0
 45 43  1  0
 47 46  1  0
 47  1  1  0
 47 48  1  0
 49 51  1  0
 49 48  1  0
 50 61  2  0
 51 56  1  0
 52 60  1  0
 52 62  1  0
 53 59  1  0
 53 55  1  0
 54 60  1  0
 55 56  2  0
 55 54  1  0
 57 51  2  0
 58 57  1  0
 58 53  2  0
 59 52  1  0
 60 50  1  0
 62 64  2  0
 63 62  1  0
 65 63  1  0
 66 75  2  0
 66 71  1  0
 67 63  1  0
 67 71  1  0
 68 67  1  0
 69 70  1  0
 69 68  1  0
 70 66  1  0
 71 72  2  0
 72 73  1  0
 74 73  2  0
 75 74  1  0
 76 50  1  0
 76 77  1  0
 76 86  1  0
 77 80  1  0
 78 82  1  0
 78 77  1  0
 79 78  2  0
 82 81  1  0
 84 82  1  0
 84 85  1  0
 84 83  1  0
 86 89  1  1
 86 87  1  0
 88 86  1  0
M  ISO  4   4 100  17 100  48 101  49 101
M  END
>  <TORSDO>  (70) 
F 18

>  <SCORE>  (70) 
-16.047

>  <name>  (70) 
70

>  <ligand_id>  (70) 
70

>  <original_smiles>  (70) 
[H]c1c([H])c([H])c2c(c1[H])C([H])([H])C([H])([H])C([H])([H])C2([H])N([H])C(=O)C1([H])N(C(=O)C([H])(N([H])C(=O)C([H])(N([H])C([H])([H])[H])C([H])([H])[H])C(C([H])([H])[H])(C([H])([H])[H])C([H])([H])[H])C([H])([H])c2c([H])c(OC([H])([H])C([H])(C([H])([H])[H])[N+]([H])([H])C3([H])C([H])([H])C([H])([H])N(C(=O)N4C([H])([H])C([H])([H])C([H])([H])C([H])(n5nc(-c6c([H])c([H])c(Oc7c([H])c([H])c(F)c([H])c7F)c([H])c6[H])c(C(=O)N([H])[H])c5N([H])[H])C4([H])[H])C3([H])C([H])([H])[H])c([H])c([H])c2C1([H])[H]

>  <smiles>  (70) 
[H]c1c([H])c([H])c2c(c1[H])C([H])([H])C([H])([H])C([H])([H])C2([H])N([H])C(=O)C1([H])N(C(=O)C([H])(N([H])C(=O)C([H])(N([H])C([H])([H])[H])C([H])([H])[H])C(C([H])([H])[H])(C([H])([H])[H])C([H])([H])[H])C([H])([H])c2c([H])c(OC([H])([H])C([H])(C([H])([H])[H])[N+]([H])([H])C3([H])C([H])([H])C([H])([H])N(C(=O)N4C([H])([H])C([H])([H])C([H])([H])C([H])(n5nc(-c6c([H])c([H])c(Oc7c([H])c([H])c(F)c([H])c7F)c([H])c6[H])c(C(=O)N([H])[H])c5N([H])[H])C4([H])[H])C3([H])C([H])([H])[H])c([H])c([H])c2C1([H])[H]

$$$$
71:0:0
     RDKit          3D

 90 99  0  0  1  0  0  0  0  0999 V2000
  -29.1880  -20.8500   19.7990 C   0  0  0  0  0  2  0  0  0  0  0  0
  -31.1180  -18.6250   22.1190 C   0  0  0  0  0  3  0  0  0  0  0  0
  -30.6100  -18.7240   20.8530 C   0  0  0  0  0  0  0  0  0  0  0  0
  -30.8500  -19.8630   22.7520 C   0  0  0  0  0  0  0  0  0  0  0  0
  -31.2180  -20.3020   24.1370 C   0  0  0  0  0  1  0  0  0  0  0  0
  -30.1920  -20.6880   21.9640 N   0  0  0  0  0  0  0  0  0  0  0  0
  -30.0210  -20.0540   20.7810 N   0  0  0  0  0  0  0  0  0  0  0  0
  -31.2520  -14.9690   19.9630 C   0  0  0  0  0  0  0  0  0  0  0  0
  -30.9460  -12.6880   18.9930 C   0  0  0  0  0  2  0  0  0  0  0  0
  -29.9680  -12.7930   17.8030 C   0  0  0  0  0  2  0  0  0  0  0  0
  -28.5110  -12.6640   18.2850 C   0  0  0  0  0  2  0  0  0  0  0  0
  -28.2100  -13.5610   19.5130 C   0  0  0  0  0  3  0  0  0  0  0  0
  -29.3080  -13.4530   20.5970 C   0  0  0  0  0  2  0  0  0  0  0  0
  -30.5930  -13.7570   19.9580 N   0  0  0  0  0  0  0  0  0  0  0  0
  -32.4220  -15.0270   19.5740 O   0  0  0  0  0  0  0  0  0  0  0  0
  -29.6030  -16.7670   19.3270 C   0  0  0  0  0  2  0  0  0  0  0  0
  -30.7760  -17.5550   19.8240 C   0  0  0  0  0  3  0  0  0  0  0  0
  -30.5250  -16.1300   20.2230 N   0  0  0  0  0  0  0  0  0  0  0  0
  -25.8890  -14.2480   20.3630 C   0  0  0  0  0  0  0  0  0  0  0  0
  -24.8020  -13.5150   20.7540 C   0  0  0  0  0  0  0  0  0  0  0  0
  -25.1960  -12.1450   20.6620 C   0  0  0  0  0  0  0  0  0  0  0  0
  -26.8770  -13.3250   20.0540 N   0  0  0  0  0  0  0  0  0  0  0  0
  -26.4690  -12.0540   20.2970 N   0  0  0  0  0  0  0  0  0  0  0  0
  -24.4170  -10.9150   20.8440 C   0  0  0  0  0  0  0  0  0  0  0  0
  -24.7960   -9.9350   21.7880 C   0  0  0  0  0  3  0  0  0  0  0  0
  -24.0190   -8.7680   21.9580 C   0  0  0  0  0  3  0  0  0  0  0  0
  -22.8500   -8.5750   21.1840 C   0  0  0  0  0  0  0  0  0  0  0  0
  -22.4910   -9.5440   20.2310 C   0  0  0  0  0  3  0  0  0  0  0  0
  -23.2680  -10.7020   20.0590 C   0  0  0  0  0  3  0  0  0  0  0  0
  -22.0480   -7.4620   21.2630 O   0  0  0  0  0  0  0  0  0  0  0  0
  -21.8890   -6.7720   22.4390 C   0  0  0  0  0  0  0  0  0  0  0  0
  -21.4010   -7.3950   23.6080 C   0  0  0  0  0  3  0  0  0  0  0  0
  -21.1860   -6.6340   24.7740 C   0  0  0  0  0  3  0  0  0  0  0  0
  -21.4490   -5.2510   24.7710 C   0  0  0  0  0  0  0  0  0  0  0  0
  -21.9300   -4.6280   23.6060 C   0  0  0  0  0  3  0  0  0  0  0  0
  -22.1460   -5.3870   22.4420 C   0  0  0  0  0  0  0  0  0  0  0  0
  -22.5900   -4.7770   21.3170 F   0  0  0  0  0  0  0  0  0  0  0  0
  -21.2350   -4.5190   25.8890 F   0  0  0  0  0  0  0  0  0  0  0  0
  -23.4430  -14.0510   21.0970 C   0  0  0  0  0  0  0  0  0  0  0  0
  -22.7230  -13.3730   21.9830 N   0  0  0  0  0  0  0  0  0  0  0  0
  -23.0320  -15.1080   20.6180 O   0  0  0  0  0  0  0  0  0  0  0  0
  -23.0690  -12.5190   22.3940 H   0  0  0  0  0  0  0  0  0  0  0  0
  -21.8120  -13.7140   22.2550 H   0  0  0  0  0  0  0  0  0  0  0  0
  -26.1110  -15.6140   20.2200 N   0  0  0  0  0  0  0  0  0  0  0  0
  -25.3840  -16.3000   20.3870 H   0  0  0  0  0  0  0  0  0  0  0  0
  -26.9730  -16.0210   19.8860 H   0  0  0  0  0  0  0  0  0  0  0  0
  -29.3870  -22.4640   19.6200 C   0  0  0  0  0  2  0  0  0  0  0  0
  -28.4000  -23.6390   20.1660 C   0  0  0  0  0  2  0  0  0  0  0  0
  -28.3470  -25.0640   19.3800 C   0  0  0  0  0  2  0  0  0  0  0  0
  -28.2120  -26.4140   20.0190 O   0  0  0  0  0  0  0  0  0  0  0  0
  -24.5540  -31.8320   23.1080 C   0  0  0  0  0  0  0  0  0  0  0  0
  -27.0810  -27.2580   19.9550 C   0  0  0  0  0  0  0  0  0  0  0  0
  -23.3100  -30.4590   21.4730 C   0  0  0  0  0  3  0  0  0  0  0  0
  -24.7240  -28.9060   20.0010 C   0  0  0  0  0  0  0  0  0  0  0  0
  -25.8490  -30.7530   21.2490 C   0  0  0  0  0  2  0  0  0  0  0  0
  -25.9060  -29.3780   20.5850 C   0  0  0  0  0  0  0  0  0  0  0  0
  -27.0810  -28.5630   20.5530 C   0  0  0  0  0  3  0  0  0  0  0  0
  -25.8750  -26.8430   19.3500 C   0  0  0  0  0  3  0  0  0  0  0  0
  -24.7130  -27.6470   19.3740 C   0  0  0  0  0  3  0  0  0  0  0  0
  -23.4940  -29.7910   20.0840 C   0  0  0  0  0  2  0  0  0  0  0  0
  -24.5910  -31.0330   22.0000 N   0  0  0  0  0  0  0  0  0  0  0  0
  -23.4820  -32.1120   23.6640 O   0  0  0  0  0  0  0  0  0  0  0  0
  -22.6550  -29.4410   22.4370 C   0  0  0  0  0  0  0  0  0  0  0  0
  -21.3280  -29.2680   22.3240 N   0  0  0  0  0  0  0  0  0  0  0  0
  -23.3410  -28.8100   23.2460 O   0  0  0  0  0  0  0  0  0  0  0  0
  -20.8330  -29.8280   21.6450 H   0  0  0  0  0  0  0  0  0  0  0  0
  -17.9590  -28.0510   22.8340 C   0  0  0  0  0  0  0  0  0  0  0  0
  -20.5160  -28.3260   23.0980 C   0  0  0  0  0  3  0  0  0  0  0  0
  -20.6250  -26.8940   22.5230 C   0  0  0  0  0  2  0  0  0  0  0  0
  -19.5230  -26.5640   21.5120 C   0  0  0  0  0  2  0  0  0  0  0  0
  -18.1420  -26.7020   22.1580 C   0  0  0  0  0  2  0  0  0  0  0  0
  -19.0730  -28.8200   23.2610 C   0  0  0  0  0  0  0  0  0  0  0  0
  -18.8470  -30.0820   23.8520 C   0  0  0  0  0  3  0  0  0  0  0  0
  -17.5400  -30.5740   24.0210 C   0  0  0  0  0  3  0  0  0  0  0  0
  -16.4390  -29.8030   23.6100 C   0  0  0  0  0  3  0  0  0  0  0  0
  -16.6490  -28.5430   23.0230 C   0  0  0  0  0  3  0  0  0  0  0  0
  -25.8510  -32.4500   23.7150 C   0  0  0  0  0  3  0  0  0  0  0  0
  -26.3980  -31.6450   24.9590 C   0  0  1  0  0  0  0  0  0  0  0  0
  -25.3320  -31.3790   26.0460 C   0  0  0  0  0  1  0  0  0  0  0  0
  -26.9710  -30.2790   24.5170 C   0  0  0  0  0  1  0  0  0  0  0  0
  -27.5650  -32.4220   25.6130 C   0  0  0  0  0  1  0  0  0  0  0  0
  -25.5490  -33.8380   24.0930 N   0  0  0  0  0  0  0  0  0  0  0  0
  -25.8750  -34.9150   23.3660 C   0  0  0  0  0  0  0  0  0  0  0  0
  -26.5300  -34.8430   22.3220 O   0  0  0  0  0  0  0  0  0  0  0  0
  -24.9660  -33.9670   24.9070 H   0  0  0  0  0  0  0  0  0  0  0  0
  -24.1520  -36.7280   23.0900 C   0  0  0  0  0  1  0  0  0  0  0  0
  -25.4000  -36.2890   23.8750 C   0  0  0  0  0  3  0  0  0  0  0  0
  -27.5460  -37.1350   24.7160 C   0  0  0  0  0  1  0  0  0  0  0  0
  -26.4370  -37.3410   23.7880 N   0  0  0  0  0  0  0  0  0  0  0  0
  -26.0360  -38.2570   23.9710 H   0  0  0  0  0  0  0  0  0  0  0  0
  1  7  1  0
  2  4  1  0
  3  2  2  0
  4  5  1  0
  6  4  2  0
  7  3  1  0
  7  6  1  0
  8 18  1  0
  9 14  1  0
 10 11  1  0
 10  9  1  0
 12 11  1  0
 12 22  1  0
 12 13  1  0
 14  8  1  0
 14 13  1  0
 15  8  2  0
 16 17  1  0
 16 18  1  0
 17 18  1  0
 17  3  1  0
 19 20  2  0
 20 39  1  0
 21 20  1  0
 21 24  1  0
 22 23  1  0
 22 19  1  0
 23 21  2  0
 24 25  1  0
 25 26  2  0
 27 30  1  0
 27 26  1  0
 28 27  2  0
 29 28  1  0
 29 24  2  0
 30 31  1  0
 31 36  2  0
 31 32  1  0
 32 33  2  0
 34 33  1  0
 34 38  1  0
 35 34  2  0
 36 35  1  0
 37 36  1  0
 39 40  1  0
 40 43  1  0
 40 42  1  0
 41 39  2  0
 44 19  1  0
 44 45  1  0
 46 44  1  0
 47  1  1  0
 47 48  1  0
 49 50  1  0
 49 48  1  0
 51 62  2  0
 52 50  1  0
 52 57  1  0
 53 61  1  0
 53 63  1  0
 54 60  1  0
 54 56  1  0
 55 61  1  0
 56 55  1  0
 57 56  2  0
 58 59  1  0
 58 52  2  0
 59 54  2  0
 60 53  1  0
 61 51  1  0
 63 65  2  0
 64 63  1  0
 66 64  1  0
 67 76  2  0
 67 72  1  0
 68 64  1  0
 68 72  1  0
 69 68  1  0
 70 71  1  0
 70 69  1  0
 71 67  1  0
 72 73  2  0
 73 74  1  0
 75 74  2  0
 76 75  1  0
 77 51  1  0
 77 82  1  0
 77 78  1  0
 78 81  1  1
 78 79  1  0
 80 78  1  0
 82 85  1  0
 83 87  1  0
 83 82  1  0
 84 83  2  0
 87 86  1  0
 89 87  1  0
 89 90  1  0
 89 88  1  0
M  ISO  4   8 100  18 100  49 101  50 101
M  END
>  <TORSDO>  (71) 
F 20

>  <SCORE>  (71) 
-13.224

>  <name>  (71) 
71

>  <ligand_id>  (71) 
71

>  <original_smiles>  (71) 
[H]c1c([H])c([H])c2c(c1[H])C([H])([H])C([H])([H])C([H])([H])C2([H])N([H])C(=O)C1([H])N(C(=O)C([H])(N([H])C(=O)C([H])(N([H])C([H])([H])[H])C([H])([H])[H])C(C([H])([H])[H])(C([H])([H])[H])C([H])([H])[H])C([H])([H])c2c([H])c(OC([H])([H])C([H])([H])C([H])([H])C([H])([H])n3nc(C([H])([H])[H])c([H])c3C3([H])N(C(=O)N4C([H])([H])C([H])([H])C([H])([H])C([H])(n5nc(-c6c([H])c([H])c(Oc7c([H])c([H])c(F)c([H])c7F)c([H])c6[H])c(C(=O)N([H])[H])c5N([H])[H])C4([H])[H])C3([H])[H])c([H])c([H])c2C1([H])[H]

>  <smiles>  (71) 
[H]c1c([H])c([H])c2c(c1[H])C([H])([H])C([H])([H])C([H])([H])C2([H])N([H])C(=O)C1([H])N(C(=O)C([H])(N([H])C(=O)C([H])(N([H])C([H])([H])[H])C([H])([H])[H])C(C([H])([H])[H])(C([H])([H])[H])C([H])([H])[H])C([H])([H])c2c([H])c(OC([H])([H])C([H])([H])C([H])([H])C([H])([H])n3nc(C([H])([H])[H])c([H])c3C3([H])N(C(=O)N4C([H])([H])C([H])([H])C([H])([H])C([H])(n5nc(-c6c([H])c([H])c(Oc7c([H])c([H])c(F)c([H])c7F)c([H])c6[H])c(C(=O)N([H])[H])c5N([H])[H])C4([H])[H])C3([H])[H])c([H])c([H])c2C1([H])[H]

$$$$
72:0:0
     RDKit          3D

 92101  0  0  1  0  0  0  0  0999 V2000
  -28.6200  -22.1960   20.6090 C   0  0  0  0  0  0  0  0  0  0  0  0
  -29.5420  -21.1120   20.2720 C   0  0  0  0  0  0  0  0  0  0  0  0
  -28.9330  -23.5980   20.2850 C   0  0  0  0  0  0  0  0  0  0  0  0
  -30.8970  -22.7800   19.3890 C   0  0  0  0  0  0  0  0  0  0  0  0
  -27.3170  -21.8430   21.3070 C   0  0  0  0  0  1  0  0  0  0  0  0
  -32.2050  -23.1120   18.7050 C   0  0  0  0  0  1  0  0  0  0  0  0
  -30.6700  -21.4870   19.6380 N   0  0  0  0  0  0  0  0  0  0  0  0
  -30.1100  -23.8200   19.6700 N   0  0  0  0  0  0  0  0  0  0  0  0
  -30.7530  -15.0300   20.1640 C   0  0  0  0  0  0  0  0  0  0  0  0
  -30.5210  -12.7310   19.1520 C   0  0  0  0  0  2  0  0  0  0  0  0
  -29.5520  -12.7390   17.9510 C   0  0  0  0  0  2  0  0  0  0  0  0
  -28.1040  -12.5260   18.4300 C   0  0  0  0  0  2  0  0  0  0  0  0
  -27.7420  -13.4240   19.6420 C   0  0  0  0  0  3  0  0  0  0  0  0
  -28.8350  -13.4230   20.7300 C   0  0  0  0  0  2  0  0  0  0  0  0
  -30.0910  -13.8130   20.0790 N   0  0  0  0  0  0  0  0  0  0  0  0
  -31.9530  -15.0450   19.8710 O   0  0  0  0  0  0  0  0  0  0  0  0
  -29.1740  -18.5230   19.3560 C   0  0  0  0  0  2  0  0  0  0  0  0
  -30.6540  -18.7950   21.2210 C   0  0  0  0  0  2  0  0  0  0  0  0
  -29.0520  -16.9430   19.6530 C   0  0  0  0  0  2  0  0  0  0  0  0
  -30.6020  -17.2170   21.5140 C   0  0  0  0  0  2  0  0  0  0  0  0
  -29.4140  -19.5030   20.5630 C   0  0  0  0  0  3  0  0  0  0  0  0
  -30.0970  -16.2490   20.4810 N   0  0  0  0  0  0  0  0  0  0  0  0
  -25.3880  -13.9800   20.4790 C   0  0  0  0  0  0  0  0  0  0  0  0
  -24.3390  -13.1950   20.8670 C   0  0  0  0  0  0  0  0  0  0  0  0
  -24.8060  -11.8460   20.7880 C   0  0  0  0  0  0  0  0  0  0  0  0
  -26.4240  -13.1110   20.1840 N   0  0  0  0  0  0  0  0  0  0  0  0
  -26.0860  -11.8200   20.4350 N   0  0  0  0  0  0  0  0  0  0  0  0
  -24.0890  -10.5770   20.9710 C   0  0  0  0  0  0  0  0  0  0  0  0
  -24.5050   -9.6250   21.9280 C   0  0  0  0  0  3  0  0  0  0  0  0
  -23.7860   -8.4220   22.0990 C   0  0  0  0  0  3  0  0  0  0  0  0
  -22.6380   -8.1620   21.3130 C   0  0  0  0  0  0  0  0  0  0  0  0
  -22.2430   -9.1040   20.3460 C   0  0  0  0  0  3  0  0  0  0  0  0
  -22.9620  -10.2980   20.1730 C   0  0  0  0  0  3  0  0  0  0  0  0
  -21.8930   -7.0120   21.3920 O   0  0  0  0  0  0  0  0  0  0  0  0
  -21.7530   -6.3240   22.5720 C   0  0  0  0  0  0  0  0  0  0  0  0
  -21.1650   -6.9140   23.7120 C   0  0  0  0  0  3  0  0  0  0  0  0
  -20.9770   -6.1500   24.8810 C   0  0  0  0  0  3  0  0  0  0  0  0
  -21.3670   -4.7970   24.9100 C   0  0  0  0  0  0  0  0  0  0  0  0
  -21.9460   -4.2070   23.7730 C   0  0  0  0  0  3  0  0  0  0  0  0
  -22.1350   -4.9680   22.6060 C   0  0  0  0  0  0  0  0  0  0  0  0
  -22.6750   -4.3880   21.5070 F   0  0  0  0  0  0  0  0  0  0  0  0
  -21.1800   -4.0620   26.0310 F   0  0  0  0  0  0  0  0  0  0  0  0
  -22.9510  -13.6610   21.1930 C   0  0  0  0  0  0  0  0  0  0  0  0
  -22.2480  -12.9400   22.0580 N   0  0  0  0  0  0  0  0  0  0  0  0
  -22.4980  -14.7020   20.7160 O   0  0  0  0  0  0  0  0  0  0  0  0
  -22.6270  -12.0980   22.4650 H   0  0  0  0  0  0  0  0  0  0  0  0
  -21.3170  -13.2330   22.3170 H   0  0  0  0  0  0  0  0  0  0  0  0
  -25.5430  -15.3550   20.3260 N   0  0  0  0  0  0  0  0  0  0  0  0
  -24.7820  -16.0080   20.4810 H   0  0  0  0  0  0  0  0  0  0  0  0
  -26.3820  -15.8010   19.9820 H   0  0  0  0  0  0  0  0  0  0  0  0
  -28.0030  -24.9080   20.5620 C   0  0  0  0  0  2  0  0  0  0  0  0
  -28.3420  -26.3670   20.1980 O   0  0  0  0  0  0  0  0  0  0  0  0
  -24.6310  -31.9300   23.2190 C   0  0  0  0  0  0  0  0  0  0  0  0
  -27.2760  -27.3220   20.1540 C   0  0  0  0  0  0  0  0  0  0  0  0
  -23.4510  -30.5340   21.5660 C   0  0  0  0  0  3  0  0  0  0  0  0
  -24.9230  -29.0050   20.1270 C   0  0  0  0  0  0  0  0  0  0  0  0
  -25.9990  -30.8490   21.4050 C   0  0  0  0  0  2  0  0  0  0  0  0
  -26.0930  -29.4690   20.7430 C   0  0  0  0  0  0  0  0  0  0  0  0
  -27.2750  -28.6440   20.7400 C   0  0  0  0  0  3  0  0  0  0  0  0
  -26.0860  -26.9600   19.4820 C   0  0  0  0  0  3  0  0  0  0  0  0
  -24.9300  -27.7620   19.4800 C   0  0  0  0  0  3  0  0  0  0  0  0
  -23.6820  -29.8780   20.1790 C   0  0  0  0  0  2  0  0  0  0  0  0
  -24.7130  -31.1240   22.1190 N   0  0  0  0  0  0  0  0  0  0  0  0
  -23.5420  -32.1940   23.7500 O   0  0  0  0  0  0  0  0  0  0  0  0
  -22.7900  -29.5040   22.5150 C   0  0  0  0  0  0  0  0  0  0  0  0
  -21.4650  -29.3180   22.3850 N   0  0  0  0  0  0  0  0  0  0  0  0
  -23.4710  -28.8770   23.3300 O   0  0  0  0  0  0  0  0  0  0  0  0
  -20.9730  -29.8750   21.7020 H   0  0  0  0  0  0  0  0  0  0  0  0
  -18.0910  -28.1090   22.9040 C   0  0  0  0  0  0  0  0  0  0  0  0
  -20.6530  -28.3640   23.1460 C   0  0  0  0  0  3  0  0  0  0  0  0
  -20.7470  -26.9440   22.5390 C   0  0  0  0  0  2  0  0  0  0  0  0
  -19.6320  -26.6440   21.5330 C   0  0  0  0  0  2  0  0  0  0  0  0
  -18.2580  -26.7750   22.1960 C   0  0  0  0  0  2  0  0  0  0  0  0
  -19.2150  -28.8620   23.3360 C   0  0  0  0  0  0  0  0  0  0  0  0
  -19.0030  -30.1110   23.9590 C   0  0  0  0  0  3  0  0  0  0  0  0
  -17.7010  -30.6070   24.1550 C   0  0  0  0  0  3  0  0  0  0  0  0
  -16.5900  -29.8500   23.7390 C   0  0  0  0  0  3  0  0  0  0  0  0
  -16.7870  -28.6030   23.1210 C   0  0  0  0  0  3  0  0  0  0  0  0
  -25.9020  -32.5750   23.8520 C   0  0  0  0  0  3  0  0  0  0  0  0
  -25.5750  -33.9700   24.1850 N   0  0  0  0  0  0  0  0  0  0  0  0
  -25.8910  -35.0300   23.4280 C   0  0  0  0  0  0  0  0  0  0  0  0
  -26.5550  -34.9360   22.3930 O   0  0  0  0  0  0  0  0  0  0  0  0
  -24.9840  -34.1140   24.9900 H   0  0  0  0  0  0  0  0  0  0  0  0
  -24.1500  -36.8140   23.0800 C   0  0  0  0  0  1  0  0  0  0  0  0
  -25.3910  -36.4110   23.8940 C   0  0  0  0  0  3  0  0  0  0  0  0
  -27.5100  -37.3140   24.7470 C   0  0  0  0  0  1  0  0  0  0  0  0
  -26.4150  -37.4740   23.7920 N   0  0  0  0  0  0  0  0  0  0  0  0
  -26.0010  -38.3900   23.9380 H   0  0  0  0  0  0  0  0  0  0  0  0
  -26.4130  -31.8090   25.1330 C   0  0  1  0  0  0  0  0  0  0  0  0
  -25.3100  -31.5560   26.1890 C   0  0  0  0  0  1  0  0  0  0  0  0
  -27.0170  -30.4380   24.7490 C   0  0  0  0  0  1  0  0  0  0  0  0
  -27.5460  -32.6150   25.8100 C   0  0  0  0  0  1  0  0  0  0  0  0
  1  5  1  0
  2  1  2  0
  3 51  1  0
  3  1  1  0
  4  7  2  0
  4  8  1  0
  6  4  1  0
  7  2  1  0
  8  3  2  0
  9 22  1  0
 10 15  1  0
 11 12  1  0
 11 10  1  0
 13 12  1  0
 13 26  1  0
 13 14  1  0
 15  9  1  0
 15 14  1  0
 16  9  2  0
 17 19  1  0
 17 21  1  0
 18 20  1  0
 19 22  1  0
 21  2  1  0
 21 18  1  0
 22 20  1  0
 23 24  2  0
 24 43  1  0
 25 24  1  0
 25 28  1  0
 26 27  1  0
 26 23  1  0
 27 25  2  0
 28 29  1  0
 29 30  2  0
 31 34  1  0
 31 30  1  0
 32 31  2  0
 33 32  1  0
 33 28  2  0
 34 35  1  0
 35 40  2  0
 35 36  1  0
 36 37  2  0
 37 38  1  0
 38 42  1  0
 39 38  2  0
 40 39  1  0
 41 40  1  0
 43 44  1  0
 44 47  1  0
 44 46  1  0
 45 43  2  0
 48 23  1  0
 48 49  1  0
 50 48  1  0
 52 51  1  0
 53 64  2  0
 54 52  1  0
 54 59  1  0
 55 63  1  0
 55 65  1  0
 56 62  1  0
 56 58  1  0
 57 63  1  0
 58 57  1  0
 59 58  2  0
 60 54  2  0
 61 60  1  0
 61 56  2  0
 62 55  1  0
 63 53  1  0
 65 67  2  0
 66 65  1  0
 68 66  1  0
 69 78  2  0
 69 74  1  0
 70 66  1  0
 70 74  1  0
 71 70  1  0
 72 73  1  0
 72 71  1  0
 73 69  1  0
 74 75  2  0
 75 76  1  0
 77 76  2  0
 78 77  1  0
 79 53  1  0
 79 80  1  0
 79 89  1  0
 80 83  1  0
 81 85  1  0
 81 80  1  0
 82 81  2  0
 85 84  1  0
 87 85  1  0
 87 88  1  0
 87 86  1  0
 89 92  1  1
 89 90  1  0
 91 89  1  0
M  ISO  4   9 100  22 100  51 101  52 101
M  END
>  <TORSDO>  (72) 
F 17

>  <SCORE>  (72) 
-14.928

>  <name>  (72) 
72

>  <ligand_id>  (72) 
72

>  <original_smiles>  (72) 
[H]c1c([H])c([H])c2c(c1[H])C([H])([H])C([H])([H])C([H])([H])C2([H])N([H])C(=O)C1([H])N(C(=O)C([H])(N([H])C(=O)C([H])(N([H])C([H])([H])[H])C([H])([H])[H])C(C([H])([H])[H])(C([H])([H])[H])C([H])([H])[H])C([H])([H])c2c([H])c(OC([H])([H])c3nc(C([H])([H])[H])nc(C4([H])C([H])([H])C([H])([H])N(C(=O)N5C([H])([H])C([H])([H])C([H])([H])C([H])(n6nc(-c7c([H])c([H])c(Oc8c([H])c([H])c(F)c([H])c8F)c([H])c7[H])c(C(=O)N([H])[H])c6N([H])[H])C5([H])[H])C([H])([H])C4([H])[H])c3C([H])([H])[H])c([H])c([H])c2C1([H])[H]

>  <smiles>  (72) 
[H]c1c([H])c([H])c2c(c1[H])C([H])([H])C([H])([H])C([H])([H])C2([H])N([H])C(=O)C1([H])N(C(=O)C([H])(N([H])C(=O)C([H])(N([H])C([H])([H])[H])C([H])([H])[H])C(C([H])([H])[H])(C([H])([H])[H])C([H])([H])[H])C([H])([H])c2c([H])c(OC([H])([H])c3nc(C([H])([H])[H])nc(C4([H])C([H])([H])C([H])([H])N(C(=O)N5C([H])([H])C([H])([H])C([H])([H])C([H])(n6nc(-c7c([H])c([H])c(Oc8c([H])c([H])c(F)c([H])c8F)c([H])c7[H])c(C(=O)N([H])[H])c6N([H])[H])C5([H])[H])C([H])([H])C4([H])[H])c3C([H])([H])[H])c([H])c([H])c2C1([H])[H]

$$$$
73:0:0
     RDKit          3D

 90 99  0  0  1  0  0  0  0  0999 V2000
  -29.8780  -20.9520   18.4270 C   0  0  0  0  0  3  0  0  0  0  0  0
  -29.3740  -20.6360   19.7000 C   0  0  0  0  0  0  0  0  0  0  0  0
  -29.8040  -22.2750   17.9360 C   0  0  0  0  0  0  0  0  0  0  0  0
  -28.8220  -23.1100   19.8680 C   0  0  0  0  0  0  0  0  0  0  0  0
  -30.2350  -22.5960   16.5170 C   0  0  0  0  0  1  0  0  0  0  0  0
  -28.8200  -21.7800   20.3780 N   0  0  0  0  0  0  0  0  0  0  0  0
  -29.3110  -23.3140   18.6470 N   0  0  0  0  0  0  0  0  0  0  0  0
  -30.5850  -15.0380   19.8930 C   0  0  0  0  0  0  0  0  0  0  0  0
  -30.3640  -12.6690   18.9500 C   0  0  0  0  0  2  0  0  0  0  0  0
  -29.3570  -12.6120   17.7760 C   0  0  0  0  0  2  0  0  0  0  0  0
  -27.9330  -12.3880   18.3140 C   0  0  0  0  0  2  0  0  0  0  0  0
  -27.6010  -13.3020   19.5220 C   0  0  0  0  0  3  0  0  0  0  0  0
  -28.7330  -13.3360   20.5690 C   0  0  0  0  0  2  0  0  0  0  0  0
  -29.9490  -13.7780   19.8680 N   0  0  0  0  0  0  0  0  0  0  0  0
  -31.7560  -15.0350   19.4940 O   0  0  0  0  0  0  0  0  0  0  0  0
  -29.8490  -18.4750   21.4500 C   0  0  0  0  0  2  0  0  0  0  0  0
  -29.7360  -16.8840   21.4490 C   0  0  0  0  0  2  0  0  0  0  0  0
  -29.8920  -17.6710   19.3040 C   0  0  0  0  0  2  0  0  0  0  0  0
  -29.2810  -18.9930   20.1250 C   0  0  0  0  0  3  0  0  0  0  0  0
  -29.8930  -16.3030   20.0920 N   0  0  0  0  0  0  0  0  0  0  0  0
  -25.2870  -13.8620   20.4510 C   0  0  0  0  0  0  0  0  0  0  0  0
  -24.2430  -13.0820   20.8660 C   0  0  0  0  0  0  0  0  0  0  0  0
  -24.6930  -11.7290   20.7630 C   0  0  0  0  0  0  0  0  0  0  0  0
  -26.3020  -12.9860   20.1110 N   0  0  0  0  0  0  0  0  0  0  0  0
  -25.9610  -11.6940   20.3650 N   0  0  0  0  0  0  0  0  0  0  0  0
  -23.9670  -10.4680   20.9680 C   0  0  0  0  0  0  0  0  0  0  0  0
  -24.4270   -9.4930   21.8800 C   0  0  0  0  0  3  0  0  0  0  0  0
  -23.7080   -8.2950   22.0740 C   0  0  0  0  0  3  0  0  0  0  0  0
  -22.5100   -8.0640   21.3550 C   0  0  0  0  0  0  0  0  0  0  0  0
  -22.0660   -9.0260   20.4330 C   0  0  0  0  0  3  0  0  0  0  0  0
  -22.7860  -10.2160   20.2390 C   0  0  0  0  0  3  0  0  0  0  0  0
  -21.7590   -6.9170   21.4550 O   0  0  0  0  0  0  0  0  0  0  0  0
  -21.7150   -6.1840   22.6140 C   0  0  0  0  0  0  0  0  0  0  0  0
  -21.2800   -6.7450   23.8330 C   0  0  0  0  0  3  0  0  0  0  0  0
  -21.1890   -5.9410   24.9870 C   0  0  0  0  0  3  0  0  0  0  0  0
  -21.5120   -4.5710   24.9190 C   0  0  0  0  0  0  0  0  0  0  0  0
  -21.9370   -4.0090   23.7030 C   0  0  0  0  0  3  0  0  0  0  0  0
  -22.0330   -4.8130   22.5540 C   0  0  0  0  0  0  0  0  0  0  0  0
  -22.4230   -4.2620   21.3810 F   0  0  0  0  0  0  0  0  0  0  0  0
  -21.4170   -3.7970   26.0240 F   0  0  0  0  0  0  0  0  0  0  0  0
  -22.8690  -13.5580   21.2420 C   0  0  0  0  0  0  0  0  0  0  0  0
  -22.1990  -12.8440   22.1380 N   0  0  0  0  0  0  0  0  0  0  0  0
  -22.4020  -14.5960   20.7750 O   0  0  0  0  0  0  0  0  0  0  0  0
  -22.5980  -12.0100   22.5410 H   0  0  0  0  0  0  0  0  0  0  0  0
  -21.2740  -13.1300   22.4220 H   0  0  0  0  0  0  0  0  0  0  0  0
  -25.4520  -15.2380   20.3050 N   0  0  0  0  0  0  0  0  0  0  0  0
  -24.7020  -15.8960   20.4980 H   0  0  0  0  0  0  0  0  0  0  0  0
  -26.2940  -15.6770   19.9560 H   0  0  0  0  0  0  0  0  0  0  0  0
  -28.0820  -24.4730   20.5360 C   0  0  0  0  0  2  0  0  0  0  0  0
  -28.3780  -26.0200   20.2880 O   0  0  0  0  0  0  0  0  0  0  0  0
  -24.6440  -31.8200   23.1620 C   0  0  0  0  0  0  0  0  0  0  0  0
  -27.3340  -27.0380   20.2540 C   0  0  0  0  0  0  0  0  0  0  0  0
  -23.5080  -30.4020   21.4980 C   0  0  0  0  0  3  0  0  0  0  0  0
  -25.0090  -28.8140   20.1420 C   0  0  0  0  0  0  0  0  0  0  0  0
  -26.0700  -30.6630   21.4210 C   0  0  0  0  0  2  0  0  0  0  0  0
  -26.1720  -29.2580   20.7830 C   0  0  0  0  0  0  0  0  0  0  0  0
  -27.3400  -28.3910   20.8140 C   0  0  0  0  0  3  0  0  0  0  0  0
  -26.1430  -26.7120   19.5740 C   0  0  0  0  0  3  0  0  0  0  0  0
  -25.0120  -27.5560   19.5200 C   0  0  0  0  0  3  0  0  0  0  0  0
  -23.7800  -29.7120   20.1370 C   0  0  0  0  0  2  0  0  0  0  0  0
  -24.7590  -30.9840   22.0840 N   0  0  0  0  0  0  0  0  0  0  0  0
  -23.5380  -32.1060   23.6490 O   0  0  0  0  0  0  0  0  0  0  0  0
  -22.7990  -29.4030   22.4490 C   0  0  0  0  0  0  0  0  0  0  0  0
  -21.4690  -29.2480   22.3050 N   0  0  0  0  0  0  0  0  0  0  0  0
  -23.4490  -28.7650   23.2820 O   0  0  0  0  0  0  0  0  0  0  0  0
  -20.9990  -29.8190   21.6170 H   0  0  0  0  0  0  0  0  0  0  0  0
  -18.0650  -28.0910   22.7640 C   0  0  0  0  0  0  0  0  0  0  0  0
  -20.6250  -28.3150   23.0580 C   0  0  0  0  0  3  0  0  0  0  0  0
  -20.7100  -26.8850   22.4740 C   0  0  0  0  0  2  0  0  0  0  0  0
  -19.6150  -26.5870   21.4450 C   0  0  0  0  0  2  0  0  0  0  0  0
  -18.2290  -26.7460   22.0780 C   0  0  0  0  0  2  0  0  0  0  0  0
  -19.1890  -28.8350   23.2100 C   0  0  0  0  0  0  0  0  0  0  0  0
  -18.9830  -30.0940   23.8130 C   0  0  0  0  0  3  0  0  0  0  0  0
  -17.6840  -30.6110   23.9720 C   0  0  0  0  0  3  0  0  0  0  0  0
  -16.5730  -29.8650   23.5420 C   0  0  0  0  0  3  0  0  0  0  0  0
  -16.7640  -28.6060   22.9450 C   0  0  0  0  0  3  0  0  0  0  0  0
  -25.8950  -32.4710   23.8250 C   0  0  0  0  0  3  0  0  0  0  0  0
  -25.5600  -33.8690   24.1440 N   0  0  0  0  0  0  0  0  0  0  0  0
  -25.9060  -34.9300   23.4000 C   0  0  0  0  0  0  0  0  0  0  0  0
  -26.6050  -34.8330   22.3890 O   0  0  0  0  0  0  0  0  0  0  0  0
  -24.9410  -34.0180   24.9280 H   0  0  0  0  0  0  0  0  0  0  0  0
  -24.1760  -36.7150   23.0070 C   0  0  0  0  0  1  0  0  0  0  0  0
  -25.3990  -36.3140   23.8490 C   0  0  0  0  0  3  0  0  0  0  0  0
  -27.5000  -37.2190   24.7420 C   0  0  0  0  0  1  0  0  0  0  0  0
  -26.4270  -37.3750   23.7640 N   0  0  0  0  0  0  0  0  0  0  0  0
  -26.0090  -38.2920   23.8940 H   0  0  0  0  0  0  0  0  0  0  0  0
  -26.3730  -31.7120   25.1240 C   0  0  1  0  0  0  0  0  0  0  0  0
  -25.2460  -31.4740   26.1550 C   0  0  0  0  0  1  0  0  0  0  0  0
  -26.9770  -30.3340   24.7680 C   0  0  0  0  0  1  0  0  0  0  0  0
  -27.4930  -32.5200   25.8210 C   0  0  0  0  0  1  0  0  0  0  0  0
  1  2  2  0
  2  6  1  0
  3  1  1  0
  3  7  2  0
  4  6  2  0
  4 49  1  0
  5  3  1  0
  7  4  1  0
  8 20  1  0
  9 14  1  0
 10 11  1  0
 10  9  1  0
 12 11  1  0
 12 24  1  0
 12 13  1  0
 14  8  1  0
 14 13  1  0
 15  8  2  0
 17 16  1  0
 18 20  1  0
 18 19  1  0
 19  2  1  0
 19 16  1  0
 20 17  1  0
 21 22  2  0
 22 41  1  0
 23 22  1  0
 23 26  1  0
 24 25  1  0
 24 21  1  0
 25 23  2  0
 26 27  1  0
 27 28  2  0
 29 32  1  0
 29 28  1  0
 30 29  2  0
 31 30  1  0
 31 26  2  0
 32 33  1  0
 33 34  1  0
 34 35  2  0
 36 35  1  0
 36 40  1  0
 37 36  2  0
 38 33  2  0
 38 37  1  0
 39 38  1  0
 41 42  1  0
 42 45  1  0
 42 44  1  0
 43 41  2  0
 46 21  1  0
 46 47  1  0
 48 46  1  0
 50 49  1  0
 51 62  2  0
 52 50  1  0
 52 57  1  0
 53 61  1  0
 53 63  1  0
 54 56  1  0
 55 61  1  0
 56 57  2  0
 56 55  1  0
 58 52  2  0
 59 58  1  0
 59 54  2  0
 60 54  1  0
 60 53  1  0
 61 51  1  0
 63 65  2  0
 64 63  1  0
 66 64  1  0
 67 76  2  0
 67 72  1  0
 68 64  1  0
 68 72  1  0
 69 68  1  0
 70 71  1  0
 70 69  1  0
 71 67  1  0
 72 73  2  0
 73 74  1  0
 75 74  2  0
 76 75  1  0
 77 51  1  0
 77 78  1  0
 77 87  1  0
 78 81  1  0
 79 83  1  0
 79 78  1  0
 80 79  2  0
 83 82  1  0
 85 83  1  0
 85 86  1  0
 85 84  1  0
 87 90  1  1
 87 88  1  0
 89 87  1  0
M  ISO  4   8 100  20 100  49 101  50 101
M  END
>  <TORSDO>  (73) 
F 17

>  <SCORE>  (73) 
-15.185

>  <name>  (73) 
73

>  <ligand_id>  (73) 
73

>  <original_smiles>  (73) 
[H]c1c(C([H])([H])[H])nc(C([H])([H])Oc2c([H])c([H])c3c(c2[H])C([H])([H])N(C(=O)C([H])(N([H])C(=O)C([H])(N([H])C([H])([H])[H])C([H])([H])[H])C(C([H])([H])[H])(C([H])([H])[H])C([H])([H])[H])C([H])(C(=O)N([H])C2([H])c4c([H])c([H])c([H])c([H])c4C([H])([H])C([H])([H])C2([H])[H])C3([H])[H])nc1C1([H])C([H])([H])N(C(=O)N2C([H])([H])C([H])([H])C([H])([H])C([H])(n3nc(-c4c([H])c([H])c(Oc5c([H])c([H])c(F)c([H])c5F)c([H])c4[H])c(C(=O)N([H])[H])c3N([H])[H])C2([H])[H])C([H])([H])C1([H])[H]

>  <smiles>  (73) 
[H]c1c(C([H])([H])[H])nc(C([H])([H])Oc2c([H])c([H])c3c(c2[H])C([H])([H])N(C(=O)C([H])(N([H])C(=O)C([H])(N([H])C([H])([H])[H])C([H])([H])[H])C(C([H])([H])[H])(C([H])([H])[H])C([H])([H])[H])C([H])(C(=O)N([H])C2([H])c4c([H])c([H])c([H])c([H])c4C([H])([H])C([H])([H])C2([H])[H])C3([H])[H])nc1C1([H])C([H])([H])N(C(=O)N2C([H])([H])C([H])([H])C([H])([H])C([H])(n3nc(-c4c([H])c([H])c(Oc5c([H])c([H])c(F)c([H])c5F)c([H])c4[H])c(C(=O)N([H])[H])c3N([H])[H])C2([H])[H])C([H])([H])C1([H])[H]

$$$$
74:0:0
     RDKit          3D

 94104  0  0  1  0  0  0  0  0999 V2000
  -28.9650  -18.8390   20.8600 C   0  0  0  0  0  3  0  0  0  0  0  0
  -28.5340  -21.0550   20.2290 C   0  0  0  0  0  0  0  0  0  0  0  0
  -29.1760  -20.8680   18.9790 C   0  0  0  0  0  0  0  0  0  0  0  0
  -29.6890  -18.5950   19.6740 C   0  0  0  0  0  0  0  0  0  0  0  0
  -28.3880  -20.0410   21.1280 N   0  0  0  0  0  0  0  0  0  0  0  0
  -29.7560  -19.6200   18.7320 N   0  0  0  0  0  0  0  0  0  0  0  0
  -28.6460  -22.3610   16.7820 C   0  0  0  0  0  2  0  0  0  0  0  0
  -29.5030  -22.0410   17.9690 C   0  0  0  0  0  3  0  0  0  0  0  0
  -29.0720  -23.5700   17.6170 C   0  0  1  0  0  0  0  0  0  0  0  0
  -30.2480  -24.4270   17.1690 C   0  0  0  0  0  1  0  0  0  0  0  0
  -27.9050  -24.5980   18.0030 C   0  0  0  0  0  2  0  0  0  0  0  0
  -28.2240  -26.0730   18.0360 O   0  0  0  0  0  0  0  0  0  0  0  0
  -25.5670  -30.3610   23.2630 C   0  0  0  0  0  0  0  0  0  0  0  0
  -27.2580  -27.0180   18.4490 C   0  0  0  0  0  0  0  0  0  0  0  0
  -24.0900  -29.9060   21.3420 C   0  0  0  0  0  3  0  0  0  0  0  0
  -25.2060  -28.8420   19.2970 C   0  0  0  0  0  0  0  0  0  0  0  0
  -26.6400  -29.8960   21.0440 C   0  0  0  0  0  2  0  0  0  0  0  0
  -26.4630  -28.8840   19.9120 C   0  0  0  0  0  0  0  0  0  0  0  0
  -27.4940  -27.9930   19.4770 C   0  0  0  0  0  3  0  0  0  0  0  0
  -25.9860  -27.0460   17.8370 C   0  0  0  0  0  3  0  0  0  0  0  0
  -24.9720  -27.9350   18.2520 C   0  0  0  0  0  3  0  0  0  0  0  0
  -24.1390  -29.8000   19.7940 C   0  0  0  0  0  2  0  0  0  0  0  0
  -25.4570  -30.0440   21.9390 N   0  0  0  0  0  0  0  0  0  0  0  0
  -24.5660  -30.5600   23.9650 O   0  0  0  0  0  0  0  0  0  0  0  0
  -23.2930  -28.7030   21.9010 C   0  0  0  0  0  0  0  0  0  0  0  0
  -21.9540  -28.7700   21.8160 N   0  0  0  0  0  0  0  0  0  0  0  0
  -23.8800  -27.7280   22.3780 O   0  0  0  0  0  0  0  0  0  0  0  0
  -21.5450  -29.6060   21.4220 H   0  0  0  0  0  0  0  0  0  0  0  0
  -18.4430  -27.9260   22.0510 C   0  0  0  0  0  0  0  0  0  0  0  0
  -21.0140  -27.7320   22.2420 C   0  0  0  0  0  3  0  0  0  0  0  0
  -20.9050  -26.6120   21.1830 C   0  0  0  0  0  2  0  0  0  0  0  0
  -19.7600  -26.8320   20.1870 C   0  0  0  0  0  2  0  0  0  0  0  0
  -18.4190  -26.9100   20.9220 C   0  0  0  0  0  2  0  0  0  0  0  0
  -19.6630  -28.3230   22.6600 C   0  0  0  0  0  0  0  0  0  0  0  0
  -19.6320  -29.2950   23.6840 C   0  0  0  0  0  3  0  0  0  0  0  0
  -18.4140  -29.8650   24.1000 C   0  0  0  0  0  3  0  0  0  0  0  0
  -17.2080  -29.4580   23.5040 C   0  0  0  0  0  3  0  0  0  0  0  0
  -17.2240  -28.4880   22.4850 C   0  0  0  0  0  3  0  0  0  0  0  0
  -26.9580  -30.5100   23.9520 C   0  0  0  0  0  3  0  0  0  0  0  0
  -27.3800  -29.2320   24.7800 C   0  0  1  0  0  0  0  0  0  0  0  0
  -26.3040  -28.7570   25.7810 C   0  0  0  0  0  1  0  0  0  0  0  0
  -27.6970  -28.0490   23.8360 C   0  0  0  0  0  1  0  0  0  0  0  0
  -28.6750  -29.5280   25.5750 C   0  0  0  0  0  1  0  0  0  0  0  0
  -26.8990  -31.6920   24.8240 N   0  0  0  0  0  0  0  0  0  0  0  0
  -27.3830  -32.9000   24.5040 C   0  0  0  0  0  0  0  0  0  0  0  0
  -27.9940  -33.1200   23.4560 O   0  0  0  0  0  0  0  0  0  0  0  0
  -26.3640  -31.6010   25.6750 H   0  0  0  0  0  0  0  0  0  0  0  0
  -25.9810  -34.9240   25.0330 C   0  0  0  0  0  1  0  0  0  0  0  0
  -27.1510  -34.0470   25.5080 C   0  0  0  0  0  3  0  0  0  0  0  0
  -29.4220  -34.2020   26.4300 C   0  0  0  0  0  1  0  0  0  0  0  0
  -28.3480  -34.8910   25.7230 N   0  0  0  0  0  0  0  0  0  0  0  0
  -28.1080  -35.7280   26.2480 H   0  0  0  0  0  0  0  0  0  0  0  0
  -28.8820  -23.6370   20.5050 C   0  0  0  0  0  2  0  0  0  0  0  0
  -28.6810  -23.0900   21.8880 C   0  0  0  0  0  2  0  0  0  0  0  0
  -28.0380  -22.3910   20.7030 C   0  0  0  0  0  3  0  0  0  0  0  0
  -30.5120  -17.2430   19.4620 C   0  0  0  0  0  2  0  0  0  0  0  0
  -30.8220  -14.7100   19.9590 C   0  0  0  0  0  0  0  0  0  0  0  0
  -30.6440  -12.2890   19.3750 C   0  0  0  0  0  2  0  0  0  0  0  0
  -29.7200  -12.1320   18.1480 C   0  0  0  0  0  2  0  0  0  0  0  0
  -28.2460  -12.0300   18.5850 C   0  0  0  0  0  2  0  0  0  0  0  0
  -27.8500  -13.1180   19.6200 C   0  0  0  0  0  3  0  0  0  0  0  0
  -28.8980  -13.2410   20.7490 C   0  0  0  0  0  2  0  0  0  0  0  0
  -30.1980  -13.4940   20.1130 N   0  0  0  0  0  0  0  0  0  0  0  0
  -32.0080  -14.7500   19.6190 O   0  0  0  0  0  0  0  0  0  0  0  0
  -30.0630  -15.8670   19.9600 N   0  0  0  0  0  0  0  0  0  0  0  0
  -29.0900  -15.7660   20.2000 H   0  0  0  0  0  0  0  0  0  0  0  0
  -25.5270  -13.8460   20.4290 C   0  0  0  0  0  0  0  0  0  0  0  0
  -24.4240  -13.1370   20.8190 C   0  0  0  0  0  0  0  0  0  0  0  0
  -24.7960  -11.7590   20.7440 C   0  0  0  0  0  0  0  0  0  0  0  0
  -26.5020  -12.9060   20.1440 N   0  0  0  0  0  0  0  0  0  0  0  0
  -26.0710  -11.6430   20.3960 N   0  0  0  0  0  0  0  0  0  0  0  0
  -23.9920  -10.5430   20.9280 C   0  0  0  0  0  0  0  0  0  0  0  0
  -24.3940   -9.5160   21.8090 C   0  0  0  0  0  3  0  0  0  0  0  0
  -23.5950   -8.3650   21.9830 C   0  0  0  0  0  3  0  0  0  0  0  0
  -22.3760   -8.2360   21.2750 C   0  0  0  0  0  0  0  0  0  0  0  0
  -21.9900   -9.2510   20.3820 C   0  0  0  0  0  3  0  0  0  0  0  0
  -22.7900  -10.3920   20.2060 C   0  0  0  0  0  3  0  0  0  0  0  0
  -21.5470   -7.1430   21.3620 O   0  0  0  0  0  0  0  0  0  0  0  0
  -21.5140   -6.3520   22.4830 C   0  0  0  0  0  0  0  0  0  0  0  0
  -21.1790   -6.8720   23.7520 C   0  0  0  0  0  3  0  0  0  0  0  0
  -21.0860   -6.0110   24.8640 C   0  0  0  0  0  3  0  0  0  0  0  0
  -21.3200   -4.6310   24.7080 C   0  0  0  0  0  0  0  0  0  0  0  0
  -21.6490   -4.1100   23.4460 C   0  0  0  0  0  3  0  0  0  0  0  0
  -21.7420   -4.9680   22.3350 C   0  0  0  0  0  0  0  0  0  0  0  0
  -22.0390   -4.4590   21.1150 F   0  0  0  0  0  0  0  0  0  0  0  0
  -21.2250   -3.8030   25.7740 F   0  0  0  0  0  0  0  0  0  0  0  0
  -23.0690  -13.6990   21.1340 C   0  0  0  0  0  0  0  0  0  0  0  0
  -22.3170  -13.0390   22.0070 N   0  0  0  0  0  0  0  0  0  0  0  0
  -22.6870  -14.7600   20.6420 O   0  0  0  0  0  0  0  0  0  0  0  0
  -22.6360  -12.1800   22.4300 H   0  0  0  0  0  0  0  0  0  0  0  0
  -21.4050  -13.3980   22.2530 H   0  0  0  0  0  0  0  0  0  0  0  0
  -25.7730  -15.2070   20.2630 N   0  0  0  0  0  0  0  0  0  0  0  0
  -25.0380  -15.8960   20.3800 H   0  0  0  0  0  0  0  0  0  0  0  0
  -26.5950  -15.5820   19.8080 H   0  0  0  0  0  0  0  0  0  0  0  0
  1  5  1  0
  2 55  1  0
  2  5  2  0
  3  2  1  0
  4  1  2  0
  6  3  2  0
  6  4  1  0
  7  9  1  0
  7  8  1  0
  8  3  1  0
  9 10  1  6
  9  8  1  0
  9 11  1  0
 11 12  1  0
 12 14  1  0
 13 24  2  0
 14 19  1  0
 15 25  1  0
 15 23  1  0
 16 22  1  0
 16 18  1  0
 17 23  1  0
 18 17  1  0
 19 18  2  0
 20 21  1  0
 20 14  2  0
 21 16  2  0
 22 15  1  0
 23 13  1  0
 25 27  2  0
 26 25  1  0
 28 26  1  0
 29 38  2  0
 29 34  1  0
 30 26  1  0
 30 34  1  0
 31 30  1  0
 32 33  1  0
 32 31  1  0
 33 29  1  0
 34 35  2  0
 35 36  1  0
 37 36  2  0
 38 37  1  0
 39 13  1  0
 39 40  1  0
 39 44  1  0
 40 43  1  1
 40 41  1  0
 42 40  1  0
 44 47  1  0
 45 44  1  0
 45 49  1  0
 46 45  2  0
 49 48  1  0
 49 51  1  0
 51 52  1  0
 51 50  1  0
 53 55  1  0
 53 54  1  0
 55 54  1  0
 56  4  1  0
 56 65  1  0
 57 65  1  0
 57 63  1  0
 58 63  1  0
 59 60  1  0
 59 58  1  0
 61 60  1  0
 61 70  1  0
 61 62  1  0
 63 62  1  0
 64 57  2  0
 65 66  1  0
 67 68  2  0
 68 87  1  0
 69 68  1  0
 69 72  1  0
 70 71  1  0
 70 67  1  0
 71 69  2  0
 72 73  1  0
 73 74  2  0
 75 78  1  0
 75 74  1  0
 76 75  2  0
 77 76  1  0
 77 72  2  0
 78 79  1  0
 79 80  1  0
 80 81  2  0
 82 81  1  0
 82 86  1  0
 83 82  2  0
 84 79  2  0
 84 83  1  0
 85 84  1  0
 87 88  1  0
 88 91  1  0
 88 90  1  0
 89 87  2  0
 92 93  1  0
 92 67  1  0
 94 92  1  0
M  ISO  4  11 101  12 101  57 100  65 100
M  END
>  <TORSDO>  (74) 
F 20

>  <SCORE>  (74) 
-10.600

>  <name>  (74) 
74

>  <ligand_id>  (74) 
74

>  <original_smiles>  (74) 
[H]c1nc(C2([H])C([H])([H])C2([H])[H])c(C2([H])C([H])([H])C2(C([H])([H])[H])C([H])([H])Oc2c([H])c([H])c3c(c2[H])C([H])([H])N(C(=O)C([H])(N([H])C(=O)C([H])(N([H])C([H])([H])[H])C([H])([H])[H])C(C([H])([H])[H])(C([H])([H])[H])C([H])([H])[H])C([H])(C(=O)N([H])C2([H])c4c([H])c([H])c([H])c([H])c4C([H])([H])C([H])([H])C2([H])[H])C3([H])[H])nc1C([H])([H])N([H])C(=O)N1C([H])([H])C([H])([H])C([H])([H])C([H])(n2nc(-c3c([H])c([H])c(Oc4c([H])c([H])c(F)c([H])c4F)c([H])c3[H])c(C(=O)N([H])[H])c2N([H])[H])C1([H])[H]

>  <smiles>  (74) 
[H]c1nc(C2([H])C([H])([H])C2([H])[H])c(C2([H])C([H])([H])C2(C([H])([H])[H])C([H])([H])Oc2c([H])c([H])c3c(c2[H])C([H])([H])N(C(=O)C([H])(N([H])C(=O)C([H])(N([H])C([H])([H])[H])C([H])([H])[H])C(C([H])([H])[H])(C([H])([H])[H])C([H])([H])[H])C([H])(C(=O)N([H])C2([H])c4c([H])c([H])c([H])c([H])c4C([H])([H])C([H])([H])C2([H])[H])C3([H])[H])nc1C([H])([H])N([H])C(=O)N1C([H])([H])C([H])([H])C([H])([H])C([H])(n2nc(-c3c([H])c([H])c(Oc4c([H])c([H])c(F)c([H])c4F)c([H])c3[H])c(C(=O)N([H])[H])c2N([H])[H])C1([H])[H]

$$$$
75:0:0
     RDKit          3D

 98107  0  0  1  0  0  0  0  0999 V2000
  -29.9340  -22.6510   20.7480 C   0  0  0  0  0  0  0  0  0  0  0  0
  -29.0810  -23.5480   20.0570 C   0  0  0  0  0  0  0  0  0  0  0  0
  -29.8690  -21.2380   20.5430 C   0  0  0  0  0  0  0  0  0  0  0  0
  -28.1800  -23.0550   19.0830 C   0  0  0  0  0  0  0  0  0  0  0  0
  -28.8300  -20.6650   19.7550 C   0  0  0  0  0  0  0  0  0  0  0  0
  -29.1240  -25.0570   20.3700 C   0  0  0  0  0  2  0  0  0  0  0  0
  -30.1820  -24.3720   22.5520 C   0  0  0  0  0  2  0  0  0  0  0  0
  -30.8880  -23.2550   21.7780 C   0  0  0  0  0  3  0  0  0  0  0  0
  -30.9290  -20.3600   21.1970 C   0  0  0  0  0  1  0  0  0  0  0  0
  -32.2300  -23.6880   21.1540 C   0  0  0  0  0  1  0  0  0  0  0  0
  -28.0530  -21.6220   19.0180 N   0  0  0  0  0  0  0  0  0  0  0  0
  -29.7260  -25.4770   21.6730 N   0  0  2  0  0  4  0  0  0  0  0  0
  -30.5790  -25.9320   21.3840 H   0  0  0  0  0  0  0  0  0  0  0  0
  -29.8520  -27.4120   23.2890 C   0  0  0  0  0  1  0  0  0  0  0  0
  -27.7350  -26.0270   23.1680 C   0  0  0  0  0  1  0  0  0  0  0  0
  -28.9560  -26.5500   22.3760 C   0  0  0  0  0  3  0  0  0  0  0  0
  -28.5320  -18.9980   19.7780 C   0  0  0  0  0  3  0  0  0  0  0  0
  -29.5380  -17.6950   20.3050 C   0  0  0  0  0  3  0  0  0  0  0  0
  -30.0870  -14.9670   20.3420 C   0  0  0  0  0  0  0  0  0  0  0  0
  -30.1590  -12.5340   19.6040 C   0  0  0  0  0  2  0  0  0  0  0  0
  -29.2370  -12.2890   18.3880 C   0  0  0  0  0  2  0  0  0  0  0  0
  -27.7950  -11.9980   18.8450 C   0  0  0  0  0  2  0  0  0  0  0  0
  -27.3090  -12.9760   19.9480 C   0  0  0  0  0  3  0  0  0  0  0  0
  -28.3630  -13.1910   21.0550 C   0  0  0  0  0  2  0  0  0  0  0  0
  -29.5840  -13.6640   20.3920 N   0  0  0  0  0  0  0  0  0  0  0  0
  -31.2900  -15.0850   20.0850 O   0  0  0  0  0  0  0  0  0  0  0  0
  -29.2400  -16.1230   20.3730 N   0  0  0  0  0  0  0  0  0  0  0  0
  -28.2670  -15.8920   20.5230 H   0  0  0  0  0  0  0  0  0  0  0  0
  -24.9320  -13.4200   20.7800 C   0  0  0  0  0  0  0  0  0  0  0  0
  -23.9190  -12.5880   21.1660 C   0  0  0  0  0  0  0  0  0  0  0  0
  -24.4460  -11.2620   21.0960 C   0  0  0  0  0  0  0  0  0  0  0  0
  -26.0070  -12.5990   20.4870 N   0  0  0  0  0  0  0  0  0  0  0  0
  -25.7270  -11.2930   20.7450 N   0  0  0  0  0  0  0  0  0  0  0  0
  -23.7850   -9.9640   21.2830 C   0  0  0  0  0  0  0  0  0  0  0  0
  -24.2740   -9.0100   22.2030 C   0  0  0  0  0  3  0  0  0  0  0  0
  -23.6080   -7.7780   22.3810 C   0  0  0  0  0  3  0  0  0  0  0  0
  -22.4390   -7.4910   21.6370 C   0  0  0  0  0  0  0  0  0  0  0  0
  -21.9700   -8.4330   20.7040 C   0  0  0  0  0  3  0  0  0  0  0  0
  -22.6380   -9.6570   20.5250 C   0  0  0  0  0  3  0  0  0  0  0  0
  -21.7430   -6.3110   21.7240 O   0  0  0  0  0  0  0  0  0  0  0  0
  -21.7240   -5.5660   22.8760 C   0  0  0  0  0  0  0  0  0  0  0  0
  -21.2160   -6.0810   24.0870 C   0  0  0  0  0  3  0  0  0  0  0  0
  -21.1520   -5.2600   25.2310 C   0  0  0  0  0  3  0  0  0  0  0  0
  -21.5870   -3.9230   25.1630 C   0  0  0  0  0  0  0  0  0  0  0  0
  -22.0870   -3.4060   23.9560 C   0  0  0  0  0  3  0  0  0  0  0  0
  -22.1520   -4.2250   22.8150 C   0  0  0  0  0  0  0  0  0  0  0  0
  -22.6170   -3.7140   21.6480 F   0  0  0  0  0  0  0  0  0  0  0  0
  -21.5180   -3.1310   26.2590 F   0  0  0  0  0  0  0  0  0  0  0  0
  -22.5090  -12.9950   21.4820 C   0  0  0  0  0  0  0  0  0  0  0  0
  -21.8500  -12.2700   22.3790 N   0  0  0  0  0  0  0  0  0  0  0  0
  -22.0000  -13.9890   20.9680 O   0  0  0  0  0  0  0  0  0  0  0  0
  -22.2790  -11.4670   22.8140 H   0  0  0  0  0  0  0  0  0  0  0  0
  -20.9060  -12.5230   22.6330 H   0  0  0  0  0  0  0  0  0  0  0  0
  -25.0240  -14.8000   20.6240 N   0  0  0  0  0  0  0  0  0  0  0  0
  -24.2250  -15.4090   20.7640 H   0  0  0  0  0  0  0  0  0  0  0  0
  -25.8190  -15.2810   20.2240 H   0  0  0  0  0  0  0  0  0  0  0  0
  -27.2880  -24.1460   18.1790 C   0  0  0  0  0  2  0  0  0  0  0  0
  -27.5630  -25.6880   17.9880 O   0  0  0  0  0  0  0  0  0  0  0  0
  -24.7280  -30.9140   22.3870 C   0  0  0  0  0  0  0  0  0  0  0  0
  -26.5640  -26.7070   18.2450 C   0  0  0  0  0  0  0  0  0  0  0  0
  -23.2170  -29.8390   20.7630 C   0  0  0  0  0  3  0  0  0  0  0  0
  -24.3440  -28.4920   18.8820 C   0  0  0  0  0  0  0  0  0  0  0  0
  -25.7220  -30.0710   20.2250 C   0  0  0  0  0  2  0  0  0  0  0  0
  -25.6260  -28.8030   19.3510 C   0  0  0  0  0  0  0  0  0  0  0  0
  -26.7330  -27.9320   19.0160 C   0  0  0  0  0  3  0  0  0  0  0  0
  -25.2540  -26.5110   17.7540 C   0  0  0  0  0  3  0  0  0  0  0  0
  -24.1690  -27.3610   18.0670 C   0  0  0  0  0  3  0  0  0  0  0  0
  -23.1840  -29.3950   19.2760 C   0  0  0  0  0  2  0  0  0  0  0  0
  -24.5850  -30.2870   21.1790 N   0  0  0  0  0  0  0  0  0  0  0  0
  -23.7540  -31.1280   23.1260 O   0  0  0  0  0  0  0  0  0  0  0  0
  -22.6520  -28.7010   21.6490 C   0  0  0  0  0  0  0  0  0  0  0  0
  -21.3130  -28.5780   21.7140 N   0  0  0  0  0  0  0  0  0  0  0  0
  -23.4140  -27.9340   22.2430 O   0  0  0  0  0  0  0  0  0  0  0  0
  -20.7500  -29.2520   21.2130 H   0  0  0  0  0  0  0  0  0  0  0  0
  -18.0050  -27.3280   22.5040 C   0  0  0  0  0  0  0  0  0  0  0  0
  -20.5820  -27.5410   22.4490 C   0  0  0  0  0  3  0  0  0  0  0  0
  -20.5700  -26.2070   21.6670 C   0  0  0  0  0  2  0  0  0  0  0  0
  -19.3320  -26.0380   20.7780 C   0  0  0  0  0  2  0  0  0  0  0  0
  -18.0560  -26.0920   21.6210 C   0  0  0  0  0  2  0  0  0  0  0  0
  -19.1890  -28.0160   22.8790 C   0  0  0  0  0  0  0  0  0  0  0  0
  -19.0800  -29.1780   23.6750 C   0  0  0  0  0  3  0  0  0  0  0  0
  -17.8230  -29.6500   24.0930 C   0  0  0  0  0  3  0  0  0  0  0  0
  -16.6550  -28.9570   23.7280 C   0  0  0  0  0  3  0  0  0  0  0  0
  -16.7480  -27.7970   22.9390 C   0  0  0  0  0  3  0  0  0  0  0  0
  -26.1180  -31.4120   22.8890 C   0  0  0  0  0  3  0  0  0  0  0  0
  -26.9160  -30.3090   23.6900 C   0  0  1  0  0  0  0  0  0  0  0  0
  -26.1050  -29.6620   24.8370 C   0  0  0  0  0  1  0  0  0  0  0  0
  -27.3840  -29.1740   22.7500 C   0  0  0  0  0  1  0  0  0  0  0  0
  -28.1930  -30.9310   24.3030 C   0  0  0  0  0  1  0  0  0  0  0  0
  -25.8920  -32.5950   23.7340 N   0  0  0  0  0  0  0  0  0  0  0  0
  -26.2330  -33.8490   23.4030 C   0  0  0  0  0  0  0  0  0  0  0  0
  -26.8380  -34.1210   22.3620 O   0  0  0  0  0  0  0  0  0  0  0  0
  -25.3530  -32.4540   24.5750 H   0  0  0  0  0  0  0  0  0  0  0  0
  -24.6230  -35.7360   23.8330 C   0  0  0  0  0  1  0  0  0  0  0  0
  -25.8460  -34.9790   24.3780 C   0  0  0  0  0  3  0  0  0  0  0  0
  -28.0400  -35.3580   25.4150 C   0  0  0  0  0  1  0  0  0  0  0  0
  -26.9440  -35.9350   24.6400 N   0  0  0  0  0  0  0  0  0  0  0  0
  -26.6000  -36.7530   25.1370 H   0  0  0  0  0  0  0  0  0  0  0  0
  1  8  1  0
  2  6  1  0
  2  1  2  0
  3  1  1  0
  3  9  1  0
  4  2  1  0
  5 17  1  0
  5  3  2  0
  6 12  1  0
  8 10  1  0
  8  7  1  0
 11  4  2  0
 11  5  1  0
 12 16  1  0
 12  7  1  0
 12 13  1  6
 16 15  1  0
 16 14  1  0
 17 18  2  0
 18 27  1  0
 19 27  1  0
 19 25  1  0
 20 25  1  0
 21 22  1  0
 21 20  1  0
 23 22  1  0
 23 32  1  0
 23 24  1  0
 25 24  1  0
 26 19  2  0
 27 28  1  0
 29 30  2  0
 30 49  1  0
 31 30  1  0
 31 34  1  0
 32 33  1  0
 32 29  1  0
 33 31  2  0
 34 35  1  0
 35 36  2  0
 37 40  1  0
 37 36  1  0
 38 37  2  0
 39 38  1  0
 39 34  2  0
 40 41  1  0
 41 42  1  0
 42 43  2  0
 44 43  1  0
 44 48  1  0
 45 44  2  0
 46 41  2  0
 46 45  1  0
 47 46  1  0
 49 50  1  0
 50 53  1  0
 50 52  1  0
 51 49  2  0
 54 55  1  0
 54 29  1  0
 56 54  1  0
 57  4  1  0
 58 57  1  0
 58 60  1  0
 59 70  2  0
 60 65  1  0
 61 69  1  0
 61 71  1  0
 62 68  1  0
 62 64  1  0
 63 69  1  0
 64 63  1  0
 65 64  2  0
 66 67  1  0
 66 60  2  0
 67 62  2  0
 68 61  1  0
 69 59  1  0
 71 72  1  0
 71 73  2  0
 74 72  1  0
 75 80  2  0
 75 84  1  0
 76 72  1  0
 76 80  1  0
 77 76  1  0
 78 79  1  0
 78 77  1  0
 79 75  1  0
 80 81  1  0
 81 82  2  0
 83 82  1  0
 84 83  2  0
 85 59  1  0
 85 86  1  0
 85 90  1  0
 86 89  1  1
 86 87  1  0
 88 86  1  0
 90 93  1  0
 91 90  1  0
 91 95  1  0
 92 91  2  0
 95 94  1  0
 95 97  1  0
 97 98  1  0
 97 96  1  0
M  ISO  4  19 100  27 100  57 101  58 101
M  END
>  <TORSDO>  (75) 
F 20

>  <SCORE>  (75) 
-10.619

>  <name>  (75) 
75

>  <ligand_id>  (75) 
75

>  <original_smiles>  (75) 
[H]c1c([H])c([H])c2c(c1[H])C([H])([H])C([H])([H])C([H])([H])C2([H])N([H])C(=O)C1([H])N(C(=O)C([H])(N([H])C(=O)C([H])(N([H])C([H])([H])[H])C([H])([H])[H])C(C([H])([H])[H])(C([H])([H])[H])C([H])([H])[H])C([H])([H])c2c([H])c(OC([H])([H])c3nc(C([H])([H])C([H])([H])N([H])C(=O)N4C([H])([H])C([H])([H])C([H])([H])C([H])(n5nc(-c6c([H])c([H])c(Oc7c([H])c([H])c(F)c([H])c7F)c([H])c6[H])c(C(=O)N([H])[H])c5N([H])[H])C4([H])[H])c(C([H])([H])[H])c4c3C([H])([H])[N+]([H])(C([H])(C([H])([H])[H])C([H])([H])[H])C([H])([H])C4([H])C([H])([H])[H])c([H])c([H])c2C1([H])[H]

>  <smiles>  (75) 
[H]c1c([H])c([H])c2c(c1[H])C([H])([H])C([H])([H])C([H])([H])C2([H])N([H])C(=O)C1([H])N(C(=O)C([H])(N([H])C(=O)C([H])(N([H])C([H])([H])[H])C([H])([H])[H])C(C([H])([H])[H])(C([H])([H])[H])C([H])([H])[H])C([H])([H])c2c([H])c(OC([H])([H])c3nc(C([H])([H])C([H])([H])N([H])C(=O)N4C([H])([H])C([H])([H])C([H])([H])C([H])(n5nc(-c6c([H])c([H])c(Oc7c([H])c([H])c(F)c([H])c7F)c([H])c6[H])c(C(=O)N([H])[H])c5N([H])[H])C4([H])[H])c(C([H])([H])[H])c4c3C([H])([H])[N+]([H])(C([H])(C([H])([H])[H])C([H])([H])[H])C([H])([H])C4([H])C([H])([H])[H])c([H])c([H])c2C1([H])[H]

$$$$
76:0:0
     RDKit          3D

 91100  0  0  1  0  0  0  0  0999 V2000
  -30.3530  -19.7840   20.8070 C   0  0  0  0  0  3  0  0  0  0  0  0
  -30.2930  -21.2330   20.8290 C   0  0  0  0  0  0  0  0  0  0  0  0
  -29.3220  -22.0020   20.0800 C   0  0  0  0  0  0  0  0  0  0  0  0
  -29.4540  -18.9980   20.0370 C   0  0  0  0  0  0  0  0  0  0  0  0
  -28.4570  -21.1290   19.3480 C   0  0  0  0  0  0  0  0  0  0  0  0
  -31.3200  -21.9510   21.6860 C   0  0  0  0  0  1  0  0  0  0  0  0
  -27.3480  -21.7120   18.4940 C   0  0  0  0  0  1  0  0  0  0  0  0
  -28.5270  -19.7400   19.3410 N   0  0  0  0  0  0  0  0  0  0  0  0
  -30.7260  -14.9720   19.9550 C   0  0  0  0  0  0  0  0  0  0  0  0
  -30.4670  -12.6650   18.9510 C   0  0  0  0  0  2  0  0  0  0  0  0
  -29.4500  -12.7060   17.7870 C   0  0  0  0  0  2  0  0  0  0  0  0
  -28.0180  -12.4890   18.3090 C   0  0  0  0  0  2  0  0  0  0  0  0
  -27.7150  -13.3400   19.5710 C   0  0  0  0  0  3  0  0  0  0  0  0
  -28.8590  -13.2960   20.6070 C   0  0  0  0  0  2  0  0  0  0  0  0
  -30.0900  -13.7290   19.9280 N   0  0  0  0  0  0  0  0  0  0  0  0
  -31.8250  -15.0540   19.3940 O   0  0  0  0  0  0  0  0  0  0  0  0
  -28.4450  -16.9670   21.2470 C   0  0  0  0  0  2  0  0  0  0  0  0
  -29.7290  -16.4040   21.8580 C   0  0  0  0  0  2  0  0  0  0  0  0
  -29.2630  -17.3650   20.0150 C   0  0  0  0  0  3  0  0  0  0  0  0
  -30.1400  -16.1530   20.4810 N   0  0  0  0  0  0  0  0  0  0  0  0
  -25.3870  -13.8540   20.5160 C   0  0  0  0  0  0  0  0  0  0  0  0
  -24.3720  -13.0530   20.9580 C   0  0  0  0  0  0  0  0  0  0  0  0
  -24.8450  -11.7100   20.8290 C   0  0  0  0  0  0  0  0  0  0  0  0
  -26.4220  -13.0040   20.1600 N   0  0  0  0  0  0  0  0  0  0  0  0
  -26.1060  -11.7040   20.4070 N   0  0  0  0  0  0  0  0  0  0  0  0
  -24.1410  -10.4360   21.0240 C   0  0  0  0  0  0  0  0  0  0  0  0
  -24.5920   -9.4760   21.9570 C   0  0  0  0  0  3  0  0  0  0  0  0
  -23.8820   -8.2710   22.1430 C   0  0  0  0  0  3  0  0  0  0  0  0
  -22.7080   -8.0140   21.3960 C   0  0  0  0  0  0  0  0  0  0  0  0
  -22.2760   -8.9630   20.4520 C   0  0  0  0  0  3  0  0  0  0  0  0
  -22.9870  -10.1610   20.2640 C   0  0  0  0  0  3  0  0  0  0  0  0
  -21.9690   -6.8590   21.4890 O   0  0  0  0  0  0  0  0  0  0  0  0
  -21.8390   -6.1820   22.6740 C   0  0  0  0  0  0  0  0  0  0  0  0
  -21.2740   -6.7870   23.8180 C   0  0  0  0  0  3  0  0  0  0  0  0
  -21.0980   -6.0370   24.9970 C   0  0  0  0  0  3  0  0  0  0  0  0
  -21.4750   -4.6810   25.0330 C   0  0  0  0  0  0  0  0  0  0  0  0
  -22.0320   -4.0750   23.8920 C   0  0  0  0  0  3  0  0  0  0  0  0
  -22.2100   -4.8240   22.7150 C   0  0  0  0  0  0  0  0  0  0  0  0
  -22.7300   -4.2300   21.6130 F   0  0  0  0  0  0  0  0  0  0  0  0
  -21.2990   -3.9550   26.1610 F   0  0  0  0  0  0  0  0  0  0  0  0
  -23.0040  -13.5070   21.3690 C   0  0  0  0  0  0  0  0  0  0  0  0
  -22.3670  -12.7840   22.2830 N   0  0  0  0  0  0  0  0  0  0  0  0
  -22.5100  -14.5410   20.9180 O   0  0  0  0  0  0  0  0  0  0  0  0
  -22.7820  -11.9470   22.6650 H   0  0  0  0  0  0  0  0  0  0  0  0
  -21.4550  -13.0730   22.6050 H   0  0  0  0  0  0  0  0  0  0  0  0
  -25.4940  -15.2290   20.3560 N   0  0  0  0  0  0  0  0  0  0  0  0
  -24.7050  -15.8440   20.5240 H   0  0  0  0  0  0  0  0  0  0  0  0
  -26.2500  -15.6830   19.8610 H   0  0  0  0  0  0  0  0  0  0  0  0
  -29.3720  -23.6560   19.9830 C   0  0  0  0  0  3  0  0  0  0  0  0
  -28.1500  -24.7780   19.9280 C   0  0  0  0  0  3  0  0  0  0  0  0
  -28.3810  -26.3040   20.0060 O   0  0  0  0  0  0  0  0  0  0  0  0
  -24.6840  -31.8350   23.1260 C   0  0  0  0  0  0  0  0  0  0  0  0
  -27.2950  -27.2400   19.9850 C   0  0  0  0  0  0  0  0  0  0  0  0
  -23.4930  -30.4810   21.4430 C   0  0  0  0  0  3  0  0  0  0  0  0
  -24.9500  -28.9440   19.9960 C   0  0  0  0  0  0  0  0  0  0  0  0
  -26.0450  -30.7660   21.2950 C   0  0  0  0  0  2  0  0  0  0  0  0
  -26.1250  -29.3930   20.6130 C   0  0  0  0  0  0  0  0  0  0  0  0
  -27.3020  -28.5570   20.5870 C   0  0  0  0  0  3  0  0  0  0  0  0
  -26.0890  -26.8810   19.3460 C   0  0  0  0  0  3  0  0  0  0  0  0
  -24.9420  -27.7000   19.3490 C   0  0  0  0  0  3  0  0  0  0  0  0
  -23.7200  -29.8340   20.0520 C   0  0  0  0  0  2  0  0  0  0  0  0
  -24.7600  -31.0460   22.0110 N   0  0  0  0  0  0  0  0  0  0  0  0
  -23.5950  -32.1040   23.6550 O   0  0  0  0  0  0  0  0  0  0  0  0
  -22.8090  -29.4500   22.3770 C   0  0  0  0  0  0  0  0  0  0  0  0
  -21.4800  -29.2900   22.2440 N   0  0  0  0  0  0  0  0  0  0  0  0
  -23.4770  -28.7980   23.1830 O   0  0  0  0  0  0  0  0  0  0  0  0
  -20.9990  -29.8730   21.5730 H   0  0  0  0  0  0  0  0  0  0  0  0
  -18.0840  -28.1410   22.7590 C   0  0  0  0  0  0  0  0  0  0  0  0
  -20.6530  -28.3360   22.9870 C   0  0  0  0  0  3  0  0  0  0  0  0
  -20.7090  -26.9280   22.3500 C   0  0  0  0  0  2  0  0  0  0  0  0
  -19.5830  -26.6750   21.3440 C   0  0  0  0  0  2  0  0  0  0  0  0
  -18.2180  -26.8210   22.0200 C   0  0  0  0  0  2  0  0  0  0  0  0
  -19.2280  -28.8610   23.1990 C   0  0  0  0  0  0  0  0  0  0  0  0
  -19.0460  -30.0980   23.8530 C   0  0  0  0  0  3  0  0  0  0  0  0
  -17.7540  -30.6180   24.0670 C   0  0  0  0  0  3  0  0  0  0  0  0
  -16.6260  -29.8970   23.6380 C   0  0  0  0  0  3  0  0  0  0  0  0
  -16.7940  -28.6590   22.9910 C   0  0  0  0  0  3  0  0  0  0  0  0
  -25.9600  -32.4510   23.7770 C   0  0  0  0  0  3  0  0  0  0  0  0
  -25.6430  -33.8390   24.1490 N   0  0  0  0  0  0  0  0  0  0  0  0
  -25.9460  -34.9170   23.4130 C   0  0  0  0  0  0  0  0  0  0  0  0
  -26.5890  -34.8470   22.3620 O   0  0  0  0  0  0  0  0  0  0  0  0
  -25.0660  -33.9650   24.9690 H   0  0  0  0  0  0  0  0  0  0  0  0
  -24.1840  -36.6990   23.1660 C   0  0  0  0  0  1  0  0  0  0  0  0
  -25.4600  -36.2900   23.9200 C   0  0  0  0  0  3  0  0  0  0  0  0
  -27.6120  -37.1900   24.6910 C   0  0  0  0  0  1  0  0  0  0  0  0
  -26.4750  -37.3600   23.7900 N   0  0  0  0  0  0  0  0  0  0  0  0
  -26.0630  -38.2710   23.9660 H   0  0  0  0  0  0  0  0  0  0  0  0
  -26.4650  -31.6450   25.0370 C   0  0  1  0  0  0  0  0  0  0  0  0
  -25.3640  -31.3710   26.0870 C   0  0  0  0  0  1  0  0  0  0  0  0
  -27.0580  -30.2810   24.6140 C   0  0  0  0  0  1  0  0  0  0  0  0
  -27.6060  -32.4240   25.7320 C   0  0  0  0  0  1  0  0  0  0  0  0
  1  2  1  0
  2  6  1  0
  3  2  2  0
  4  1  2  0
  5  3  1  0
  7  5  1  0
  8  5  2  0
  8  4  1  0
  9 20  1  0
 10 15  1  0
 11 12  1  0
 11 10  1  0
 13 12  1  0
 13 24  1  0
 13 14  1  0
 15  9  1  0
 15 14  1  0
 16  9  2  0
 17 18  1  0
 19  4  1  0
 19 20  1  0
 19 17  1  0
 20 18  1  0
 21 22  2  0
 22 41  1  0
 23 22  1  0
 23 26  1  0
 24 25  1  0
 24 21  1  0
 25 23  2  0
 26 27  1  0
 27 28  2  0
 29 32  1  0
 29 28  1  0
 30 29  2  0
 31 30  1  0
 31 26  2  0
 32 33  1  0
 33 38  2  0
 33 34  1  0
 34 35  2  0
 35 36  1  0
 36 40  1  0
 37 36  2  0
 38 37  1  0
 39 38  1  0
 41 42  1  0
 42 45  1  0
 42 44  1  0
 43 41  2  0
 46 21  1  0
 46 47  1  0
 48 46  1  0
 49  3  1  0
 50 49  2  0
 50 51  1  0
 52 63  2  0
 53 51  1  0
 53 58  1  0
 54 62  1  0
 54 64  1  0
 55 61  1  0
 55 57  1  0
 56 62  1  0
 57 56  1  0
 58 57  2  0
 59 60  1  0
 59 53  2  0
 60 55  2  0
 61 54  1  0
 62 52  1  0
 64 66  2  0
 65 64  1  0
 67 65  1  0
 68 77  2  0
 68 73  1  0
 69 65  1  0
 69 73  1  0
 70 69  1  0
 71 72  1  0
 71 70  1  0
 72 68  1  0
 73 74  2  0
 74 75  1  0
 76 75  2  0
 77 76  1  0
 78 52  1  0
 78 79  1  0
 78 88  1  0
 79 82  1  0
 80 84  1  0
 80 79  1  0
 81 80  2  0
 84 83  1  0
 86 84  1  0
 86 87  1  0
 86 85  1  0
 88 91  1  1
 88 89  1  0
 90 88  1  0
M  ISO  4   9 100  20 100  50 101  51 101
M  END
>  <TORSDO>  (76) 
F 18

>  <SCORE>  (76) 
-13.679

>  <name>  (76) 
76

>  <ligand_id>  (76) 
76

>  <original_smiles>  (76) 
[H]c1c([H])c([H])c2c(c1[H])C([H])([H])C([H])([H])C([H])([H])C2([H])N([H])C(=O)C1([H])N(C(=O)C([H])(N([H])C(=O)C([H])(N([H])C([H])([H])[H])C([H])([H])[H])C(C([H])([H])[H])(C([H])([H])[H])C([H])([H])[H])C([H])([H])c2c([H])c(OC([H])([H])C([H])([H])c3c(C([H])([H])[H])nc(C4([H])N(C(=O)N5C([H])([H])C([H])([H])C([H])([H])C([H])(n6nc(-c7c([H])c([H])c(Oc8c([H])c([H])c(F)c([H])c8F)c([H])c7[H])c(C(=O)N([H])[H])c6N([H])[H])C5([H])[H])C([H])([H])C4([H])[H])c([H])c3C([H])([H])[H])c([H])c([H])c2C1([H])[H]

>  <smiles>  (76) 
[H]c1c([H])c([H])c2c(c1[H])C([H])([H])C([H])([H])C([H])([H])C2([H])N([H])C(=O)C1([H])N(C(=O)C([H])(N([H])C(=O)C([H])(N([H])C([H])([H])[H])C([H])([H])[H])C(C([H])([H])[H])(C([H])([H])[H])C([H])([H])[H])C([H])([H])c2c([H])c(OC([H])([H])C([H])([H])c3c(C([H])([H])[H])nc(C4([H])N(C(=O)N5C([H])([H])C([H])([H])C([H])([H])C([H])(n6nc(-c7c([H])c([H])c(Oc8c([H])c([H])c(F)c([H])c8F)c([H])c7[H])c(C(=O)N([H])[H])c6N([H])[H])C5([H])[H])C([H])([H])C4([H])[H])c([H])c3C([H])([H])[H])c([H])c([H])c2C1([H])[H]

$$$$
77:0:0
     RDKit          3D

 89 97  0  0  1  0  0  0  0  0999 V2000
  -29.2480  -21.8880   20.0790 C   0  0  0  0  0  0  0  0  0  0  0  0
  -28.9780  -20.4970   20.3420 N   0  0  0  0  0  0  0  0  0  0  0  0
  -30.3210  -22.1660   19.5550 O   0  0  0  0  0  0  0  0  0  0  0  0
  -28.0760  -20.3530   20.7780 H   0  0  0  0  0  0  0  0  0  0  0  0
  -30.7740  -19.0900   19.0610 C   0  0  0  0  0  2  0  0  0  0  0  0
  -30.0650  -17.8080   18.5730 C   0  0  0  0  0  2  0  0  0  0  0  0
  -29.8960  -19.1790   20.3400 C   0  0  0  0  0  3  0  0  0  0  0  0
  -29.4140  -17.5970   19.9720 C   0  0  0  0  0  3  0  0  0  0  0  0
  -30.5690  -15.0400   20.3250 C   0  0  0  0  0  0  0  0  0  0  0  0
  -30.4320  -12.6670   19.4110 C   0  0  0  0  0  2  0  0  0  0  0  0
  -29.5260  -12.6630   18.1570 C   0  0  0  0  0  2  0  0  0  0  0  0
  -28.0540  -12.4610   18.5590 C   0  0  0  0  0  2  0  0  0  0  0  0
  -27.6460  -13.3440   19.7700 C   0  0  0  0  0  3  0  0  0  0  0  0
  -28.6980  -13.3480   20.9010 C   0  0  0  0  0  2  0  0  0  0  0  0
  -29.9760  -13.7690   20.3140 N   0  0  0  0  0  0  0  0  0  0  0  0
  -31.7250  -15.0970   19.8850 O   0  0  0  0  0  0  0  0  0  0  0  0
  -29.8980  -16.2390   20.6890 N   0  0  0  0  0  0  0  0  0  0  0  0
  -29.7880  -16.2600   21.7180 H   0  0  0  0  0  0  0  0  0  0  0  0
  -25.2580  -13.8990   20.5090 C   0  0  0  0  0  0  0  0  0  0  0  0
  -24.1960  -13.1160   20.8680 C   0  0  0  0  0  0  0  0  0  0  0  0
  -24.6650  -11.7690   20.8290 C   0  0  0  0  0  0  0  0  0  0  0  0
  -26.3030  -13.0280   20.2590 N   0  0  0  0  0  0  0  0  0  0  0  0
  -25.9580  -11.7380   20.5210 N   0  0  0  0  0  0  0  0  0  0  0  0
  -23.9380  -10.5030   21.0100 C   0  0  0  0  0  0  0  0  0  0  0  0
  -24.3530   -9.5410   21.9590 C   0  0  0  0  0  3  0  0  0  0  0  0
  -23.6280   -8.3430   22.1320 C   0  0  0  0  0  3  0  0  0  0  0  0
  -22.4700   -8.0940   21.3540 C   0  0  0  0  0  0  0  0  0  0  0  0
  -22.0770   -9.0460   20.3940 C   0  0  0  0  0  3  0  0  0  0  0  0
  -22.8020  -10.2340   20.2210 C   0  0  0  0  0  3  0  0  0  0  0  0
  -21.7160   -6.9480   21.4340 O   0  0  0  0  0  0  0  0  0  0  0  0
  -21.6250   -6.2250   22.5950 C   0  0  0  0  0  0  0  0  0  0  0  0
  -21.1280   -6.7910   23.7900 C   0  0  0  0  0  3  0  0  0  0  0  0
  -20.9870   -5.9930   24.9410 C   0  0  0  0  0  3  0  0  0  0  0  0
  -21.3300   -4.6270   24.9010 C   0  0  0  0  0  0  0  0  0  0  0  0
  -21.8250   -4.0640   23.7110 C   0  0  0  0  0  3  0  0  0  0  0  0
  -21.9700   -4.8590   22.5610 C   0  0  0  0  0  0  0  0  0  0  0  0
  -22.4210   -4.3040   21.4120 F   0  0  0  0  0  0  0  0  0  0  0  0
  -21.1890   -3.8570   26.0060 F   0  0  0  0  0  0  0  0  0  0  0  0
  -22.7970  -13.5880   21.1370 C   0  0  0  0  0  0  0  0  0  0  0  0
  -22.0610  -12.8800   21.9910 N   0  0  0  0  0  0  0  0  0  0  0  0
  -22.3600  -14.6200   20.6270 O   0  0  0  0  0  0  0  0  0  0  0  0
  -22.4290  -12.0510   22.4320 H   0  0  0  0  0  0  0  0  0  0  0  0
  -21.1200  -13.1770   22.2100 H   0  0  0  0  0  0  0  0  0  0  0  0
  -25.4220  -15.2670   20.3420 N   0  0  0  0  0  0  0  0  0  0  0  0
  -24.6640  -15.9300   20.4540 H   0  0  0  0  0  0  0  0  0  0  0  0
  -26.2880  -15.7020   20.0440 H   0  0  0  0  0  0  0  0  0  0  0  0
  -28.2980  -23.2140   20.4530 C   0  0  0  0  0  2  0  0  0  0  0  0
  -28.3720  -24.7510   19.7130 C   0  0  0  0  0  2  0  0  0  0  0  0
  -28.2650  -26.2070   20.2990 O   0  0  0  0  0  0  0  0  0  0  0  0
  -24.6050  -31.8970   23.2320 C   0  0  0  0  0  0  0  0  0  0  0  0
  -27.1860  -27.1580   20.1950 C   0  0  0  0  0  0  0  0  0  0  0  0
  -23.4070  -30.4920   21.5980 C   0  0  0  0  0  3  0  0  0  0  0  0
  -24.8530  -28.9060   20.1740 C   0  0  0  0  0  0  0  0  0  0  0  0
  -25.9630  -30.7430   21.4430 C   0  0  0  0  0  2  0  0  0  0  0  0
  -26.0270  -29.3500   20.7860 C   0  0  0  0  0  0  0  0  0  0  0  0
  -27.1910  -28.4950   20.7850 C   0  0  0  0  0  3  0  0  0  0  0  0
  -25.9790  -26.8140   19.5490 C   0  0  0  0  0  3  0  0  0  0  0  0
  -24.8390  -27.6510   19.5400 C   0  0  0  0  0  3  0  0  0  0  0  0
  -23.6270  -29.8130   20.2190 C   0  0  0  0  0  2  0  0  0  0  0  0
  -24.6770  -31.0690   22.1410 N   0  0  0  0  0  0  0  0  0  0  0  0
  -23.5180  -32.1840   23.7550 O   0  0  0  0  0  0  0  0  0  0  0  0
  -22.7280  -29.4880   22.5640 C   0  0  0  0  0  0  0  0  0  0  0  0
  -21.4040  -29.3130   22.4360 N   0  0  0  0  0  0  0  0  0  0  0  0
  -23.4010  -28.8720   23.3950 O   0  0  0  0  0  0  0  0  0  0  0  0
  -20.9190  -29.8580   21.7350 H   0  0  0  0  0  0  0  0  0  0  0  0
  -18.0240  -28.1100   22.9560 C   0  0  0  0  0  0  0  0  0  0  0  0
  -20.5840  -28.3780   23.2130 C   0  0  0  0  0  3  0  0  0  0  0  0
  -20.6860  -26.9450   22.6410 C   0  0  0  0  0  2  0  0  0  0  0  0
  -19.5790  -26.6150   21.6330 C   0  0  0  0  0  2  0  0  0  0  0  0
  -18.2000  -26.7610   22.2810 C   0  0  0  0  0  2  0  0  0  0  0  0
  -19.1420  -28.8760   23.3800 C   0  0  0  0  0  0  0  0  0  0  0  0
  -18.9220  -30.1370   23.9730 C   0  0  0  0  0  3  0  0  0  0  0  0
  -17.6140  -30.6340   24.1450 C   0  0  0  0  0  3  0  0  0  0  0  0
  -16.5110  -29.8650   23.7340 C   0  0  0  0  0  3  0  0  0  0  0  0
  -16.7150  -28.6050   23.1460 C   0  0  0  0  0  3  0  0  0  0  0  0
  -25.8830  -32.5360   23.8560 C   0  0  0  0  0  3  0  0  0  0  0  0
  -26.3850  -31.7830   25.1510 C   0  0  1  0  0  0  0  0  0  0  0  0
  -25.2750  -31.5700   26.2090 C   0  0  0  0  0  1  0  0  0  0  0  0
  -26.9770  -30.3980   24.7960 C   0  0  0  0  0  1  0  0  0  0  0  0
  -27.5290  -32.5830   25.8170 C   0  0  0  0  0  1  0  0  0  0  0  0
  -25.5660  -33.9380   24.1780 N   0  0  0  0  0  0  0  0  0  0  0  0
  -25.8950  -34.9910   23.4170 C   0  0  0  0  0  0  0  0  0  0  0  0
  -26.5620  -34.8860   22.3880 O   0  0  0  0  0  0  0  0  0  0  0  0
  -24.9710  -34.0900   24.9770 H   0  0  0  0  0  0  0  0  0  0  0  0
  -24.1690  -36.7930   23.0580 C   0  0  0  0  0  1  0  0  0  0  0  0
  -25.4050  -36.3830   23.8750 C   0  0  0  0  0  3  0  0  0  0  0  0
  -27.5340  -37.2720   24.7190 C   0  0  0  0  0  1  0  0  0  0  0  0
  -26.4380  -37.4340   23.7670 N   0  0  0  0  0  0  0  0  0  0  0  0
  -26.0330  -38.3550   23.8980 H   0  0  0  0  0  0  0  0  0  0  0  0
  1  2  1  0
  1 47  1  0
  2  4  1  0
  3  1  2  0
  5  7  1  0
  6  5  1  0
  6  8  1  0
  7  2  1  0
  8  7  1  0
  8 17  1  0
  9 17  1  0
 10 15  1  0
 11 12  1  0
 11 10  1  0
 13 12  1  0
 13 22  1  0
 13 14  1  0
 15  9  1  0
 15 14  1  0
 16  9  2  0
 17 18  1  0
 19 20  2  0
 20 39  1  0
 21 20  1  0
 21 24  1  0
 22 19  1  0
 22 23  1  0
 23 21  2  0
 24 25  1  0
 25 26  2  0
 27 30  1  0
 27 26  1  0
 28 27  2  0
 29 28  1  0
 29 24  2  0
 30 31  1  0
 31 32  1  0
 32 33  2  0
 34 33  1  0
 34 38  1  0
 35 34  2  0
 36 31  2  0
 36 35  1  0
 37 36  1  0
 39 40  1  0
 40 43  1  0
 40 42  1  0
 41 39  2  0
 44 45  1  0
 44 19  1  0
 46 44  1  0
 48 49  1  0
 48 47  1  0
 50 61  2  0
 51 49  1  0
 51 56  1  0
 52 60  1  0
 52 62  1  0
 53 59  1  0
 53 55  1  0
 54 60  1  0
 55 54  1  0
 56 55  2  0
 57 51  2  0
 58 57  1  0
 58 53  2  0
 59 52  1  0
 60 50  1  0
 62 64  2  0
 63 62  1  0
 65 63  1  0
 66 75  2  0
 66 71  1  0
 67 63  1  0
 67 71  1  0
 68 67  1  0
 69 70  1  0
 69 68  1  0
 70 66  1  0
 71 72  2  0
 72 73  1  0
 74 73  2  0
 75 74  1  0
 76 50  1  0
 76 81  1  0
 76 77  1  0
 77 80  1  1
 77 78  1  0
 79 77  1  0
 81 84  1  0
 82 86  1  0
 82 81  1  0
 83 82  2  0
 86 85  1  0
 88 86  1  0
 88 89  1  0
 88 87  1  0
M  ISO  4   9 100  17 100  48 101  49 101
M  END
>  <TORSDO>  (77) 
F 19

>  <SCORE>  (77) 
-14.955

>  <name>  (77) 
77

>  <ligand_id>  (77) 
77

>  <original_smiles>  (77) 
[H]c1c([H])c([H])c2c(c1[H])C([H])([H])C([H])([H])C([H])([H])C2([H])N([H])C(=O)C1([H])N(C(=O)C([H])(N([H])C(=O)C([H])(N([H])C([H])([H])[H])C([H])([H])[H])C(C([H])([H])[H])(C([H])([H])[H])C([H])([H])[H])C([H])([H])c2c([H])c(OC([H])([H])C([H])([H])C(=O)N([H])C3([H])C([H])([H])C([H])([H])C3([H])N([H])C(=O)N3C([H])([H])C([H])([H])C([H])([H])C([H])(n4nc(-c5c([H])c([H])c(Oc6c([H])c([H])c(F)c([H])c6F)c([H])c5[H])c(C(=O)N([H])[H])c4N([H])[H])C3([H])[H])c([H])c([H])c2C1([H])[H]

>  <smiles>  (77) 
[H]c1c([H])c([H])c2c(c1[H])C([H])([H])C([H])([H])C([H])([H])C2([H])N([H])C(=O)C1([H])N(C(=O)C([H])(N([H])C(=O)C([H])(N([H])C([H])([H])[H])C([H])([H])[H])C(C([H])([H])[H])(C([H])([H])[H])C([H])([H])[H])C([H])([H])c2c([H])c(OC([H])([H])C([H])([H])C(=O)N([H])C3([H])C([H])([H])C([H])([H])C3([H])N([H])C(=O)N3C([H])([H])C([H])([H])C([H])([H])C([H])(n4nc(-c5c([H])c([H])c(Oc6c([H])c([H])c(F)c([H])c6F)c([H])c5[H])c(C(=O)N([H])[H])c4N([H])[H])C3([H])[H])c([H])c([H])c2C1([H])[H]

$$$$
78:0:0
     RDKit          3D

 92101  0  0  1  0  0  0  0  0999 V2000
  -29.9370  -22.2570   21.8430 C   0  0  0  0  0  3  0  0  0  0  0  0
  -30.6410  -21.7640   22.9440 C   0  0  0  0  0  3  0  0  0  0  0  0
  -30.6410  -19.5840   21.9400 C   0  0  0  0  0  3  0  0  0  0  0  0
  -29.4730  -21.5220   20.7160 C   0  0  0  0  0  0  0  0  0  0  0  0
  -29.9920  -19.9940   20.7290 C   0  0  0  0  0  0  0  0  0  0  0  0
  -30.9720  -20.4200   23.0210 C   0  0  0  0  0  0  0  0  0  0  0  0
  -27.7420  -22.2790   18.6820 C   0  0  0  0  0  2  0  0  0  0  0  0
  -29.0970  -22.8320   18.3570 C   0  0  0  0  0  2  0  0  0  0  0  0
  -28.6360  -22.7940   19.8110 C   0  0  2  0  0  0  0  0  0  0  0  0
  -28.0670  -24.4160   20.4280 C   0  0  0  0  0  2  0  0  0  0  0  0
  -28.1990  -26.0340   20.0360 O   0  0  0  0  0  0  0  0  0  0  0  0
  -24.6430  -31.9920   23.1360 C   0  0  0  0  0  0  0  0  0  0  0  0
  -27.1540  -27.1120   20.0620 C   0  0  0  0  0  0  0  0  0  0  0  0
  -23.4060  -30.5740   21.5490 C   0  0  0  0  0  3  0  0  0  0  0  0
  -24.8220  -28.9740   20.0790 C   0  0  0  0  0  0  0  0  0  0  0  0
  -25.9610  -30.8090   21.3020 C   0  0  0  0  0  2  0  0  0  0  0  0
  -26.0260  -29.3910   20.6590 C   0  0  0  0  0  0  0  0  0  0  0  0
  -27.1840  -28.4860   20.6210 C   0  0  0  0  0  3  0  0  0  0  0  0
  -25.9120  -26.8440   19.4410 C   0  0  0  0  0  3  0  0  0  0  0  0
  -24.7910  -27.7170   19.4500 C   0  0  0  0  0  3  0  0  0  0  0  0
  -23.5920  -29.8820   20.1700 C   0  0  0  0  0  2  0  0  0  0  0  0
  -24.6960  -31.1530   22.0490 N   0  0  0  0  0  0  0  0  0  0  0  0
  -23.5710  -32.2760   23.6910 O   0  0  0  0  0  0  0  0  0  0  0  0
  -22.7560  -29.5780   22.5430 C   0  0  0  0  0  0  0  0  0  0  0  0
  -21.4360  -29.3540   22.4250 N   0  0  0  0  0  0  0  0  0  0  0  0
  -23.4520  -29.0050   23.3880 O   0  0  0  0  0  0  0  0  0  0  0  0
  -20.9330  -29.8760   21.7210 H   0  0  0  0  0  0  0  0  0  0  0  0
  -18.1300  -27.9330   22.8870 C   0  0  0  0  0  0  0  0  0  0  0  0
  -20.6520  -28.3980   23.2110 C   0  0  0  0  0  3  0  0  0  0  0  0
  -20.8750  -26.9520   22.7140 C   0  0  0  0  0  2  0  0  0  0  0  0
  -19.8340  -26.5020   21.6850 C   0  0  0  0  0  2  0  0  0  0  0  0
  -18.4260  -26.5740   22.2790 C   0  0  0  0  0  2  0  0  0  0  0  0
  -19.1760  -28.7990   23.3060 C   0  0  0  0  0  0  0  0  0  0  0  0
  -18.8450  -30.0660   23.8350 C   0  0  0  0  0  3  0  0  0  0  0  0
  -17.5000  -30.4710   23.9450 C   0  0  0  0  0  3  0  0  0  0  0  0
  -16.4700  -29.6060   23.5370 C   0  0  0  0  0  3  0  0  0  0  0  0
  -16.7850  -28.3390   23.0160 C   0  0  0  0  0  3  0  0  0  0  0  0
  -25.9280  -32.6490   23.7270 C   0  0  0  0  0  3  0  0  0  0  0  0
  -26.5160  -31.8530   24.9580 C   0  0  1  0  0  0  0  0  0  0  0  0
  -25.4650  -31.5240   26.0470 C   0  0  0  0  0  1  0  0  0  0  0  0
  -27.1490  -30.5180   24.4970 C   0  0  0  0  0  1  0  0  0  0  0  0
  -27.6470  -32.6760   25.6210 C   0  0  0  0  0  1  0  0  0  0  0  0
  -25.5940  -34.0290   24.1250 N   0  0  0  0  0  0  0  0  0  0  0  0
  -25.8820  -35.1250   23.4110 C   0  0  0  0  0  0  0  0  0  0  0  0
  -26.5200  -35.0850   22.3580 O   0  0  0  0  0  0  0  0  0  0  0  0
  -25.0230  -34.1360   24.9510 H   0  0  0  0  0  0  0  0  0  0  0  0
  -24.0990  -36.8950   23.2120 C   0  0  0  0  0  1  0  0  0  0  0  0
  -25.3850  -36.4840   23.9490 C   0  0  0  0  0  3  0  0  0  0  0  0
  -27.5320  -37.3940   24.7300 C   0  0  0  0  0  1  0  0  0  0  0  0
  -26.3880  -37.5670   23.8380 N   0  0  0  0  0  0  0  0  0  0  0  0
  -25.9690  -38.4730   24.0330 H   0  0  0  0  0  0  0  0  0  0  0  0
  -32.7700  -19.1730   23.9490 C   0  0  0  0  0  1  0  0  0  0  0  0
  -31.6280  -19.9930   24.1560 O   0  0  0  0  0  0  0  0  0  0  0  0
  -30.1840  -18.5880   19.7250 C   0  0  0  0  0  2  0  0  0  0  0  0
  -30.8830  -15.6800   19.8400 C   0  0  0  0  0  0  0  0  0  0  0  0
  -30.8140  -13.2180   18.9900 C   0  0  0  0  0  2  0  0  0  0  0  0
  -29.8330  -13.0100   17.8070 C   0  0  0  0  0  2  0  0  0  0  0  0
  -28.4130  -12.7300   18.3210 C   0  0  0  0  0  2  0  0  0  0  0  0
  -28.0210  -13.6930   19.4680 C   0  0  0  0  0  3  0  0  0  0  0  0
  -29.1300  -13.8620   20.5350 C   0  0  0  0  0  2  0  0  0  0  0  0
  -30.3290  -14.3640   19.8470 N   0  0  0  0  0  0  0  0  0  0  0  0
  -32.0610  -15.6960   19.4490 O   0  0  0  0  0  0  0  0  0  0  0  0
  -30.1330  -16.9400   20.0860 N   0  0  0  0  0  0  0  0  0  0  0  0
  -29.2300  -16.7080   20.4760 H   0  0  0  0  0  0  0  0  0  0  0  0
  -25.7590  -14.2670   20.4830 C   0  0  0  0  0  0  0  0  0  0  0  0
  -24.6980  -13.5010   20.8750 C   0  0  0  0  0  0  0  0  0  0  0  0
  -25.0870  -12.1400   20.6610 C   0  0  0  0  0  0  0  0  0  0  0  0
  -26.7260  -13.3740   20.0580 N   0  0  0  0  0  0  0  0  0  0  0  0
  -26.3440  -12.0830   20.2280 N   0  0  0  0  0  0  0  0  0  0  0  0
  -24.3160  -10.8980   20.8000 C   0  0  0  0  0  0  0  0  0  0  0  0
  -24.7000   -9.8890   21.7090 C   0  0  0  0  0  3  0  0  0  0  0  0
  -23.9300   -8.7140   21.8340 C   0  0  0  0  0  3  0  0  0  0  0  0
  -22.7640   -8.5360   21.0530 C   0  0  0  0  0  0  0  0  0  0  0  0
  -22.4020   -9.5320   20.1320 C   0  0  0  0  0  3  0  0  0  0  0  0
  -23.1670  -10.7030   20.0050 C   0  0  0  0  0  3  0  0  0  0  0  0
  -21.9740   -7.4130   21.0900 O   0  0  0  0  0  0  0  0  0  0  0  0
  -21.7590   -6.7220   22.2550 C   0  0  0  0  0  0  0  0  0  0  0  0
  -21.1480   -7.3230   23.3770 C   0  0  0  0  0  3  0  0  0  0  0  0
  -20.8910   -6.5580   24.5320 C   0  0  0  0  0  3  0  0  0  0  0  0
  -21.2210   -5.1890   24.5580 C   0  0  0  0  0  0  0  0  0  0  0  0
  -21.8140   -4.5870   23.4350 C   0  0  0  0  0  3  0  0  0  0  0  0
  -22.0830   -5.3510   22.2860 C   0  0  0  0  0  0  0  0  0  0  0  0
  -22.6400   -4.7650   21.1990 F   0  0  0  0  0  0  0  0  0  0  0  0
  -20.9590   -4.4450   25.6610 F   0  0  0  0  0  0  0  0  0  0  0  0
  -23.3550  -14.0040   21.3110 C   0  0  0  0  0  0  0  0  0  0  0  0
  -22.6950  -13.2760   22.2030 N   0  0  0  0  0  0  0  0  0  0  0  0
  -22.9140  -15.0780   20.9050 O   0  0  0  0  0  0  0  0  0  0  0  0
  -23.0720  -12.4090   22.5610 H   0  0  0  0  0  0  0  0  0  0  0  0
  -21.7900  -13.5840   22.5270 H   0  0  0  0  0  0  0  0  0  0  0  0
  -25.9810  -15.6390   20.4230 N   0  0  0  0  0  0  0  0  0  0  0  0
  -25.2630  -16.3160   20.6500 H   0  0  0  0  0  0  0  0  0  0  0  0
  -26.7930  -16.0540   19.9850 H   0  0  0  0  0  0  0  0  0  0  0  0
  1  2  1  0
  2  6  2  0
  3  6  1  0
  4  5  1  0
  4  1  2  0
  5  3  2  0
  6 53  1  0
  7  9  1  0
  8  7  1  0
  8  9  1  0
  9 10  1  1
  9  4  1  0
 11 13  1  0
 11 10  1  0
 12 23  2  0
 13 18  1  0
 14 22  1  0
 14 24  1  0
 15 21  1  0
 15 17  1  0
 16 22  1  0
 17 16  1  0
 18 17  2  0
 19 20  1  0
 19 13  2  0
 20 15  2  0
 21 14  1  0
 22 12  1  0
 24 26  2  0
 25 24  1  0
 27 25  1  0
 28 37  2  0
 28 33  1  0
 29 25  1  0
 29 33  1  0
 30 29  1  0
 31 32  1  0
 31 30  1  0
 32 28  1  0
 33 34  2  0
 34 35  1  0
 36 35  2  0
 37 36  1  0
 38 12  1  0
 38 43  1  0
 38 39  1  0
 39 42  1  1
 39 40  1  0
 41 39  1  0
 43 46  1  0
 44 48  1  0
 44 43  1  0
 45 44  2  0
 48 47  1  0
 50 48  1  0
 50 51  1  0
 50 49  1  0
 52 53  1  0
 54 63  1  0
 54  5  1  0
 55 61  1  0
 55 63  1  0
 56 61  1  0
 57 58  1  0
 57 56  1  0
 59 58  1  0
 59 68  1  0
 59 60  1  0
 61 60  1  0
 62 55  2  0
 63 64  1  0
 65 66  2  0
 66 85  1  0
 67 70  1  0
 67 66  1  0
 68 69  1  0
 68 65  1  0
 69 67  2  0
 70 71  1  0
 71 72  2  0
 73 76  1  0
 73 72  1  0
 74 73  2  0
 75 74  1  0
 75 70  2  0
 76 77  1  0
 77 82  2  0
 77 78  1  0
 78 79  2  0
 79 80  1  0
 80 84  1  0
 81 80  2  0
 82 81  1  0
 83 82  1  0
 85 86  1  0
 86 89  1  0
 86 88  1  0
 87 85  2  0
 90 65  1  0
 90 91  1  0
 92 90  1  0
M  ISO  4  10 101  11 101  55 100  63 100
M  END
>  <TORSDO>  (78) 
F 20

>  <SCORE>  (78) 
-12.378

>  <name>  (78) 
78

>  <ligand_id>  (78) 
78

>  <original_smiles>  (78) 
[H]c1c([H])c([H])c2c(c1[H])C([H])([H])C([H])([H])C([H])([H])C2([H])N([H])C(=O)C1([H])N(C(=O)C([H])(N([H])C(=O)C([H])(N([H])C([H])([H])[H])C([H])([H])[H])C(C([H])([H])[H])(C([H])([H])[H])C([H])([H])[H])C([H])([H])c2c([H])c(OC([H])([H])C3(c4c([H])c([H])c(OC([H])([H])[H])c([H])c4C([H])([H])N([H])C(=O)N4C([H])([H])C([H])([H])C([H])([H])C([H])(n5nc(-c6c([H])c([H])c(Oc7c([H])c([H])c(F)c([H])c7F)c([H])c6[H])c(C(=O)N([H])[H])c5N([H])[H])C4([H])[H])C([H])([H])C3([H])[H])c([H])c([H])c2C1([H])[H]

>  <smiles>  (78) 
[H]c1c([H])c([H])c2c(c1[H])C([H])([H])C([H])([H])C([H])([H])C2([H])N([H])C(=O)C1([H])N(C(=O)C([H])(N([H])C(=O)C([H])(N([H])C([H])([H])[H])C([H])([H])[H])C(C([H])([H])[H])(C([H])([H])[H])C([H])([H])[H])C([H])([H])c2c([H])c(OC([H])([H])C3(c4c([H])c([H])c(OC([H])([H])[H])c([H])c4C([H])([H])N([H])C(=O)N4C([H])([H])C([H])([H])C([H])([H])C([H])(n5nc(-c6c([H])c([H])c(Oc7c([H])c([H])c(F)c([H])c7F)c([H])c6[H])c(C(=O)N([H])[H])c5N([H])[H])C4([H])[H])C([H])([H])C3([H])[H])c([H])c([H])c2C1([H])[H]

$$$$
79:0:0
     RDKit          3D

 90 99  0  0  1  0  0  0  0  0999 V2000
  -27.9560  -22.5310   20.9530 C   0  0  0  0  0  2  0  0  0  0  0  0
  -28.9300  -21.8390   20.1330 C   0  0  0  0  0  0  0  0  0  0  0  0
  -29.5300  -22.8540   19.3060 C   0  0  0  0  0  0  0  0  0  0  0  0
  -28.3050  -24.7740   20.1250 C   0  0  0  0  0  0  0  0  0  0  0  0
  -30.6260  -22.4620   18.3340 C   0  0  0  0  0  1  0  0  0  0  0  0
  -27.6700  -23.9110   20.9590 N   0  0  0  0  0  0  0  0  0  0  0  0
  -29.2420  -24.2170   19.3250 N   0  0  0  0  0  0  0  0  0  0  0  0
  -29.3010  -18.9640   21.1800 C   0  0  0  0  0  2  0  0  0  0  0  0
  -29.3400  -18.9700   19.1550 C   0  0  0  0  0  2  0  0  0  0  0  0
  -29.4560  -20.2230   20.1760 C   0  0  0  0  0  3  0  0  0  0  0  0
  -30.0100  -17.9160   20.1740 C   0  0  0  0  0  3  0  0  0  0  0  0
  -30.4820  -15.1400   19.9800 C   0  0  0  0  0  0  0  0  0  0  0  0
  -30.3650  -12.7730   19.0290 C   0  0  0  0  0  2  0  0  0  0  0  0
  -29.3690  -12.6930   17.8480 C   0  0  0  0  0  2  0  0  0  0  0  0
  -27.9360  -12.4490   18.3570 C   0  0  0  0  0  2  0  0  0  0  0  0
  -27.5760  -13.3630   19.5580 C   0  0  0  0  0  3  0  0  0  0  0  0
  -28.6890  -13.4010   20.6250 C   0  0  0  0  0  2  0  0  0  0  0  0
  -29.9060  -13.8620   19.9450 N   0  0  0  0  0  0  0  0  0  0  0  0
  -31.6750  -15.2020   19.6600 O   0  0  0  0  0  0  0  0  0  0  0  0
  -29.6990  -16.3360   20.1770 N   0  0  0  0  0  0  0  0  0  0  0  0
  -28.7300  -16.1210   20.3690 H   0  0  0  0  0  0  0  0  0  0  0  0
  -25.2490  -13.9060   20.4620 C   0  0  0  0  0  0  0  0  0  0  0  0
  -24.2120  -13.1170   20.8730 C   0  0  0  0  0  0  0  0  0  0  0  0
  -24.6760  -11.7690   20.7730 C   0  0  0  0  0  0  0  0  0  0  0  0
  -26.2750  -13.0400   20.1300 N   0  0  0  0  0  0  0  0  0  0  0  0
  -25.9460  -11.7470   20.3850 N   0  0  0  0  0  0  0  0  0  0  0  0
  -23.9650  -10.4990   20.9670 C   0  0  0  0  0  0  0  0  0  0  0  0
  -24.4190   -9.5300   21.8900 C   0  0  0  0  0  3  0  0  0  0  0  0
  -23.7040   -8.3270   22.0730 C   0  0  0  0  0  3  0  0  0  0  0  0
  -22.5220   -8.0830   21.3350 C   0  0  0  0  0  0  0  0  0  0  0  0
  -22.0860   -9.0410   20.4040 C   0  0  0  0  0  3  0  0  0  0  0  0
  -22.8020  -10.2360   20.2170 C   0  0  0  0  0  3  0  0  0  0  0  0
  -21.7780   -6.9330   21.4290 O   0  0  0  0  0  0  0  0  0  0  0  0
  -21.7110   -6.2120   22.5940 C   0  0  0  0  0  0  0  0  0  0  0  0
  -21.2260   -6.7780   23.7940 C   0  0  0  0  0  3  0  0  0  0  0  0
  -21.1080   -5.9820   24.9510 C   0  0  0  0  0  3  0  0  0  0  0  0
  -21.4650   -4.6210   24.9080 C   0  0  0  0  0  0  0  0  0  0  0  0
  -21.9420   -4.0540   23.7140 C   0  0  0  0  0  3  0  0  0  0  0  0
  -22.0610   -4.8460   22.5590 C   0  0  0  0  0  0  0  0  0  0  0  0
  -22.5010   -4.2910   21.4040 F   0  0  0  0  0  0  0  0  0  0  0  0
  -21.3450   -3.8530   26.0170 F   0  0  0  0  0  0  0  0  0  0  0  0
  -22.8320  -13.5810   21.2360 C   0  0  0  0  0  0  0  0  0  0  0  0
  -22.1590  -12.8610   22.1250 N   0  0  0  0  0  0  0  0  0  0  0  0
  -22.3630  -14.6180   20.7680 O   0  0  0  0  0  0  0  0  0  0  0  0
  -22.5530  -12.0230   22.5240 H   0  0  0  0  0  0  0  0  0  0  0  0
  -21.2350  -13.1530   22.4120 H   0  0  0  0  0  0  0  0  0  0  0  0
  -25.3950  -15.2840   20.3150 N   0  0  0  0  0  0  0  0  0  0  0  0
  -24.6240  -15.9200   20.4840 H   0  0  0  0  0  0  0  0  0  0  0  0
  -26.2020  -15.7390   19.9070 H   0  0  0  0  0  0  0  0  0  0  0  0
  -28.2850  -26.2310   20.2330 O   0  0  0  0  0  0  0  0  0  0  0  0
  -24.6450  -31.9370   23.2890 C   0  0  0  0  0  0  0  0  0  0  0  0
  -27.1730  -27.1670   20.2500 C   0  0  0  0  0  0  0  0  0  0  0  0
  -23.4250  -30.5470   21.6580 C   0  0  0  0  0  3  0  0  0  0  0  0
  -24.8510  -28.9490   20.2270 C   0  0  0  0  0  0  0  0  0  0  0  0
  -25.9790  -30.7870   21.4780 C   0  0  0  0  0  2  0  0  0  0  0  0
  -26.0370  -29.3860   20.8300 C   0  0  0  0  0  0  0  0  0  0  0  0
  -27.1930  -28.5120   20.8190 C   0  0  0  0  0  3  0  0  0  0  0  0
  -25.9590  -26.8380   19.6070 C   0  0  0  0  0  3  0  0  0  0  0  0
  -24.8280  -27.6920   19.5990 C   0  0  0  0  0  3  0  0  0  0  0  0
  -23.6310  -29.8610   20.2800 C   0  0  0  0  0  2  0  0  0  0  0  0
  -24.7030  -31.1140   22.1960 N   0  0  0  0  0  0  0  0  0  0  0  0
  -23.5640  -32.2290   23.8250 O   0  0  0  0  0  0  0  0  0  0  0  0
  -22.7460  -29.5490   22.6290 C   0  0  0  0  0  0  0  0  0  0  0  0
  -21.4230  -29.3560   22.4850 N   0  0  0  0  0  0  0  0  0  0  0  0
  -23.4140  -28.9480   23.4740 O   0  0  0  0  0  0  0  0  0  0  0  0
  -20.9410  -29.8890   21.7740 H   0  0  0  0  0  0  0  0  0  0  0  0
  -18.0600  -28.0830   22.9350 C   0  0  0  0  0  0  0  0  0  0  0  0
  -20.6040  -28.4170   23.2560 C   0  0  0  0  0  3  0  0  0  0  0  0
  -20.7540  -26.9740   22.7180 C   0  0  0  0  0  2  0  0  0  0  0  0
  -19.6860  -26.6030   21.6840 C   0  0  0  0  0  2  0  0  0  0  0  0
  -18.2870  -26.7240   22.2920 C   0  0  0  0  0  2  0  0  0  0  0  0
  -19.1480  -28.8830   23.3730 C   0  0  0  0  0  0  0  0  0  0  0  0
  -18.8810  -30.1510   23.9340 C   0  0  0  0  0  3  0  0  0  0  0  0
  -17.5590  -30.6170   24.0630 C   0  0  0  0  0  3  0  0  0  0  0  0
  -16.4850  -29.8160   23.6400 C   0  0  0  0  0  3  0  0  0  0  0  0
  -16.7380  -28.5510   23.0800 C   0  0  0  0  0  3  0  0  0  0  0  0
  -25.9300  -32.5650   23.9090 C   0  0  0  0  0  3  0  0  0  0  0  0
  -26.4420  -31.7950   25.1900 C   0  0  1  0  0  0  0  0  0  0  0  0
  -25.3470  -31.5720   26.2590 C   0  0  0  0  0  1  0  0  0  0  0  0
  -27.0130  -30.4080   24.8100 C   0  0  0  0  0  1  0  0  0  0  0  0
  -27.5990  -32.5830   25.8480 C   0  0  0  0  0  1  0  0  0  0  0  0
  -25.6280  -33.9660   24.2440 N   0  0  0  0  0  0  0  0  0  0  0  0
  -25.9350  -35.0210   23.4760 C   0  0  0  0  0  0  0  0  0  0  0  0
  -26.5710  -34.9160   22.4240 O   0  0  0  0  0  0  0  0  0  0  0  0
  -25.0570  -34.1190   25.0620 H   0  0  0  0  0  0  0  0  0  0  0  0
  -24.1840  -36.8100   23.2000 C   0  0  0  0  0  1  0  0  0  0  0  0
  -25.4660  -36.4120   23.9480 C   0  0  0  0  0  3  0  0  0  0  0  0
  -27.6340  -37.3170   24.6710 C   0  0  0  0  0  1  0  0  0  0  0  0
  -26.4880  -37.4680   23.7760 N   0  0  0  0  0  0  0  0  0  0  0  0
  -26.0850  -38.3880   23.9310 H   0  0  0  0  0  0  0  0  0  0  0  0
  1  6  1  0
  2  1  1  0
  3  7  1  0
  3  2  2  0
  4 50  1  0
  4  6  2  0
  5  3  1  0
  7  4  2  0
  9 11  1  0
  9 10  1  0
 10  2  1  0
 10  8  1  0
 11 20  1  0
 11  8  1  0
 12 20  1  0
 13 18  1  0
 14 15  1  0
 14 13  1  0
 16 15  1  0
 16 25  1  0
 16 17  1  0
 18 12  1  0
 18 17  1  0
 19 12  2  0
 20 21  1  0
 22 23  2  0
 23 42  1  0
 24 23  1  0
 24 27  1  0
 25 26  1  0
 25 22  1  0
 26 24  2  0
 27 28  1  0
 28 29  2  0
 30 33  1  0
 30 29  1  0
 31 30  2  0
 32 31  1  0
 32 27  2  0
 33 34  1  0
 34 35  1  0
 35 36  2  0
 37 36  1  0
 37 41  1  0
 38 37  2  0
 39 34  2  0
 39 38  1  0
 40 39  1  0
 42 43  1  0
 43 46  1  0
 43 45  1  0
 44 42  2  0
 47 22  1  0
 47 48  1  0
 49 47  1  0
 50 52  1  0
 51 62  2  0
 52 57  1  0
 53 61  1  0
 53 63  1  0
 54 60  1  0
 54 56  1  0
 55 61  1  0
 56 55  1  0
 57 56  2  0
 58 52  2  0
 59 58  1  0
 59 54  2  0
 60 53  1  0
 61 51  1  0
 63 65  2  0
 64 63  1  0
 66 64  1  0
 67 76  2  0
 67 72  1  0
 68 64  1  0
 68 72  1  0
 69 68  1  0
 70 71  1  0
 70 69  1  0
 71 67  1  0
 72 73  2  0
 73 74  1  0
 75 74  2  0
 76 75  1  0
 77 51  1  0
 77 82  1  0
 77 78  1  0
 78 81  1  1
 78 79  1  0
 80 78  1  0
 82 85  1  0
 83 87  1  0
 83 82  1  0
 84 83  2  0
 87 86  1  0
 89 90  1  0
 89 87  1  0
 89 88  1  0
M  ISO  4   4 101  12 100  20 100  50 101
M  END
>  <TORSDO>  (79) 
F 17

>  <SCORE>  (79) 
-15.099

>  <name>  (79) 
79

>  <ligand_id>  (79) 
79

>  <original_smiles>  (79) 
[H]c1nc(Oc2c([H])c([H])c3c(c2[H])C([H])([H])N(C(=O)C([H])(N([H])C(=O)C([H])(N([H])C([H])([H])[H])C([H])([H])[H])C(C([H])([H])[H])(C([H])([H])[H])C([H])([H])[H])C([H])(C(=O)N([H])C2([H])c4c([H])c([H])c([H])c([H])c4C([H])([H])C([H])([H])C2([H])[H])C3([H])[H])nc(C([H])([H])[H])c1C1([H])C([H])([H])C([H])(N([H])C(=O)N2C([H])([H])C([H])([H])C([H])([H])C([H])(n3nc(-c4c([H])c([H])c(Oc5c([H])c([H])c(F)c([H])c5F)c([H])c4[H])c(C(=O)N([H])[H])c3N([H])[H])C2([H])[H])C1([H])[H]

>  <smiles>  (79) 
[H]c1nc(Oc2c([H])c([H])c3c(c2[H])C([H])([H])N(C(=O)C([H])(N([H])C(=O)C([H])(N([H])C([H])([H])[H])C([H])([H])[H])C(C([H])([H])[H])(C([H])([H])[H])C([H])([H])[H])C([H])(C(=O)N([H])C2([H])c4c([H])c([H])c([H])c([H])c4C([H])([H])C([H])([H])C2([H])[H])C3([H])[H])nc(C([H])([H])[H])c1C1([H])C([H])([H])C([H])(N([H])C(=O)N2C([H])([H])C([H])([H])C([H])([H])C([H])(n3nc(-c4c([H])c([H])c(Oc5c([H])c([H])c(F)c([H])c5F)c([H])c4[H])c(C(=O)N([H])[H])c3N([H])[H])C2([H])[H])C1([H])[H]

$$$$
80:0:0
     RDKit          3D

 93102  0  0  1  0  0  0  0  0999 V2000
  -30.6880  -15.1200   20.5270 C   0  0  0  0  0  0  0  0  0  0  0  0
  -30.4830  -12.8280   19.4470 C   0  0  0  0  0  2  0  0  0  0  0  0
  -29.5760  -12.8440   18.1980 C   0  0  0  0  0  2  0  0  0  0  0  0
  -28.1020  -12.6470   18.5970 C   0  0  0  0  0  2  0  0  0  0  0  0
  -27.6930  -13.5270   19.8070 C   0  0  0  0  0  3  0  0  0  0  0  0
  -28.7300  -13.4990   20.9470 C   0  0  0  0  0  2  0  0  0  0  0  0
  -30.0040  -13.9150   20.3510 N   0  0  0  0  0  0  0  0  0  0  0  0
  -31.9210  -15.0360   20.4550 O   0  0  0  0  0  0  0  0  0  0  0  0
  -28.0550  -20.7290   19.1890 C   0  0  0  0  0  2  0  0  0  0  0  0
  -27.5670  -19.3230   18.8310 C   0  0  0  0  0  2  0  0  0  0  0  0
  -29.7050  -17.7410   20.9630 C   0  0  0  0  0  2  0  0  0  0  0  0
  -30.5610  -16.9870   18.9620 C   0  0  0  0  0  2  0  0  0  0  0  0
  -30.0280  -19.1570   20.1170 C   0  0  0  0  0  3  0  0  0  0  0  0
  -29.9710  -18.4120   18.7420 C   0  0  0  0  0  3  0  0  0  0  0  0
  -29.4110  -20.7960   19.9400 C   0  0  1  0  0  0  0  0  0  0  0  0
  -28.5640  -18.4670   18.0130 C   0  0  1  0  0  0  0  0  0  0  0  0
  -30.4700  -21.4210   18.9770 C   0  0  0  0  0  1  0  0  0  0  0  0
  -27.8920  -17.0800   17.8770 C   0  0  0  0  0  1  0  0  0  0  0  0
  -30.0760  -16.3920   20.2170 N   0  0  0  0  0  0  0  0  0  0  0  0
  -25.2910  -14.1280   20.4390 C   0  0  0  0  0  0  0  0  0  0  0  0
  -24.2110  -13.3640   20.7800 C   0  0  0  0  0  0  0  0  0  0  0  0
  -24.6750  -12.0130   20.8090 C   0  0  0  0  0  0  0  0  0  0  0  0
  -26.3410  -13.2430   20.2680 N   0  0  0  0  0  0  0  0  0  0  0  0
  -25.9780  -11.9670   20.5600 N   0  0  0  0  0  0  0  0  0  0  0  0
  -23.9390  -10.7570   21.0000 C   0  0  0  0  0  0  0  0  0  0  0  0
  -24.3410   -9.8050   21.9630 C   0  0  0  0  0  3  0  0  0  0  0  0
  -23.6040   -8.6130   22.1420 C   0  0  0  0  0  3  0  0  0  0  0  0
  -22.4520   -8.3670   21.3570 C   0  0  0  0  0  0  0  0  0  0  0  0
  -22.0700   -9.3070   20.3850 C   0  0  0  0  0  3  0  0  0  0  0  0
  -22.8070  -10.4890   20.2040 C   0  0  0  0  0  3  0  0  0  0  0  0
  -21.6900   -7.2270   21.4450 O   0  0  0  0  0  0  0  0  0  0  0  0
  -21.6280   -6.4890   22.6000 C   0  0  0  0  0  0  0  0  0  0  0  0
  -21.2150   -7.0570   23.8250 C   0  0  0  0  0  3  0  0  0  0  0  0
  -21.0990   -6.2470   24.9730 C   0  0  0  0  0  3  0  0  0  0  0  0
  -21.3840   -4.8700   24.8960 C   0  0  0  0  0  0  0  0  0  0  0  0
  -21.7890   -4.3020   23.6750 C   0  0  0  0  0  3  0  0  0  0  0  0
  -21.9070   -5.1090   22.5290 C   0  0  0  0  0  0  0  0  0  0  0  0
  -22.2780   -4.5530   21.3510 F   0  0  0  0  0  0  0  0  0  0  0  0
  -21.2650   -4.0900   25.9950 F   0  0  0  0  0  0  0  0  0  0  0  0
  -22.8030  -13.8490   20.9710 C   0  0  0  0  0  0  0  0  0  0  0  0
  -22.0400  -13.1900   21.8340 N   0  0  0  0  0  0  0  0  0  0  0  0
  -22.3880  -14.8490   20.3870 O   0  0  0  0  0  0  0  0  0  0  0  0
  -22.3890  -12.3810   22.3280 H   0  0  0  0  0  0  0  0  0  0  0  0
  -21.0940  -13.4990   22.0050 H   0  0  0  0  0  0  0  0  0  0  0  0
  -25.4650  -15.4940   20.2350 N   0  0  0  0  0  0  0  0  0  0  0  0
  -24.6970  -16.1520   20.2950 H   0  0  0  0  0  0  0  0  0  0  0  0
  -26.3350  -15.9230   19.9480 H   0  0  0  0  0  0  0  0  0  0  0  0
  -29.2340  -22.0930   20.9680 C   0  0  0  0  0  3  0  0  0  0  0  0
  -28.8950  -23.4540   20.6470 C   0  0  0  0  0  3  0  0  0  0  0  0
  -28.5490  -24.8230   21.5090 C   0  0  0  0  0  2  0  0  0  0  0  0
  -28.7630  -26.3110   21.0670 O   0  0  0  0  0  0  0  0  0  0  0  0
  -24.7110  -32.0270   23.4910 C   0  0  0  0  0  0  0  0  0  0  0  0
  -27.6720  -27.2510   20.9400 C   0  0  0  0  0  0  0  0  0  0  0  0
  -23.6900  -30.5000   21.8480 C   0  0  0  0  0  3  0  0  0  0  0  0
  -25.2950  -28.9030   20.6300 C   0  0  0  0  0  0  0  0  0  0  0  0
  -26.2380  -30.8540   21.8570 C   0  0  0  0  0  2  0  0  0  0  0  0
  -26.4110  -29.4310   21.2950 C   0  0  0  0  0  0  0  0  0  0  0  0
  -27.6040  -28.6210   21.4250 C   0  0  0  0  0  3  0  0  0  0  0  0
  -26.5290  -26.8210   20.2370 C   0  0  0  0  0  3  0  0  0  0  0  0
  -25.3690  -27.6130   20.0840 C   0  0  0  0  0  3  0  0  0  0  0  0
  -24.0390  -29.7560   20.5310 C   0  0  0  0  0  2  0  0  0  0  0  0
  -24.8950  -31.1540   22.4540 N   0  0  0  0  0  0  0  0  0  0  0  0
  -23.5790  -32.2960   23.9200 O   0  0  0  0  0  0  0  0  0  0  0  0
  -22.9740  -29.5220   22.8130 C   0  0  0  0  0  0  0  0  0  0  0  0
  -21.6650  -29.2950   22.5980 N   0  0  0  0  0  0  0  0  0  0  0  0
  -23.6010  -28.9660   23.7180 O   0  0  0  0  0  0  0  0  0  0  0  0
  -21.2150  -29.7950   21.8450 H   0  0  0  0  0  0  0  0  0  0  0  0
  -18.2980  -27.9950   22.9160 C   0  0  0  0  0  0  0  0  0  0  0  0
  -20.8190  -28.3700   23.3570 C   0  0  0  0  0  3  0  0  0  0  0  0
  -21.0130  -26.9140   22.8730 C   0  0  0  0  0  2  0  0  0  0  0  0
  -20.0030  -26.4950   21.7990 C   0  0  0  0  0  2  0  0  0  0  0  0
  -18.5730  -26.6200   22.3300 C   0  0  0  0  0  2  0  0  0  0  0  0
  -19.3530  -28.8220   23.3840 C   0  0  0  0  0  0  0  0  0  0  0  0
  -19.0450  -30.1040   23.8900 C   0  0  0  0  0  3  0  0  0  0  0  0
  -17.7140  -30.5590   23.9340 C   0  0  0  0  0  3  0  0  0  0  0  0
  -16.6720  -29.7310   23.4820 C   0  0  0  0  0  3  0  0  0  0  0  0
  -16.9640  -28.4500   22.9790 C   0  0  0  0  0  3  0  0  0  0  0  0
  -25.9140  -32.7440   24.1760 C   0  0  0  0  0  3  0  0  0  0  0  0
  -25.5380  -34.1520   24.3840 N   0  0  0  0  0  0  0  0  0  0  0  0
  -25.8940  -35.1660   23.5840 C   0  0  0  0  0  0  0  0  0  0  0  0
  -26.6390  -35.0180   22.6110 O   0  0  0  0  0  0  0  0  0  0  0  0
  -24.8820  -34.3380   25.1290 H   0  0  0  0  0  0  0  0  0  0  0  0
  -24.1420  -36.8760   22.9970 C   0  0  0  0  0  1  0  0  0  0  0  0
  -25.3370  -36.5650   23.9130 C   0  0  0  0  0  3  0  0  0  0  0  0
  -27.3860  -37.5740   24.8170 C   0  0  0  0  0  1  0  0  0  0  0  0
  -26.3450  -37.6430   23.7960 N   0  0  0  0  0  0  0  0  0  0  0  0
  -25.9040  -38.5570   23.8520 H   0  0  0  0  0  0  0  0  0  0  0  0
  -26.3330  -32.0810   25.5460 C   0  0  1  0  0  0  0  0  0  0  0  0
  -25.1520  -31.8610   26.5190 C   0  0  0  0  0  1  0  0  0  0  0  0
  -27.0070  -30.7090   25.3100 C   0  0  0  0  0  1  0  0  0  0  0  0
  -27.3810  -32.9690   26.2590 C   0  0  0  0  0  1  0  0  0  0  0  0
  -27.5230  -19.1660   15.6840 C   0  0  0  0  0  1  0  0  0  0  0  0
  -28.7690  -19.0440   16.5780 C   0  0  0  0  0  2  0  0  0  0  0  0
  2  7  1  0
  3  4  1  0
  3  2  1  0
  5  4  1  0
  5 23  1  0
  5  6  1  0
  7  1  1  0
  7  6  1  0
  8  1  2  0
  9 15  1  0
 10  9  1  0
 12 19  1  0
 13 11  1  0
 14 12  1  0
 14 13  1  0
 15 17  1  6
 15 13  1  0
 15 48  1  0
 16 18  1  6
 16 14  1  0
 16 10  1  0
 19  1  1  0
 19 11  1  0
 20 21  2  0
 21 22  1  0
 21 40  1  0
 22 25  1  0
 23 20  1  0
 23 24  1  0
 24 22  2  0
 25 26  1  0
 26 27  2  0
 28 31  1  0
 28 27  1  0
 29 28  2  0
 30 29  1  0
 30 25  2  0
 31 32  1  0
 32 33  1  0
 33 34  2  0
 35 34  1  0
 35 39  1  0
 36 35  2  0
 37 32  2  0
 37 36  1  0
 38 37  1  0
 40 41  1  0
 41 44  1  0
 41 43  1  0
 42 40  2  0
 45 46  1  0
 45 20  1  0
 47 45  1  0
 49 48  2  0
 49 50  1  0
 51 50  1  0
 52 63  2  0
 53 51  1  0
 53 58  1  0
 54 62  1  0
 54 64  1  0
 55 57  1  0
 56 62  1  0
 57 58  2  0
 57 56  1  0
 59 53  2  0
 60 59  1  0
 60 55  2  0
 61 55  1  0
 61 54  1  0
 62 52  1  0
 64 66  2  0
 65 64  1  0
 67 65  1  0
 68 77  2  0
 68 73  1  0
 69 65  1  0
 69 73  1  0
 70 69  1  0
 71 72  1  0
 71 70  1  0
 72 68  1  0
 73 74  2  0
 74 75  1  0
 76 75  2  0
 77 76  1  0
 78 52  1  0
 78 79  1  0
 78 88  1  0
 79 82  1  0
 80 84  1  0
 80 79  1  0
 81 80  2  0
 84 83  1  0
 86 87  1  0
 86 84  1  0
 86 85  1  0
 88 91  1  1
 88 89  1  0
 90 88  1  0
 92 93  1  0
 93 16  1  0
M  ISO  4   1 100  19 100  50 101  51 101
M  END
>  <TORSDO>  (80) 
F 18

>  <SCORE>  (80) 
-13.441

>  <name>  (80) 
80

>  <ligand_id>  (80) 
80

>  <original_smiles>  (80) 
[H]C(=C([H])C1(C([H])([H])[H])C([H])([H])C([H])([H])C(C([H])([H])[H])(C([H])([H])C([H])([H])[H])C2([H])C([H])([H])N(C(=O)N3C([H])([H])C([H])([H])C([H])([H])C([H])(n4nc(-c5c([H])c([H])c(Oc6c([H])c([H])c(F)c([H])c6F)c([H])c5[H])c(C(=O)N([H])[H])c4N([H])[H])C3([H])[H])C([H])([H])C21[H])C([H])([H])Oc1c([H])c([H])c2c(c1[H])C([H])([H])N(C(=O)C([H])(N([H])C(=O)C([H])(N([H])C([H])([H])[H])C([H])([H])[H])C(C([H])([H])[H])(C([H])([H])[H])C([H])([H])[H])C([H])(C(=O)N([H])C1([H])c3c([H])c([H])c([H])c([H])c3C([H])([H])C([H])([H])C1([H])[H])C2([H])[H]

>  <smiles>  (80) 
[H]C(=C([H])C1(C([H])([H])[H])C([H])([H])C([H])([H])C(C([H])([H])[H])(C([H])([H])C([H])([H])[H])C2([H])C([H])([H])N(C(=O)N3C([H])([H])C([H])([H])C([H])([H])C([H])(n4nc(-c5c([H])c([H])c(Oc6c([H])c([H])c(F)c([H])c6F)c([H])c5[H])c(C(=O)N([H])[H])c4N([H])[H])C3([H])[H])C([H])([H])C21[H])C([H])([H])Oc1c([H])c([H])c2c(c1[H])C([H])([H])N(C(=O)C([H])(N([H])C(=O)C([H])(N([H])C([H])([H])[H])C([H])([H])[H])C(C([H])([H])[H])(C([H])([H])[H])C([H])([H])[H])C([H])(C(=O)N([H])C1([H])c3c([H])c([H])c([H])c([H])c3C([H])([H])C([H])([H])C1([H])[H])C2([H])[H]

$$$$
81:0:0
     RDKit          3D

 93102  0  0  1  0  0  0  0  0999 V2000
  -27.8670  -22.1700   19.5360 C   0  0  0  0  0  3  0  0  0  0  0  0
  -28.1490  -20.7480   19.6370 C   0  0  0  0  0  0  0  0  0  0  0  0
  -28.6680  -23.2200   20.0880 C   0  0  0  0  0  0  0  0  0  0  0  0
  -29.3060  -20.2600   20.3510 C   0  0  0  0  0  0  0  0  0  0  0  0
  -29.8060  -22.6380   20.7450 C   0  0  0  0  0  0  0  0  0  0  0  0
  -30.8600  -23.5530   21.3300 C   0  0  0  0  0  1  0  0  0  0  0  0
  -30.0850  -21.2710   20.8780 N   0  0  0  0  0  0  0  0  0  0  0  0
  -30.7950  -14.8840   20.0930 C   0  0  0  0  0  0  0  0  0  0  0  0
  -30.5190  -12.5890   19.0710 C   0  0  0  0  0  2  0  0  0  0  0  0
  -29.5290  -12.6090   17.8870 C   0  0  0  0  0  2  0  0  0  0  0  0
  -28.0820  -12.4260   18.3800 C   0  0  0  0  0  2  0  0  0  0  0  0
  -27.7590  -13.3120   19.6130 C   0  0  0  0  0  3  0  0  0  0  0  0
  -28.8700  -13.2760   20.6850 C   0  0  0  0  0  2  0  0  0  0  0  0
  -30.1240  -13.6650   20.0280 N   0  0  0  0  0  0  0  0  0  0  0  0
  -31.9500  -14.9070   19.6500 O   0  0  0  0  0  0  0  0  0  0  0  0
  -30.9680  -18.3540   21.4190 C   0  0  0  0  0  2  0  0  0  0  0  0
  -30.9670  -16.8060   21.6640 C   0  0  0  0  0  2  0  0  0  0  0  0
  -29.5890  -17.2960   19.8690 C   0  0  0  0  0  2  0  0  0  0  0  0
  -29.6320  -18.6770   20.7520 C   0  0  0  0  0  3  0  0  0  0  0  0
  -30.2200  -16.0850   20.6020 N   0  0  0  0  0  0  0  0  0  0  0  0
  -25.4230  -13.8860   20.4850 C   0  0  0  0  0  0  0  0  0  0  0  0
  -24.3690  -13.1080   20.8790 C   0  0  0  0  0  0  0  0  0  0  0  0
  -24.8150  -11.7560   20.7770 C   0  0  0  0  0  0  0  0  0  0  0  0
  -26.4430  -13.0070   20.1670 N   0  0  0  0  0  0  0  0  0  0  0  0
  -26.0890  -11.7170   20.4060 N   0  0  0  0  0  0  0  0  0  0  0  0
  -24.0820  -10.4960   20.9580 C   0  0  0  0  0  0  0  0  0  0  0  0
  -24.4840   -9.5340   21.9110 C   0  0  0  0  0  3  0  0  0  0  0  0
  -23.7480   -8.3420   22.0810 C   0  0  0  0  0  3  0  0  0  0  0  0
  -22.5930   -8.1040   21.2970 C   0  0  0  0  0  0  0  0  0  0  0  0
  -22.2110   -9.0530   20.3340 C   0  0  0  0  0  3  0  0  0  0  0  0
  -22.9480  -10.2360   20.1620 C   0  0  0  0  0  3  0  0  0  0  0  0
  -21.8300   -6.9640   21.3770 O   0  0  0  0  0  0  0  0  0  0  0  0
  -21.6650   -6.2870   22.5590 C   0  0  0  0  0  0  0  0  0  0  0  0
  -21.0800   -6.8950   23.6910 C   0  0  0  0  0  3  0  0  0  0  0  0
  -20.8660   -6.1410   24.8620 C   0  0  0  0  0  3  0  0  0  0  0  0
  -21.2290   -4.7820   24.9030 C   0  0  0  0  0  0  0  0  0  0  0  0
  -21.8070   -4.1730   23.7740 C   0  0  0  0  0  3  0  0  0  0  0  0
  -22.0220   -4.9230   22.6050 C   0  0  0  0  0  0  0  0  0  0  0  0
  -22.5590   -4.3260   21.5130 F   0  0  0  0  0  0  0  0  0  0  0  0
  -21.0160   -4.0550   26.0250 F   0  0  0  0  0  0  0  0  0  0  0  0
  -22.9930  -13.5920   21.2340 C   0  0  0  0  0  0  0  0  0  0  0  0
  -22.3040  -12.8750   22.1160 N   0  0  0  0  0  0  0  0  0  0  0  0
  -22.5430  -14.6380   20.7700 O   0  0  0  0  0  0  0  0  0  0  0  0
  -22.6860  -12.0330   22.5190 H   0  0  0  0  0  0  0  0  0  0  0  0
  -21.3810  -13.1750   22.3900 H   0  0  0  0  0  0  0  0  0  0  0  0
  -25.5890  -15.2600   20.3480 N   0  0  0  0  0  0  0  0  0  0  0  0
  -24.8240  -15.9060   20.5110 H   0  0  0  0  0  0  0  0  0  0  0  0
  -26.4240  -15.7160   20.0020 H   0  0  0  0  0  0  0  0  0  0  0  0
  -26.8000  -18.5220   19.6340 C   0  0  0  0  0  1  0  0  0  0  0  0
  -27.5720  -19.5940   17.4370 C   0  0  0  0  0  1  0  0  0  0  0  0
  -27.1650  -19.8240   18.9000 C   0  0  0  0  0  3  0  0  0  0  0  0
  -28.4510  -24.8010   19.6380 C   0  0  0  0  0  2  0  0  0  0  0  0
  -28.2810  -26.0980   20.4800 O   0  0  0  0  0  0  0  0  0  0  0  0
  -24.6060  -31.8790   23.1900 C   0  0  0  0  0  0  0  0  0  0  0  0
  -27.2320  -27.0790   20.3170 C   0  0  0  0  0  0  0  0  0  0  0  0
  -23.4360  -30.4390   21.5680 C   0  0  0  0  0  3  0  0  0  0  0  0
  -24.9070  -28.8300   20.2080 C   0  0  0  0  0  0  0  0  0  0  0  0
  -25.9950  -30.6950   21.4430 C   0  0  0  0  0  2  0  0  0  0  0  0
  -26.0750  -29.2850   20.8290 C   0  0  0  0  0  0  0  0  0  0  0  0
  -27.2350  -28.4240   20.8710 C   0  0  0  0  0  3  0  0  0  0  0  0
  -26.0310  -26.7270   19.6580 C   0  0  0  0  0  3  0  0  0  0  0  0
  -24.8990  -27.5660   19.6070 C   0  0  0  0  0  3  0  0  0  0  0  0
  -23.6810  -29.7300   20.2110 C   0  0  0  0  0  2  0  0  0  0  0  0
  -24.6990  -31.0270   22.1210 N   0  0  0  0  0  0  0  0  0  0  0  0
  -23.5110  -32.1770   23.6890 O   0  0  0  0  0  0  0  0  0  0  0  0
  -22.7360  -29.4600   22.5450 C   0  0  0  0  0  0  0  0  0  0  0  0
  -21.4070  -29.3000   22.4140 N   0  0  0  0  0  0  0  0  0  0  0  0
  -23.3980  -28.8410   23.3850 O   0  0  0  0  0  0  0  0  0  0  0  0
  -20.9330  -29.8490   21.7120 H   0  0  0  0  0  0  0  0  0  0  0  0
  -18.0030  -28.1900   22.9600 C   0  0  0  0  0  0  0  0  0  0  0  0
  -20.5710  -28.3880   23.2000 C   0  0  0  0  0  3  0  0  0  0  0  0
  -20.6280  -26.9480   22.6430 C   0  0  0  0  0  2  0  0  0  0  0  0
  -19.5140  -26.6530   21.6310 C   0  0  0  0  0  2  0  0  0  0  0  0
  -18.1380  -26.8360   22.2820 C   0  0  0  0  0  2  0  0  0  0  0  0
  -19.1450  -28.9250   23.3760 C   0  0  0  0  0  0  0  0  0  0  0  0
  -18.9640  -30.1920   23.9690 C   0  0  0  0  0  3  0  0  0  0  0  0
  -17.6750  -30.7260   24.1500 C   0  0  0  0  0  3  0  0  0  0  0  0
  -16.5460  -29.9880   23.7480 C   0  0  0  0  0  3  0  0  0  0  0  0
  -16.7130  -28.7230   23.1600 C   0  0  0  0  0  3  0  0  0  0  0  0
  -25.8730  -32.5330   23.8210 C   0  0  0  0  0  3  0  0  0  0  0  0
  -25.5350  -33.9260   24.1560 N   0  0  0  0  0  0  0  0  0  0  0  0
  -25.8480  -34.9910   23.4050 C   0  0  0  0  0  0  0  0  0  0  0  0
  -26.5180  -34.9020   22.3720 O   0  0  0  0  0  0  0  0  0  0  0  0
  -24.9380  -34.0670   24.9590 H   0  0  0  0  0  0  0  0  0  0  0  0
  -24.0890  -36.7610   23.0700 C   0  0  0  0  0  1  0  0  0  0  0  0
  -25.3410  -36.3700   23.8710 C   0  0  0  0  0  3  0  0  0  0  0  0
  -27.4630  -37.2940   24.7000 C   0  0  0  0  0  1  0  0  0  0  0  0
  -26.3580  -37.4400   23.7560 N   0  0  0  0  0  0  0  0  0  0  0  0
  -25.9360  -38.3540   23.8950 H   0  0  0  0  0  0  0  0  0  0  0  0
  -26.3880  -31.7710   25.1030 C   0  0  1  0  0  0  0  0  0  0  0  0
  -25.2850  -31.4950   26.1510 C   0  0  0  0  0  1  0  0  0  0  0  0
  -27.0220  -30.4140   24.7180 C   0  0  0  0  0  1  0  0  0  0  0  0
  -27.5010  -32.5980   25.7900 C   0  0  0  0  0  1  0  0  0  0  0  0
  1  2  2  0
  1  3  1  0
  2  4  1  0
  3  5  2  0
  4  7  2  0
  5  7  1  0
  5  6  1  0
  8 20  1  0
  9 14  1  0
 10 11  1  0
 10  9  1  0
 12 11  1  0
 12 24  1  0
 12 13  1  0
 14  8  1  0
 14 13  1  0
 15  8  2  0
 16 17  1  0
 18 20  1  0
 18 19  1  0
 19  4  1  0
 19 16  1  0
 20 17  1  0
 21 22  2  0
 22 41  1  0
 23 22  1  0
 23 26  1  0
 24 25  1  0
 24 21  1  0
 25 23  2  0
 26 27  1  0
 27 28  2  0
 29 32  1  0
 29 28  1  0
 30 29  2  0
 31 30  1  0
 31 26  2  0
 32 33  1  0
 33 38  2  0
 33 34  1  0
 34 35  2  0
 35 36  1  0
 36 40  1  0
 37 36  2  0
 38 37  1  0
 39 38  1  0
 41 42  1  0
 42 45  1  0
 42 44  1  0
 43 41  2  0
 46 21  1  0
 46 47  1  0
 48 46  1  0
 50 51  1  0
 51 49  1  0
 51  2  1  0
 52  3  1  0
 52 53  1  0
 54 65  2  0
 55 53  1  0
 55 60  1  0
 56 64  1  0
 56 66  1  0
 57 63  1  0
 57 59  1  0
 58 64  1  0
 59 60  2  0
 59 58  1  0
 61 55  2  0
 62 61  1  0
 62 57  2  0
 63 56  1  0
 64 54  1  0
 66 68  2  0
 67 66  1  0
 69 67  1  0
 70 79  2  0
 70 75  1  0
 71 67  1  0
 71 75  1  0
 72 71  1  0
 73 74  1  0
 73 72  1  0
 74 70  1  0
 75 76  2  0
 76 77  1  0
 78 77  2  0
 79 78  1  0
 80 54  1  0
 80 81  1  0
 80 90  1  0
 81 84  1  0
 82 86  1  0
 82 81  1  0
 83 82  2  0
 86 85  1  0
 88 86  1  0
 88 89  1  0
 88 87  1  0
 90 93  1  1
 90 91  1  0
 92 90  1  0
M  ISO  4   8 100  20 100  52 101  53 101
M  END
>  <TORSDO>  (81) 
F 18

>  <SCORE>  (81) 
-14.892

>  <name>  (81) 
81

>  <ligand_id>  (81) 
81

>  <original_smiles>  (81) 
[H]c1c([H])c([H])c2c(c1[H])C([H])([H])C([H])([H])C([H])([H])C2([H])N([H])C(=O)C1([H])N(C(=O)C([H])(N([H])C(=O)C([H])(N([H])C([H])([H])[H])C([H])([H])[H])C(C([H])([H])[H])(C([H])([H])[H])C([H])([H])[H])C([H])([H])c2c([H])c(OC([H])([H])c3c(C([H])([H])[H])nc(C4([H])C([H])([H])N(C(=O)N5C([H])([H])C([H])([H])C([H])([H])C([H])(n6nc(-c7c([H])c([H])c(Oc8c([H])c([H])c(F)c([H])c8F)c([H])c7[H])c(C(=O)N([H])[H])c6N([H])[H])C5([H])[H])C([H])([H])C4([H])[H])c(C([H])(C([H])([H])[H])C([H])([H])[H])c3[H])c([H])c([H])c2C1([H])[H]

>  <smiles>  (81) 
[H]c1c([H])c([H])c2c(c1[H])C([H])([H])C([H])([H])C([H])([H])C2([H])N([H])C(=O)C1([H])N(C(=O)C([H])(N([H])C(=O)C([H])(N([H])C([H])([H])[H])C([H])([H])[H])C(C([H])([H])[H])(C([H])([H])[H])C([H])([H])[H])C([H])([H])c2c([H])c(OC([H])([H])c3c(C([H])([H])[H])nc(C4([H])C([H])([H])N(C(=O)N5C([H])([H])C([H])([H])C([H])([H])C([H])(n6nc(-c7c([H])c([H])c(Oc8c([H])c([H])c(F)c([H])c8F)c([H])c7[H])c(C(=O)N([H])[H])c6N([H])[H])C5([H])[H])C([H])([H])C4([H])[H])c(C([H])(C([H])([H])[H])C([H])([H])[H])c3[H])c([H])c([H])c2C1([H])[H]

$$$$
82:0:0
     RDKit          3D

 93102  0  0  1  0  0  0  0  0999 V2000
  -30.9510  -15.0150   20.3670 C   0  0  0  0  0  0  0  0  0  0  0  0
  -28.4650  -15.0230   20.8400 C   0  0  0  0  0  2  0  0  0  0  0  0
  -27.7130  -15.5920   19.6120 C   0  0  0  0  0  2  0  0  0  0  0  0
  -27.6530  -17.1310   19.6630 C   0  0  0  0  0  2  0  0  0  0  0  0
  -29.0260  -17.7630   20.0080 C   0  0  0  0  0  3  0  0  0  0  0  0
  -29.6820  -17.0650   21.2190 C   0  0  0  0  0  2  0  0  0  0  0  0
  -29.8180  -15.6400   20.8770 N   0  0  0  0  0  0  0  0  0  0  0  0
  -30.9680  -13.7780   20.3430 O   0  0  0  0  0  0  0  0  0  0  0  0
  -33.9790  -16.9000   18.7890 C   0  0  0  0  0  3  0  0  0  0  0  0
  -35.1490  -16.9700   17.9570 C   0  0  0  0  0  0  0  0  0  0  0  0
  -35.5820  -15.9180   17.1330 C   0  0  0  0  0  0  0  0  0  0  0  0
  -34.7390  -14.7620   17.2620 C   0  0  0  0  0  0  0  0  0  0  0  0
  -33.1590  -15.7320   18.8780 C   0  0  0  0  0  0  0  0  0  0  0  0
  -37.1240  -17.7540   16.7760 C   0  0  0  0  0  2  0  0  0  0  0  0
  -37.0410  -16.2370   16.4730 C   0  0  0  0  0  3  0  0  0  0  0  0
  -36.1650  -18.0970   17.9570 C   0  0  1  0  0  0  0  0  0  0  0  0
  -35.0910  -13.4790   16.5400 C   0  0  0  0  0  1  0  0  0  0  0  0
  -35.5170  -19.4830   17.7720 C   0  0  0  0  0  1  0  0  0  0  0  0
  -36.9440  -18.0630   19.2830 C   0  0  0  0  0  1  0  0  0  0  0  0
  -33.5960  -14.6920   18.0760 N   0  0  0  0  0  0  0  0  0  0  0  0
  -31.9490  -15.8270   19.7940 N   0  0  0  0  0  0  0  0  0  0  0  0
  -31.7710  -16.7830   20.0530 H   0  0  0  0  0  0  0  0  0  0  0  0
  -29.7590  -20.0430   20.9190 C   0  0  0  0  0  0  0  0  0  0  0  0
  -29.2980  -21.3120   20.7000 C   0  0  0  0  0  0  0  0  0  0  0  0
  -28.1810  -21.1810   19.8200 C   0  0  0  0  0  0  0  0  0  0  0  0
  -28.9330  -19.2070   20.1870 N   0  0  0  0  0  0  0  0  0  0  0  0
  -27.9390  -19.8990   19.5710 N   0  0  0  0  0  0  0  0  0  0  0  0
  -27.3660  -22.2050   19.1520 C   0  0  0  0  0  0  0  0  0  0  0  0
  -25.9640  -22.2570   19.3170 C   0  0  0  0  0  3  0  0  0  0  0  0
  -25.2060  -23.2640   18.6820 C   0  0  0  0  0  3  0  0  0  0  0  0
  -25.8490  -24.2330   17.8750 C   0  0  0  0  0  0  0  0  0  0  0  0
  -27.2410  -24.1630   17.6950 C   0  0  0  0  0  3  0  0  0  0  0  0
  -27.9930  -23.1570   18.3240 C   0  0  0  0  0  3  0  0  0  0  0  0
  -25.1910  -25.2310   17.1980 O   0  0  0  0  0  0  0  0  0  0  0  0
  -23.9960  -25.7380   17.6450 C   0  0  0  0  0  0  0  0  0  0  0  0
  -23.8110  -26.1420   18.9840 C   0  0  0  0  0  3  0  0  0  0  0  0
  -22.5890  -26.7200   19.3840 C   0  0  0  0  0  3  0  0  0  0  0  0
  -21.5570  -26.9020   18.4450 C   0  0  0  0  0  0  0  0  0  0  0  0
  -21.7400  -26.5030   17.1090 C   0  0  0  0  0  3  0  0  0  0  0  0
  -22.9580  -25.9260   16.7100 C   0  0  0  0  0  0  0  0  0  0  0  0
  -23.1380  -25.5630   15.4170 F   0  0  0  0  0  0  0  0  0  0  0  0
  -20.3870  -27.4650   18.8250 F   0  0  0  0  0  0  0  0  0  0  0  0
  -29.9220  -22.5850   21.1970 C   0  0  0  0  0  0  0  0  0  0  0  0
  -29.1050  -23.5460   21.6120 N   0  0  0  0  0  0  0  0  0  0  0  0
  -31.1440  -22.7160   21.2630 O   0  0  0  0  0  0  0  0  0  0  0  0
  -28.1030  -23.4330   21.5740 H   0  0  0  0  0  0  0  0  0  0  0  0
  -29.4880  -24.4070   21.9740 H   0  0  0  0  0  0  0  0  0  0  0  0
  -30.8230  -19.5310   21.6560 N   0  0  0  0  0  0  0  0  0  0  0  0
  -31.4760  -20.1390   22.1390 H   0  0  0  0  0  0  0  0  0  0  0  0
  -31.1270  -18.5670   21.6300 H   0  0  0  0  0  0  0  0  0  0  0  0
  -37.6870  -15.9250   14.9700 C   0  0  0  0  0  3  0  0  0  0  0  0
  -38.3990  -17.1420   14.0660 C   0  0  0  0  0  3  0  0  0  0  0  0
  -39.2040  -17.0500   12.7560 O   0  0  0  0  0  0  0  0  0  0  0  0
  -38.9480  -22.7760    8.1450 C   0  0  0  0  0  0  0  0  0  0  0  0
  -38.7390  -17.6760   11.5540 C   0  0  0  0  0  0  0  0  0  0  0  0
  -37.1430  -21.1050    7.9900 C   0  0  0  0  0  3  0  0  0  0  0  0
  -37.5560  -18.8810    9.2030 C   0  0  0  0  0  0  0  0  0  0  0  0
  -39.4830  -20.4020    8.7840 C   0  0  0  0  0  2  0  0  0  0  0  0
  -38.8330  -19.2870    9.6140 C   0  0  0  0  0  0  0  0  0  0  0  0
  -39.4360  -18.6710   10.7690 C   0  0  0  0  0  3  0  0  0  0  0  0
  -37.4850  -17.2760   11.0490 C   0  0  0  0  0  3  0  0  0  0  0  0
  -36.8960  -17.8630    9.9090 C   0  0  0  0  0  3  0  0  0  0  0  0
  -36.9370  -19.5660    7.9970 C   0  0  0  0  0  2  0  0  0  0  0  0
  -38.5540  -21.4790    8.3230 N   0  0  0  0  0  0  0  0  0  0  0  0
  -38.1700  -23.6340    7.6990 O   0  0  0  0  0  0  0  0  0  0  0  0
  -36.0980  -21.7620    8.9260 C   0  0  0  0  0  0  0  0  0  0  0  0
  -34.8540  -21.9180    8.4400 N   0  0  0  0  0  0  0  0  0  0  0  0
  -36.4100  -22.0970   10.0710 O   0  0  0  0  0  0  0  0  0  0  0  0
  -34.6780  -21.6350    7.4880 H   0  0  0  0  0  0  0  0  0  0  0  0
  -31.3490  -22.7820    8.1600 C   0  0  0  0  0  0  0  0  0  0  0  0
  -33.7090  -22.4670    9.1710 C   0  0  0  0  0  3  0  0  0  0  0  0
  -33.0620  -21.3990   10.0820 C   0  0  0  0  0  2  0  0  0  0  0  0
  -31.9060  -20.6510    9.4080 C   0  0  0  0  0  2  0  0  0  0  0  0
  -30.8060  -21.6320    8.9900 C   0  0  0  0  0  2  0  0  0  0  0  0
  -32.7150  -23.1640    8.2320 C   0  0  0  0  0  0  0  0  0  0  0  0
  -33.1750  -24.2180    7.4130 C   0  0  0  0  0  3  0  0  0  0  0  0
  -32.2980  -24.8870    6.5380 C   0  0  0  0  0  3  0  0  0  0  0  0
  -30.9430  -24.5140    6.4810 C   0  0  0  0  0  3  0  0  0  0  0  0
  -30.4710  -23.4670    7.2940 C   0  0  0  0  0  3  0  0  0  0  0  0
  -40.3990  -23.2400    8.4780 C   0  0  0  0  0  3  0  0  0  0  0  0
  -40.8500  -24.1140    7.3850 N   0  0  0  0  0  0  0  0  0  0  0  0
  -41.6260  -23.7220    6.3650 C   0  0  0  0  0  0  0  0  0  0  0  0
  -42.0930  -22.5830    6.2810 O   0  0  0  0  0  0  0  0  0  0  0  0
  -40.4650  -25.0450    7.3640 H   0  0  0  0  0  0  0  0  0  0  0  0
  -41.0710  -24.4500    4.0210 C   0  0  0  0  0  1  0  0  0  0  0  0
  -41.9260  -24.7560    5.2610 C   0  0  0  0  0  3  0  0  0  0  0  0
  -44.2150  -25.3540    5.9240 C   0  0  0  0  0  1  0  0  0  0  0  0
  -43.3540  -24.8130    4.8770 N   0  0  0  0  0  0  0  0  0  0  0  0
  -43.4790  -25.3790    4.0420 H   0  0  0  0  0  0  0  0  0  0  0  0
  -40.5070  -23.9910    9.8620 C   0  0  1  0  0  0  0  0  0  0  0  0
  -39.5200  -25.1740   10.0050 C   0  0  0  0  0  1  0  0  0  0  0  0
  -40.2540  -23.0180   11.0360 C   0  0  0  0  0  1  0  0  0  0  0  0
  -41.9400  -24.5400   10.0490 C   0  0  0  0  0  1  0  0  0  0  0  0
  1  7  1  0
  2  7  1  0
  3  4  1  0
  3  2  1  0
  5  4  1  0
  5 26  1  0
  5  6  1  0
  7  6  1  0
  8  1  2  0
  9 13  1  0
 10 16  1  0
 10  9  2  0
 11 12  2  0
 11 10  1  0
 12 20  1  0
 13 21  1  0
 14 16  1  0
 15 51  1  0
 15 14  1  0
 15 11  1  0
 16 19  1  1
 17 12  1  0
 18 16  1  0
 20 13  2  0
 21 22  1  0
 21  1  1  0
 23 48  1  0
 24 23  2  0
 24 43  1  0
 25 24  1  0
 26 23  1  0
 27 25  2  0
 27 26  1  0
 28 29  1  0
 28 25  1  0
 30 29  2  0
 31 30  1  0
 32 31  2  0
 32 33  1  0
 33 28  2  0
 34 35  1  0
 34 31  1  0
 35 36  1  0
 36 37  2  0
 38 42  1  0
 38 37  1  0
 39 38  2  0
 40 39  1  0
 40 35  2  0
 41 40  1  0
 43 45  2  0
 43 44  1  0
 44 47  1  0
 46 44  1  0
 48 49  1  0
 50 48  1  0
 52 51  2  0
 53 52  1  0
 54 64  1  0
 55 53  1  0
 56 63  1  0
 56 64  1  0
 56 66  1  0
 57 59  2  0
 57 62  1  0
 58 59  1  0
 59 60  1  0
 60 55  2  0
 61 55  1  0
 62 61  2  0
 63 57  1  0
 64 58  1  0
 65 54  2  0
 66 68  2  0
 67 66  1  0
 69 67  1  0
 70 75  1  0
 70 74  1  0
 71 67  1  0
 71 72  1  0
 73 72  1  0
 74 73  1  0
 75 71  1  0
 76 75  2  0
 77 76  1  0
 78 77  2  0
 78 79  1  0
 79 70  2  0
 80 54  1  0
 80 90  1  0
 81 80  1  0
 82 81  1  0
 83 82  2  0
 84 81  1  0
 86 85  1  0
 86 82  1  0
 88 86  1  0
 88 87  1  0
 89 88  1  0
 90 91  1  6
 90 93  1  0
 90 92  1  0
M  ISO  4   1 100  21 100  52 101  53 101
M  END
>  <TORSDO>  (82) 
F 17

>  <SCORE>  (82) 
-3.734

>  <name>  (82) 
82

>  <ligand_id>  (82) 
82

>  <original_smiles>  (82) 
[H]c1c([H])c([H])c2c(c1[H])C([H])([H])C([H])([H])C([H])([H])C2([H])N([H])C(=O)C1([H])N(C(=O)C([H])(N([H])C(=O)C([H])(N([H])C([H])([H])[H])C([H])([H])[H])C(C([H])([H])[H])(C([H])([H])[H])C([H])([H])[H])C([H])([H])c2c([H])c(OC([H])([H])C([H])([H])C3([H])c4c(C([H])([H])[H])nc(N([H])C(=O)N5C([H])([H])C([H])([H])C([H])([H])C([H])(n6nc(-c7c([H])c([H])c(Oc8c([H])c([H])c(F)c([H])c8F)c([H])c7[H])c(C(=O)N([H])[H])c6N([H])[H])C5([H])[H])c([H])c4C(C([H])([H])[H])(C([H])([H])[H])C3([H])[H])c([H])c([H])c2C1([H])[H]

>  <smiles>  (82) 
[H]c1c([H])c([H])c2c(c1[H])C([H])([H])C([H])([H])C([H])([H])C2([H])N([H])C(=O)C1([H])N(C(=O)C([H])(N([H])C(=O)C([H])(N([H])C([H])([H])[H])C([H])([H])[H])C(C([H])([H])[H])(C([H])([H])[H])C([H])([H])[H])C([H])([H])c2c([H])c(OC([H])([H])C([H])([H])C3([H])c4c(C([H])([H])[H])nc(N([H])C(=O)N5C([H])([H])C([H])([H])C([H])([H])C([H])(n6nc(-c7c([H])c([H])c(Oc8c([H])c([H])c(F)c([H])c8F)c([H])c7[H])c(C(=O)N([H])[H])c6N([H])[H])C5([H])[H])c([H])c4C(C([H])([H])[H])(C([H])([H])[H])C3([H])[H])c([H])c([H])c2C1([H])[H]

$$$$
83:0:0
     RDKit          3D

 94103  0  0  1  0  0  0  0  0999 V2000
  -29.4710  -23.3910   20.0620 C   0  0  0  0  0  0  0  0  0  0  0  0
  -30.7210  -24.0870   19.9700 C   0  0  0  0  0  0  0  0  0  0  0  0
  -29.7030  -21.8570   20.1060 C   0  0  0  0  0  0  0  0  0  0  0  0
  -31.9900  -22.1990   20.1270 C   0  0  0  0  0  0  0  0  0  0  0  0
  -30.8790  -25.5850   19.7560 C   0  0  0  0  0  1  0  0  0  0  0  0
  -33.3590  -21.5560   20.1580 C   0  0  0  0  0  1  0  0  0  0  0  0
  -31.9280  -23.5020   20.0140 N   0  0  0  0  0  0  0  0  0  0  0  0
  -30.9580  -21.3960   20.1760 N   0  0  0  0  0  0  0  0  0  0  0  0
  -28.9630  -20.5670   20.0270 N   0  0  0  0  0  0  0  0  0  0  0  0
  -27.9660  -20.6860   19.8890 H   0  0  0  0  0  0  0  0  0  0  0  0
  -30.5470  -15.1110   19.8960 C   0  0  0  0  0  0  0  0  0  0  0  0
  -30.3730  -12.7370   18.9420 C   0  0  0  0  0  2  0  0  0  0  0  0
  -29.3670  -12.6500   17.7700 C   0  0  0  0  0  2  0  0  0  0  0  0
  -27.9370  -12.4180   18.2920 C   0  0  0  0  0  2  0  0  0  0  0  0
  -27.6000  -13.3350   19.4980 C   0  0  0  0  0  3  0  0  0  0  0  0
  -28.7290  -13.3540   20.5530 C   0  0  0  0  0  2  0  0  0  0  0  0
  -29.9320  -13.8410   19.8590 N   0  0  0  0  0  0  0  0  0  0  0  0
  -31.7250  -15.1070   19.5100 O   0  0  0  0  0  0  0  0  0  0  0  0
  -28.2350  -18.1600   20.8730 C   0  0  0  0  0  2  0  0  0  0  0  0
  -28.7340  -16.6660   20.9880 C   0  0  0  0  0  2  0  0  0  0  0  0
  -29.4030  -19.0800   20.4660 C   0  0  0  0  0  3  0  0  0  0  0  0
  -30.1790  -17.8720   19.6090 C   0  0  0  0  0  3  0  0  0  0  0  0
  -29.8890  -18.0310   18.1110 C   0  0  0  0  0  1  0  0  0  0  0  0
  -29.8440  -16.3860   20.0530 N   0  0  0  0  0  0  0  0  0  0  0  0
  -25.2840  -13.9090   20.4110 C   0  0  0  0  0  0  0  0  0  0  0  0
  -24.2410  -13.1340   20.8340 C   0  0  0  0  0  0  0  0  0  0  0  0
  -24.6860  -11.7800   20.7320 C   0  0  0  0  0  0  0  0  0  0  0  0
  -26.3000  -13.0290   20.0780 N   0  0  0  0  0  0  0  0  0  0  0  0
  -25.9540  -11.7410   20.3360 N   0  0  0  0  0  0  0  0  0  0  0  0
  -23.9550  -10.5220   20.9290 C   0  0  0  0  0  0  0  0  0  0  0  0
  -24.3960   -9.5480   21.8520 C   0  0  0  0  0  3  0  0  0  0  0  0
  -23.6620   -8.3570   22.0400 C   0  0  0  0  0  3  0  0  0  0  0  0
  -22.4740   -8.1320   21.3060 C   0  0  0  0  0  0  0  0  0  0  0  0
  -22.0520   -9.0940   20.3710 C   0  0  0  0  0  3  0  0  0  0  0  0
  -22.7860  -10.2770   20.1810 C   0  0  0  0  0  3  0  0  0  0  0  0
  -21.7100   -6.9940   21.4050 O   0  0  0  0  0  0  0  0  0  0  0  0
  -21.6240   -6.2840   22.5760 C   0  0  0  0  0  0  0  0  0  0  0  0
  -21.1670   -6.8760   23.7750 C   0  0  0  0  0  3  0  0  0  0  0  0
  -21.0290   -6.0920   24.9380 C   0  0  0  0  0  3  0  0  0  0  0  0
  -21.3360   -4.7190   24.9030 C   0  0  0  0  0  0  0  0  0  0  0  0
  -21.7860   -4.1280   23.7090 C   0  0  0  0  0  3  0  0  0  0  0  0
  -21.9270   -4.9080   22.5490 C   0  0  0  0  0  0  0  0  0  0  0  0
  -22.3400   -4.3290   21.3960 F   0  0  0  0  0  0  0  0  0  0  0  0
  -21.1960   -3.9640   26.0180 F   0  0  0  0  0  0  0  0  0  0  0  0
  -22.8720  -13.6210   21.2090 C   0  0  0  0  0  0  0  0  0  0  0  0
  -22.1920  -12.9130   22.1050 N   0  0  0  0  0  0  0  0  0  0  0  0
  -22.4150  -14.6640   20.7440 O   0  0  0  0  0  0  0  0  0  0  0  0
  -22.5760  -12.0700   22.5050 H   0  0  0  0  0  0  0  0  0  0  0  0
  -21.2770  -13.2230   22.3960 H   0  0  0  0  0  0  0  0  0  0  0  0
  -25.4370  -15.2820   20.2510 N   0  0  0  0  0  0  0  0  0  0  0  0
  -24.6730  -15.9260   20.4240 H   0  0  0  0  0  0  0  0  0  0  0  0
  -26.2430  -15.7260   19.8330 H   0  0  0  0  0  0  0  0  0  0  0  0
  -28.1620  -24.4680   20.0550 C   0  0  0  0  0  2  0  0  0  0  0  0
  -28.2700  -26.0650   20.2070 O   0  0  0  0  0  0  0  0  0  0  0  0
  -24.5380  -31.7990   23.1450 C   0  0  0  0  0  0  0  0  0  0  0  0
  -27.1970  -27.0560   20.1390 C   0  0  0  0  0  0  0  0  0  0  0  0
  -23.3740  -30.3920   21.4920 C   0  0  0  0  0  3  0  0  0  0  0  0
  -24.8550  -28.8220   20.0790 C   0  0  0  0  0  0  0  0  0  0  0  0
  -25.9310  -30.6690   21.3570 C   0  0  0  0  0  2  0  0  0  0  0  0
  -26.0270  -29.2710   20.7020 C   0  0  0  0  0  0  0  0  0  0  0  0
  -27.1950  -28.4060   20.7080 C   0  0  0  0  0  3  0  0  0  0  0  0
  -25.9960  -26.7230   19.4780 C   0  0  0  0  0  3  0  0  0  0  0  0
  -24.8570  -27.5650   19.4500 C   0  0  0  0  0  3  0  0  0  0  0  0
  -23.6200  -29.7160   20.1150 C   0  0  0  0  0  2  0  0  0  0  0  0
  -24.6350  -30.9770   22.0530 N   0  0  0  0  0  0  0  0  0  0  0  0
  -23.4420  -32.0710   23.6600 O   0  0  0  0  0  0  0  0  0  0  0  0
  -22.6930  -29.3800   22.4470 C   0  0  0  0  0  0  0  0  0  0  0  0
  -21.3640  -29.2090   22.3200 N   0  0  0  0  0  0  0  0  0  0  0  0
  -23.3640  -28.7490   23.2670 O   0  0  0  0  0  0  0  0  0  0  0  0
  -20.8770  -29.7710   21.6350 H   0  0  0  0  0  0  0  0  0  0  0  0
  -17.9820  -28.0070   22.8300 C   0  0  0  0  0  0  0  0  0  0  0  0
  -20.5440  -28.2630   23.0820 C   0  0  0  0  0  3  0  0  0  0  0  0
  -20.6400  -26.8390   22.4860 C   0  0  0  0  0  2  0  0  0  0  0  0
  -19.5300  -26.5330   21.4750 C   0  0  0  0  0  2  0  0  0  0  0  0
  -18.1530  -26.6690   22.1310 C   0  0  0  0  0  2  0  0  0  0  0  0
  -19.1050  -28.7630   23.2640 C   0  0  0  0  0  0  0  0  0  0  0  0
  -18.8900  -30.0140   23.8810 C   0  0  0  0  0  3  0  0  0  0  0  0
  -17.5870  -30.5120   24.0660 C   0  0  0  0  0  3  0  0  0  0  0  0
  -16.4790  -29.7540   23.6490 C   0  0  0  0  0  3  0  0  0  0  0  0
  -16.6770  -28.5040   23.0370 C   0  0  0  0  0  3  0  0  0  0  0  0
  -25.7990  -32.4530   23.7900 C   0  0  0  0  0  3  0  0  0  0  0  0
  -25.4580  -33.8420   24.1380 N   0  0  0  0  0  0  0  0  0  0  0  0
  -25.7670  -34.9150   23.3970 C   0  0  0  0  0  0  0  0  0  0  0  0
  -26.4330  -34.8400   22.3630 O   0  0  0  0  0  0  0  0  0  0  0  0
  -24.8620  -33.9720   24.9430 H   0  0  0  0  0  0  0  0  0  0  0  0
  -23.9990  -36.6820   23.0910 C   0  0  0  0  0  1  0  0  0  0  0  0
  -25.2580  -36.2890   23.8800 C   0  0  0  0  0  3  0  0  0  0  0  0
  -27.3820  -37.2090   24.7010 C   0  0  0  0  0  1  0  0  0  0  0  0
  -26.2690  -37.3640   23.7690 N   0  0  0  0  0  0  0  0  0  0  0  0
  -25.8460  -38.2740   23.9290 H   0  0  0  0  0  0  0  0  0  0  0  0
  -26.3120  -31.6800   25.0680 C   0  0  1  0  0  0  0  0  0  0  0  0
  -25.2110  -31.4180   26.1220 C   0  0  0  0  0  1  0  0  0  0  0  0
  -26.9190  -30.3130   24.6780 C   0  0  0  0  0  1  0  0  0  0  0  0
  -27.4430  -32.4860   25.7490 C   0  0  0  0  0  1  0  0  0  0  0  0
  1  3  1  0
  2  7  1  0
  2  1  2  0
  3  8  2  0
  4  6  1  0
  4  8  1  0
  5  2  1  0
  7  4  2  0
  9  3  1  0
 10  9  1  0
 11 24  1  0
 12 17  1  0
 13 14  1  0
 13 12  1  0
 15 14  1  0
 15 28  1  0
 15 16  1  0
 17 11  1  0
 17 16  1  0
 18 11  2  0
 19 20  1  0
 21  9  1  0
 21 19  1  0
 22 23  1  0
 22 24  1  0
 22 21  1  0
 24 20  1  0
 25 26  2  0
 26 45  1  0
 27 26  1  0
 27 30  1  0
 28 29  1  0
 28 25  1  0
 29 27  2  0
 30 31  1  0
 31 32  2  0
 33 36  1  0
 33 32  1  0
 34 33  2  0
 35 34  1  0
 35 30  2  0
 36 37  1  0
 37 38  1  0
 38 39  2  0
 40 39  1  0
 40 44  1  0
 41 40  2  0
 42 37  2  0
 42 41  1  0
 43 42  1  0
 45 46  1  0
 46 49  1  0
 46 48  1  0
 47 45  2  0
 50 25  1  0
 50 51  1  0
 52 50  1  0
 53  1  1  0
 53 54  1  0
 55 66  2  0
 56 54  1  0
 56 61  1  0
 57 65  1  0
 57 67  1  0
 58 64  1  0
 58 60  1  0
 59 65  1  0
 60 61  2  0
 60 59  1  0
 62 56  2  0
 63 62  1  0
 63 58  2  0
 64 57  1  0
 65 55  1  0
 67 69  2  0
 68 67  1  0
 70 68  1  0
 71 80  2  0
 71 76  1  0
 72 68  1  0
 72 76  1  0
 73 72  1  0
 74 75  1  0
 74 73  1  0
 75 71  1  0
 76 77  2  0
 77 78  1  0
 79 78  2  0
 80 79  1  0
 81 55  1  0
 81 82  1  0
 81 91  1  0
 82 85  1  0
 83 87  1  0
 83 82  1  0
 84 83  2  0
 87 86  1  0
 89 87  1  0
 89 90  1  0
 89 88  1  0
 91 94  1  1
 91 92  1  0
 93 91  1  0
M  ISO  4  11 100  24 100  53 101  54 101
M  END
>  <TORSDO>  (83) 
F 17

>  <SCORE>  (83) 
-15.347

>  <name>  (83) 
83

>  <ligand_id>  (83) 
83

>  <original_smiles>  (83) 
[H]c1c([H])c([H])c2c(c1[H])C([H])([H])C([H])([H])C([H])([H])C2([H])N([H])C(=O)C1([H])N(C(=O)C([H])(N([H])C(=O)C([H])(N([H])C([H])([H])[H])C([H])([H])[H])C(C([H])([H])[H])(C([H])([H])[H])C([H])([H])[H])C([H])([H])c2c([H])c(OC([H])([H])c3c(N([H])C4([H])C([H])([H])C([H])([H])N(C(=O)N5C([H])([H])C([H])([H])C([H])([H])C([H])(n6nc(-c7c([H])c([H])c(Oc8c([H])c([H])c(F)c([H])c8F)c([H])c7[H])c(C(=O)N([H])[H])c6N([H])[H])C5([H])[H])C4([H])C([H])([H])[H])nc(C([H])([H])[H])nc3C([H])([H])[H])c([H])c([H])c2C1([H])[H]

>  <smiles>  (83) 
[H]c1c([H])c([H])c2c(c1[H])C([H])([H])C([H])([H])C([H])([H])C2([H])N([H])C(=O)C1([H])N(C(=O)C([H])(N([H])C(=O)C([H])(N([H])C([H])([H])[H])C([H])([H])[H])C(C([H])([H])[H])(C([H])([H])[H])C([H])([H])[H])C([H])([H])c2c([H])c(OC([H])([H])c3c(N([H])C4([H])C([H])([H])C([H])([H])N(C(=O)N5C([H])([H])C([H])([H])C([H])([H])C([H])(n6nc(-c7c([H])c([H])c(Oc8c([H])c([H])c(F)c([H])c8F)c([H])c7[H])c(C(=O)N([H])[H])c6N([H])[H])C5([H])[H])C4([H])C([H])([H])[H])nc(C([H])([H])[H])nc3C([H])([H])[H])c([H])c([H])c2C1([H])[H]

$$$$
84:0:0
     RDKit          3D

 88 97  0  0  1  0  0  0  0  0999 V2000
  -29.6380  -21.1000   21.1320 C   0  0  0  0  0  3  0  0  0  0  0  0
  -28.2860  -20.6860   19.2590 C   0  0  0  0  0  3  0  0  0  0  0  0
  -29.3160  -22.5360   21.0580 C   0  0  0  0  0  3  0  0  0  0  0  0
  -27.9750  -22.1010   19.1860 C   0  0  0  0  0  3  0  0  0  0  0  0
  -29.1190  -20.0740   20.2510 C   0  0  0  0  0  0  0  0  0  0  0  0
  -28.4430  -23.1300   20.0760 C   0  0  0  0  0  0  0  0  0  0  0  0
  -30.5250  -15.0060   20.3040 C   0  0  0  0  0  0  0  0  0  0  0  0
  -30.3940  -12.6530   19.3700 C   0  0  0  0  0  2  0  0  0  0  0  0
  -29.4530  -12.5970   18.1450 C   0  0  0  0  0  2  0  0  0  0  0  0
  -27.9960  -12.3750   18.5910 C   0  0  0  0  0  2  0  0  0  0  0  0
  -27.5920  -13.2980   19.7720 C   0  0  0  0  0  3  0  0  0  0  0  0
  -28.6560  -13.3370   20.8880 C   0  0  0  0  0  2  0  0  0  0  0  0
  -29.9180  -13.7510   20.2600 N   0  0  0  0  0  0  0  0  0  0  0  0
  -31.7290  -15.0480   20.0260 O   0  0  0  0  0  0  0  0  0  0  0  0
  -29.6430  -17.2910   19.3490 C   0  0  0  0  0  2  0  0  0  0  0  0
  -30.1040  -17.4300   21.2900 C   0  0  0  0  0  2  0  0  0  0  0  0
  -29.2490  -18.4150   20.3910 C   0  0  0  0  0  3  0  0  0  0  0  0
  -29.7690  -16.2170   20.4250 N   0  0  0  0  0  0  0  0  0  0  0  0
  -25.2180  -13.8590   20.5390 C   0  0  0  0  0  0  0  0  0  0  0  0
  -24.1550  -13.0750   20.8980 C   0  0  0  0  0  0  0  0  0  0  0  0
  -24.6270  -11.7270   20.8600 C   0  0  0  0  0  0  0  0  0  0  0  0
  -26.2610  -12.9870   20.2820 N   0  0  0  0  0  0  0  0  0  0  0  0
  -25.9170  -11.6980   20.5450 N   0  0  0  0  0  0  0  0  0  0  0  0
  -23.9070  -10.4590   21.0500 C   0  0  0  0  0  0  0  0  0  0  0  0
  -24.3510   -9.4890   21.9760 C   0  0  0  0  0  3  0  0  0  0  0  0
  -23.6300   -8.2900   22.1560 C   0  0  0  0  0  3  0  0  0  0  0  0
  -22.4520   -8.0500   21.4090 C   0  0  0  0  0  0  0  0  0  0  0  0
  -22.0270   -9.0090   20.4720 C   0  0  0  0  0  3  0  0  0  0  0  0
  -22.7490  -10.2010   20.2910 C   0  0  0  0  0  3  0  0  0  0  0  0
  -21.7010   -6.9040   21.4980 O   0  0  0  0  0  0  0  0  0  0  0  0
  -21.6640   -6.1540   22.6470 C   0  0  0  0  0  0  0  0  0  0  0  0
  -21.2480   -6.7010   23.8800 C   0  0  0  0  0  3  0  0  0  0  0  0
  -21.1590   -5.8780   25.0200 C   0  0  0  0  0  3  0  0  0  0  0  0
  -21.4760   -4.5100   24.9290 C   0  0  0  0  0  0  0  0  0  0  0  0
  -21.8860   -3.9630   23.7010 C   0  0  0  0  0  3  0  0  0  0  0  0
  -21.9770   -4.7820   22.5620 C   0  0  0  0  0  0  0  0  0  0  0  0
  -22.3520   -4.2450   21.3770 F   0  0  0  0  0  0  0  0  0  0  0  0
  -21.3830   -3.7180   26.0220 F   0  0  0  0  0  0  0  0  0  0  0  0
  -22.7570  -13.5440   21.1730 C   0  0  0  0  0  0  0  0  0  0  0  0
  -22.0360  -12.8460   22.0440 N   0  0  0  0  0  0  0  0  0  0  0  0
  -22.3120  -14.5650   20.6500 O   0  0  0  0  0  0  0  0  0  0  0  0
  -22.4100  -12.0220   22.4880 H   0  0  0  0  0  0  0  0  0  0  0  0
  -21.0970  -13.1420   22.2690 H   0  0  0  0  0  0  0  0  0  0  0  0
  -25.3830  -15.2320   20.3940 N   0  0  0  0  0  0  0  0  0  0  0  0
  -24.6510  -15.8920   20.6340 H   0  0  0  0  0  0  0  0  0  0  0  0
  -26.2820  -15.6750   20.2420 H   0  0  0  0  0  0  0  0  0  0  0  0
  -27.7350  -24.6360   19.9790 C   0  0  0  0  0  2  0  0  0  0  0  0
  -28.1830  -26.1050   20.2690 O   0  0  0  0  0  0  0  0  0  0  0  0
  -24.6510  -31.8980   23.2530 C   0  0  0  0  0  0  0  0  0  0  0  0
  -27.1740  -27.1520   20.1980 C   0  0  0  0  0  0  0  0  0  0  0  0
  -23.4360  -30.5150   21.6180 C   0  0  0  0  0  3  0  0  0  0  0  0
  -24.8680  -28.9430   20.1800 C   0  0  0  0  0  0  0  0  0  0  0  0
  -25.9940  -30.7550   21.4460 C   0  0  0  0  0  2  0  0  0  0  0  0
  -26.0540  -29.3610   20.7960 C   0  0  0  0  0  0  0  0  0  0  0  0
  -27.2080  -28.4800   20.7960 C   0  0  0  0  0  3  0  0  0  0  0  0
  -25.9620  -26.8630   19.5220 C   0  0  0  0  0  3  0  0  0  0  0  0
  -24.8390  -27.7090   19.5250 C   0  0  0  0  0  3  0  0  0  0  0  0
  -23.6460  -29.8440   20.2350 C   0  0  0  0  0  2  0  0  0  0  0  0
  -24.7150  -31.0770   22.1610 N   0  0  0  0  0  0  0  0  0  0  0  0
  -23.5670  -32.1890   23.7830 O   0  0  0  0  0  0  0  0  0  0  0  0
  -22.7540  -29.5070   22.5790 C   0  0  0  0  0  0  0  0  0  0  0  0
  -21.4250  -29.3430   22.4570 N   0  0  0  0  0  0  0  0  0  0  0  0
  -23.4250  -28.8760   23.4010 O   0  0  0  0  0  0  0  0  0  0  0  0
  -20.9390  -29.9030   21.7700 H   0  0  0  0  0  0  0  0  0  0  0  0
  -18.0390  -28.1530   22.9620 C   0  0  0  0  0  0  0  0  0  0  0  0
  -20.6000  -28.4110   23.2300 C   0  0  0  0  0  3  0  0  0  0  0  0
  -20.6980  -26.9750   22.6630 C   0  0  0  0  0  2  0  0  0  0  0  0
  -19.5940  -26.6510   21.6490 C   0  0  0  0  0  2  0  0  0  0  0  0
  -18.2130  -26.8010   22.2920 C   0  0  0  0  0  2  0  0  0  0  0  0
  -19.1590  -28.9150   23.3890 C   0  0  0  0  0  0  0  0  0  0  0  0
  -18.9400  -30.1810   23.9770 C   0  0  0  0  0  3  0  0  0  0  0  0
  -17.6360  -30.6830   24.1410 C   0  0  0  0  0  3  0  0  0  0  0  0
  -16.5310  -29.9180   23.7280 C   0  0  0  0  0  3  0  0  0  0  0  0
  -16.7330  -28.6550   23.1450 C   0  0  0  0  0  3  0  0  0  0  0  0
  -25.9330  -32.5260   23.8760 C   0  0  0  0  0  3  0  0  0  0  0  0
  -25.6290  -33.9240   24.2190 N   0  0  0  0  0  0  0  0  0  0  0  0
  -25.9340  -34.9830   23.4570 C   0  0  0  0  0  0  0  0  0  0  0  0
  -26.5710  -34.8840   22.4040 O   0  0  0  0  0  0  0  0  0  0  0  0
  -25.0610  -34.0740   25.0400 H   0  0  0  0  0  0  0  0  0  0  0  0
  -24.1810  -36.7680   23.1850 C   0  0  0  0  0  1  0  0  0  0  0  0
  -25.4620  -36.3690   23.9350 C   0  0  0  0  0  3  0  0  0  0  0  0
  -27.6280  -37.2700   24.6620 C   0  0  0  0  0  1  0  0  0  0  0  0
  -26.4810  -37.4290   23.7710 N   0  0  0  0  0  0  0  0  0  0  0  0
  -26.0760  -38.3460   23.9370 H   0  0  0  0  0  0  0  0  0  0  0  0
  -26.4480  -31.7470   25.1490 C   0  0  1  0  0  0  0  0  0  0  0  0
  -25.3590  -31.5150   26.2220 C   0  0  0  0  0  1  0  0  0  0  0  0
  -27.0190  -30.3660   24.7510 C   0  0  0  0  0  1  0  0  0  0  0  0
  -27.6090  -32.5290   25.8080 C   0  0  0  0  0  1  0  0  0  0  0  0
  2  5  1  0
  3  1  1  0
  4  2  2  0
  4  6  1  0
  5  1  2  0
  6  3  2  0
  7 18  1  0
  8 13  1  0
  9 10  1  0
  9  8  1  0
 11 10  1  0
 11 22  1  0
 11 12  1  0
 13  7  1  0
 13 12  1  0
 14  7  2  0
 15 17  1  0
 15 18  1  0
 17  5  1  0
 17 16  1  0
 18 16  1  0
 19 20  2  0
 20 39  1  0
 21 20  1  0
 21 24  1  0
 22 19  1  0
 22 23  1  0
 23 21  2  0
 24 25  1  0
 25 26  2  0
 27 30  1  0
 27 26  1  0
 28 27  2  0
 29 28  1  0
 29 24  2  0
 30 31  1  0
 31 32  1  0
 32 33  2  0
 34 33  1  0
 34 38  1  0
 35 34  2  0
 36 31  2  0
 36 35  1  0
 37 36  1  0
 39 40  1  0
 40 43  1  0
 40 42  1  0
 41 39  2  0
 44 19  1  0
 44 45  1  0
 46 44  1  0
 47  6  1  0
 47 48  1  0
 49 60  2  0
 50 48  1  0
 50 55  1  0
 51 59  1  0
 51 61  1  0
 52 58  1  0
 52 54  1  0
 53 59  1  0
 54 53  1  0
 55 54  2  0
 56 57  1  0
 56 50  2  0
 57 52  2  0
 58 51  1  0
 59 49  1  0
 61 63  2  0
 62 61  1  0
 64 62  1  0
 65 74  2  0
 65 70  1  0
 66 62  1  0
 66 70  1  0
 67 66  1  0
 68 69  1  0
 68 67  1  0
 69 65  1  0
 70 71  2  0
 71 72  1  0
 73 72  2  0
 74 73  1  0
 75 49  1  0
 75 76  1  0
 75 85  1  0
 76 79  1  0
 77 81  1  0
 77 76  1  0
 78 77  2  0
 81 80  1  0
 83 81  1  0
 83 84  1  0
 83 82  1  0
 85 88  1  1
 85 86  1  0
 87 85  1  0
M  ISO  4   7 100  18 100  47 101  48 101
M  END
>  <TORSDO>  (84) 
F 17

>  <SCORE>  (84) 
-15.188

>  <name>  (84) 
84

>  <ligand_id>  (84) 
84

>  <original_smiles>  (84) 
[H]c1c([H])c([H])c2c(c1[H])C([H])([H])C([H])([H])C([H])([H])C2([H])N([H])C(=O)C1([H])N(C(=O)C([H])(N([H])C(=O)C([H])(N([H])C([H])([H])[H])C([H])([H])[H])C(C([H])([H])[H])(C([H])([H])[H])C([H])([H])[H])C([H])([H])c2c([H])c(OC([H])([H])c3c([H])c([H])c(C4([H])C([H])([H])N(C(=O)N5C([H])([H])C([H])([H])C([H])([H])C([H])(n6nc(-c7c([H])c([H])c(Oc8c([H])c([H])c(F)c([H])c8F)c([H])c7[H])c(C(=O)N([H])[H])c6N([H])[H])C5([H])[H])C4([H])[H])c([H])c3[H])c([H])c([H])c2C1([H])[H]

>  <smiles>  (84) 
[H]c1c([H])c([H])c2c(c1[H])C([H])([H])C([H])([H])C([H])([H])C2([H])N([H])C(=O)C1([H])N(C(=O)C([H])(N([H])C(=O)C([H])(N([H])C([H])([H])[H])C([H])([H])[H])C(C([H])([H])[H])(C([H])([H])[H])C([H])([H])[H])C([H])([H])c2c([H])c(OC([H])([H])c3c([H])c([H])c(C4([H])C([H])([H])N(C(=O)N5C([H])([H])C([H])([H])C([H])([H])C([H])(n6nc(-c7c([H])c([H])c(Oc8c([H])c([H])c(F)c([H])c8F)c([H])c7[H])c(C(=O)N([H])[H])c6N([H])[H])C5([H])[H])C4([H])[H])c([H])c3[H])c([H])c([H])c2C1([H])[H]

$$$$
85:0:0
     RDKit          3D

 97107  0  0  1  0  0  0  0  0999 V2000
  -30.8840  -21.0510   20.0920 C   0  0  0  0  0  3  0  0  0  0  0  0
  -31.4010  -22.3550   19.9320 C   0  0  0  0  0  0  0  0  0  0  0  0
  -30.5250  -23.4970   19.8810 C   0  0  0  0  0  0  0  0  0  0  0  0
  -29.5310  -20.7850   20.2590 C   0  0  0  0  0  0  0  0  0  0  0  0
  -29.1120  -23.3020   20.1220 C   0  0  0  0  0  0  0  0  0  0  0  0
  -33.4490  -23.8720   19.9210 C   0  0  0  0  0  2  0  0  0  0  0  0
  -32.6110  -24.8470   19.1160 C   0  0  0  0  0  2  0  0  0  0  0  0
  -32.9340  -22.4370   19.7720 C   0  0  1  0  0  0  0  0  0  0  0  0
  -31.1220  -24.8970   19.5430 C   0  0  1  0  0  0  0  0  0  0  0  0
  -33.6710  -21.6110   20.8540 C   0  0  0  0  0  1  0  0  0  0  0  0
  -33.3230  -21.8750   18.3870 C   0  0  0  0  0  1  0  0  0  0  0  0
  -30.4500  -25.5260   18.2900 C   0  0  0  0  0  1  0  0  0  0  0  0
  -31.0870  -25.8110   20.7960 C   0  0  0  0  0  1  0  0  0  0  0  0
  -28.6820  -21.9350   20.2800 N   0  0  0  0  0  0  0  0  0  0  0  0
  -29.0430  -18.3490   19.1440 C   0  0  0  0  0  2  0  0  0  0  0  0
  -29.1260  -19.1710   20.3960 C   0  0  0  0  0  3  0  0  0  0  0  0
  -29.9850  -17.7150   20.1580 C   0  0  0  0  0  3  0  0  0  0  0  0
  -30.4740  -15.0020   20.2930 C   0  0  0  0  0  0  0  0  0  0  0  0
  -30.3770  -12.6350   19.3720 C   0  0  0  0  0  2  0  0  0  0  0  0
  -29.4480  -12.5740   18.1370 C   0  0  0  0  0  2  0  0  0  0  0  0
  -27.9860  -12.3490   18.5680 C   0  0  0  0  0  2  0  0  0  0  0  0
  -27.5680  -13.2740   19.7400 C   0  0  0  0  0  3  0  0  0  0  0  0
  -28.6220  -13.3090   20.8690 C   0  0  0  0  0  2  0  0  0  0  0  0
  -29.8890  -13.7330   20.2590 N   0  0  0  0  0  0  0  0  0  0  0  0
  -31.6750  -15.0640   20.0080 O   0  0  0  0  0  0  0  0  0  0  0  0
  -29.6850  -16.1910   20.4150 N   0  0  0  0  0  0  0  0  0  0  0  0
  -28.7210  -15.9970   20.6450 H   0  0  0  0  0  0  0  0  0  0  0  0
  -25.1850  -13.8350   20.4770 C   0  0  0  0  0  0  0  0  0  0  0  0
  -24.1250  -13.0530   20.8480 C   0  0  0  0  0  0  0  0  0  0  0  0
  -24.5990  -11.7060   20.8190 C   0  0  0  0  0  0  0  0  0  0  0  0
  -26.2330  -12.9640   20.2390 N   0  0  0  0  0  0  0  0  0  0  0  0
  -25.8910  -11.6780   20.5110 N   0  0  0  0  0  0  0  0  0  0  0  0
  -23.8800  -10.4390   21.0090 C   0  0  0  0  0  0  0  0  0  0  0  0
  -24.3020   -9.4820   21.9580 C   0  0  0  0  0  3  0  0  0  0  0  0
  -23.5800   -8.2820   22.1360 C   0  0  0  0  0  3  0  0  0  0  0  0
  -22.4210   -8.0300   21.3630 C   0  0  0  0  0  0  0  0  0  0  0  0
  -22.0180   -8.9760   20.4030 C   0  0  0  0  0  3  0  0  0  0  0  0
  -22.7410  -10.1670   20.2240 C   0  0  0  0  0  3  0  0  0  0  0  0
  -21.6720   -6.8810   21.4490 O   0  0  0  0  0  0  0  0  0  0  0  0
  -21.5940   -6.1580   22.6120 C   0  0  0  0  0  0  0  0  0  0  0  0
  -21.1070   -6.7240   23.8110 C   0  0  0  0  0  3  0  0  0  0  0  0
  -20.9790   -5.9270   24.9650 C   0  0  0  0  0  3  0  0  0  0  0  0
  -21.3260   -4.5630   24.9220 C   0  0  0  0  0  0  0  0  0  0  0  0
  -21.8040   -3.9950   23.7280 C   0  0  0  0  0  3  0  0  0  0  0  0
  -21.9350   -4.7910   22.5750 C   0  0  0  0  0  0  0  0  0  0  0  0
  -22.3770   -4.2340   21.4210 F   0  0  0  0  0  0  0  0  0  0  0  0
  -21.1950   -3.7940   26.0280 F   0  0  0  0  0  0  0  0  0  0  0  0
  -22.7240  -13.5230   21.1120 C   0  0  0  0  0  0  0  0  0  0  0  0
  -21.9970  -12.8260   21.9770 N   0  0  0  0  0  0  0  0  0  0  0  0
  -22.2830  -14.5430   20.5860 O   0  0  0  0  0  0  0  0  0  0  0  0
  -22.3670  -12.0010   22.4280 H   0  0  0  0  0  0  0  0  0  0  0  0
  -21.0560  -13.1210   22.1940 H   0  0  0  0  0  0  0  0  0  0  0  0
  -25.3380  -15.2070   20.2960 N   0  0  0  0  0  0  0  0  0  0  0  0
  -24.5610  -15.8510   20.3960 H   0  0  0  0  0  0  0  0  0  0  0  0
  -26.1670  -15.6470   19.9200 H   0  0  0  0  0  0  0  0  0  0  0  0
  -27.9980  -24.5660   20.1150 C   0  0  0  0  0  2  0  0  0  0  0  0
  -28.2300  -26.1230   20.2680 O   0  0  0  0  0  0  0  0  0  0  0  0
  -24.6430  -31.8700   23.2500 C   0  0  0  0  0  0  0  0  0  0  0  0
  -27.1790  -27.1190   20.2090 C   0  0  0  0  0  0  0  0  0  0  0  0
  -23.4340  -30.4900   21.6040 C   0  0  0  0  0  3  0  0  0  0  0  0
  -24.8700  -28.9030   20.1770 C   0  0  0  0  0  0  0  0  0  0  0  0
  -25.9910  -30.7270   21.4460 C   0  0  0  0  0  2  0  0  0  0  0  0
  -26.0540  -29.3340   20.7880 C   0  0  0  0  0  0  0  0  0  0  0  0
  -27.2090  -28.4590   20.7840 C   0  0  0  0  0  3  0  0  0  0  0  0
  -25.9670  -26.7970   19.5600 C   0  0  0  0  0  3  0  0  0  0  0  0
  -24.8410  -27.6500   19.5470 C   0  0  0  0  0  3  0  0  0  0  0  0
  -23.6510  -29.8150   20.2240 C   0  0  0  0  0  2  0  0  0  0  0  0
  -24.7100  -31.0520   22.1550 N   0  0  0  0  0  0  0  0  0  0  0  0
  -23.5590  -32.1640   23.7760 O   0  0  0  0  0  0  0  0  0  0  0  0
  -22.7430  -29.4870   22.5630 C   0  0  0  0  0  0  0  0  0  0  0  0
  -21.4130  -29.3320   22.4350 N   0  0  0  0  0  0  0  0  0  0  0  0
  -23.4070  -28.8540   23.3870 O   0  0  0  0  0  0  0  0  0  0  0  0
  -20.9350  -29.8930   21.7450 H   0  0  0  0  0  0  0  0  0  0  0  0
  -18.0180  -28.1690   22.9370 C   0  0  0  0  0  0  0  0  0  0  0  0
  -20.5800  -28.4000   23.2020 C   0  0  0  0  0  3  0  0  0  0  0  0
  -20.6640  -26.9700   22.6180 C   0  0  0  0  0  2  0  0  0  0  0  0
  -19.5560  -26.6660   21.6040 C   0  0  0  0  0  2  0  0  0  0  0  0
  -18.1780  -26.8230   22.2520 C   0  0  0  0  0  2  0  0  0  0  0  0
  -19.1460  -28.9170   23.3690 C   0  0  0  0  0  0  0  0  0  0  0  0
  -18.9410  -30.1770   23.9720 C   0  0  0  0  0  3  0  0  0  0  0  0
  -17.6420  -30.6890   24.1480 C   0  0  0  0  0  3  0  0  0  0  0  0
  -16.5290  -29.9390   23.7310 C   0  0  0  0  0  3  0  0  0  0  0  0
  -16.7170  -28.6810   23.1320 C   0  0  0  0  0  3  0  0  0  0  0  0
  -25.9250  -32.4930   23.8820 C   0  0  0  0  0  3  0  0  0  0  0  0
  -25.6230  -33.8920   24.2240 N   0  0  0  0  0  0  0  0  0  0  0  0
  -25.9340  -34.9500   23.4630 C   0  0  0  0  0  0  0  0  0  0  0  0
  -26.5720  -34.8500   22.4110 O   0  0  0  0  0  0  0  0  0  0  0  0
  -25.0530  -34.0440   25.0430 H   0  0  0  0  0  0  0  0  0  0  0  0
  -24.1820  -36.7370   23.1970 C   0  0  0  0  0  1  0  0  0  0  0  0
  -25.4650  -36.3380   23.9430 C   0  0  0  0  0  3  0  0  0  0  0  0
  -27.6320  -37.2400   24.6660 C   0  0  0  0  0  1  0  0  0  0  0  0
  -26.4860  -37.3960   23.7750 N   0  0  0  0  0  0  0  0  0  0  0  0
  -26.0820  -38.3150   23.9370 H   0  0  0  0  0  0  0  0  0  0  0  0
  -26.4290  -31.7130   25.1600 C   0  0  1  0  0  0  0  0  0  0  0  0
  -25.3280  -31.4810   26.2220 C   0  0  0  0  0  1  0  0  0  0  0  0
  -27.0020  -30.3310   24.7710 C   0  0  0  0  0  1  0  0  0  0  0  0
  -27.5830  -32.4950   25.8290 C   0  0  0  0  0  1  0  0  0  0  0  0
  1  4  1  0
  2  1  2  0
  3  2  1  0
  3  5  2  0
  4 14  2  0
  5 14  1  0
  7  9  1  0
  7  6  1  0
  8  6  1  0
  8  2  1  0
  8 10  1  1
  9  3  1  0
  9 13  1  1
 11  8  1  0
 12  9  1  0
 15 17  1  0
 15 16  1  0
 16  4  1  0
 17 16  1  0
 17 26  1  0
 18 26  1  0
 19 24  1  0
 20 21  1  0
 20 19  1  0
 22 21  1  0
 22 31  1  0
 22 23  1  0
 24 18  1  0
 24 23  1  0
 25 18  2  0
 26 27  1  0
 28 29  2  0
 29 48  1  0
 30 29  1  0
 30 33  1  0
 31 28  1  0
 31 32  1  0
 32 30  2  0
 33 34  1  0
 34 35  2  0
 36 39  1  0
 36 35  1  0
 37 36  2  0
 38 37  1  0
 38 33  2  0
 39 40  1  0
 40 41  1  0
 41 42  2  0
 43 42  1  0
 43 47  1  0
 44 43  2  0
 45 40  2  0
 45 44  1  0
 46 45  1  0
 48 49  1  0
 49 52  1  0
 49 51  1  0
 50 48  2  0
 53 54  1  0
 53 28  1  0
 55 53  1  0
 56  5  1  0
 56 57  1  0
 58 69  2  0
 59 57  1  0
 59 64  1  0
 60 68  1  0
 60 70  1  0
 61 67  1  0
 61 63  1  0
 62 68  1  0
 63 62  1  0
 64 63  2  0
 65 59  2  0
 66 65  1  0
 66 61  2  0
 67 60  1  0
 68 58  1  0
 70 72  2  0
 71 70  1  0
 73 71  1  0
 74 83  2  0
 74 79  1  0
 75 71  1  0
 75 79  1  0
 76 75  1  0
 77 78  1  0
 77 76  1  0
 78 74  1  0
 79 80  2  0
 80 81  1  0
 82 81  2  0
 83 82  1  0
 84 58  1  0
 84 85  1  0
 84 94  1  0
 85 88  1  0
 86 90  1  0
 86 85  1  0
 87 86  2  0
 90 89  1  0
 92 93  1  0
 92 90  1  0
 92 91  1  0
 94 97  1  1
 94 95  1  0
 96 94  1  0
M  ISO  4  18 100  26 100  56 101  57 101
M  END
>  <TORSDO>  (85) 
F 18

>  <SCORE>  (85) 
-14.588

>  <name>  (85) 
85

>  <ligand_id>  (85) 
85

>  <original_smiles>  (85) 
[H]c1c([H])c([H])c2c(c1[H])C([H])([H])C([H])([H])C([H])([H])C2([H])N([H])C(=O)C1([H])N(C(=O)C([H])(N([H])C(=O)C([H])(N([H])C([H])([H])[H])C([H])([H])[H])C(C([H])([H])[H])(C([H])([H])[H])C([H])([H])[H])C([H])([H])c2c([H])c(OC([H])([H])c3nc(C4([H])C([H])([H])C4([H])N([H])C(=O)N4C([H])([H])C([H])([H])C([H])([H])C([H])(n5nc(-c6c([H])c([H])c(Oc7c([H])c([H])c(F)c([H])c7F)c([H])c6[H])c(C(=O)N([H])[H])c5N([H])[H])C4([H])[H])c([H])c4c3C(C([H])([H])[H])(C([H])([H])[H])C([H])([H])C([H])([H])C4(C([H])([H])[H])C([H])([H])[H])c([H])c([H])c2C1([H])[H]

>  <smiles>  (85) 
[H]c1c([H])c([H])c2c(c1[H])C([H])([H])C([H])([H])C([H])([H])C2([H])N([H])C(=O)C1([H])N(C(=O)C([H])(N([H])C(=O)C([H])(N([H])C([H])([H])[H])C([H])([H])[H])C(C([H])([H])[H])(C([H])([H])[H])C([H])([H])[H])C([H])([H])c2c([H])c(OC([H])([H])c3nc(C4([H])C([H])([H])C4([H])N([H])C(=O)N4C([H])([H])C([H])([H])C([H])([H])C([H])(n5nc(-c6c([H])c([H])c(Oc7c([H])c([H])c(F)c([H])c7F)c([H])c6[H])c(C(=O)N([H])[H])c5N([H])[H])C4([H])[H])c([H])c4c3C(C([H])([H])[H])(C([H])([H])[H])C([H])([H])C([H])([H])C4(C([H])([H])[H])C([H])([H])[H])c([H])c([H])c2C1([H])[H]

$$$$
86:0:0
     RDKit          3D

 96105  0  0  1  0  0  0  0  0999 V2000
  -29.7690  -22.7200   18.8120 C   0  0  0  0  0  3  0  0  0  0  0  0
  -30.1860  -21.3010   19.0020 C   0  0  0  0  0  0  0  0  0  0  0  0
  -29.3990  -20.2520   19.6170 C   0  0  0  0  0  0  0  0  0  0  0  0
  -28.5200  -23.3040   19.2640 C   0  0  0  0  0  0  0  0  0  0  0  0
  -28.1570  -20.9070   20.0140 C   0  0  0  0  0  0  0  0  0  0  0  0
  -32.2260  -20.1550   19.8850 C   0  0  0  0  0  2  0  0  0  0  0  0
  -31.5770  -20.7980   18.6330 C   0  0  0  0  0  3  0  0  0  0  0  0
  -30.0920  -18.7120   20.0740 C   0  0  0  0  0  3  0  0  0  0  0  0
  -27.1050  -20.0880   20.7320 C   0  0  0  0  0  1  0  0  0  0  0  0
  -32.5020  -21.8660   18.0250 C   0  0  0  0  0  1  0  0  0  0  0  0
  -27.7740  -22.2680   19.8410 N   0  0  0  0  0  0  0  0  0  0  0  0
  -31.5220  -18.9620   20.4690 N   0  0  2  0  0  4  0  0  0  0  0  0
  -31.9980  -18.1890   20.0200 H   0  0  0  0  0  0  0  0  0  0  0  0
  -30.6310  -15.8790   19.6980 C   0  0  0  0  0  0  0  0  0  0  0  0
  -30.6760  -13.4270   18.8750 C   0  0  0  0  0  2  0  0  0  0  0  0
  -29.6960  -13.1200   17.7160 C   0  0  0  0  0  2  0  0  0  0  0  0
  -28.2900  -12.8010   18.2550 C   0  0  0  0  0  2  0  0  0  0  0  0
  -27.8520  -13.7870   19.3650 C   0  0  0  0  0  3  0  0  0  0  0  0
  -28.9540  -14.0300   20.4170 C   0  0  0  0  0  2  0  0  0  0  0  0
  -30.1130  -14.5630   19.6850 N   0  0  0  0  0  0  0  0  0  0  0  0
  -31.8490  -15.9420   19.4820 O   0  0  0  0  0  0  0  0  0  0  0  0
  -29.8190  -17.1100   19.7650 N   0  0  0  0  0  0  0  0  0  0  0  0
  -28.8330  -16.8960   19.7600 H   0  0  0  0  0  0  0  0  0  0  0  0
  -25.5580  -14.2690   20.3740 C   0  0  0  0  0  0  0  0  0  0  0  0
  -24.5340  -13.4570   20.7710 C   0  0  0  0  0  0  0  0  0  0  0  0
  -24.9980  -12.1180   20.5930 C   0  0  0  0  0  0  0  0  0  0  0  0
  -26.5740  -13.4250   19.9670 N   0  0  0  0  0  0  0  0  0  0  0  0
  -26.2570  -12.1190   20.1670 N   0  0  0  0  0  0  0  0  0  0  0  0
  -24.2900  -10.8400   20.7400 C   0  0  0  0  0  0  0  0  0  0  0  0
  -24.6900   -9.8800   21.6970 C   0  0  0  0  0  3  0  0  0  0  0  0
  -23.9800   -8.6680   21.8340 C   0  0  0  0  0  3  0  0  0  0  0  0
  -22.8550   -8.4080   21.0160 C   0  0  0  0  0  0  0  0  0  0  0  0
  -22.4750   -9.3560   20.0510 C   0  0  0  0  0  3  0  0  0  0  0  0
  -23.1870  -10.5590   19.9100 C   0  0  0  0  0  3  0  0  0  0  0  0
  -22.1190   -7.2460   21.0630 O   0  0  0  0  0  0  0  0  0  0  0  0
  -21.8730   -6.5990   22.2480 C   0  0  0  0  0  0  0  0  0  0  0  0
  -21.1650   -7.2170   23.3020 C   0  0  0  0  0  3  0  0  0  0  0  0
  -20.8700   -6.4890   24.4740 C   0  0  0  0  0  3  0  0  0  0  0  0
  -21.2790   -5.1460   24.5910 C   0  0  0  0  0  0  0  0  0  0  0  0
  -21.9800   -4.5290   23.5400 C   0  0  0  0  0  3  0  0  0  0  0  0
  -22.2760   -5.2540   22.3730 C   0  0  0  0  0  0  0  0  0  0  0  0
  -22.9330   -4.6480   21.3540 F   0  0  0  0  0  0  0  0  0  0  0  0
  -20.9920   -4.4450   25.7120 F   0  0  0  0  0  0  0  0  0  0  0  0
  -23.1630  -13.9030   21.1890 C   0  0  0  0  0  0  0  0  0  0  0  0
  -22.5250  -13.1610   22.0840 N   0  0  0  0  0  0  0  0  0  0  0  0
  -22.6730  -14.9460   20.7550 O   0  0  0  0  0  0  0  0  0  0  0  0
  -22.9370  -12.3170   22.4540 H   0  0  0  0  0  0  0  0  0  0  0  0
  -21.6060  -13.4400   22.4010 H   0  0  0  0  0  0  0  0  0  0  0  0
  -25.6950  -15.6520   20.2910 N   0  0  0  0  0  0  0  0  0  0  0  0
  -24.9120  -16.2650   20.4910 H   0  0  0  0  0  0  0  0  0  0  0  0
  -26.4630  -16.1320   19.8400 H   0  0  0  0  0  0  0  0  0  0  0  0
  -30.9520  -19.6410   22.8680 C   0  0  0  0  0  1  0  0  0  0  0  0
  -33.2940  -18.8340   22.2700 C   0  0  0  0  0  1  0  0  0  0  0  0
  -31.7960  -18.7410   21.9300 C   0  0  0  0  0  3  0  0  0  0  0  0
  -27.7730  -24.8360   18.8830 C   0  0  0  0  0  2  0  0  0  0  0  0
  -28.0460  -26.4170   19.1780 O   0  0  0  0  0  0  0  0  0  0  0  0
  -24.4520  -31.7700   23.0630 C   0  0  0  0  0  0  0  0  0  0  0  0
  -26.9730  -27.4390   19.3100 C   0  0  0  0  0  0  0  0  0  0  0  0
  -23.1730  -30.4410   21.4320 C   0  0  0  0  0  3  0  0  0  0  0  0
  -24.5530  -29.1030   19.7060 C   0  0  0  0  0  0  0  0  0  0  0  0
  -25.6810  -30.8810   21.0240 C   0  0  0  0  0  2  0  0  0  0  0  0
  -25.7740  -29.5490   20.2300 C   0  0  0  0  0  0  0  0  0  0  0  0
  -26.9730  -28.7370   20.0160 C   0  0  0  0  0  3  0  0  0  0  0  0
  -25.7090  -27.1480   18.7460 C   0  0  0  0  0  3  0  0  0  0  0  0
  -24.5400  -27.9250   18.9430 C   0  0  0  0  0  3  0  0  0  0  0  0
  -23.2870  -29.9100   19.9770 C   0  0  0  0  0  2  0  0  0  0  0  0
  -24.4620  -31.0550   21.8930 N   0  0  0  0  0  0  0  0  0  0  0  0
  -23.4150  -31.9190   23.7280 O   0  0  0  0  0  0  0  0  0  0  0  0
  -22.6710  -29.3050   22.3610 C   0  0  0  0  0  0  0  0  0  0  0  0
  -21.3680  -28.9740   22.2900 N   0  0  0  0  0  0  0  0  0  0  0  0
  -23.4560  -28.7260   23.1140 O   0  0  0  0  0  0  0  0  0  0  0  0
  -20.7790  -29.5020   21.6610 H   0  0  0  0  0  0  0  0  0  0  0  0
  -18.2240  -27.2400   22.8100 C   0  0  0  0  0  0  0  0  0  0  0  0
  -20.7160  -27.8950   23.0400 C   0  0  0  0  0  3  0  0  0  0  0  0
  -21.0260  -26.5150   22.4150 C   0  0  0  0  0  2  0  0  0  0  0  0
  -19.9650  -26.0600   21.4060 C   0  0  0  0  0  2  0  0  0  0  0  0
  -18.5930  -25.9620   22.0780 C   0  0  0  0  0  2  0  0  0  0  0  0
  -19.2190  -28.1560   23.2480 C   0  0  0  0  0  0  0  0  0  0  0  0
  -18.8140  -29.3420   23.8970 C   0  0  0  0  0  3  0  0  0  0  0  0
  -17.4500  -29.6200   24.1090 C   0  0  0  0  0  3  0  0  0  0  0  0
  -16.4730  -28.7050   23.6850 C   0  0  0  0  0  3  0  0  0  0  0  0
  -16.8610  -27.5170   23.0400 C   0  0  0  0  0  3  0  0  0  0  0  0
  -25.7400  -32.4550   23.6100 C   0  0  0  0  0  3  0  0  0  0  0  0
  -25.3920  -33.8350   23.9900 N   0  0  0  0  0  0  0  0  0  0  0  0
  -25.6450  -34.9210   23.2480 C   0  0  0  0  0  0  0  0  0  0  0  0
  -26.2660  -34.8700   22.1830 O   0  0  0  0  0  0  0  0  0  0  0  0
  -24.8410  -33.9450   24.8280 H   0  0  0  0  0  0  0  0  0  0  0  0
  -23.8480  -36.6690   23.0320 C   0  0  0  0  0  1  0  0  0  0  0  0
  -25.1380  -36.2810   23.7710 C   0  0  0  0  0  3  0  0  0  0  0  0
  -27.2720  -37.2250   24.5410 C   0  0  0  0  0  1  0  0  0  0  0  0
  -26.1300  -37.3740   23.6430 N   0  0  0  0  0  0  0  0  0  0  0  0
  -25.6960  -38.2750   23.8290 H   0  0  0  0  0  0  0  0  0  0  0  0
  -26.3640  -31.6960   24.8460 C   0  0  1  0  0  0  0  0  0  0  0  0
  -25.3500  -31.4100   25.9800 C   0  0  0  0  0  1  0  0  0  0  0  0
  -26.9750  -30.3450   24.4110 C   0  0  0  0  0  1  0  0  0  0  0  0
  -27.5200  -32.5290   25.4460 C   0  0  0  0  0  1  0  0  0  0  0  0
  1  2  2  0
  1  4  1  0
  2  3  1  0
  3  5  2  0
  3  8  1  0
  4 11  2  0
  5  9  1  0
  6 12  1  0
  7 10  1  0
  7  2  1  0
  7  6  1  0
  8 22  1  0
  8 12  1  0
 11  5  1  0
 12 54  1  0
 12 13  1  6
 14 22  1  0
 15 20  1  0
 16 17  1  0
 16 15  1  0
 18 17  1  0
 18 27  1  0
 18 19  1  0
 20 14  1  0
 20 19  1  0
 21 14  2  0
 23 22  1  0
 24 25  2  0
 25 44  1  0
 26 29  1  0
 26 25  1  0
 27 28  1  0
 27 24  1  0
 28 26  2  0
 29 30  1  0
 30 31  2  0
 32 35  1  0
 32 31  1  0
 33 32  2  0
 34 33  1  0
 34 29  2  0
 35 36  1  0
 36 41  2  0
 36 37  1  0
 37 38  2  0
 38 39  1  0
 39 43  1  0
 40 39  2  0
 41 40  1  0
 42 41  1  0
 44 45  1  0
 45 48  1  0
 45 47  1  0
 46 44  2  0
 49 24  1  0
 49 50  1  0
 51 49  1  0
 54 53  1  0
 54 52  1  0
 55 56  1  0
 55  4  1  0
 56 58  1  0
 57 68  2  0
 58 63  1  0
 59 67  1  0
 59 69  1  0
 60 66  1  0
 60 62  1  0
 61 67  1  0
 62 61  1  0
 63 62  2  0
 64 65  1  0
 64 58  2  0
 65 60  2  0
 66 59  1  0
 67 57  1  0
 69 71  2  0
 70 69  1  0
 72 70  1  0
 73 82  2  0
 73 78  1  0
 74 70  1  0
 74 78  1  0
 75 74  1  0
 76 77  1  0
 76 75  1  0
 77 73  1  0
 78 79  2  0
 79 80  1  0
 81 80  2  0
 82 81  1  0
 83 57  1  0
 83 84  1  0
 83 93  1  0
 84 87  1  0
 85 89  1  0
 85 84  1  0
 86 85  2  0
 89 88  1  0
 91 89  1  0
 91 92  1  0
 91 90  1  0
 93 96  1  1
 93 94  1  0
 95 93  1  0
M  ISO  4  14 100  22 100  55 101  56 101
M  END
>  <TORSDO>  (86) 
F 18

>  <SCORE>  (86) 
-11.034

>  <name>  (86) 
86

>  <ligand_id>  (86) 
86

>  <original_smiles>  (86) 
[H]c1c([H])c([H])c2c(c1[H])C([H])([H])C([H])([H])C([H])([H])C2([H])N([H])C(=O)C1([H])N(C(=O)C([H])(N([H])C(=O)C([H])(N([H])C([H])([H])[H])C([H])([H])[H])C(C([H])([H])[H])(C([H])([H])[H])C([H])([H])[H])C([H])([H])c2c([H])c(OC([H])([H])c3nc(C([H])([H])[H])c4c(c3[H])C([H])(C([H])([H])[H])C([H])([H])[N+]([H])(C([H])(C([H])([H])[H])C([H])([H])[H])C4([H])N([H])C(=O)N3C([H])([H])C([H])([H])C([H])([H])C([H])(n4nc(-c5c([H])c([H])c(Oc6c([H])c([H])c(F)c([H])c6F)c([H])c5[H])c(C(=O)N([H])[H])c4N([H])[H])C3([H])[H])c([H])c([H])c2C1([H])[H]

>  <smiles>  (86) 
[H]c1c([H])c([H])c2c(c1[H])C([H])([H])C([H])([H])C([H])([H])C2([H])N([H])C(=O)C1([H])N(C(=O)C([H])(N([H])C(=O)C([H])(N([H])C([H])([H])[H])C([H])([H])[H])C(C([H])([H])[H])(C([H])([H])[H])C([H])([H])[H])C([H])([H])c2c([H])c(OC([H])([H])c3nc(C([H])([H])[H])c4c(c3[H])C([H])(C([H])([H])[H])C([H])([H])[N+]([H])(C([H])(C([H])([H])[H])C([H])([H])[H])C4([H])N([H])C(=O)N3C([H])([H])C([H])([H])C([H])([H])C([H])(n4nc(-c5c([H])c([H])c(Oc6c([H])c([H])c(F)c([H])c6F)c([H])c5[H])c(C(=O)N([H])[H])c4N([H])[H])C3([H])[H])c([H])c([H])c2C1([H])[H]

$$$$
87:0:0
     RDKit          3D

 93102  0  0  1  0  0  0  0  0999 V2000
  -30.6010  -21.0820   21.1780 C   0  0  0  0  0  3  0  0  0  0  0  0
  -30.9220  -22.4280   21.4650 C   0  0  0  0  0  3  0  0  0  0  0  0
  -29.4260  -20.7170   20.4920 C   0  0  0  0  0  0  0  0  0  0  0  0
  -28.5750  -21.8960   20.1240 C   0  0  0  0  0  0  0  0  0  0  0  0
  -28.8800  -23.3380   20.4110 C   0  0  0  0  0  0  0  0  0  0  0  0
  -30.1030  -23.5250   21.1040 C   0  0  0  0  0  0  0  0  0  0  0  0
  -27.2750  -21.6170   19.3900 C   0  0  0  0  0  1  0  0  0  0  0  0
  -30.6530  -25.1000   21.5520 Cl  0  0  0  0  0  0  0  0  0  0  0  0
  -30.2590  -18.0150   18.8390 C   0  0  0  0  0  0  0  0  0  0  0  0
  -29.1940  -19.0840   20.2350 C   0  0  0  0  0  3  0  0  0  0  0  0
  -30.1870  -17.7430   20.3550 C   0  0  0  0  0  3  0  0  0  0  0  0
  -30.8990  -17.5410   17.8990 O   0  0  0  0  0  0  0  0  0  0  0  0
  -29.1830  -18.8670   18.7920 O   0  0  0  0  0  0  0  0  0  0  0  0
  -30.5190  -15.0210   20.3450 C   0  0  0  0  0  0  0  0  0  0  0  0
  -30.3800  -12.6770   19.3860 C   0  0  0  0  0  2  0  0  0  0  0  0
  -29.4450  -12.6420   18.1550 C   0  0  0  0  0  2  0  0  0  0  0  0
  -27.9830  -12.4290   18.5900 C   0  0  0  0  0  2  0  0  0  0  0  0
  -27.5810  -13.3440   19.7760 C   0  0  0  0  0  3  0  0  0  0  0  0
  -28.6390  -13.3550   20.8990 C   0  0  0  0  0  2  0  0  0  0  0  0
  -29.9080  -13.7680   20.2870 N   0  0  0  0  0  0  0  0  0  0  0  0
  -31.7190  -15.0700   20.0590 O   0  0  0  0  0  0  0  0  0  0  0  0
  -29.7710  -16.2180   20.5200 N   0  0  0  0  0  0  0  0  0  0  0  0
  -28.7910  -16.0770   20.6980 H   0  0  0  0  0  0  0  0  0  0  0  0
  -25.1990  -13.9120   20.5210 C   0  0  0  0  0  0  0  0  0  0  0  0
  -24.1390  -13.1340   20.8920 C   0  0  0  0  0  0  0  0  0  0  0  0
  -24.6070  -11.7840   20.8570 C   0  0  0  0  0  0  0  0  0  0  0  0
  -26.2450  -13.0390   20.2770 N   0  0  0  0  0  0  0  0  0  0  0  0
  -25.8980  -11.7530   20.5450 N   0  0  0  0  0  0  0  0  0  0  0  0
  -23.8830  -10.5190   21.0430 C   0  0  0  0  0  0  0  0  0  0  0  0
  -24.3180   -9.5480   21.9710 C   0  0  0  0  0  3  0  0  0  0  0  0
  -23.5920   -8.3510   22.1470 C   0  0  0  0  0  3  0  0  0  0  0  0
  -22.4170   -8.1140   21.3940 C   0  0  0  0  0  0  0  0  0  0  0  0
  -22.0020   -9.0750   20.4540 C   0  0  0  0  0  3  0  0  0  0  0  0
  -22.7280  -10.2640   20.2770 C   0  0  0  0  0  3  0  0  0  0  0  0
  -21.6630   -6.9690   21.4780 O   0  0  0  0  0  0  0  0  0  0  0  0
  -21.6170   -6.2210   22.6270 C   0  0  0  0  0  0  0  0  0  0  0  0
  -21.1870   -6.7680   23.8570 C   0  0  0  0  0  3  0  0  0  0  0  0
  -21.0890   -5.9460   24.9970 C   0  0  0  0  0  3  0  0  0  0  0  0
  -21.4110   -4.5790   24.9100 C   0  0  0  0  0  0  0  0  0  0  0  0
  -21.8350   -4.0310   23.6860 C   0  0  0  0  0  3  0  0  0  0  0  0
  -21.9340   -4.8500   22.5470 C   0  0  0  0  0  0  0  0  0  0  0  0
  -22.3230   -4.3130   21.3660 F   0  0  0  0  0  0  0  0  0  0  0  0
  -21.3100   -3.7870   26.0030 F   0  0  0  0  0  0  0  0  0  0  0  0
  -22.7410  -13.6070   21.1610 C   0  0  0  0  0  0  0  0  0  0  0  0
  -22.0130  -12.9100   22.0260 N   0  0  0  0  0  0  0  0  0  0  0  0
  -22.3020  -14.6310   20.6390 O   0  0  0  0  0  0  0  0  0  0  0  0
  -22.3810  -12.0820   22.4710 H   0  0  0  0  0  0  0  0  0  0  0  0
  -21.0750  -13.2110   22.2500 H   0  0  0  0  0  0  0  0  0  0  0  0
  -25.3560  -15.2840   20.3440 N   0  0  0  0  0  0  0  0  0  0  0  0
  -24.5770  -15.9260   20.4440 H   0  0  0  0  0  0  0  0  0  0  0  0
  -26.1800  -15.7240   19.9560 H   0  0  0  0  0  0  0  0  0  0  0  0
  -27.9330  -24.6540   20.0320 C   0  0  0  0  0  2  0  0  0  0  0  0
  -28.2240  -26.1770   20.2660 O   0  0  0  0  0  0  0  0  0  0  0  0
  -24.6110  -31.8860   23.2500 C   0  0  0  0  0  0  0  0  0  0  0  0
  -27.1770  -27.1750   20.1910 C   0  0  0  0  0  0  0  0  0  0  0  0
  -23.4070  -30.4960   21.6100 C   0  0  0  0  0  3  0  0  0  0  0  0
  -24.8510  -28.9300   20.1710 C   0  0  0  0  0  0  0  0  0  0  0  0
  -25.9610  -30.7600   21.4380 C   0  0  0  0  0  2  0  0  0  0  0  0
  -26.0330  -29.3700   20.7790 C   0  0  0  0  0  0  0  0  0  0  0  0
  -27.1960  -28.5100   20.7720 C   0  0  0  0  0  3  0  0  0  0  0  0
  -25.9690  -26.8420   19.5380 C   0  0  0  0  0  3  0  0  0  0  0  0
  -24.8330  -27.6800   19.5340 C   0  0  0  0  0  3  0  0  0  0  0  0
  -23.6240  -29.8260   20.2270 C   0  0  0  0  0  2  0  0  0  0  0  0
  -24.6800  -31.0690   22.1540 N   0  0  0  0  0  0  0  0  0  0  0  0
  -23.5270  -32.1670   23.7820 O   0  0  0  0  0  0  0  0  0  0  0  0
  -22.7320  -29.4840   22.5700 C   0  0  0  0  0  0  0  0  0  0  0  0
  -21.4040  -29.3090   22.4440 N   0  0  0  0  0  0  0  0  0  0  0  0
  -23.4050  -28.8600   23.3940 O   0  0  0  0  0  0  0  0  0  0  0  0
  -20.9160  -29.8630   21.7540 H   0  0  0  0  0  0  0  0  0  0  0  0
  -18.0280  -28.0900   22.9420 C   0  0  0  0  0  0  0  0  0  0  0  0
  -20.5850  -28.3690   23.2140 C   0  0  0  0  0  3  0  0  0  0  0  0
  -20.6970  -26.9360   22.6430 C   0  0  0  0  0  2  0  0  0  0  0  0
  -19.5990  -26.6050   21.6250 C   0  0  0  0  0  2  0  0  0  0  0  0
  -18.2150  -26.7420   22.2660 C   0  0  0  0  0  2  0  0  0  0  0  0
  -19.1420  -28.8600   23.3730 C   0  0  0  0  0  0  0  0  0  0  0  0
  -18.9110  -30.1210   23.9660 C   0  0  0  0  0  3  0  0  0  0  0  0
  -17.6030  -30.6110   24.1310 C   0  0  0  0  0  3  0  0  0  0  0  0
  -16.5050  -29.8390   23.7150 C   0  0  0  0  0  3  0  0  0  0  0  0
  -16.7180  -28.5810   23.1260 C   0  0  0  0  0  3  0  0  0  0  0  0
  -25.8910  -32.5200   23.8750 C   0  0  0  0  0  3  0  0  0  0  0  0
  -25.5810  -33.9200   24.2050 N   0  0  0  0  0  0  0  0  0  0  0  0
  -25.8970  -34.9740   23.4410 C   0  0  0  0  0  0  0  0  0  0  0  0
  -26.5470  -34.8700   22.3980 O   0  0  0  0  0  0  0  0  0  0  0  0
  -25.0010  -34.0750   25.0170 H   0  0  0  0  0  0  0  0  0  0  0  0
  -24.1520  -36.7620   23.1330 C   0  0  0  0  0  1  0  0  0  0  0  0
  -25.4190  -36.3640   23.9070 C   0  0  0  0  0  3  0  0  0  0  0  0
  -27.5730  -37.2650   24.6710 C   0  0  0  0  0  1  0  0  0  0  0  0
  -26.4440  -37.4210   23.7580 N   0  0  0  0  0  0  0  0  0  0  0  0
  -26.0380  -38.3410   23.9090 H   0  0  0  0  0  0  0  0  0  0  0  0
  -26.3990  -31.7530   25.1580 C   0  0  1  0  0  0  0  0  0  0  0  0
  -25.3000  -31.5260   26.2230 C   0  0  0  0  0  1  0  0  0  0  0  0
  -26.9790  -30.3710   24.7800 C   0  0  0  0  0  1  0  0  0  0  0  0
  -27.5510  -32.5460   25.8190 C   0  0  0  0  0  1  0  0  0  0  0  0
  1  2  1  0
  3  1  2  0
  4  5  2  0
  4  3  1  0
  5  6  1  0
  6  2  2  0
  6  8  1  0
  7  4  1  0
  9 11  1  0
 10 11  1  0
 10  3  1  0
 11 22  1  0
 12  9  2  0
 13  9  1  0
 13 10  1  0
 14 22  1  0
 15 20  1  0
 16 17  1  0
 16 15  1  0
 18 17  1  0
 18 27  1  0
 18 19  1  0
 20 14  1  0
 20 19  1  0
 21 14  2  0
 22 23  1  0
 24 25  2  0
 25 44  1  0
 26 25  1  0
 26 29  1  0
 27 24  1  0
 27 28  1  0
 28 26  2  0
 29 30  1  0
 30 31  2  0
 32 35  1  0
 32 31  1  0
 33 32  2  0
 34 33  1  0
 34 29  2  0
 35 36  1  0
 36 37  1  0
 37 38  2  0
 39 38  1  0
 39 43  1  0
 40 39  2  0
 41 36  2  0
 41 40  1  0
 42 41  1  0
 44 45  1  0
 45 48  1  0
 45 47  1  0
 46 44  2  0
 49 50  1  0
 49 24  1  0
 51 49  1  0
 52 53  1  0
 52  5  1  0
 54 65  2  0
 55 53  1  0
 55 60  1  0
 56 64  1  0
 56 66  1  0
 57 63  1  0
 57 59  1  0
 58 64  1  0
 59 58  1  0
 60 59  2  0
 61 55  2  0
 62 61  1  0
 62 57  2  0
 63 56  1  0
 64 54  1  0
 66 68  2  0
 67 66  1  0
 69 67  1  0
 70 79  2  0
 70 75  1  0
 71 67  1  0
 71 75  1  0
 72 71  1  0
 73 74  1  0
 73 72  1  0
 74 70  1  0
 75 76  2  0
 76 77  1  0
 78 77  2  0
 79 78  1  0
 80 54  1  0
 80 81  1  0
 80 90  1  0
 81 84  1  0
 82 86  1  0
 82 81  1  0
 83 82  2  0
 86 85  1  0
 88 86  1  0
 88 89  1  0
 88 87  1  0
 90 93  1  1
 90 91  1  0
 92 90  1  0
M  ISO  4  14 100  22 100  52 101  53 101
M  END
>  <TORSDO>  (87) 
F 18

>  <SCORE>  (87) 
-14.963

>  <name>  (87) 
87

>  <ligand_id>  (87) 
87

>  <original_smiles>  (87) 
[H]c1c([H])c([H])c2c(c1[H])C([H])([H])C([H])([H])C([H])([H])C2([H])N([H])C(=O)C1([H])N(C(=O)C([H])(N([H])C(=O)C([H])(N([H])C([H])([H])[H])C([H])([H])[H])C(C([H])([H])[H])(C([H])([H])[H])C([H])([H])[H])C([H])([H])c2c([H])c(OC([H])([H])c3c(Cl)c([H])c([H])c(C4([H])OC(=O)C4([H])N([H])C(=O)N4C([H])([H])C([H])([H])C([H])([H])C([H])(n5nc(-c6c([H])c([H])c(Oc7c([H])c([H])c(F)c([H])c7F)c([H])c6[H])c(C(=O)N([H])[H])c5N([H])[H])C4([H])[H])c3C([H])([H])[H])c([H])c([H])c2C1([H])[H]

>  <smiles>  (87) 
[H]c1c([H])c([H])c2c(c1[H])C([H])([H])C([H])([H])C([H])([H])C2([H])N([H])C(=O)C1([H])N(C(=O)C([H])(N([H])C(=O)C([H])(N([H])C([H])([H])[H])C([H])([H])[H])C(C([H])([H])[H])(C([H])([H])[H])C([H])([H])[H])C([H])([H])c2c([H])c(OC([H])([H])c3c(Cl)c([H])c([H])c(C4([H])OC(=O)C4([H])N([H])C(=O)N4C([H])([H])C([H])([H])C([H])([H])C([H])(n5nc(-c6c([H])c([H])c(Oc7c([H])c([H])c(F)c([H])c7F)c([H])c6[H])c(C(=O)N([H])[H])c5N([H])[H])C4([H])[H])c3C([H])([H])[H])c([H])c([H])c2C1([H])[H]

$$$$
88:0:0
     RDKit          3D

 92102  0  0  1  0  0  0  0  0999 V2000
  -28.9220  -23.3150   20.8860 C   0  0  0  0  0  0  0  0  0  0  0  0
  -29.3820  -23.8470   22.1450 C   0  0  0  0  0  0  0  0  0  0  0  0
  -29.0880  -21.7460   20.8010 C   0  0  0  0  0  0  0  0  0  0  0  0
  -29.8230  -21.8260   23.0440 C   0  0  0  0  0  0  0  0  0  0  0  0
  -30.1350  -19.3520   20.0140 C   0  0  0  0  0  3  0  0  0  0  0  0
  -28.2050  -19.1990   20.3080 C   0  0  0  0  0  3  0  0  0  0  0  0
  -29.1920  -18.1100   19.6270 C   0  0  0  0  0  3  0  0  0  0  0  0
  -29.4720  -25.3300   22.5000 C   0  0  0  0  0  1  0  0  0  0  0  0
  -30.2900  -20.9970   24.2210 C   0  0  0  0  0  1  0  0  0  0  0  0
  -29.8120  -23.1190   23.1780 N   0  0  0  0  0  0  0  0  0  0  0  0
  -29.4910  -21.1810   21.9560 N   0  0  0  0  0  0  0  0  0  0  0  0
  -29.0280  -20.4300   19.9150 N   0  0  0  0  0  0  0  0  0  0  0  0
  -30.1520  -15.3830   19.9650 C   0  0  0  0  0  0  0  0  0  0  0  0
  -30.2270  -12.9350   19.1700 C   0  0  0  0  0  2  0  0  0  0  0  0
  -29.2560  -12.6910   17.9860 C   0  0  0  0  0  2  0  0  0  0  0  0
  -27.8410  -12.3700   18.4950 C   0  0  0  0  0  2  0  0  0  0  0  0
  -27.4020  -13.3290   19.6320 C   0  0  0  0  0  3  0  0  0  0  0  0
  -28.4930  -13.5220   20.7070 C   0  0  0  0  0  2  0  0  0  0  0  0
  -29.6820  -14.0500   20.0200 N   0  0  0  0  0  0  0  0  0  0  0  0
  -31.3210  -15.4950   19.5710 O   0  0  0  0  0  0  0  0  0  0  0  0
  -29.2990  -16.5550   20.1560 N   0  0  0  0  0  0  0  0  0  0  0  0
  -28.4300  -16.2650   20.5800 H   0  0  0  0  0  0  0  0  0  0  0  0
  -25.0690  -13.7810   20.5630 C   0  0  0  0  0  0  0  0  0  0  0  0
  -24.0570  -12.9550   20.9670 C   0  0  0  0  0  0  0  0  0  0  0  0
  -24.5610  -11.6230   20.8400 C   0  0  0  0  0  0  0  0  0  0  0  0
  -26.1170  -12.9520   20.2080 N   0  0  0  0  0  0  0  0  0  0  0  0
  -25.8270  -11.6450   20.4410 N   0  0  0  0  0  0  0  0  0  0  0  0
  -23.8860  -10.3310   21.0180 C   0  0  0  0  0  0  0  0  0  0  0  0
  -24.3490   -9.3750   21.9500 C   0  0  0  0  0  3  0  0  0  0  0  0
  -23.6690   -8.1500   22.1170 C   0  0  0  0  0  3  0  0  0  0  0  0
  -22.5110   -7.8690   21.3530 C   0  0  0  0  0  0  0  0  0  0  0  0
  -22.0670   -8.8130   20.4110 C   0  0  0  0  0  3  0  0  0  0  0  0
  -22.7480  -10.0310   20.2410 C   0  0  0  0  0  3  0  0  0  0  0  0
  -21.8010   -6.6950   21.4300 O   0  0  0  0  0  0  0  0  0  0  0  0
  -21.6860   -6.0000   22.6080 C   0  0  0  0  0  0  0  0  0  0  0  0
  -21.1120   -6.5770   23.7610 C   0  0  0  0  0  3  0  0  0  0  0  0
  -20.9490   -5.8060   24.9280 C   0  0  0  0  0  3  0  0  0  0  0  0
  -21.3520   -4.4560   24.9430 C   0  0  0  0  0  0  0  0  0  0  0  0
  -21.9190   -3.8780   23.7930 C   0  0  0  0  0  3  0  0  0  0  0  0
  -22.0820   -4.6480   22.6280 C   0  0  0  0  0  0  0  0  0  0  0  0
  -22.6100   -4.0790   21.5170 F   0  0  0  0  0  0  0  0  0  0  0  0
  -21.1890   -3.7110   26.0620 F   0  0  0  0  0  0  0  0  0  0  0  0
  -22.6690  -13.3740   21.3520 C   0  0  0  0  0  0  0  0  0  0  0  0
  -22.0270  -12.6240   22.2390 N   0  0  0  0  0  0  0  0  0  0  0  0
  -22.1640  -14.4010   20.9000 O   0  0  0  0  0  0  0  0  0  0  0  0
  -22.4490  -11.7930   22.6250 H   0  0  0  0  0  0  0  0  0  0  0  0
  -21.0980  -12.8850   22.5400 H   0  0  0  0  0  0  0  0  0  0  0  0
  -25.1780  -15.1640   20.4380 N   0  0  0  0  0  0  0  0  0  0  0  0
  -24.3950  -15.7830   20.6240 H   0  0  0  0  0  0  0  0  0  0  0  0
  -25.9670  -15.6400   20.0230 H   0  0  0  0  0  0  0  0  0  0  0  0
  -28.3130  -24.6140   19.9380 C   0  0  0  0  0  2  0  0  0  0  0  0
  -28.3080  -26.2340   20.1410 O   0  0  0  0  0  0  0  0  0  0  0  0
  -24.6330  -31.9720   23.1940 C   0  0  0  0  0  0  0  0  0  0  0  0
  -27.2350  -27.2420   20.0730 C   0  0  0  0  0  0  0  0  0  0  0  0
  -23.4370  -30.5820   21.5470 C   0  0  0  0  0  3  0  0  0  0  0  0
  -24.8930  -29.0300   20.0810 C   0  0  0  0  0  0  0  0  0  0  0  0
  -25.9920  -30.8570   21.3650 C   0  0  0  0  0  2  0  0  0  0  0  0
  -26.0760  -29.4650   20.6880 C   0  0  0  0  0  0  0  0  0  0  0  0
  -27.2410  -28.5910   20.6600 C   0  0  0  0  0  3  0  0  0  0  0  0
  -26.0210  -26.9340   19.4210 C   0  0  0  0  0  3  0  0  0  0  0  0
  -24.8840  -27.7850   19.4280 C   0  0  0  0  0  3  0  0  0  0  0  0
  -23.6570  -29.9220   20.1560 C   0  0  0  0  0  2  0  0  0  0  0  0
  -24.7080  -31.1630   22.0900 N   0  0  0  0  0  0  0  0  0  0  0  0
  -23.5470  -32.2360   23.7340 O   0  0  0  0  0  0  0  0  0  0  0  0
  -22.7750  -29.5600   22.5050 C   0  0  0  0  0  0  0  0  0  0  0  0
  -21.4560  -29.3400   22.3580 N   0  0  0  0  0  0  0  0  0  0  0  0
  -23.4550  -28.9640   23.3450 O   0  0  0  0  0  0  0  0  0  0  0  0
  -20.9620  -29.8740   21.6560 H   0  0  0  0  0  0  0  0  0  0  0  0
  -18.1300  -27.9560   22.7690 C   0  0  0  0  0  0  0  0  0  0  0  0
  -20.6580  -28.3720   23.1180 C   0  0  0  0  0  3  0  0  0  0  0  0
  -20.8600  -26.9370   22.5770 C   0  0  0  0  0  2  0  0  0  0  0  0
  -19.8170  -26.5350   21.5310 C   0  0  0  0  0  2  0  0  0  0  0  0
  -18.4060  -26.6090   22.1230 C   0  0  0  0  0  2  0  0  0  0  0  0
  -19.1860  -28.7910   23.2220 C   0  0  0  0  0  0  0  0  0  0  0  0
  -18.8720  -30.0460   23.7860 C   0  0  0  0  0  3  0  0  0  0  0  0
  -17.5350  -30.4700   23.9010 C   0  0  0  0  0  3  0  0  0  0  0  0
  -16.4920  -29.6330   23.4640 C   0  0  0  0  0  3  0  0  0  0  0  0
  -16.7900  -28.3780   22.9060 C   0  0  0  0  0  3  0  0  0  0  0  0
  -25.9060  -32.6200   23.8220 C   0  0  0  0  0  3  0  0  0  0  0  0
  -25.5790  -34.0150   24.1650 N   0  0  0  0  0  0  0  0  0  0  0  0
  -25.8810  -35.0810   23.4120 C   0  0  0  0  0  0  0  0  0  0  0  0
  -26.5260  -34.9940   22.3650 O   0  0  0  0  0  0  0  0  0  0  0  0
  -25.0030  -34.1530   24.9810 H   0  0  0  0  0  0  0  0  0  0  0  0
  -24.1120  -36.8520   23.1370 C   0  0  0  0  0  1  0  0  0  0  0  0
  -25.3910  -36.4620   23.8950 C   0  0  0  0  0  3  0  0  0  0  0  0
  -27.5400  -37.3820   24.6490 C   0  0  0  0  0  1  0  0  0  0  0  0
  -26.4020  -37.5320   23.7460 N   0  0  0  0  0  0  0  0  0  0  0  0
  -25.9880  -38.4460   23.9070 H   0  0  0  0  0  0  0  0  0  0  0  0
  -26.4260  -31.8520   25.1010 C   0  0  1  0  0  0  0  0  0  0  0  0
  -25.3310  -31.6020   26.1650 C   0  0  0  0  0  1  0  0  0  0  0  0
  -27.0260  -30.4810   24.7140 C   0  0  0  0  0  1  0  0  0  0  0  0
  -27.5650  -32.6590   25.7670 C   0  0  0  0  0  1  0  0  0  0  0  0
  1  2  2  0
  2  8  1  0
  2 10  1  0
  3  1  1  0
  3 11  2  0
  4 10  2  0
  4  9  1  0
  5 12  1  0
  5  6  1  0
  6 12  1  0
  7  5  1  0
  7 21  1  0
  7  6  1  0
 11  4  1  0
 12  3  1  0
 13 19  1  0
 13 21  1  0
 14 19  1  0
 15 16  1  0
 15 14  1  0
 17 16  1  0
 17 26  1  0
 17 18  1  0
 19 18  1  0
 20 13  2  0
 21 22  1  0
 23 24  2  0
 24 43  1  0
 25 24  1  0
 25 28  1  0
 26 27  1  0
 26 23  1  0
 27 25  2  0
 28 29  1  0
 29 30  2  0
 31 34  1  0
 31 30  1  0
 32 31  2  0
 33 32  1  0
 33 28  2  0
 34 35  1  0
 35 40  2  0
 35 36  1  0
 36 37  2  0
 37 38  1  0
 38 42  1  0
 39 38  2  0
 40 39  1  0
 41 40  1  0
 43 44  1  0
 44 47  1  0
 44 46  1  0
 45 43  2  0
 48 23  1  0
 48 49  1  0
 50 48  1  0
 51 52  1  0
 51  1  1  0
 53 64  2  0
 54 52  1  0
 54 59  1  0
 55 63  1  0
 55 65  1  0
 56 62  1  0
 56 58  1  0
 57 63  1  0
 58 57  1  0
 59 58  2  0
 60 61  1  0
 60 54  2  0
 61 56  2  0
 62 55  1  0
 63 53  1  0
 65 67  2  0
 66 65  1  0
 68 66  1  0
 69 78  2  0
 69 74  1  0
 70 66  1  0
 70 74  1  0
 71 70  1  0
 72 73  1  0
 72 71  1  0
 73 69  1  0
 74 75  2  0
 75 76  1  0
 77 76  2  0
 78 77  1  0
 79 53  1  0
 79 80  1  0
 79 89  1  0
 80 83  1  0
 81 85  1  0
 81 80  1  0
 82 81  2  0
 85 84  1  0
 87 85  1  0
 87 88  1  0
 87 86  1  0
 89 92  1  1
 89 90  1  0
 91 89  1  0
M  ISO  4  13 100  21 100  51 101  52 101
M  END
>  <TORSDO>  (88) 
F 17

>  <SCORE>  (88) 
-16.159

>  <name>  (88) 
88

>  <ligand_id>  (88) 
88

>  <original_smiles>  (88) 
[H]c1c([H])c([H])c2c(c1[H])C([H])([H])C([H])([H])C([H])([H])C2([H])N([H])C(=O)C1([H])N(C(=O)C([H])(N([H])C(=O)C([H])(N([H])C([H])([H])[H])C([H])([H])[H])C(C([H])([H])[H])(C([H])([H])[H])C([H])([H])[H])C([H])([H])c2c([H])c(OC([H])([H])c3c(N4C([H])([H])C([H])(N([H])C(=O)N5C([H])([H])C([H])([H])C([H])([H])C([H])(n6nc(-c7c([H])c([H])c(Oc8c([H])c([H])c(F)c([H])c8F)c([H])c7[H])c(C(=O)N([H])[H])c6N([H])[H])C5([H])[H])C4([H])[H])nc(C([H])([H])[H])nc3C([H])([H])[H])c([H])c([H])c2C1([H])[H]

>  <smiles>  (88) 
[H]c1c([H])c([H])c2c(c1[H])C([H])([H])C([H])([H])C([H])([H])C2([H])N([H])C(=O)C1([H])N(C(=O)C([H])(N([H])C(=O)C([H])(N([H])C([H])([H])[H])C([H])([H])[H])C(C([H])([H])[H])(C([H])([H])[H])C([H])([H])[H])C([H])([H])c2c([H])c(OC([H])([H])c3c(N4C([H])([H])C([H])(N([H])C(=O)N5C([H])([H])C([H])([H])C([H])([H])C([H])(n6nc(-c7c([H])c([H])c(Oc8c([H])c([H])c(F)c([H])c8F)c([H])c7[H])c(C(=O)N([H])[H])c6N([H])[H])C5([H])[H])C4([H])[H])nc(C([H])([H])[H])nc3C([H])([H])[H])c([H])c([H])c2C1([H])[H]

$$$$
89:0:0
     RDKit          3D

 92101  0  0  1  0  0  0  0  0999 V2000
  -28.0860  -22.3680   21.6210 C   0  0  0  0  0  2  0  0  0  0  0  0
  -27.7460  -23.9250   21.6020 C   0  0  0  0  0  2  0  0  0  0  0  0
  -28.5490  -21.8640   20.2230 C   0  0  0  0  0  3  0  0  0  0  0  0
  -28.0160  -24.5690   20.2130 C   0  0  0  0  0  3  0  0  0  0  0  0
  -29.0230  -23.3630   19.6580 C   0  0  2  0  0  0  0  0  0  0  0  0
  -28.9840  -23.3830   18.1190 C   0  0  0  0  0  1  0  0  0  0  0  0
  -30.4630  -23.6630   20.1260 C   0  0  0  0  0  1  0  0  0  0  0  0
  -30.1870  -18.4860   18.8180 C   0  0  0  0  0  2  0  0  0  0  0  0
  -29.9450  -20.0620   18.8510 C   0  0  0  0  0  2  0  0  0  0  0  0
  -29.0050  -19.1090   20.7530 C   0  0  0  0  0  2  0  0  0  0  0  0
  -29.9920  -17.8780   20.2290 C   0  0  0  0  0  3  0  0  0  0  0  0
  -29.4330  -20.5060   20.1850 N   0  0  2  0  0  4  0  0  0  0  0  0
  -30.2630  -20.7340   20.7120 H   0  0  0  0  0  0  0  0  0  0  0  0
  -30.4820  -15.0970   20.1580 C   0  0  0  0  0  0  0  0  0  0  0  0
  -30.3730  -12.7300   19.2190 C   0  0  0  0  0  2  0  0  0  0  0  0
  -29.4120  -12.6510   18.0100 C   0  0  0  0  0  2  0  0  0  0  0  0
  -27.9660  -12.4130   18.4810 C   0  0  0  0  0  2  0  0  0  0  0  0
  -27.5700  -13.3380   19.6610 C   0  0  0  0  0  3  0  0  0  0  0  0
  -28.6520  -13.3820   20.7610 C   0  0  0  0  0  2  0  0  0  0  0  0
  -29.8960  -13.8260   20.1170 N   0  0  0  0  0  0  0  0  0  0  0  0
  -31.6810  -15.1550   19.8600 O   0  0  0  0  0  0  0  0  0  0  0  0
  -29.7050  -16.2960   20.3270 N   0  0  0  0  0  0  0  0  0  0  0  0
  -28.7400  -16.0880   20.5360 H   0  0  0  0  0  0  0  0  0  0  0  0
  -25.2110  -13.8900   20.4750 C   0  0  0  0  0  0  0  0  0  0  0  0
  -24.1620  -13.1040   20.8610 C   0  0  0  0  0  0  0  0  0  0  0  0
  -24.6320  -11.7570   20.7990 C   0  0  0  0  0  0  0  0  0  0  0  0
  -26.2520  -13.0210   20.1920 N   0  0  0  0  0  0  0  0  0  0  0  0
  -25.9150  -11.7320   20.4540 N   0  0  0  0  0  0  0  0  0  0  0  0
  -23.9160  -10.4880   20.9880 C   0  0  0  0  0  0  0  0  0  0  0  0
  -24.3500   -9.5270   21.9260 C   0  0  0  0  0  3  0  0  0  0  0  0
  -23.6290   -8.3250   22.1040 C   0  0  0  0  0  3  0  0  0  0  0  0
  -22.4630   -8.0770   21.3420 C   0  0  0  0  0  0  0  0  0  0  0  0
  -22.0490   -9.0280   20.3930 C   0  0  0  0  0  3  0  0  0  0  0  0
  -22.7690  -10.2200   20.2140 C   0  0  0  0  0  3  0  0  0  0  0  0
  -21.7160   -6.9270   21.4300 O   0  0  0  0  0  0  0  0  0  0  0  0
  -21.6320   -6.2090   22.5950 C   0  0  0  0  0  0  0  0  0  0  0  0
  -21.1420   -6.7820   23.7900 C   0  0  0  0  0  3  0  0  0  0  0  0
  -21.0070   -5.9900   24.9470 C   0  0  0  0  0  3  0  0  0  0  0  0
  -21.3510   -4.6260   24.9120 C   0  0  0  0  0  0  0  0  0  0  0  0
  -21.8340   -4.0520   23.7230 C   0  0  0  0  0  3  0  0  0  0  0  0
  -21.9720   -4.8420   22.5670 C   0  0  0  0  0  0  0  0  0  0  0  0
  -22.4180   -4.2790   21.4180 F   0  0  0  0  0  0  0  0  0  0  0  0
  -21.2140   -3.8630   26.0200 F   0  0  0  0  0  0  0  0  0  0  0  0
  -22.7700  -13.5720   21.1710 C   0  0  0  0  0  0  0  0  0  0  0  0
  -22.0640  -12.8620   22.0460 N   0  0  0  0  0  0  0  0  0  0  0  0
  -22.3170  -14.6020   20.6740 O   0  0  0  0  0  0  0  0  0  0  0  0
  -22.4440  -12.0290   22.4710 H   0  0  0  0  0  0  0  0  0  0  0  0
  -21.1320  -13.1580   22.2960 H   0  0  0  0  0  0  0  0  0  0  0  0
  -25.3610  -15.2640   20.3130 N   0  0  0  0  0  0  0  0  0  0  0  0
  -24.5820  -15.9000   20.4520 H   0  0  0  0  0  0  0  0  0  0  0  0
  -26.1740  -15.7150   19.9150 H   0  0  0  0  0  0  0  0  0  0  0  0
  -28.2310  -26.1450   20.2110 O   0  0  0  0  0  0  0  0  0  0  0  0
  -24.6440  -31.9110   23.2380 C   0  0  0  0  0  0  0  0  0  0  0  0
  -27.1740  -27.1480   20.1810 C   0  0  0  0  0  0  0  0  0  0  0  0
  -23.4290  -30.5270   21.6010 C   0  0  0  0  0  3  0  0  0  0  0  0
  -24.8620  -28.9440   20.1640 C   0  0  0  0  0  0  0  0  0  0  0  0
  -25.9870  -30.7660   21.4280 C   0  0  0  0  0  2  0  0  0  0  0  0
  -26.0500  -29.3700   20.7710 C   0  0  0  0  0  0  0  0  0  0  0  0
  -27.2030  -28.4910   20.7590 C   0  0  0  0  0  3  0  0  0  0  0  0
  -25.9580  -26.8420   19.5290 C   0  0  0  0  0  3  0  0  0  0  0  0
  -24.8330  -27.6960   19.5250 C   0  0  0  0  0  3  0  0  0  0  0  0
  -23.6420  -29.8530   20.2200 C   0  0  0  0  0  2  0  0  0  0  0  0
  -24.7080  -31.0900   22.1430 N   0  0  0  0  0  0  0  0  0  0  0  0
  -23.5620  -32.1990   23.7720 O   0  0  0  0  0  0  0  0  0  0  0  0
  -22.7470  -29.5230   22.5630 C   0  0  0  0  0  0  0  0  0  0  0  0
  -21.4170  -29.3560   22.4390 N   0  0  0  0  0  0  0  0  0  0  0  0
  -23.4160  -28.8960   23.3890 O   0  0  0  0  0  0  0  0  0  0  0  0
  -20.9320  -29.9140   21.7490 H   0  0  0  0  0  0  0  0  0  0  0  0
  -18.0340  -28.1590   22.9460 C   0  0  0  0  0  0  0  0  0  0  0  0
  -20.5940  -28.4190   23.2090 C   0  0  0  0  0  3  0  0  0  0  0  0
  -20.6930  -26.9870   22.6340 C   0  0  0  0  0  2  0  0  0  0  0  0
  -19.5890  -26.6660   21.6220 C   0  0  0  0  0  2  0  0  0  0  0  0
  -18.2080  -26.8100   22.2670 C   0  0  0  0  0  2  0  0  0  0  0  0
  -19.1540  -28.9210   23.3750 C   0  0  0  0  0  0  0  0  0  0  0  0
  -18.9350  -30.1820   23.9720 C   0  0  0  0  0  3  0  0  0  0  0  0
  -17.6310  -30.6810   24.1450 C   0  0  0  0  0  3  0  0  0  0  0  0
  -16.5260  -29.9160   23.7310 C   0  0  0  0  0  3  0  0  0  0  0  0
  -16.7280  -28.6570   23.1360 C   0  0  0  0  0  3  0  0  0  0  0  0
  -25.9270  -32.5390   23.8610 C   0  0  0  0  0  3  0  0  0  0  0  0
  -25.6200  -33.9390   24.2050 N   0  0  0  0  0  0  0  0  0  0  0  0
  -25.9290  -34.9980   23.4470 C   0  0  0  0  0  0  0  0  0  0  0  0
  -26.5670  -34.9040   22.3950 O   0  0  0  0  0  0  0  0  0  0  0  0
  -25.0480  -34.0850   25.0230 H   0  0  0  0  0  0  0  0  0  0  0  0
  -24.1810  -36.7900   23.1770 C   0  0  0  0  0  1  0  0  0  0  0  0
  -25.4570  -36.3850   23.9300 C   0  0  0  0  0  3  0  0  0  0  0  0
  -27.6200  -37.2800   24.6730 C   0  0  0  0  0  1  0  0  0  0  0  0
  -26.4780  -37.4450   23.7770 N   0  0  0  0  0  0  0  0  0  0  0  0
  -26.0730  -38.3610   23.9450 H   0  0  0  0  0  0  0  0  0  0  0  0
  -26.4380  -31.7630   25.1360 C   0  0  1  0  0  0  0  0  0  0  0  0
  -25.3450  -31.5290   26.2050 C   0  0  0  0  0  1  0  0  0  0  0  0
  -27.0140  -30.3820   24.7450 C   0  0  0  0  0  1  0  0  0  0  0  0
  -27.5950  -32.5490   25.7990 C   0  0  0  0  0  1  0  0  0  0  0  0
  2  1  1  0
  3  1  1  0
  4 52  1  0
  4  2  1  0
  5  7  1  6
  5  4  1  0
  5  3  1  0
  6  5  1  0
  8  9  1  0
  8 11  1  0
  9 12  1  0
 11 22  1  0
 11 10  1  0
 12  3  1  0
 12 13  1  1
 12 10  1  0
 14 22  1  0
 15 20  1  0
 16 17  1  0
 16 15  1  0
 18 17  1  0
 18 27  1  0
 18 19  1  0
 20 14  1  0
 20 19  1  0
 21 14  2  0
 22 23  1  0
 24 25  2  0
 25 44  1  0
 26 25  1  0
 26 29  1  0
 27 28  1  0
 27 24  1  0
 28 26  2  0
 29 30  1  0
 30 31  2  0
 32 35  1  0
 32 31  1  0
 33 32  2  0
 34 33  1  0
 34 29  2  0
 35 36  1  0
 36 37  1  0
 37 38  2  0
 39 38  1  0
 39 43  1  0
 40 39  2  0
 41 36  2  0
 41 40  1  0
 42 41  1  0
 44 45  1  0
 45 48  1  0
 45 47  1  0
 46 44  2  0
 49 50  1  0
 49 24  1  0
 51 49  1  0
 53 64  2  0
 54 52  1  0
 54 59  1  0
 55 63  1  0
 55 65  1  0
 56 62  1  0
 56 58  1  0
 57 63  1  0
 58 57  1  0
 59 58  2  0
 60 54  2  0
 61 60  1  0
 61 56  2  0
 62 55  1  0
 63 53  1  0
 65 67  2  0
 66 65  1  0
 68 66  1  0
 69 78  2  0
 69 74  1  0
 70 66  1  0
 70 74  1  0
 71 70  1  0
 72 73  1  0
 72 71  1  0
 73 69  1  0
 74 75  2  0
 75 76  1  0
 77 76  2  0
 78 77  1  0
 79 53  1  0
 79 80  1  0
 79 89  1  0
 80 83  1  0
 81 85  1  0
 81 80  1  0
 82 81  2  0
 85 84  1  0
 87 85  1  0
 87 88  1  0
 87 86  1  0
 89 92  1  1
 89 90  1  0
 91 89  1  0
M  ISO  4   4 101  14 100  22 100  52 101
M  END
>  <TORSDO>  (89) 
F 17

>  <SCORE>  (89) 
-15.102

>  <name>  (89) 
89

>  <ligand_id>  (89) 
89

>  <original_smiles>  (89) 
[H]c1c([H])c([H])c2c(c1[H])C([H])([H])C([H])([H])C([H])([H])C2([H])N([H])C(=O)C1([H])N(C(=O)C([H])(N([H])C(=O)C([H])(N([H])C([H])([H])[H])C([H])([H])[H])C(C([H])([H])[H])(C([H])([H])[H])C([H])([H])[H])C([H])([H])c2c([H])c(OC3([H])C([H])([H])C([H])([H])C([H])([N+]4([H])C([H])([H])C([H])([H])C([H])(N([H])C(=O)N5C([H])([H])C([H])([H])C([H])([H])C([H])(n6nc(-c7c([H])c([H])c(Oc8c([H])c([H])c(F)c([H])c8F)c([H])c7[H])c(C(=O)N([H])[H])c6N([H])[H])C5([H])[H])C4([H])[H])C3(C([H])([H])[H])C([H])([H])[H])c([H])c([H])c2C1([H])[H]

>  <smiles>  (89) 
[H]c1c([H])c([H])c2c(c1[H])C([H])([H])C([H])([H])C([H])([H])C2([H])N([H])C(=O)C1([H])N(C(=O)C([H])(N([H])C(=O)C([H])(N([H])C([H])([H])[H])C([H])([H])[H])C(C([H])([H])[H])(C([H])([H])[H])C([H])([H])[H])C([H])([H])c2c([H])c(OC3([H])C([H])([H])C([H])([H])C([H])([N+]4([H])C([H])([H])C([H])([H])C([H])(N([H])C(=O)N5C([H])([H])C([H])([H])C([H])([H])C([H])(n6nc(-c7c([H])c([H])c(Oc8c([H])c([H])c(F)c([H])c8F)c([H])c7[H])c(C(=O)N([H])[H])c6N([H])[H])C5([H])[H])C4([H])[H])C3(C([H])([H])[H])C([H])([H])[H])c([H])c([H])c2C1([H])[H]

$$$$
90:0:0
     RDKit          3D

 94103  0  0  1  0  0  0  0  0999 V2000
  -27.1460  -22.3380   18.7750 C   0  0  0  0  0  3  0  0  0  0  0  0
  -28.2370  -22.1420   19.5890 C   0  0  0  0  0  0  0  0  0  0  0  0
  -27.5570  -20.1730   18.6460 C   0  0  0  0  0  3  0  0  0  0  0  0
  -28.4900  -20.6860   19.5090 N   0  0  0  0  0  0  0  0  0  0  0  0
  -26.7820  -21.1640   18.2290 N   0  0  0  0  0  0  0  0  0  0  0  0
  -26.0180  -21.0540   17.5720 H   0  0  0  0  0  0  0  0  0  0  0  0
  -30.9300  -15.0530   20.0320 C   0  0  0  0  0  0  0  0  0  0  0  0
  -30.6450  -12.7530   19.0430 C   0  0  0  0  0  2  0  0  0  0  0  0
  -29.6460  -12.7350   17.8690 C   0  0  0  0  0  2  0  0  0  0  0  0
  -28.2150  -12.5230   18.3920 C   0  0  0  0  0  2  0  0  0  0  0  0
  -27.8820  -13.4360   19.6040 C   0  0  0  0  0  3  0  0  0  0  0  0
  -29.0070  -13.4430   20.6590 C   0  0  0  0  0  2  0  0  0  0  0  0
  -30.2310  -13.8530   19.9600 N   0  0  0  0  0  0  0  0  0  0  0  0
  -32.1240  -14.9950   19.7200 O   0  0  0  0  0  0  0  0  0  0  0  0
  -30.3690  -18.8460   19.0300 C   0  0  0  0  0  2  0  0  0  0  0  0
  -28.8820  -18.4530   21.0030 C   0  0  0  0  0  2  0  0  0  0  0  0
  -31.0950  -17.4930   19.4410 C   0  0  0  0  0  2  0  0  0  0  0  0
  -29.5100  -16.9630   21.1290 C   0  0  0  0  0  2  0  0  0  0  0  0
  -29.5050  -19.6160   20.1010 C   0  0  0  0  0  3  0  0  0  0  0  0
  -30.3120  -16.3430   20.0220 N   0  0  0  0  0  0  0  0  0  0  0  0
  -25.5640  -13.9860   20.5320 C   0  0  0  0  0  0  0  0  0  0  0  0
  -24.5170  -13.1990   20.9250 C   0  0  0  0  0  0  0  0  0  0  0  0
  -24.9680  -11.8490   20.7980 C   0  0  0  0  0  0  0  0  0  0  0  0
  -26.5810  -13.1170   20.1790 N   0  0  0  0  0  0  0  0  0  0  0  0
  -26.2370  -11.8220   20.4070 N   0  0  0  0  0  0  0  0  0  0  0  0
  -24.2460  -10.5820   20.9720 C   0  0  0  0  0  0  0  0  0  0  0  0
  -24.6620   -9.6170   21.9170 C   0  0  0  0  0  3  0  0  0  0  0  0
  -23.9370   -8.4170   22.0800 C   0  0  0  0  0  3  0  0  0  0  0  0
  -22.7810   -8.1730   21.2980 C   0  0  0  0  0  0  0  0  0  0  0  0
  -22.3860   -9.1270   20.3440 C   0  0  0  0  0  3  0  0  0  0  0  0
  -23.1110  -10.3180   20.1790 C   0  0  0  0  0  3  0  0  0  0  0  0
  -22.0300   -7.0240   21.3710 O   0  0  0  0  0  0  0  0  0  0  0  0
  -21.8550   -6.3520   22.5540 C   0  0  0  0  0  0  0  0  0  0  0  0
  -21.2790   -6.9710   23.6850 C   0  0  0  0  0  3  0  0  0  0  0  0
  -21.0540   -6.2250   24.8570 C   0  0  0  0  0  3  0  0  0  0  0  0
  -21.3930   -4.8590   24.8990 C   0  0  0  0  0  0  0  0  0  0  0  0
  -21.9620   -4.2390   23.7720 C   0  0  0  0  0  3  0  0  0  0  0  0
  -22.1890   -4.9840   22.6020 C   0  0  0  0  0  0  0  0  0  0  0  0
  -22.7170   -4.3780   21.5120 F   0  0  0  0  0  0  0  0  0  0  0  0
  -21.1700   -4.1390   26.0240 F   0  0  0  0  0  0  0  0  0  0  0  0
  -23.1430  -13.6690   21.3040 C   0  0  0  0  0  0  0  0  0  0  0  0
  -22.4710  -12.9430   22.1900 N   0  0  0  0  0  0  0  0  0  0  0  0
  -22.6780  -14.7160   20.8520 O   0  0  0  0  0  0  0  0  0  0  0  0
  -22.8640  -12.0960   22.5770 H   0  0  0  0  0  0  0  0  0  0  0  0
  -21.5510  -13.2370   22.4870 H   0  0  0  0  0  0  0  0  0  0  0  0
  -25.7310  -15.3610   20.4230 N   0  0  0  0  0  0  0  0  0  0  0  0
  -24.9840  -16.0130   20.6340 H   0  0  0  0  0  0  0  0  0  0  0  0
  -26.5770  -15.8100   20.0990 H   0  0  0  0  0  0  0  0  0  0  0  0
  -27.4500  -18.7150   16.5830 C   0  0  0  0  0  1  0  0  0  0  0  0
  -25.8820  -18.2860   18.5170 C   0  0  0  0  0  1  0  0  0  0  0  0
  -27.2820  -18.7770   18.1110 C   0  0  0  0  0  3  0  0  0  0  0  0
  -28.8390  -23.4570   20.2910 C   0  0  0  0  0  3  0  0  0  0  0  0
  -28.0310  -24.8930   19.9900 C   0  0  0  0  0  3  0  0  0  0  0  0
  -28.3150  -26.3520   20.3780 O   0  0  0  0  0  0  0  0  0  0  0  0
  -24.6380  -31.9420   23.3550 C   0  0  0  0  0  0  0  0  0  0  0  0
  -27.2640  -27.3230   20.2830 C   0  0  0  0  0  0  0  0  0  0  0  0
  -23.4570  -30.5620   21.6900 C   0  0  0  0  0  3  0  0  0  0  0  0
  -24.9240  -29.0290   20.2500 C   0  0  0  0  0  0  0  0  0  0  0  0
  -26.0080  -30.8540   21.5490 C   0  0  0  0  0  2  0  0  0  0  0  0
  -26.0920  -29.4760   20.8820 C   0  0  0  0  0  0  0  0  0  0  0  0
  -27.2610  -28.6340   20.8930 C   0  0  0  0  0  3  0  0  0  0  0  0
  -26.0780  -26.9850   19.5890 C   0  0  0  0  0  3  0  0  0  0  0  0
  -24.9280  -27.7950   19.5890 C   0  0  0  0  0  3  0  0  0  0  0  0
  -23.6890  -29.9110   20.3020 C   0  0  0  0  0  2  0  0  0  0  0  0
  -24.7190  -31.1400   22.2530 N   0  0  0  0  0  0  0  0  0  0  0  0
  -23.5480  -32.2120   23.8810 O   0  0  0  0  0  0  0  0  0  0  0  0
  -22.7860  -29.5310   22.6320 C   0  0  0  0  0  0  0  0  0  0  0  0
  -21.4640  -29.3320   22.4770 N   0  0  0  0  0  0  0  0  0  0  0  0
  -23.4540  -28.9160   23.4660 O   0  0  0  0  0  0  0  0  0  0  0  0
  -20.9800  -29.8810   21.7800 H   0  0  0  0  0  0  0  0  0  0  0  0
  -18.1020  -28.0560   22.8920 C   0  0  0  0  0  0  0  0  0  0  0  0
  -20.6460  -28.3780   23.2290 C   0  0  0  0  0  3  0  0  0  0  0  0
  -20.7970  -26.9460   22.6660 C   0  0  0  0  0  2  0  0  0  0  0  0
  -19.7320  -26.5920   21.6230 C   0  0  0  0  0  2  0  0  0  0  0  0
  -18.3280  -26.7090   22.2260 C   0  0  0  0  0  2  0  0  0  0  0  0
  -19.1910  -28.8450   23.3490 C   0  0  0  0  0  0  0  0  0  0  0  0
  -18.9250  -30.1040   23.9310 C   0  0  0  0  0  3  0  0  0  0  0  0
  -17.6050  -30.5730   24.0640 C   0  0  0  0  0  3  0  0  0  0  0  0
  -16.5310  -29.7800   23.6250 C   0  0  0  0  0  3  0  0  0  0  0  0
  -16.7800  -28.5240   23.0440 C   0  0  0  0  0  3  0  0  0  0  0  0
  -25.9100  -32.5780   23.9950 C   0  0  0  0  0  3  0  0  0  0  0  0
  -26.3890  -31.8270   25.3000 C   0  0  1  0  0  0  0  0  0  0  0  0
  -25.2670  -31.6190   26.3440 C   0  0  0  0  0  1  0  0  0  0  0  0
  -26.9740  -30.4380   24.9530 C   0  0  0  0  0  1  0  0  0  0  0  0
  -27.5290  -32.6280   25.9740 C   0  0  0  0  0  1  0  0  0  0  0  0
  -25.6010  -33.9840   24.2950 N   0  0  0  0  0  0  0  0  0  0  0  0
  -25.9340  -35.0220   23.5170 C   0  0  0  0  0  0  0  0  0  0  0  0
  -26.6020  -34.8970   22.4860 O   0  0  0  0  0  0  0  0  0  0  0  0
  -25.0150  -34.1550   25.0980 H   0  0  0  0  0  0  0  0  0  0  0  0
  -24.1970  -36.8060   23.1510 C   0  0  0  0  0  1  0  0  0  0  0  0
  -25.4530  -36.4210   23.9500 C   0  0  0  0  0  3  0  0  0  0  0  0
  -27.5980  -37.3330   24.7240 C   0  0  0  0  0  1  0  0  0  0  0  0
  -26.4810  -37.4730   23.7930 N   0  0  0  0  0  0  0  0  0  0  0  0
  -26.0740  -38.3950   23.9230 H   0  0  0  0  0  0  0  0  0  0  0  0
  1  2  2  0
  2 52  1  0
  3 51  1  0
  3  4  1  0
  4  2  1  0
  4 19  1  0
  5  3  1  0
  5  1  1  0
  6  5  1  0
  8 13  1  0
  9 10  1  0
  9  8  1  0
 11 10  1  0
 11 24  1  0
 11 12  1  0
 13  7  1  0
 13 12  1  0
 14  7  2  0
 15 17  1  0
 16 18  1  0
 17 20  1  0
 19 15  1  0
 19 16  1  0
 20  7  1  0
 20 18  1  0
 21 22  2  0
 22 41  1  0
 23 22  1  0
 23 26  1  0
 24 25  1  0
 24 21  1  0
 25 23  2  0
 26 27  1  0
 27 28  2  0
 29 32  1  0
 29 28  1  0
 30 29  2  0
 31 30  1  0
 31 26  2  0
 32 33  1  0
 33 38  2  0
 33 34  1  0
 34 35  2  0
 35 36  1  0
 36 40  1  0
 37 36  2  0
 38 37  1  0
 39 38  1  0
 41 42  1  0
 42 45  1  0
 42 44  1  0
 43 41  2  0
 46 21  1  0
 46 47  1  0
 48 46  1  0
 49 51  1  0
 51 50  1  0
 53 52  2  0
 53 54  1  0
 55 66  2  0
 56 54  1  0
 56 61  1  0
 57 65  1  0
 57 67  1  0
 58 64  1  0
 58 60  1  0
 59 65  1  0
 60 61  2  0
 60 59  1  0
 62 56  2  0
 63 62  1  0
 63 58  2  0
 64 57  1  0
 65 55  1  0
 67 69  2  0
 68 67  1  0
 70 68  1  0
 71 80  2  0
 71 76  1  0
 72 68  1  0
 72 76  1  0
 73 72  1  0
 74 75  1  0
 74 73  1  0
 75 71  1  0
 76 77  2  0
 77 78  1  0
 79 78  2  0
 80 79  1  0
 81 55  1  0
 81 86  1  0
 81 82  1  0
 82 85  1  1
 82 83  1  0
 84 82  1  0
 86 89  1  0
 87 91  1  0
 87 86  1  0
 88 87  2  0
 91 90  1  0
 93 94  1  0
 93 91  1  0
 93 92  1  0
M  ISO  4   7 100  20 100  53 101  54 101
M  END
>  <TORSDO>  (90) 
F 19

>  <SCORE>  (90) 
-12.584

>  <name>  (90) 
90

>  <ligand_id>  (90) 
90

>  <original_smiles>  (90) 
[H]c1c([H])c([H])c2c(c1[H])C([H])([H])C([H])([H])C([H])([H])C2([H])N([H])C(=O)C1([H])N(C(=O)C([H])(N([H])C(=O)C([H])(N([H])C([H])([H])[H])C([H])([H])[H])C(C([H])([H])[H])(C([H])([H])[H])C([H])([H])[H])C([H])([H])c2c([H])c(OC([H])([H])C([H])([H])c3c([H])[n+]([H])c(C([H])(C([H])([H])[H])C([H])([H])[H])n3C3([H])C([H])([H])C([H])([H])N(C(=O)N4C([H])([H])C([H])([H])C([H])([H])C([H])(n5nc(-c6c([H])c([H])c(Oc7c([H])c([H])c(F)c([H])c7F)c([H])c6[H])c(C(=O)N([H])[H])c5N([H])[H])C4([H])[H])C([H])([H])C3([H])[H])c([H])c([H])c2C1([H])[H]

>  <smiles>  (90) 
[H]c1c([H])c([H])c2c(c1[H])C([H])([H])C([H])([H])C([H])([H])C2([H])N([H])C(=O)C1([H])N(C(=O)C([H])(N([H])C(=O)C([H])(N([H])C([H])([H])[H])C([H])([H])[H])C(C([H])([H])[H])(C([H])([H])[H])C([H])([H])[H])C([H])([H])c2c([H])c(OC([H])([H])C([H])([H])c3c([H])[n+]([H])c(C([H])(C([H])([H])[H])C([H])([H])[H])n3C3([H])C([H])([H])C([H])([H])N(C(=O)N4C([H])([H])C([H])([H])C([H])([H])C([H])(n5nc(-c6c([H])c([H])c(Oc7c([H])c([H])c(F)c([H])c7F)c([H])c6[H])c(C(=O)N([H])[H])c5N([H])[H])C4([H])[H])C([H])([H])C3([H])[H])c([H])c([H])c2C1([H])[H]

$$$$
91:0:0
     RDKit          3D

 87 96  0  0  1  0  0  0  0  0999 V2000
  -30.4480  -15.5610   20.2150 C   0  0  0  0  0  0  0  0  0  0  0  0
  -30.4500  -13.0050   19.5210 C   0  0  0  0  0  2  0  0  0  0  0  0
  -29.5820  -12.6090   18.2970 C   0  0  0  0  0  2  0  0  0  0  0  0
  -28.1350  -12.3280   18.7280 C   0  0  0  0  0  2  0  0  0  0  0  0
  -27.6310  -13.3840   19.7400 C   0  0  0  0  0  3  0  0  0  0  0  0
  -28.6420  -13.7080   20.8650 C   0  0  0  0  0  2  0  0  0  0  0  0
  -29.8560  -14.2350   20.2080 N   0  0  0  0  0  0  0  0  0  0  0  0
  -31.6690  -15.4420   19.9980 O   0  0  0  0  0  0  0  0  0  0  0  0
  -28.2120  -21.7510   21.1550 C   0  0  0  0  0  3  0  0  0  0  0  0
  -28.8930  -19.4040   20.8850 C   0  0  0  0  0  0  0  0  0  0  0  0
  -29.4720  -19.7660   19.7040 C   0  0  0  0  0  0  0  0  0  0  0  0
  -28.7410  -22.3150   19.9250 C   0  0  0  0  0  0  0  0  0  0  0  0
  -29.0430  -17.8060   21.1930 C   0  0  0  0  0  3  0  0  0  0  0  0
  -30.1070  -18.2850   19.2350 C   0  0  0  0  0  3  0  0  0  0  0  0
  -28.2730  -20.4100   21.6090 N   0  0  0  0  0  0  0  0  0  0  0  0
  -29.3840  -21.1750   19.2150 N   0  0  0  0  0  0  0  0  0  0  0  0
  -29.7930  -16.9560   20.1240 N   0  0  0  0  0  0  0  0  0  0  0  0
  -25.2720  -13.9910   20.4580 C   0  0  0  0  0  0  0  0  0  0  0  0
  -24.1880  -13.2420   20.8190 C   0  0  0  0  0  0  0  0  0  0  0  0
  -24.6260  -11.8820   20.8160 C   0  0  0  0  0  0  0  0  0  0  0  0
  -26.2970  -13.0910   20.2420 N   0  0  0  0  0  0  0  0  0  0  0  0
  -25.9220  -11.8150   20.5260 N   0  0  0  0  0  0  0  0  0  0  0  0
  -23.8660  -10.6400   21.0100 C   0  0  0  0  0  0  0  0  0  0  0  0
  -24.2730   -9.6600   21.9420 C   0  0  0  0  0  3  0  0  0  0  0  0
  -23.5100   -8.4870   22.1280 C   0  0  0  0  0  3  0  0  0  0  0  0
  -22.3250   -8.2850   21.3820 C   0  0  0  0  0  0  0  0  0  0  0  0
  -21.9360   -9.2520   20.4390 C   0  0  0  0  0  3  0  0  0  0  0  0
  -22.6980  -10.4170   20.2510 C   0  0  0  0  0  3  0  0  0  0  0  0
  -21.5350   -7.1640   21.4770 O   0  0  0  0  0  0  0  0  0  0  0  0
  -21.4930   -6.4080   22.6220 C   0  0  0  0  0  0  0  0  0  0  0  0
  -21.1380   -6.9640   23.8700 C   0  0  0  0  0  3  0  0  0  0  0  0
  -21.0390   -6.1370   25.0060 C   0  0  0  0  0  3  0  0  0  0  0  0
  -21.2850   -4.7560   24.8970 C   0  0  0  0  0  0  0  0  0  0  0  0
  -21.6330   -4.1990   23.6530 C   0  0  0  0  0  3  0  0  0  0  0  0
  -21.7330   -5.0230   22.5190 C   0  0  0  0  0  0  0  0  0  0  0  0
  -22.0480   -4.4770   21.3190 F   0  0  0  0  0  0  0  0  0  0  0  0
  -21.1840   -3.9600   25.9870 F   0  0  0  0  0  0  0  0  0  0  0  0
  -22.7990  -13.7560   21.0520 C   0  0  0  0  0  0  0  0  0  0  0  0
  -22.0400  -13.0990   21.9220 N   0  0  0  0  0  0  0  0  0  0  0  0
  -22.3950  -14.7780   20.4970 O   0  0  0  0  0  0  0  0  0  0  0  0
  -22.3810  -12.2740   22.3920 H   0  0  0  0  0  0  0  0  0  0  0  0
  -21.1060  -13.4270   22.1220 H   0  0  0  0  0  0  0  0  0  0  0  0
  -25.4690  -15.3550   20.2640 N   0  0  0  0  0  0  0  0  0  0  0  0
  -24.7140  -16.0270   20.3520 H   0  0  0  0  0  0  0  0  0  0  0  0
  -26.3300  -15.7680   19.9280 H   0  0  0  0  0  0  0  0  0  0  0  0
  -28.2510  -23.9820   19.3270 C   0  0  0  0  0  2  0  0  0  0  0  0
  -28.3610  -25.6500   19.7510 O   0  0  0  0  0  0  0  0  0  0  0  0
  -24.6560  -31.6160   22.8710 C   0  0  0  0  0  0  0  0  0  0  0  0
  -27.3500  -26.8040   19.6840 C   0  0  0  0  0  0  0  0  0  0  0  0
  -23.4970  -30.2130   21.2170 C   0  0  0  0  0  3  0  0  0  0  0  0
  -24.9890  -28.6880   19.7240 C   0  0  0  0  0  0  0  0  0  0  0  0
  -26.0590  -30.4930   21.0490 C   0  0  0  0  0  2  0  0  0  0  0  0
  -26.1730  -29.0920   20.3490 C   0  0  0  0  0  0  0  0  0  0  0  0
  -27.3380  -28.1720   20.3070 C   0  0  0  0  0  3  0  0  0  0  0  0
  -26.1280  -26.5990   18.9980 C   0  0  0  0  0  3  0  0  0  0  0  0
  -24.9980  -27.4680   19.0260 C   0  0  0  0  0  3  0  0  0  0  0  0
  -23.7370  -29.5700   19.8200 C   0  0  0  0  0  2  0  0  0  0  0  0
  -24.7600  -30.8050   21.7650 N   0  0  0  0  0  0  0  0  0  0  0  0
  -23.5630  -31.8500   23.4130 O   0  0  0  0  0  0  0  0  0  0  0  0
  -22.8510  -29.1730   22.1710 C   0  0  0  0  0  0  0  0  0  0  0  0
  -21.5190  -28.9900   22.0950 N   0  0  0  0  0  0  0  0  0  0  0  0
  -23.5570  -28.5310   22.9530 O   0  0  0  0  0  0  0  0  0  0  0  0
  -20.9970  -29.5610   21.4450 H   0  0  0  0  0  0  0  0  0  0  0  0
  -18.1800  -27.6990   22.7150 C   0  0  0  0  0  0  0  0  0  0  0  0
  -20.7470  -28.0030   22.8610 C   0  0  0  0  0  3  0  0  0  0  0  0
  -20.8410  -26.6010   22.2130 C   0  0  0  0  0  2  0  0  0  0  0  0
  -19.6950  -26.3070   21.2410 C   0  0  0  0  0  2  0  0  0  0  0  0
  -18.3450  -26.3910   21.9590 C   0  0  0  0  0  2  0  0  0  0  0  0
  -19.3060  -28.4630   23.1240 C   0  0  0  0  0  0  0  0  0  0  0  0
  -19.0930  -29.6860   23.7980 C   0  0  0  0  0  3  0  0  0  0  0  0
  -17.7890  -30.1440   24.0620 C   0  0  0  0  0  3  0  0  0  0  0  0
  -16.6790  -29.3790   23.6650 C   0  0  0  0  0  3  0  0  0  0  0  0
  -16.8770  -28.1570   22.9980 C   0  0  0  0  0  3  0  0  0  0  0  0
  -25.9040  -32.3020   23.5040 C   0  0  0  0  0  3  0  0  0  0  0  0
  -25.5100  -33.6540   23.9460 N   0  0  0  0  0  0  0  0  0  0  0  0
  -25.7550  -34.7870   23.2750 C   0  0  0  0  0  0  0  0  0  0  0  0
  -26.3950  -34.8090   22.2210 O   0  0  0  0  0  0  0  0  0  0  0  0
  -24.9320  -33.7050   24.7720 H   0  0  0  0  0  0  0  0  0  0  0  0
  -23.9090  -36.4980   23.1360 C   0  0  0  0  0  1  0  0  0  0  0  0
  -25.2070  -36.1050   23.8620 C   0  0  0  0  0  3  0  0  0  0  0  0
  -27.3190  -37.0610   24.6770 C   0  0  0  0  0  1  0  0  0  0  0  0
  -26.1680  -37.2290   23.7930 N   0  0  0  0  0  0  0  0  0  0  0  0
  -25.7150  -38.1070   24.0270 H   0  0  0  0  0  0  0  0  0  0  0  0
  -26.5030  -31.4940   24.7220 C   0  0  1  0  0  0  0  0  0  0  0  0
  -25.4610  -31.1400   25.8100 C   0  0  0  0  0  1  0  0  0  0  0  0
  -27.1470  -30.1720   24.2490 C   0  0  0  0  0  1  0  0  0  0  0  0
  -27.6310  -32.3140   25.3910 C   0  0  0  0  0  1  0  0  0  0  0  0
  2  7  1  0
  3  4  1  0
  3  2  1  0
  5  4  1  0
  5 21  1  0
  5  6  1  0
  7  1  1  0
  7  6  1  0
  8  1  2  0
  9 15  2  0
 10 13  2  0
 10 15  1  0
 11 10  1  0
 12  9  1  0
 14 11  2  0
 14 17  1  0
 16 11  1  0
 16 12  2  0
 17  1  1  0
 17 13  1  0
 18 19  2  0
 19 38  1  0
 20 19  1  0
 20 23  1  0
 21 18  1  0
 21 22  1  0
 22 20  2  0
 23 24  1  0
 24 25  2  0
 26 29  1  0
 26 25  1  0
 27 26  2  0
 28 27  1  0
 28 23  2  0
 29 30  1  0
 30 31  1  0
 31 32  2  0
 33 32  1  0
 33 37  1  0
 34 33  2  0
 35 30  2  0
 35 34  1  0
 36 35  1  0
 38 39  1  0
 39 42  1  0
 39 41  1  0
 40 38  2  0
 43 44  1  0
 43 18  1  0
 45 43  1  0
 46 47  1  0
 46 12  1  0
 48 59  2  0
 49 47  1  0
 49 54  1  0
 50 58  1  0
 50 60  1  0
 51 57  1  0
 51 53  1  0
 52 58  1  0
 53 52  1  0
 54 53  2  0
 55 56  1  0
 55 49  2  0
 56 51  2  0
 57 50  1  0
 58 48  1  0
 60 62  2  0
 61 60  1  0
 63 61  1  0
 64 73  2  0
 64 69  1  0
 65 61  1  0
 65 69  1  0
 66 65  1  0
 67 68  1  0
 67 66  1  0
 68 64  1  0
 69 70  2  0
 70 71  1  0
 72 71  2  0
 73 72  1  0
 74 48  1  0
 74 75  1  0
 74 84  1  0
 75 78  1  0
 76 80  1  0
 76 75  1  0
 77 76  2  0
 80 79  1  0
 82 80  1  0
 82 83  1  0
 82 81  1  0
 84 87  1  1
 84 85  1  0
 86 84  1  0
M  ISO  4   1 100  17 100  46 101  47 101
M  END
>  <TORSDO>  (91) 
F 16

>  <SCORE>  (91) 
-14.598

>  <name>  (91) 
91

>  <ligand_id>  (91) 
91

>  <original_smiles>  (91) 
[H]c1nc2c(nc1C([H])([H])Oc1c([H])c([H])c3c(c1[H])C([H])([H])N(C(=O)C([H])(N([H])C(=O)C([H])(N([H])C([H])([H])[H])C([H])([H])[H])C(C([H])([H])[H])(C([H])([H])[H])C([H])([H])[H])C([H])(C(=O)N([H])C1([H])c4c([H])c([H])c([H])c([H])c4C([H])([H])C([H])([H])C1([H])[H])C3([H])[H])C([H])([H])N(C(=O)N1C([H])([H])C([H])([H])C([H])([H])C([H])(n3nc(-c4c([H])c([H])c(Oc5c([H])c([H])c(F)c([H])c5F)c([H])c4[H])c(C(=O)N([H])[H])c3N([H])[H])C1([H])[H])C2([H])[H]

>  <smiles>  (91) 
[H]c1nc2c(nc1C([H])([H])Oc1c([H])c([H])c3c(c1[H])C([H])([H])N(C(=O)C([H])(N([H])C(=O)C([H])(N([H])C([H])([H])[H])C([H])([H])[H])C(C([H])([H])[H])(C([H])([H])[H])C([H])([H])[H])C([H])(C(=O)N([H])C1([H])c4c([H])c([H])c([H])c([H])c4C([H])([H])C([H])([H])C1([H])[H])C3([H])[H])C([H])([H])N(C(=O)N1C([H])([H])C([H])([H])C([H])([H])C([H])(n3nc(-c4c([H])c([H])c(Oc5c([H])c([H])c(F)c([H])c5F)c([H])c4[H])c(C(=O)N([H])[H])c3N([H])[H])C1([H])[H])C2([H])[H]

$$$$
92:0:0
     RDKit          3D

 89 98  0  0  1  0  0  0  0  0999 V2000
  -28.5840  -21.5160   20.0210 N   0  0  0  0  0  4  0  0  0  0  0  0
  -27.6470  -21.3640   20.3610 H   0  0  0  0  0  0  0  0  0  0  0  0
  -28.5060  -21.4860   19.0160 H   0  0  0  0  0  0  0  0  0  0  0  0
  -30.5060  -15.1370   20.1860 C   0  0  0  0  0  0  0  0  0  0  0  0
  -30.3810  -12.7470   19.2700 C   0  0  0  0  0  2  0  0  0  0  0  0
  -29.4340  -12.6220   18.0550 C   0  0  0  0  0  2  0  0  0  0  0  0
  -27.9880  -12.3810   18.5210 C   0  0  0  0  0  2  0  0  0  0  0  0
  -27.5800  -13.3260   19.6810 C   0  0  0  0  0  3  0  0  0  0  0  0
  -28.6530  -13.4240   20.7840 C   0  0  0  0  0  2  0  0  0  0  0  0
  -29.8870  -13.8750   20.1280 N   0  0  0  0  0  0  0  0  0  0  0  0
  -31.7110  -15.1240   19.9040 O   0  0  0  0  0  0  0  0  0  0  0  0
  -31.3290  -18.5830   19.8190 C   0  0  0  0  0  2  0  0  0  0  0  0
  -30.8570  -20.0920   19.9110 C   0  0  0  0  0  2  0  0  0  0  0  0
  -29.0590  -17.2810   21.1300 C   0  0  0  0  0  2  0  0  0  0  0  0
  -28.9490  -18.5560   20.1390 C   0  0  0  0  0  3  0  0  0  0  0  0
  -30.0910  -17.7590   19.4370 C   0  0  0  0  0  3  0  0  0  0  0  0
  -29.3930  -20.1680   20.4520 C   0  0  0  0  0  3  0  0  0  0  0  0
  -29.7900  -16.4090   20.1300 N   0  0  0  0  0  0  0  0  0  0  0  0
  -25.2230  -13.8790   20.4850 C   0  0  0  0  0  0  0  0  0  0  0  0
  -24.1690  -13.0960   20.8630 C   0  0  0  0  0  0  0  0  0  0  0  0
  -24.6370  -11.7470   20.8090 C   0  0  0  0  0  0  0  0  0  0  0  0
  -26.2620  -13.0080   20.2120 N   0  0  0  0  0  0  0  0  0  0  0  0
  -25.9220  -11.7180   20.4760 N   0  0  0  0  0  0  0  0  0  0  0  0
  -23.9160  -10.4810   20.9980 C   0  0  0  0  0  0  0  0  0  0  0  0
  -24.3470   -9.5160   21.9360 C   0  0  0  0  0  3  0  0  0  0  0  0
  -23.6230   -8.3170   22.1130 C   0  0  0  0  0  3  0  0  0  0  0  0
  -22.4550   -8.0730   21.3520 C   0  0  0  0  0  0  0  0  0  0  0  0
  -22.0450   -9.0260   20.4030 C   0  0  0  0  0  3  0  0  0  0  0  0
  -22.7680  -10.2160   20.2240 C   0  0  0  0  0  3  0  0  0  0  0  0
  -21.7040   -6.9260   21.4370 O   0  0  0  0  0  0  0  0  0  0  0  0
  -21.6230   -6.2050   22.6010 C   0  0  0  0  0  0  0  0  0  0  0  0
  -21.1430   -6.7770   23.8010 C   0  0  0  0  0  3  0  0  0  0  0  0
  -21.0110   -5.9810   24.9560 C   0  0  0  0  0  3  0  0  0  0  0  0
  -21.3490   -4.6140   24.9130 C   0  0  0  0  0  0  0  0  0  0  0  0
  -21.8210   -4.0420   23.7190 C   0  0  0  0  0  3  0  0  0  0  0  0
  -21.9550   -4.8360   22.5660 C   0  0  0  0  0  0  0  0  0  0  0  0
  -22.3910   -4.2750   21.4110 F   0  0  0  0  0  0  0  0  0  0  0  0
  -21.2150   -3.8480   26.0200 F   0  0  0  0  0  0  0  0  0  0  0  0
  -22.7760  -13.5670   21.1620 C   0  0  0  0  0  0  0  0  0  0  0  0
  -22.0660  -12.8650   22.0370 N   0  0  0  0  0  0  0  0  0  0  0  0
  -22.3270  -14.5940   20.6540 O   0  0  0  0  0  0  0  0  0  0  0  0
  -22.4440  -12.0340   22.4670 H   0  0  0  0  0  0  0  0  0  0  0  0
  -21.1330  -13.1630   22.2830 H   0  0  0  0  0  0  0  0  0  0  0  0
  -25.3840  -15.2510   20.3210 N   0  0  0  0  0  0  0  0  0  0  0  0
  -24.6240  -15.9090   20.4580 H   0  0  0  0  0  0  0  0  0  0  0  0
  -26.2330  -15.6890   19.9870 H   0  0  0  0  0  0  0  0  0  0  0  0
  -28.9240  -23.0630   20.4090 C   0  0  0  0  0  3  0  0  0  0  0  0
  -27.9600  -24.4740   20.0520 C   0  0  0  0  0  3  0  0  0  0  0  0
  -28.2060  -26.0380   20.3200 O   0  0  0  0  0  0  0  0  0  0  0  0
  -24.6380  -31.8840   23.2670 C   0  0  0  0  0  0  0  0  0  0  0  0
  -27.1800  -27.0830   20.2410 C   0  0  0  0  0  0  0  0  0  0  0  0
  -23.4360  -30.4950   21.6260 C   0  0  0  0  0  3  0  0  0  0  0  0
  -24.8770  -28.9030   20.2010 C   0  0  0  0  0  0  0  0  0  0  0  0
  -25.9970  -30.7230   21.4730 C   0  0  0  0  0  2  0  0  0  0  0  0
  -26.0620  -29.3230   20.8170 C   0  0  0  0  0  0  0  0  0  0  0  0
  -27.2120  -28.4310   20.8180 C   0  0  0  0  0  3  0  0  0  0  0  0
  -25.9690  -26.7890   19.5770 C   0  0  0  0  0  3  0  0  0  0  0  0
  -24.8490  -27.6520   19.5640 C   0  0  0  0  0  3  0  0  0  0  0  0
  -23.6580  -29.8170   20.2480 C   0  0  0  0  0  2  0  0  0  0  0  0
  -24.7120  -31.0580   22.1760 N   0  0  0  0  0  0  0  0  0  0  0  0
  -23.5500  -32.1750   23.7900 O   0  0  0  0  0  0  0  0  0  0  0  0
  -22.7430  -29.4950   22.5870 C   0  0  0  0  0  0  0  0  0  0  0  0
  -21.4150  -29.3320   22.4570 N   0  0  0  0  0  0  0  0  0  0  0  0
  -23.4080  -28.8690   23.4170 O   0  0  0  0  0  0  0  0  0  0  0  0
  -20.9350  -29.8860   21.7620 H   0  0  0  0  0  0  0  0  0  0  0  0
  -18.0280  -28.1390   22.9530 C   0  0  0  0  0  0  0  0  0  0  0  0
  -20.5870  -28.4000   23.2280 C   0  0  0  0  0  3  0  0  0  0  0  0
  -20.6880  -26.9650   22.6580 C   0  0  0  0  0  2  0  0  0  0  0  0
  -19.5900  -26.6420   21.6410 C   0  0  0  0  0  2  0  0  0  0  0  0
  -18.2050  -26.7900   22.2780 C   0  0  0  0  0  2  0  0  0  0  0  0
  -19.1450  -28.9020   23.3850 C   0  0  0  0  0  0  0  0  0  0  0  0
  -18.9240  -30.1630   23.9780 C   0  0  0  0  0  3  0  0  0  0  0  0
  -17.6180  -30.6630   24.1420 C   0  0  0  0  0  3  0  0  0  0  0  0
  -16.5160  -29.8980   23.7250 C   0  0  0  0  0  3  0  0  0  0  0  0
  -16.7210  -28.6380   23.1360 C   0  0  0  0  0  3  0  0  0  0  0  0
  -25.9140  -32.5170   23.9000 C   0  0  0  0  0  3  0  0  0  0  0  0
  -25.6050  -33.9190   24.2300 N   0  0  0  0  0  0  0  0  0  0  0  0
  -25.9220  -34.9730   23.4670 C   0  0  0  0  0  0  0  0  0  0  0  0
  -26.5690  -34.8680   22.4220 O   0  0  0  0  0  0  0  0  0  0  0  0
  -25.0280  -34.0740   25.0430 H   0  0  0  0  0  0  0  0  0  0  0  0
  -24.1730  -36.7600   23.1750 C   0  0  0  0  0  1  0  0  0  0  0  0
  -25.4490  -36.3650   23.9360 C   0  0  0  0  0  3  0  0  0  0  0  0
  -27.6090  -37.2680   24.6740 C   0  0  0  0  0  1  0  0  0  0  0  0
  -26.4710  -37.4210   23.7720 N   0  0  0  0  0  0  0  0  0  0  0  0
  -26.0670  -38.3400   23.9240 H   0  0  0  0  0  0  0  0  0  0  0  0
  -26.4130  -31.7490   25.1860 C   0  0  1  0  0  0  0  0  0  0  0  0
  -25.3100  -31.5250   26.2450 C   0  0  0  0  0  1  0  0  0  0  0  0
  -26.9920  -30.3660   24.8120 C   0  0  0  0  0  1  0  0  0  0  0  0
  -27.5660  -32.5390   25.8510 C   0  0  0  0  0  1  0  0  0  0  0  0
  1  2  1  0
  1 47  1  0
  3  1  1  0
  5 10  1  0
  6  7  1  0
  6  5  1  0
  8  7  1  0
  8 22  1  0
  8  9  1  0
 10  4  1  0
 10  9  1  0
 11  4  2  0
 12 13  1  0
 13 17  1  0
 15 17  1  0
 15 14  1  0
 16 12  1  0
 16 18  1  0
 16 15  1  0
 17  1  1  0
 18  4  1  0
 18 14  1  0
 19 20  2  0
 20 39  1  0
 21 20  1  0
 21 24  1  0
 22 23  1  0
 22 19  1  0
 23 21  2  0
 24 25  1  0
 25 26  2  0
 27 30  1  0
 27 26  1  0
 28 27  2  0
 29 28  1  0
 29 24  2  0
 30 31  1  0
 31 32  1  0
 32 33  2  0
 34 33  1  0
 34 38  1  0
 35 34  2  0
 36 31  2  0
 36 35  1  0
 37 36  1  0
 39 40  1  0
 40 43  1  0
 40 42  1  0
 41 39  2  0
 44 45  1  0
 44 19  1  0
 46 44  1  0
 48 49  1  0
 48 47  2  0
 50 61  2  0
 51 49  1  0
 51 56  1  0
 52 60  1  0
 52 62  1  0
 53 59  1  0
 53 55  1  0
 54 60  1  0
 55 56  2  0
 55 54  1  0
 57 51  2  0
 58 57  1  0
 58 53  2  0
 59 52  1  0
 60 50  1  0
 62 64  2  0
 63 62  1  0
 65 63  1  0
 66 75  2  0
 66 71  1  0
 67 63  1  0
 67 71  1  0
 68 67  1  0
 69 70  1  0
 69 68  1  0
 70 66  1  0
 71 72  2  0
 72 73  1  0
 74 73  2  0
 75 74  1  0
 76 50  1  0
 76 77  1  0
 76 86  1  0
 77 80  1  0
 78 82  1  0
 78 77  1  0
 79 78  2  0
 82 81  1  0
 84 85  1  0
 84 82  1  0
 84 83  1  0
 86 89  1  1
 86 87  1  0
 88 86  1  0
M  ISO  4   4 100  18 100  48 101  49 101
M  END
>  <TORSDO>  (92) 
F 18

>  <SCORE>  (92) 
-15.376

>  <name>  (92) 
92

>  <ligand_id>  (92) 
92

>  <original_smiles>  (92) 
[H]c1c([H])c([H])c2c(c1[H])C([H])([H])C([H])([H])C([H])([H])C2([H])N([H])C(=O)C1([H])N(C(=O)C([H])(N([H])C(=O)C([H])(N([H])C([H])([H])[H])C([H])([H])[H])C(C([H])([H])[H])(C([H])([H])[H])C([H])([H])[H])C([H])([H])c2c([H])c(OC([H])([H])C([H])([H])[N+]([H])([H])C3([H])C([H])([H])C([H])([H])C4([H])N(C(=O)N5C([H])([H])C([H])([H])C([H])([H])C([H])(n6nc(-c7c([H])c([H])c(Oc8c([H])c([H])c(F)c([H])c8F)c([H])c7[H])c(C(=O)N([H])[H])c6N([H])[H])C5([H])[H])C([H])([H])C43[H])c([H])c([H])c2C1([H])[H]

>  <smiles>  (92) 
[H]c1c([H])c([H])c2c(c1[H])C([H])([H])C([H])([H])C([H])([H])C2([H])N([H])C(=O)C1([H])N(C(=O)C([H])(N([H])C(=O)C([H])(N([H])C([H])([H])[H])C([H])([H])[H])C(C([H])([H])[H])(C([H])([H])[H])C([H])([H])[H])C([H])([H])c2c([H])c(OC([H])([H])C([H])([H])[N+]([H])([H])C3([H])C([H])([H])C([H])([H])C4([H])N(C(=O)N5C([H])([H])C([H])([H])C([H])([H])C([H])(n6nc(-c7c([H])c([H])c(Oc8c([H])c([H])c(F)c([H])c8F)c([H])c7[H])c(C(=O)N([H])[H])c6N([H])[H])C5([H])[H])C([H])([H])C43[H])c([H])c([H])c2C1([H])[H]

$$$$
93:0:0
     RDKit          3D

 95104  0  0  1  0  0  0  0  0999 V2000
  -28.9030  -21.7460   20.8060 C   0  0  0  0  0  3  0  0  0  0  0  0
  -29.6070  -20.6530   20.2440 C   0  0  0  0  0  0  0  0  0  0  0  0
  -28.6980  -22.8970   20.0050 C   0  0  0  0  0  0  0  0  0  0  0  0
  -29.8170  -21.8410   18.2940 C   0  0  0  0  0  0  0  0  0  0  0  0
  -30.2720  -21.8720   16.8510 C   0  0  0  0  0  1  0  0  0  0  0  0
  -30.0780  -20.7310   18.9820 N   0  0  0  0  0  0  0  0  0  0  0  0
  -29.1730  -22.9140   18.7430 N   0  0  0  0  0  0  0  0  0  0  0  0
  -29.2260  -18.0690   20.7780 C   0  0  0  0  0  2  0  0  0  0  0  0
  -31.5420  -17.5750   20.5390 C   0  0  0  0  0  2  0  0  0  0  0  0
  -30.0170  -19.3860   21.0260 C   0  0  0  0  0  3  0  0  0  0  0  0
  -30.2630  -16.9790   21.1580 C   0  0  0  0  0  3  0  0  0  0  0  0
  -31.4000  -19.0440   20.6620 N   0  0  0  0  0  4  0  0  0  0  0  0
  -31.5000  -19.4920   19.7600 H   0  0  0  0  0  0  0  0  0  0  0  0
  -32.0470  -19.4590   21.3110 H   0  0  0  0  0  0  0  0  0  0  0  0
  -30.6610  -14.5370   20.3700 C   0  0  0  0  0  0  0  0  0  0  0  0
  -30.3750  -12.3710   19.2080 C   0  0  0  0  0  2  0  0  0  0  0  0
  -29.4190  -12.5750   18.0160 C   0  0  0  0  0  2  0  0  0  0  0  0
  -27.9470  -12.4380   18.4590 C   0  0  0  0  0  2  0  0  0  0  0  0
  -27.6240  -13.2540   19.7390 C   0  0  0  0  0  3  0  0  0  0  0  0
  -28.6960  -13.0240   20.8300 C   0  0  0  0  0  2  0  0  0  0  0  0
  -30.0050  -13.3500   20.2420 N   0  0  0  0  0  0  0  0  0  0  0  0
  -31.8040  -14.7110   19.9400 O   0  0  0  0  0  0  0  0  0  0  0  0
  -29.9140  -15.5600   20.8550 N   0  0  0  0  0  0  0  0  0  0  0  0
  -28.9830  -15.2800   21.1270 H   0  0  0  0  0  0  0  0  0  0  0  0
  -25.2340  -13.8550   20.4710 C   0  0  0  0  0  0  0  0  0  0  0  0
  -24.1710  -13.0820   20.8500 C   0  0  0  0  0  0  0  0  0  0  0  0
  -24.6330  -11.7310   20.8170 C   0  0  0  0  0  0  0  0  0  0  0  0
  -26.2770  -12.9740   20.2320 N   0  0  0  0  0  0  0  0  0  0  0  0
  -25.9190  -11.6920   20.4960 N   0  0  0  0  0  0  0  0  0  0  0  0
  -23.9090  -10.4690   21.0170 C   0  0  0  0  0  0  0  0  0  0  0  0
  -24.3550   -9.5000   21.9430 C   0  0  0  0  0  3  0  0  0  0  0  0
  -23.6330   -8.3010   22.1280 C   0  0  0  0  0  3  0  0  0  0  0  0
  -22.4520   -8.0630   21.3860 C   0  0  0  0  0  0  0  0  0  0  0  0
  -22.0270   -9.0200   20.4470 C   0  0  0  0  0  3  0  0  0  0  0  0
  -22.7500  -10.2100   20.2600 C   0  0  0  0  0  3  0  0  0  0  0  0
  -21.6990   -6.9180   21.4820 O   0  0  0  0  0  0  0  0  0  0  0  0
  -21.6660   -6.1700   22.6310 C   0  0  0  0  0  0  0  0  0  0  0  0
  -21.2470   -6.7180   23.8640 C   0  0  0  0  0  3  0  0  0  0  0  0
  -21.1630   -5.8970   25.0070 C   0  0  0  0  0  3  0  0  0  0  0  0
  -21.4860   -4.5310   24.9180 C   0  0  0  0  0  0  0  0  0  0  0  0
  -21.8990   -3.9820   23.6910 C   0  0  0  0  0  3  0  0  0  0  0  0
  -21.9850   -4.8000   22.5510 C   0  0  0  0  0  0  0  0  0  0  0  0
  -22.3620   -4.2620   21.3670 F   0  0  0  0  0  0  0  0  0  0  0  0
  -21.3980   -3.7400   26.0130 F   0  0  0  0  0  0  0  0  0  0  0  0
  -22.7750  -13.5570   21.1360 C   0  0  0  0  0  0  0  0  0  0  0  0
  -22.0570  -12.8580   22.0070 N   0  0  0  0  0  0  0  0  0  0  0  0
  -22.3290  -14.5820   20.6210 O   0  0  0  0  0  0  0  0  0  0  0  0
  -22.4320  -12.0310   22.4480 H   0  0  0  0  0  0  0  0  0  0  0  0
  -21.1200  -13.1540   22.2380 H   0  0  0  0  0  0  0  0  0  0  0  0
  -25.3950  -15.2250   20.2880 N   0  0  0  0  0  0  0  0  0  0  0  0
  -24.6280  -15.8810   20.3980 H   0  0  0  0  0  0  0  0  0  0  0  0
  -26.2330  -15.6620   19.9230 H   0  0  0  0  0  0  0  0  0  0  0  0
  -27.8070  -24.0930   20.4230 C   0  0  0  0  0  2  0  0  0  0  0  0
  -28.4820  -25.4270   20.9050 C   0  0  0  0  0  2  0  0  0  0  0  0
  -28.3830  -26.6410   20.1040 O   0  0  0  0  0  0  0  0  0  0  0  0
  -24.5850  -31.8830   23.2410 C   0  0  0  0  0  0  0  0  0  0  0  0
  -27.2220  -27.3920   20.1780 C   0  0  0  0  0  0  0  0  0  0  0  0
  -23.3810  -30.4760   21.6030 C   0  0  0  0  0  3  0  0  0  0  0  0
  -24.8350  -28.9310   20.1860 C   0  0  0  0  0  0  0  0  0  0  0  0
  -25.9120  -30.8220   21.4100 C   0  0  0  0  0  2  0  0  0  0  0  0
  -25.9980  -29.4450   20.7760 C   0  0  0  0  0  0  0  0  0  0  0  0
  -27.1970  -28.6850   20.7660 C   0  0  0  0  0  3  0  0  0  0  0  0
  -26.0430  -26.9080   19.5780 C   0  0  0  0  0  3  0  0  0  0  0  0
  -24.8540  -27.6610   19.5880 C   0  0  0  0  0  3  0  0  0  0  0  0
  -23.5940  -29.7950   20.2260 C   0  0  0  0  0  2  0  0  0  0  0  0
  -24.6440  -31.0770   22.1420 N   0  0  0  0  0  0  0  0  0  0  0  0
  -23.5020  -32.1560   23.7780 O   0  0  0  0  0  0  0  0  0  0  0  0
  -22.7260  -29.4570   22.5650 C   0  0  0  0  0  0  0  0  0  0  0  0
  -21.4010  -29.2770   22.4390 N   0  0  0  0  0  0  0  0  0  0  0  0
  -23.4090  -28.8320   23.3810 O   0  0  0  0  0  0  0  0  0  0  0  0
  -20.9130  -29.8320   21.7480 H   0  0  0  0  0  0  0  0  0  0  0  0
  -18.0240  -28.0980   22.9510 C   0  0  0  0  0  0  0  0  0  0  0  0
  -20.5830  -28.3410   23.2090 C   0  0  0  0  0  3  0  0  0  0  0  0
  -20.6760  -26.9120   22.6250 C   0  0  0  0  0  2  0  0  0  0  0  0
  -19.5670  -26.6000   21.6160 C   0  0  0  0  0  2  0  0  0  0  0  0
  -18.1890  -26.7500   22.2680 C   0  0  0  0  0  2  0  0  0  0  0  0
  -19.1480  -28.8520   23.3760 C   0  0  0  0  0  0  0  0  0  0  0  0
  -18.9390  -30.1150   23.9720 C   0  0  0  0  0  3  0  0  0  0  0  0
  -17.6380  -30.6230   24.1480 C   0  0  0  0  0  3  0  0  0  0  0  0
  -16.5280  -29.8650   23.7370 C   0  0  0  0  0  3  0  0  0  0  0  0
  -16.7210  -28.6050   23.1440 C   0  0  0  0  0  3  0  0  0  0  0  0
  -25.8690  -32.5160   23.8600 C   0  0  0  0  0  3  0  0  0  0  0  0
  -26.3850  -31.7480   25.1380 C   0  0  1  0  0  0  0  0  0  0  0  0
  -25.2920  -31.5120   26.2060 C   0  0  0  0  0  1  0  0  0  0  0  0
  -26.9690  -30.3700   24.7490 C   0  0  0  0  0  1  0  0  0  0  0  0
  -27.5350  -32.5450   25.7980 C   0  0  0  0  0  1  0  0  0  0  0  0
  -25.5590  -33.9160   24.1840 N   0  0  0  0  0  0  0  0  0  0  0  0
  -25.8990  -34.9650   23.4230 C   0  0  0  0  0  0  0  0  0  0  0  0
  -26.5750  -34.8560   22.3960 O   0  0  0  0  0  0  0  0  0  0  0  0
  -24.9610  -34.0740   24.9810 H   0  0  0  0  0  0  0  0  0  0  0  0
  -24.1800  -36.7620   23.0440 C   0  0  0  0  0  1  0  0  0  0  0  0
  -25.4110  -36.3560   23.8720 C   0  0  0  0  0  3  0  0  0  0  0  0
  -27.5370  -37.2350   24.7290 C   0  0  0  0  0  1  0  0  0  0  0  0
  -26.4490  -37.4040   23.7680 N   0  0  0  0  0  0  0  0  0  0  0  0
  -26.0460  -38.3270   23.9060 H   0  0  0  0  0  0  0  0  0  0  0  0
  2  1  2  0
  3 53  1  0
  3  1  1  0
  4  7  1  0
  4  6  2  0
  5  4  1  0
  6  2  1  0
  7  3  2  0
  8 10  1  0
  8 11  1  0
  9 12  1  0
  9 11  1  0
 10  2  1  0
 11 23  1  0
 12 10  1  0
 12 14  1  0
 13 12  1  0
 15 23  1  0
 16 21  1  0
 17 18  1  0
 17 16  1  0
 19 18  1  0
 19 28  1  0
 19 20  1  0
 21 15  1  0
 21 20  1  0
 22 15  2  0
 23 24  1  0
 25 26  2  0
 26 45  1  0
 27 26  1  0
 27 30  1  0
 28 25  1  0
 28 29  1  0
 29 27  2  0
 30 31  1  0
 31 32  2  0
 33 36  1  0
 33 32  1  0
 34 33  2  0
 35 34  1  0
 35 30  2  0
 36 37  1  0
 37 38  1  0
 38 39  2  0
 40 39  1  0
 40 44  1  0
 41 40  2  0
 42 37  2  0
 42 41  1  0
 43 42  1  0
 45 46  1  0
 46 49  1  0
 46 48  1  0
 47 45  2  0
 50 51  1  0
 50 25  1  0
 52 50  1  0
 53 54  1  0
 55 57  1  0
 55 54  1  0
 56 67  2  0
 57 62  1  0
 58 66  1  0
 58 68  1  0
 59 65  1  0
 59 61  1  0
 60 66  1  0
 61 60  1  0
 62 61  2  0
 63 64  1  0
 63 57  2  0
 64 59  2  0
 65 58  1  0
 66 56  1  0
 68 70  2  0
 69 68  1  0
 71 69  1  0
 72 81  2  0
 72 77  1  0
 73 69  1  0
 73 77  1  0
 74 73  1  0
 75 76  1  0
 75 74  1  0
 76 72  1  0
 77 78  2  0
 78 79  1  0
 80 79  2  0
 81 80  1  0
 82 56  1  0
 82 87  1  0
 82 83  1  0
 83 86  1  1
 83 84  1  0
 85 83  1  0
 87 90  1  0
 88 92  1  0
 88 87  1  0
 89 88  2  0
 92 91  1  0
 94 92  1  0
 94 95  1  0
 94 93  1  0
M  ISO  4  15 100  23 100  54 101  55 101
M  END
>  <TORSDO>  (93) 
F 19

>  <SCORE>  (93) 
-14.434

>  <name>  (93) 
93

>  <ligand_id>  (93) 
93

>  <original_smiles>  (93) 
[H]c1c(C([H])([H])C([H])([H])Oc2c([H])c([H])c3c(c2[H])C([H])([H])N(C(=O)C([H])(N([H])C(=O)C([H])(N([H])C([H])([H])[H])C([H])([H])[H])C(C([H])([H])[H])(C([H])([H])[H])C([H])([H])[H])C([H])(C(=O)N([H])C2([H])c4c([H])c([H])c([H])c([H])c4C([H])([H])C([H])([H])C2([H])[H])C3([H])[H])nc(C([H])([H])[H])nc1C1([H])C([H])([H])C([H])(N([H])C(=O)N2C([H])([H])C([H])([H])C([H])([H])C([H])(n3nc(-c4c([H])c([H])c(Oc5c([H])c([H])c(F)c([H])c5F)c([H])c4[H])c(C(=O)N([H])[H])c3N([H])[H])C2([H])[H])C([H])([H])[N+]1([H])[H]

>  <smiles>  (93) 
[H]c1c(C([H])([H])C([H])([H])Oc2c([H])c([H])c3c(c2[H])C([H])([H])N(C(=O)C([H])(N([H])C(=O)C([H])(N([H])C([H])([H])[H])C([H])([H])[H])C(C([H])([H])[H])(C([H])([H])[H])C([H])([H])[H])C([H])(C(=O)N([H])C2([H])c4c([H])c([H])c([H])c([H])c4C([H])([H])C([H])([H])C2([H])[H])C3([H])[H])nc(C([H])([H])[H])nc1C1([H])C([H])([H])C([H])(N([H])C(=O)N2C([H])([H])C([H])([H])C([H])([H])C([H])(n3nc(-c4c([H])c([H])c(Oc5c([H])c([H])c(F)c([H])c5F)c([H])c4[H])c(C(=O)N([H])[H])c3N([H])[H])C2([H])[H])C([H])([H])[N+]1([H])[H]

$$$$
94:0:0
     RDKit          3D

 92101  0  0  1  0  0  0  0  0999 V2000
  -27.2900  -20.8130   20.4450 C   0  0  0  0  0  3  0  0  0  0  0  0
  -27.7270  -22.1440   20.4010 C   0  0  0  0  0  3  0  0  0  0  0  0
  -28.2030  -19.7580   20.2780 C   0  0  0  0  0  0  0  0  0  0  0  0
  -29.0830  -22.4490   20.1720 C   0  0  0  0  0  0  0  0  0  0  0  0
  -29.5740  -20.0410   20.0650 C   0  0  0  0  0  0  0  0  0  0  0  0
  -27.6760  -18.3370   20.4010 C   0  0  0  0  0  1  0  0  0  0  0  0
  -29.9760  -21.3790   20.0110 N   0  0  0  0  0  0  0  0  0  0  0  0
  -30.5160  -24.3210   18.9450 C   0  0  0  0  0  2  0  0  0  0  0  0
  -31.0210  -24.2670   20.3640 C   0  0  0  0  0  2  0  0  0  0  0  0
  -29.5620  -23.9770   20.0730 C   0  0  2  0  0  0  0  0  0  0  0  0
  -28.5270  -25.1310   20.5050 C   0  0  0  0  0  2  0  0  0  0  0  0
  -28.7750  -26.6130   20.3270 O   0  0  0  0  0  0  0  0  0  0  0  0
  -24.7060  -31.7770   23.4090 C   0  0  0  0  0  0  0  0  0  0  0  0
  -27.6520  -27.4730   20.2650 C   0  0  0  0  0  0  0  0  0  0  0  0
  -23.6460  -30.4230   21.6370 C   0  0  0  0  0  3  0  0  0  0  0  0
  -25.2320  -29.0210   20.2010 C   0  0  0  0  0  0  0  0  0  0  0  0
  -26.1780  -30.8510   21.6000 C   0  0  0  0  0  2  0  0  0  0  0  0
  -26.3490  -29.5130   20.8870 C   0  0  0  0  0  0  0  0  0  0  0  0
  -27.5630  -28.7520   20.9120 C   0  0  0  0  0  3  0  0  0  0  0  0
  -26.5180  -27.0620   19.5300 C   0  0  0  0  0  3  0  0  0  0  0  0
  -25.3210  -27.8020   19.5110 C   0  0  0  0  0  3  0  0  0  0  0  0
  -23.9560  -29.8370   20.2330 C   0  0  0  0  0  2  0  0  0  0  0  0
  -24.8600  -31.0320   22.2730 N   0  0  0  0  0  0  0  0  0  0  0  0
  -23.5860  -31.9760   23.9050 O   0  0  0  0  0  0  0  0  0  0  0  0
  -22.9830  -29.3270   22.5070 C   0  0  0  0  0  0  0  0  0  0  0  0
  -21.6740  -29.0960   22.3080 N   0  0  0  0  0  0  0  0  0  0  0  0
  -23.6510  -28.6870   23.3240 O   0  0  0  0  0  0  0  0  0  0  0  0
  -21.1900  -29.6660   21.6280 H   0  0  0  0  0  0  0  0  0  0  0  0
  -18.3360  -27.7320   22.5970 C   0  0  0  0  0  0  0  0  0  0  0  0
  -20.8690  -28.0790   22.9870 C   0  0  0  0  0  3  0  0  0  0  0  0
  -21.0550  -26.6900   22.3320 C   0  0  0  0  0  2  0  0  0  0  0  0
  -20.0070  -26.3870   21.2550 C   0  0  0  0  0  2  0  0  0  0  0  0
  -18.5960  -26.4370   21.8490 C   0  0  0  0  0  2  0  0  0  0  0  0
  -19.4030  -28.5120   23.1180 C   0  0  0  0  0  0  0  0  0  0  0  0
  -19.1060  -29.7260   23.7740 C   0  0  0  0  0  3  0  0  0  0  0  0
  -17.7750  -30.1620   23.9170 C   0  0  0  0  0  3  0  0  0  0  0  0
  -16.7220  -29.3790   23.4140 C   0  0  0  0  0  3  0  0  0  0  0  0
  -17.0030  -28.1650   22.7610 C   0  0  0  0  0  3  0  0  0  0  0  0
  -25.9270  -32.4300   24.1230 C   0  0  0  0  0  3  0  0  0  0  0  0
  -26.3680  -31.6640   25.4300 C   0  0  1  0  0  0  0  0  0  0  0  0
  -25.2060  -31.3940   26.4130 C   0  0  0  0  0  1  0  0  0  0  0  0
  -27.0130  -30.3030   25.0800 C   0  0  0  0  0  1  0  0  0  0  0  0
  -27.4430  -32.4820   26.1850 C   0  0  0  0  0  1  0  0  0  0  0  0
  -25.5690  -33.8210   24.4370 N   0  0  0  0  0  0  0  0  0  0  0  0
  -25.9330  -34.8870   23.7130 C   0  0  0  0  0  0  0  0  0  0  0  0
  -26.6730  -34.8070   22.7290 O   0  0  0  0  0  0  0  0  0  0  0  0
  -24.9280  -33.9600   25.2060 H   0  0  0  0  0  0  0  0  0  0  0  0
  -24.2000  -36.6520   23.2480 C   0  0  0  0  0  1  0  0  0  0  0  0
  -25.3860  -36.2610   24.1450 C   0  0  0  0  0  3  0  0  0  0  0  0
  -27.4320  -37.1850   25.1400 C   0  0  0  0  0  1  0  0  0  0  0  0
  -26.4010  -37.3370   24.1170 N   0  0  0  0  0  0  0  0  0  0  0  0
  -25.9630  -38.2460   24.2430 H   0  0  0  0  0  0  0  0  0  0  0  0
  -30.6160  -18.8240   20.1200 C   0  0  0  0  0  2  0  0  0  0  0  0
  -30.4350  -17.4450   19.2910 C   0  0  0  0  0  2  0  0  0  0  0  0
  -31.2390  -14.9650   19.7680 C   0  0  0  0  0  0  0  0  0  0  0  0
  -31.0330  -12.6140   18.9610 C   0  0  0  0  0  2  0  0  0  0  0  0
  -30.0640  -12.6090   17.7560 C   0  0  0  0  0  2  0  0  0  0  0  0
  -28.6020  -12.4820   18.2260 C   0  0  0  0  0  2  0  0  0  0  0  0
  -28.2660  -13.4560   19.3850 C   0  0  0  0  0  3  0  0  0  0  0  0
  -29.3460  -13.4320   20.4880 C   0  0  0  0  0  2  0  0  0  0  0  0
  -30.6390  -13.7300   19.8530 N   0  0  0  0  0  0  0  0  0  0  0  0
  -32.3820  -15.0790   19.3180 O   0  0  0  0  0  0  0  0  0  0  0  0
  -30.4380  -16.0740   19.9770 N   0  0  0  0  0  0  0  0  0  0  0  0
  -29.5610  -15.8270   20.4100 H   0  0  0  0  0  0  0  0  0  0  0  0
  -25.9320  -14.1360   20.2130 C   0  0  0  0  0  0  0  0  0  0  0  0
  -24.8560  -13.4010   20.6260 C   0  0  0  0  0  0  0  0  0  0  0  0
  -25.2640  -12.0320   20.5650 C   0  0  0  0  0  0  0  0  0  0  0  0
  -26.9320  -13.2210   19.9280 N   0  0  0  0  0  0  0  0  0  0  0  0
  -26.5370  -11.9500   20.1980 N   0  0  0  0  0  0  0  0  0  0  0  0
  -24.5020  -10.7960   20.7760 C   0  0  0  0  0  0  0  0  0  0  0  0
  -24.8290   -9.8930   21.8100 C   0  0  0  0  0  3  0  0  0  0  0  0
  -24.0660   -8.7210   22.0060 C   0  0  0  0  0  3  0  0  0  0  0  0
  -22.9630   -8.4420   21.1660 C   0  0  0  0  0  0  0  0  0  0  0  0
  -22.6560   -9.3340   20.1210 C   0  0  0  0  0  3  0  0  0  0  0  0
  -23.4190  -10.4970   19.9260 C   0  0  0  0  0  3  0  0  0  0  0  0
  -22.1820   -7.3160   21.2640 O   0  0  0  0  0  0  0  0  0  0  0  0
  -21.8770   -6.7570   22.4780 C   0  0  0  0  0  0  0  0  0  0  0  0
  -21.1850   -7.4760   23.4780 C   0  0  0  0  0  3  0  0  0  0  0  0
  -20.8290   -6.8410   24.6840 C   0  0  0  0  0  3  0  0  0  0  0  0
  -21.1550   -5.4860   24.8900 C   0  0  0  0  0  0  0  0  0  0  0  0
  -21.8380   -4.7660   23.8930 C   0  0  0  0  0  3  0  0  0  0  0  0
  -22.1950   -5.4010   22.6900 C   0  0  0  0  0  0  0  0  0  0  0  0
  -22.8340   -4.6970   21.7250 F   0  0  0  0  0  0  0  0  0  0  0  0
  -20.8080   -4.8720   26.0450 F   0  0  0  0  0  0  0  0  0  0  0  0
  -23.4900  -13.9270   20.9630 C   0  0  0  0  0  0  0  0  0  0  0  0
  -22.7850  -13.2600   21.8710 N   0  0  0  0  0  0  0  0  0  0  0  0
  -23.0590  -14.9640   20.4560 O   0  0  0  0  0  0  0  0  0  0  0  0
  -23.1490  -12.4250   22.3060 H   0  0  0  0  0  0  0  0  0  0  0  0
  -21.8660  -13.5890   22.1360 H   0  0  0  0  0  0  0  0  0  0  0  0
  -26.1480  -15.4990   20.0270 N   0  0  0  0  0  0  0  0  0  0  0  0
  -25.4100  -16.1840   20.1430 H   0  0  0  0  0  0  0  0  0  0  0  0
  -26.9700  -15.8750   19.5800 H   0  0  0  0  0  0  0  0  0  0  0  0
  2  1  1  0
  3  6  1  0
  3  1  2  0
  4  2  2  0
  5 53  1  0
  5  3  1  0
  7  5  2  0
  7  4  1  0
  8 10  1  0
  8  9  1  0
 10  4  1  0
 10  9  1  0
 10 11  1  1
 12 11  1  0
 13 24  2  0
 14 12  1  0
 14 19  1  0
 15 23  1  0
 15 25  1  0
 16 22  1  0
 16 18  1  0
 17 23  1  0
 18 19  2  0
 18 17  1  0
 20 14  2  0
 21 20  1  0
 21 16  2  0
 22 15  1  0
 23 13  1  0
 25 27  2  0
 26 25  1  0
 28 26  1  0
 29 38  2  0
 29 34  1  0
 30 26  1  0
 30 34  1  0
 31 30  1  0
 32 33  1  0
 32 31  1  0
 33 29  1  0
 34 35  2  0
 35 36  1  0
 37 36  2  0
 38 37  1  0
 39 13  1  0
 39 44  1  0
 39 40  1  0
 40 43  1  1
 40 41  1  0
 42 40  1  0
 44 47  1  0
 45 49  1  0
 45 44  1  0
 46 45  2  0
 49 48  1  0
 51 49  1  0
 51 52  1  0
 51 50  1  0
 54 63  1  0
 54 53  1  0
 55 61  1  0
 55 63  1  0
 56 61  1  0
 57 58  1  0
 57 56  1  0
 59 58  1  0
 59 68  1  0
 59 60  1  0
 61 60  1  0
 62 55  2  0
 63 64  1  0
 65 66  2  0
 66 85  1  0
 67 66  1  0
 67 70  1  0
 68 69  1  0
 68 65  1  0
 69 67  2  0
 70 71  1  0
 71 72  2  0
 73 76  1  0
 73 72  1  0
 74 73  2  0
 75 74  1  0
 75 70  2  0
 76 77  1  0
 77 82  2  0
 77 78  1  0
 78 79  2  0
 79 80  1  0
 80 84  1  0
 81 80  2  0
 82 81  1  0
 83 82  1  0
 85 86  1  0
 86 89  1  0
 86 88  1  0
 87 85  2  0
 90 91  1  0
 90 65  1  0
 92 90  1  0
M  ISO  4  11 101  12 101  55 100  63 100
M  END
>  <TORSDO>  (94) 
F 20

>  <SCORE>  (94) 
-12.117

>  <name>  (94) 
94

>  <ligand_id>  (94) 
94

>  <original_smiles>  (94) 
[H]c1c(C2(C([H])([H])Oc3c([H])c([H])c4c(c3[H])C([H])([H])N(C(=O)C([H])(N([H])C(=O)C([H])(N([H])C([H])([H])[H])C([H])([H])[H])C(C([H])([H])[H])(C([H])([H])[H])C([H])([H])[H])C([H])(C(=O)N([H])C3([H])c5c([H])c([H])c([H])c([H])c5C([H])([H])C([H])([H])C3([H])[H])C4([H])[H])C([H])([H])C2([H])[H])nc(C([H])([H])C([H])([H])N([H])C(=O)N2C([H])([H])C([H])([H])C([H])([H])C([H])(n3nc(-c4c([H])c([H])c(Oc5c([H])c([H])c(F)c([H])c5F)c([H])c4[H])c(C(=O)N([H])[H])c3N([H])[H])C2([H])[H])c(C([H])([H])[H])c1[H]

>  <smiles>  (94) 
[H]c1c(C2(C([H])([H])Oc3c([H])c([H])c4c(c3[H])C([H])([H])N(C(=O)C([H])(N([H])C(=O)C([H])(N([H])C([H])([H])[H])C([H])([H])[H])C(C([H])([H])[H])(C([H])([H])[H])C([H])([H])[H])C([H])(C(=O)N([H])C3([H])c5c([H])c([H])c([H])c([H])c5C([H])([H])C([H])([H])C3([H])[H])C4([H])[H])C([H])([H])C2([H])[H])nc(C([H])([H])C([H])([H])N([H])C(=O)N2C([H])([H])C([H])([H])C([H])([H])C([H])(n3nc(-c4c([H])c([H])c(Oc5c([H])c([H])c(F)c([H])c5F)c([H])c4[H])c(C(=O)N([H])[H])c3N([H])[H])C2([H])[H])c(C([H])([H])[H])c1[H]

$$$$
95:0:0
     RDKit          3D

 94102  0  0  1  0  0  0  0  0999 V2000
  -30.7700  -20.6870   20.4100 C   0  0  0  0  0  2  0  0  0  0  0  0
  -30.2830  -19.4980   21.1840 N   0  0  0  0  0  4  0  0  0  0  0  0
  -30.5920  -19.5730   22.1390 H   0  0  0  0  0  0  0  0  0  0  0  0
  -29.2760  -19.5340   21.1800 H   0  0  0  0  0  0  0  0  0  0  0  0
  -30.7030  -18.1500   20.6590 C   0  0  0  0  0  2  0  0  0  0  0  0
  -30.6260  -14.6540   20.3530 C   0  0  0  0  0  0  0  0  0  0  0  0
  -30.3770  -12.4020   19.3620 C   0  0  0  0  0  2  0  0  0  0  0  0
  -29.4420  -12.4800   18.1370 C   0  0  0  0  0  2  0  0  0  0  0  0
  -27.9520  -12.4210   18.5540 C   0  0  0  0  0  2  0  0  0  0  0  0
  -27.5920  -13.2830   19.7970 C   0  0  0  0  0  3  0  0  0  0  0  0
  -28.6610  -13.1620   20.9040 C   0  0  0  0  0  2  0  0  0  0  0  0
  -29.9700  -13.4560   20.3020 N   0  0  0  0  0  0  0  0  0  0  0  0
  -31.8430  -14.7520   20.1790 O   0  0  0  0  0  0  0  0  0  0  0  0
  -28.2590  -17.4360   20.4730 C   0  0  0  0  0  2  0  0  0  0  0  0
  -29.3820  -16.1030   18.7930 C   0  0  0  0  0  2  0  0  0  0  0  0
  -28.2140  -17.0820   18.9840 C   0  0  0  0  0  3  0  0  0  0  0  0
  -29.6560  -17.0010   20.9360 C   0  0  0  0  0  3  0  0  0  0  0  0
  -28.2710  -18.2920   18.0370 C   0  0  0  0  0  1  0  0  0  0  0  0
  -29.8370  -15.7510   20.1440 N   0  0  0  0  0  0  0  0  0  0  0  0
  -25.1940  -13.8890   20.5000 C   0  0  0  0  0  0  0  0  0  0  0  0
  -24.1250  -13.1200   20.8670 C   0  0  0  0  0  0  0  0  0  0  0  0
  -24.5900  -11.7700   20.8550 C   0  0  0  0  0  0  0  0  0  0  0  0
  -26.2440  -13.0080   20.2870 N   0  0  0  0  0  0  0  0  0  0  0  0
  -25.8840  -11.7290   20.5610 N   0  0  0  0  0  0  0  0  0  0  0  0
  -23.8630  -10.5100   21.0440 C   0  0  0  0  0  0  0  0  0  0  0  0
  -24.2920   -9.5450   21.9830 C   0  0  0  0  0  3  0  0  0  0  0  0
  -23.5690   -8.3480   22.1600 C   0  0  0  0  0  3  0  0  0  0  0  0
  -22.3990   -8.1080   21.4020 C   0  0  0  0  0  0  0  0  0  0  0  0
  -21.9850   -9.0640   20.4550 C   0  0  0  0  0  3  0  0  0  0  0  0
  -22.7120  -10.2520   20.2750 C   0  0  0  0  0  3  0  0  0  0  0  0
  -21.6430   -6.9640   21.4900 O   0  0  0  0  0  0  0  0  0  0  0  0
  -21.5990   -6.2190   22.6420 C   0  0  0  0  0  0  0  0  0  0  0  0
  -21.1820   -6.7730   23.8720 C   0  0  0  0  0  3  0  0  0  0  0  0
  -21.0880   -5.9550   25.0160 C   0  0  0  0  0  3  0  0  0  0  0  0
  -21.3980   -4.5840   24.9300 C   0  0  0  0  0  0  0  0  0  0  0  0
  -21.8090   -4.0310   23.7040 C   0  0  0  0  0  3  0  0  0  0  0  0
  -21.9060   -4.8460   22.5620 C   0  0  0  0  0  0  0  0  0  0  0  0
  -22.2830   -4.3030   21.3800 F   0  0  0  0  0  0  0  0  0  0  0  0
  -21.2990   -3.7970   26.0270 F   0  0  0  0  0  0  0  0  0  0  0  0
  -22.7250  -13.6030   21.1180 C   0  0  0  0  0  0  0  0  0  0  0  0
  -21.9840  -12.9200   21.9810 N   0  0  0  0  0  0  0  0  0  0  0  0
  -22.2950  -14.6250   20.5860 O   0  0  0  0  0  0  0  0  0  0  0  0
  -22.3410  -12.0990   22.4460 H   0  0  0  0  0  0  0  0  0  0  0  0
  -21.0450  -13.2320   22.1860 H   0  0  0  0  0  0  0  0  0  0  0  0
  -25.3460  -15.2560   20.3070 N   0  0  0  0  0  0  0  0  0  0  0  0
  -24.5600  -15.8940   20.3730 H   0  0  0  0  0  0  0  0  0  0  0  0
  -26.1920  -15.6970   19.9740 H   0  0  0  0  0  0  0  0  0  0  0  0
  -30.5550  -22.1600   22.5490 C   0  0  0  0  0  1  0  0  0  0  0  0
  -30.4890  -22.1240   21.0110 C   0  0  0  0  0  3  0  0  0  0  0  0
  -29.2880  -22.8470   20.5170 N   0  0  0  0  0  0  0  0  0  0  0  0
  -28.4530  -22.5330   21.0080 H   0  0  0  0  0  0  0  0  0  0  0  0
  -29.4110  -24.3290   20.6190 C   0  0  0  0  0  2  0  0  0  0  0  0
  -28.1750  -25.1630   20.1340 C   0  0  0  0  0  2  0  0  0  0  0  0
  -28.3390  -26.6110   20.2390 O   0  0  0  0  0  0  0  0  0  0  0  0
  -24.5770  -31.9040   23.2650 C   0  0  0  0  0  0  0  0  0  0  0  0
  -27.1910  -27.4030   20.1890 C   0  0  0  0  0  0  0  0  0  0  0  0
  -23.3650  -30.5120   21.6210 C   0  0  0  0  0  3  0  0  0  0  0  0
  -24.8120  -28.9670   20.1920 C   0  0  0  0  0  0  0  0  0  0  0  0
  -25.9030  -30.8430   21.4310 C   0  0  0  0  0  2  0  0  0  0  0  0
  -25.9790  -29.4720   20.7770 C   0  0  0  0  0  0  0  0  0  0  0  0
  -27.1720  -28.7020   20.7640 C   0  0  0  0  0  3  0  0  0  0  0  0
  -26.0030  -26.9340   19.5820 C   0  0  0  0  0  3  0  0  0  0  0  0
  -24.8220  -27.7000   19.5870 C   0  0  0  0  0  3  0  0  0  0  0  0
  -23.5720  -29.8360   20.2420 C   0  0  0  0  0  2  0  0  0  0  0  0
  -24.6330  -31.1030   22.1600 N   0  0  0  0  0  0  0  0  0  0  0  0
  -23.4980  -32.1800   23.8050 O   0  0  0  0  0  0  0  0  0  0  0  0
  -22.7090  -29.4920   22.5810 C   0  0  0  0  0  0  0  0  0  0  0  0
  -21.3850  -29.3030   22.4480 N   0  0  0  0  0  0  0  0  0  0  0  0
  -23.3890  -28.8710   23.4020 O   0  0  0  0  0  0  0  0  0  0  0  0
  -20.8960  -29.8560   21.7570 H   0  0  0  0  0  0  0  0  0  0  0  0
  -18.0140  -28.0860   22.9250 C   0  0  0  0  0  0  0  0  0  0  0  0
  -20.5680  -28.3660   23.2190 C   0  0  0  0  0  3  0  0  0  0  0  0
  -20.6850  -26.9290   22.6590 C   0  0  0  0  0  2  0  0  0  0  0  0
  -19.5950  -26.5900   21.6360 C   0  0  0  0  0  2  0  0  0  0  0  0
  -18.2060  -26.7320   22.2640 C   0  0  0  0  0  2  0  0  0  0  0  0
  -19.1240  -28.8600   23.3600 C   0  0  0  0  0  0  0  0  0  0  0  0
  -18.8900  -30.1270   23.9360 C   0  0  0  0  0  3  0  0  0  0  0  0
  -17.5800  -30.6210   24.0830 C   0  0  0  0  0  3  0  0  0  0  0  0
  -16.4860  -29.8450   23.6650 C   0  0  0  0  0  3  0  0  0  0  0  0
  -16.7040  -28.5790   23.0920 C   0  0  0  0  0  3  0  0  0  0  0  0
  -25.8660  -32.5310   23.8830 C   0  0  0  0  0  3  0  0  0  0  0  0
  -26.3770  -31.7650   25.1640 C   0  0  1  0  0  0  0  0  0  0  0  0
  -25.2840  -31.5420   26.2340 C   0  0  0  0  0  1  0  0  0  0  0  0
  -26.9550  -30.3810   24.7850 C   0  0  0  0  0  1  0  0  0  0  0  0
  -27.5320  -32.5580   25.8190 C   0  0  0  0  0  1  0  0  0  0  0  0
  -25.5640  -33.9330   24.2020 N   0  0  0  0  0  0  0  0  0  0  0  0
  -25.9050  -34.9780   23.4360 C   0  0  0  0  0  0  0  0  0  0  0  0
  -26.5760  -34.8620   22.4070 O   0  0  0  0  0  0  0  0  0  0  0  0
  -24.9710  -34.0960   25.0020 H   0  0  0  0  0  0  0  0  0  0  0  0
  -24.1910  -36.7780   23.0600 C   0  0  0  0  0  1  0  0  0  0  0  0
  -25.4250  -36.3730   23.8820 C   0  0  0  0  0  3  0  0  0  0  0  0
  -27.5610  -37.2470   24.7180 C   0  0  0  0  0  1  0  0  0  0  0  0
  -26.4660  -37.4180   23.7670 N   0  0  0  0  0  0  0  0  0  0  0  0
  -26.0660  -38.3430   23.9060 H   0  0  0  0  0  0  0  0  0  0  0  0
  1 49  1  0
  1  2  1  0
  2  3  1  0
  4  2  1  0
  5  2  1  0
  7 12  1  0
  8  9  1  0
  8  7  1  0
 10  9  1  0
 10 23  1  0
 10 11  1  0
 12  6  1  0
 12 11  1  0
 13  6  2  0
 14 17  1  0
 15 16  1  0
 15 19  1  0
 16 18  1  0
 16 14  1  0
 17  5  1  0
 19  6  1  0
 19 17  1  0
 20 21  2  0
 21 40  1  0
 22 21  1  0
 22 25  1  0
 23 20  1  0
 23 24  1  0
 24 22  2  0
 25 26  1  0
 26 27  2  0
 28 31  1  0
 28 27  1  0
 29 28  2  0
 30 29  1  0
 30 25  2  0
 31 32  1  0
 32 33  1  0
 33 34  2  0
 35 34  1  0
 35 39  1  0
 36 35  2  0
 37 32  2  0
 37 36  1  0
 38 37  1  0
 40 41  1  0
 41 44  1  0
 41 43  1  0
 42 40  2  0
 45 46  1  0
 45 20  1  0
 47 45  1  0
 49 48  1  0
 50 52  1  0
 50 51  1  0
 50 49  1  0
 53 54  1  0
 53 52  1  0
 55 66  2  0
 56 54  1  0
 56 61  1  0
 57 65  1  0
 57 67  1  0
 58 64  1  0
 58 60  1  0
 59 65  1  0
 60 59  1  0
 61 60  2  0
 62 63  1  0
 62 56  2  0
 63 58  2  0
 64 57  1  0
 65 55  1  0
 67 69  2  0
 68 67  1  0
 70 68  1  0
 71 80  2  0
 71 76  1  0
 72 68  1  0
 72 76  1  0
 73 72  1  0
 74 75  1  0
 74 73  1  0
 75 71  1  0
 76 77  2  0
 77 78  1  0
 79 78  2  0
 80 79  1  0
 81 55  1  0
 81 86  1  0
 81 82  1  0
 82 85  1  1
 82 83  1  0
 84 82  1  0
 86 89  1  0
 87 91  1  0
 87 86  1  0
 88 87  2  0
 91 90  1  0
 93 91  1  0
 93 94  1  0
 93 92  1  0
M  ISO  4   6 100  19 100  53 101  54 101
M  END
>  <TORSDO>  (95) 
F 22

>  <SCORE>  (95) 
-13.466

>  <name>  (95) 
95

>  <ligand_id>  (95) 
95

>  <original_smiles>  (95) 
[H]c1c([H])c([H])c2c(c1[H])C([H])([H])C([H])([H])C([H])([H])C2([H])N([H])C(=O)C1([H])N(C(=O)C([H])(N([H])C(=O)C([H])(N([H])C([H])([H])[H])C([H])([H])[H])C(C([H])([H])[H])(C([H])([H])[H])C([H])([H])[H])C([H])([H])c2c([H])c(OC([H])([H])C([H])([H])N([H])C([H])(C([H])([H])[H])C([H])([H])[N+]([H])([H])C([H])([H])C3([H])N(C(=O)N4C([H])([H])C([H])([H])C([H])([H])C([H])(n5nc(-c6c([H])c([H])c(Oc7c([H])c([H])c(F)c([H])c7F)c([H])c6[H])c(C(=O)N([H])[H])c5N([H])[H])C4([H])[H])C([H])([H])C([H])(C([H])([H])[H])C3([H])[H])c([H])c([H])c2C1([H])[H]

>  <smiles>  (95) 
[H]c1c([H])c([H])c2c(c1[H])C([H])([H])C([H])([H])C([H])([H])C2([H])N([H])C(=O)C1([H])N(C(=O)C([H])(N([H])C(=O)C([H])(N([H])C([H])([H])[H])C([H])([H])[H])C(C([H])([H])[H])(C([H])([H])[H])C([H])([H])[H])C([H])([H])c2c([H])c(OC([H])([H])C([H])([H])N([H])C([H])(C([H])([H])[H])C([H])([H])[N+]([H])([H])C([H])([H])C3([H])N(C(=O)N4C([H])([H])C([H])([H])C([H])([H])C([H])(n5nc(-c6c([H])c([H])c(Oc7c([H])c([H])c(F)c([H])c7F)c([H])c6[H])c(C(=O)N([H])[H])c5N([H])[H])C4([H])[H])C([H])([H])C([H])(C([H])([H])[H])C3([H])[H])c([H])c([H])c2C1([H])[H]

$$$$
