0:0:0
     RDKit          3D

 88 96  0  0  1  0  0  0  0  0999 V2000
  -28.6120  -21.6890   20.3880 C   0  0  0  0  0  2  0  0  0  0  0  0
  -29.6490  -20.4830   20.2940 N   0  0  0  0  0  4  0  0  0  0  0  0
  -30.0660  -20.5330   19.3780 H   0  0  0  0  0  0  0  0  0  0  0  0
  -30.3850  -20.7200   20.9400 H   0  0  0  0  0  0  0  0  0  0  0  0
  -30.5480  -15.0480   20.2710 C   0  0  0  0  0  0  0  0  0  0  0  0
  -30.3740  -12.6970   19.3220 C   0  0  0  0  0  2  0  0  0  0  0  0
  -29.4260  -12.6140   18.1060 C   0  0  0  0  0  2  0  0  0  0  0  0
  -27.9800  -12.3640   18.5710 C   0  0  0  0  0  2  0  0  0  0  0  0
  -27.5680  -13.2980   19.7340 C   0  0  0  0  0  3  0  0  0  0  0  0
  -28.6440  -13.3870   20.8400 C   0  0  0  0  0  2  0  0  0  0  0  0
  -29.8940  -13.8120   20.1920 N   0  0  0  0  0  0  0  0  0  0  0  0
  -31.7700  -15.0210   20.0870 O   0  0  0  0  0  0  0  0  0  0  0  0
  -28.3490  -18.2100   19.6660 C   0  0  0  0  0  2  0  0  0  0  0  0
  -28.5190  -16.6590   19.9180 C   0  0  0  0  0  2  0  0  0  0  0  0
  -30.4650  -17.7520   20.5440 C   0  0  0  0  0  2  0  0  0  0  0  0
  -29.3330  -18.9440   20.5810 C   0  0  0  0  0  3  0  0  0  0  0  0
  -29.8820  -16.3230   20.3800 N   0  0  0  0  0  0  0  0  0  0  0  0
  -25.2000  -13.8710   20.5110 C   0  0  0  0  0  0  0  0  0  0  0  0
  -24.1450  -13.0920   20.8870 C   0  0  0  0  0  0  0  0  0  0  0  0
  -24.6130  -11.7430   20.8420 C   0  0  0  0  0  0  0  0  0  0  0  0
  -26.2440  -12.9960   20.2570 N   0  0  0  0  0  0  0  0  0  0  0  0
  -25.9020  -11.7120   20.5230 N   0  0  0  0  0  0  0  0  0  0  0  0
  -23.8940  -10.4790   21.0250 C   0  0  0  0  0  0  0  0  0  0  0  0
  -24.3200   -9.5160   21.9660 C   0  0  0  0  0  3  0  0  0  0  0  0
  -23.5980   -8.3160   22.1370 C   0  0  0  0  0  3  0  0  0  0  0  0
  -22.4370   -8.0700   21.3670 C   0  0  0  0  0  0  0  0  0  0  0  0
  -22.0310   -9.0210   20.4150 C   0  0  0  0  0  3  0  0  0  0  0  0
  -22.7530  -10.2130   20.2410 C   0  0  0  0  0  3  0  0  0  0  0  0
  -21.6890   -6.9210   21.4470 O   0  0  0  0  0  0  0  0  0  0  0  0
  -21.6050   -6.1990   22.6110 C   0  0  0  0  0  0  0  0  0  0  0  0
  -21.1140   -6.7670   23.8070 C   0  0  0  0  0  3  0  0  0  0  0  0
  -20.9790   -5.9700   24.9610 C   0  0  0  0  0  3  0  0  0  0  0  0
  -21.3240   -4.6060   24.9200 C   0  0  0  0  0  0  0  0  0  0  0  0
  -21.8090   -4.0380   23.7290 C   0  0  0  0  0  3  0  0  0  0  0  0
  -21.9460   -4.8310   22.5760 C   0  0  0  0  0  0  0  0  0  0  0  0
  -22.3930   -4.2740   21.4250 F   0  0  0  0  0  0  0  0  0  0  0  0
  -21.1870   -3.8370   26.0250 F   0  0  0  0  0  0  0  0  0  0  0  0
  -22.7490  -13.5640   21.1700 C   0  0  0  0  0  0  0  0  0  0  0  0
  -22.0300  -12.8600   22.0370 N   0  0  0  0  0  0  0  0  0  0  0  0
  -22.3060  -14.5920   20.6590 O   0  0  0  0  0  0  0  0  0  0  0  0
  -22.4020  -12.0290   22.4710 H   0  0  0  0  0  0  0  0  0  0  0  0
  -21.0930  -13.1590   22.2710 H   0  0  0  0  0  0  0  0  0  0  0  0
  -25.3470  -15.2430   20.3310 N   0  0  0  0  0  0  0  0  0  0  0  0
  -24.5640  -15.8790   20.4380 H   0  0  0  0  0  0  0  0  0  0  0  0
  -26.1700  -15.6850   19.9470 H   0  0  0  0  0  0  0  0  0  0  0  0
  -29.0320  -23.3370   20.2920 C   0  0  0  0  0  3  0  0  0  0  0  0
  -27.9540  -24.6450   20.2310 C   0  0  0  0  0  3  0  0  0  0  0  0
  -28.2370  -26.1870   20.2540 O   0  0  0  0  0  0  0  0  0  0  0  0
  -24.6210  -31.8990   23.2420 C   0  0  0  0  0  0  0  0  0  0  0  0
  -27.1770  -27.1720   20.2040 C   0  0  0  0  0  0  0  0  0  0  0  0
  -23.4110  -30.5070   21.6090 C   0  0  0  0  0  3  0  0  0  0  0  0
  -24.8500  -28.9270   20.1800 C   0  0  0  0  0  0  0  0  0  0  0  0
  -25.9650  -30.7640   21.4330 C   0  0  0  0  0  2  0  0  0  0  0  0
  -26.0340  -29.3710   20.7810 C   0  0  0  0  0  0  0  0  0  0  0  0
  -27.1990  -28.5120   20.7720 C   0  0  0  0  0  3  0  0  0  0  0  0
  -25.9620  -26.8320   19.5670 C   0  0  0  0  0  3  0  0  0  0  0  0
  -24.8280  -27.6710   19.5570 C   0  0  0  0  0  3  0  0  0  0  0  0
  -23.6250  -29.8270   20.2300 C   0  0  0  0  0  2  0  0  0  0  0  0
  -24.6860  -31.0780   22.1500 N   0  0  0  0  0  0  0  0  0  0  0  0
  -23.5370  -32.1860   23.7740 O   0  0  0  0  0  0  0  0  0  0  0  0
  -22.7320  -29.5010   22.5730 C   0  0  0  0  0  0  0  0  0  0  0  0
  -21.4030  -29.3330   22.4480 N   0  0  0  0  0  0  0  0  0  0  0  0
  -23.4030  -28.8750   23.3970 O   0  0  0  0  0  0  0  0  0  0  0  0
  -20.9180  -29.8870   21.7570 H   0  0  0  0  0  0  0  0  0  0  0  0
  -18.0200  -28.1410   22.9630 C   0  0  0  0  0  0  0  0  0  0  0  0
  -20.5800  -28.3980   23.2220 C   0  0  0  0  0  3  0  0  0  0  0  0
  -20.6770  -26.9650   22.6490 C   0  0  0  0  0  2  0  0  0  0  0  0
  -19.5720  -26.6430   21.6390 C   0  0  0  0  0  2  0  0  0  0  0  0
  -18.1940  -26.7900   22.2890 C   0  0  0  0  0  2  0  0  0  0  0  0
  -19.1410  -28.9020   23.3870 C   0  0  0  0  0  0  0  0  0  0  0  0
  -18.9240  -30.1650   23.9800 C   0  0  0  0  0  3  0  0  0  0  0  0
  -17.6210  -30.6650   24.1530 C   0  0  0  0  0  3  0  0  0  0  0  0
  -16.5140  -29.9020   23.7440 C   0  0  0  0  0  3  0  0  0  0  0  0
  -16.7150  -28.6400   23.1550 C   0  0  0  0  0  3  0  0  0  0  0  0
  -25.9020  -32.5320   23.8640 C   0  0  0  0  0  3  0  0  0  0  0  0
  -26.4180  -31.7590   25.1400 C   0  0  1  0  0  0  0  0  0  0  0  0
  -25.3250  -31.5230   26.2100 C   0  0  0  0  0  1  0  0  0  0  0  0
  -26.9990  -30.3810   24.7510 C   0  0  0  0  0  1  0  0  0  0  0  0
  -27.5700  -32.5510   25.8010 C   0  0  0  0  0  1  0  0  0  0  0  0
  -25.5920  -33.9290   24.2040 N   0  0  0  0  0  0  0  0  0  0  0  0
  -25.9030  -34.9880   23.4440 C   0  0  0  0  0  0  0  0  0  0  0  0
  -26.5460  -34.8900   22.3950 O   0  0  0  0  0  0  0  0  0  0  0  0
  -25.0180  -34.0790   25.0200 H   0  0  0  0  0  0  0  0  0  0  0  0
  -24.1540  -36.7750   23.1540 C   0  0  0  0  0  1  0  0  0  0  0  0
  -25.4260  -36.3740   23.9200 C   0  0  0  0  0  3  0  0  0  0  0  0
  -27.5810  -37.2750   24.6780 C   0  0  0  0  0  1  0  0  0  0  0  0
  -26.4480  -37.4340   23.7700 N   0  0  0  0  0  0  0  0  0  0  0  0
  -26.0420  -38.3520   23.9290 H   0  0  0  0  0  0  0  0  0  0  0  0
  2  1  1  0
  2  4  1  0
  3  2  1  0
  5 17  1  0
  6 11  1  0
  7  8  1  0
  7  6  1  0
  9  8  1  0
  9 21  1  0
  9 10  1  0
 11  5  1  0
 11 10  1  0
 12  5  2  0
 13 14  1  0
 13 16  1  0
 14 17  1  0
 15 16  1  0
 16  2  1  0
 17 15  1  0
 18 19  2  0
 19 38  1  0
 20 19  1  0
 20 23  1  0
 21 18  1  0
 21 22  1  0
 22 20  2  0
 23 24  1  0
 24 25  2  0
 26 29  1  0
 26 25  1  0
 27 26  2  0
 28 27  1  0
 28 23  2  0
 29 30  1  0
 30 31  1  0
 31 32  2  0
 33 32  1  0
 33 37  1  0
 34 33  2  0
 35 30  2  0
 35 34  1  0
 36 35  1  0
 38 39  1  0
 39 42  1  0
 39 41  1  0
 40 38  2  0
 43 44  1  0
 43 18  1  0
 45 43  1  0
 46  1  1  0
 47 48  1  0
 47 46  2  0
 49 60  2  0
 50 48  1  0
 50 55  1  0
 51 59  1  0
 51 61  1  0
 52 58  1  0
 52 54  1  0
 53 59  1  0
 54 53  1  0
 55 54  2  0
 56 50  2  0
 57 56  1  0
 57 52  2  0
 58 51  1  0
 59 49  1  0
 61 63  2  0
 62 61  1  0
 64 62  1  0
 65 74  2  0
 65 70  1  0
 66 62  1  0
 66 70  1  0
 67 66  1  0
 68 69  1  0
 68 67  1  0
 69 65  1  0
 70 71  2  0
 71 72  1  0
 73 72  2  0
 74 73  1  0
 75 49  1  0
 75 80  1  0
 75 76  1  0
 76 79  1  1
 76 77  1  0
 78 76  1  0
 80 83  1  0
 81 85  1  0
 81 80  1  0
 82 81  2  0
 85 84  1  0
 87 85  1  0
 87 88  1  0
 87 86  1  0
M  ISO  4   5 100  17 100  47 101  48 101
M  END
>  <TORSDO>  (1) 
F 19

>  <SCORE>  (1) 
-15.412

>  <name>  (1) 
0

>  <ligand_id>  (1) 
0

>  <original_smiles>  (1) 
[H]c1c([H])c([H])c2c(c1[H])C([H])([H])C([H])([H])C([H])([H])C2([H])N([H])C(=O)C1([H])N(C(=O)C([H])(N([H])C(=O)C([H])(N([H])C([H])([H])[H])C([H])([H])[H])C(C([H])([H])[H])(C([H])([H])[H])C([H])([H])[H])C([H])([H])c2c([H])c(OC([H])([H])C([H])([H])C([H])([H])[N+]([H])([H])C3([H])C([H])([H])N(C(=O)N4C([H])([H])C([H])([H])C([H])([H])C([H])(n5nc(-c6c([H])c([H])c(Oc7c([H])c([H])c(F)c([H])c7F)c([H])c6[H])c(C(=O)N([H])[H])c5N([H])[H])C4([H])[H])C([H])([H])C3([H])[H])c([H])c([H])c2C1([H])[H]

>  <smiles>  (1) 
[H]c1c([H])c([H])c2c(c1[H])C([H])([H])C([H])([H])C([H])([H])C2([H])N([H])C(=O)C1([H])N(C(=O)C([H])(N([H])C(=O)C([H])(N([H])C([H])([H])[H])C([H])([H])[H])C(C([H])([H])[H])(C([H])([H])[H])C([H])([H])[H])C([H])([H])c2c([H])c(OC([H])([H])C([H])([H])C([H])([H])[N+]([H])([H])C3([H])C([H])([H])N(C(=O)N4C([H])([H])C([H])([H])C([H])([H])C([H])(n5nc(-c6c([H])c([H])c(Oc7c([H])c([H])c(F)c([H])c7F)c([H])c6[H])c(C(=O)N([H])[H])c5N([H])[H])C4([H])[H])C([H])([H])C3([H])[H])c([H])c([H])c2C1([H])[H]

$$$$
1:0:0
     RDKit          3D

 98107  0  0  1  0  0  0  0  0999 V2000
  -28.9970  -19.0250   20.4700 C   0  0  0  0  0  3  0  0  0  0  0  0
  -29.9590  -17.8890   20.3010 C   0  0  0  0  0  0  0  0  0  0  0  0
  -29.3540  -20.4610   20.2860 C   0  0  0  0  0  0  0  0  0  0  0  0
  -31.4490  -19.6310   19.8000 C   0  0  0  0  0  0  0  0  0  0  0  0
  -31.1930  -18.3320   19.9560 N   0  0  0  0  0  0  0  0  0  0  0  0
  -30.6300  -20.6720   19.9460 N   0  0  0  0  0  0  0  0  0  0  0  0
  -28.5390  -21.7170   20.3910 N   0  0  0  0  0  0  0  0  0  0  0  0
  -32.7400  -19.9130   19.4230 N   0  0  0  0  0  0  0  0  0  0  0  0
  -27.5700  -21.5610   20.6510 H   0  0  0  0  0  0  0  0  0  0  0  0
  -33.3280  -19.1060   19.2520 H   0  0  0  0  0  0  0  0  0  0  0  0
  -30.4860  -15.1500   20.2700 C   0  0  0  0  0  0  0  0  0  0  0  0
  -30.3820  -12.7790   19.3280 C   0  0  0  0  0  2  0  0  0  0  0  0
  -29.4310  -12.7030   18.1090 C   0  0  0  0  0  2  0  0  0  0  0  0
  -27.9780  -12.4630   18.5640 C   0  0  0  0  0  2  0  0  0  0  0  0
  -27.5790  -13.3760   19.7520 C   0  0  0  0  0  3  0  0  0  0  0  0
  -28.6540  -13.4200   20.8590 C   0  0  0  0  0  2  0  0  0  0  0  0
  -29.8990  -13.8760   20.2260 N   0  0  0  0  0  0  0  0  0  0  0  0
  -31.6900  -15.1760   19.9810 O   0  0  0  0  0  0  0  0  0  0  0  0
  -29.7060  -16.3560   20.4490 N   0  0  0  0  0  0  0  0  0  0  0  0
  -28.7500  -16.1410   20.6830 H   0  0  0  0  0  0  0  0  0  0  0  0
  -25.2170  -13.9180   20.5630 C   0  0  0  0  0  0  0  0  0  0  0  0
  -24.1670  -13.1290   20.9410 C   0  0  0  0  0  0  0  0  0  0  0  0
  -24.6380  -11.7820   20.8700 C   0  0  0  0  0  0  0  0  0  0  0  0
  -26.2580  -13.0530   20.2770 N   0  0  0  0  0  0  0  0  0  0  0  0
  -25.9230  -11.7610   20.5300 N   0  0  0  0  0  0  0  0  0  0  0  0
  -23.9220  -10.5120   21.0470 C   0  0  0  0  0  0  0  0  0  0  0  0
  -24.3550   -9.5430   21.9780 C   0  0  0  0  0  3  0  0  0  0  0  0
  -23.6360   -8.3380   22.1440 C   0  0  0  0  0  3  0  0  0  0  0  0
  -22.4710   -8.0960   21.3790 C   0  0  0  0  0  0  0  0  0  0  0  0
  -22.0580   -9.0540   20.4360 C   0  0  0  0  0  3  0  0  0  0  0  0
  -22.7770  -10.2490   20.2680 C   0  0  0  0  0  3  0  0  0  0  0  0
  -21.7230   -6.9450   21.4540 O   0  0  0  0  0  0  0  0  0  0  0  0
  -21.6370   -6.2190   22.6150 C   0  0  0  0  0  0  0  0  0  0  0  0
  -21.0870   -6.7640   23.7970 C   0  0  0  0  0  3  0  0  0  0  0  0
  -20.9520   -5.9600   24.9460 C   0  0  0  0  0  3  0  0  0  0  0  0
  -21.3580   -4.6120   24.9140 C   0  0  0  0  0  0  0  0  0  0  0  0
  -21.9000   -4.0660   23.7380 C   0  0  0  0  0  3  0  0  0  0  0  0
  -22.0350   -4.8680   22.5900 C   0  0  0  0  0  0  0  0  0  0  0  0
  -22.5390   -4.3310   21.4530 F   0  0  0  0  0  0  0  0  0  0  0  0
  -21.2210   -3.8380   26.0160 F   0  0  0  0  0  0  0  0  0  0  0  0
  -22.7730  -13.5920   21.2480 C   0  0  0  0  0  0  0  0  0  0  0  0
  -22.0620  -12.8710   22.1070 N   0  0  0  0  0  0  0  0  0  0  0  0
  -22.3230  -14.6290   20.7620 O   0  0  0  0  0  0  0  0  0  0  0  0
  -22.4410  -12.0320   22.5220 H   0  0  0  0  0  0  0  0  0  0  0  0
  -21.1260  -13.1610   22.3540 H   0  0  0  0  0  0  0  0  0  0  0  0
  -25.3660  -15.2940   20.4100 N   0  0  0  0  0  0  0  0  0  0  0  0
  -24.5870  -15.9300   20.5400 H   0  0  0  0  0  0  0  0  0  0  0  0
  -26.1770  -15.7430   20.0060 H   0  0  0  0  0  0  0  0  0  0  0  0
  -34.5370  -21.2130   18.2520 C   0  0  0  0  0  2  0  0  0  0  0  0
  -34.8970  -22.7020   18.2460 C   0  0  0  0  0  2  0  0  0  0  0  0
  -33.3530  -22.2830   20.0290 C   0  0  0  0  0  2  0  0  0  0  0  0
  -33.1750  -21.2200   18.9340 C   0  0  0  0  0  3  0  0  0  0  0  0
  -33.7280  -24.6280   19.3060 C   0  0  0  0  0  1  0  0  0  0  0  0
  -34.3010  -23.2770   19.4780 N   0  0  2  0  0  4  0  0  0  0  0  0
  -35.0430  -23.3620   20.1570 H   0  0  0  0  0  0  0  0  0  0  0  0
  -28.9520  -23.2500   20.3400 C   0  0  0  0  0  3  0  0  0  0  0  0
  -27.8870  -24.5960   20.1980 C   0  0  0  0  0  3  0  0  0  0  0  0
  -28.1710  -26.1550   20.2690 O   0  0  0  0  0  0  0  0  0  0  0  0
  -24.5930  -31.9530   23.2290 C   0  0  0  0  0  0  0  0  0  0  0  0
  -27.1270  -27.1710   20.2130 C   0  0  0  0  0  0  0  0  0  0  0  0
  -23.3760  -30.5490   21.6110 C   0  0  0  0  0  3  0  0  0  0  0  0
  -24.8090  -28.9570   20.1830 C   0  0  0  0  0  0  0  0  0  0  0  0
  -25.9330  -30.7970   21.4230 C   0  0  0  0  0  2  0  0  0  0  0  0
  -25.9970  -29.3960   20.7790 C   0  0  0  0  0  0  0  0  0  0  0  0
  -27.1560  -28.5210   20.7730 C   0  0  0  0  0  3  0  0  0  0  0  0
  -25.9080  -26.8480   19.5760 C   0  0  0  0  0  3  0  0  0  0  0  0
  -24.7800  -27.6980   19.5640 C   0  0  0  0  0  3  0  0  0  0  0  0
  -23.5850  -29.8630   20.2350 C   0  0  0  0  0  2  0  0  0  0  0  0
  -24.6560  -31.1240   22.1420 N   0  0  0  0  0  0  0  0  0  0  0  0
  -23.5100  -32.2420   23.7640 O   0  0  0  0  0  0  0  0  0  0  0  0
  -22.7020  -29.5510   22.5870 C   0  0  0  0  0  0  0  0  0  0  0  0
  -21.3770  -29.3620   22.4560 N   0  0  0  0  0  0  0  0  0  0  0  0
  -23.3760  -28.9480   23.4260 O   0  0  0  0  0  0  0  0  0  0  0  0
  -20.8870  -29.9000   21.7550 H   0  0  0  0  0  0  0  0  0  0  0  0
  -18.0050  -28.1370   22.9740 C   0  0  0  0  0  0  0  0  0  0  0  0
  -20.5620  -28.4270   23.2380 C   0  0  0  0  0  3  0  0  0  0  0  0
  -20.6770  -26.9890   22.6820 C   0  0  0  0  0  2  0  0  0  0  0  0
  -19.5780  -26.6430   21.6720 C   0  0  0  0  0  2  0  0  0  0  0  0
  -18.1950  -26.7820   22.3130 C   0  0  0  0  0  2  0  0  0  0  0  0
  -19.1170  -28.9150   23.3950 C   0  0  0  0  0  0  0  0  0  0  0  0
  -18.8840  -30.1810   23.9760 C   0  0  0  0  0  3  0  0  0  0  0  0
  -17.5740  -30.6680   24.1400 C   0  0  0  0  0  3  0  0  0  0  0  0
  -16.4770  -29.8870   23.7360 C   0  0  0  0  0  3  0  0  0  0  0  0
  -16.6930  -28.6240   23.1580 C   0  0  0  0  0  3  0  0  0  0  0  0
  -25.8730  -32.5940   23.8430 C   0  0  0  0  0  3  0  0  0  0  0  0
  -26.4000  -31.8270   25.1170 C   0  0  1  0  0  0  0  0  0  0  0  0
  -25.3130  -31.5780   26.1900 C   0  0  0  0  0  1  0  0  0  0  0  0
  -26.9950  -30.4540   24.7270 C   0  0  0  0  0  1  0  0  0  0  0  0
  -27.5470  -32.6310   25.7760 C   0  0  0  0  0  1  0  0  0  0  0  0
  -25.5600  -33.9920   24.1810 N   0  0  0  0  0  0  0  0  0  0  0  0
  -25.8650  -35.0510   23.4190 C   0  0  0  0  0  0  0  0  0  0  0  0
  -26.5060  -34.9550   22.3690 O   0  0  0  0  0  0  0  0  0  0  0  0
  -24.9890  -34.1420   24.9990 H   0  0  0  0  0  0  0  0  0  0  0  0
  -24.1240  -36.8440   23.1170 C   0  0  0  0  0  1  0  0  0  0  0  0
  -25.3860  -36.4370   23.8950 C   0  0  0  0  0  3  0  0  0  0  0  0
  -27.5270  -37.3370   24.6910 C   0  0  0  0  0  1  0  0  0  0  0  0
  -26.4120  -37.4940   23.7620 N   0  0  0  0  0  0  0  0  0  0  0  0
  -26.0030  -38.4130   23.9100 H   0  0  0  0  0  0  0  0  0  0  0  0
  2 19  1  0
  2  1  2  0
  3  7  1  0
  3  1  1  0
  4  6  1  0
  4  5  2  0
  5  2  1  0
  6  3  2  0
  7  9  1  0
  8  4  1  0
 10  8  1  0
 11 19  1  0
 12 17  1  0
 13 14  1  0
 13 12  1  0
 15 14  1  0
 15 24  1  0
 15 16  1  0
 17 11  1  0
 17 16  1  0
 18 11  2  0
 19 20  1  0
 21 22  2  0
 22 41  1  0
 23 22  1  0
 23 26  1  0
 24 25  1  0
 24 21  1  0
 25 23  2  0
 26 27  1  0
 27 28  2  0
 29 32  1  0
 29 28  1  0
 30 29  2  0
 31 30  1  0
 31 26  2  0
 32 33  1  0
 33 34  1  0
 34 35  2  0
 36 35  1  0
 36 40  1  0
 37 36  2  0
 38 33  2  0
 38 37  1  0
 39 38  1  0
 41 42  1  0
 42 45  1  0
 42 44  1  0
 43 41  2  0
 46 47  1  0
 46 21  1  0
 48 46  1  0
 49 52  1  0
 50 49  1  0
 50 54  1  0
 52  8  1  0
 52 51  1  0
 53 54  1  0
 54 51  1  0
 54 55  1  1
 56  7  1  0
 57 58  1  0
 57 56  2  0
 59 70  2  0
 60 58  1  0
 60 65  1  0
 61 69  1  0
 61 71  1  0
 62 68  1  0
 62 64  1  0
 63 69  1  0
 64 63  1  0
 65 64  2  0
 66 60  2  0
 67 66  1  0
 67 62  2  0
 68 61  1  0
 69 59  1  0
 71 73  2  0
 72 71  1  0
 74 72  1  0
 75 84  2  0
 75 80  1  0
 76 72  1  0
 76 80  1  0
 77 76  1  0
 78 79  1  0
 78 77  1  0
 79 75  1  0
 80 81  2  0
 81 82  1  0
 83 82  2  0
 84 83  1  0
 85 59  1  0
 85 90  1  0
 85 86  1  0
 86 89  1  1
 86 87  1  0
 88 86  1  0
 90 93  1  0
 91 95  1  0
 91 90  1  0
 92 91  2  0
 95 94  1  0
 97 95  1  0
 97 98  1  0
 97 96  1  0
M  ISO  4  11 100  19 100  57 101  58 101
M  END
>  <TORSDO>  (2) 
F 19

>  <SCORE>  (2) 
-15.210

>  <name>  (2) 
1

>  <ligand_id>  (2) 
1

>  <original_smiles>  (2) 
[H]c1c(N([H])C(=O)N2C([H])([H])C([H])([H])C([H])([H])C([H])(n3nc(-c4c([H])c([H])c(Oc5c([H])c([H])c(F)c([H])c5F)c([H])c4[H])c(C(=O)N([H])[H])c3N([H])[H])C2([H])[H])nc(N([H])C2([H])C([H])([H])C([H])([H])[N+]([H])(C([H])([H])[H])C2([H])[H])nc1N([H])C([H])([H])C([H])([H])Oc1c([H])c([H])c2c(c1[H])C([H])([H])N(C(=O)C([H])(N([H])C(=O)C([H])(N([H])C([H])([H])[H])C([H])([H])[H])C(C([H])([H])[H])(C([H])([H])[H])C([H])([H])[H])C([H])(C(=O)N([H])C1([H])c3c([H])c([H])c([H])c([H])c3C([H])([H])C([H])([H])C1([H])[H])C2([H])[H]

>  <smiles>  (2) 
[H]c1c(N([H])C(=O)N2C([H])([H])C([H])([H])C([H])([H])C([H])(n3nc(-c4c([H])c([H])c(Oc5c([H])c([H])c(F)c([H])c5F)c([H])c4[H])c(C(=O)N([H])[H])c3N([H])[H])C2([H])[H])nc(N([H])C2([H])C([H])([H])C([H])([H])[N+]([H])(C([H])([H])[H])C2([H])[H])nc1N([H])C([H])([H])C([H])([H])Oc1c([H])c([H])c2c(c1[H])C([H])([H])N(C(=O)C([H])(N([H])C(=O)C([H])(N([H])C([H])([H])[H])C([H])([H])[H])C(C([H])([H])[H])(C([H])([H])[H])C([H])([H])[H])C([H])(C(=O)N([H])C1([H])c3c([H])c([H])c([H])c([H])c3C([H])([H])C([H])([H])C1([H])[H])C2([H])[H]

$$$$
2:0:0
     RDKit          3D

 92101  0  0  1  0  0  0  0  0999 V2000
  -29.5810  -24.1910   19.9310 C   0  0  0  0  0  2  0  0  0  0  0  0
  -27.2970  -22.9420   20.5000 C   0  0  0  0  0  3  0  0  0  0  0  0
  -28.4640  -22.1150   20.2880 C   0  0  0  0  0  0  0  0  0  0  0  0
  -28.4160  -25.0120   20.1470 C   0  0  0  0  0  0  0  0  0  0  0  0
  -25.9500  -22.3220   20.8240 C   0  0  0  0  0  1  0  0  0  0  0  0
  -29.6190  -22.7970   19.9970 N   0  0  0  0  0  0  0  0  0  0  0  0
  -27.2740  -24.3240   20.4400 N   0  0  0  0  0  0  0  0  0  0  0  0
  -28.4240  -26.4650   20.1040 O   0  0  0  0  0  0  0  0  0  0  0  0
  -24.6690  -31.9050   23.2310 C   0  0  0  0  0  0  0  0  0  0  0  0
  -27.3040  -27.3450   20.1100 C   0  0  0  0  0  0  0  0  0  0  0  0
  -23.4870  -30.5440   21.5480 C   0  0  0  0  0  3  0  0  0  0  0  0
  -24.9540  -29.0170   20.1010 C   0  0  0  0  0  0  0  0  0  0  0  0
  -26.0330  -30.8460   21.4060 C   0  0  0  0  0  2  0  0  0  0  0  0
  -26.1180  -29.4730   20.7310 C   0  0  0  0  0  0  0  0  0  0  0  0
  -27.2940  -28.6500   20.7260 C   0  0  0  0  0  3  0  0  0  0  0  0
  -26.1220  -26.9740   19.4360 C   0  0  0  0  0  3  0  0  0  0  0  0
  -24.9620  -27.7770   19.4430 C   0  0  0  0  0  3  0  0  0  0  0  0
  -23.7190  -29.9000   20.1560 C   0  0  0  0  0  2  0  0  0  0  0  0
  -24.7480  -31.1180   22.1180 N   0  0  0  0  0  0  0  0  0  0  0  0
  -23.5780  -32.1710   23.7590 O   0  0  0  0  0  0  0  0  0  0  0  0
  -22.8120  -29.5070   22.4800 C   0  0  0  0  0  0  0  0  0  0  0  0
  -21.4840  -29.3430   22.3470 N   0  0  0  0  0  0  0  0  0  0  0  0
  -23.4820  -28.8540   23.2820 O   0  0  0  0  0  0  0  0  0  0  0  0
  -21.0000  -29.9220   21.6730 H   0  0  0  0  0  0  0  0  0  0  0  0
  -18.0920  -28.1810   22.8450 C   0  0  0  0  0  0  0  0  0  0  0  0
  -20.6580  -28.3890   23.0900 C   0  0  0  0  0  3  0  0  0  0  0  0
  -20.7290  -26.9800   22.4550 C   0  0  0  0  0  2  0  0  0  0  0  0
  -19.6090  -26.7180   21.4430 C   0  0  0  0  0  2  0  0  0  0  0  0
  -18.2370  -26.8590   22.1110 C   0  0  0  0  0  2  0  0  0  0  0  0
  -19.2290  -28.9070   23.2910 C   0  0  0  0  0  0  0  0  0  0  0  0
  -19.0380  -30.1470   23.9390 C   0  0  0  0  0  3  0  0  0  0  0  0
  -17.7440  -30.6600   24.1440 C   0  0  0  0  0  3  0  0  0  0  0  0
  -16.6220  -29.9310   23.7140 C   0  0  0  0  0  3  0  0  0  0  0  0
  -16.7970  -28.6920   23.0710 C   0  0  0  0  0  3  0  0  0  0  0  0
  -25.9420  -32.5290   23.8820 C   0  0  0  0  0  3  0  0  0  0  0  0
  -25.6280  -33.9240   24.2290 N   0  0  0  0  0  0  0  0  0  0  0  0
  -25.9470  -34.9870   23.4810 C   0  0  0  0  0  0  0  0  0  0  0  0
  -26.6030  -34.8980   22.4400 O   0  0  0  0  0  0  0  0  0  0  0  0
  -25.0420  -34.0660   25.0390 H   0  0  0  0  0  0  0  0  0  0  0  0
  -24.1900  -36.7670   23.1890 C   0  0  0  0  0  1  0  0  0  0  0  0
  -25.4600  -36.3690   23.9600 C   0  0  0  0  0  3  0  0  0  0  0  0
  -27.6060  -37.2750   24.7350 C   0  0  0  0  0  1  0  0  0  0  0  0
  -26.4770  -37.4340   23.8220 N   0  0  0  0  0  0  0  0  0  0  0  0
  -26.0650  -38.3480   23.9840 H   0  0  0  0  0  0  0  0  0  0  0  0
  -26.4360  -31.7410   25.1590 C   0  0  1  0  0  0  0  0  0  0  0  0
  -25.3250  -31.4910   26.2050 C   0  0  0  0  0  1  0  0  0  0  0  0
  -27.0250  -30.3680   24.7620 C   0  0  0  0  0  1  0  0  0  0  0  0
  -27.5750  -32.5260   25.8500 C   0  0  0  0  0  1  0  0  0  0  0  0
  -28.3530  -20.4960   20.4420 C   0  0  0  0  0  2  0  0  0  0  0  0
  -30.7760  -14.9540   19.9220 C   0  0  0  0  0  0  0  0  0  0  0  0
  -30.5380  -12.6570   18.9470 C   0  0  0  0  0  2  0  0  0  0  0  0
  -29.5350  -12.6770   17.7730 C   0  0  0  0  0  2  0  0  0  0  0  0
  -28.0980  -12.4780   18.2910 C   0  0  0  0  0  2  0  0  0  0  0  0
  -27.7730  -13.3750   19.5160 C   0  0  0  0  0  3  0  0  0  0  0  0
  -28.8950  -13.3550   20.5740 C   0  0  0  0  0  2  0  0  0  0  0  0
  -30.1360  -13.7310   19.8900 N   0  0  0  0  0  0  0  0  0  0  0  0
  -31.9560  -15.0090   19.5590 O   0  0  0  0  0  0  0  0  0  0  0  0
  -29.9260  -17.0790   18.9060 C   0  0  0  0  0  2  0  0  0  0  0  0
  -30.4240  -17.0950   21.1840 C   0  0  0  0  0  2  0  0  0  0  0  0
  -29.0620  -18.4210   19.0480 C   0  0  0  0  0  2  0  0  0  0  0  0
  -29.5600  -18.4260   21.3780 C   0  0  0  0  0  2  0  0  0  0  0  0
  -30.0510  -16.1550   20.0830 N   0  0  0  0  0  0  0  0  0  0  0  0
  -29.3890  -19.3500   20.1930 N   0  0  2  0  0  4  0  0  0  0  0  0
  -30.2780  -19.7920   20.0090 H   0  0  0  0  0  0  0  0  0  0  0  0
  -25.4470  -13.9260   20.4300 C   0  0  0  0  0  0  0  0  0  0  0  0
  -24.4080  -13.1350   20.8390 C   0  0  0  0  0  0  0  0  0  0  0  0
  -24.8680  -11.7870   20.7270 C   0  0  0  0  0  0  0  0  0  0  0  0
  -26.4710  -13.0600   20.0910 N   0  0  0  0  0  0  0  0  0  0  0  0
  -26.1370  -11.7650   20.3330 N   0  0  0  0  0  0  0  0  0  0  0  0
  -24.1540  -10.5170   20.9150 C   0  0  0  0  0  0  0  0  0  0  0  0
  -24.5790   -9.5650   21.8690 C   0  0  0  0  0  3  0  0  0  0  0  0
  -23.8630   -8.3610   22.0460 C   0  0  0  0  0  3  0  0  0  0  0  0
  -22.7090   -8.1000   21.2690 C   0  0  0  0  0  0  0  0  0  0  0  0
  -22.3050   -9.0400   20.3050 C   0  0  0  0  0  3  0  0  0  0  0  0
  -23.0210  -10.2350   20.1270 C   0  0  0  0  0  3  0  0  0  0  0  0
  -21.9670   -6.9470   21.3540 O   0  0  0  0  0  0  0  0  0  0  0  0
  -21.8120   -6.2760   22.5400 C   0  0  0  0  0  0  0  0  0  0  0  0
  -21.2400   -6.8910   23.6750 C   0  0  0  0  0  3  0  0  0  0  0  0
  -21.0350   -6.1450   24.8520 C   0  0  0  0  0  3  0  0  0  0  0  0
  -21.3940   -4.7840   24.8960 C   0  0  0  0  0  0  0  0  0  0  0  0
  -21.9580   -4.1690   23.7650 C   0  0  0  0  0  3  0  0  0  0  0  0
  -22.1650   -4.9120   22.5900 C   0  0  0  0  0  0  0  0  0  0  0  0
  -22.6890   -4.3090   21.4960 F   0  0  0  0  0  0  0  0  0  0  0  0
  -21.1900   -4.0640   26.0240 F   0  0  0  0  0  0  0  0  0  0  0  0
  -23.0310  -13.5980   21.2180 C   0  0  0  0  0  0  0  0  0  0  0  0
  -22.3580  -12.8640   22.0960 N   0  0  0  0  0  0  0  0  0  0  0  0
  -22.5650  -14.6450   20.7720 O   0  0  0  0  0  0  0  0  0  0  0  0
  -22.7520  -12.0160   22.4770 H   0  0  0  0  0  0  0  0  0  0  0  0
  -21.4370  -13.1530   22.3920 H   0  0  0  0  0  0  0  0  0  0  0  0
  -25.6010  -15.3030   20.2950 N   0  0  0  0  0  0  0  0  0  0  0  0
  -24.8440  -15.9520   20.4760 H   0  0  0  0  0  0  0  0  0  0  0  0
  -26.4320  -15.7490   19.9300 H   0  0  0  0  0  0  0  0  0  0  0  0
  1  6  1  0
  1  4  1  0
  2  5  1  0
  3 49  1  0
  3  2  1  0
  4  7  2  0
  6  3  2  0
  7  2  1  0
  8 10  1  0
  8  4  1  0
  9 20  2  0
 10 15  1  0
 11 19  1  0
 11 21  1  0
 12 18  1  0
 12 14  1  0
 13 19  1  0
 14 13  1  0
 15 14  2  0
 16 17  1  0
 16 10  2  0
 17 12  2  0
 18 11  1  0
 19  9  1  0
 21 23  2  0
 22 21  1  0
 24 22  1  0
 25 34  2  0
 25 30  1  0
 26 22  1  0
 26 30  1  0
 27 26  1  0
 28 29  1  0
 28 27  1  0
 29 25  1  0
 30 31  2  0
 31 32  1  0
 33 32  2  0
 34 33  1  0
 35  9  1  0
 35 36  1  0
 35 45  1  0
 36 39  1  0
 37 41  1  0
 37 36  1  0
 38 37  2  0
 41 40  1  0
 43 41  1  0
 43 44  1  0
 43 42  1  0
 45 48  1  1
 45 46  1  0
 47 45  1  0
 50 62  1  0
 51 56  1  0
 52 53  1  0
 52 51  1  0
 54 53  1  0
 54 68  1  0
 54 55  1  0
 56 50  1  0
 56 55  1  0
 57 50  2  0
 58 60  1  0
 58 62  1  0
 59 61  1  0
 60 63  1  0
 62 59  1  0
 63 49  1  0
 63 61  1  0
 63 64  1  6
 65 66  2  0
 66 85  1  0
 67 66  1  0
 67 70  1  0
 68 69  1  0
 68 65  1  0
 69 67  2  0
 70 71  1  0
 71 72  2  0
 73 76  1  0
 73 72  1  0
 74 73  2  0
 75 74  1  0
 75 70  2  0
 76 77  1  0
 77 82  2  0
 77 78  1  0
 78 79  2  0
 79 80  1  0
 80 84  1  0
 81 80  2  0
 82 81  1  0
 83 82  1  0
 85 86  1  0
 86 89  1  0
 86 88  1  0
 87 85  2  0
 90 65  1  0
 90 91  1  0
 92 90  1  0
M  ISO  4   4 101   8 101  50 100  62 100
M  END
>  <TORSDO>  (3) 
F 17

>  <SCORE>  (3) 
-13.823

>  <name>  (3) 
2

>  <ligand_id>  (3) 
2

>  <original_smiles>  (3) 
[H]c1nc(C([H])([H])[N+]2([H])C([H])([H])C([H])([H])N(C(=O)N3C([H])([H])C([H])([H])C([H])([H])C([H])(n4nc(-c5c([H])c([H])c(Oc6c([H])c([H])c(F)c([H])c6F)c([H])c5[H])c(C(=O)N([H])[H])c4N([H])[H])C3([H])[H])C([H])([H])C2([H])[H])c(C([H])([H])[H])nc1Oc1c([H])c([H])c2c(c1[H])C([H])([H])N(C(=O)C([H])(N([H])C(=O)C([H])(N([H])C([H])([H])[H])C([H])([H])[H])C(C([H])([H])[H])(C([H])([H])[H])C([H])([H])[H])C([H])(C(=O)N([H])C1([H])c3c([H])c([H])c([H])c([H])c3C([H])([H])C([H])([H])C1([H])[H])C2([H])[H]

>  <smiles>  (3) 
[H]c1nc(C([H])([H])[N+]2([H])C([H])([H])C([H])([H])N(C(=O)N3C([H])([H])C([H])([H])C([H])([H])C([H])(n4nc(-c5c([H])c([H])c(Oc6c([H])c([H])c(F)c([H])c6F)c([H])c5[H])c(C(=O)N([H])[H])c4N([H])[H])C3([H])[H])C([H])([H])C2([H])[H])c(C([H])([H])[H])nc1Oc1c([H])c([H])c2c(c1[H])C([H])([H])N(C(=O)C([H])(N([H])C(=O)C([H])(N([H])C([H])([H])[H])C([H])([H])[H])C(C([H])([H])[H])(C([H])([H])[H])C([H])([H])[H])C([H])(C(=O)N([H])C1([H])c3c([H])c([H])c([H])c([H])c3C([H])([H])C([H])([H])C1([H])[H])C2([H])[H]

$$$$
3:0:0
     RDKit          3D

 94104  0  0  1  0  0  0  0  0999 V2000
  -29.4460  -22.9630   19.2920 C   0  0  0  0  0  0  0  0  0  0  0  0
  -29.1310  -21.6770   19.8760 C   0  0  0  0  0  0  0  0  0  0  0  0
  -28.6500  -24.1180   19.6570 C   0  0  0  0  0  0  0  0  0  0  0  0
  -27.3880  -22.7120   20.9760 C   0  0  0  0  0  0  0  0  0  0  0  0
  -26.1830  -22.5600   21.8830 C   0  0  0  0  0  1  0  0  0  0  0  0
  -28.0850  -21.6040   20.7200 N   0  0  0  0  0  0  0  0  0  0  0  0
  -27.6190  -23.9360   20.5060 N   0  0  0  0  0  0  0  0  0  0  0  0
  -30.5110  -23.7710   17.0010 C   0  0  0  0  0  2  0  0  0  0  0  0
  -30.7630  -22.2900   17.0900 C   0  0  0  0  0  2  0  0  0  0  0  0
  -30.6230  -23.1080   18.3580 C   0  0  0  0  0  3  0  0  0  0  0  0
  -29.9510  -20.3350   19.6300 C   0  0  0  0  0  2  0  0  0  0  0  0
  -30.2050  -18.4890   21.5360 C   0  0  0  0  0  2  0  0  0  0  0  0
  -29.5430  -18.9290   20.2570 C   0  0  0  0  0  3  0  0  0  0  0  0
  -30.4830  -17.6310   20.3200 C   0  0  0  0  0  3  0  0  0  0  0  0
  -30.8270  -15.0730   20.1810 C   0  0  0  0  0  0  0  0  0  0  0  0
  -30.6030  -12.7960   19.1870 C   0  0  0  0  0  2  0  0  0  0  0  0
  -29.6550  -12.8730   17.9720 C   0  0  0  0  0  2  0  0  0  0  0  0
  -28.1860  -12.7190   18.4130 C   0  0  0  0  0  2  0  0  0  0  0  0
  -27.8290  -13.6140   19.6310 C   0  0  0  0  0  3  0  0  0  0  0  0
  -28.8960  -13.5220   20.7430 C   0  0  0  0  0  2  0  0  0  0  0  0
  -30.1910  -13.8540   20.1380 N   0  0  0  0  0  0  0  0  0  0  0  0
  -32.0020  -15.1750   19.8130 O   0  0  0  0  0  0  0  0  0  0  0  0
  -30.0730  -16.1990   20.4470 N   0  0  0  0  0  0  0  0  0  0  0  0
  -29.1130  -16.0270   20.7060 H   0  0  0  0  0  0  0  0  0  0  0  0
  -25.4500  -14.2170   20.3740 C   0  0  0  0  0  0  0  0  0  0  0  0
  -24.3840  -13.4490   20.7540 C   0  0  0  0  0  0  0  0  0  0  0  0
  -24.8420  -12.0950   20.7220 C   0  0  0  0  0  0  0  0  0  0  0  0
  -26.4890  -13.3330   20.1330 N   0  0  0  0  0  0  0  0  0  0  0  0
  -26.1290  -12.0520   20.4030 N   0  0  0  0  0  0  0  0  0  0  0  0
  -24.1120  -10.8360   20.9230 C   0  0  0  0  0  0  0  0  0  0  0  0
  -24.5290   -9.8870   21.8820 C   0  0  0  0  0  3  0  0  0  0  0  0
  -23.8020   -8.6920   22.0710 C   0  0  0  0  0  3  0  0  0  0  0  0
  -22.6430   -8.4370   21.3010 C   0  0  0  0  0  0  0  0  0  0  0  0
  -22.2430   -9.3750   20.3320 C   0  0  0  0  0  3  0  0  0  0  0  0
  -22.9710  -10.5620   20.1430 C   0  0  0  0  0  3  0  0  0  0  0  0
  -21.8900   -7.2910   21.3970 O   0  0  0  0  0  0  0  0  0  0  0  0
  -21.8170   -6.5730   22.5630 C   0  0  0  0  0  0  0  0  0  0  0  0
  -21.3230   -7.1400   23.7570 C   0  0  0  0  0  3  0  0  0  0  0  0
  -21.2000   -6.3460   24.9150 C   0  0  0  0  0  3  0  0  0  0  0  0
  -21.5620   -4.9860   24.8790 C   0  0  0  0  0  0  0  0  0  0  0  0
  -22.0500   -4.4190   23.6890 C   0  0  0  0  0  3  0  0  0  0  0  0
  -22.1740   -5.2100   22.5330 C   0  0  0  0  0  0  0  0  0  0  0  0
  -22.6240   -4.6520   21.3830 F   0  0  0  0  0  0  0  0  0  0  0  0
  -21.4370   -4.2210   25.9880 F   0  0  0  0  0  0  0  0  0  0  0  0
  -22.9910  -13.9310   21.0370 C   0  0  0  0  0  0  0  0  0  0  0  0
  -22.2740  -13.2410   21.9160 N   0  0  0  0  0  0  0  0  0  0  0  0
  -22.5490  -14.9530   20.5130 O   0  0  0  0  0  0  0  0  0  0  0  0
  -22.6480  -12.4140   22.3580 H   0  0  0  0  0  0  0  0  0  0  0  0
  -21.3400  -13.5420   22.1510 H   0  0  0  0  0  0  0  0  0  0  0  0
  -25.6170  -15.5860   20.1900 N   0  0  0  0  0  0  0  0  0  0  0  0
  -24.8480  -16.2390   20.2930 H   0  0  0  0  0  0  0  0  0  0  0  0
  -26.4530  -16.0190   19.8190 H   0  0  0  0  0  0  0  0  0  0  0  0
  -28.8160  -25.5770   19.0370 C   0  0  0  0  0  2  0  0  0  0  0  0
  -28.6030  -26.8250   19.8230 O   0  0  0  0  0  0  0  0  0  0  0  0
  -24.6260  -31.8820   23.0910 C   0  0  0  0  0  0  0  0  0  0  0  0
  -27.4250  -27.5930   19.7910 C   0  0  0  0  0  0  0  0  0  0  0  0
  -23.4700  -30.4930   21.4070 C   0  0  0  0  0  3  0  0  0  0  0  0
  -24.9750  -29.0830   19.8890 C   0  0  0  0  0  0  0  0  0  0  0  0
  -25.9860  -30.9490   21.2030 C   0  0  0  0  0  2  0  0  0  0  0  0
  -26.1250  -29.6040   20.4950 C   0  0  0  0  0  0  0  0  0  0  0  0
  -27.3460  -28.8670   20.4400 C   0  0  0  0  0  3  0  0  0  0  0  0
  -26.2460  -27.1200   19.1740 C   0  0  0  0  0  3  0  0  0  0  0  0
  -25.0390  -27.8490   19.2210 C   0  0  0  0  0  3  0  0  0  0  0  0
  -23.6960  -29.8900   19.9940 C   0  0  0  0  0  2  0  0  0  0  0  0
  -24.7120  -31.1260   21.9560 N   0  0  0  0  0  0  0  0  0  0  0  0
  -23.5380  -32.0780   23.6520 O   0  0  0  0  0  0  0  0  0  0  0  0
  -22.8790  -29.4020   22.3340 C   0  0  0  0  0  0  0  0  0  0  0  0
  -21.5640  -29.1530   22.2150 N   0  0  0  0  0  0  0  0  0  0  0  0
  -23.6020  -28.7860   23.1200 O   0  0  0  0  0  0  0  0  0  0  0  0
  -21.0360  -29.7090   21.5560 H   0  0  0  0  0  0  0  0  0  0  0  0
  -18.2680  -27.7360   22.6960 C   0  0  0  0  0  0  0  0  0  0  0  0
  -20.8100  -28.1390   22.9550 C   0  0  0  0  0  3  0  0  0  0  0  0
  -20.9900  -26.7390   22.3260 C   0  0  0  0  0  2  0  0  0  0  0  0
  -19.9000  -26.3880   21.3080 C   0  0  0  0  0  2  0  0  0  0  0  0
  -18.5180  -26.4270   21.9670 C   0  0  0  0  0  2  0  0  0  0  0  0
  -19.3440  -28.5480   23.1460 C   0  0  0  0  0  0  0  0  0  0  0  0
  -19.0570  -29.7720   23.7880 C   0  0  0  0  0  3  0  0  0  0  0  0
  -17.7270  -30.1890   23.9820 C   0  0  0  0  0  3  0  0  0  0  0  0
  -16.6650  -29.3750   23.5480 C   0  0  0  0  0  3  0  0  0  0  0  0
  -16.9360  -28.1500   22.9120 C   0  0  0  0  0  3  0  0  0  0  0  0
  -25.8830  -32.5570   23.7220 C   0  0  0  0  0  3  0  0  0  0  0  0
  -26.4330  -31.7890   24.9880 C   0  0  1  0  0  0  0  0  0  0  0  0
  -25.3510  -31.4890   26.0530 C   0  0  0  0  0  1  0  0  0  0  0  0
  -27.0750  -30.4460   24.5740 C   0  0  0  0  0  1  0  0  0  0  0  0
  -27.5510  -32.6210   25.6590 C   0  0  0  0  0  1  0  0  0  0  0  0
  -25.5180  -33.9370   24.0760 N   0  0  0  0  0  0  0  0  0  0  0  0
  -25.7980  -35.0150   23.3320 C   0  0  0  0  0  0  0  0  0  0  0  0
  -26.4620  -34.9560   22.2940 O   0  0  0  0  0  0  0  0  0  0  0  0
  -24.9320  -34.0550   24.8900 H   0  0  0  0  0  0  0  0  0  0  0  0
  -23.9880  -36.7320   23.0290 C   0  0  0  0  0  1  0  0  0  0  0  0
  -25.2560  -36.3740   23.8180 C   0  0  0  0  0  3  0  0  0  0  0  0
  -27.3570  -37.3410   24.6410 C   0  0  0  0  0  1  0  0  0  0  0  0
  -26.2410  -37.4720   23.7080 N   0  0  0  0  0  0  0  0  0  0  0  0
  -25.7960  -38.3720   23.8700 H   0  0  0  0  0  0  0  0  0  0  0  0
  1  3  1  0
  1  2  2  0
  2  6  1  0
  3  7  2  0
  4  5  1  0
  6  4  2  0
  7  4  1  0
  8  9  1  0
  8 10  1  0
  9 10  1  0
 10  1  1  0
 11  2  1  0
 13 11  1  0
 13 14  1  0
 13 12  1  0
 14 23  1  0
 14 12  1  0
 15 23  1  0
 16 21  1  0
 17 18  1  0
 17 16  1  0
 19 18  1  0
 19 28  1  0
 19 20  1  0
 21 15  1  0
 21 20  1  0
 22 15  2  0
 23 24  1  0
 25 26  2  0
 26 45  1  0
 27 26  1  0
 27 30  1  0
 28 25  1  0
 28 29  1  0
 29 27  2  0
 30 31  1  0
 31 32  2  0
 33 36  1  0
 33 32  1  0
 34 33  2  0
 35 34  1  0
 35 30  2  0
 36 37  1  0
 37 38  1  0
 38 39  2  0
 40 39  1  0
 40 44  1  0
 41 40  2  0
 42 37  2  0
 42 41  1  0
 43 42  1  0
 45 46  1  0
 46 49  1  0
 46 48  1  0
 47 45  2  0
 50 51  1  0
 50 25  1  0
 52 50  1  0
 53  3  1  0
 53 54  1  0
 55 66  2  0
 56 54  1  0
 56 61  1  0
 57 65  1  0
 57 67  1  0
 58 64  1  0
 58 60  1  0
 59 65  1  0
 60 59  1  0
 61 60  2  0
 62 63  1  0
 62 56  2  0
 63 58  2  0
 64 57  1  0
 65 55  1  0
 67 69  2  0
 68 67  1  0
 70 68  1  0
 71 80  2  0
 71 76  1  0
 72 68  1  0
 72 76  1  0
 73 72  1  0
 74 75  1  0
 74 73  1  0
 75 71  1  0
 76 77  2  0
 77 78  1  0
 79 78  2  0
 80 79  1  0
 81 55  1  0
 81 86  1  0
 81 82  1  0
 82 85  1  1
 82 83  1  0
 84 82  1  0
 86 89  1  0
 87 91  1  0
 87 86  1  0
 88 87  2  0
 91 90  1  0
 93 91  1  0
 93 94  1  0
 93 92  1  0
M  ISO  4  15 100  23 100  53 101  54 101
M  END
>  <TORSDO>  (4) 
F 20

>  <SCORE>  (4) 
-12.352

>  <name>  (4) 
3

>  <ligand_id>  (4) 
3

>  <original_smiles>  (4) 
[H]c1c([H])c([H])c2c(c1[H])C([H])([H])C([H])([H])C([H])([H])C2([H])N([H])C(=O)C1([H])N(C(=O)C([H])(N([H])C(=O)C([H])(N([H])C([H])([H])[H])C([H])([H])[H])C(C([H])([H])[H])(C([H])([H])[H])C([H])([H])[H])C([H])([H])c2c([H])c(OC([H])([H])c3nc(C([H])([H])[H])nc(C([H])([H])C4([H])C([H])([H])C4([H])N([H])C(=O)N4C([H])([H])C([H])([H])C([H])([H])C([H])(n5nc(-c6c([H])c([H])c(Oc7c([H])c([H])c(F)c([H])c7F)c([H])c6[H])c(C(=O)N([H])[H])c5N([H])[H])C4([H])[H])c3C3([H])C([H])([H])C3([H])[H])c([H])c([H])c2C1([H])[H]

>  <smiles>  (4) 
[H]c1c([H])c([H])c2c(c1[H])C([H])([H])C([H])([H])C([H])([H])C2([H])N([H])C(=O)C1([H])N(C(=O)C([H])(N([H])C(=O)C([H])(N([H])C([H])([H])[H])C([H])([H])[H])C(C([H])([H])[H])(C([H])([H])[H])C([H])([H])[H])C([H])([H])c2c([H])c(OC([H])([H])c3nc(C([H])([H])[H])nc(C([H])([H])C4([H])C([H])([H])C4([H])N([H])C(=O)N4C([H])([H])C([H])([H])C([H])([H])C([H])(n5nc(-c6c([H])c([H])c(Oc7c([H])c([H])c(F)c([H])c7F)c([H])c6[H])c(C(=O)N([H])[H])c5N([H])[H])C4([H])[H])c3C3([H])C([H])([H])C3([H])[H])c([H])c([H])c2C1([H])[H]

$$$$
4:0:0
     RDKit          3D

 93102  0  0  1  0  0  0  0  0999 V2000
  -28.1550  -24.9220   18.3150 C   0  0  0  0  0  3  0  0  0  0  0  0
  -28.6800  -22.6600   18.5110 C   0  0  0  0  0  0  0  0  0  0  0  0
  -28.9680  -22.7890   19.9010 C   0  0  0  0  0  0  0  0  0  0  0  0
  -28.3980  -25.1570   19.6870 C   0  0  0  0  0  0  0  0  0  0  0  0
  -28.8590  -21.3570   17.7500 C   0  0  0  0  0  1  0  0  0  0  0  0
  -28.2710  -23.7000   17.7420 N   0  0  0  0  0  0  0  0  0  0  0  0
  -28.8280  -24.0710   20.4700 N   0  0  0  0  0  0  0  0  0  0  0  0
  -28.3560  -26.4990   20.1960 O   0  0  0  0  0  0  0  0  0  0  0  0
  -24.5890  -31.9290   23.2290 C   0  0  0  0  0  0  0  0  0  0  0  0
  -27.2390  -27.3760   20.1170 C   0  0  0  0  0  0  0  0  0  0  0  0
  -23.3940  -30.5320   21.5850 C   0  0  0  0  0  3  0  0  0  0  0  0
  -24.8560  -29.0050   20.1350 C   0  0  0  0  0  0  0  0  0  0  0  0
  -25.9350  -30.8660   21.3960 C   0  0  0  0  0  2  0  0  0  0  0  0
  -26.0270  -29.4900   20.7290 C   0  0  0  0  0  0  0  0  0  0  0  0
  -27.2170  -28.6900   20.7090 C   0  0  0  0  0  3  0  0  0  0  0  0
  -26.0290  -26.9540   19.5180 C   0  0  0  0  0  3  0  0  0  0  0  0
  -24.8630  -27.7450   19.5200 C   0  0  0  0  0  3  0  0  0  0  0  0
  -23.6110  -29.8700   20.1990 C   0  0  0  0  0  2  0  0  0  0  0  0
  -24.6590  -31.1270   22.1260 N   0  0  0  0  0  0  0  0  0  0  0  0
  -23.5040  -32.1920   23.7700 O   0  0  0  0  0  0  0  0  0  0  0  0
  -22.7440  -29.5020   22.5410 C   0  0  0  0  0  0  0  0  0  0  0  0
  -21.4170  -29.3220   22.4270 N   0  0  0  0  0  0  0  0  0  0  0  0
  -23.4330  -28.8700   23.3460 O   0  0  0  0  0  0  0  0  0  0  0  0
  -20.9180  -29.8840   21.7520 H   0  0  0  0  0  0  0  0  0  0  0  0
  -18.0490  -28.1050   22.9570 C   0  0  0  0  0  0  0  0  0  0  0  0
  -20.6110  -28.3710   23.1960 C   0  0  0  0  0  3  0  0  0  0  0  0
  -20.7090  -26.9470   22.5990 C   0  0  0  0  0  2  0  0  0  0  0  0
  -19.5940  -26.6360   21.5950 C   0  0  0  0  0  2  0  0  0  0  0  0
  -18.2200  -26.7660   22.2600 C   0  0  0  0  0  2  0  0  0  0  0  0
  -19.1720  -28.8650   23.3830 C   0  0  0  0  0  0  0  0  0  0  0  0
  -18.9560  -30.1180   23.9980 C   0  0  0  0  0  3  0  0  0  0  0  0
  -17.6520  -30.6120   24.1890 C   0  0  0  0  0  3  0  0  0  0  0  0
  -16.5450  -29.8500   23.7790 C   0  0  0  0  0  3  0  0  0  0  0  0
  -16.7440  -28.5980   23.1690 C   0  0  0  0  0  3  0  0  0  0  0  0
  -25.8650  -32.5730   23.8530 C   0  0  0  0  0  3  0  0  0  0  0  0
  -26.3990  -31.7940   25.1170 C   0  0  1  0  0  0  0  0  0  0  0  0
  -25.3170  -31.5270   26.1900 C   0  0  0  0  0  1  0  0  0  0  0  0
  -27.0010  -30.4290   24.7080 C   0  0  0  0  0  1  0  0  0  0  0  0
  -27.5430  -32.5960   25.7820 C   0  0  0  0  0  1  0  0  0  0  0  0
  -25.5370  -33.9630   24.2060 N   0  0  0  0  0  0  0  0  0  0  0  0
  -25.8810  -35.0340   23.4800 C   0  0  0  0  0  0  0  0  0  0  0  0
  -26.5760  -34.9590   22.4640 O   0  0  0  0  0  0  0  0  0  0  0  0
  -24.9200  -34.0950   24.9940 H   0  0  0  0  0  0  0  0  0  0  0  0
  -24.1790  -36.8470   23.0990 C   0  0  0  0  0  1  0  0  0  0  0  0
  -25.3760  -36.4100   23.9580 C   0  0  0  0  0  3  0  0  0  0  0  0
  -27.4670  -37.2590   24.9260 C   0  0  0  0  0  1  0  0  0  0  0  0
  -26.4150  -37.4610   23.9320 N   0  0  0  0  0  0  0  0  0  0  0  0
  -26.0050  -38.3790   24.0870 H   0  0  0  0  0  0  0  0  0  0  0  0
  -29.6280  -21.5490   20.6980 C   0  0  0  0  0  2  0  0  0  0  0  0
  -29.0620  -20.1140   20.6010 N   0  0  0  0  0  4  0  0  0  0  0  0
  -28.6050  -20.0520   19.7080 H   0  0  0  0  0  0  0  0  0  0  0  0
  -28.3330  -20.0520   21.2940 H   0  0  0  0  0  0  0  0  0  0  0  0
  -29.9560  -18.8490   20.7420 C   0  0  0  0  0  2  0  0  0  0  0  0
  -30.6510  -14.9850   20.6570 C   0  0  0  0  0  0  0  0  0  0  0  0
  -30.5570  -12.6690   19.6980 C   0  0  0  0  0  2  0  0  0  0  0  0
  -29.6770  -12.6470   18.4280 C   0  0  0  0  0  2  0  0  0  0  0  0
  -28.1870  -12.4760   18.7900 C   0  0  0  0  0  2  0  0  0  0  0  0
  -27.7320  -13.3820   19.9660 C   0  0  0  0  0  3  0  0  0  0  0  0
  -28.7410  -13.3720   21.1330 C   0  0  0  0  0  2  0  0  0  0  0  0
  -30.0450  -13.7470   20.5740 N   0  0  0  0  0  0  0  0  0  0  0  0
  -31.8790  -15.0550   20.5540 O   0  0  0  0  0  0  0  0  0  0  0  0
  -28.5760  -17.2400   19.1720 C   0  0  0  0  0  2  0  0  0  0  0  0
  -29.8410  -16.4740   18.7880 C   0  0  0  0  0  2  0  0  0  0  0  0
  -29.2060  -17.4150   20.5550 C   0  0  0  0  0  3  0  0  0  0  0  0
  -29.9000  -16.0720   20.1930 N   0  0  0  0  0  0  0  0  0  0  0  0
  -25.2970  -13.9270   20.5650 C   0  0  0  0  0  0  0  0  0  0  0  0
  -24.2310  -13.1330   20.8900 C   0  0  0  0  0  0  0  0  0  0  0  0
  -24.7300  -11.7950   20.9170 C   0  0  0  0  0  0  0  0  0  0  0  0
  -26.3740  -13.0700   20.4040 N   0  0  0  0  0  0  0  0  0  0  0  0
  -26.0360  -11.7840   20.6820 N   0  0  0  0  0  0  0  0  0  0  0  0
  -24.0270  -10.5170   21.0920 C   0  0  0  0  0  0  0  0  0  0  0  0
  -24.4310   -9.5790   22.0680 C   0  0  0  0  0  3  0  0  0  0  0  0
  -23.7240   -8.3680   22.2310 C   0  0  0  0  0  3  0  0  0  0  0  0
  -22.6020   -8.0860   21.4180 C   0  0  0  0  0  0  0  0  0  0  0  0
  -22.2180   -9.0140   20.4330 C   0  0  0  0  0  3  0  0  0  0  0  0
  -22.9240  -10.2160   20.2670 C   0  0  0  0  0  3  0  0  0  0  0  0
  -21.8700   -6.9260   21.4890 O   0  0  0  0  0  0  0  0  0  0  0  0
  -21.7680   -6.2090   22.6550 C   0  0  0  0  0  0  0  0  0  0  0  0
  -21.2420   -6.7770   23.8360 C   0  0  0  0  0  3  0  0  0  0  0  0
  -21.0920   -5.9860   24.9920 C   0  0  0  0  0  3  0  0  0  0  0  0
  -21.4550   -4.6250   24.9660 C   0  0  0  0  0  0  0  0  0  0  0  0
  -21.9730   -4.0560   23.7900 C   0  0  0  0  0  3  0  0  0  0  0  0
  -22.1260   -4.8460   22.6370 C   0  0  0  0  0  0  0  0  0  0  0  0
  -22.6060   -4.2860   21.4990 F   0  0  0  0  0  0  0  0  0  0  0  0
  -21.3030   -3.8620   26.0740 F   0  0  0  0  0  0  0  0  0  0  0  0
  -22.8090  -13.5800   21.0690 C   0  0  0  0  0  0  0  0  0  0  0  0
  -22.0490  -12.8800   21.9030 N   0  0  0  0  0  0  0  0  0  0  0  0
  -22.3790  -14.5850   20.5060 O   0  0  0  0  0  0  0  0  0  0  0  0
  -22.4080  -12.0680   22.3830 H   0  0  0  0  0  0  0  0  0  0  0  0
  -21.0930  -13.1620   22.0670 H   0  0  0  0  0  0  0  0  0  0  0  0
  -25.4370  -15.2960   20.3680 N   0  0  0  0  0  0  0  0  0  0  0  0
  -24.6520  -15.9360   20.4230 H   0  0  0  0  0  0  0  0  0  0  0  0
  -26.3010  -15.7470   20.0980 H   0  0  0  0  0  0  0  0  0  0  0  0
  1  4  1  0
  2  3  2  0
  3  7  1  0
  3 49  1  0
  4  8  1  0
  4  7  2  0
  5  2  1  0
  6  1  2  0
  6  2  1  0
  9 20  2  0
 10  8  1  0
 10 15  1  0
 11 19  1  0
 11 21  1  0
 12 18  1  0
 12 14  1  0
 13 19  1  0
 14 13  1  0
 15 14  2  0
 16 17  1  0
 16 10  2  0
 17 12  2  0
 18 11  1  0
 19  9  1  0
 21 23  2  0
 22 21  1  0
 24 22  1  0
 25 34  2  0
 25 30  1  0
 26 22  1  0
 26 30  1  0
 27 26  1  0
 28 29  1  0
 28 27  1  0
 29 25  1  0
 30 31  2  0
 31 32  1  0
 33 32  2  0
 34 33  1  0
 35  9  1  0
 35 40  1  0
 35 36  1  0
 36 39  1  1
 36 37  1  0
 38 36  1  0
 40 43  1  0
 41 45  1  0
 41 40  1  0
 42 41  2  0
 45 44  1  0
 47 45  1  0
 47 48  1  0
 47 46  1  0
 50 49  1  0
 50 53  1  0
 50 52  1  0
 51 50  1  0
 55 60  1  0
 56 57  1  0
 56 55  1  0
 58 57  1  0
 58 69  1  0
 58 59  1  0
 60 54  1  0
 60 59  1  0
 61 54  2  0
 62 64  1  0
 63 62  1  0
 63 65  1  0
 64 53  1  0
 65 64  1  0
 65 54  1  0
 66 67  2  0
 67 68  1  0
 67 86  1  0
 68 71  1  0
 69 66  1  0
 69 70  1  0
 70 68  2  0
 71 72  1  0
 72 73  2  0
 74 77  1  0
 74 73  1  0
 75 74  2  0
 76 75  1  0
 76 71  2  0
 77 78  1  0
 78 79  1  0
 79 80  2  0
 81 80  1  0
 81 85  1  0
 82 81  2  0
 83 78  2  0
 83 82  1  0
 84 83  1  0
 86 87  1  0
 87 90  1  0
 87 89  1  0
 88 86  2  0
 91 92  1  0
 91 66  1  0
 93 91  1  0
M  ISO  4   4 101   8 101  54 100  65 100
M  END
>  <TORSDO>  (5) 
F 19

>  <SCORE>  (5) 
-14.219

>  <name>  (5) 
4

>  <ligand_id>  (5) 
4

>  <original_smiles>  (5) 
[H]c1nc(C([H])([H])[H])c(C([H])([H])[N+]([H])([H])C([H])([H])C2([H])N(C(=O)N3C([H])([H])C([H])([H])C([H])([H])C([H])(n4nc(-c5c([H])c([H])c(Oc6c([H])c([H])c(F)c([H])c6F)c([H])c5[H])c(C(=O)N([H])[H])c4N([H])[H])C3([H])[H])C([H])([H])C2([H])[H])nc1Oc1c([H])c([H])c2c(c1[H])C([H])([H])N(C(=O)C([H])(N([H])C(=O)C([H])(N([H])C([H])([H])[H])C([H])([H])[H])C(C([H])([H])[H])(C([H])([H])[H])C([H])([H])[H])C([H])(C(=O)N([H])C1([H])c3c([H])c([H])c([H])c([H])c3C([H])([H])C([H])([H])C1([H])[H])C2([H])[H]

>  <smiles>  (5) 
[H]c1nc(C([H])([H])[H])c(C([H])([H])[N+]([H])([H])C([H])([H])C2([H])N(C(=O)N3C([H])([H])C([H])([H])C([H])([H])C([H])(n4nc(-c5c([H])c([H])c(Oc6c([H])c([H])c(F)c([H])c6F)c([H])c5[H])c(C(=O)N([H])[H])c4N([H])[H])C3([H])[H])C([H])([H])C2([H])[H])nc1Oc1c([H])c([H])c2c(c1[H])C([H])([H])N(C(=O)C([H])(N([H])C(=O)C([H])(N([H])C([H])([H])[H])C([H])([H])[H])C(C([H])([H])[H])(C([H])([H])[H])C([H])([H])[H])C([H])(C(=O)N([H])C1([H])c3c([H])c([H])c([H])c([H])c3C([H])([H])C([H])([H])C1([H])[H])C2([H])[H]

$$$$
5:0:0
     RDKit          3D

 88 90  0  0  1  0  0  0  0  0999 V2000
  -31.5820  -16.7620   21.8430 C   0  0  0  0  0  1  0  0  0  0  0  0
  -29.5760  -16.4900   21.9120 C   0  0  0  0  0 15  0  0  0  0  0  0
  -31.9050  -18.2760   20.7370 C   0  0  0  0  0  2  0  0  0  0  0  0
  -28.7300  -17.8050   20.6180 N   0  0  0  0  0 15  0  0  0  0  0  0
  -30.1370  -19.0580   19.8470 N   0  0  0  0  0 15  0  0  0  0  0  0
  -30.5610  -16.5830   19.8230 C   0  0  0  0  0  2  0  0  0  0  0  0
  -30.7830  -13.8230   18.8850 C   0  0  0  0  0  2  0  0  0  0  0  0
  -29.8740  -13.1580   17.7660 C   0  0  0  0  0  2  0  0  0  0  0  0
  -28.5330  -12.6410   18.3010 C   0  0  0  0  0  2  0  0  0  0  0  0
  -28.0270  -13.6530   19.3270 C   0  0  0  0  0  3  0  0  0  0  0  0
  -29.0930  -14.1070   20.3580 C   0  0  0  0  0  2  0  0  0  0  0  0
  -30.1660  -15.0260   19.7410 N   0  0  0  0  0  0  0  0  0  0  0  0
  -31.5710  -16.4120   19.0530 O   0  0  0  0  0  1  0  0  0  0  0  0
  -30.8740  -19.9780   21.9750 C   0  0  0  0  0  3  0  0  0  0  0  0
  -31.2550  -18.7140   23.1910 C   0  0  0  0  0  3  0  0  0  0  0  0
  -32.1220  -19.1720   21.9750 C   0  0  0  0  0  3  0  0  0  0  0  0
  -30.2930  -18.5080   21.9810 N   0  0  0  0  0  2  0  0  0  0  0  0
  -25.7700  -14.1850   20.3460 C   0  0  0  0  0  0  0  0  0  0  0  0
  -24.7210  -13.4250   20.7740 C   0  0  0  0  0  0  0  0  0  0  0  0
  -25.1350  -12.0640   20.6310 C   0  0  0  0  0  0  0  0  0  0  0  0
  -26.7510  -13.2980   19.9470 N   0  0  0  0  0  0  0  0  0  0  0  0
  -26.3930  -12.0070   20.1850 N   0  0  0  0  0  0  0  0  0  0  0  0
  -24.3730  -10.8220   20.8330 C   0  0  0  0  0  0  0  0  0  0  0  0
  -24.7860   -9.8390   21.7600 C   0  0  0  0  0  3  0  0  0  0  0  0
  -24.0180   -8.6690   21.9530 C   0  0  0  0  0  3  0  0  0  0  0  0
  -22.8240   -8.4730   21.2200 C   0  0  0  0  0  0  0  0  0  0  0  0
  -22.4290   -9.4430   20.2820 C   0  0  0  0  0  3  0  0  0  0  0  0
  -23.1950  -10.6060   20.0880 C   0  0  0  0  0  3  0  0  0  0  0  0
  -22.0330   -7.3530   21.3180 O   0  0  0  0  0  0  0  0  0  0  0  0
  -21.8930   -6.6690   22.4990 C   0  0  0  0  0  0  0  0  0  0  0  0
  -21.3710   -7.2850   23.6570 C   0  0  0  0  0  3  0  0  0  0  0  0
  -21.1800   -6.5290   24.8310 C   0  0  0  0  0  3  0  0  0  0  0  0
  -21.4990   -5.1580   24.8460 C   0  0  0  0  0  0  0  0  0  0  0  0
  -22.0110   -4.5420   23.6920 C   0  0  0  0  0  3  0  0  0  0  0  0
  -22.2060   -5.2950   22.5200 C   0  0  0  0  0  0  0  0  0  0  0  0
  -22.6810   -4.6910   21.4040 F   0  0  0  0  0  0  0  0  0  0  0  0
  -21.3080   -4.4290   25.9710 F   0  0  0  0  0  0  0  0  0  0  0  0
  -23.3780  -13.9390   21.1980 C   0  0  0  0  0  0  0  0  0  0  0  0
  -22.7190  -13.2440   22.1180 N   0  0  0  0  0  0  0  0  0  0  0  0
  -22.9280  -14.9940   20.7510 O   0  0  0  0  0  0  0  0  0  0  0  0
  -23.1020  -12.3900   22.4960 H   0  0  0  0  0  0  0  0  0  0  0  0
  -21.8230  -13.5700   22.4470 H   0  0  0  0  0  0  0  0  0  0  0  0
  -25.9670  -15.5580   20.2330 N   0  0  0  0  0  0  0  0  0  0  0  0
  -25.2530  -16.2290   20.4920 H   0  0  0  0  0  0  0  0  0  0  0  0
  -26.8300  -16.0040   19.9410 H   0  0  0  0  0  0  0  0  0  0  0  0
  -29.7070  -21.0340   19.4400 C   0  0  0  0  0 15  0  0  0  0  0  0
  -28.9090  -23.0570   19.9740 C   0  0  0  0  0 15  0  0  0  0  0  0
  -28.6940  -25.0460   19.7340 O   0  0  0  0  0  1  0  0  0  0  0  0
  -24.7720  -31.5960   22.8720 C   0  0  0  0  0  0  0  0  0  0  0  0
  -27.6650  -26.3910   19.8050 C   0  0  0  0  0  0  0  0  0  0  0  0
  -23.7260  -30.1810   21.1640 C   0  0  0  0  0  3  0  0  0  0  0  0
  -25.3080  -28.5820   19.7590 C   0  0  0  0  0  0  0  0  0  0  0  0
  -26.3190  -30.3470   21.1610 C   0  0  0  0  0  2  0  0  0  0  0  0
  -26.4800  -28.8950   20.4550 C   0  0  0  0  0  0  0  0  0  0  0  0
  -27.6180  -27.8470   20.4290 C   0  0  0  0  0  3  0  0  0  0  0  0
  -26.4310  -26.4050   19.0630 C   0  0  0  0  0  3  0  0  0  0  0  0
  -25.3480  -27.3710   19.0390 C   0  0  0  0  0  3  0  0  0  0  0  0
  -24.0610  -29.5130   19.7930 C   0  0  0  0  0  2  0  0  0  0  0  0
  -24.9650  -30.7500   21.7870 N   0  0  0  0  0  0  0  0  0  0  0  0
  -23.6410  -31.8350   23.3360 O   0  0  0  0  0  0  0  0  0  0  0  0
  -22.9980  -29.1680   22.0920 C   0  0  0  0  0  0  0  0  0  0  0  0
  -21.6650  -29.0060   21.9590 N   0  0  0  0  0  0  0  0  0  0  0  0
  -23.6520  -28.5190   22.9110 O   0  0  0  0  0  0  0  0  0  0  0  0
  -21.1800  -29.5760   21.2800 H   0  0  0  0  0  0  0  0  0  0  0  0
  -18.2830  -27.7710   22.5330 C   0  0  0  0  0  0  0  0  0  0  0  0
  -20.8590  -28.0060   22.6780 C   0  0  0  0  0  3  0  0  0  0  0  0
  -20.9140  -26.6360   21.9620 C   0  0  0  0  0  2  0  0  0  0  0  0
  -19.7580  -26.4240   20.9800 C   0  0  0  0  0  2  0  0  0  0  0  0
  -18.4130  -26.5040   21.7060 C   0  0  0  0  0  2  0  0  0  0  0  0
  -19.4290  -28.4870   22.9750 C   0  0  0  0  0  0  0  0  0  0  0  0
  -19.2480  -29.6740   23.7170 C   0  0  0  0  0  3  0  0  0  0  0  0
  -17.9560  -30.1470   24.0160 C   0  0  0  0  0  3  0  0  0  0  0  0
  -16.8260  -29.4290   23.5860 C   0  0  0  0  0  3  0  0  0  0  0  0
  -16.9920  -28.2420   22.8510 C   0  0  0  0  0  3  0  0  0  0  0  0
  -25.9560  -32.3130   23.5910 C   0  0  0  0  0  3  0  0  0  0  0  0
  -25.5170  -33.6660   24.0040 N   0  0  0  0  0  0  0  0  0  0  0  0
  -25.7820  -34.8060   23.3500 C   0  0  0  0  0  0  0  0  0  0  0  0
  -26.4650  -34.8330   22.3250 O   0  0  0  0  0  0  0  0  0  0  0  0
  -24.9010  -33.7150   24.8020 H   0  0  0  0  0  0  0  0  0  0  0  0
  -23.9270  -36.5050   23.1510 C   0  0  0  0  0  1  0  0  0  0  0  0
  -25.2050  -36.1240   23.9180 C   0  0  0  0  0  3  0  0  0  0  0  0
  -27.2660  -37.1160   24.8140 C   0  0  0  0  0  1  0  0  0  0  0  0
  -26.1560  -37.2580   23.8760 N   0  0  0  0  0  0  0  0  0  0  0  0
  -25.6820  -38.1350   24.0730 H   0  0  0  0  0  0  0  0  0  0  0  0
  -26.4700  -31.5250   24.8600 C   0  0  1  0  0  0  0  0  0  0  0  0
  -25.3550  -31.1700   25.8740 C   0  0  0  0  0  1  0  0  0  0  0  0
  -27.1580  -30.2030   24.4570 C   0  0  0  0  0  1  0  0  0  0  0  0
  -27.5410  -32.3640   25.5960 C   0  0  0  0  0  1  0  0  0  0  0  0
  3  1  1  0
  7 12  1  0
  8  9  1  0
  8  7  1  0
 10  9  1  0
 10 21  1  0
 10 11  1  0
 12  6  1  0
 12 11  1  0
 13  6  1  0
 14 17  1  0
 14 15  1  0
 15 17  1  0
 16  3  1  0
 16 14  1  0
 16 15  1  0
 18 19  2  0
 19 38  1  0
 20 19  1  0
 20 23  1  0
 21 22  1  0
 21 18  1  0
 22 20  2  0
 23 24  1  0
 24 25  2  0
 26 29  1  0
 26 25  1  0
 27 26  2  0
 28 27  1  0
 28 23  2  0
 29 30  1  0
 30 35  2  0
 30 31  1  0
 31 32  2  0
 32 33  1  0
 33 37  1  0
 34 33  2  0
 35 34  1  0
 36 35  1  0
 38 39  1  0
 39 42  1  0
 39 41  1  0
 40 38  2  0
 43 18  1  0
 43 44  1  0
 45 43  1  0
 48 50  1  0
 49 60  2  0
 50 55  1  0
 51 59  1  0
 51 61  1  0
 52 58  1  0
 52 54  1  0
 53 59  1  0
 54 53  1  0
 55 54  2  0
 56 50  2  0
 57 56  1  0
 57 52  2  0
 58 51  1  0
 59 49  1  0
 61 63  2  0
 62 61  1  0
 64 62  1  0
 65 74  2  0
 65 70  1  0
 66 62  1  0
 66 70  1  0
 67 66  1  0
 68 69  1  0
 68 67  1  0
 69 65  1  0
 70 71  2  0
 71 72  1  0
 73 72  2  0
 74 73  1  0
 75 49  1  0
 75 76  1  0
 75 85  1  0
 76 79  1  0
 77 81  1  0
 77 76  1  0
 78 77  2  0
 81 80  1  0
 83 81  1  0
 83 84  1  0
 83 82  1  0
 85 88  1  1
 85 86  1  0
 87 85  1  0
M  ISO  4   6 100  17 100  47 101  48 101
M  END
>  <TORSDO>  (6) 
F 18

>  <SCORE>  (6) 
-14.045

>  <name>  (6) 
5

>  <ligand_id>  (6) 
5

>  <original_smiles>  (6) 
[H]c1nn(C([H])([H])C([H])([H])Oc2c([H])c([H])c3c(c2[H])C([H])([H])N(C(=O)C([H])(N([H])C(=O)C([H])(N([H])C([H])([H])[H])C([H])([H])[H])C(C([H])([H])[H])(C([H])([H])[H])C([H])([H])[H])C([H])(C(=O)N([H])C2([H])c4c([H])c([H])c([H])c([H])c4C([H])([H])C([H])([H])C2([H])[H])C3([H])[H])c(C2([H])C([H])([H])N(C(=O)N3C([H])([H])C([H])([H])C([H])([H])C([H])(n4nc(-c5c([H])c([H])c(Oc6c([H])c([H])c(F)c([H])c6F)c([H])c5[H])c(C(=O)N([H])[H])c4N([H])[H])C3([H])[H])C2([H])[H])c1[H]

>  <smiles>  (6) 
[H]c1nn(C([H])([H])C([H])([H])Oc2c([H])c([H])c3c(c2[H])C([H])([H])N(C(=O)C([H])(N([H])C(=O)C([H])(N([H])C([H])([H])[H])C([H])([H])[H])C(C([H])([H])[H])(C([H])([H])[H])C([H])([H])[H])C([H])(C(=O)N([H])C2([H])c4c([H])c([H])c([H])c([H])c4C([H])([H])C([H])([H])C2([H])[H])C3([H])[H])c(C2([H])C([H])([H])N(C(=O)N3C([H])([H])C([H])([H])C([H])([H])C([H])(n4nc(-c5c([H])c([H])c(Oc6c([H])c([H])c(F)c([H])c6F)c([H])c5[H])c(C(=O)N([H])[H])c4N([H])[H])C3([H])[H])C2([H])[H])c1[H]

$$$$
6:0:0
     RDKit          3D

 92101  0  0  1  0  0  0  0  0999 V2000
  -30.0660  -20.7580   18.7850 C   0  0  0  0  0  0  0  0  0  0  0  0
  -29.3180  -20.4280   19.9410 C   0  0  0  0  0  0  0  0  0  0  0  0
  -30.0860  -22.1010   18.3130 C   0  0  0  0  0  0  0  0  0  0  0  0
  -28.7760  -22.9510   20.0380 C   0  0  0  0  0  0  0  0  0  0  0  0
  -28.6760  -21.5990   20.5300 N   0  0  0  0  0  0  0  0  0  0  0  0
  -29.4850  -23.1430   18.9340 N   0  0  0  0  0  0  0  0  0  0  0  0
  -30.4370  -15.1470   20.2360 C   0  0  0  0  0  0  0  0  0  0  0  0
  -30.3270  -12.7390   19.3400 C   0  0  0  0  0  2  0  0  0  0  0  0
  -29.3940  -12.6010   18.1130 C   0  0  0  0  0  2  0  0  0  0  0  0
  -27.9430  -12.3620   18.5660 C   0  0  0  0  0  2  0  0  0  0  0  0
  -27.5260  -13.3090   19.7210 C   0  0  0  0  0  3  0  0  0  0  0  0
  -28.5870  -13.4130   20.8350 C   0  0  0  0  0  2  0  0  0  0  0  0
  -29.8280  -13.8710   20.1940 N   0  0  0  0  0  0  0  0  0  0  0  0
  -31.6470  -15.1300   19.9710 O   0  0  0  0  0  0  0  0  0  0  0  0
  -29.1500  -17.4230   19.4410 C   0  0  0  0  0  2  0  0  0  0  0  0
  -30.3730  -17.7410   20.9880 C   0  0  0  0  0  2  0  0  0  0  0  0
  -29.2720  -18.7510   20.3700 C   0  0  0  0  0  3  0  0  0  0  0  0
  -29.7500  -16.4290   20.4540 N   0  0  0  0  0  0  0  0  0  0  0  0
  -25.1690  -13.8750   20.5120 C   0  0  0  0  0  0  0  0  0  0  0  0
  -24.1100  -13.0980   20.8910 C   0  0  0  0  0  0  0  0  0  0  0  0
  -24.5730  -11.7470   20.8470 C   0  0  0  0  0  0  0  0  0  0  0  0
  -26.2050  -12.9970   20.2470 N   0  0  0  0  0  0  0  0  0  0  0  0
  -25.8600  -11.7110   20.5180 N   0  0  0  0  0  0  0  0  0  0  0  0
  -23.8460  -10.4850   21.0410 C   0  0  0  0  0  0  0  0  0  0  0  0
  -24.2900   -9.5100   21.9620 C   0  0  0  0  0  3  0  0  0  0  0  0
  -23.5620   -8.3140   22.1450 C   0  0  0  0  0  3  0  0  0  0  0  0
  -22.3770   -8.0850   21.4060 C   0  0  0  0  0  0  0  0  0  0  0  0
  -21.9510   -9.0480   20.4740 C   0  0  0  0  0  3  0  0  0  0  0  0
  -22.6800  -10.2350   20.2900 C   0  0  0  0  0  3  0  0  0  0  0  0
  -21.6180   -6.9440   21.4990 O   0  0  0  0  0  0  0  0  0  0  0  0
  -21.5870   -6.1910   22.6460 C   0  0  0  0  0  0  0  0  0  0  0  0
  -21.1820   -6.7360   23.8840 C   0  0  0  0  0  3  0  0  0  0  0  0
  -21.0970   -5.9100   25.0230 C   0  0  0  0  0  3  0  0  0  0  0  0
  -21.4060   -4.5400   24.9250 C   0  0  0  0  0  0  0  0  0  0  0  0
  -21.8030   -3.9950   23.6910 C   0  0  0  0  0  3  0  0  0  0  0  0
  -21.8890   -4.8170   22.5560 C   0  0  0  0  0  0  0  0  0  0  0  0
  -22.2520   -4.2810   21.3650 F   0  0  0  0  0  0  0  0  0  0  0  0
  -21.3160   -3.7450   26.0160 F   0  0  0  0  0  0  0  0  0  0  0  0
  -22.7170  -13.5780   21.1790 C   0  0  0  0  0  0  0  0  0  0  0  0
  -21.9950  -12.8810   22.0500 N   0  0  0  0  0  0  0  0  0  0  0  0
  -22.2770  -14.6070   20.6680 O   0  0  0  0  0  0  0  0  0  0  0  0
  -22.3630  -12.0500   22.4890 H   0  0  0  0  0  0  0  0  0  0  0  0
  -21.0600  -13.1840   22.2830 H   0  0  0  0  0  0  0  0  0  0  0  0
  -25.3340  -15.2460   20.3410 N   0  0  0  0  0  0  0  0  0  0  0  0
  -24.5750  -15.9050   20.4770 H   0  0  0  0  0  0  0  0  0  0  0  0
  -26.1930  -15.6820   20.0280 H   0  0  0  0  0  0  0  0  0  0  0  0
  -32.0430  -23.2660   17.1380 C   0  0  0  0  0  1  0  0  0  0  0  0
  -30.7440  -22.4620   16.9850 C   0  0  0  0  0  2  0  0  0  0  0  0
  -32.1210  -19.7140   18.3540 C   0  0  0  0  0  1  0  0  0  0  0  0
  -30.7220  -19.7640   18.1040 O   0  0  0  0  0  0  0  0  0  0  0  0
  -27.9520  -24.3680   20.5540 C   0  0  0  0  0  2  0  0  0  0  0  0
  -28.2370  -25.9420   20.2670 O   0  0  0  0  0  0  0  0  0  0  0  0
  -24.6380  -31.8490   23.2190 C   0  0  0  0  0  0  0  0  0  0  0  0
  -27.2090  -27.0010   20.2520 C   0  0  0  0  0  0  0  0  0  0  0  0
  -23.4490  -30.4410   21.5890 C   0  0  0  0  0  3  0  0  0  0  0  0
  -24.9020  -28.8330   20.1890 C   0  0  0  0  0  0  0  0  0  0  0  0
  -26.0130  -30.6700   21.4430 C   0  0  0  0  0  2  0  0  0  0  0  0
  -26.0870  -29.2580   20.8020 C   0  0  0  0  0  0  0  0  0  0  0  0
  -27.2410  -28.3640   20.8080 C   0  0  0  0  0  3  0  0  0  0  0  0
  -25.9960  -26.7110   19.5910 C   0  0  0  0  0  3  0  0  0  0  0  0
  -24.8770  -27.5770   19.5630 C   0  0  0  0  0  3  0  0  0  0  0  0
  -23.6800  -29.7460   20.2200 C   0  0  0  0  0  2  0  0  0  0  0  0
  -24.7200  -31.0120   22.1370 N   0  0  0  0  0  0  0  0  0  0  0  0
  -23.5480  -32.1380   23.7380 O   0  0  0  0  0  0  0  0  0  0  0  0
  -22.7570  -29.4490   22.5590 C   0  0  0  0  0  0  0  0  0  0  0  0
  -21.4270  -29.2850   22.4350 N   0  0  0  0  0  0  0  0  0  0  0  0
  -23.4220  -28.8260   23.3900 O   0  0  0  0  0  0  0  0  0  0  0  0
  -20.9440  -29.8320   21.7360 H   0  0  0  0  0  0  0  0  0  0  0  0
  -18.0410  -28.0930   22.9550 C   0  0  0  0  0  0  0  0  0  0  0  0
  -20.6020  -28.3550   23.2130 C   0  0  0  0  0  3  0  0  0  0  0  0
  -20.7010  -26.9190   22.6460 C   0  0  0  0  0  2  0  0  0  0  0  0
  -19.5960  -26.5920   21.6370 C   0  0  0  0  0  2  0  0  0  0  0  0
  -18.2150  -26.7420   22.2820 C   0  0  0  0  0  2  0  0  0  0  0  0
  -19.1610  -28.8570   23.3780 C   0  0  0  0  0  0  0  0  0  0  0  0
  -18.9430  -30.1200   23.9700 C   0  0  0  0  0  3  0  0  0  0  0  0
  -17.6370  -30.6200   24.1390 C   0  0  0  0  0  3  0  0  0  0  0  0
  -16.5330  -29.8530   23.7310 C   0  0  0  0  0  3  0  0  0  0  0  0
  -16.7350  -28.5910   23.1460 C   0  0  0  0  0  3  0  0  0  0  0  0
  -25.9090  -32.4980   23.8480 C   0  0  0  0  0  3  0  0  0  0  0  0
  -26.4130  -31.7410   25.1390 C   0  0  1  0  0  0  0  0  0  0  0  0
  -25.3100  -31.5180   26.2010 C   0  0  0  0  0  1  0  0  0  0  0  0
  -27.0000  -30.3580   24.7750 C   0  0  0  0  0  1  0  0  0  0  0  0
  -27.5590  -32.5430   25.8000 C   0  0  0  0  0  1  0  0  0  0  0  0
  -25.5870  -33.8980   24.1760 N   0  0  0  0  0  0  0  0  0  0  0  0
  -25.9150  -34.9560   23.4220 C   0  0  0  0  0  0  0  0  0  0  0  0
  -26.5830  -34.8550   22.3910 O   0  0  0  0  0  0  0  0  0  0  0  0
  -24.9970  -34.0470   24.9810 H   0  0  0  0  0  0  0  0  0  0  0  0
  -24.1850  -36.7520   23.0740 C   0  0  0  0  0  1  0  0  0  0  0  0
  -25.4290  -36.3460   23.8830 C   0  0  0  0  0  3  0  0  0  0  0  0
  -27.5650  -37.2340   24.7100 C   0  0  0  0  0  1  0  0  0  0  0  0
  -26.4600  -37.4010   23.7690 N   0  0  0  0  0  0  0  0  0  0  0  0
  -26.0540  -38.3220   23.9170 H   0  0  0  0  0  0  0  0  0  0  0  0
  1  2  2  0
  2  5  1  0
  3  1  1  0
  3  6  2  0
  4  5  2  0
  4 51  1  0
  6  4  1  0
  7 18  1  0
  8 13  1  0
  9 10  1  0
  9  8  1  0
 11 10  1  0
 11 22  1  0
 11 12  1  0
 13  7  1  0
 13 12  1  0
 14  7  2  0
 15 17  1  0
 15 18  1  0
 17  2  1  0
 17 16  1  0
 18 16  1  0
 19 20  2  0
 20 39  1  0
 21 20  1  0
 21 24  1  0
 22 19  1  0
 22 23  1  0
 23 21  2  0
 24 25  1  0
 25 26  2  0
 27 30  1  0
 27 26  1  0
 28 27  2  0
 29 28  1  0
 29 24  2  0
 30 31  1  0
 31 32  1  0
 32 33  2  0
 34 33  1  0
 34 38  1  0
 35 34  2  0
 36 31  2  0
 36 35  1  0
 37 36  1  0
 39 40  1  0
 40 43  1  0
 40 42  1  0
 41 39  2  0
 44 45  1  0
 44 19  1  0
 46 44  1  0
 48 47  1  0
 48  3  1  0
 50 49  1  0
 50  1  1  0
 52 51  1  0
 53 64  2  0
 54 52  1  0
 54 59  1  0
 55 63  1  0
 55 65  1  0
 56 62  1  0
 56 58  1  0
 57 63  1  0
 58 59  2  0
 58 57  1  0
 60 54  2  0
 61 60  1  0
 61 56  2  0
 62 55  1  0
 63 53  1  0
 65 67  2  0
 66 65  1  0
 68 66  1  0
 69 78  2  0
 69 74  1  0
 70 66  1  0
 70 74  1  0
 71 70  1  0
 72 73  1  0
 72 71  1  0
 73 69  1  0
 74 75  2  0
 75 76  1  0
 77 76  2  0
 78 77  1  0
 79 53  1  0
 79 84  1  0
 79 80  1  0
 80 83  1  1
 80 81  1  0
 82 80  1  0
 84 87  1  0
 85 89  1  0
 85 84  1  0
 86 85  2  0
 89 88  1  0
 91 89  1  0
 91 92  1  0
 91 90  1  0
M  ISO  4   7 100  18 100  51 101  52 101
M  END
>  <TORSDO>  (7) 
F 19

>  <SCORE>  (7) 
-15.343

>  <name>  (7) 
6

>  <ligand_id>  (7) 
6

>  <original_smiles>  (7) 
[H]c1c([H])c([H])c2c(c1[H])C([H])([H])C([H])([H])C([H])([H])C2([H])N([H])C(=O)C1([H])N(C(=O)C([H])(N([H])C(=O)C([H])(N([H])C([H])([H])[H])C([H])([H])[H])C(C([H])([H])[H])(C([H])([H])[H])C([H])([H])[H])C([H])([H])c2c([H])c(OC([H])([H])c3nc(C([H])([H])C([H])([H])[H])c(OC([H])([H])[H])c(C4([H])C([H])([H])N(C(=O)N5C([H])([H])C([H])([H])C([H])([H])C([H])(n6nc(-c7c([H])c([H])c(Oc8c([H])c([H])c(F)c([H])c8F)c([H])c7[H])c(C(=O)N([H])[H])c6N([H])[H])C5([H])[H])C4([H])[H])n3)c([H])c([H])c2C1([H])[H]

>  <smiles>  (7) 
[H]c1c([H])c([H])c2c(c1[H])C([H])([H])C([H])([H])C([H])([H])C2([H])N([H])C(=O)C1([H])N(C(=O)C([H])(N([H])C(=O)C([H])(N([H])C([H])([H])[H])C([H])([H])[H])C(C([H])([H])[H])(C([H])([H])[H])C([H])([H])[H])C([H])([H])c2c([H])c(OC([H])([H])c3nc(C([H])([H])C([H])([H])[H])c(OC([H])([H])[H])c(C4([H])C([H])([H])N(C(=O)N5C([H])([H])C([H])([H])C([H])([H])C([H])(n6nc(-c7c([H])c([H])c(Oc8c([H])c([H])c(F)c([H])c8F)c([H])c7[H])c(C(=O)N([H])[H])c6N([H])[H])C5([H])[H])C4([H])[H])n3)c([H])c([H])c2C1([H])[H]

$$$$
7:0:0
     RDKit          3D

 96105  0  0  1  0  0  0  0  0999 V2000
  -29.7490  -21.6190   22.7850 C   0  0  0  0  0  2  0  0  0  0  0  0
  -29.4570  -23.0860   22.4500 C   0  0  0  0  0  2  0  0  0  0  0  0
  -29.1480  -21.7850   20.4590 C   0  0  0  0  0  2  0  0  0  0  0  0
  -30.1080  -21.0420   21.4160 C   0  0  0  0  0  3  0  0  0  0  0  0
  -28.7950  -23.0720   21.1220 N   0  0  2  0  0  4  0  0  0  0  0  0
  -27.8050  -22.9900   21.3070 H   0  0  0  0  0  0  0  0  0  0  0  0
  -30.7000  -14.4530   20.5860 C   0  0  0  0  0  0  0  0  0  0  0  0
  -30.4260  -12.2990   19.4100 C   0  0  0  0  0  2  0  0  0  0  0  0
  -29.4920  -12.5090   18.1990 C   0  0  0  0  0  2  0  0  0  0  0  0
  -28.0130  -12.3700   18.6130 C   0  0  0  0  0  2  0  0  0  0  0  0
  -27.6640  -13.2000   19.8770 C   0  0  0  0  0  3  0  0  0  0  0  0
  -28.7060  -12.9530   20.9920 C   0  0  0  0  0  2  0  0  0  0  0  0
  -30.0400  -13.2680   20.4470 N   0  0  0  0  0  0  0  0  0  0  0  0
  -31.8200  -14.6390   20.0950 O   0  0  0  0  0  0  0  0  0  0  0  0
  -28.9510  -18.7510   21.5310 C   0  0  0  0  0  3  0  0  0  0  0  0
  -30.1240  -19.5020   21.3270 C   0  0  0  0  0  0  0  0  0  0  0  0
  -31.2800  -18.7390   21.0780 C   0  0  0  0  0  0  0  0  0  0  0  0
  -30.0750  -16.7810   21.2230 C   0  0  0  0  0  0  0  0  0  0  0  0
  -33.7440  -18.5410   20.9570 C   0  0  0  0  0  1  0  0  0  0  0  0
  -28.9330  -17.4050   21.4840 N   0  0  0  0  0  0  0  0  0  0  0  0
  -31.2400  -17.3960   21.0280 N   0  0  0  0  0  0  0  0  0  0  0  0
  -32.5270  -19.3400   20.8690 N   0  0  0  0  0  0  0  0  0  0  0  0
  -29.9770  -15.4110   21.2000 N   0  0  0  0  0  0  0  0  0  0  0  0
  -32.6060  -20.3410   21.0100 H   0  0  0  0  0  0  0  0  0  0  0  0
  -29.0940  -15.0740   21.5420 H   0  0  0  0  0  0  0  0  0  0  0  0
  -25.2600  -13.8150   20.5680 C   0  0  0  0  0  0  0  0  0  0  0  0
  -24.1840  -13.0430   20.9160 C   0  0  0  0  0  0  0  0  0  0  0  0
  -24.6390  -11.6900   20.8730 C   0  0  0  0  0  0  0  0  0  0  0  0
  -26.3040  -12.9310   20.3370 N   0  0  0  0  0  0  0  0  0  0  0  0
  -25.9320  -11.6470   20.5760 N   0  0  0  0  0  0  0  0  0  0  0  0
  -23.9060  -10.4290   21.0410 C   0  0  0  0  0  0  0  0  0  0  0  0
  -24.3610   -9.4210   21.9180 C   0  0  0  0  0  3  0  0  0  0  0  0
  -23.6290   -8.2250   22.0760 C   0  0  0  0  0  3  0  0  0  0  0  0
  -22.4270   -8.0280   21.3550 C   0  0  0  0  0  0  0  0  0  0  0  0
  -21.9910   -9.0250   20.4650 C   0  0  0  0  0  3  0  0  0  0  0  0
  -22.7240  -10.2130   20.3050 C   0  0  0  0  0  3  0  0  0  0  0  0
  -21.6630   -6.8880   21.4240 O   0  0  0  0  0  0  0  0  0  0  0  0
  -21.6850   -6.0740   22.5280 C   0  0  0  0  0  0  0  0  0  0  0  0
  -21.4010   -6.5640   23.8210 C   0  0  0  0  0  3  0  0  0  0  0  0
  -21.3660   -5.6790   24.9180 C   0  0  0  0  0  3  0  0  0  0  0  0
  -21.6050   -4.3060   24.7230 C   0  0  0  0  0  0  0  0  0  0  0  0
  -21.8820   -3.8150   23.4350 C   0  0  0  0  0  3  0  0  0  0  0  0
  -21.9190   -4.6960   22.3410 C   0  0  0  0  0  0  0  0  0  0  0  0
  -22.1660   -4.2150   21.0980 F   0  0  0  0  0  0  0  0  0  0  0  0
  -21.5630   -3.4540   25.7740 F   0  0  0  0  0  0  0  0  0  0  0  0
  -22.7870  -13.5240   21.1830 C   0  0  0  0  0  0  0  0  0  0  0  0
  -22.0500  -12.8240   22.0380 N   0  0  0  0  0  0  0  0  0  0  0  0
  -22.3570  -14.5560   20.6690 O   0  0  0  0  0  0  0  0  0  0  0  0
  -22.4100  -11.9890   22.4760 H   0  0  0  0  0  0  0  0  0  0  0  0
  -21.1120  -13.1270   22.2570 H   0  0  0  0  0  0  0  0  0  0  0  0
  -25.4340  -15.1870   20.4120 N   0  0  0  0  0  0  0  0  0  0  0  0
  -24.6720  -15.8440   20.5330 H   0  0  0  0  0  0  0  0  0  0  0  0
  -26.2980  -15.6330   20.1280 H   0  0  0  0  0  0  0  0  0  0  0  0
  -28.9770  -24.3050   20.2990 C   0  0  0  0  0  2  0  0  0  0  0  0
  -28.3510  -25.5600   20.9550 C   0  0  0  0  0  2  0  0  0  0  0  0
  -28.3930  -26.7030   20.0890 O   0  0  0  0  0  0  0  0  0  0  0  0
  -24.6130  -31.8690   23.2110 C   0  0  0  0  0  0  0  0  0  0  0  0
  -27.2400  -27.4520   20.0960 C   0  0  0  0  0  0  0  0  0  0  0  0
  -23.4010  -30.4890   21.5510 C   0  0  0  0  0  3  0  0  0  0  0  0
  -24.8510  -28.9570   20.1160 C   0  0  0  0  0  0  0  0  0  0  0  0
  -25.9280  -30.8410   21.3600 C   0  0  0  0  0  2  0  0  0  0  0  0
  -26.0100  -29.4750   20.7090 C   0  0  0  0  0  0  0  0  0  0  0  0
  -27.2110  -28.7310   20.6940 C   0  0  0  0  0  3  0  0  0  0  0  0
  -26.0690  -26.9430   19.4960 C   0  0  0  0  0  3  0  0  0  0  0  0
  -24.8750  -27.6890   19.5070 C   0  0  0  0  0  3  0  0  0  0  0  0
  -23.6110  -29.8210   20.1650 C   0  0  0  0  0  2  0  0  0  0  0  0
  -24.6660  -31.0790   22.1000 N   0  0  0  0  0  0  0  0  0  0  0  0
  -23.5330  -32.1430   23.7500 O   0  0  0  0  0  0  0  0  0  0  0  0
  -22.7420  -29.4640   22.5000 C   0  0  0  0  0  0  0  0  0  0  0  0
  -21.4150  -29.3010   22.3750 N   0  0  0  0  0  0  0  0  0  0  0  0
  -23.4200  -28.8180   23.3040 O   0  0  0  0  0  0  0  0  0  0  0  0
  -20.9310  -29.8760   21.6990 H   0  0  0  0  0  0  0  0  0  0  0  0
  -18.0270  -28.1370   22.8480 C   0  0  0  0  0  0  0  0  0  0  0  0
  -20.5860  -28.3640   23.1320 C   0  0  0  0  0  3  0  0  0  0  0  0
  -20.6770  -26.9380   22.5410 C   0  0  0  0  0  2  0  0  0  0  0  0
  -19.5750  -26.6370   21.5200 C   0  0  0  0  0  2  0  0  0  0  0  0
  -18.1920  -26.7910   22.1610 C   0  0  0  0  0  2  0  0  0  0  0  0
  -19.1520  -28.8820   23.2890 C   0  0  0  0  0  0  0  0  0  0  0  0
  -18.9450  -30.1430   23.8900 C   0  0  0  0  0  3  0  0  0  0  0  0
  -17.6460  -30.6570   24.0550 C   0  0  0  0  0  3  0  0  0  0  0  0
  -16.5350  -29.9080   23.6320 C   0  0  0  0  0  3  0  0  0  0  0  0
  -16.7260  -28.6490   23.0330 C   0  0  0  0  0  3  0  0  0  0  0  0
  -25.9030  -32.4830   23.8400 C   0  0  0  0  0  3  0  0  0  0  0  0
  -25.5900  -33.8630   24.2340 N   0  0  0  0  0  0  0  0  0  0  0  0
  -25.9030  -34.9480   23.5130 C   0  0  0  0  0  0  0  0  0  0  0  0
  -26.5580  -34.8920   22.4690 O   0  0  0  0  0  0  0  0  0  0  0  0
  -25.0100  -33.9800   25.0520 H   0  0  0  0  0  0  0  0  0  0  0  0
  -24.1490  -36.7310   23.2640 C   0  0  0  0  0  1  0  0  0  0  0  0
  -25.4110  -36.3120   24.0340 C   0  0  0  0  0  3  0  0  0  0  0  0
  -27.5580  -37.1810   24.8470 C   0  0  0  0  0  1  0  0  0  0  0  0
  -26.4300  -37.3800   23.9410 N   0  0  0  0  0  0  0  0  0  0  0  0
  -26.0190  -38.2880   24.1400 H   0  0  0  0  0  0  0  0  0  0  0  0
  -26.4470  -31.6600   25.0710 C   0  0  1  0  0  0  0  0  0  0  0  0
  -25.3740  -31.3690   26.1460 C   0  0  0  0  0  1  0  0  0  0  0  0
  -27.0300  -30.3060   24.6040 C   0  0  0  0  0  1  0  0  0  0  0  0
  -27.6050  -32.4300   25.7480 C   0  0  0  0  0  1  0  0  0  0  0  0
  2  1  1  0
  3  5  1  0
  3  4  1  0
  4 16  1  0
  4  1  1  0
  5  6  1  1
  5  2  1  0
  7 23  1  0
  8 13  1  0
  9 10  1  0
  9  8  1  0
 11 10  1  0
 11 29  1  0
 11 12  1  0
 13  7  1  0
 13 12  1  0
 14  7  2  0
 16 15  2  0
 17 16  1  0
 18 20  2  0
 20 15  1  0
 21 17  2  0
 21 18  1  0
 22 19  1  0
 22 24  1  0
 22 17  1  0
 23 18  1  0
 23 25  1  0
 26 27  2  0
 27 46  1  0
 28 27  1  0
 28 31  1  0
 29 26  1  0
 29 30  1  0
 30 28  2  0
 31 32  1  0
 32 33  2  0
 34 37  1  0
 34 33  1  0
 35 34  2  0
 36 35  1  0
 36 31  2  0
 37 38  1  0
 38 39  1  0
 39 40  2  0
 41 40  1  0
 41 45  1  0
 42 41  2  0
 43 38  2  0
 43 42  1  0
 44 43  1  0
 46 47  1  0
 47 50  1  0
 47 49  1  0
 48 46  2  0
 51 52  1  0
 51 26  1  0
 53 51  1  0
 54 55  1  0
 54  5  1  0
 56 58  1  0
 56 55  1  0
 57 68  2  0
 58 63  1  0
 59 67  1  0
 59 69  1  0
 60 66  1  0
 60 62  1  0
 61 67  1  0
 62 61  1  0
 63 62  2  0
 64 65  1  0
 64 58  2  0
 65 60  2  0
 66 59  1  0
 67 57  1  0
 69 71  2  0
 70 69  1  0
 72 70  1  0
 73 82  2  0
 73 78  1  0
 74 70  1  0
 74 78  1  0
 75 74  1  0
 76 77  1  0
 76 75  1  0
 77 73  1  0
 78 79  2  0
 79 80  1  0
 81 80  2  0
 82 81  1  0
 83 57  1  0
 83 84  1  0
 83 93  1  0
 84 87  1  0
 85 89  1  0
 85 84  1  0
 86 85  2  0
 89 88  1  0
 91 89  1  0
 91 92  1  0
 91 90  1  0
 93 96  1  1
 93 94  1  0
 95 93  1  0
M  ISO  4   7 100  23 100  55 101  56 101
M  END
>  <TORSDO>  (8) 
F 18

>  <SCORE>  (8) 
-13.360

>  <name>  (8) 
7

>  <ligand_id>  (8) 
7

>  <original_smiles>  (8) 
[H]c1nc(N([H])C(=O)N2C([H])([H])C([H])([H])C([H])([H])C([H])(n3nc(-c4c([H])c([H])c(Oc5c([H])c([H])c(F)c([H])c5F)c([H])c4[H])c(C(=O)N([H])[H])c3N([H])[H])C2([H])[H])nc(N([H])C([H])([H])[H])c1C1([H])C([H])([H])C([H])([H])[N+]([H])(C([H])([H])C([H])([H])Oc2c([H])c([H])c3c(c2[H])C([H])([H])N(C(=O)C([H])(N([H])C(=O)C([H])(N([H])C([H])([H])[H])C([H])([H])[H])C(C([H])([H])[H])(C([H])([H])[H])C([H])([H])[H])C([H])(C(=O)N([H])C2([H])c4c([H])c([H])c([H])c([H])c4C([H])([H])C([H])([H])C2([H])[H])C3([H])[H])C1([H])[H]

>  <smiles>  (8) 
[H]c1nc(N([H])C(=O)N2C([H])([H])C([H])([H])C([H])([H])C([H])(n3nc(-c4c([H])c([H])c(Oc5c([H])c([H])c(F)c([H])c5F)c([H])c4[H])c(C(=O)N([H])[H])c3N([H])[H])C2([H])[H])nc(N([H])C([H])([H])[H])c1C1([H])C([H])([H])C([H])([H])[N+]([H])(C([H])([H])C([H])([H])Oc2c([H])c([H])c3c(c2[H])C([H])([H])N(C(=O)C([H])(N([H])C(=O)C([H])(N([H])C([H])([H])[H])C([H])([H])[H])C(C([H])([H])[H])(C([H])([H])[H])C([H])([H])[H])C([H])(C(=O)N([H])C2([H])c4c([H])c([H])c([H])c([H])c4C([H])([H])C([H])([H])C2([H])[H])C3([H])[H])C1([H])[H]

$$$$
8:0:0
     RDKit          3D

 94103  0  0  1  0  0  0  0  0999 V2000
  -28.4920  -21.0690   19.1070 C   0  0  0  0  0  2  0  0  0  0  0  0
  -28.7520  -21.0940   21.6440 C   0  0  0  0  0  2  0  0  0  0  0  0
  -27.8720  -22.4500   19.4250 C   0  0  0  0  0  2  0  0  0  0  0  0
  -29.1750  -22.5750   21.5630 C   0  0  0  0  0  2  0  0  0  0  0  0
  -29.0650  -20.3270   20.3470 C   0  0  0  0  0  3  0  0  0  0  0  0
  -28.7390  -23.2700   20.3140 N   0  0  2  0  0  4  0  0  0  0  0  0
  -29.5980  -23.4260   19.8030 H   0  0  0  0  0  0  0  0  0  0  0  0
  -28.5830  -18.9210   20.4180 N   0  0  0  0  0  4  0  0  0  0  0  0
  -28.2860  -18.6720   19.4880 H   0  0  0  0  0  0  0  0  0  0  0  0
  -27.7680  -18.8580   21.0080 H   0  0  0  0  0  0  0  0  0  0  0  0
  -29.5680  -17.8780   20.8070 C   0  0  0  0  0  2  0  0  0  0  0  0
  -30.8550  -14.7000   20.9230 C   0  0  0  0  0  0  0  0  0  0  0  0
  -30.6960  -12.4300   20.0470 C   0  0  0  0  0  2  0  0  0  0  0  0
  -29.8750  -12.4850   18.7430 C   0  0  0  0  0  2  0  0  0  0  0  0
  -28.3720  -12.3270   19.0430 C   0  0  0  0  0  2  0  0  0  0  0  0
  -27.8840  -13.2730   20.1680 C   0  0  0  0  0  3  0  0  0  0  0  0
  -28.8360  -13.2740   21.3890 C   0  0  0  0  0  2  0  0  0  0  0  0
  -30.2030  -13.5100   20.9080 N   0  0  0  0  0  0  0  0  0  0  0  0
  -32.0820  -14.7740   20.9770 O   0  0  0  0  0  0  0  0  0  0  0  0
  -29.4980  -16.5980   18.5060 C   0  0  0  0  0  2  0  0  0  0  0  0
  -30.9070  -16.1150   18.8340 C   0  0  0  0  0  2  0  0  0  0  0  0
  -29.2460  -16.5960   20.0210 C   0  0  0  0  0  3  0  0  0  0  0  0
  -30.2920  -15.5570   20.0420 N   0  0  0  0  0  0  0  0  0  0  0  0
  -25.4350  -13.8850   20.6570 C   0  0  0  0  0  0  0  0  0  0  0  0
  -24.3440  -13.1130   20.9530 C   0  0  0  0  0  0  0  0  0  0  0  0
  -24.8210  -11.7680   21.0080 C   0  0  0  0  0  0  0  0  0  0  0  0
  -26.5030  -13.0070   20.5490 N   0  0  0  0  0  0  0  0  0  0  0  0
  -26.1320  -11.7320   20.8230 N   0  0  0  0  0  0  0  0  0  0  0  0
  -24.0950  -10.5040   21.1650 C   0  0  0  0  0  0  0  0  0  0  0  0
  -24.4730   -9.5520   22.1380 C   0  0  0  0  0  3  0  0  0  0  0  0
  -23.7470   -8.3510   22.2820 C   0  0  0  0  0  3  0  0  0  0  0  0
  -22.6300   -8.0940   21.4500 C   0  0  0  0  0  0  0  0  0  0  0  0
  -22.2760   -9.0320   20.4650 C   0  0  0  0  0  3  0  0  0  0  0  0
  -23.0030  -10.2250   20.3200 C   0  0  0  0  0  3  0  0  0  0  0  0
  -21.8810   -6.9430   21.5010 O   0  0  0  0  0  0  0  0  0  0  0  0
  -21.7740   -6.2040   22.6520 C   0  0  0  0  0  0  0  0  0  0  0  0
  -21.2970   -6.7630   23.8580 C   0  0  0  0  0  3  0  0  0  0  0  0
  -21.1420   -5.9500   24.9970 C   0  0  0  0  0  3  0  0  0  0  0  0
  -21.4520   -4.5770   24.9310 C   0  0  0  0  0  0  0  0  0  0  0  0
  -21.9210   -4.0190   23.7290 C   0  0  0  0  0  3  0  0  0  0  0  0
  -22.0800   -4.8290   22.5920 C   0  0  0  0  0  0  0  0  0  0  0  0
  -22.5130   -4.2820   21.4310 F   0  0  0  0  0  0  0  0  0  0  0  0
  -21.2940   -3.7940   26.0220 F   0  0  0  0  0  0  0  0  0  0  0  0
  -22.9230  -13.5820   21.0750 C   0  0  0  0  0  0  0  0  0  0  0  0
  -22.1260  -12.9050   21.8940 N   0  0  0  0  0  0  0  0  0  0  0  0
  -22.5270  -14.5830   20.4790 O   0  0  0  0  0  0  0  0  0  0  0  0
  -22.4580  -12.0940   22.3920 H   0  0  0  0  0  0  0  0  0  0  0  0
  -21.1680  -13.1980   22.0190 H   0  0  0  0  0  0  0  0  0  0  0  0
  -25.6010  -15.2490   20.4410 N   0  0  0  0  0  0  0  0  0  0  0  0
  -24.8050  -15.8760   20.3970 H   0  0  0  0  0  0  0  0  0  0  0  0
  -26.4540  -15.6580   20.0880 H   0  0  0  0  0  0  0  0  0  0  0  0
  -28.2000  -24.6340   20.5690 C   0  0  0  0  0  2  0  0  0  0  0  0
  -28.5020  -25.5960   19.4100 C   0  0  0  0  0  2  0  0  0  0  0  0
  -28.3800  -26.9350   19.8600 O   0  0  0  0  0  0  0  0  0  0  0  0
  -24.5390  -31.9070   23.1160 C   0  0  0  0  0  0  0  0  0  0  0  0
  -27.1490  -27.5500   19.9090 C   0  0  0  0  0  0  0  0  0  0  0  0
  -23.3020  -30.5230   21.4750 C   0  0  0  0  0  3  0  0  0  0  0  0
  -24.7350  -29.0110   20.0080 C   0  0  0  0  0  0  0  0  0  0  0  0
  -25.8210  -30.9010   21.2340 C   0  0  0  0  0  2  0  0  0  0  0  0
  -25.8950  -29.5410   20.5790 C   0  0  0  0  0  0  0  0  0  0  0  0
  -27.1020  -28.8150   20.5310 C   0  0  0  0  0  3  0  0  0  0  0  0
  -25.9620  -27.0120   19.3580 C   0  0  0  0  0  3  0  0  0  0  0  0
  -24.7580  -27.7430   19.4040 C   0  0  0  0  0  3  0  0  0  0  0  0
  -23.4880  -29.8600   20.0840 C   0  0  0  0  0  2  0  0  0  0  0  0
  -24.5720  -31.1250   21.9980 N   0  0  0  0  0  0  0  0  0  0  0  0
  -23.4690  -32.1650   23.6840 O   0  0  0  0  0  0  0  0  0  0  0  0
  -22.6780  -29.4830   22.4340 C   0  0  0  0  0  0  0  0  0  0  0  0
  -21.3500  -29.3060   22.3400 N   0  0  0  0  0  0  0  0  0  0  0  0
  -23.3830  -28.8410   23.2160 O   0  0  0  0  0  0  0  0  0  0  0  0
  -20.8400  -29.8800   21.6830 H   0  0  0  0  0  0  0  0  0  0  0  0
  -17.9920  -28.1120   22.9040 C   0  0  0  0  0  0  0  0  0  0  0  0
  -20.5550  -28.3550   23.1140 C   0  0  0  0  0  3  0  0  0  0  0  0
  -20.6380  -26.9350   22.5090 C   0  0  0  0  0  2  0  0  0  0  0  0
  -19.5100  -26.6360   21.5170 C   0  0  0  0  0  2  0  0  0  0  0  0
  -18.1460  -26.7740   22.1990 C   0  0  0  0  0  2  0  0  0  0  0  0
  -19.1230  -28.8600   23.3220 C   0  0  0  0  0  0  0  0  0  0  0  0
  -18.9290  -30.1130   23.9410 C   0  0  0  0  0  3  0  0  0  0  0  0
  -17.6320  -30.6210   24.1450 C   0  0  0  0  0  3  0  0  0  0  0  0
  -16.5140  -29.8680   23.7480 C   0  0  0  0  0  3  0  0  0  0  0  0
  -16.6940  -28.6160   23.1340 C   0  0  0  0  0  3  0  0  0  0  0  0
  -25.8370  -32.5290   23.7180 C   0  0  0  0  0  3  0  0  0  0  0  0
  -26.4020  -31.7240   24.9540 C   0  0  1  0  0  0  0  0  0  0  0  0
  -25.3440  -31.4480   26.0470 C   0  0  0  0  0  1  0  0  0  0  0  0
  -26.9850  -30.3660   24.4990 C   0  0  0  0  0  1  0  0  0  0  0  0
  -27.5670  -32.5100   25.6050 C   0  0  0  0  0  1  0  0  0  0  0  0
  -25.5330  -33.9130   24.0980 N   0  0  0  0  0  0  0  0  0  0  0  0
  -25.8450  -34.9880   23.3620 C   0  0  0  0  0  0  0  0  0  0  0  0
  -26.4960  -34.9200   22.3150 O   0  0  0  0  0  0  0  0  0  0  0  0
  -24.9630  -34.0430   24.9200 H   0  0  0  0  0  0  0  0  0  0  0  0
  -24.1010  -36.7730   23.0860 C   0  0  0  0  0  1  0  0  0  0  0  0
  -25.3550  -36.3570   23.8690 C   0  0  0  0  0  3  0  0  0  0  0  0
  -27.4960  -37.2240   24.6990 C   0  0  0  0  0  1  0  0  0  0  0  0
  -26.3790  -37.4200   23.7760 N   0  0  0  0  0  0  0  0  0  0  0  0
  -25.9710  -38.3310   23.9670 H   0  0  0  0  0  0  0  0  0  0  0  0
  1  3  1  0
  1  5  1  0
  3  6  1  0
  4  2  1  0
  5  8  1  0
  5  2  1  0
  6 52  1  0
  6  4  1  0
  6  7  1  6
  8 11  1  0
  8 10  1  0
  9  8  1  0
 12 19  2  0
 13 18  1  0
 14 15  1  0
 14 13  1  0
 16 15  1  0
 16 27  1  0
 16 17  1  0
 18 12  1  0
 18 17  1  0
 20 21  1  0
 20 22  1  0
 21 23  1  0
 22 23  1  0
 22 11  1  0
 23 12  1  0
 24 25  2  0
 25 26  1  0
 25 44  1  0
 26 29  1  0
 27 24  1  0
 27 28  1  0
 28 26  2  0
 29 30  1  0
 30 31  2  0
 32 35  1  0
 32 31  1  0
 33 32  2  0
 34 33  1  0
 34 29  2  0
 35 36  1  0
 36 37  1  0
 37 38  2  0
 39 38  1  0
 39 43  1  0
 40 39  2  0
 41 36  2  0
 41 40  1  0
 42 41  1  0
 44 45  1  0
 45 48  1  0
 45 47  1  0
 46 44  2  0
 49 24  1  0
 50 49  1  0
 51 49  1  0
 53 54  1  0
 53 52  1  0
 54 56  1  0
 55 66  2  0
 56 61  1  0
 57 65  1  0
 57 67  1  0
 58 64  1  0
 58 60  1  0
 59 65  1  0
 60 59  1  0
 61 60  2  0
 62 63  1  0
 62 56  2  0
 63 58  2  0
 64 57  1  0
 65 55  1  0
 67 69  2  0
 68 67  1  0
 70 68  1  0
 71 80  2  0
 71 76  1  0
 72 68  1  0
 72 76  1  0
 73 72  1  0
 74 75  1  0
 74 73  1  0
 75 71  1  0
 76 77  2  0
 77 78  1  0
 79 78  2  0
 80 79  1  0
 81 55  1  0
 81 86  1  0
 81 82  1  0
 82 85  1  1
 82 83  1  0
 84 82  1  0
 86 89  1  0
 87 91  1  0
 87 86  1  0
 88 87  2  0
 91 90  1  0
 93 91  1  0
 93 94  1  0
 93 92  1  0
M  ISO  4  12 100  23 100  53 101  54 101
M  END
>  <TORSDO>  (9) 
F 20

>  <SCORE>  (9) 
-13.396

>  <name>  (9) 
8

>  <ligand_id>  (9) 
8

>  <original_smiles>  (9) 
[H]c1c([H])c([H])c2c(c1[H])C([H])([H])C([H])([H])C([H])([H])C2([H])N([H])C(=O)C1([H])N(C(=O)C([H])(N([H])C(=O)C([H])(N([H])C([H])([H])[H])C([H])([H])[H])C(C([H])([H])[H])(C([H])([H])[H])C([H])([H])[H])C([H])([H])c2c([H])c(OC([H])([H])C([H])([H])[N+]3([H])C([H])([H])C([H])([H])C([H])([N+]([H])([H])C([H])([H])C4([H])N(C(=O)N5C([H])([H])C([H])([H])C([H])([H])C([H])(n6nc(-c7c([H])c([H])c(Oc8c([H])c([H])c(F)c([H])c8F)c([H])c7[H])c(C(=O)N([H])[H])c6N([H])[H])C5([H])[H])C([H])([H])C4([H])[H])C([H])([H])C3([H])[H])c([H])c([H])c2C1([H])[H]

>  <smiles>  (9) 
[H]c1c([H])c([H])c2c(c1[H])C([H])([H])C([H])([H])C([H])([H])C2([H])N([H])C(=O)C1([H])N(C(=O)C([H])(N([H])C(=O)C([H])(N([H])C([H])([H])[H])C([H])([H])[H])C(C([H])([H])[H])(C([H])([H])[H])C([H])([H])[H])C([H])([H])c2c([H])c(OC([H])([H])C([H])([H])[N+]3([H])C([H])([H])C([H])([H])C([H])([N+]([H])([H])C([H])([H])C4([H])N(C(=O)N5C([H])([H])C([H])([H])C([H])([H])C([H])(n6nc(-c7c([H])c([H])c(Oc8c([H])c([H])c(F)c([H])c8F)c([H])c7[H])c(C(=O)N([H])[H])c6N([H])[H])C5([H])[H])C([H])([H])C4([H])[H])C([H])([H])C3([H])[H])c([H])c([H])c2C1([H])[H]

$$$$
9:0:0
     RDKit          3D

 87 95  0  0  1  0  0  0  0  0999 V2000
  -30.4090  -15.7800   20.2100 C   0  0  0  0  0  0  0  0  0  0  0  0
  -30.5150  -13.1650   19.6190 C   0  0  0  0  0  2  0  0  0  0  0  0
  -29.6750  -12.6750   18.4030 C   0  0  0  0  0  2  0  0  0  0  0  0
  -28.2290  -12.3680   18.8190 C   0  0  0  0  0  2  0  0  0  0  0  0
  -27.6870  -13.4550   19.7730 C   0  0  0  0  0  3  0  0  0  0  0  0
  -28.6690  -13.8540   20.9020 C   0  0  0  0  0  2  0  0  0  0  0  0
  -29.8810  -14.4100   20.2540 N   0  0  0  0  0  0  0  0  0  0  0  0
  -31.6440  -15.6870   20.0510 O   0  0  0  0  0  0  0  0  0  0  0  0
  -29.9530  -21.2170   19.1860 C   0  0  0  0  0  3  0  0  0  0  0  0
  -28.8570  -22.1040   19.7020 C   0  0  0  0  0  0  0  0  0  0  0  0
  -28.1690  -20.9990   20.4300 C   0  0  0  0  0  0  0  0  0  0  0  0
  -29.5170  -18.7980   20.0500 C   0  0  0  0  0  0  0  0  0  0  0  0
  -26.8850  -21.3500   21.1550 C   0  0  0  0  0  1  0  0  0  0  0  0
  -30.2470  -19.7740   19.3460 N   0  0  0  0  0  0  0  0  0  0  0  0
  -28.4690  -19.5710   20.5660 N   0  0  0  0  0  0  0  0  0  0  0  0
  -29.6270  -17.1380   20.2130 N   0  0  0  0  0  0  0  0  0  0  0  0
  -28.6950  -16.8400   20.4480 H   0  0  0  0  0  0  0  0  0  0  0  0
  -25.3240  -14.0760   20.4680 C   0  0  0  0  0  0  0  0  0  0  0  0
  -24.2300  -13.3380   20.8180 C   0  0  0  0  0  0  0  0  0  0  0  0
  -24.6530  -11.9730   20.8120 C   0  0  0  0  0  0  0  0  0  0  0  0
  -26.3450  -13.1680   20.2600 N   0  0  0  0  0  0  0  0  0  0  0  0
  -25.9530  -11.8940   20.5340 N   0  0  0  0  0  0  0  0  0  0  0  0
  -23.8760  -10.7390   20.9930 C   0  0  0  0  0  0  0  0  0  0  0  0
  -24.2670   -9.7460   21.9180 C   0  0  0  0  0  3  0  0  0  0  0  0
  -23.4880   -8.5810   22.0910 C   0  0  0  0  0  3  0  0  0  0  0  0
  -22.3030   -8.4020   21.3380 C   0  0  0  0  0  0  0  0  0  0  0  0
  -21.9290   -9.3820   20.4020 C   0  0  0  0  0  3  0  0  0  0  0  0
  -22.7090  -10.5380   20.2290 C   0  0  0  0  0  3  0  0  0  0  0  0
  -21.4980   -7.2900   21.4210 O   0  0  0  0  0  0  0  0  0  0  0  0
  -21.4490   -6.5190   22.5540 C   0  0  0  0  0  0  0  0  0  0  0  0
  -21.0920   -7.0600   23.8090 C   0  0  0  0  0  3  0  0  0  0  0  0
  -20.9860   -6.2190   24.9330 C   0  0  0  0  0  3  0  0  0  0  0  0
  -21.2260   -4.8370   24.8060 C   0  0  0  0  0  0  0  0  0  0  0  0
  -21.5770   -4.2960   23.5570 C   0  0  0  0  0  3  0  0  0  0  0  0
  -21.6850   -5.1350   22.4330 C   0  0  0  0  0  0  0  0  0  0  0  0
  -22.0010   -4.6040   21.2280 F   0  0  0  0  0  0  0  0  0  0  0  0
  -21.1170   -4.0270   25.8850 F   0  0  0  0  0  0  0  0  0  0  0  0
  -22.8440  -13.8680   21.0400 C   0  0  0  0  0  0  0  0  0  0  0  0
  -22.0690  -13.2150   21.8980 N   0  0  0  0  0  0  0  0  0  0  0  0
  -22.4600  -14.8980   20.4870 O   0  0  0  0  0  0  0  0  0  0  0  0
  -22.3930  -12.3820   22.3650 H   0  0  0  0  0  0  0  0  0  0  0  0
  -21.1380  -13.5560   22.0920 H   0  0  0  0  0  0  0  0  0  0  0  0
  -25.5320  -15.4390   20.2720 N   0  0  0  0  0  0  0  0  0  0  0  0
  -24.7610  -16.0990   20.3090 H   0  0  0  0  0  0  0  0  0  0  0  0
  -26.3710  -15.8360   19.8750 H   0  0  0  0  0  0  0  0  0  0  0  0
  -28.2120  -23.8370   19.2880 C   0  0  0  0  0  2  0  0  0  0  0  0
  -28.4070  -25.5710   19.5690 O   0  0  0  0  0  0  0  0  0  0  0  0
  -24.6970  -31.5680   22.8620 C   0  0  0  0  0  0  0  0  0  0  0  0
  -27.4010  -26.7680   19.5630 C   0  0  0  0  0  0  0  0  0  0  0  0
  -23.5460  -30.2160   21.1640 C   0  0  0  0  0  3  0  0  0  0  0  0
  -25.0440  -28.7120   19.6430 C   0  0  0  0  0  0  0  0  0  0  0  0
  -26.1150  -30.4760   21.0160 C   0  0  0  0  0  2  0  0  0  0  0  0
  -26.2330  -29.0820   20.2820 C   0  0  0  0  0  0  0  0  0  0  0  0
  -27.3900  -28.1400   20.2130 C   0  0  0  0  0  3  0  0  0  0  0  0
  -26.1700  -26.6190   18.8730 C   0  0  0  0  0  3  0  0  0  0  0  0
  -25.0520  -27.5100   18.9150 C   0  0  0  0  0  3  0  0  0  0  0  0
  -23.7960  -29.6040   19.7540 C   0  0  0  0  0  2  0  0  0  0  0  0
  -24.8090  -30.7850   21.7350 N   0  0  0  0  0  0  0  0  0  0  0  0
  -23.6000  -31.7900   23.4040 O   0  0  0  0  0  0  0  0  0  0  0  0
  -22.8860  -29.1560   22.0880 C   0  0  0  0  0  0  0  0  0  0  0  0
  -21.5530  -28.9820   22.0030 N   0  0  0  0  0  0  0  0  0  0  0  0
  -23.5860  -28.4880   22.8520 O   0  0  0  0  0  0  0  0  0  0  0  0
  -21.0340  -29.5710   21.3650 H   0  0  0  0  0  0  0  0  0  0  0  0
  -18.2060  -27.7050   22.6060 C   0  0  0  0  0  0  0  0  0  0  0  0
  -20.7760  -27.9740   22.7370 C   0  0  0  0  0  3  0  0  0  0  0  0
  -20.8470  -26.5990   22.0320 C   0  0  0  0  0  2  0  0  0  0  0  0
  -19.6890  -26.3610   21.0590 C   0  0  0  0  0  2  0  0  0  0  0  0
  -18.3470  -26.4290   21.7940 C   0  0  0  0  0  2  0  0  0  0  0  0
  -19.3440  -28.4400   23.0360 C   0  0  0  0  0  0  0  0  0  0  0  0
  -19.1510  -29.6340   23.7620 C   0  0  0  0  0  3  0  0  0  0  0  0
  -17.8550  -30.0970   24.0590 C   0  0  0  0  0  3  0  0  0  0  0  0
  -16.7320  -29.3600   23.6410 C   0  0  0  0  0  3  0  0  0  0  0  0
  -16.9090  -28.1650   22.9220 C   0  0  0  0  0  3  0  0  0  0  0  0
  -25.9400  -32.2370   23.5250 C   0  0  0  0  0  3  0  0  0  0  0  0
  -25.5520  -33.5860   23.9810 N   0  0  0  0  0  0  0  0  0  0  0  0
  -25.7950  -34.7250   23.3180 C   0  0  0  0  0  0  0  0  0  0  0  0
  -26.4270  -34.7540   22.2600 O   0  0  0  0  0  0  0  0  0  0  0  0
  -24.9810  -33.6310   24.8130 H   0  0  0  0  0  0  0  0  0  0  0  0
  -23.9450  -36.4350   23.2180 C   0  0  0  0  0  1  0  0  0  0  0  0
  -25.2550  -36.0410   23.9210 C   0  0  0  0  0  3  0  0  0  0  0  0
  -27.3800  -36.9990   24.7060 C   0  0  0  0  0  1  0  0  0  0  0  0
  -26.2140  -37.1660   23.8410 N   0  0  0  0  0  0  0  0  0  0  0  0
  -25.7610  -38.0420   24.0890 H   0  0  0  0  0  0  0  0  0  0  0  0
  -26.5120  -31.4060   24.7400 C   0  0  1  0  0  0  0  0  0  0  0  0
  -25.4500  -31.0520   25.8070 C   0  0  0  0  0  1  0  0  0  0  0  0
  -27.1460  -30.0820   24.2590 C   0  0  0  0  0  1  0  0  0  0  0  0
  -27.6390  -32.2050   25.4360 C   0  0  0  0  0  1  0  0  0  0  0  0
  1 16  1  0
  1  7  1  0
  2  7  1  0
  3  4  1  0
  3  2  1  0
  5  4  1  0
  5 21  1  0
  5  6  1  0
  7  6  1  0
  8  1  2  0
  9 14  1  0
  9 10  2  0
 10 11  1  0
 11 15  2  0
 11 13  1  0
 12 16  1  0
 12 15  1  0
 14 12  2  0
 16 17  1  0
 18 19  2  0
 19 38  1  0
 20 19  1  0
 20 23  1  0
 21 18  1  0
 21 22  1  0
 22 20  2  0
 23 24  1  0
 24 25  2  0
 26 29  1  0
 26 25  1  0
 27 26  2  0
 28 27  1  0
 28 23  2  0
 29 30  1  0
 30 31  1  0
 31 32  2  0
 33 32  1  0
 33 37  1  0
 34 33  2  0
 35 30  2  0
 35 34  1  0
 36 35  1  0
 38 39  1  0
 39 42  1  0
 39 41  1  0
 40 38  2  0
 43 44  1  0
 43 18  1  0
 45 43  1  0
 46 47  1  0
 46 10  1  0
 48 59  2  0
 49 47  1  0
 49 54  1  0
 50 58  1  0
 50 60  1  0
 51 57  1  0
 51 53  1  0
 52 58  1  0
 53 52  1  0
 54 53  2  0
 55 56  1  0
 55 49  2  0
 56 51  2  0
 57 50  1  0
 58 48  1  0
 60 62  2  0
 61 60  1  0
 63 61  1  0
 64 73  2  0
 64 69  1  0
 65 61  1  0
 65 69  1  0
 66 65  1  0
 67 68  1  0
 67 66  1  0
 68 64  1  0
 69 70  2  0
 70 71  1  0
 72 71  2  0
 73 72  1  0
 74 48  1  0
 74 75  1  0
 74 84  1  0
 75 78  1  0
 76 80  1  0
 76 75  1  0
 77 76  2  0
 80 79  1  0
 82 80  1  0
 82 83  1  0
 82 81  1  0
 84 87  1  1
 84 85  1  0
 86 84  1  0
M  ISO  4   1 100  16 100  46 101  47 101
M  END
>  <TORSDO>  (10) 
F 16

>  <SCORE>  (10) 
-13.888

>  <name>  (10) 
9

>  <ligand_id>  (10) 
9

>  <original_smiles>  (10) 
[H]c1nc(N([H])C(=O)N2C([H])([H])C([H])([H])C([H])([H])C([H])(n3nc(-c4c([H])c([H])c(Oc5c([H])c([H])c(F)c([H])c5F)c([H])c4[H])c(C(=O)N([H])[H])c3N([H])[H])C2([H])[H])nc(C([H])([H])[H])c1C([H])([H])Oc1c([H])c([H])c2c(c1[H])C([H])([H])N(C(=O)C([H])(N([H])C(=O)C([H])(N([H])C([H])([H])[H])C([H])([H])[H])C(C([H])([H])[H])(C([H])([H])[H])C([H])([H])[H])C([H])(C(=O)N([H])C1([H])c3c([H])c([H])c([H])c([H])c3C([H])([H])C([H])([H])C1([H])[H])C2([H])[H]

>  <smiles>  (10) 
[H]c1nc(N([H])C(=O)N2C([H])([H])C([H])([H])C([H])([H])C([H])(n3nc(-c4c([H])c([H])c(Oc5c([H])c([H])c(F)c([H])c5F)c([H])c4[H])c(C(=O)N([H])[H])c3N([H])[H])C2([H])[H])nc(C([H])([H])[H])c1C([H])([H])Oc1c([H])c([H])c2c(c1[H])C([H])([H])N(C(=O)C([H])(N([H])C(=O)C([H])(N([H])C([H])([H])[H])C([H])([H])[H])C(C([H])([H])[H])(C([H])([H])[H])C([H])([H])[H])C([H])(C(=O)N([H])C1([H])c3c([H])c([H])c([H])c([H])c3C([H])([H])C([H])([H])C1([H])[H])C2([H])[H]

$$$$
10:0:0
     RDKit          3D

 92101  0  0  1  0  0  0  0  0999 V2000
  -28.0620  -22.4790   21.0050 C   0  0  0  0  0  3  0  0  0  0  0  0
  -29.6880  -23.2730   19.7800 C   0  0  0  0  0  3  0  0  0  0  0  0
  -29.3120  -22.0970   20.4030 C   0  0  0  0  0  0  0  0  0  0  0  0
  -27.6990  -23.7350   20.7240 N   0  0  0  0  0  0  0  0  0  0  0  0
  -28.7040  -24.2460   19.9670 N   0  0  0  0  0  0  0  0  0  0  0  0
  -30.1090  -20.7600   20.4780 C   0  0  0  0  0  2  0  0  0  0  0  0
  -29.3660  -19.4830   20.1820 N   0  0  0  0  0  4  0  0  0  0  0  0
  -28.4870  -19.5000   20.6760 H   0  0  0  0  0  0  0  0  0  0  0  0
  -29.1560  -19.4670   19.1960 H   0  0  0  0  0  0  0  0  0  0  0  0
  -30.7780  -14.6230   20.0640 C   0  0  0  0  0  0  0  0  0  0  0  0
  -30.4450  -12.4440   18.9320 C   0  0  0  0  0  2  0  0  0  0  0  0
  -29.4520  -12.6640   17.7720 C   0  0  0  0  0  2  0  0  0  0  0  0
  -27.9970  -12.5200   18.2680 C   0  0  0  0  0  2  0  0  0  0  0  0
  -27.7180  -13.3180   19.5700 C   0  0  0  0  0  3  0  0  0  0  0  0
  -28.8330  -13.0940   20.6180 C   0  0  0  0  0  2  0  0  0  0  0  0
  -30.1140  -13.4270   19.9790 N   0  0  0  0  0  0  0  0  0  0  0  0
  -31.8870  -14.7850   19.5490 O   0  0  0  0  0  0  0  0  0  0  0  0
  -29.6670  -17.6330   21.9220 C   0  0  0  0  0  2  0  0  0  0  0  0
  -30.1240  -16.1580   21.8870 C   0  0  0  0  0  2  0  0  0  0  0  0
  -29.8210  -16.9340   19.6660 C   0  0  0  0  0  2  0  0  0  0  0  0
  -30.0660  -18.1930   20.5600 C   0  0  0  0  0  3  0  0  0  0  0  0
  -30.0540  -15.7090   20.4890 N   0  0  0  0  0  0  0  0  0  0  0  0
  -25.3640  -13.9100   20.4240 C   0  0  0  0  0  0  0  0  0  0  0  0
  -24.3130  -13.1380   20.8340 C   0  0  0  0  0  0  0  0  0  0  0  0
  -24.7610  -11.7850   20.7440 C   0  0  0  0  0  0  0  0  0  0  0  0
  -26.3910  -13.0290   20.1140 N   0  0  0  0  0  0  0  0  0  0  0  0
  -26.0340  -11.7440   20.3620 N   0  0  0  0  0  0  0  0  0  0  0  0
  -24.0360  -10.5210   20.9460 C   0  0  0  0  0  0  0  0  0  0  0  0
  -24.4830   -9.5550   21.8740 C   0  0  0  0  0  3  0  0  0  0  0  0
  -23.7630   -8.3560   22.0650 C   0  0  0  0  0  3  0  0  0  0  0  0
  -22.5810   -8.1160   21.3270 C   0  0  0  0  0  0  0  0  0  0  0  0
  -22.1520   -9.0710   20.3890 C   0  0  0  0  0  3  0  0  0  0  0  0
  -22.8730  -10.2600   20.1960 C   0  0  0  0  0  3  0  0  0  0  0  0
  -21.8270   -6.9720   21.4270 O   0  0  0  0  0  0  0  0  0  0  0  0
  -21.7470   -6.2590   22.5950 C   0  0  0  0  0  0  0  0  0  0  0  0
  -21.2950   -6.8480   23.7980 C   0  0  0  0  0  3  0  0  0  0  0  0
  -21.1660   -6.0640   24.9620 C   0  0  0  0  0  3  0  0  0  0  0  0
  -21.4770   -4.6900   24.9220 C   0  0  0  0  0  0  0  0  0  0  0  0
  -21.9210   -4.0990   23.7240 C   0  0  0  0  0  3  0  0  0  0  0  0
  -22.0520   -4.8830   22.5650 C   0  0  0  0  0  0  0  0  0  0  0  0
  -22.4600   -4.3070   21.4080 F   0  0  0  0  0  0  0  0  0  0  0  0
  -21.3480   -3.9340   26.0360 F   0  0  0  0  0  0  0  0  0  0  0  0
  -22.9370  -13.6140   21.1970 C   0  0  0  0  0  0  0  0  0  0  0  0
  -22.2550  -12.9170   22.0960 N   0  0  0  0  0  0  0  0  0  0  0  0
  -22.4760  -14.6480   20.7110 O   0  0  0  0  0  0  0  0  0  0  0  0
  -22.6400  -12.0820   22.5150 H   0  0  0  0  0  0  0  0  0  0  0  0
  -21.3270  -13.2180   22.3640 H   0  0  0  0  0  0  0  0  0  0  0  0
  -25.5320  -15.2840   20.2710 N   0  0  0  0  0  0  0  0  0  0  0  0
  -24.7910  -15.9480   20.4540 H   0  0  0  0  0  0  0  0  0  0  0  0
  -26.3820  -15.7200   19.9380 H   0  0  0  0  0  0  0  0  0  0  0  0
  -28.6060  -25.5940   19.3410 C   0  0  0  0  0  2  0  0  0  0  0  0
  -28.3480  -26.6580   20.2620 O   0  0  0  0  0  0  0  0  0  0  0  0
  -24.5270  -31.9060   23.2490 C   0  0  0  0  0  0  0  0  0  0  0  0
  -27.1760  -27.4110   20.1810 C   0  0  0  0  0  0  0  0  0  0  0  0
  -23.3240  -30.5060   21.6050 C   0  0  0  0  0  3  0  0  0  0  0  0
  -24.7830  -28.9670   20.1710 C   0  0  0  0  0  0  0  0  0  0  0  0
  -25.8530  -30.8500   21.4140 C   0  0  0  0  0  2  0  0  0  0  0  0
  -25.9390  -29.4740   20.7730 C   0  0  0  0  0  0  0  0  0  0  0  0
  -27.1290  -28.7000   20.7830 C   0  0  0  0  0  3  0  0  0  0  0  0
  -25.9890  -26.9370   19.5720 C   0  0  0  0  0  3  0  0  0  0  0  0
  -24.8070  -27.7020   19.5630 C   0  0  0  0  0  3  0  0  0  0  0  0
  -23.5360  -29.8230   20.2240 C   0  0  0  0  0  2  0  0  0  0  0  0
  -24.5880  -31.1060   22.1470 N   0  0  0  0  0  0  0  0  0  0  0  0
  -23.4460  -32.1810   23.7870 O   0  0  0  0  0  0  0  0  0  0  0  0
  -22.6720  -29.4850   22.5650 C   0  0  0  0  0  0  0  0  0  0  0  0
  -21.3490  -29.3000   22.4310 N   0  0  0  0  0  0  0  0  0  0  0  0
  -23.3530  -28.8640   23.3860 O   0  0  0  0  0  0  0  0  0  0  0  0
  -20.8610  -29.8590   21.7470 H   0  0  0  0  0  0  0  0  0  0  0  0
  -17.9760  -28.0810   22.8870 C   0  0  0  0  0  0  0  0  0  0  0  0
  -20.5290  -28.3590   23.1950 C   0  0  0  0  0  3  0  0  0  0  0  0
  -20.6490  -26.9260   22.6270 C   0  0  0  0  0  2  0  0  0  0  0  0
  -19.5640  -26.5890   21.6000 C   0  0  0  0  0  2  0  0  0  0  0  0
  -18.1740  -26.7290   22.2230 C   0  0  0  0  0  2  0  0  0  0  0  0
  -19.0840  -28.8540   23.3290 C   0  0  0  0  0  0  0  0  0  0  0  0
  -18.8490  -30.1210   23.9060 C   0  0  0  0  0  3  0  0  0  0  0  0
  -17.5380  -30.6120   24.0560 C   0  0  0  0  0  3  0  0  0  0  0  0
  -16.4460  -29.8350   23.6330 C   0  0  0  0  0  3  0  0  0  0  0  0
  -16.6640  -28.5730   23.0540 C   0  0  0  0  0  3  0  0  0  0  0  0
  -25.8120  -32.5380   23.8710 C   0  0  0  0  0  3  0  0  0  0  0  0
  -26.3290  -31.7600   25.1440 C   0  0  1  0  0  0  0  0  0  0  0  0
  -25.2370  -31.5140   26.2120 C   0  0  0  0  0  1  0  0  0  0  0  0
  -26.9120  -30.3840   24.7420 C   0  0  0  0  0  1  0  0  0  0  0  0
  -27.4790  -32.5500   25.8130 C   0  0  0  0  0  1  0  0  0  0  0  0
  -25.5010  -33.9340   24.2070 N   0  0  0  0  0  0  0  0  0  0  0  0
  -25.8320  -34.9910   23.4520 C   0  0  0  0  0  0  0  0  0  0  0  0
  -26.5040  -34.8920   22.4210 O   0  0  0  0  0  0  0  0  0  0  0  0
  -24.9050  -34.0850   25.0070 H   0  0  0  0  0  0  0  0  0  0  0  0
  -24.1000  -36.7820   23.1080 C   0  0  0  0  0  1  0  0  0  0  0  0
  -25.3430  -36.3770   23.9140 C   0  0  0  0  0  3  0  0  0  0  0  0
  -27.4790  -37.2650   24.7400 C   0  0  0  0  0  1  0  0  0  0  0  0
  -26.3730  -37.4330   23.8020 N   0  0  0  0  0  0  0  0  0  0  0  0
  -25.9650  -38.3500   23.9530 H   0  0  0  0  0  0  0  0  0  0  0  0
  2  5  1  0
  2  3  2  0
  3  6  1  0
  3  1  1  0
  4  1  2  0
  5  4  1  0
  7  6  1  0
  7  8  1  0
  9  7  1  0
 10 22  1  0
 11 16  1  0
 12 13  1  0
 12 11  1  0
 14 13  1  0
 14 26  1  0
 14 15  1  0
 16 10  1  0
 16 15  1  0
 17 10  2  0
 19 18  1  0
 20 22  1  0
 20 21  1  0
 21  7  1  0
 21 18  1  0
 22 19  1  0
 23 24  2  0
 24 43  1  0
 25 24  1  0
 25 28  1  0
 26 27  1  0
 26 23  1  0
 27 25  2  0
 28 29  1  0
 29 30  2  0
 31 34  1  0
 31 30  1  0
 32 31  2  0
 33 32  1  0
 33 28  2  0
 34 35  1  0
 35 36  1  0
 36 37  2  0
 38 37  1  0
 38 42  1  0
 39 38  2  0
 40 35  2  0
 40 39  1  0
 41 40  1  0
 43 44  1  0
 44 47  1  0
 44 46  1  0
 45 43  2  0
 48 23  1  0
 48 49  1  0
 50 48  1  0
 51  5  1  0
 51 52  1  0
 53 64  2  0
 54 52  1  0
 54 59  1  0
 55 63  1  0
 55 65  1  0
 56 62  1  0
 56 58  1  0
 57 63  1  0
 58 59  2  0
 58 57  1  0
 60 54  2  0
 61 60  1  0
 61 56  2  0
 62 55  1  0
 63 53  1  0
 65 67  2  0
 66 65  1  0
 68 66  1  0
 69 78  2  0
 69 74  1  0
 70 66  1  0
 70 74  1  0
 71 70  1  0
 72 73  1  0
 72 71  1  0
 73 69  1  0
 74 75  2  0
 75 76  1  0
 77 76  2  0
 78 77  1  0
 79 53  1  0
 79 84  1  0
 79 80  1  0
 80 83  1  1
 80 81  1  0
 82 80  1  0
 84 87  1  0
 85 89  1  0
 85 84  1  0
 86 85  2  0
 89 88  1  0
 91 89  1  0
 91 92  1  0
 91 90  1  0
M  ISO  4  10 100  22 100  51 101  52 101
M  END
>  <TORSDO>  (11) 
F 19

>  <SCORE>  (11) 
-13.754

>  <name>  (11) 
10

>  <ligand_id>  (11) 
10

>  <original_smiles>  (11) 
[H]c1nn(C([H])([H])Oc2c([H])c([H])c3c(c2[H])C([H])([H])N(C(=O)C([H])(N([H])C(=O)C([H])(N([H])C([H])([H])[H])C([H])([H])[H])C(C([H])([H])[H])(C([H])([H])[H])C([H])([H])[H])C([H])(C(=O)N([H])C2([H])c4c([H])c([H])c([H])c([H])c4C([H])([H])C([H])([H])C2([H])[H])C3([H])[H])c([H])c1C([H])([H])[N+]([H])([H])C1([H])C([H])([H])N(C(=O)N2C([H])([H])C([H])([H])C([H])([H])C([H])(n3nc(-c4c([H])c([H])c(Oc5c([H])c([H])c(F)c([H])c5F)c([H])c4[H])c(C(=O)N([H])[H])c3N([H])[H])C2([H])[H])C([H])([H])C1([H])[H]

>  <smiles>  (11) 
[H]c1nn(C([H])([H])Oc2c([H])c([H])c3c(c2[H])C([H])([H])N(C(=O)C([H])(N([H])C(=O)C([H])(N([H])C([H])([H])[H])C([H])([H])[H])C(C([H])([H])[H])(C([H])([H])[H])C([H])([H])[H])C([H])(C(=O)N([H])C2([H])c4c([H])c([H])c([H])c([H])c4C([H])([H])C([H])([H])C2([H])[H])C3([H])[H])c([H])c1C([H])([H])[N+]([H])([H])C1([H])C([H])([H])N(C(=O)N2C([H])([H])C([H])([H])C([H])([H])C([H])(n3nc(-c4c([H])c([H])c(Oc5c([H])c([H])c(F)c([H])c5F)c([H])c4[H])c(C(=O)N([H])[H])c3N([H])[H])C2([H])[H])C([H])([H])C1([H])[H]

$$$$
11:0:0
     RDKit          3D

 95105  0  0  1  0  0  0  0  0999 V2000
  -29.5030  -22.9110   18.4110 C   0  0  0  0  0  3  0  0  0  0  0  0
  -29.3610  -24.1730   17.8020 C   0  0  0  0  0  0  0  0  0  0  0  0
  -29.1070  -22.7600   19.7540 C   0  0  0  0  0  0  0  0  0  0  0  0
  -28.4990  -25.1010   19.7160 C   0  0  0  0  0  0  0  0  0  0  0  0
  -28.8500  -25.2360   18.4510 N   0  0  0  0  0  0  0  0  0  0  0  0
  -28.6400  -23.9130   20.3980 N   0  0  0  0  0  0  0  0  0  0  0  0
  -31.1640  -24.1080   15.8740 C   0  0  0  0  0  2  0  0  0  0  0  0
  -30.8080  -25.5500   16.1240 C   0  0  0  0  0  2  0  0  0  0  0  0
  -29.7850  -24.4630   16.3940 C   0  0  0  0  0  3  0  0  0  0  0  0
  -28.3100  -26.3240   20.3770 O   0  0  0  0  0  0  0  0  0  0  0  0
  -24.6190  -31.8380   23.2130 C   0  0  0  0  0  0  0  0  0  0  0  0
  -27.2080  -27.2020   20.1880 C   0  0  0  0  0  0  0  0  0  0  0  0
  -23.4030  -30.4370   21.5790 C   0  0  0  0  0  3  0  0  0  0  0  0
  -24.8450  -28.8610   20.1500 C   0  0  0  0  0  0  0  0  0  0  0  0
  -25.9430  -30.7300   21.3910 C   0  0  0  0  0  2  0  0  0  0  0  0
  -26.0170  -29.3420   20.7480 C   0  0  0  0  0  0  0  0  0  0  0  0
  -27.1900  -28.5230   20.7610 C   0  0  0  0  0  3  0  0  0  0  0  0
  -26.0160  -26.7880   19.5500 C   0  0  0  0  0  3  0  0  0  0  0  0
  -24.8530  -27.5900   19.5390 C   0  0  0  0  0  3  0  0  0  0  0  0
  -23.6130  -29.7470   20.2030 C   0  0  0  0  0  2  0  0  0  0  0  0
  -24.6750  -31.0190   22.1180 N   0  0  0  0  0  0  0  0  0  0  0  0
  -23.5390  -32.1210   23.7520 O   0  0  0  0  0  0  0  0  0  0  0  0
  -22.7290  -29.4370   22.5480 C   0  0  0  0  0  0  0  0  0  0  0  0
  -21.4020  -29.2680   22.4280 N   0  0  0  0  0  0  0  0  0  0  0  0
  -23.4030  -28.8140   23.3730 O   0  0  0  0  0  0  0  0  0  0  0  0
  -20.9090  -29.8200   21.7360 H   0  0  0  0  0  0  0  0  0  0  0  0
  -18.0240  -28.0770   22.9360 C   0  0  0  0  0  0  0  0  0  0  0  0
  -20.5820  -28.3370   23.2070 C   0  0  0  0  0  3  0  0  0  0  0  0
  -20.6850  -26.9010   22.6450 C   0  0  0  0  0  2  0  0  0  0  0  0
  -19.5850  -26.5710   21.6320 C   0  0  0  0  0  2  0  0  0  0  0  0
  -18.2010  -26.7240   22.2710 C   0  0  0  0  0  2  0  0  0  0  0  0
  -19.1420  -28.8410   23.3650 C   0  0  0  0  0  0  0  0  0  0  0  0
  -18.9260  -30.1080   23.9490 C   0  0  0  0  0  3  0  0  0  0  0  0
  -17.6230  -30.6130   24.1080 C   0  0  0  0  0  3  0  0  0  0  0  0
  -16.5170  -29.8480   23.6970 C   0  0  0  0  0  3  0  0  0  0  0  0
  -16.7180  -28.5810   23.1190 C   0  0  0  0  0  3  0  0  0  0  0  0
  -25.9040  -32.4680   23.8340 C   0  0  0  0  0  3  0  0  0  0  0  0
  -26.4210  -31.6910   25.1070 C   0  0  1  0  0  0  0  0  0  0  0  0
  -25.3350  -31.4530   26.1800 C   0  0  0  0  0  1  0  0  0  0  0  0
  -26.9980  -30.3140   24.7090 C   0  0  0  0  0  1  0  0  0  0  0  0
  -27.5790  -32.4760   25.7650 C   0  0  0  0  0  1  0  0  0  0  0  0
  -25.6000  -33.8630   24.1730 N   0  0  0  0  0  0  0  0  0  0  0  0
  -25.9210  -34.9190   23.4170 C   0  0  0  0  0  0  0  0  0  0  0  0
  -26.5730  -34.8240   22.3730 O   0  0  0  0  0  0  0  0  0  0  0  0
  -25.0100  -34.0130   24.9780 H   0  0  0  0  0  0  0  0  0  0  0  0
  -24.1840  -36.7170   23.1140 C   0  0  0  0  0  1  0  0  0  0  0  0
  -25.4430  -36.3060   23.8950 C   0  0  0  0  0  3  0  0  0  0  0  0
  -27.5920  -37.1940   24.6790 C   0  0  0  0  0  1  0  0  0  0  0  0
  -26.4710  -37.3650   23.7630 N   0  0  0  0  0  0  0  0  0  0  0  0
  -26.0620  -38.2840   23.9220 H   0  0  0  0  0  0  0  0  0  0  0  0
  -29.2290  -21.3310   20.4850 C   0  0  0  0  0  3  0  0  0  0  0  0
  -29.7120  -20.0810   19.7070 N   0  0  0  0  0  4  0  0  0  0  0  0
  -29.1200  -20.0040   18.8950 H   0  0  0  0  0  0  0  0  0  0  0  0
  -30.6300  -20.3240   19.3700 H   0  0  0  0  0  0  0  0  0  0  0  0
  -30.6770  -14.8380   19.9680 C   0  0  0  0  0  0  0  0  0  0  0  0
  -30.3750  -12.5620   18.9430 C   0  0  0  0  0  2  0  0  0  0  0  0
  -29.3690  -12.6100   17.7710 C   0  0  0  0  0  2  0  0  0  0  0  0
  -27.9300  -12.3990   18.2890 C   0  0  0  0  0  2  0  0  0  0  0  0
  -27.6250  -13.2800   19.5320 C   0  0  0  0  0  3  0  0  0  0  0  0
  -28.7570  -13.2150   20.5840 C   0  0  0  0  0  2  0  0  0  0  0  0
  -29.9950  -13.6310   19.9040 N   0  0  0  0  0  0  0  0  0  0  0  0
  -31.8590  -14.8390   19.6010 O   0  0  0  0  0  0  0  0  0  0  0  0
  -28.5180  -18.0000   20.7660 C   0  0  0  0  0  2  0  0  0  0  0  0
  -28.7510  -16.4530   20.7580 C   0  0  0  0  0  2  0  0  0  0  0  0
  -30.5460  -17.4520   19.6300 C   0  0  0  0  0  2  0  0  0  0  0  0
  -29.8310  -18.6820   20.3820 C   0  0  0  0  0  3  0  0  0  0  0  0
  -30.0240  -16.0980   20.0980 N   0  0  0  0  0  0  0  0  0  0  0  0
  -25.3020  -13.8850   20.4480 C   0  0  0  0  0  0  0  0  0  0  0  0
  -24.2520  -13.1220   20.8710 C   0  0  0  0  0  0  0  0  0  0  0  0
  -24.6900  -11.7640   20.7730 C   0  0  0  0  0  0  0  0  0  0  0  0
  -26.3150  -12.9990   20.1140 N   0  0  0  0  0  0  0  0  0  0  0  0
  -25.9580  -11.7160   20.3770 N   0  0  0  0  0  0  0  0  0  0  0  0
  -23.9570  -10.5090   20.9840 C   0  0  0  0  0  0  0  0  0  0  0  0
  -24.4220   -9.5310   21.8870 C   0  0  0  0  0  3  0  0  0  0  0  0
  -23.6940   -8.3380   22.0820 C   0  0  0  0  0  3  0  0  0  0  0  0
  -22.4900   -8.1210   21.3750 C   0  0  0  0  0  0  0  0  0  0  0  0
  -22.0460   -9.0910   20.4620 C   0  0  0  0  0  3  0  0  0  0  0  0
  -22.7720  -10.2740   20.2640 C   0  0  0  0  0  3  0  0  0  0  0  0
  -21.7270   -6.9840   21.4850 O   0  0  0  0  0  0  0  0  0  0  0  0
  -21.6980   -6.2420   22.6360 C   0  0  0  0  0  0  0  0  0  0  0  0
  -21.2950   -6.7970   23.8720 C   0  0  0  0  0  3  0  0  0  0  0  0
  -21.2160   -5.9790   25.0170 C   0  0  0  0  0  3  0  0  0  0  0  0
  -21.5300   -4.6110   24.9300 C   0  0  0  0  0  0  0  0  0  0  0  0
  -21.9260   -4.0550   23.7000 C   0  0  0  0  0  3  0  0  0  0  0  0
  -22.0080   -4.8690   22.5560 C   0  0  0  0  0  0  0  0  0  0  0  0
  -22.3720   -4.3220   21.3700 F   0  0  0  0  0  0  0  0  0  0  0  0
  -21.4460   -3.8250   26.0290 F   0  0  0  0  0  0  0  0  0  0  0  0
  -22.8830  -13.6160   21.2410 C   0  0  0  0  0  0  0  0  0  0  0  0
  -22.1950  -12.9160   22.1370 N   0  0  0  0  0  0  0  0  0  0  0  0
  -22.4330  -14.6590   20.7690 O   0  0  0  0  0  0  0  0  0  0  0  0
  -22.5740  -12.0750   22.5460 H   0  0  0  0  0  0  0  0  0  0  0  0
  -21.2750  -13.2320   22.4120 H   0  0  0  0  0  0  0  0  0  0  0  0
  -25.4720  -15.2550   20.2960 N   0  0  0  0  0  0  0  0  0  0  0  0
  -24.7520  -15.9260   20.5300 H   0  0  0  0  0  0  0  0  0  0  0  0
  -26.3160  -15.6850   19.9400 H   0  0  0  0  0  0  0  0  0  0  0  0
  1  3  1  0
  2  1  2  0
  2  5  1  0
  3  6  1  0
  3 51  2  0
  4 10  1  0
  4  6  2  0
  5  4  2  0
  7  8  1  0
  7  9  1  0
  8  9  1  0
  9  2  1  0
 11 22  2  0
 12 10  1  0
 12 17  1  0
 13 21  1  0
 13 23  1  0
 14 20  1  0
 14 16  1  0
 15 21  1  0
 16 17  2  0
 16 15  1  0
 18 12  2  0
 19 18  1  0
 19 14  2  0
 20 13  1  0
 21 11  1  0
 23 25  2  0
 24 23  1  0
 26 24  1  0
 27 36  2  0
 27 32  1  0
 28 24  1  0
 28 32  1  0
 29 28  1  0
 30 31  1  0
 30 29  1  0
 31 27  1  0
 32 33  2  0
 33 34  1  0
 35 34  2  0
 36 35  1  0
 37 11  1  0
 37 42  1  0
 37 38  1  0
 38 41  1  1
 38 39  1  0
 40 38  1  0
 42 45  1  0
 43 47  1  0
 43 42  1  0
 44 43  2  0
 47 46  1  0
 49 47  1  0
 49 50  1  0
 49 48  1  0
 52 51  1  0
 53 52  1  0
 54 52  1  0
 55 67  1  0
 56 61  1  0
 57 58  1  0
 57 56  1  0
 59 58  1  0
 59 71  1  0
 59 60  1  0
 61 55  1  0
 61 60  1  0
 62 55  2  0
 64 63  1  0
 65 67  1  0
 65 66  1  0
 66 52  1  0
 66 63  1  0
 67 64  1  0
 68 69  2  0
 69 88  1  0
 70 69  1  0
 70 73  1  0
 71 72  1  0
 71 68  1  0
 72 70  2  0
 73 74  1  0
 74 75  2  0
 76 79  1  0
 76 75  1  0
 77 76  2  0
 78 77  1  0
 78 73  2  0
 79 80  1  0
 80 81  1  0
 81 82  2  0
 83 82  1  0
 83 87  1  0
 84 83  2  0
 85 80  2  0
 85 84  1  0
 86 85  1  0
 88 89  1  0
 89 92  1  0
 89 91  1  0
 90 88  2  0
 93 68  1  0
 93 94  1  0
 95 93  1  0
M  ISO  4   4 101  10 101  55 100  67 100
M  END
>  <TORSDO>  (12) 
F 19

>  <SCORE>  (12) 
-13.967

>  <name>  (12) 
11

>  <ligand_id>  (12) 
11

>  <original_smiles>  (12) 
[H]c1c(C2([H])C([H])([H])C2([H])[H])nc(Oc2c([H])c([H])c3c(c2[H])C([H])([H])N(C(=O)C([H])(N([H])C(=O)C([H])(N([H])C([H])([H])[H])C([H])([H])[H])C(C([H])([H])[H])(C([H])([H])[H])C([H])([H])[H])C([H])(C(=O)N([H])C2([H])c4c([H])c([H])c([H])c([H])c4C([H])([H])C([H])([H])C2([H])[H])C3([H])[H])nc1C([H])([H])[N+]([H])([H])C1([H])C([H])([H])N(C(=O)N2C([H])([H])C([H])([H])C([H])([H])C([H])(n3nc(-c4c([H])c([H])c(Oc5c([H])c([H])c(F)c([H])c5F)c([H])c4[H])c(C(=O)N([H])[H])c3N([H])[H])C2([H])[H])C([H])([H])C1([H])[H]

>  <smiles>  (12) 
[H]c1c(C2([H])C([H])([H])C2([H])[H])nc(Oc2c([H])c([H])c3c(c2[H])C([H])([H])N(C(=O)C([H])(N([H])C(=O)C([H])(N([H])C([H])([H])[H])C([H])([H])[H])C(C([H])([H])[H])(C([H])([H])[H])C([H])([H])[H])C([H])(C(=O)N([H])C2([H])c4c([H])c([H])c([H])c([H])c4C([H])([H])C([H])([H])C2([H])[H])C3([H])[H])nc1C([H])([H])[N+]([H])([H])C1([H])C([H])([H])N(C(=O)N2C([H])([H])C([H])([H])C([H])([H])C([H])(n3nc(-c4c([H])c([H])c(Oc5c([H])c([H])c(F)c([H])c5F)c([H])c4[H])c(C(=O)N([H])[H])c3N([H])[H])C2([H])[H])C([H])([H])C1([H])[H]

$$$$
12:0:0
     RDKit          3D

 97106  0  0  1  0  0  0  0  0999 V2000
  -31.7660  -22.6070   18.7580 C   0  0  0  0  0  2  0  0  0  0  0  0
  -32.2570  -21.1600   18.7580 C   0  0  0  0  0  2  0  0  0  0  0  0
  -30.8680  -22.2490   19.9530 C   0  0  0  0  0  3  0  0  0  0  0  0
  -30.9350  -20.7840   19.4450 C   0  0  0  0  0  3  0  0  0  0  0  0
  -31.1000  -19.7320   20.4800 N   0  0  0  0  0  4  0  0  0  0  0  0
  -31.2020  -20.1440   21.3930 H   0  0  0  0  0  0  0  0  0  0  0  0
  -31.9580  -19.2420   20.2910 H   0  0  0  0  0  0  0  0  0  0  0  0
  -30.0130  -18.7250   20.5440 C   0  0  0  0  0  2  0  0  0  0  0  0
  -30.3340  -17.5400   21.5030 C   0  0  0  0  0  3  0  0  0  0  0  0
  -30.7540  -18.2950   24.7440 C   0  0  0  0  0  2  0  0  0  0  0  0
  -30.0580  -18.9140   23.5300 C   0  0  0  0  0  2  0  0  0  0  0  0
  -31.0060  -17.0990   23.8240 C   0  0  0  0  0  2  0  0  0  0  0  0
  -30.9470  -18.0700   22.7300 N   0  0  0  0  0  0  0  0  0  0  0  0
  -31.2520  -16.4600   20.8550 C   0  0  0  0  0  2  0  0  0  0  0  0
  -31.1050  -14.1390   19.9960 C   0  0  0  0  0  0  0  0  0  0  0  0
  -30.5950  -12.0230   18.8410 C   0  0  0  0  0  2  0  0  0  0  0  0
  -29.6490  -12.2930   17.6550 C   0  0  0  0  0  2  0  0  0  0  0  0
  -28.1790  -12.2620   18.1150 C   0  0  0  0  0  2  0  0  0  0  0  0
  -27.9280  -13.1260   19.3800 C   0  0  0  0  0  3  0  0  0  0  0  0
  -28.9880  -12.8420   20.4700 C   0  0  0  0  0  2  0  0  0  0  0  0
  -30.3220  -13.0340   19.8750 N   0  0  0  0  0  0  0  0  0  0  0  0
  -32.1870  -14.2640   19.4180 O   0  0  0  0  0  0  0  0  0  0  0  0
  -30.5980  -15.1500   20.7180 N   0  0  0  0  0  0  0  0  0  0  0  0
  -29.7130  -14.9990   21.1760 H   0  0  0  0  0  0  0  0  0  0  0  0
  -25.5730  -13.8910   20.0850 C   0  0  0  0  0  0  0  0  0  0  0  0
  -24.4730  -13.1950   20.5070 C   0  0  0  0  0  0  0  0  0  0  0  0
  -24.8630  -11.8210   20.5390 C   0  0  0  0  0  0  0  0  0  0  0  0
  -26.5690  -12.9470   19.8880 N   0  0  0  0  0  0  0  0  0  0  0  0
  -26.1450  -11.6990   20.2160 N   0  0  0  0  0  0  0  0  0  0  0  0
  -24.0760  -10.6090   20.8050 C   0  0  0  0  0  0  0  0  0  0  0  0
  -24.4730   -9.6700   21.7820 C   0  0  0  0  0  3  0  0  0  0  0  0
  -23.6900   -8.5210   22.0310 C   0  0  0  0  0  3  0  0  0  0  0  0
  -22.4960   -8.3050   21.3040 C   0  0  0  0  0  0  0  0  0  0  0  0
  -22.1180   -9.2320   20.3160 C   0  0  0  0  0  3  0  0  0  0  0  0
  -22.9010  -10.3710   20.0650 C   0  0  0  0  0  3  0  0  0  0  0  0
  -21.6870   -7.2070   21.4600 O   0  0  0  0  0  0  0  0  0  0  0  0
  -21.6100   -6.5320   22.6530 C   0  0  0  0  0  0  0  0  0  0  0  0
  -21.2410   -7.1800   23.8520 C   0  0  0  0  0  3  0  0  0  0  0  0
  -21.1060   -6.4360   25.0410 C   0  0  0  0  0  3  0  0  0  0  0  0
  -21.3290   -5.0460   25.0320 C   0  0  0  0  0  0  0  0  0  0  0  0
  -21.6910   -4.3990   23.8380 C   0  0  0  0  0  3  0  0  0  0  0  0
  -21.8280   -5.1400   22.6510 C   0  0  0  0  0  0  0  0  0  0  0  0
  -22.1550   -4.5070   21.4990 F   0  0  0  0  0  0  0  0  0  0  0  0
  -21.1910   -4.3300   26.1720 F   0  0  0  0  0  0  0  0  0  0  0  0
  -23.1060  -13.7580   20.7740 C   0  0  0  0  0  0  0  0  0  0  0  0
  -22.3640  -13.1590   21.6990 N   0  0  0  0  0  0  0  0  0  0  0  0
  -22.7060  -14.7660   20.1930 O   0  0  0  0  0  0  0  0  0  0  0  0
  -22.7000  -12.3450   22.1930 H   0  0  0  0  0  0  0  0  0  0  0  0
  -21.4470  -13.5210   21.9170 H   0  0  0  0  0  0  0  0  0  0  0  0
  -25.8040  -15.2400   19.8330 N   0  0  0  0  0  0  0  0  0  0  0  0
  -25.0690  -15.9350   19.9080 H   0  0  0  0  0  0  0  0  0  0  0  0
  -26.6640  -15.6140   19.4520 H   0  0  0  0  0  0  0  0  0  0  0  0
  -29.5870  -22.9450   20.1270 N   0  0  0  0  0  0  0  0  0  0  0  0
  -29.0610  -22.5570   20.9070 H   0  0  0  0  0  0  0  0  0  0  0  0
  -29.7640  -24.3850   20.3420 C   0  0  0  0  0  2  0  0  0  0  0  0
  -28.4230  -25.1060   20.1070 C   0  0  0  0  0  2  0  0  0  0  0  0
  -28.5090  -26.5240   20.3010 O   0  0  0  0  0  0  0  0  0  0  0  0
  -24.5470  -31.7230   23.1250 C   0  0  0  0  0  0  0  0  0  0  0  0
  -27.3230  -27.2340   20.2290 C   0  0  0  0  0  0  0  0  0  0  0  0
  -23.4040  -30.2740   21.4800 C   0  0  0  0  0  3  0  0  0  0  0  0
  -24.9130  -28.7220   20.1360 C   0  0  0  0  0  0  0  0  0  0  0  0
  -25.9330  -30.6510   21.3530 C   0  0  0  0  0  2  0  0  0  0  0  0
  -26.0500  -29.2680   20.7470 C   0  0  0  0  0  0  0  0  0  0  0  0
  -27.2570  -28.5310   20.7880 C   0  0  0  0  0  3  0  0  0  0  0  0
  -26.1610  -26.7060   19.6160 C   0  0  0  0  0  3  0  0  0  0  0  0
  -24.9650  -27.4390   19.5700 C   0  0  0  0  0  3  0  0  0  0  0  0
  -23.6620  -29.5680   20.1230 C   0  0  0  0  0  2  0  0  0  0  0  0
  -24.6450  -30.8990   22.0450 N   0  0  0  0  0  0  0  0  0  0  0  0
  -23.4470  -31.9980   23.6240 O   0  0  0  0  0  0  0  0  0  0  0  0
  -22.7330  -29.2670   22.4420 C   0  0  0  0  0  0  0  0  0  0  0  0
  -21.4110  -29.0850   22.2900 N   0  0  0  0  0  0  0  0  0  0  0  0
  -23.3990  -28.6520   23.2800 O   0  0  0  0  0  0  0  0  0  0  0  0
  -20.9360  -29.6320   21.5860 H   0  0  0  0  0  0  0  0  0  0  0  0
  -18.0220  -27.9190   22.7450 C   0  0  0  0  0  0  0  0  0  0  0  0
  -20.5760  -28.1610   23.0580 C   0  0  0  0  0  3  0  0  0  0  0  0
  -20.6780  -26.7230   22.5000 C   0  0  0  0  0  2  0  0  0  0  0  0
  -19.5910  -26.3960   21.4710 C   0  0  0  0  0  2  0  0  0  0  0  0
  -18.2000  -26.5600   22.0900 C   0  0  0  0  0  2  0  0  0  0  0  0
  -19.1380  -28.6780   23.1850 C   0  0  0  0  0  0  0  0  0  0  0  0
  -18.9200  -29.9500   23.7560 C   0  0  0  0  0  3  0  0  0  0  0  0
  -17.6160  -30.4640   23.8920 C   0  0  0  0  0  3  0  0  0  0  0  0
  -16.5130  -29.7010   23.4700 C   0  0  0  0  0  3  0  0  0  0  0  0
  -16.7170  -28.4300   22.9020 C   0  0  0  0  0  3  0  0  0  0  0  0
  -25.8080  -32.3800   23.7700 C   0  0  0  0  0  3  0  0  0  0  0  0
  -25.4650  -33.7720   24.0910 N   0  0  0  0  0  0  0  0  0  0  0  0
  -25.8020  -34.8300   23.3420 C   0  0  0  0  0  0  0  0  0  0  0  0
  -26.5050  -34.7380   22.3320 O   0  0  0  0  0  0  0  0  0  0  0  0
  -24.8450  -33.9150   24.8750 H   0  0  0  0  0  0  0  0  0  0  0  0
  -24.0460  -36.5840   22.9410 C   0  0  0  0  0  1  0  0  0  0  0  0
  -25.2740  -36.2080   23.7840 C   0  0  0  0  0  3  0  0  0  0  0  0
  -27.3720  -37.1360   24.6620 C   0  0  0  0  0  1  0  0  0  0  0  0
  -26.2880  -37.2810   23.6940 N   0  0  0  0  0  0  0  0  0  0  0  0
  -25.8600  -38.1940   23.8300 H   0  0  0  0  0  0  0  0  0  0  0  0
  -26.3180  -31.6180   25.0540 C   0  0  1  0  0  0  0  0  0  0  0  0
  -25.2110  -31.3570   26.1020 C   0  0  0  0  0  1  0  0  0  0  0  0
  -26.9370  -30.2540   24.6690 C   0  0  0  0  0  1  0  0  0  0  0  0
  -27.4380  -32.4360   25.7370 C   0  0  0  0  0  1  0  0  0  0  0  0
  1  3  1  0
  2  1  1  0
  2  4  1  0
  3 53  1  0
  4  3  1  0
  4  5  1  0
  5  8  1  0
  5  6  1  0
  7  5  1  0
  9  8  1  0
  9 13  1  0
 11 10  1  0
 12 10  1  0
 13 11  1  0
 13 12  1  0
 14  9  1  0
 15 23  1  0
 16 21  1  0
 17 18  1  0
 17 16  1  0
 19 18  1  0
 19 28  1  0
 19 20  1  0
 21 15  1  0
 21 20  1  0
 22 15  2  0
 23 14  1  0
 23 24  1  0
 25 26  2  0
 26 27  1  0
 26 45  1  0
 27 30  1  0
 28 25  1  0
 28 29  1  0
 29 27  2  0
 30 31  1  0
 31 32  2  0
 33 36  1  0
 33 32  1  0
 34 33  2  0
 35 34  1  0
 35 30  2  0
 36 37  1  0
 37 38  1  0
 38 39  2  0
 40 39  1  0
 40 44  1  0
 41 40  2  0
 42 37  2  0
 42 41  1  0
 43 42  1  0
 45 46  1  0
 46 49  1  0
 46 48  1  0
 47 45  2  0
 50 51  1  0
 50 25  1  0
 52 50  1  0
 53 55  1  0
 53 54  1  0
 56 57  1  0
 56 55  1  0
 58 69  2  0
 59 57  1  0
 59 64  1  0
 60 68  1  0
 60 70  1  0
 61 63  1  0
 62 68  1  0
 63 64  2  0
 63 62  1  0
 65 59  2  0
 66 65  1  0
 66 61  2  0
 67 61  1  0
 67 60  1  0
 68 58  1  0
 70 72  2  0
 71 70  1  0
 73 71  1  0
 74 83  2  0
 74 79  1  0
 75 71  1  0
 75 79  1  0
 76 75  1  0
 77 78  1  0
 77 76  1  0
 78 74  1  0
 79 80  2  0
 80 81  1  0
 82 81  2  0
 83 82  1  0
 84 58  1  0
 84 85  1  0
 84 94  1  0
 85 88  1  0
 86 90  1  0
 86 85  1  0
 87 86  2  0
 90 89  1  0
 92 90  1  0
 92 93  1  0
 92 91  1  0
 94 97  1  1
 94 95  1  0
 96 94  1  0
M  ISO  4  15 100  23 100  56 101  57 101
M  END
>  <TORSDO>  (13) 
F 24

>  <SCORE>  (13) 
-8.318

>  <name>  (13) 
12

>  <ligand_id>  (13) 
12

>  <original_smiles>  (13) 
[H]c1c([H])c([H])c2c(c1[H])C([H])([H])C([H])([H])C([H])([H])C2([H])N([H])C(=O)C1([H])N(C(=O)C([H])(N([H])C(=O)C([H])(N([H])C([H])([H])[H])C([H])([H])[H])C(C([H])([H])[H])(C([H])([H])[H])C([H])([H])[H])C([H])([H])c2c([H])c(OC([H])([H])C([H])([H])N([H])C3([H])C([H])([H])C([H])([H])C3([H])[N+]([H])([H])C([H])([H])C([H])(N3C([H])([H])C([H])([H])C3([H])[H])C([H])([H])N([H])C(=O)N3C([H])([H])C([H])([H])C([H])([H])C([H])(n4nc(-c5c([H])c([H])c(Oc6c([H])c([H])c(F)c([H])c6F)c([H])c5[H])c(C(=O)N([H])[H])c4N([H])[H])C3([H])[H])c([H])c([H])c2C1([H])[H]

>  <smiles>  (13) 
[H]c1c([H])c([H])c2c(c1[H])C([H])([H])C([H])([H])C([H])([H])C2([H])N([H])C(=O)C1([H])N(C(=O)C([H])(N([H])C(=O)C([H])(N([H])C([H])([H])[H])C([H])([H])[H])C(C([H])([H])[H])(C([H])([H])[H])C([H])([H])[H])C([H])([H])c2c([H])c(OC([H])([H])C([H])([H])N([H])C3([H])C([H])([H])C([H])([H])C3([H])[N+]([H])([H])C([H])([H])C([H])(N3C([H])([H])C([H])([H])C3([H])[H])C([H])([H])N([H])C(=O)N3C([H])([H])C([H])([H])C([H])([H])C([H])(n4nc(-c5c([H])c([H])c(Oc6c([H])c([H])c(F)c([H])c6F)c([H])c5[H])c(C(=O)N([H])[H])c4N([H])[H])C3([H])[H])c([H])c([H])c2C1([H])[H]

$$$$
13:0:0
     RDKit          3D

 91100  0  0  1  0  0  0  0  0999 V2000
  -30.5630  -21.7580   20.0760 C   0  0  0  0  0  2  0  0  0  0  0  0
  -28.2550  -22.1700   19.9560 C   0  0  0  0  0  2  0  0  0  0  0  0
  -30.2490  -23.2510   20.4620 C   0  0  0  0  0  3  0  0  0  0  0  0
  -28.9230  -23.6220   19.7650 C   0  0  0  0  0  3  0  0  0  0  0  0
  -31.4090  -24.2130   20.1690 C   0  0  0  0  0  1  0  0  0  0  0  0
  -29.2870  -21.0430   19.7900 N   0  0  2  0  0  4  0  0  0  0  0  0
  -29.3020  -20.8590   18.7970 H   0  0  0  0  0  0  0  0  0  0  0  0
  -27.6120  -19.3530   20.7710 C   0  0  0  0  0  1  0  0  0  0  0  0
  -29.0950  -19.6430   20.4700 C   0  0  0  0  0  3  0  0  0  0  0  0
  -30.7400  -14.9210   19.8450 C   0  0  0  0  0  0  0  0  0  0  0  0
  -30.5480  -12.5950   18.9250 C   0  0  0  0  0  2  0  0  0  0  0  0
  -29.5220  -12.5600   17.7710 C   0  0  0  0  0  2  0  0  0  0  0  0
  -28.1020  -12.3350   18.3220 C   0  0  0  0  0  2  0  0  0  0  0  0
  -27.7730  -13.2610   19.5240 C   0  0  0  0  0  3  0  0  0  0  0  0
  -28.9140  -13.2860   20.5630 C   0  0  0  0  0  2  0  0  0  0  0  0
  -30.1390  -13.6760   19.8560 N   0  0  0  0  0  0  0  0  0  0  0  0
  -31.8950  -15.0180   19.4170 O   0  0  0  0  0  0  0  0  0  0  0  0
  -29.0900  -16.9330   19.4690 C   0  0  0  0  0  2  0  0  0  0  0  0
  -30.6260  -17.3200   20.8260 C   0  0  0  0  0  2  0  0  0  0  0  0
  -29.8110  -18.2740   19.8840 C   0  0  0  0  0  3  0  0  0  0  0  0
  -30.0400  -16.0690   20.2450 N   0  0  0  0  0  0  0  0  0  0  0  0
  -25.4680  -13.7870   20.5140 C   0  0  0  0  0  0  0  0  0  0  0  0
  -24.4430  -12.9870   20.9360 C   0  0  0  0  0  0  0  0  0  0  0  0
  -24.9010  -11.6420   20.7780 C   0  0  0  0  0  0  0  0  0  0  0  0
  -26.4840  -12.9310   20.1250 N   0  0  0  0  0  0  0  0  0  0  0  0
  -26.1560  -11.6320   20.3450 N   0  0  0  0  0  0  0  0  0  0  0  0
  -24.1930  -10.3670   20.9560 C   0  0  0  0  0  0  0  0  0  0  0  0
  -24.6400   -9.3950   21.8800 C   0  0  0  0  0  3  0  0  0  0  0  0
  -23.9300   -8.1870   22.0470 C   0  0  0  0  0  3  0  0  0  0  0  0
  -22.7590   -7.9400   21.2920 C   0  0  0  0  0  0  0  0  0  0  0  0
  -22.3320   -8.9000   20.3570 C   0  0  0  0  0  3  0  0  0  0  0  0
  -23.0430  -10.1010   20.1870 C   0  0  0  0  0  3  0  0  0  0  0  0
  -22.0210   -6.7840   21.3690 O   0  0  0  0  0  0  0  0  0  0  0  0
  -21.8840   -6.0950   22.5470 C   0  0  0  0  0  0  0  0  0  0  0  0
  -21.3020   -6.6820   23.6910 C   0  0  0  0  0  3  0  0  0  0  0  0
  -21.1190   -5.9160   24.8600 C   0  0  0  0  0  3  0  0  0  0  0  0
  -21.5070   -4.5630   24.8840 C   0  0  0  0  0  0  0  0  0  0  0  0
  -22.0800   -3.9740   23.7430 C   0  0  0  0  0  3  0  0  0  0  0  0
  -22.2660   -4.7380   22.5770 C   0  0  0  0  0  0  0  0  0  0  0  0
  -22.8000   -4.1610   21.4740 F   0  0  0  0  0  0  0  0  0  0  0  0
  -21.3230   -3.8240   26.0030 F   0  0  0  0  0  0  0  0  0  0  0  0
  -23.0780  -13.4400   21.3670 C   0  0  0  0  0  0  0  0  0  0  0  0
  -22.4330  -12.6860   22.2510 N   0  0  0  0  0  0  0  0  0  0  0  0
  -22.5960  -14.4940   20.9560 O   0  0  0  0  0  0  0  0  0  0  0  0
  -22.8380  -11.8310   22.6030 H   0  0  0  0  0  0  0  0  0  0  0  0
  -21.5200  -12.9690   22.5800 H   0  0  0  0  0  0  0  0  0  0  0  0
  -25.6110  -15.1660   20.4040 N   0  0  0  0  0  0  0  0  0  0  0  0
  -24.8510  -15.8040   20.6160 H   0  0  0  0  0  0  0  0  0  0  0  0
  -26.4180  -15.6270   20.0050 H   0  0  0  0  0  0  0  0  0  0  0  0
  -28.1240  -24.9750   20.2670 C   0  0  0  0  0  2  0  0  0  0  0  0
  -28.3750  -26.4170   19.8370 O   0  0  0  0  0  0  0  0  0  0  0  0
  -24.7040  -31.8500   23.0610 C   0  0  0  0  0  0  0  0  0  0  0  0
  -27.2920  -27.3380   19.8450 C   0  0  0  0  0  0  0  0  0  0  0  0
  -23.4910  -30.4910   21.3980 C   0  0  0  0  0  3  0  0  0  0  0  0
  -24.9330  -28.9930   19.9000 C   0  0  0  0  0  0  0  0  0  0  0  0
  -26.0300  -30.8200   21.1910 C   0  0  0  0  0  2  0  0  0  0  0  0
  -26.1120  -29.4560   20.5000 C   0  0  0  0  0  0  0  0  0  0  0  0
  -27.2970  -28.6440   20.4570 C   0  0  0  0  0  3  0  0  0  0  0  0
  -26.0930  -26.9620   19.2020 C   0  0  0  0  0  3  0  0  0  0  0  0
  -24.9310  -27.7580   19.2350 C   0  0  0  0  0  3  0  0  0  0  0  0
  -23.6930  -29.8620   19.9940 C   0  0  0  0  0  2  0  0  0  0  0  0
  -24.7620  -31.0710   21.9400 N   0  0  0  0  0  0  0  0  0  0  0  0
  -23.6260  -32.1010   23.6200 O   0  0  0  0  0  0  0  0  0  0  0  0
  -22.8470  -29.4400   22.3370 C   0  0  0  0  0  0  0  0  0  0  0  0
  -21.5190  -29.2650   22.2350 N   0  0  0  0  0  0  0  0  0  0  0  0
  -23.5460  -28.7880   23.1170 O   0  0  0  0  0  0  0  0  0  0  0  0
  -21.0120  -29.8430   21.5790 H   0  0  0  0  0  0  0  0  0  0  0  0
  -18.1500  -28.0800   22.8180 C   0  0  0  0  0  0  0  0  0  0  0  0
  -20.7200  -28.3010   22.9950 C   0  0  0  0  0  3  0  0  0  0  0  0
  -20.7790  -26.8970   22.3470 C   0  0  0  0  0  2  0  0  0  0  0  0
  -19.6370  -26.6400   21.3620 C   0  0  0  0  0  2  0  0  0  0  0  0
  -18.2820  -26.7680   22.0640 C   0  0  0  0  0  2  0  0  0  0  0  0
  -19.2940  -28.8080   23.2400 C   0  0  0  0  0  0  0  0  0  0  0  0
  -19.1130  -30.0400   23.9050 C   0  0  0  0  0  3  0  0  0  0  0  0
  -17.8220  -30.5450   24.1490 C   0  0  0  0  0  3  0  0  0  0  0  0
  -16.6940  -29.8130   23.7440 C   0  0  0  0  0  3  0  0  0  0  0  0
  -16.8580  -28.5830   23.0840 C   0  0  0  0  0  3  0  0  0  0  0  0
  -25.9890  -32.4800   23.6820 C   0  0  0  0  0  3  0  0  0  0  0  0
  -25.6690  -33.8650   24.0610 N   0  0  0  0  0  0  0  0  0  0  0  0
  -25.9580  -34.9430   23.3220 C   0  0  0  0  0  0  0  0  0  0  0  0
  -26.5890  -34.8790   22.2640 O   0  0  0  0  0  0  0  0  0  0  0  0
  -25.1050  -33.9880   24.8900 H   0  0  0  0  0  0  0  0  0  0  0  0
  -24.1890  -36.7160   23.0820 C   0  0  0  0  0  1  0  0  0  0  0  0
  -25.4660  -36.3120   23.8350 C   0  0  0  0  0  3  0  0  0  0  0  0
  -27.6130  -37.2140   24.6170 C   0  0  0  0  0  1  0  0  0  0  0  0
  -26.4780  -37.3850   23.7130 N   0  0  0  0  0  0  0  0  0  0  0  0
  -26.0610  -38.2940   23.8940 H   0  0  0  0  0  0  0  0  0  0  0  0
  -26.5290  -31.6780   24.9280 C   0  0  1  0  0  0  0  0  0  0  0  0
  -25.4520  -31.4000   26.0030 C   0  0  0  0  0  1  0  0  0  0  0  0
  -27.1190  -30.3170   24.4920 C   0  0  0  0  0  1  0  0  0  0  0  0
  -27.6800  -32.4650   25.5990 C   0  0  0  0  0  1  0  0  0  0  0  0
  1  3  1  0
  3  5  1  0
  4  2  1  0
  4 50  1  0
  4  3  1  0
  6  2  1  0
  6  1  1  0
  6  9  1  0
  6  7  1  6
  9  8  1  0
 10 16  1  0
 10 21  1  0
 11 16  1  0
 12 13  1  0
 12 11  1  0
 14 13  1  0
 14 25  1  0
 14 15  1  0
 16 15  1  0
 17 10  2  0
 18 20  1  0
 18 21  1  0
 20  9  1  0
 20 19  1  0
 21 19  1  0
 22 23  2  0
 23 42  1  0
 24 23  1  0
 24 27  1  0
 25 26  1  0
 25 22  1  0
 26 24  2  0
 27 28  1  0
 28 29  2  0
 30 33  1  0
 30 29  1  0
 31 30  2  0
 32 31  1  0
 32 27  2  0
 33 34  1  0
 34 39  2  0
 34 35  1  0
 35 36  2  0
 36 37  1  0
 37 41  1  0
 38 37  2  0
 39 38  1  0
 40 39  1  0
 42 43  1  0
 43 46  1  0
 43 45  1  0
 44 42  2  0
 47 22  1  0
 47 48  1  0
 49 47  1  0
 51 53  1  0
 51 50  1  0
 52 63  2  0
 53 58  1  0
 54 62  1  0
 54 64  1  0
 55 61  1  0
 55 57  1  0
 56 62  1  0
 57 56  1  0
 58 57  2  0
 59 60  1  0
 59 53  2  0
 60 55  2  0
 61 54  1  0
 62 52  1  0
 64 66  2  0
 65 64  1  0
 67 65  1  0
 68 77  2  0
 68 73  1  0
 69 65  1  0
 69 73  1  0
 70 69  1  0
 71 72  1  0
 71 70  1  0
 72 68  1  0
 73 74  2  0
 74 75  1  0
 76 75  2  0
 77 76  1  0
 78 52  1  0
 78 79  1  0
 78 88  1  0
 79 82  1  0
 80 84  1  0
 80 79  1  0
 81 80  2  0
 84 83  1  0
 86 84  1  0
 86 87  1  0
 86 85  1  0
 88 91  1  1
 88 89  1  0
 90 88  1  0
M  ISO  4  10 100  21 100  50 101  51 101
M  END
>  <TORSDO>  (14) 
F 18

>  <SCORE>  (14) 
-13.401

>  <name>  (14) 
13

>  <ligand_id>  (14) 
13

>  <original_smiles>  (14) 
[H]c1c([H])c([H])c2c(c1[H])C([H])([H])C([H])([H])C([H])([H])C2([H])N([H])C(=O)C1([H])N(C(=O)C([H])(N([H])C(=O)C([H])(N([H])C([H])([H])[H])C([H])([H])[H])C(C([H])([H])[H])(C([H])([H])[H])C([H])([H])[H])C([H])([H])c2c([H])c(OC([H])([H])C3([H])C([H])(C([H])([H])[H])C([H])([H])[N+]([H])(C([H])(C([H])([H])[H])C4([H])C([H])([H])N(C(=O)N5C([H])([H])C([H])([H])C([H])([H])C([H])(n6nc(-c7c([H])c([H])c(Oc8c([H])c([H])c(F)c([H])c8F)c([H])c7[H])c(C(=O)N([H])[H])c6N([H])[H])C5([H])[H])C4([H])[H])C3([H])[H])c([H])c([H])c2C1([H])[H]

>  <smiles>  (14) 
[H]c1c([H])c([H])c2c(c1[H])C([H])([H])C([H])([H])C([H])([H])C2([H])N([H])C(=O)C1([H])N(C(=O)C([H])(N([H])C(=O)C([H])(N([H])C([H])([H])[H])C([H])([H])[H])C(C([H])([H])[H])(C([H])([H])[H])C([H])([H])[H])C([H])([H])c2c([H])c(OC([H])([H])C3([H])C([H])(C([H])([H])[H])C([H])([H])[N+]([H])(C([H])(C([H])([H])[H])C4([H])C([H])([H])N(C(=O)N5C([H])([H])C([H])([H])C([H])([H])C([H])(n6nc(-c7c([H])c([H])c(Oc8c([H])c([H])c(F)c([H])c8F)c([H])c7[H])c(C(=O)N([H])[H])c6N([H])[H])C5([H])[H])C4([H])[H])C3([H])[H])c([H])c([H])c2C1([H])[H]

$$$$
14:0:0
     RDKit          3D

 95104  0  0  1  0  0  0  0  0999 V2000
  -28.2270  -20.6390   19.7110 C   0  0  0  0  0  2  0  0  0  0  0  0
  -29.9780  -21.8010   21.3700 C   0  0  0  0  0  2  0  0  0  0  0  0
  -29.2270  -20.7770   22.1700 C   0  0  0  0  0  2  0  0  0  0  0  0
  -29.4160  -20.5550   20.6810 C   0  0  1  0  0  0  0  0  0  0  0  0
  -32.6150  -19.0570   19.3240 C   0  0  0  0  0  3  0  0  0  0  0  0
  -31.6310  -19.9930   19.6640 C   0  0  0  0  0  3  0  0  0  0  0  0
  -32.3400  -17.6960   19.5250 C   0  0  0  0  0  3  0  0  0  0  0  0
  -30.4290  -19.5370   20.2190 C   0  0  0  0  0  0  0  0  0  0  0  0
  -31.0810  -17.2830   20.0150 C   0  0  0  0  0  0  0  0  0  0  0  0
  -30.1500  -18.2130   20.3670 N   0  0  0  0  0  0  0  0  0  0  0  0
  -31.5040  -14.8180   19.7510 C   0  0  0  0  0  0  0  0  0  0  0  0
  -31.1850  -12.4880   18.9900 C   0  0  0  0  0  2  0  0  0  0  0  0
  -30.2280  -12.5070   17.7800 C   0  0  0  0  0  2  0  0  0  0  0  0
  -28.7540  -12.4850   18.2370 C   0  0  0  0  0  2  0  0  0  0  0  0
  -28.4570  -13.5130   19.3670 C   0  0  0  0  0  3  0  0  0  0  0  0
  -29.5240  -13.4370   20.4800 C   0  0  0  0  0  2  0  0  0  0  0  0
  -30.8380  -13.6330   19.8480 N   0  0  0  0  0  0  0  0  0  0  0  0
  -32.6000  -14.8970   19.1870 O   0  0  0  0  0  0  0  0  0  0  0  0
  -30.8140  -15.8940   20.2030 N   0  0  0  0  0  0  0  0  0  0  0  0
  -29.9020  -15.6760   20.5710 H   0  0  0  0  0  0  0  0  0  0  0  0
  -26.1580  -14.3100   20.1850 C   0  0  0  0  0  0  0  0  0  0  0  0
  -25.0460  -13.6280   20.6000 C   0  0  0  0  0  0  0  0  0  0  0  0
  -25.3880  -12.2410   20.5390 C   0  0  0  0  0  0  0  0  0  0  0  0
  -27.1110  -13.3470   19.9030 N   0  0  0  0  0  0  0  0  0  0  0  0
  -26.6540  -12.0970   20.1700 N   0  0  0  0  0  0  0  0  0  0  0  0
  -24.5660  -11.0460   20.7550 C   0  0  0  0  0  0  0  0  0  0  0  0
  -24.9140  -10.0780   21.7230 C   0  0  0  0  0  3  0  0  0  0  0  0
  -24.0990   -8.9430   21.9280 C   0  0  0  0  0  3  0  0  0  0  0  0
  -22.9250   -8.7670   21.1580 C   0  0  0  0  0  0  0  0  0  0  0  0
  -22.5970   -9.7200   20.1780 C   0  0  0  0  0  3  0  0  0  0  0  0
  -23.4110  -10.8470   19.9730 C   0  0  0  0  0  3  0  0  0  0  0  0
  -22.0850   -7.6850   21.2690 O   0  0  0  0  0  0  0  0  0  0  0  0
  -21.8950   -7.0410   22.4660 C   0  0  0  0  0  0  0  0  0  0  0  0
  -21.4000   -7.7140   23.6030 C   0  0  0  0  0  3  0  0  0  0  0  0
  -21.1520   -6.9970   24.7930 C   0  0  0  0  0  3  0  0  0  0  0  0
  -21.3920   -5.6100   24.8410 C   0  0  0  0  0  0  0  0  0  0  0  0
  -21.8790   -4.9380   23.7070 C   0  0  0  0  0  3  0  0  0  0  0  0
  -22.1280   -5.6530   22.5220 C   0  0  0  0  0  0  0  0  0  0  0  0
  -22.5760   -4.9950   21.4260 F   0  0  0  0  0  0  0  0  0  0  0  0
  -21.1480   -4.9200   25.9800 F   0  0  0  0  0  0  0  0  0  0  0  0
  -23.7130  -14.2180   20.9460 C   0  0  0  0  0  0  0  0  0  0  0  0
  -22.9780  -13.5850   21.8540 N   0  0  0  0  0  0  0  0  0  0  0  0
  -23.3340  -15.2790   20.4490 O   0  0  0  0  0  0  0  0  0  0  0  0
  -23.2960  -12.7290   22.2850 H   0  0  0  0  0  0  0  0  0  0  0  0
  -22.0850  -13.9690   22.1250 H   0  0  0  0  0  0  0  0  0  0  0  0
  -26.4260  -15.6640   20.0110 N   0  0  0  0  0  0  0  0  0  0  0  0
  -25.7310  -16.3840   20.1800 H   0  0  0  0  0  0  0  0  0  0  0  0
  -27.3060  -16.0430   19.6830 H   0  0  0  0  0  0  0  0  0  0  0  0
  -27.3640  -21.9240   19.7900 C   0  0  0  0  0  2  0  0  0  0  0  0
  -28.0790  -23.0950   19.2210 N   0  0  0  0  0  4  0  0  0  0  0  0
  -27.9040  -23.0880   18.2260 H   0  0  0  0  0  0  0  0  0  0  0  0
  -29.0700  -22.9640   19.3430 H   0  0  0  0  0  0  0  0  0  0  0  0
  -27.7200  -24.4380   19.7580 C   0  0  0  0  0  2  0  0  0  0  0  0
  -28.0900  -25.5520   18.7420 C   0  0  0  0  0  2  0  0  0  0  0  0
  -28.1080  -26.8950   19.2580 O   0  0  0  0  0  0  0  0  0  0  0  0
  -24.5460  -31.6970   23.0910 C   0  0  0  0  0  0  0  0  0  0  0  0
  -26.9320  -27.6060   19.3790 C   0  0  0  0  0  0  0  0  0  0  0  0
  -23.2190  -30.4770   21.3990 C   0  0  0  0  0  3  0  0  0  0  0  0
  -24.5560  -29.1130   19.7170 C   0  0  0  0  0  0  0  0  0  0  0  0
  -25.7270  -30.8630   21.0610 C   0  0  0  0  0  2  0  0  0  0  0  0
  -25.7560  -29.5710   20.2700 C   0  0  0  0  0  0  0  0  0  0  0  0
  -26.9470  -28.8280   20.0950 C   0  0  0  0  0  3  0  0  0  0  0  0
  -25.7050  -27.1650   18.8270 C   0  0  0  0  0  3  0  0  0  0  0  0
  -24.5240  -27.9110   18.9920 C   0  0  0  0  0  3  0  0  0  0  0  0
  -23.3220  -29.9590   19.9420 C   0  0  0  0  0  2  0  0  0  0  0  0
  -24.5200  -31.0200   21.9090 N   0  0  0  0  0  0  0  0  0  0  0  0
  -23.5060  -31.9030   23.7340 O   0  0  0  0  0  0  0  0  0  0  0  0
  -22.6400  -29.3510   22.2850 C   0  0  0  0  0  0  0  0  0  0  0  0
  -21.3200  -29.1320   22.1830 N   0  0  0  0  0  0  0  0  0  0  0  0
  -23.3730  -28.6820   23.0190 O   0  0  0  0  0  0  0  0  0  0  0  0
  -20.7910  -29.7250   21.5600 H   0  0  0  0  0  0  0  0  0  0  0  0
  -18.0220  -27.7230   22.6170 C   0  0  0  0  0  0  0  0  0  0  0  0
  -20.5630  -28.1050   22.8960 C   0  0  0  0  0  3  0  0  0  0  0  0
  -20.7410  -26.7230   22.2290 C   0  0  0  0  0  2  0  0  0  0  0  0
  -19.6510  -26.4030   21.2010 C   0  0  0  0  0  2  0  0  0  0  0  0
  -18.2680  -26.4300   21.8550 C   0  0  0  0  0  2  0  0  0  0  0  0
  -19.1000  -28.5170   23.0900 C   0  0  0  0  0  0  0  0  0  0  0  0
  -18.8180  -29.7250   23.7620 C   0  0  0  0  0  3  0  0  0  0  0  0
  -17.4910  -30.1440   23.9650 C   0  0  0  0  0  3  0  0  0  0  0  0
  -16.4260  -29.3480   23.5090 C   0  0  0  0  0  3  0  0  0  0  0  0
  -16.6920  -28.1400   22.8410 C   0  0  0  0  0  3  0  0  0  0  0  0
  -25.8750  -32.2680   23.6790 C   0  0  0  0  0  3  0  0  0  0  0  0
  -25.6000  -33.6360   24.1440 N   0  0  0  0  0  0  0  0  0  0  0  0
  -25.9070  -34.7480   23.4630 C   0  0  0  0  0  0  0  0  0  0  0  0
  -26.5260  -34.7290   22.3960 O   0  0  0  0  0  0  0  0  0  0  0  0
  -25.0550  -33.7260   24.9880 H   0  0  0  0  0  0  0  0  0  0  0  0
  -24.1800  -36.5740   23.3540 C   0  0  0  0  0  1  0  0  0  0  0  0
  -25.4570  -36.0940   24.0630 C   0  0  0  0  0  3  0  0  0  0  0  0
  -27.6390  -36.8880   24.8600 C   0  0  0  0  0  1  0  0  0  0  0  0
  -26.4950  -37.1480   23.9900 N   0  0  0  0  0  0  0  0  0  0  0  0
  -26.1060  -38.0560   24.2350 H   0  0  0  0  0  0  0  0  0  0  0  0
  -26.4640  -31.3930   24.8530 C   0  0  1  0  0  0  0  0  0  0  0  0
  -25.4410  -31.0770   25.9670 C   0  0  0  0  0  1  0  0  0  0  0  0
  -27.0060  -30.0480   24.3140 C   0  0  0  0  0  1  0  0  0  0  0  0
  -27.6610  -32.1270   25.5040 C   0  0  0  0  0  1  0  0  0  0  0  0
  1 49  1  0
  4  1  1  6
  2  3  1  0
  4  2  1  0
  4  3  1  0
  5  7  2  0
  5  6  1  0
  6  8  2  0
  7  9  1  0
  8 10  1  0
  8  4  1  0
  9 19  1  0
  9 10  2  0
 11 17  1  0
 11 19  1  0
 12 17  1  0
 13 14  1  0
 13 12  1  0
 15 14  1  0
 15 24  1  0
 15 16  1  0
 17 16  1  0
 18 11  2  0
 19 20  1  0
 21 22  2  0
 22 41  1  0
 23 22  1  0
 23 26  1  0
 24 25  1  0
 24 21  1  0
 25 23  2  0
 26 27  1  0
 27 28  2  0
 29 32  1  0
 29 28  1  0
 30 29  2  0
 31 30  1  0
 31 26  2  0
 32 33  1  0
 33 38  2  0
 33 34  1  0
 34 35  2  0
 35 36  1  0
 36 40  1  0
 37 36  2  0
 38 37  1  0
 39 38  1  0
 41 42  1  0
 42 45  1  0
 42 44  1  0
 43 41  2  0
 46 47  1  0
 46 21  1  0
 48 46  1  0
 50 52  1  0
 50 53  1  0
 50 49  1  0
 51 50  1  0
 54 55  1  0
 54 53  1  0
 55 57  1  0
 56 67  2  0
 57 62  1  0
 58 66  1  0
 58 68  1  0
 59 65  1  0
 59 61  1  0
 60 66  1  0
 61 60  1  0
 62 61  2  0
 63 64  1  0
 63 57  2  0
 64 59  2  0
 65 58  1  0
 66 56  1  0
 68 70  2  0
 69 68  1  0
 71 69  1  0
 72 81  2  0
 72 77  1  0
 73 69  1  0
 73 77  1  0
 74 73  1  0
 75 76  1  0
 75 74  1  0
 76 72  1  0
 77 78  2  0
 78 79  1  0
 80 79  2  0
 81 80  1  0
 82 56  1  0
 82 83  1  0
 82 92  1  0
 83 86  1  0
 84 88  1  0
 84 83  1  0
 85 84  2  0
 88 87  1  0
 90 88  1  0
 90 91  1  0
 90 89  1  0
 92 95  1  1
 92 93  1  0
 94 92  1  0
M  ISO  4  11 100  19 100  54 101  55 101
M  END
>  <TORSDO>  (15) 
F 22

>  <SCORE>  (15) 
-11.280

>  <name>  (15) 
14

>  <ligand_id>  (15) 
14

>  <original_smiles>  (15) 
[H]c1c(N([H])C(=O)N2C([H])([H])C([H])([H])C([H])([H])C([H])(n3nc(-c4c([H])c([H])c(Oc5c([H])c([H])c(F)c([H])c5F)c([H])c4[H])c(C(=O)N([H])[H])c3N([H])[H])C2([H])[H])nc(C2(C([H])([H])C([H])([H])[N+]([H])([H])C([H])([H])C([H])([H])Oc3c([H])c([H])c4c(c3[H])C([H])([H])N(C(=O)C([H])(N([H])C(=O)C([H])(N([H])C([H])([H])[H])C([H])([H])[H])C(C([H])([H])[H])(C([H])([H])[H])C([H])([H])[H])C([H])(C(=O)N([H])C3([H])c5c([H])c([H])c([H])c([H])c5C([H])([H])C([H])([H])C3([H])[H])C4([H])[H])C([H])([H])C2([H])[H])c([H])c1[H]

>  <smiles>  (15) 
[H]c1c(N([H])C(=O)N2C([H])([H])C([H])([H])C([H])([H])C([H])(n3nc(-c4c([H])c([H])c(Oc5c([H])c([H])c(F)c([H])c5F)c([H])c4[H])c(C(=O)N([H])[H])c3N([H])[H])C2([H])[H])nc(C2(C([H])([H])C([H])([H])[N+]([H])([H])C([H])([H])C([H])([H])Oc3c([H])c([H])c4c(c3[H])C([H])([H])N(C(=O)C([H])(N([H])C(=O)C([H])(N([H])C([H])([H])[H])C([H])([H])[H])C(C([H])([H])[H])(C([H])([H])[H])C([H])([H])[H])C([H])(C(=O)N([H])C3([H])c5c([H])c([H])c([H])c([H])c5C([H])([H])C([H])([H])C3([H])[H])C4([H])[H])C([H])([H])C2([H])[H])c([H])c1[H]

$$$$
15:0:0
     RDKit          3D

 93102  0  0  1  0  0  0  0  0999 V2000
  -31.0180  -23.0550   20.5030 C   0  0  0  0  0  0  0  0  0  0  0  0
  -28.9400  -23.8250   20.2830 C   0  0  0  0  0  0  0  0  0  0  0  0
  -29.3520  -21.5890   20.4250 C   0  0  0  0  0  0  0  0  0  0  0  0
  -32.5040  -23.3250   20.6110 C   0  0  0  0  0  1  0  0  0  0  0  0
  -30.2310  -24.1250   20.3850 N   0  0  0  0  0  4  0  0  0  0  0  0
  -30.6560  -21.7720   20.5240 N   0  0  0  0  0  0  0  0  0  0  0  0
  -28.4430  -22.5640   20.3050 N   0  0  0  0  0  2  0  0  0  0  0  0
  -28.8800  -20.2600   20.4480 N   0  0  0  0  0  0  0  0  0  0  0  0
  -27.8720  -20.1940   20.3810 H   0  0  0  0  0  0  0  0  0  0  0  0
  -30.6420  -14.6350   20.3150 C   0  0  0  0  0  0  0  0  0  0  0  0
  -30.3370  -12.4020   19.2820 C   0  0  0  0  0  2  0  0  0  0  0  0
  -29.3870  -12.5220   18.0740 C   0  0  0  0  0  2  0  0  0  0  0  0
  -27.9230  -12.3690   18.5270 C   0  0  0  0  0  2  0  0  0  0  0  0
  -27.5780  -13.2460   19.7620 C   0  0  0  0  0  3  0  0  0  0  0  0
  -28.6570  -13.1490   20.8630 C   0  0  0  0  0  2  0  0  0  0  0  0
  -29.9500  -13.4550   20.2420 N   0  0  0  0  0  0  0  0  0  0  0  0
  -31.8320  -14.6810   19.9850 O   0  0  0  0  0  0  0  0  0  0  0  0
  -28.9750  -17.9650   19.3470 C   0  0  0  0  0  2  0  0  0  0  0  0
  -29.6930  -18.1400   21.6600 C   0  0  0  0  0  2  0  0  0  0  0  0
  -29.7300  -16.5970   19.2190 C   0  0  0  0  0  2  0  0  0  0  0  0
  -30.4370  -16.7600   21.5240 C   0  0  0  0  0  2  0  0  0  0  0  0
  -29.6220  -18.9600   20.3440 C   0  0  0  0  0  3  0  0  0  0  0  0
  -29.9490  -15.8230   20.4740 N   0  0  0  0  0  0  0  0  0  0  0  0
  -25.2040  -13.8300   20.5420 C   0  0  0  0  0  0  0  0  0  0  0  0
  -24.1420  -13.0510   20.9150 C   0  0  0  0  0  0  0  0  0  0  0  0
  -24.6030  -11.7000   20.8560 C   0  0  0  0  0  0  0  0  0  0  0  0
  -26.2430  -12.9530   20.2740 N   0  0  0  0  0  0  0  0  0  0  0  0
  -25.8890  -11.6660   20.5270 N   0  0  0  0  0  0  0  0  0  0  0  0
  -23.8770  -10.4360   21.0410 C   0  0  0  0  0  0  0  0  0  0  0  0
  -24.3060   -9.4660   21.9740 C   0  0  0  0  0  3  0  0  0  0  0  0
  -23.5800   -8.2680   22.1460 C   0  0  0  0  0  3  0  0  0  0  0  0
  -22.4120   -8.0290   21.3850 C   0  0  0  0  0  0  0  0  0  0  0  0
  -22.0020   -8.9880   20.4410 C   0  0  0  0  0  3  0  0  0  0  0  0
  -22.7280  -10.1780   20.2670 C   0  0  0  0  0  3  0  0  0  0  0  0
  -21.6570   -6.8840   21.4660 O   0  0  0  0  0  0  0  0  0  0  0  0
  -21.5790   -6.1550   22.6260 C   0  0  0  0  0  0  0  0  0  0  0  0
  -21.1020   -6.7170   23.8290 C   0  0  0  0  0  3  0  0  0  0  0  0
  -20.9720   -5.9150   24.9790 C   0  0  0  0  0  3  0  0  0  0  0  0
  -21.3080   -4.5480   24.9270 C   0  0  0  0  0  0  0  0  0  0  0  0
  -21.7780   -3.9850   23.7280 C   0  0  0  0  0  3  0  0  0  0  0  0
  -21.9100   -4.7850   22.5800 C   0  0  0  0  0  0  0  0  0  0  0  0
  -22.3430   -4.2320   21.4220 F   0  0  0  0  0  0  0  0  0  0  0  0
  -21.1760   -3.7740   26.0290 F   0  0  0  0  0  0  0  0  0  0  0  0
  -22.7510  -13.5260   21.2170 C   0  0  0  0  0  0  0  0  0  0  0  0
  -22.0390  -12.8240   22.0900 N   0  0  0  0  0  0  0  0  0  0  0  0
  -22.3040  -14.5550   20.7120 O   0  0  0  0  0  0  0  0  0  0  0  0
  -22.4140  -11.9930   22.5220 H   0  0  0  0  0  0  0  0  0  0  0  0
  -21.1050  -13.1250   22.3340 H   0  0  0  0  0  0  0  0  0  0  0  0
  -25.3690  -15.2020   20.3830 N   0  0  0  0  0  0  0  0  0  0  0  0
  -24.6110  -15.8610   20.5260 H   0  0  0  0  0  0  0  0  0  0  0  0
  -26.2280  -15.6450   20.0820 H   0  0  0  0  0  0  0  0  0  0  0  0
  -27.9300  -24.9960   20.0220 C   0  0  0  0  0  2  0  0  0  0  0  0
  -28.2590  -26.4290   20.2580 O   0  0  0  0  0  0  0  0  0  0  0  0
  -24.6090  -31.8880   23.2810 C   0  0  0  0  0  0  0  0  0  0  0  0
  -27.1710  -27.3200   20.1930 C   0  0  0  0  0  0  0  0  0  0  0  0
  -23.3930  -30.5140   21.6320 C   0  0  0  0  0  3  0  0  0  0  0  0
  -24.8290  -28.9700   20.1950 C   0  0  0  0  0  0  0  0  0  0  0  0
  -25.9380  -30.8050   21.4580 C   0  0  0  0  0  2  0  0  0  0  0  0
  -26.0040  -29.4330   20.7980 C   0  0  0  0  0  0  0  0  0  0  0  0
  -27.1790  -28.6200   20.7900 C   0  0  0  0  0  3  0  0  0  0  0  0
  -25.9680  -26.9260   19.5540 C   0  0  0  0  0  3  0  0  0  0  0  0
  -24.8130  -27.7200   19.5650 C   0  0  0  0  0  3  0  0  0  0  0  0
  -23.6020  -29.8540   20.2470 C   0  0  0  0  0  2  0  0  0  0  0  0
  -24.6660  -31.0850   22.1800 N   0  0  0  0  0  0  0  0  0  0  0  0
  -23.5270  -32.1730   23.8160 O   0  0  0  0  0  0  0  0  0  0  0  0
  -22.7210  -29.4920   22.5820 C   0  0  0  0  0  0  0  0  0  0  0  0
  -21.3950  -29.3210   22.4470 N   0  0  0  0  0  0  0  0  0  0  0  0
  -23.3920  -28.8580   23.4010 O   0  0  0  0  0  0  0  0  0  0  0  0
  -20.9150  -29.8830   21.7590 H   0  0  0  0  0  0  0  0  0  0  0  0
  -18.0060  -28.1530   22.9320 C   0  0  0  0  0  0  0  0  0  0  0  0
  -20.5650  -28.3870   23.2110 C   0  0  0  0  0  3  0  0  0  0  0  0
  -20.6560  -26.9570   22.6300 C   0  0  0  0  0  2  0  0  0  0  0  0
  -19.5540  -26.6490   21.6110 C   0  0  0  0  0  2  0  0  0  0  0  0
  -18.1720  -26.8040   22.2510 C   0  0  0  0  0  2  0  0  0  0  0  0
  -19.1300  -28.9030   23.3680 C   0  0  0  0  0  0  0  0  0  0  0  0
  -18.9210  -30.1650   23.9650 C   0  0  0  0  0  3  0  0  0  0  0  0
  -17.6190  -30.6770   24.1300 C   0  0  0  0  0  3  0  0  0  0  0  0
  -16.5090  -29.9240   23.7090 C   0  0  0  0  0  3  0  0  0  0  0  0
  -16.7040  -28.6640   23.1160 C   0  0  0  0  0  3  0  0  0  0  0  0
  -25.8970  -32.5030   23.9070 C   0  0  0  0  0  3  0  0  0  0  0  0
  -25.6000  -33.9050   24.2400 N   0  0  0  0  0  0  0  0  0  0  0  0
  -25.9170  -34.9530   23.4690 C   0  0  0  0  0  0  0  0  0  0  0  0
  -26.5590  -34.8440   22.4200 O   0  0  0  0  0  0  0  0  0  0  0  0
  -25.0280  -34.0640   25.0550 H   0  0  0  0  0  0  0  0  0  0  0  0
  -24.1720  -36.7410   23.1700 C   0  0  0  0  0  1  0  0  0  0  0  0
  -25.4450  -36.3450   23.9340 C   0  0  0  0  0  3  0  0  0  0  0  0
  -27.6100  -37.2380   24.6710 C   0  0  0  0  0  1  0  0  0  0  0  0
  -26.4700  -37.3990   23.7720 N   0  0  0  0  0  0  0  0  0  0  0  0
  -26.0690  -38.3190   23.9310 H   0  0  0  0  0  0  0  0  0  0  0  0
  -26.4000  -31.7250   25.1830 C   0  0  1  0  0  0  0  0  0  0  0  0
  -25.3010  -31.4970   26.2470 C   0  0  0  0  0  1  0  0  0  0  0  0
  -26.9710  -30.3400   24.7940 C   0  0  0  0  0  1  0  0  0  0  0  0
  -27.5560  -32.5060   25.8510 C   0  0  0  0  0  1  0  0  0  0  0  0
  1  6  1  0
  1  4  1  0
  2  7  1  0
  2  5  2  0
  3  8  1  0
  3  6  2  0
  5  1  2  0
  7  3  1  0
  9  8  1  0
 10 23  1  0
 11 16  1  0
 12 13  1  0
 12 11  1  0
 14 13  1  0
 14 27  1  0
 14 15  1  0
 16 10  1  0
 16 15  1  0
 17 10  2  0
 18 22  1  0
 20 18  1  0
 20 23  1  0
 21 19  1  0
 22  8  1  0
 22 19  1  0
 23 21  1  0
 24 25  2  0
 25 44  1  0
 26 25  1  0
 26 29  1  0
 27 28  1  0
 27 24  1  0
 28 26  2  0
 29 30  1  0
 30 31  2  0
 32 35  1  0
 32 31  1  0
 33 32  2  0
 34 33  1  0
 34 29  2  0
 35 36  1  0
 36 37  1  0
 37 38  2  0
 39 38  1  0
 39 43  1  0
 40 39  2  0
 41 36  2  0
 41 40  1  0
 42 41  1  0
 44 45  1  0
 45 48  1  0
 45 47  1  0
 46 44  2  0
 49 50  1  0
 49 24  1  0
 51 49  1  0
 52 53  1  0
 52  2  1  0
 54 65  2  0
 55 53  1  0
 55 60  1  0
 56 64  1  0
 56 66  1  0
 57 63  1  0
 57 59  1  0
 58 64  1  0
 59 58  1  0
 60 59  2  0
 61 62  1  0
 61 55  2  0
 62 57  2  0
 63 56  1  0
 64 54  1  0
 66 68  2  0
 67 66  1  0
 69 67  1  0
 70 79  2  0
 70 75  1  0
 71 67  1  0
 71 75  1  0
 72 71  1  0
 73 74  1  0
 73 72  1  0
 74 70  1  0
 75 76  2  0
 76 77  1  0
 78 77  2  0
 79 78  1  0
 80 54  1  0
 80 81  1  0
 80 90  1  0
 81 84  1  0
 82 86  1  0
 82 81  1  0
 83 82  2  0
 86 85  1  0
 88 89  1  0
 88 86  1  0
 88 87  1  0
 90 93  1  1
 90 91  1  0
 92 90  1  0
M  ISO  4  10 100  23 100  52 101  53 101
M  END
>  <TORSDO>  (16) 
F 17

>  <SCORE>  (16) 
-14.637

>  <name>  (16) 
15

>  <ligand_id>  (16) 
15

>  <original_smiles>  (16) 
[H]c1c([H])c([H])c2c(c1[H])C([H])([H])C([H])([H])C([H])([H])C2([H])N([H])C(=O)C1([H])N(C(=O)C([H])(N([H])C(=O)C([H])(N([H])C([H])([H])[H])C([H])([H])[H])C(C([H])([H])[H])(C([H])([H])[H])C([H])([H])[H])C([H])([H])c2c([H])c(OC([H])([H])c3nc(N([H])C4([H])C([H])([H])C([H])([H])N(C(=O)N5C([H])([H])C([H])([H])C([H])([H])C([H])(n6nc(-c7c([H])c([H])c(Oc8c([H])c([H])c(F)c([H])c8F)c([H])c7[H])c(C(=O)N([H])[H])c6N([H])[H])C5([H])[H])C([H])([H])C4([H])[H])nc(C([H])([H])[H])n3)c([H])c([H])c2C1([H])[H]

>  <smiles>  (16) 
[H]c1c([H])c([H])c2c(c1[H])C([H])([H])C([H])([H])C([H])([H])C2([H])N([H])C(=O)C1([H])N(C(=O)C([H])(N([H])C(=O)C([H])(N([H])C([H])([H])[H])C([H])([H])[H])C(C([H])([H])[H])(C([H])([H])[H])C([H])([H])[H])C([H])([H])c2c([H])c(OC([H])([H])c3nc(N([H])C4([H])C([H])([H])C([H])([H])N(C(=O)N5C([H])([H])C([H])([H])C([H])([H])C([H])(n6nc(-c7c([H])c([H])c(Oc8c([H])c([H])c(F)c([H])c8F)c([H])c7[H])c(C(=O)N([H])[H])c6N([H])[H])C5([H])[H])C([H])([H])C4([H])[H])nc(C([H])([H])[H])n3)c([H])c([H])c2C1([H])[H]

$$$$
16:0:0
     RDKit          3D

 92101  0  0  1  0  0  0  0  0999 V2000
  -29.2320  -23.7210   18.7270 C   0  0  0  0  0  3  0  0  0  0  0  0
  -29.7170  -22.5420   18.1380 C   0  0  0  0  0  0  0  0  0  0  0  0
  -28.8100  -23.6710   20.0620 C   0  0  0  0  0  0  0  0  0  0  0  0
  -29.3960  -21.3330   20.0690 C   0  0  0  0  0  0  0  0  0  0  0  0
  -30.1890  -22.5310   16.6990 C   0  0  0  0  0  1  0  0  0  0  0  0
  -29.7820  -21.3670   18.8030 N   0  0  0  0  0  0  0  0  0  0  0  0
  -28.9210  -22.4400   20.7190 N   0  0  0  0  0  0  0  0  0  0  0  0
  -29.5620  -20.0640   20.7290 N   0  0  0  0  0  0  0  0  0  0  0  0
  -29.3320  -20.1030   21.7150 H   0  0  0  0  0  0  0  0  0  0  0  0
  -30.6130  -14.8630   20.3280 C   0  0  0  0  0  0  0  0  0  0  0  0
  -30.3930  -12.5620   19.3270 C   0  0  0  0  0  2  0  0  0  0  0  0
  -29.4370  -12.5470   18.1140 C   0  0  0  0  0  2  0  0  0  0  0  0
  -27.9850  -12.3210   18.5730 C   0  0  0  0  0  2  0  0  0  0  0  0
  -27.5950  -13.2400   19.7560 C   0  0  0  0  0  3  0  0  0  0  0  0
  -28.6760  -13.2420   20.8660 C   0  0  0  0  0  2  0  0  0  0  0  0
  -29.9420  -13.6480   20.2370 N   0  0  0  0  0  0  0  0  0  0  0  0
  -31.8250  -14.8640   20.0890 O   0  0  0  0  0  0  0  0  0  0  0  0
  -28.2610  -17.9160   20.3820 C   0  0  0  0  0  2  0  0  0  0  0  0
  -28.5460  -16.4040   20.2040 C   0  0  0  0  0  2  0  0  0  0  0  0
  -30.5610  -17.4950   20.6680 C   0  0  0  0  0  2  0  0  0  0  0  0
  -29.5730  -18.6520   20.1430 C   0  0  0  0  0  3  0  0  0  0  0  0
  -29.9500  -16.1020   20.5090 N   0  0  0  0  0  0  0  0  0  0  0  0
  -25.2200  -13.8420   20.5110 C   0  0  0  0  0  0  0  0  0  0  0  0
  -24.1600  -13.0690   20.8950 C   0  0  0  0  0  0  0  0  0  0  0  0
  -24.6250  -11.7190   20.8630 C   0  0  0  0  0  0  0  0  0  0  0  0
  -26.2630  -12.9600   20.2720 N   0  0  0  0  0  0  0  0  0  0  0  0
  -25.9150  -11.6800   20.5480 N   0  0  0  0  0  0  0  0  0  0  0  0
  -23.9040  -10.4580   21.0540 C   0  0  0  0  0  0  0  0  0  0  0  0
  -24.3480   -9.4880   21.9790 C   0  0  0  0  0  3  0  0  0  0  0  0
  -23.6250   -8.2900   22.1590 C   0  0  0  0  0  3  0  0  0  0  0  0
  -22.4450   -8.0550   21.4150 C   0  0  0  0  0  0  0  0  0  0  0  0
  -22.0210   -9.0140   20.4780 C   0  0  0  0  0  3  0  0  0  0  0  0
  -22.7440  -10.2030   20.2960 C   0  0  0  0  0  3  0  0  0  0  0  0
  -21.6920   -6.9100   21.5060 O   0  0  0  0  0  0  0  0  0  0  0  0
  -21.6600   -6.1610   22.6550 C   0  0  0  0  0  0  0  0  0  0  0  0
  -21.2530   -6.7090   23.8910 C   0  0  0  0  0  3  0  0  0  0  0  0
  -21.1670   -5.8850   25.0310 C   0  0  0  0  0  3  0  0  0  0  0  0
  -21.4810   -4.5170   24.9370 C   0  0  0  0  0  0  0  0  0  0  0  0
  -21.8840   -3.9680   23.7060 C   0  0  0  0  0  3  0  0  0  0  0  0
  -21.9710   -4.7890   22.5680 C   0  0  0  0  0  0  0  0  0  0  0  0
  -22.3390   -4.2520   21.3790 F   0  0  0  0  0  0  0  0  0  0  0  0
  -21.3910   -3.7230   26.0300 F   0  0  0  0  0  0  0  0  0  0  0  0
  -22.7640  -13.5470   21.1700 C   0  0  0  0  0  0  0  0  0  0  0  0
  -22.0410  -12.8510   22.0400 N   0  0  0  0  0  0  0  0  0  0  0  0
  -22.3250  -14.5730   20.6520 O   0  0  0  0  0  0  0  0  0  0  0  0
  -22.4100  -12.0230   22.4830 H   0  0  0  0  0  0  0  0  0  0  0  0
  -21.1050  -13.1550   22.2670 H   0  0  0  0  0  0  0  0  0  0  0  0
  -25.3640  -15.2120   20.3190 N   0  0  0  0  0  0  0  0  0  0  0  0
  -24.5860  -15.8510   20.4330 H   0  0  0  0  0  0  0  0  0  0  0  0
  -26.1960  -15.6600   19.9590 H   0  0  0  0  0  0  0  0  0  0  0  0
  -28.1310  -24.9640   20.7270 C   0  0  0  0  0  2  0  0  0  0  0  0
  -28.3410  -26.3700   20.2000 O   0  0  0  0  0  0  0  0  0  0  0  0
  -24.6090  -31.8660   23.2120 C   0  0  0  0  0  0  0  0  0  0  0  0
  -27.2420  -27.2650   20.1860 C   0  0  0  0  0  0  0  0  0  0  0  0
  -23.4190  -30.4670   21.5650 C   0  0  0  0  0  3  0  0  0  0  0  0
  -24.8820  -28.9100   20.1490 C   0  0  0  0  0  0  0  0  0  0  0  0
  -25.9630  -30.7780   21.3980 C   0  0  0  0  0  2  0  0  0  0  0  0
  -26.0510  -29.3940   20.7530 C   0  0  0  0  0  0  0  0  0  0  0  0
  -27.2360  -28.5860   20.7540 C   0  0  0  0  0  3  0  0  0  0  0  0
  -26.0520  -26.8510   19.5520 C   0  0  0  0  0  3  0  0  0  0  0  0
  -24.8880  -27.6470   19.5370 C   0  0  0  0  0  3  0  0  0  0  0  0
  -23.6440  -29.7890   20.1880 C   0  0  0  0  0  2  0  0  0  0  0  0
  -24.6830  -31.0560   22.1160 N   0  0  0  0  0  0  0  0  0  0  0  0
  -23.5210  -32.1440   23.7400 O   0  0  0  0  0  0  0  0  0  0  0  0
  -22.7480  -29.4530   22.5230 C   0  0  0  0  0  0  0  0  0  0  0  0
  -21.4200  -29.2870   22.3980 N   0  0  0  0  0  0  0  0  0  0  0  0
  -23.4220  -28.8170   23.3380 O   0  0  0  0  0  0  0  0  0  0  0  0
  -20.9340  -29.8500   21.7140 H   0  0  0  0  0  0  0  0  0  0  0  0
  -18.0340  -28.1150   22.9120 C   0  0  0  0  0  0  0  0  0  0  0  0
  -20.5960  -28.3500   23.1670 C   0  0  0  0  0  3  0  0  0  0  0  0
  -20.6810  -26.9230   22.5770 C   0  0  0  0  0  2  0  0  0  0  0  0
  -19.5690  -26.6200   21.5680 C   0  0  0  0  0  2  0  0  0  0  0  0
  -18.1930  -26.7700   22.2220 C   0  0  0  0  0  2  0  0  0  0  0  0
  -19.1610  -28.8630   23.3410 C   0  0  0  0  0  0  0  0  0  0  0  0
  -18.9580  -30.1220   23.9470 C   0  0  0  0  0  3  0  0  0  0  0  0
  -17.6580  -30.6310   24.1290 C   0  0  0  0  0  3  0  0  0  0  0  0
  -16.5440  -29.8800   23.7150 C   0  0  0  0  0  3  0  0  0  0  0  0
  -16.7330  -28.6240   23.1140 C   0  0  0  0  0  3  0  0  0  0  0  0
  -25.8860  -32.5030   23.8430 C   0  0  0  0  0  3  0  0  0  0  0  0
  -25.5670  -33.8980   24.1820 N   0  0  0  0  0  0  0  0  0  0  0  0
  -25.8920  -34.9590   23.4310 C   0  0  0  0  0  0  0  0  0  0  0  0
  -26.5590  -34.8660   22.3960 O   0  0  0  0  0  0  0  0  0  0  0  0
  -24.9740  -34.0430   24.9850 H   0  0  0  0  0  0  0  0  0  0  0  0
  -24.1530  -36.7470   23.0950 C   0  0  0  0  0  1  0  0  0  0  0  0
  -25.3990  -36.3420   23.8990 C   0  0  0  0  0  3  0  0  0  0  0  0
  -27.5320  -37.2320   24.7300 C   0  0  0  0  0  1  0  0  0  0  0  0
  -26.4270  -37.4010   23.7910 N   0  0  0  0  0  0  0  0  0  0  0  0
  -26.0160  -38.3180   23.9440 H   0  0  0  0  0  0  0  0  0  0  0  0
  -26.4000  -31.7280   25.1190 C   0  0  1  0  0  0  0  0  0  0  0  0
  -25.3040  -31.4840   26.1830 C   0  0  0  0  0  1  0  0  0  0  0  0
  -26.9880  -30.3540   24.7270 C   0  0  0  0  0  1  0  0  0  0  0  0
  -27.5450  -32.5230   25.7880 C   0  0  0  0  0  1  0  0  0  0  0  0
  1  3  1  0
  2  1  2  0
  2  6  1  0
  3  7  2  0
  3 51  1  0
  4  7  1  0
  4  8  1  0
  5  2  1  0
  6  4  2  0
  8  9  1  0
 10 22  1  0
 11 16  1  0
 12 13  1  0
 12 11  1  0
 14 13  1  0
 14 26  1  0
 14 15  1  0
 16 10  1  0
 16 15  1  0
 17 10  2  0
 19 18  1  0
 19 22  1  0
 21 18  1  0
 21 20  1  0
 21  8  1  0
 22 20  1  0
 23 24  2  0
 24 43  1  0
 25 24  1  0
 25 28  1  0
 26 23  1  0
 26 27  1  0
 27 25  2  0
 28 29  1  0
 29 30  2  0
 31 34  1  0
 31 30  1  0
 32 31  2  0
 33 32  1  0
 33 28  2  0
 34 35  1  0
 35 36  1  0
 36 37  2  0
 38 37  1  0
 38 42  1  0
 39 38  2  0
 40 35  2  0
 40 39  1  0
 41 40  1  0
 43 44  1  0
 44 47  1  0
 44 46  1  0
 45 43  2  0
 48 49  1  0
 48 23  1  0
 50 48  1  0
 52 51  1  0
 53 64  2  0
 54 52  1  0
 54 59  1  0
 55 63  1  0
 55 65  1  0
 56 62  1  0
 56 58  1  0
 57 63  1  0
 58 59  2  0
 58 57  1  0
 60 54  2  0
 61 60  1  0
 61 56  2  0
 62 55  1  0
 63 53  1  0
 65 67  2  0
 66 65  1  0
 68 66  1  0
 69 78  2  0
 69 74  1  0
 70 66  1  0
 70 74  1  0
 71 70  1  0
 72 73  1  0
 72 71  1  0
 73 69  1  0
 74 75  2  0
 75 76  1  0
 77 76  2  0
 78 77  1  0
 79 53  1  0
 79 80  1  0
 79 89  1  0
 80 83  1  0
 81 85  1  0
 81 80  1  0
 82 81  2  0
 85 84  1  0
 87 85  1  0
 87 88  1  0
 87 86  1  0
 89 92  1  1
 89 90  1  0
 91 89  1  0
M  ISO  4  10 100  22 100  51 101  52 101
M  END
>  <TORSDO>  (17) 
F 17

>  <SCORE>  (17) 
-15.300

>  <name>  (17) 
16

>  <ligand_id>  (17) 
16

>  <original_smiles>  (17) 
[H]c1c(C([H])([H])[H])nc(N([H])C2([H])C([H])([H])N(C(=O)N3C([H])([H])C([H])([H])C([H])([H])C([H])(n4nc(-c5c([H])c([H])c(Oc6c([H])c([H])c(F)c([H])c6F)c([H])c5[H])c(C(=O)N([H])[H])c4N([H])[H])C3([H])[H])C([H])([H])C2([H])[H])nc1C([H])([H])Oc1c([H])c([H])c2c(c1[H])C([H])([H])N(C(=O)C([H])(N([H])C(=O)C([H])(N([H])C([H])([H])[H])C([H])([H])[H])C(C([H])([H])[H])(C([H])([H])[H])C([H])([H])[H])C([H])(C(=O)N([H])C1([H])c3c([H])c([H])c([H])c([H])c3C([H])([H])C([H])([H])C1([H])[H])C2([H])[H]

>  <smiles>  (17) 
[H]c1c(C([H])([H])[H])nc(N([H])C2([H])C([H])([H])N(C(=O)N3C([H])([H])C([H])([H])C([H])([H])C([H])(n4nc(-c5c([H])c([H])c(Oc6c([H])c([H])c(F)c([H])c6F)c([H])c5[H])c(C(=O)N([H])[H])c4N([H])[H])C3([H])[H])C([H])([H])C2([H])[H])nc1C([H])([H])Oc1c([H])c([H])c2c(c1[H])C([H])([H])N(C(=O)C([H])(N([H])C(=O)C([H])(N([H])C([H])([H])[H])C([H])([H])[H])C(C([H])([H])[H])(C([H])([H])[H])C([H])([H])[H])C([H])(C(=O)N([H])C1([H])c3c([H])c([H])c([H])c([H])c3C([H])([H])C([H])([H])C1([H])[H])C2([H])[H]

$$$$
17:0:0
     RDKit          3D

100111  0  0  1  0  0  0  0  0999 V2000
  -29.8980  -24.6850   17.5470 C   0  0  0  0  0  3  0  0  0  0  0  0
  -29.7320  -25.8320   18.3480 C   0  0  0  0  0  0  0  0  0  0  0  0
  -29.0430  -23.5880   17.7670 C   0  0  0  0  0  0  0  0  0  0  0  0
  -28.7100  -25.7740   19.3190 C   0  0  0  0  0  0  0  0  0  0  0  0
  -28.0900  -23.6010   18.7330 N   0  0  0  0  0  0  0  0  0  0  0  0
  -27.9660  -24.6580   19.5320 N   0  0  0  0  0  0  0  0  0  0  0  0
  -32.0880  -26.9190   18.0030 C   0  0  0  0  0  2  0  0  0  0  0  0
  -31.5070  -27.5630   19.2380 C   0  0  0  0  0  2  0  0  0  0  0  0
  -30.5890  -27.0470   18.1520 C   0  0  0  0  0  3  0  0  0  0  0  0
  -28.4520  -26.8430   20.1340 O   0  0  0  0  0  0  0  0  0  0  0  0
  -24.5860  -31.9070   23.1980 C   0  0  0  0  0  0  0  0  0  0  0  0
  -27.2440  -27.5090   20.0990 C   0  0  0  0  0  0  0  0  0  0  0  0
  -23.3810  -30.5100   21.5510 C   0  0  0  0  0  3  0  0  0  0  0  0
  -24.8340  -28.9870   20.1200 C   0  0  0  0  0  0  0  0  0  0  0  0
  -25.9040  -30.8770   21.3570 C   0  0  0  0  0  2  0  0  0  0  0  0
  -25.9850  -29.5100   20.7180 C   0  0  0  0  0  0  0  0  0  0  0  0
  -27.1870  -28.7720   20.7170 C   0  0  0  0  0  3  0  0  0  0  0  0
  -26.0690  -26.9950   19.4910 C   0  0  0  0  0  3  0  0  0  0  0  0
  -24.8670  -27.7240   19.5080 C   0  0  0  0  0  3  0  0  0  0  0  0
  -23.5890  -29.8380   20.1680 C   0  0  0  0  0  2  0  0  0  0  0  0
  -24.6400  -31.1140   22.0930 N   0  0  0  0  0  0  0  0  0  0  0  0
  -23.5040  -32.1760   23.7400 O   0  0  0  0  0  0  0  0  0  0  0  0
  -22.7360  -29.4800   22.5050 C   0  0  0  0  0  0  0  0  0  0  0  0
  -21.4090  -29.3100   22.3910 N   0  0  0  0  0  0  0  0  0  0  0  0
  -23.4220  -28.8400   23.3050 O   0  0  0  0  0  0  0  0  0  0  0  0
  -20.9170  -29.8780   21.7160 H   0  0  0  0  0  0  0  0  0  0  0  0
  -18.0280  -28.1560   22.9170 C   0  0  0  0  0  0  0  0  0  0  0  0
  -20.5910  -28.3740   23.1600 C   0  0  0  0  0  3  0  0  0  0  0  0
  -20.6650  -26.9500   22.5620 C   0  0  0  0  0  2  0  0  0  0  0  0
  -19.5460  -26.6580   21.5570 C   0  0  0  0  0  2  0  0  0  0  0  0
  -18.1760  -26.8140   22.2200 C   0  0  0  0  0  2  0  0  0  0  0  0
  -19.1620  -28.8960   23.3430 C   0  0  0  0  0  0  0  0  0  0  0  0
  -18.9710  -30.1540   23.9530 C   0  0  0  0  0  3  0  0  0  0  0  0
  -17.6760  -30.6740   24.1390 C   0  0  0  0  0  3  0  0  0  0  0  0
  -16.5550  -29.9270   23.7310 C   0  0  0  0  0  3  0  0  0  0  0  0
  -16.7310  -28.6710   23.1280 C   0  0  0  0  0  3  0  0  0  0  0  0
  -25.8720  -32.5370   23.8180 C   0  0  0  0  0  3  0  0  0  0  0  0
  -26.4040  -31.7570   25.0840 C   0  0  1  0  0  0  0  0  0  0  0  0
  -25.3200  -31.5000   26.1570 C   0  0  0  0  0  1  0  0  0  0  0  0
  -26.9940  -30.3870   24.6740 C   0  0  0  0  0  1  0  0  0  0  0  0
  -27.5550  -32.5530   25.7420 C   0  0  0  0  0  1  0  0  0  0  0  0
  -25.5590  -33.9310   24.1590 N   0  0  0  0  0  0  0  0  0  0  0  0
  -25.8900  -34.9890   23.4080 C   0  0  0  0  0  0  0  0  0  0  0  0
  -26.5640  -34.8970   22.3790 O   0  0  0  0  0  0  0  0  0  0  0  0
  -24.9570  -34.0760   24.9570 H   0  0  0  0  0  0  0  0  0  0  0  0
  -24.1580  -36.7790   23.0580 C   0  0  0  0  0  1  0  0  0  0  0  0
  -25.3960  -36.3730   23.8730 C   0  0  0  0  0  3  0  0  0  0  0  0
  -27.5300  -37.2510   24.7160 C   0  0  0  0  0  1  0  0  0  0  0  0
  -26.4270  -37.4290   23.7740 N   0  0  0  0  0  0  0  0  0  0  0  0
  -26.0190  -38.3460   23.9320 H   0  0  0  0  0  0  0  0  0  0  0  0
  -29.1710  -22.3400   16.9000 C   0  0  0  0  0  2  0  0  0  0  0  0
  -29.0410  -20.7160   18.7110 C   0  0  0  0  0  2  0  0  0  0  0  0
  -28.8220  -20.0590   16.3850 C   0  0  0  0  0  2  0  0  0  0  0  0
  -28.4700  -19.3530   19.1400 C   0  0  0  0  0  2  0  0  0  0  0  0
  -28.2970  -18.6760   16.8220 C   0  0  0  0  0  2  0  0  0  0  0  0
  -28.5240  -21.1030   17.3820 N   0  0  0  0  0  0  0  0  0  0  0  0
  -28.9040  -18.3730   18.1330 N   0  0  2  0  0  4  0  0  0  0  0  0
  -29.8750  -18.5960   17.9860 H   0  0  0  0  0  0  0  0  0  0  0  0
  -28.9690  -16.9520   18.5380 C   0  0  0  0  0  2  0  0  0  0  0  0
  -30.7460  -14.6040   20.6860 C   0  0  0  0  0  0  0  0  0  0  0  0
  -30.4940  -12.3290   19.9180 C   0  0  0  0  0  2  0  0  0  0  0  0
  -29.6480  -12.3700   18.6250 C   0  0  0  0  0  2  0  0  0  0  0  0
  -28.1520  -12.2970   18.9670 C   0  0  0  0  0  2  0  0  0  0  0  0
  -27.7060  -13.2630   20.0990 C   0  0  0  0  0  3  0  0  0  0  0  0
  -28.6970  -13.2590   21.2880 C   0  0  0  0  0  2  0  0  0  0  0  0
  -30.0550  -13.4430   20.7560 N   0  0  0  0  0  0  0  0  0  0  0  0
  -31.8750  -14.7490   21.1410 O   0  0  0  0  0  0  0  0  0  0  0  0
  -32.4240  -16.3760   18.5630 C   0  0  0  0  0  2  0  0  0  0  0  0
  -31.4730  -17.4500   19.0580 C   0  0  0  0  0  2  0  0  0  0  0  0
  -31.5350  -15.1440   18.4760 C   0  0  0  0  0  2  0  0  0  0  0  0
  -30.1730  -16.7120   19.4960 C   0  0  0  0  0  3  0  0  0  0  0  0
  -30.5020  -15.2780   19.5290 N   0  0  0  0  0  0  0  0  0  0  0  0
  -25.2460  -13.8300   20.6310 C   0  0  0  0  0  0  0  0  0  0  0  0
  -24.1700  -13.0370   20.9290 C   0  0  0  0  0  0  0  0  0  0  0  0
  -24.6660  -11.7000   20.9810 C   0  0  0  0  0  0  0  0  0  0  0  0
  -26.3310  -12.9740   20.5130 N   0  0  0  0  0  0  0  0  0  0  0  0
  -25.9790  -11.6900   20.7900 N   0  0  0  0  0  0  0  0  0  0  0  0
  -23.9620  -10.4200   21.1420 C   0  0  0  0  0  0  0  0  0  0  0  0
  -24.3700   -9.4700   22.1030 C   0  0  0  0  0  3  0  0  0  0  0  0
  -23.6660   -8.2560   22.2540 C   0  0  0  0  0  3  0  0  0  0  0  0
  -22.5390   -7.9830   21.4420 C   0  0  0  0  0  0  0  0  0  0  0  0
  -22.1520   -8.9230   20.4700 C   0  0  0  0  0  3  0  0  0  0  0  0
  -22.8570  -10.1280   20.3180 C   0  0  0  0  0  3  0  0  0  0  0  0
  -21.8080   -6.8210   21.5020 O   0  0  0  0  0  0  0  0  0  0  0  0
  -21.7450   -6.0680   22.6470 C   0  0  0  0  0  0  0  0  0  0  0  0
  -21.2860   -6.6090   23.8680 C   0  0  0  0  0  3  0  0  0  0  0  0
  -21.1700   -5.7830   25.0040 C   0  0  0  0  0  3  0  0  0  0  0  0
  -21.4990   -4.4170   24.9180 C   0  0  0  0  0  0  0  0  0  0  0  0
  -21.9490   -3.8750   23.7020 C   0  0  0  0  0  3  0  0  0  0  0  0
  -22.0670   -4.6990   22.5680 C   0  0  0  0  0  0  0  0  0  0  0  0
  -22.4790   -4.1670   21.3920 F   0  0  0  0  0  0  0  0  0  0  0  0
  -21.3830   -3.6210   26.0080 F   0  0  0  0  0  0  0  0  0  0  0  0
  -22.7410  -13.4800   21.0630 C   0  0  0  0  0  0  0  0  0  0  0  0
  -21.9590  -12.7900   21.8860 N   0  0  0  0  0  0  0  0  0  0  0  0
  -22.3230  -14.4730   20.4700 O   0  0  0  0  0  0  0  0  0  0  0  0
  -22.3060  -11.9860   22.3870 H   0  0  0  0  0  0  0  0  0  0  0  0
  -20.9970  -13.0710   22.0090 H   0  0  0  0  0  0  0  0  0  0  0  0
  -25.3890  -15.1980   20.4280 N   0  0  0  0  0  0  0  0  0  0  0  0
  -24.6020  -15.8340   20.4830 H   0  0  0  0  0  0  0  0  0  0  0  0
  -26.2620  -15.6690   20.2400 H   0  0  0  0  0  0  0  0  0  0  0  0
  1  3  1  0
  1  2  2  0
  2  4  1  0
  3  5  2  0
  4  6  2  0
  4 10  1  0
  5  6  1  0
  7  9  1  0
  7  8  1  0
  9  2  1  0
  9  8  1  0
 11 22  2  0
 12 10  1  0
 12 17  1  0
 13 21  1  0
 13 23  1  0
 14 20  1  0
 14 16  1  0
 15 21  1  0
 16 15  1  0
 17 16  2  0
 18 19  1  0
 18 12  2  0
 19 14  2  0
 20 13  1  0
 21 11  1  0
 23 25  2  0
 24 23  1  0
 26 24  1  0
 27 36  2  0
 27 32  1  0
 28 24  1  0
 28 32  1  0
 29 28  1  0
 30 31  1  0
 30 29  1  0
 31 27  1  0
 32 33  2  0
 33 34  1  0
 35 34  2  0
 36 35  1  0
 37 11  1  0
 37 42  1  0
 37 38  1  0
 38 41  1  1
 38 39  1  0
 40 38  1  0
 42 45  1  0
 43 47  1  0
 43 42  1  0
 44 43  2  0
 47 46  1  0
 49 47  1  0
 49 50  1  0
 49 48  1  0
 51 56  1  0
 51  3  1  0
 52 54  1  0
 53 55  1  0
 53 56  1  0
 55 57  1  0
 56 52  1  0
 57 59  1  0
 57 54  1  0
 57 58  1  6
 60 66  1  0
 60 67  2  0
 61 66  1  0
 62 63  1  0
 62 61  1  0
 64 63  1  0
 64 76  1  0
 64 65  1  0
 66 65  1  0
 68 69  1  0
 69 71  1  0
 70 68  1  0
 70 72  1  0
 71 59  1  0
 71 72  1  0
 72 60  1  0
 73 74  2  0
 74 75  1  0
 74 93  1  0
 75 78  1  0
 76 73  1  0
 76 77  1  0
 77 75  2  0
 78 79  1  0
 79 80  2  0
 81 84  1  0
 81 80  1  0
 82 81  2  0
 83 82  1  0
 83 78  2  0
 84 85  1  0
 85 86  1  0
 86 87  2  0
 88 87  1  0
 88 92  1  0
 89 88  2  0
 90 85  2  0
 90 89  1  0
 91 90  1  0
 93 94  1  0
 94 97  1  0
 94 96  1  0
 95 93  2  0
 98 99  1  0
 98 73  1  0
100 98  1  0
M  ISO  4   4 101  10 101  60 100  72 100
M  END
>  <TORSDO>  (18) 
F 20

>  <SCORE>  (18) 
-13.939

>  <name>  (18) 
17

>  <ligand_id>  (18) 
17

>  <original_smiles>  (18) 
[H]c1c([H])c([H])c2c(c1[H])C([H])([H])C([H])([H])C([H])([H])C2([H])N([H])C(=O)C1([H])N(C(=O)C([H])(N([H])C(=O)C([H])(N([H])C([H])([H])[H])C([H])([H])[H])C(C([H])([H])[H])(C([H])([H])[H])C([H])([H])[H])C([H])([H])c2c([H])c(Oc3nnc(C([H])([H])N4C([H])([H])C([H])([H])[N+]([H])(C([H])([H])C5([H])N(C(=O)N6C([H])([H])C([H])([H])C([H])([H])C([H])(n7nc(-c8c([H])c([H])c(Oc9c([H])c([H])c(F)c([H])c9F)c([H])c8[H])c(C(=O)N([H])[H])c7N([H])[H])C6([H])[H])C([H])([H])C([H])([H])C5([H])[H])C([H])([H])C4([H])[H])c([H])c3C3([H])C([H])([H])C3([H])[H])c([H])c([H])c2C1([H])[H]

>  <smiles>  (18) 
[H]c1c([H])c([H])c2c(c1[H])C([H])([H])C([H])([H])C([H])([H])C2([H])N([H])C(=O)C1([H])N(C(=O)C([H])(N([H])C(=O)C([H])(N([H])C([H])([H])[H])C([H])([H])[H])C(C([H])([H])[H])(C([H])([H])[H])C([H])([H])[H])C([H])([H])c2c([H])c(Oc3nnc(C([H])([H])N4C([H])([H])C([H])([H])[N+]([H])(C([H])([H])C5([H])N(C(=O)N6C([H])([H])C([H])([H])C([H])([H])C([H])(n7nc(-c8c([H])c([H])c(Oc9c([H])c([H])c(F)c([H])c9F)c([H])c8[H])c(C(=O)N([H])[H])c7N([H])[H])C6([H])[H])C([H])([H])C([H])([H])C5([H])[H])C([H])([H])C4([H])[H])c([H])c3C3([H])C([H])([H])C3([H])[H])c([H])c([H])c2C1([H])[H]

$$$$
18:0:0
     RDKit          3D

 89 97  0  0  1  0  0  0  0  0999 V2000
  -28.7890  -20.9940   19.7090 C   0  0  0  0  0  3  0  0  0  0  0  0
  -30.5380  -15.2590   19.9710 C   0  0  0  0  0  0  0  0  0  0  0  0
  -30.4350  -12.8470   19.0400 C   0  0  0  0  0  2  0  0  0  0  0  0
  -29.4640  -12.6980   17.8450 C   0  0  0  0  0  2  0  0  0  0  0  0
  -28.0490  -12.3770   18.3600 C   0  0  0  0  0  2  0  0  0  0  0  0
  -27.6490  -13.3190   19.5260 C   0  0  0  0  0  3  0  0  0  0  0  0
  -28.7470  -13.4440   20.6040 C   0  0  0  0  0  2  0  0  0  0  0  0
  -29.9520  -13.9650   19.9330 N   0  0  0  0  0  0  0  0  0  0  0  0
  -31.7140  -15.2610   19.5770 O   0  0  0  0  0  0  0  0  0  0  0  0
  -29.3540  -18.7410   21.5810 C   0  0  0  0  0  2  0  0  0  0  0  0
  -29.9240  -17.2330   21.5840 C   0  0  0  0  0  2  0  0  0  0  0  0
  -29.6220  -17.9090   19.4090 C   0  0  0  0  0  2  0  0  0  0  0  0
  -29.5890  -19.4370   20.1940 C   0  0  0  0  0  3  0  0  0  0  0  0
  -29.8410  -16.5530   20.2460 N   0  0  0  0  0  0  0  0  0  0  0  0
  -25.3340  -13.8490   20.4430 C   0  0  0  0  0  0  0  0  0  0  0  0
  -24.2920  -13.0570   20.8540 C   0  0  0  0  0  0  0  0  0  0  0  0
  -24.7580  -11.7130   20.7460 C   0  0  0  0  0  0  0  0  0  0  0  0
  -26.3560  -12.9820   20.1020 N   0  0  0  0  0  0  0  0  0  0  0  0
  -26.0260  -11.6890   20.3460 N   0  0  0  0  0  0  0  0  0  0  0  0
  -24.0430  -10.4440   20.9430 C   0  0  0  0  0  0  0  0  0  0  0  0
  -24.4820   -9.4800   21.8780 C   0  0  0  0  0  3  0  0  0  0  0  0
  -23.7600   -8.2820   22.0630 C   0  0  0  0  0  3  0  0  0  0  0  0
  -22.5870   -8.0370   21.3120 C   0  0  0  0  0  0  0  0  0  0  0  0
  -22.1660   -8.9870   20.3660 C   0  0  0  0  0  3  0  0  0  0  0  0
  -22.8890  -10.1780   20.1770 C   0  0  0  0  0  3  0  0  0  0  0  0
  -21.8410   -6.8860   21.4000 O   0  0  0  0  0  0  0  0  0  0  0  0
  -21.7260   -6.1940   22.5760 C   0  0  0  0  0  0  0  0  0  0  0  0
  -21.2110   -6.7920   23.7460 C   0  0  0  0  0  3  0  0  0  0  0  0
  -21.0440   -6.0230   24.9160 C   0  0  0  0  0  3  0  0  0  0  0  0
  -21.3790   -4.6570   24.9160 C   0  0  0  0  0  0  0  0  0  0  0  0
  -21.8910   -4.0580   23.7520 C   0  0  0  0  0  3  0  0  0  0  0  0
  -22.0600   -4.8240   22.5830 C   0  0  0  0  0  0  0  0  0  0  0  0
  -22.5320   -4.2350   21.4590 F   0  0  0  0  0  0  0  0  0  0  0  0
  -21.2150   -3.9180   26.0390 F   0  0  0  0  0  0  0  0  0  0  0  0
  -22.9180  -13.5290   21.2290 C   0  0  0  0  0  0  0  0  0  0  0  0
  -22.2440  -12.8160   22.1260 N   0  0  0  0  0  0  0  0  0  0  0  0
  -22.4530  -14.5670   20.7700 O   0  0  0  0  0  0  0  0  0  0  0  0
  -22.6370  -11.9830   22.5350 H   0  0  0  0  0  0  0  0  0  0  0  0
  -21.3270  -13.1260   22.4120 H   0  0  0  0  0  0  0  0  0  0  0  0
  -25.4860  -15.2230   20.3100 N   0  0  0  0  0  0  0  0  0  0  0  0
  -24.7340  -15.8760   20.5060 H   0  0  0  0  0  0  0  0  0  0  0  0
  -26.3280  -15.6790   19.9830 H   0  0  0  0  0  0  0  0  0  0  0  0
  -28.9710  -21.0570   18.2320 N   0  0  0  0  0  4  0  0  0  0  0  0
  -29.9230  -21.2630   17.9710 H   0  0  0  0  0  0  0  0  0  0  0  0
  -28.3700  -21.7380   17.7980 H   0  0  0  0  0  0  0  0  0  0  0  0
  -28.7300  -20.1740   17.8170 H   0  0  0  0  0  0  0  0  0  0  0  0
  -28.9050  -22.6940   20.3240 C   0  0  0  0  0  3  0  0  0  0  0  0
  -28.0720  -24.2510   19.9280 C   0  0  0  0  0  3  0  0  0  0  0  0
  -28.2460  -25.8350   20.3550 O   0  0  0  0  0  0  0  0  0  0  0  0
  -24.7090  -31.8190   23.2970 C   0  0  0  0  0  0  0  0  0  0  0  0
  -27.2550  -26.9460   20.2630 C   0  0  0  0  0  0  0  0  0  0  0  0
  -23.5250  -30.4510   21.6290 C   0  0  0  0  0  3  0  0  0  0  0  0
  -24.9790  -28.8520   20.2040 C   0  0  0  0  0  0  0  0  0  0  0  0
  -26.0930  -30.6400   21.5210 C   0  0  0  0  0  2  0  0  0  0  0  0
  -26.1590  -29.2360   20.8520 C   0  0  0  0  0  0  0  0  0  0  0  0
  -27.2900  -28.3020   20.8600 C   0  0  0  0  0  3  0  0  0  0  0  0
  -26.0520  -26.7200   19.5600 C   0  0  0  0  0  3  0  0  0  0  0  0
  -24.9550  -27.6200   19.5290 C   0  0  0  0  0  3  0  0  0  0  0  0
  -23.7690  -29.7840   20.2460 C   0  0  0  0  0  2  0  0  0  0  0  0
  -24.7960  -30.9980   22.2030 N   0  0  0  0  0  0  0  0  0  0  0  0
  -23.6150  -32.1140   23.8070 O   0  0  0  0  0  0  0  0  0  0  0  0
  -22.8080  -29.4510   22.5760 C   0  0  0  0  0  0  0  0  0  0  0  0
  -21.4780  -29.2930   22.4280 N   0  0  0  0  0  0  0  0  0  0  0  0
  -23.4600  -28.8150   23.4100 O   0  0  0  0  0  0  0  0  0  0  0  0
  -21.0040  -29.8590   21.7390 H   0  0  0  0  0  0  0  0  0  0  0  0
  -18.0840  -28.0840   22.8620 C   0  0  0  0  0  0  0  0  0  0  0  0
  -20.6390  -28.3550   23.1800 C   0  0  0  0  0  3  0  0  0  0  0  0
  -20.7540  -26.9190   22.6140 C   0  0  0  0  0  2  0  0  0  0  0  0
  -19.6750  -26.5970   21.5740 C   0  0  0  0  0  2  0  0  0  0  0  0
  -18.2790  -26.7390   22.1870 C   0  0  0  0  0  2  0  0  0  0  0  0
  -19.1920  -28.8510   23.3160 C   0  0  0  0  0  0  0  0  0  0  0  0
  -18.9530  -30.1100   23.9080 C   0  0  0  0  0  3  0  0  0  0  0  0
  -17.6410  -30.6020   24.0510 C   0  0  0  0  0  3  0  0  0  0  0  0
  -16.5500  -29.8340   23.6110 C   0  0  0  0  0  3  0  0  0  0  0  0
  -16.7720  -28.5780   23.0210 C   0  0  0  0  0  3  0  0  0  0  0  0
  -25.9790  -32.4430   23.9520 C   0  0  0  0  0  3  0  0  0  0  0  0
  -26.4390  -31.6860   25.2600 C   0  0  1  0  0  0  0  0  0  0  0  0
  -25.3080  -31.4960   26.3000 C   0  0  0  0  0  1  0  0  0  0  0  0
  -27.0040  -30.2860   24.9230 C   0  0  0  0  0  1  0  0  0  0  0  0
  -27.5890  -32.4670   25.9390 C   0  0  0  0  0  1  0  0  0  0  0  0
  -25.6850  -33.8570   24.2610 N   0  0  0  0  0  0  0  0  0  0  0  0
  -26.0320  -34.8980   23.4930 C   0  0  0  0  0  0  0  0  0  0  0  0
  -26.7000  -34.7710   22.4620 O   0  0  0  0  0  0  0  0  0  0  0  0
  -25.1010  -34.0240   25.0670 H   0  0  0  0  0  0  0  0  0  0  0  0
  -24.3310  -36.7180   23.1430 C   0  0  0  0  0  1  0  0  0  0  0  0
  -25.5770  -36.3030   23.9400 C   0  0  0  0  0  3  0  0  0  0  0  0
  -27.7310  -37.1810   24.7250 C   0  0  0  0  0  1  0  0  0  0  0  0
  -26.6230  -37.3370   23.7880 N   0  0  0  0  0  0  0  0  0  0  0  0
  -26.2320  -38.2670   23.9070 H   0  0  0  0  0  0  0  0  0  0  0  0
  1 47  1  0
  2 14  1  0
  3  8  1  0
  4  5  1  0
  4  3  1  0
  6  5  1  0
  6 18  1  0
  6  7  1  0
  8  2  1  0
  8  7  1  0
  9  2  2  0
 10 11  1  0
 12 13  1  0
 12 14  1  0
 13  1  1  0
 13 10  1  0
 14 11  1  0
 15 16  2  0
 16 35  1  0
 17 16  1  0
 17 20  1  0
 18 19  1  0
 18 15  1  0
 19 17  2  0
 20 21  1  0
 21 22  2  0
 23 26  1  0
 23 22  1  0
 24 23  2  0
 25 24  1  0
 25 20  2  0
 26 27  1  0
 27 32  2  0
 27 28  1  0
 28 29  2  0
 29 30  1  0
 30 34  1  0
 31 30  2  0
 32 31  1  0
 33 32  1  0
 35 36  1  0
 36 39  1  0
 36 38  1  0
 37 35  2  0
 40 15  1  0
 40 41  1  0
 42 40  1  0
 43  1  1  0
 44 43  1  0
 45 43  1  0
 46 43  1  0
 48 47  2  0
 48 49  1  0
 50 61  2  0
 51 49  1  0
 51 56  1  0
 52 60  1  0
 52 62  1  0
 53 59  1  0
 53 55  1  0
 54 60  1  0
 55 56  2  0
 55 54  1  0
 57 51  2  0
 58 57  1  0
 58 53  2  0
 59 52  1  0
 60 50  1  0
 62 64  2  0
 63 62  1  0
 65 63  1  0
 66 75  2  0
 66 71  1  0
 67 63  1  0
 67 71  1  0
 68 67  1  0
 69 70  1  0
 69 68  1  0
 70 66  1  0
 71 72  2  0
 72 73  1  0
 74 73  2  0
 75 74  1  0
 76 50  1  0
 76 81  1  0
 76 77  1  0
 77 80  1  1
 77 78  1  0
 79 77  1  0
 81 84  1  0
 82 86  1  0
 82 81  1  0
 83 82  2  0
 86 85  1  0
 88 89  1  0
 88 86  1  0
 88 87  1  0
M  ISO  4   2 100  14 100  48 101  49 101
M  END
>  <TORSDO>  (19) 
F 19

>  <SCORE>  (19) 
-15.052

>  <name>  (19) 
18

>  <ligand_id>  (19) 
18

>  <original_smiles>  (19) 
[H]c1c([H])c([H])c2c(c1[H])C([H])([H])C([H])([H])C([H])([H])C2([H])N([H])C(=O)C1([H])N(C(=O)C([H])(N([H])C(=O)C([H])(N([H])C([H])([H])[H])C([H])([H])[H])C(C([H])([H])[H])(C([H])([H])[H])C([H])([H])[H])C([H])([H])c2c([H])c(OC([H])([H])C([H])([H])C([H])(C3([H])C([H])([H])N(C(=O)N4C([H])([H])C([H])([H])C([H])([H])C([H])(n5nc(-c6c([H])c([H])c(Oc7c([H])c([H])c(F)c([H])c7F)c([H])c6[H])c(C(=O)N([H])[H])c5N([H])[H])C4([H])[H])C([H])([H])C3([H])[H])[N+]([H])([H])[H])c([H])c([H])c2C1([H])[H]

>  <smiles>  (19) 
[H]c1c([H])c([H])c2c(c1[H])C([H])([H])C([H])([H])C([H])([H])C2([H])N([H])C(=O)C1([H])N(C(=O)C([H])(N([H])C(=O)C([H])(N([H])C([H])([H])[H])C([H])([H])[H])C(C([H])([H])[H])(C([H])([H])[H])C([H])([H])[H])C([H])([H])c2c([H])c(OC([H])([H])C([H])([H])C([H])(C3([H])C([H])([H])N(C(=O)N4C([H])([H])C([H])([H])C([H])([H])C([H])(n5nc(-c6c([H])c([H])c(Oc7c([H])c([H])c(F)c([H])c7F)c([H])c6[H])c(C(=O)N([H])[H])c5N([H])[H])C4([H])[H])C([H])([H])C3([H])[H])[N+]([H])([H])[H])c([H])c([H])c2C1([H])[H]

$$$$
19:0:0
     RDKit          3D

 94102  0  0  1  0  0  0  0  0999 V2000
  -28.9370  -20.0320   18.7770 C   0  0  0  0  0  3  0  0  0  0  0  0
  -28.8320  -22.3060   18.4290 C   0  0  0  0  0  0  0  0  0  0  0  0
  -29.4350  -20.2400   20.0910 C   0  0  0  0  0  0  0  0  0  0  0  0
  -29.3080  -22.5360   19.7450 C   0  0  0  0  0  0  0  0  0  0  0  0
  -28.5180  -23.4500   17.4800 C   0  0  0  0  0  1  0  0  0  0  0  0
  -28.6340  -21.0580   17.9470 N   0  0  0  0  0  0  0  0  0  0  0  0
  -29.5970  -21.5000   20.5820 N   0  0  0  0  0  0  0  0  0  0  0  0
  -29.5330  -23.8440   20.2030 N   0  0  0  0  0  0  0  0  0  0  0  0
  -29.6640  -24.4830   19.4250 H   0  0  0  0  0  0  0  0  0  0  0  0
  -29.8100  -19.1810   20.9430 N   0  0  0  0  0  0  0  0  0  0  0  0
  -30.1930  -19.3970   21.8570 H   0  0  0  0  0  0  0  0  0  0  0  0
  -29.7370  -17.7800   20.5050 C   0  0  0  0  0  2  0  0  0  0  0  0
  -30.4030  -16.7920   21.4920 C   0  0  0  0  0  2  0  0  0  0  0  0
  -30.6690  -14.4600   20.5530 C   0  0  0  0  0  0  0  0  0  0  0  0
  -30.3770  -12.3330   19.3300 C   0  0  0  0  0  2  0  0  0  0  0  0
  -29.4330  -12.5600   18.1300 C   0  0  0  0  0  2  0  0  0  0  0  0
  -27.9590  -12.4130   18.5550 C   0  0  0  0  0  2  0  0  0  0  0  0
  -27.6220  -13.2270   19.8330 C   0  0  0  0  0  3  0  0  0  0  0  0
  -28.6720  -12.9660   20.9370 C   0  0  0  0  0  2  0  0  0  0  0  0
  -30.0000  -13.2870   20.3830 N   0  0  0  0  0  0  0  0  0  0  0  0
  -31.7670  -14.6910   20.0390 O   0  0  0  0  0  0  0  0  0  0  0  0
  -29.9990  -15.4020   21.2420 N   0  0  0  0  0  0  0  0  0  0  0  0
  -29.1020  -15.1210   21.6080 H   0  0  0  0  0  0  0  0  0  0  0  0
  -25.2170  -13.8390   20.5190 C   0  0  0  0  0  0  0  0  0  0  0  0
  -24.1470  -13.0670   20.8860 C   0  0  0  0  0  0  0  0  0  0  0  0
  -24.6090  -11.7160   20.8660 C   0  0  0  0  0  0  0  0  0  0  0  0
  -26.2640  -12.9560   20.3010 N   0  0  0  0  0  0  0  0  0  0  0  0
  -25.9010  -11.6750   20.5640 N   0  0  0  0  0  0  0  0  0  0  0  0
  -23.8830  -10.4540   21.0590 C   0  0  0  0  0  0  0  0  0  0  0  0
  -24.3220   -9.4860   21.9890 C   0  0  0  0  0  3  0  0  0  0  0  0
  -23.5970   -8.2880   22.1700 C   0  0  0  0  0  3  0  0  0  0  0  0
  -22.4200   -8.0500   21.4200 C   0  0  0  0  0  0  0  0  0  0  0  0
  -22.0010   -9.0070   20.4790 C   0  0  0  0  0  3  0  0  0  0  0  0
  -22.7260  -10.1970   20.2970 C   0  0  0  0  0  3  0  0  0  0  0  0
  -21.6670   -6.9060   21.5110 O   0  0  0  0  0  0  0  0  0  0  0  0
  -21.6350   -6.1530   22.6580 C   0  0  0  0  0  0  0  0  0  0  0  0
  -21.2300   -6.6980   23.8950 C   0  0  0  0  0  3  0  0  0  0  0  0
  -21.1450   -5.8720   25.0350 C   0  0  0  0  0  3  0  0  0  0  0  0
  -21.4570   -4.5020   24.9360 C   0  0  0  0  0  0  0  0  0  0  0  0
  -21.8550   -3.9570   23.7040 C   0  0  0  0  0  3  0  0  0  0  0  0
  -21.9410   -4.7800   22.5670 C   0  0  0  0  0  0  0  0  0  0  0  0
  -22.3050   -4.2450   21.3770 F   0  0  0  0  0  0  0  0  0  0  0  0
  -21.3680   -3.7060   26.0270 F   0  0  0  0  0  0  0  0  0  0  0  0
  -22.7480  -13.5450   21.1490 C   0  0  0  0  0  0  0  0  0  0  0  0
  -22.0150  -12.8530   22.0150 N   0  0  0  0  0  0  0  0  0  0  0  0
  -22.3120  -14.5670   20.6200 O   0  0  0  0  0  0  0  0  0  0  0  0
  -22.3800  -12.0260   22.4650 H   0  0  0  0  0  0  0  0  0  0  0  0
  -21.0760  -13.1550   22.2300 H   0  0  0  0  0  0  0  0  0  0  0  0
  -25.3830  -15.2070   20.3340 N   0  0  0  0  0  0  0  0  0  0  0  0
  -24.6150  -15.8630   20.4340 H   0  0  0  0  0  0  0  0  0  0  0  0
  -26.2350  -15.6430   20.0040 H   0  0  0  0  0  0  0  0  0  0  0  0
  -28.4840  -24.3780   21.0720 C   0  0  0  0  0  2  0  0  0  0  0  0
  -28.6520  -25.8970   21.3340 C   0  0  0  0  0  2  0  0  0  0  0  0
  -28.4170  -26.6860   20.1600 O   0  0  0  0  0  0  0  0  0  0  0  0
  -24.5850  -31.8810   23.2180 C   0  0  0  0  0  0  0  0  0  0  0  0
  -27.2610  -27.4310   20.1820 C   0  0  0  0  0  0  0  0  0  0  0  0
  -23.3920  -30.4640   21.5770 C   0  0  0  0  0  3  0  0  0  0  0  0
  -24.8600  -28.9200   20.1700 C   0  0  0  0  0  0  0  0  0  0  0  0
  -25.9160  -30.8310   21.3900 C   0  0  0  0  0  2  0  0  0  0  0  0
  -26.0100  -29.4540   20.7650 C   0  0  0  0  0  0  0  0  0  0  0  0
  -27.2160  -28.7140   20.7750 C   0  0  0  0  0  3  0  0  0  0  0  0
  -26.1010  -26.9110   19.5780 C   0  0  0  0  0  3  0  0  0  0  0  0
  -24.8990  -27.6470   19.5740 C   0  0  0  0  0  3  0  0  0  0  0  0
  -23.6120  -29.7740   20.2030 C   0  0  0  0  0  2  0  0  0  0  0  0
  -24.6480  -31.0750   22.1200 N   0  0  0  0  0  0  0  0  0  0  0  0
  -23.5010  -32.1520   23.7520 O   0  0  0  0  0  0  0  0  0  0  0  0
  -22.7390  -29.4480   22.5410 C   0  0  0  0  0  0  0  0  0  0  0  0
  -21.4130  -29.2740   22.4190 N   0  0  0  0  0  0  0  0  0  0  0  0
  -23.4220  -28.8200   23.3540 O   0  0  0  0  0  0  0  0  0  0  0  0
  -20.9230  -29.8330   21.7340 H   0  0  0  0  0  0  0  0  0  0  0  0
  -18.0310  -28.1140   22.9420 C   0  0  0  0  0  0  0  0  0  0  0  0
  -20.5930  -28.3410   23.1920 C   0  0  0  0  0  3  0  0  0  0  0  0
  -20.6740  -26.9120   22.6060 C   0  0  0  0  0  2  0  0  0  0  0  0
  -19.5590  -26.6090   21.6000 C   0  0  0  0  0  2  0  0  0  0  0  0
  -18.1860  -26.7670   22.2570 C   0  0  0  0  0  2  0  0  0  0  0  0
  -19.1620  -28.8600   23.3670 C   0  0  0  0  0  0  0  0  0  0  0  0
  -18.9640  -30.1230   23.9670 C   0  0  0  0  0  3  0  0  0  0  0  0
  -17.6670  -30.6400   24.1460 C   0  0  0  0  0  3  0  0  0  0  0  0
  -16.5500  -29.8900   23.7380 C   0  0  0  0  0  3  0  0  0  0  0  0
  -16.7330  -28.6290   23.1420 C   0  0  0  0  0  3  0  0  0  0  0  0
  -25.8670  -32.5170   23.8420 C   0  0  0  0  0  3  0  0  0  0  0  0
  -25.5500  -33.9120   24.1760 N   0  0  0  0  0  0  0  0  0  0  0  0
  -25.8800  -34.9690   23.4210 C   0  0  0  0  0  0  0  0  0  0  0  0
  -26.5520  -34.8720   22.3900 O   0  0  0  0  0  0  0  0  0  0  0  0
  -24.9520  -34.0610   24.9750 H   0  0  0  0  0  0  0  0  0  0  0  0
  -24.1440  -36.7530   23.0620 C   0  0  0  0  0  1  0  0  0  0  0  0
  -25.3820  -36.3520   23.8800 C   0  0  0  0  0  3  0  0  0  0  0  0
  -27.5080  -37.2420   24.7260 C   0  0  0  0  0  1  0  0  0  0  0  0
  -26.4110  -37.4100   23.7780 N   0  0  0  0  0  0  0  0  0  0  0  0
  -26.0010  -38.3280   23.9270 H   0  0  0  0  0  0  0  0  0  0  0  0
  -26.3930  -31.7420   25.1130 C   0  0  1  0  0  0  0  0  0  0  0  0
  -25.3040  -31.4910   26.1820 C   0  0  0  0  0  1  0  0  0  0  0  0
  -26.9850  -30.3720   24.7090 C   0  0  0  0  0  1  0  0  0  0  0  0
  -27.5400  -32.5420   25.7750 C   0  0  0  0  0  1  0  0  0  0  0  0
  1  3  1  0
  2  4  2  0
  3  7  2  0
  3 10  1  0
  4  8  1  0
  4  7  1  0
  5  2  1  0
  6  2  1  0
  6  1  2  0
  8 52  1  0
  9  8  1  0
 10 11  1  0
 12 10  1  0
 12 13  1  0
 14 22  1  0
 15 20  1  0
 16 17  1  0
 16 15  1  0
 18 17  1  0
 18 27  1  0
 18 19  1  0
 20 14  1  0
 20 19  1  0
 21 14  2  0
 22 13  1  0
 22 23  1  0
 24 25  2  0
 25 44  1  0
 26 25  1  0
 26 29  1  0
 27 24  1  0
 27 28  1  0
 28 26  2  0
 29 30  1  0
 30 31  2  0
 32 35  1  0
 32 31  1  0
 33 32  2  0
 34 33  1  0
 34 29  2  0
 35 36  1  0
 36 37  1  0
 37 38  2  0
 39 38  1  0
 39 43  1  0
 40 39  2  0
 41 36  2  0
 41 40  1  0
 42 41  1  0
 44 45  1  0
 45 48  1  0
 45 47  1  0
 46 44  2  0
 49 50  1  0
 49 24  1  0
 51 49  1  0
 52 53  1  0
 54 56  1  0
 54 53  1  0
 55 66  2  0
 56 61  1  0
 57 65  1  0
 57 67  1  0
 58 64  1  0
 58 60  1  0
 59 65  1  0
 60 61  2  0
 60 59  1  0
 62 56  2  0
 63 62  1  0
 63 58  2  0
 64 57  1  0
 65 55  1  0
 67 69  2  0
 68 67  1  0
 70 68  1  0
 71 80  2  0
 71 76  1  0
 72 68  1  0
 72 76  1  0
 73 72  1  0
 74 75  1  0
 74 73  1  0
 75 71  1  0
 76 77  2  0
 77 78  1  0
 79 78  2  0
 80 79  1  0
 81 55  1  0
 81 82  1  0
 81 91  1  0
 82 85  1  0
 83 87  1  0
 83 82  1  0
 84 83  2  0
 87 86  1  0
 89 87  1  0
 89 90  1  0
 89 88  1  0
 91 94  1  1
 91 92  1  0
 93 91  1  0
M  ISO  4  14 100  22 100  53 101  54 101
M  END
>  <TORSDO>  (20) 
F 21

>  <SCORE>  (20) 
-13.785

>  <name>  (20) 
19

>  <ligand_id>  (20) 
19

>  <original_smiles>  (20) 
[H]c1nc(C([H])([H])[H])c(N([H])C([H])([H])C([H])([H])Oc2c([H])c([H])c3c(c2[H])C([H])([H])N(C(=O)C([H])(N([H])C(=O)C([H])(N([H])C([H])([H])[H])C([H])([H])[H])C(C([H])([H])[H])(C([H])([H])[H])C([H])([H])[H])C([H])(C(=O)N([H])C2([H])c4c([H])c([H])c([H])c([H])c4C([H])([H])C([H])([H])C2([H])[H])C3([H])[H])nc1N([H])C([H])([H])C([H])([H])N([H])C(=O)N1C([H])([H])C([H])([H])C([H])([H])C([H])(n2nc(-c3c([H])c([H])c(Oc4c([H])c([H])c(F)c([H])c4F)c([H])c3[H])c(C(=O)N([H])[H])c2N([H])[H])C1([H])[H]

>  <smiles>  (20) 
[H]c1nc(C([H])([H])[H])c(N([H])C([H])([H])C([H])([H])Oc2c([H])c([H])c3c(c2[H])C([H])([H])N(C(=O)C([H])(N([H])C(=O)C([H])(N([H])C([H])([H])[H])C([H])([H])[H])C(C([H])([H])[H])(C([H])([H])[H])C([H])([H])[H])C([H])(C(=O)N([H])C2([H])c4c([H])c([H])c([H])c([H])c4C([H])([H])C([H])([H])C2([H])[H])C3([H])[H])nc1N([H])C([H])([H])C([H])([H])N([H])C(=O)N1C([H])([H])C([H])([H])C([H])([H])C([H])(n2nc(-c3c([H])c([H])c(Oc4c([H])c([H])c(F)c([H])c4F)c([H])c3[H])c(C(=O)N([H])[H])c2N([H])[H])C1([H])[H]

$$$$
20:0:0
     RDKit          3D

 85 93  0  0  1  0  0  0  0  0999 V2000
  -28.7870  -22.6110   20.4620 C   0  0  0  0  0  2  0  0  0  0  0  0
  -28.0730  -24.2110   19.9260 C   0  0  0  0  0  2  0  0  0  0  0  0
  -28.1900  -25.8270   20.3380 O   0  0  0  0  0  0  0  0  0  0  0  0
  -24.6450  -31.8660   23.2260 C   0  0  0  0  0  0  0  0  0  0  0  0
  -27.1900  -26.9430   20.2350 C   0  0  0  0  0  0  0  0  0  0  0  0
  -23.4550  -30.4740   21.5840 C   0  0  0  0  0  3  0  0  0  0  0  0
  -24.9020  -28.8540   20.1690 C   0  0  0  0  0  0  0  0  0  0  0  0
  -26.0250  -30.6590   21.4590 C   0  0  0  0  0  2  0  0  0  0  0  0
  -26.0880  -29.2470   20.8040 C   0  0  0  0  0  0  0  0  0  0  0  0
  -27.2220  -28.3110   20.8150 C   0  0  0  0  0  3  0  0  0  0  0  0
  -25.9790  -26.7140   19.5440 C   0  0  0  0  0  3  0  0  0  0  0  0
  -24.8760  -27.6080   19.5220 C   0  0  0  0  0  3  0  0  0  0  0  0
  -23.6890  -29.7850   20.2100 C   0  0  0  0  0  2  0  0  0  0  0  0
  -24.7290  -31.0290   22.1420 N   0  0  0  0  0  0  0  0  0  0  0  0
  -23.5530  -32.1620   23.7400 O   0  0  0  0  0  0  0  0  0  0  0  0
  -22.7490  -29.4850   22.5490 C   0  0  0  0  0  0  0  0  0  0  0  0
  -21.4160  -29.3330   22.4220 N   0  0  0  0  0  0  0  0  0  0  0  0
  -23.4080  -28.8560   23.3800 O   0  0  0  0  0  0  0  0  0  0  0  0
  -20.9360  -29.8990   21.7370 H   0  0  0  0  0  0  0  0  0  0  0  0
  -18.0210  -28.1570   22.9300 C   0  0  0  0  0  0  0  0  0  0  0  0
  -20.5840  -28.4010   23.1910 C   0  0  0  0  0  3  0  0  0  0  0  0
  -20.6710  -26.9700   22.6130 C   0  0  0  0  0  2  0  0  0  0  0  0
  -19.5650  -26.6590   21.5970 C   0  0  0  0  0  2  0  0  0  0  0  0
  -18.1870  -26.8120   22.2440 C   0  0  0  0  0  2  0  0  0  0  0  0
  -19.1460  -28.9110   23.3600 C   0  0  0  0  0  0  0  0  0  0  0  0
  -18.9360  -30.1690   23.9640 C   0  0  0  0  0  3  0  0  0  0  0  0
  -17.6340  -30.6740   24.1420 C   0  0  0  0  0  3  0  0  0  0  0  0
  -16.5250  -29.9190   23.7260 C   0  0  0  0  0  3  0  0  0  0  0  0
  -16.7190  -28.6620   23.1260 C   0  0  0  0  0  3  0  0  0  0  0  0
  -25.9140  -32.5050   23.8680 C   0  0  0  0  0  3  0  0  0  0  0  0
  -25.6030  -33.9100   24.1850 N   0  0  0  0  0  0  0  0  0  0  0  0
  -25.9490  -34.9650   23.4330 C   0  0  0  0  0  0  0  0  0  0  0  0
  -26.6250  -34.8570   22.4070 O   0  0  0  0  0  0  0  0  0  0  0  0
  -24.9990  -34.0660   24.9780 H   0  0  0  0  0  0  0  0  0  0  0  0
  -24.2360  -36.7800   23.0800 C   0  0  0  0  0  1  0  0  0  0  0  0
  -25.4740  -36.3610   23.8890 C   0  0  0  0  0  3  0  0  0  0  0  0
  -27.6120  -37.2410   24.7210 C   0  0  0  0  0  1  0  0  0  0  0  0
  -26.5150  -37.4060   23.7720 N   0  0  0  0  0  0  0  0  0  0  0  0
  -26.1120  -38.3290   23.9060 H   0  0  0  0  0  0  0  0  0  0  0  0
  -26.3960  -31.7520   25.1700 C   0  0  1  0  0  0  0  0  0  0  0  0
  -25.2790  -31.5430   26.2200 C   0  0  0  0  0  1  0  0  0  0  0  0
  -26.9740  -30.3590   24.8260 C   0  0  0  0  0  1  0  0  0  0  0  0
  -27.5420  -32.5460   25.8400 C   0  0  0  0  0  1  0  0  0  0  0  0
  -28.9740  -21.0970   19.7990 O   0  0  0  0  0  0  0  0  0  0  0  0
  -30.4570  -15.3560   19.9890 C   0  0  0  0  0  0  0  0  0  0  0  0
  -30.3380  -12.9130   19.0900 C   0  0  0  0  0  2  0  0  0  0  0  0
  -29.3710  -12.7230   17.8970 C   0  0  0  0  0  2  0  0  0  0  0  0
  -27.9400  -12.4570   18.3930 C   0  0  0  0  0  2  0  0  0  0  0  0
  -27.5500  -13.3930   19.5650 C   0  0  0  0  0  3  0  0  0  0  0  0
  -28.6530  -13.5500   20.6370 C   0  0  0  0  0  2  0  0  0  0  0  0
  -29.8480  -14.0620   19.9460 N   0  0  0  0  0  0  0  0  0  0  0  0
  -31.6560  -15.2970   19.6640 O   0  0  0  0  0  0  0  0  0  0  0  0
  -30.4110  -19.1070   21.1690 C   0  0  0  0  0  2  0  0  0  0  0  0
  -30.3900  -17.5160   21.4250 C   0  0  0  0  0  2  0  0  0  0  0  0
  -29.3170  -18.0010   19.5170 C   0  0  0  0  0  2  0  0  0  0  0  0
  -29.1890  -19.5330   20.3300 C   0  0  0  0  0  3  0  0  0  0  0  0
  -29.8280  -16.6820   20.3080 N   0  0  0  0  0  0  0  0  0  0  0  0
  -25.2280  -13.9290   20.4570 C   0  0  0  0  0  0  0  0  0  0  0  0
  -24.1840  -13.1450   20.8610 C   0  0  0  0  0  0  0  0  0  0  0  0
  -24.6450  -11.7950   20.7790 C   0  0  0  0  0  0  0  0  0  0  0  0
  -26.2550  -13.0590   20.1420 N   0  0  0  0  0  0  0  0  0  0  0  0
  -25.9220  -11.7670   20.4030 N   0  0  0  0  0  0  0  0  0  0  0  0
  -23.9240  -10.5300   20.9810 C   0  0  0  0  0  0  0  0  0  0  0  0
  -24.3820   -9.5560   21.8960 C   0  0  0  0  0  3  0  0  0  0  0  0
  -23.6580   -8.3590   22.0910 C   0  0  0  0  0  3  0  0  0  0  0  0
  -22.4630   -8.1280   21.3700 C   0  0  0  0  0  0  0  0  0  0  0  0
  -22.0210   -9.0900   20.4450 C   0  0  0  0  0  3  0  0  0  0  0  0
  -22.7450  -10.2790   20.2490 C   0  0  0  0  0  3  0  0  0  0  0  0
  -21.7090   -6.9840   21.4740 O   0  0  0  0  0  0  0  0  0  0  0  0
  -21.6750   -6.2440   22.6290 C   0  0  0  0  0  0  0  0  0  0  0  0
  -21.2440   -6.7960   23.8540 C   0  0  0  0  0  3  0  0  0  0  0  0
  -21.1600   -5.9840   25.0020 C   0  0  0  0  0  3  0  0  0  0  0  0
  -21.4960   -4.6190   24.9240 C   0  0  0  0  0  0  0  0  0  0  0  0
  -21.9190   -4.0660   23.7020 C   0  0  0  0  0  3  0  0  0  0  0  0
  -22.0050   -4.8760   22.5560 C   0  0  0  0  0  0  0  0  0  0  0  0
  -22.3940   -4.3330   21.3770 F   0  0  0  0  0  0  0  0  0  0  0  0
  -21.4080   -3.8350   26.0230 F   0  0  0  0  0  0  0  0  0  0  0  0
  -22.8020  -13.6190   21.1990 C   0  0  0  0  0  0  0  0  0  0  0  0
  -22.1130  -12.9140   22.0880 N   0  0  0  0  0  0  0  0  0  0  0  0
  -22.3450  -14.6530   20.7130 O   0  0  0  0  0  0  0  0  0  0  0  0
  -22.5000  -12.0790   22.5050 H   0  0  0  0  0  0  0  0  0  0  0  0
  -21.1850  -13.2090   22.3530 H   0  0  0  0  0  0  0  0  0  0  0  0
  -25.3830  -15.3040   20.3060 N   0  0  0  0  0  0  0  0  0  0  0  0
  -24.6260  -15.9530   20.4840 H   0  0  0  0  0  0  0  0  0  0  0  0
  -26.2250  -15.7570   19.9760 H   0  0  0  0  0  0  0  0  0  0  0  0
  2  3  1  0
  2  1  1  0
  4 15  2  0
  5  3  1  0
  5 10  1  0
  6 14  1  0
  6 16  1  0
  7 13  1  0
  7  9  1  0
  8 14  1  0
  9 10  2  0
  9  8  1  0
 11  5  2  0
 12 11  1  0
 12  7  2  0
 13  6  1  0
 14  4  1  0
 16 18  2  0
 17 16  1  0
 19 17  1  0
 20 29  2  0
 20 25  1  0
 21 17  1  0
 21 25  1  0
 22 21  1  0
 23 24  1  0
 23 22  1  0
 24 20  1  0
 25 26  2  0
 26 27  1  0
 28 27  2  0
 29 28  1  0
 30  4  1  0
 30 31  1  0
 30 40  1  0
 31 34  1  0
 32 36  1  0
 32 31  1  0
 33 32  2  0
 36 35  1  0
 38 36  1  0
 38 39  1  0
 38 37  1  0
 40 43  1  1
 40 41  1  0
 42 40  1  0
 44  1  1  0
 45 57  1  0
 46 51  1  0
 47 48  1  0
 47 46  1  0
 49 48  1  0
 49 61  1  0
 49 50  1  0
 51 45  1  0
 51 50  1  0
 52 45  2  0
 53 54  1  0
 55 57  1  0
 55 56  1  0
 56 44  1  0
 56 53  1  0
 57 54  1  0
 58 59  2  0
 59 78  1  0
 60 59  1  0
 60 63  1  0
 61 62  1  0
 61 58  1  0
 62 60  2  0
 63 64  1  0
 64 65  2  0
 66 69  1  0
 66 65  1  0
 67 66  2  0
 68 67  1  0
 68 63  2  0
 69 70  1  0
 70 71  1  0
 71 72  2  0
 73 72  1  0
 73 77  1  0
 74 73  2  0
 75 70  2  0
 75 74  1  0
 76 75  1  0
 78 79  1  0
 79 82  1  0
 79 81  1  0
 80 78  2  0
 83 58  1  0
 83 84  1  0
 85 83  1  0
M  ISO  4   2 101   3 101  45 100  57 100
M  END
>  <TORSDO>  (21) 
F 18

>  <SCORE>  (21) 
-16.598

>  <name>  (21) 
20

>  <ligand_id>  (21) 
20

>  <original_smiles>  (21) 
[H]c1c([H])c([H])c2c(c1[H])C([H])([H])C([H])([H])C([H])([H])C2([H])N([H])C(=O)C1([H])N(C(=O)C([H])(N([H])C(=O)C([H])(N([H])C([H])([H])[H])C([H])([H])[H])C(C([H])([H])[H])(C([H])([H])[H])C([H])([H])[H])C([H])([H])c2c([H])c(OC([H])([H])C([H])([H])OC3([H])C([H])([H])N(C(=O)N4C([H])([H])C([H])([H])C([H])([H])C([H])(n5nc(-c6c([H])c([H])c(Oc7c([H])c([H])c(F)c([H])c7F)c([H])c6[H])c(C(=O)N([H])[H])c5N([H])[H])C4([H])[H])C([H])([H])C3([H])[H])c([H])c([H])c2C1([H])[H]

>  <smiles>  (21) 
[H]c1c([H])c([H])c2c(c1[H])C([H])([H])C([H])([H])C([H])([H])C2([H])N([H])C(=O)C1([H])N(C(=O)C([H])(N([H])C(=O)C([H])(N([H])C([H])([H])[H])C([H])([H])[H])C(C([H])([H])[H])(C([H])([H])[H])C([H])([H])[H])C([H])([H])c2c([H])c(OC([H])([H])C([H])([H])OC3([H])C([H])([H])N(C(=O)N4C([H])([H])C([H])([H])C([H])([H])C([H])(n5nc(-c6c([H])c([H])c(Oc7c([H])c([H])c(F)c([H])c7F)c([H])c6[H])c(C(=O)N([H])[H])c5N([H])[H])C4([H])[H])C([H])([H])C3([H])[H])c([H])c([H])c2C1([H])[H]

$$$$
21:0:0
     RDKit          3D

 89 98  0  0  1  0  0  0  0  0999 V2000
  -29.8280  -22.7980   19.3480 C   0  0  0  0  0  3  0  0  0  0  0  0
  -28.7310  -23.1040   20.2190 C   0  0  0  0  0  0  0  0  0  0  0  0
  -30.1770  -21.5070   19.3380 N   0  0  0  0  0  0  0  0  0  0  0  0
  -28.4410  -21.8670   20.7390 N   0  0  0  0  0  0  0  0  0  0  0  0
  -29.3190  -20.8660   20.1940 N   0  0  0  0  0  0  0  0  0  0  0  0
  -30.6670  -19.4560   21.5210 C   0  0  0  0  0  2  0  0  0  0  0  0
  -30.8710  -17.9760   21.7070 C   0  0  0  0  0  2  0  0  0  0  0  0
  -29.4350  -19.3150   20.5680 C   0  0  0  0  0  3  0  0  0  0  0  0
  -30.3040  -17.8030   20.3150 C   0  0  0  0  0  3  0  0  0  0  0  0
  -30.5370  -15.0390   20.1180 C   0  0  0  0  0  0  0  0  0  0  0  0
  -30.3750  -12.6690   19.1940 C   0  0  0  0  0  2  0  0  0  0  0  0
  -29.4130  -12.5890   17.9860 C   0  0  0  0  0  2  0  0  0  0  0  0
  -27.9650  -12.3740   18.4620 C   0  0  0  0  0  2  0  0  0  0  0  0
  -27.5840  -13.3150   19.6350 C   0  0  0  0  0  3  0  0  0  0  0  0
  -28.6690  -13.3640   20.7310 C   0  0  0  0  0  2  0  0  0  0  0  0
  -29.9140  -13.7850   20.0750 N   0  0  0  0  0  0  0  0  0  0  0  0
  -31.7400  -15.0530   19.8390 O   0  0  0  0  0  0  0  0  0  0  0  0
  -29.8130  -16.2750   20.2700 N   0  0  0  0  0  0  0  0  0  0  0  0
  -28.8210  -16.1490   20.4080 H   0  0  0  0  0  0  0  0  0  0  0  0
  -25.2350  -13.9000   20.4580 C   0  0  0  0  0  0  0  0  0  0  0  0
  -24.1760  -13.1290   20.8490 C   0  0  0  0  0  0  0  0  0  0  0  0
  -24.6280  -11.7750   20.7870 C   0  0  0  0  0  0  0  0  0  0  0  0
  -26.2630  -13.0160   20.1740 N   0  0  0  0  0  0  0  0  0  0  0  0
  -25.9100  -11.7310   20.4390 N   0  0  0  0  0  0  0  0  0  0  0  0
  -23.8940  -10.5160   20.9800 C   0  0  0  0  0  0  0  0  0  0  0  0
  -24.3230   -9.5460   21.9140 C   0  0  0  0  0  3  0  0  0  0  0  0
  -23.5880   -8.3550   22.0950 C   0  0  0  0  0  3  0  0  0  0  0  0
  -22.4100   -8.1250   21.3460 C   0  0  0  0  0  0  0  0  0  0  0  0
  -22.0010   -9.0840   20.4020 C   0  0  0  0  0  3  0  0  0  0  0  0
  -22.7360  -10.2670   20.2170 C   0  0  0  0  0  3  0  0  0  0  0  0
  -21.6460   -6.9870   21.4390 O   0  0  0  0  0  0  0  0  0  0  0  0
  -21.5720   -6.2620   22.6000 C   0  0  0  0  0  0  0  0  0  0  0  0
  -21.1090   -6.8320   23.8070 C   0  0  0  0  0  3  0  0  0  0  0  0
  -20.9840   -6.0330   24.9610 C   0  0  0  0  0  3  0  0  0  0  0  0
  -21.3120   -4.6660   24.9100 C   0  0  0  0  0  0  0  0  0  0  0  0
  -21.7680   -4.0950   23.7080 C   0  0  0  0  0  3  0  0  0  0  0  0
  -21.8950   -4.8910   22.5560 C   0  0  0  0  0  0  0  0  0  0  0  0
  -22.3150   -4.3310   21.3960 F   0  0  0  0  0  0  0  0  0  0  0  0
  -21.1830   -3.8950   26.0150 F   0  0  0  0  0  0  0  0  0  0  0  0
  -22.7920  -13.6150   21.1610 C   0  0  0  0  0  0  0  0  0  0  0  0
  -22.0790  -12.9160   22.0370 N   0  0  0  0  0  0  0  0  0  0  0  0
  -22.3520  -14.6530   20.6660 O   0  0  0  0  0  0  0  0  0  0  0  0
  -22.4480  -12.0770   22.4590 H   0  0  0  0  0  0  0  0  0  0  0  0
  -21.1510  -13.2250   22.2900 H   0  0  0  0  0  0  0  0  0  0  0  0
  -25.4040  -15.2710   20.2900 N   0  0  0  0  0  0  0  0  0  0  0  0
  -24.6390  -15.9250   20.4220 H   0  0  0  0  0  0  0  0  0  0  0  0
  -26.2300  -15.7060   19.9010 H   0  0  0  0  0  0  0  0  0  0  0  0
  -27.8400  -24.5150   20.3820 C   0  0  0  0  0  2  0  0  0  0  0  0
  -28.2400  -26.0470   20.2860 O   0  0  0  0  0  0  0  0  0  0  0  0
  -24.6090  -31.8580   23.2040 C   0  0  0  0  0  0  0  0  0  0  0  0
  -27.2140  -27.0850   20.2230 C   0  0  0  0  0  0  0  0  0  0  0  0
  -23.4290  -30.4490   21.5670 C   0  0  0  0  0  3  0  0  0  0  0  0
  -24.8940  -28.8720   20.1610 C   0  0  0  0  0  0  0  0  0  0  0  0
  -25.9900  -30.7060   21.4280 C   0  0  0  0  0  2  0  0  0  0  0  0
  -26.0720  -29.3070   20.7820 C   0  0  0  0  0  0  0  0  0  0  0  0
  -27.2330  -28.4310   20.7960 C   0  0  0  0  0  3  0  0  0  0  0  0
  -26.0110  -26.7840   19.5420 C   0  0  0  0  0  3  0  0  0  0  0  0
  -24.8820  -27.6260   19.5230 C   0  0  0  0  0  3  0  0  0  0  0  0
  -23.6670  -29.7690   20.1930 C   0  0  0  0  0  2  0  0  0  0  0  0
  -24.6960  -31.0280   22.1200 N   0  0  0  0  0  0  0  0  0  0  0  0
  -23.5160  -32.1430   23.7200 O   0  0  0  0  0  0  0  0  0  0  0  0
  -22.7440  -29.4460   22.5270 C   0  0  0  0  0  0  0  0  0  0  0  0
  -21.4140  -29.2810   22.4030 N   0  0  0  0  0  0  0  0  0  0  0  0
  -23.4120  -28.8160   23.3520 O   0  0  0  0  0  0  0  0  0  0  0  0
  -20.9310  -29.8380   21.7130 H   0  0  0  0  0  0  0  0  0  0  0  0
  -18.0250  -28.1100   22.9290 C   0  0  0  0  0  0  0  0  0  0  0  0
  -20.5890  -28.3480   23.1760 C   0  0  0  0  0  3  0  0  0  0  0  0
  -20.6720  -26.9180   22.5940 C   0  0  0  0  0  2  0  0  0  0  0  0
  -19.5590  -26.6100   21.5870 C   0  0  0  0  0  2  0  0  0  0  0  0
  -18.1840  -26.7640   22.2430 C   0  0  0  0  0  2  0  0  0  0  0  0
  -19.1540  -28.8610   23.3540 C   0  0  0  0  0  0  0  0  0  0  0  0
  -18.9490  -30.1200   23.9580 C   0  0  0  0  0  3  0  0  0  0  0  0
  -17.6500  -30.6300   24.1410 C   0  0  0  0  0  3  0  0  0  0  0  0
  -16.5360  -29.8760   23.7320 C   0  0  0  0  0  3  0  0  0  0  0  0
  -16.7240  -28.6180   23.1320 C   0  0  0  0  0  3  0  0  0  0  0  0
  -25.8780  -32.5060   23.8370 C   0  0  0  0  0  3  0  0  0  0  0  0
  -25.5510  -33.9020   24.1690 N   0  0  0  0  0  0  0  0  0  0  0  0
  -25.8710  -34.9630   23.4170 C   0  0  0  0  0  0  0  0  0  0  0  0
  -26.5370  -34.8710   22.3820 O   0  0  0  0  0  0  0  0  0  0  0  0
  -24.9570  -34.0480   24.9720 H   0  0  0  0  0  0  0  0  0  0  0  0
  -24.1250  -36.7450   23.0810 C   0  0  0  0  0  1  0  0  0  0  0  0
  -25.3740  -36.3460   23.8830 C   0  0  0  0  0  3  0  0  0  0  0  0
  -27.5020  -37.2520   24.7100 C   0  0  0  0  0  1  0  0  0  0  0  0
  -26.3960  -37.4090   23.7690 N   0  0  0  0  0  0  0  0  0  0  0  0
  -25.9830  -38.3260   23.9180 H   0  0  0  0  0  0  0  0  0  0  0  0
  -26.3870  -31.7420   25.1220 C   0  0  1  0  0  0  0  0  0  0  0  0
  -25.2850  -31.5000   26.1800 C   0  0  0  0  0  1  0  0  0  0  0  0
  -26.9850  -30.3680   24.7470 C   0  0  0  0  0  1  0  0  0  0  0  0
  -27.5250  -32.5480   25.7920 C   0  0  0  0  0  1  0  0  0  0  0  0
  1  2  1  0
  2 48  1  0
  2  4  2  0
  3  1  2  0
  3  5  1  0
  5  4  1  0
  6  7  1  0
  8  5  1  0
  8  6  1  0
  9 18  1  0
  9  8  1  0
  9  7  1  0
 10 18  1  0
 11 16  1  0
 12 13  1  0
 12 11  1  0
 14 13  1  0
 14 23  1  0
 14 15  1  0
 16 10  1  0
 16 15  1  0
 17 10  2  0
 18 19  1  0
 20 21  2  0
 21 40  1  0
 22 21  1  0
 22 25  1  0
 23 24  1  0
 23 20  1  0
 24 22  2  0
 25 26  1  0
 26 27  2  0
 28 31  1  0
 28 27  1  0
 29 28  2  0
 30 29  1  0
 30 25  2  0
 31 32  1  0
 32 33  1  0
 33 34  2  0
 35 34  1  0
 35 39  1  0
 36 35  2  0
 37 32  2  0
 37 36  1  0
 38 37  1  0
 40 41  1  0
 41 44  1  0
 41 43  1  0
 42 40  2  0
 45 46  1  0
 45 20  1  0
 47 45  1  0
 49 48  1  0
 50 61  2  0
 51 49  1  0
 51 56  1  0
 52 60  1  0
 52 62  1  0
 53 59  1  0
 53 55  1  0
 54 60  1  0
 55 56  2  0
 55 54  1  0
 57 51  2  0
 58 57  1  0
 58 53  2  0
 59 52  1  0
 60 50  1  0
 62 64  2  0
 63 62  1  0
 65 63  1  0
 66 75  2  0
 66 71  1  0
 67 63  1  0
 67 71  1  0
 68 67  1  0
 69 70  1  0
 69 68  1  0
 70 66  1  0
 71 72  2  0
 72 73  1  0
 74 73  2  0
 75 74  1  0
 76 50  1  0
 76 77  1  0
 76 86  1  0
 77 80  1  0
 78 82  1  0
 78 77  1  0
 79 78  2  0
 82 81  1  0
 84 82  1  0
 84 85  1  0
 84 83  1  0
 86 89  1  1
 86 87  1  0
 88 86  1  0
M  ISO  4  10 100  18 100  48 101  49 101
M  END
>  <TORSDO>  (22) 
F 18

>  <SCORE>  (22) 
-14.643

>  <name>  (22) 
21

>  <ligand_id>  (22) 
21

>  <original_smiles>  (22) 
[H]c1nn(C2([H])C([H])([H])C([H])([H])C2([H])N([H])C(=O)N2C([H])([H])C([H])([H])C([H])([H])C([H])(n3nc(-c4c([H])c([H])c(Oc5c([H])c([H])c(F)c([H])c5F)c([H])c4[H])c(C(=O)N([H])[H])c3N([H])[H])C2([H])[H])nc1C([H])([H])Oc1c([H])c([H])c2c(c1[H])C([H])([H])N(C(=O)C([H])(N([H])C(=O)C([H])(N([H])C([H])([H])[H])C([H])([H])[H])C(C([H])([H])[H])(C([H])([H])[H])C([H])([H])[H])C([H])(C(=O)N([H])C1([H])c3c([H])c([H])c([H])c([H])c3C([H])([H])C([H])([H])C1([H])[H])C2([H])[H]

>  <smiles>  (22) 
[H]c1nn(C2([H])C([H])([H])C([H])([H])C2([H])N([H])C(=O)N2C([H])([H])C([H])([H])C([H])([H])C([H])(n3nc(-c4c([H])c([H])c(Oc5c([H])c([H])c(F)c([H])c5F)c([H])c4[H])c(C(=O)N([H])[H])c3N([H])[H])C2([H])[H])nc1C([H])([H])Oc1c([H])c([H])c2c(c1[H])C([H])([H])N(C(=O)C([H])(N([H])C(=O)C([H])(N([H])C([H])([H])[H])C([H])([H])[H])C(C([H])([H])[H])(C([H])([H])[H])C([H])([H])[H])C([H])(C(=O)N([H])C1([H])c3c([H])c([H])c([H])c([H])c3C([H])([H])C([H])([H])C1([H])[H])C2([H])[H]

$$$$
22:0:0
     RDKit          3D

 93101  0  0  1  0  0  0  0  0999 V2000
  -28.9020  -20.5040   19.9540 N   0  0  0  0  0  4  0  0  0  0  0  0
  -28.6710  -20.2800   20.9070 H   0  0  0  0  0  0  0  0  0  0  0  0
  -28.0060  -20.5790   19.4980 H   0  0  0  0  0  0  0  0  0  0  0  0
  -29.4830  -19.1780   19.2570 C   0  0  0  0  0  2  0  0  0  0  0  0
  -30.7620  -15.2110   19.3560 C   0  0  0  0  0  0  0  0  0  0  0  0
  -30.4590  -12.9170   18.2610 C   0  0  0  0  0  2  0  0  0  0  0  0
  -29.3380  -12.9180   17.1910 C   0  0  0  0  0  2  0  0  0  0  0  0
  -27.9560  -12.6800   17.8290 C   0  0  0  0  0  2  0  0  0  0  0  0
  -27.7520  -13.5400   19.0990 C   0  0  0  0  0  3  0  0  0  0  0  0
  -28.9620  -13.4460   20.0400 C   0  0  0  0  0  2  0  0  0  0  0  0
  -30.1390  -13.9480   19.2990 N   0  0  0  0  0  0  0  0  0  0  0  0
  -31.8200  -15.3210   18.7240 O   0  0  0  0  0  0  0  0  0  0  0  0
  -30.5700  -18.3740   21.4660 C   0  0  0  0  0  2  0  0  0  0  0  0
  -29.9840  -16.0970   21.4470 C   0  0  0  0  0  2  0  0  0  0  0  0
  -30.8740  -17.0890   22.1940 C   0  0  0  0  0  3  0  0  0  0  0  0
  -30.3960  -17.9570   19.9950 C   0  0  0  0  0  3  0  0  0  0  0  0
  -30.1560  -16.3520   20.0000 N   0  0  0  0  0  0  0  0  0  0  0  0
  -25.5360  -14.1080   20.2480 C   0  0  0  0  0  0  0  0  0  0  0  0
  -24.5320  -13.3270   20.7500 C   0  0  0  0  0  0  0  0  0  0  0  0
  -24.9610  -11.9750   20.5780 C   0  0  0  0  0  0  0  0  0  0  0  0
  -26.5050  -13.2310   19.7910 N   0  0  0  0  0  0  0  0  0  0  0  0
  -26.1810  -11.9400   20.0550 N   0  0  0  0  0  0  0  0  0  0  0  0
  -24.2530  -10.7110   20.8230 C   0  0  0  0  0  0  0  0  0  0  0  0
  -24.7170   -9.7760   21.7730 C   0  0  0  0  0  3  0  0  0  0  0  0
  -24.0060   -8.5770   22.0040 C   0  0  0  0  0  3  0  0  0  0  0  0
  -22.8180   -8.3070   21.2840 C   0  0  0  0  0  0  0  0  0  0  0  0
  -22.3740   -9.2320   20.3230 C   0  0  0  0  0  3  0  0  0  0  0  0
  -23.0850  -10.4210   20.0910 C   0  0  0  0  0  3  0  0  0  0  0  0
  -22.0770   -7.1590   21.4210 O   0  0  0  0  0  0  0  0  0  0  0  0
  -21.9350   -6.5340   22.6350 C   0  0  0  0  0  0  0  0  0  0  0  0
  -21.4140   -7.2080   23.7620 C   0  0  0  0  0  3  0  0  0  0  0  0
  -21.2210   -6.5100   24.9710 C   0  0  0  0  0  3  0  0  0  0  0  0
  -21.5370   -5.1400   25.0530 C   0  0  0  0  0  0  0  0  0  0  0  0
  -22.0500   -4.4670   23.9310 C   0  0  0  0  0  3  0  0  0  0  0  0
  -22.2460   -5.1630   22.7240 C   0  0  0  0  0  0  0  0  0  0  0  0
  -22.7210   -4.5050   21.6390 F   0  0  0  0  0  0  0  0  0  0  0  0
  -21.3440   -4.4680   26.2120 F   0  0  0  0  0  0  0  0  0  0  0  0
  -23.2070  -13.8030   21.2690 C   0  0  0  0  0  0  0  0  0  0  0  0
  -22.6430  -13.1040   22.2480 N   0  0  0  0  0  0  0  0  0  0  0  0
  -22.6860  -14.8310   20.8390 O   0  0  0  0  0  0  0  0  0  0  0  0
  -23.0810  -12.2720   22.6130 H   0  0  0  0  0  0  0  0  0  0  0  0
  -21.7610  -13.4050   22.6360 H   0  0  0  0  0  0  0  0  0  0  0  0
  -25.6980  -15.4840   20.1190 N   0  0  0  0  0  0  0  0  0  0  0  0
  -24.9710  -16.1400   20.3850 H   0  0  0  0  0  0  0  0  0  0  0  0
  -26.4860  -15.9280   19.6660 H   0  0  0  0  0  0  0  0  0  0  0  0
  -31.2990  -16.1080   24.4490 C   0  0  0  0  0  1  0  0  0  0  0  0
  -30.6280  -17.1560   23.6540 N   0  0  0  0  0  4  0  0  0  0  0  0
  -29.6390  -17.1260   23.8460 H   0  0  0  0  0  0  0  0  0  0  0  0
  -30.9680  -18.0440   23.9910 H   0  0  0  0  0  0  0  0  0  0  0  0
  -29.4000  -22.0150   19.9300 C   0  0  0  0  0  2  0  0  0  0  0  0
  -28.4050  -23.3790   19.6460 C   0  0  0  0  0  2  0  0  0  0  0  0
  -28.3770  -24.8840   20.4380 C   0  0  0  0  0  2  0  0  0  0  0  0
  -28.3410  -26.3590   19.9170 O   0  0  0  0  0  0  0  0  0  0  0  0
  -24.6950  -31.9280   23.1800 C   0  0  0  0  0  0  0  0  0  0  0  0
  -27.2370  -27.2810   20.0190 C   0  0  0  0  0  0  0  0  0  0  0  0
  -23.4620  -30.5420   21.5570 C   0  0  0  0  0  3  0  0  0  0  0  0
  -24.8830  -28.9910   20.0770 C   0  0  0  0  0  0  0  0  0  0  0  0
  -26.0050  -30.8390   21.3170 C   0  0  0  0  0  2  0  0  0  0  0  0
  -26.0760  -29.4520   20.6510 C   0  0  0  0  0  0  0  0  0  0  0  0
  -27.2550  -28.6160   20.5940 C   0  0  0  0  0  3  0  0  0  0  0  0
  -26.0130  -26.9090   19.4280 C   0  0  0  0  0  3  0  0  0  0  0  0
  -24.8640  -27.7340   19.4520 C   0  0  0  0  0  3  0  0  0  0  0  0
  -23.6500  -29.8780   20.1660 C   0  0  0  0  0  2  0  0  0  0  0  0
  -24.7420  -31.1250   22.0730 N   0  0  0  0  0  0  0  0  0  0  0  0
  -23.6220  -32.1930   23.7440 O   0  0  0  0  0  0  0  0  0  0  0  0
  -22.8210  -29.5170   22.5250 C   0  0  0  0  0  0  0  0  0  0  0  0
  -21.4990  -29.3020   22.4050 N   0  0  0  0  0  0  0  0  0  0  0  0
  -23.5160  -28.9160   23.3480 O   0  0  0  0  0  0  0  0  0  0  0  0
  -20.9920  -29.8400   21.7160 H   0  0  0  0  0  0  0  0  0  0  0  0
  -18.1670  -27.9680   22.9030 C   0  0  0  0  0  0  0  0  0  0  0  0
  -20.7130  -28.3390   23.1820 C   0  0  0  0  0  3  0  0  0  0  0  0
  -20.8770  -26.9080   22.6220 C   0  0  0  0  0  2  0  0  0  0  0  0
  -19.7950  -26.5280   21.6060 C   0  0  0  0  0  2  0  0  0  0  0  0
  -18.4050  -26.6210   22.2400 C   0  0  0  0  0  2  0  0  0  0  0  0
  -19.2510  -28.7810   23.3300 C   0  0  0  0  0  0  0  0  0  0  0  0
  -18.9750  -30.0370   23.9120 C   0  0  0  0  0  3  0  0  0  0  0  0
  -17.6490  -30.4830   24.0680 C   0  0  0  0  0  3  0  0  0  0  0  0
  -16.5800  -29.6680   23.6560 C   0  0  0  0  0  3  0  0  0  0  0  0
  -16.8410  -28.4110   23.0790 C   0  0  0  0  0  3  0  0  0  0  0  0
  -25.9840  -32.5680   23.7810 C   0  0  0  0  0  3  0  0  0  0  0  0
  -25.6680  -33.9600   24.1400 N   0  0  0  0  0  0  0  0  0  0  0  0
  -25.9790  -35.0320   23.4000 C   0  0  0  0  0  0  0  0  0  0  0  0
  -26.6280  -34.9540   22.3530 O   0  0  0  0  0  0  0  0  0  0  0  0
  -25.0880  -34.0940   24.9560 H   0  0  0  0  0  0  0  0  0  0  0  0
  -24.2400  -36.8290   23.1140 C   0  0  0  0  0  1  0  0  0  0  0  0
  -25.4950  -36.4080   23.8960 C   0  0  0  0  0  3  0  0  0  0  0  0
  -27.6380  -37.2840   24.7150 C   0  0  0  0  0  1  0  0  0  0  0  0
  -26.5220  -37.4680   23.7920 N   0  0  0  0  0  0  0  0  0  0  0  0
  -26.1150  -38.3840   23.9640 H   0  0  0  0  0  0  0  0  0  0  0  0
  -26.5370  -31.7890   25.0370 C   0  0  1  0  0  0  0  0  0  0  0  0
  -25.4630  -31.4970   26.1120 C   0  0  0  0  0  1  0  0  0  0  0  0
  -27.1560  -30.4370   24.6150 C   0  0  0  0  0  1  0  0  0  0  0  0
  -27.6700  -32.6050   25.7020 C   0  0  0  0  0  1  0  0  0  0  0  0
  1  2  1  0
  3  1  1  0
  4  1  1  0
  5 17  1  0
  6 11  1  0
  7  8  1  0
  7  6  1  0
  9  8  1  0
  9 21  1  0
  9 10  1  0
 11  5  1  0
 11 10  1  0
 12  5  2  0
 13 15  1  0
 14 15  1  0
 15 47  1  0
 16  4  1  0
 16 17  1  0
 16 13  1  0
 17 14  1  0
 18 19  2  0
 19 38  1  0
 20 19  1  0
 20 23  1  0
 21 22  1  0
 21 18  1  0
 22 20  2  0
 23 24  1  0
 24 25  2  0
 26 29  1  0
 26 25  1  0
 27 26  2  0
 28 27  1  0
 28 23  2  0
 29 30  1  0
 30 35  2  0
 30 31  1  0
 31 32  2  0
 32 33  1  0
 33 37  1  0
 34 33  2  0
 35 34  1  0
 36 35  1  0
 38 39  1  0
 39 41  1  0
 39 42  1  0
 40 38  2  0
 43 18  1  0
 43 44  1  0
 45 43  1  0
 47 48  1  0
 47 49  1  0
 47 46  1  0
 50  1  1  0
 51 50  1  0
 51 52  1  0
 53 55  1  0
 53 52  1  0
 54 65  2  0
 55 60  1  0
 56 64  1  0
 56 66  1  0
 57 63  1  0
 57 59  1  0
 58 64  1  0
 59 58  1  0
 60 59  2  0
 61 62  1  0
 61 55  2  0
 62 57  2  0
 63 56  1  0
 64 54  1  0
 66 68  2  0
 67 66  1  0
 69 67  1  0
 70 79  2  0
 70 75  1  0
 71 67  1  0
 71 75  1  0
 72 71  1  0
 73 74  1  0
 73 72  1  0
 74 70  1  0
 75 76  2  0
 76 77  1  0
 78 77  2  0
 79 78  1  0
 80 54  1  0
 80 81  1  0
 80 90  1  0
 81 84  1  0
 82 86  1  0
 82 81  1  0
 83 82  2  0
 86 85  1  0
 88 86  1  0
 88 89  1  0
 88 87  1  0
 90 93  1  1
 90 91  1  0
 92 90  1  0
M  ISO  4   5 100  17 100  52 101  53 101
M  END
>  <TORSDO>  (23) 
F 21

>  <SCORE>  (23) 
-8.505

>  <name>  (23) 
22

>  <ligand_id>  (23) 
22

>  <original_smiles>  (23) 
[H]c1c([H])c([H])c2c(c1[H])C([H])([H])C([H])([H])C([H])([H])C2([H])N([H])C(=O)C1([H])N(C(=O)C([H])(N([H])C(=O)C([H])(N([H])C([H])([H])[H])C([H])([H])[H])C(C([H])([H])[H])(C([H])([H])[H])C([H])([H])[H])C([H])([H])c2c([H])c(OC([H])([H])C([H])([H])C([H])([H])[N+]([H])([H])C([H])([H])C3([H])N(C(=O)N4C([H])([H])C([H])([H])C([H])([H])C([H])(n5nc(-c6c([H])c([H])c(Oc7c([H])c([H])c(F)c([H])c7F)c([H])c6[H])c(C(=O)N([H])[H])c5N([H])[H])C4([H])[H])C([H])([H])C([H])([N+]([H])([H])C([H])([H])[H])C3([H])[H])c([H])c([H])c2C1([H])[H]

>  <smiles>  (23) 
[H]c1c([H])c([H])c2c(c1[H])C([H])([H])C([H])([H])C([H])([H])C2([H])N([H])C(=O)C1([H])N(C(=O)C([H])(N([H])C(=O)C([H])(N([H])C([H])([H])[H])C([H])([H])[H])C(C([H])([H])[H])(C([H])([H])[H])C([H])([H])[H])C([H])([H])c2c([H])c(OC([H])([H])C([H])([H])C([H])([H])[N+]([H])([H])C([H])([H])C3([H])N(C(=O)N4C([H])([H])C([H])([H])C([H])([H])C([H])(n5nc(-c6c([H])c([H])c(Oc7c([H])c([H])c(F)c([H])c7F)c([H])c6[H])c(C(=O)N([H])[H])c5N([H])[H])C4([H])[H])C([H])([H])C([H])([N+]([H])([H])C([H])([H])[H])C3([H])[H])c([H])c([H])c2C1([H])[H]

$$$$
23:0:0
     RDKit          3D

 90 98  0  0  1  0  0  0  0  0999 V2000
  -29.1740  -21.1700   19.2460 N   0  0  0  0  0  4  0  0  0  0  0  0
  -28.2550  -21.0100   18.8690 H   0  0  0  0  0  0  0  0  0  0  0  0
  -29.7580  -21.2920   18.4360 H   0  0  0  0  0  0  0  0  0  0  0  0
  -30.7160  -15.4400   19.4400 C   0  0  0  0  0  0  0  0  0  0  0  0
  -30.5670  -12.9760   18.5960 C   0  0  0  0  0  2  0  0  0  0  0  0
  -29.5250  -12.7420   17.4730 C   0  0  0  0  0  2  0  0  0  0  0  0
  -28.1350  -12.4740   18.0720 C   0  0  0  0  0  2  0  0  0  0  0  0
  -27.8090  -13.4510   19.2280 C   0  0  0  0  0  3  0  0  0  0  0  0
  -28.9730  -13.6200   20.2300 C   0  0  0  0  0  2  0  0  0  0  0  0
  -30.1170  -14.1390   19.4590 N   0  0  0  0  0  0  0  0  0  0  0  0
  -31.8840  -15.3840   19.0220 O   0  0  0  0  0  0  0  0  0  0  0  0
  -29.0370  -17.1930   20.5900 C   0  0  0  0  0  2  0  0  0  0  0  0
  -30.2950  -18.2840   19.0220 C   0  0  0  0  0  2  0  0  0  0  0  0
  -28.5290  -18.7170   20.4200 C   0  0  0  0  0  3  0  0  0  0  0  0
  -29.6370  -19.6600   19.8450 C   0  0  0  0  0  3  0  0  0  0  0  0
  -30.0410  -16.7800   19.5760 N   0  0  0  0  0  0  0  0  0  0  0  0
  -25.5710  -14.0280   20.2990 C   0  0  0  0  0  0  0  0  0  0  0  0
  -24.5350  -13.2620   20.7540 C   0  0  0  0  0  0  0  0  0  0  0  0
  -24.9450  -11.9030   20.5880 C   0  0  0  0  0  0  0  0  0  0  0  0
  -26.5440  -13.1400   19.8800 N   0  0  0  0  0  0  0  0  0  0  0  0
  -26.1870  -11.8510   20.1180 N   0  0  0  0  0  0  0  0  0  0  0  0
  -24.1980  -10.6550   20.7930 C   0  0  0  0  0  0  0  0  0  0  0  0
  -24.6300   -9.6760   21.7160 C   0  0  0  0  0  3  0  0  0  0  0  0
  -23.8800   -8.4960   21.9120 C   0  0  0  0  0  3  0  0  0  0  0  0
  -22.6850   -8.2850   21.1830 C   0  0  0  0  0  0  0  0  0  0  0  0
  -22.2720   -9.2510   20.2490 C   0  0  0  0  0  3  0  0  0  0  0  0
  -23.0220  -10.4230   20.0510 C   0  0  0  0  0  3  0  0  0  0  0  0
  -21.9080   -7.1570   21.2880 O   0  0  0  0  0  0  0  0  0  0  0  0
  -21.7630   -6.4900   22.4780 C   0  0  0  0  0  0  0  0  0  0  0  0
  -21.2040   -7.1120   23.6160 C   0  0  0  0  0  3  0  0  0  0  0  0
  -21.0100   -6.3700   24.7990 C   0  0  0  0  0  3  0  0  0  0  0  0
  -21.3640   -5.0070   24.8420 C   0  0  0  0  0  0  0  0  0  0  0  0
  -21.9140   -4.3850   23.7070 C   0  0  0  0  0  3  0  0  0  0  0  0
  -22.1090   -5.1250   22.5280 C   0  0  0  0  0  0  0  0  0  0  0  0
  -22.6200   -4.5160   21.4310 F   0  0  0  0  0  0  0  0  0  0  0  0
  -21.1690   -4.2930   25.9750 F   0  0  0  0  0  0  0  0  0  0  0  0
  -23.2010  -13.7660   21.2190 C   0  0  0  0  0  0  0  0  0  0  0  0
  -22.5710  -13.0590   22.1500 N   0  0  0  0  0  0  0  0  0  0  0  0
  -22.7330  -14.8210   20.7930 O   0  0  0  0  0  0  0  0  0  0  0  0
  -22.9660  -12.2050   22.5150 H   0  0  0  0  0  0  0  0  0  0  0  0
  -21.6810  -13.3780   22.5050 H   0  0  0  0  0  0  0  0  0  0  0  0
  -25.7560  -15.4010   20.1760 N   0  0  0  0  0  0  0  0  0  0  0  0
  -25.0310  -16.0660   20.4260 H   0  0  0  0  0  0  0  0  0  0  0  0
  -26.5650  -15.8360   19.7560 H   0  0  0  0  0  0  0  0  0  0  0  0
  -28.0330  -19.1890   21.7030 N   0  0  0  0  0  0  0  0  0  0  0  0
  -28.8000  -19.2420   22.3650 H   0  0  0  0  0  0  0  0  0  0  0  0
  -27.7150  -20.1490   21.6170 H   0  0  0  0  0  0  0  0  0  0  0  0
  -29.1150  -22.7180   19.9210 C   0  0  0  0  0  3  0  0  0  0  0  0
  -28.2930  -24.2610   19.3840 C   0  0  0  0  0  3  0  0  0  0  0  0
  -28.3610  -25.8830   19.7850 O   0  0  0  0  0  0  0  0  0  0  0  0
  -24.6160  -31.6490   22.9550 C   0  0  0  0  0  0  0  0  0  0  0  0
  -27.3110  -26.9560   19.7360 C   0  0  0  0  0  0  0  0  0  0  0  0
  -23.4530  -30.2620   21.2870 C   0  0  0  0  0  3  0  0  0  0  0  0
  -24.9410  -28.7630   19.7850 C   0  0  0  0  0  0  0  0  0  0  0  0
  -26.0070  -30.5730   21.1130 C   0  0  0  0  0  2  0  0  0  0  0  0
  -26.1220  -29.1880   20.4060 C   0  0  0  0  0  0  0  0  0  0  0  0
  -27.2960  -28.3050   20.3600 C   0  0  0  0  0  3  0  0  0  0  0  0
  -26.0970  -26.6970   19.0610 C   0  0  0  0  0  3  0  0  0  0  0  0
  -24.9550  -27.5420   19.0910 C   0  0  0  0  0  3  0  0  0  0  0  0
  -23.6870  -29.6350   19.8840 C   0  0  0  0  0  2  0  0  0  0  0  0
  -24.7130  -30.8550   21.8390 N   0  0  0  0  0  0  0  0  0  0  0  0
  -23.5240  -31.8770   23.5010 O   0  0  0  0  0  0  0  0  0  0  0  0
  -22.8120  -29.2090   22.2290 C   0  0  0  0  0  0  0  0  0  0  0  0
  -21.4890  -28.9890   22.1120 N   0  0  0  0  0  0  0  0  0  0  0  0
  -23.5130  -28.5900   23.0330 O   0  0  0  0  0  0  0  0  0  0  0  0
  -20.9730  -29.5410   21.4420 H   0  0  0  0  0  0  0  0  0  0  0  0
  -18.1680  -27.6210   22.6300 C   0  0  0  0  0  0  0  0  0  0  0  0
  -20.7180  -27.9910   22.8630 C   0  0  0  0  0  3  0  0  0  0  0  0
  -20.8710  -26.5850   22.2370 C   0  0  0  0  0  2  0  0  0  0  0  0
  -19.7670  -26.2490   21.2290 C   0  0  0  0  0  2  0  0  0  0  0  0
  -18.3930  -26.3070   21.8990 C   0  0  0  0  0  2  0  0  0  0  0  0
  -19.2590  -28.4190   23.0680 C   0  0  0  0  0  0  0  0  0  0  0  0
  -18.9920  -29.6450   23.7160 C   0  0  0  0  0  3  0  0  0  0  0  0
  -17.6680  -30.0750   23.9260 C   0  0  0  0  0  3  0  0  0  0  0  0
  -16.5930  -29.2760   23.5000 C   0  0  0  0  0  3  0  0  0  0  0  0
  -16.8440  -28.0500   22.8590 C   0  0  0  0  0  3  0  0  0  0  0  0
  -25.8690  -32.3210   23.5930 C   0  0  0  0  0  3  0  0  0  0  0  0
  -26.4520  -31.5110   24.8160 C   0  0  1  0  0  0  0  0  0  0  0  0
  -25.3950  -31.1470   25.8860 C   0  0  0  0  0  1  0  0  0  0  0  0
  -27.1100  -30.1940   24.3440 C   0  0  0  0  0  1  0  0  0  0  0  0
  -27.5670  -32.3330   25.5060 C   0  0  0  0  0  1  0  0  0  0  0  0
  -25.4870  -33.6780   24.0230 N   0  0  0  0  0  0  0  0  0  0  0  0
  -25.7240  -34.8010   23.3320 C   0  0  0  0  0  0  0  0  0  0  0  0
  -26.3500  -34.8060   22.2690 O   0  0  0  0  0  0  0  0  0  0  0  0
  -24.9200  -33.7420   24.8570 H   0  0  0  0  0  0  0  0  0  0  0  0
  -23.8710  -36.5040   23.2030 C   0  0  0  0  0  1  0  0  0  0  0  0
  -25.1850  -36.1270   23.9070 C   0  0  0  0  0  3  0  0  0  0  0  0
  -27.3010  -37.1130   24.6770 C   0  0  0  0  0  1  0  0  0  0  0  0
  -26.1430  -37.2500   23.7980 N   0  0  0  0  0  0  0  0  0  0  0  0
  -25.6870  -38.1340   24.0080 H   0  0  0  0  0  0  0  0  0  0  0  0
  1 48  1  0
  2  1  1  0
  3  1  1  0
  4 10  1  0
  4 16  1  0
  5 10  1  0
  6  7  1  0
  6  5  1  0
  8  7  1  0
  8 20  1  0
  8  9  1  0
 10  9  1  0
 11  4  2  0
 13 16  1  0
 13 15  1  0
 14 12  1  0
 14 45  1  0
 15  1  1  0
 15 14  1  0
 16 12  1  0
 17 18  2  0
 18 37  1  0
 19 18  1  0
 19 22  1  0
 20 21  1  0
 20 17  1  0
 21 19  2  0
 22 23  1  0
 23 24  2  0
 25 28  1  0
 25 24  1  0
 26 25  2  0
 27 26  1  0
 27 22  2  0
 28 29  1  0
 29 34  2  0
 29 30  1  0
 30 31  2  0
 31 32  1  0
 32 36  1  0
 33 32  2  0
 34 33  1  0
 35 34  1  0
 37 38  1  0
 38 41  1  0
 38 40  1  0
 39 37  2  0
 42 17  1  0
 42 43  1  0
 44 42  1  0
 45 46  1  0
 47 45  1  0
 49 50  1  0
 49 48  2  0
 51 62  2  0
 52 50  1  0
 52 57  1  0
 53 61  1  0
 53 63  1  0
 54 60  1  0
 54 56  1  0
 55 61  1  0
 56 55  1  0
 57 56  2  0
 58 59  1  0
 58 52  2  0
 59 54  2  0
 60 53  1  0
 61 51  1  0
 63 65  2  0
 64 63  1  0
 66 64  1  0
 67 76  2  0
 67 72  1  0
 68 64  1  0
 68 72  1  0
 69 68  1  0
 70 71  1  0
 70 69  1  0
 71 67  1  0
 72 73  2  0
 73 74  1  0
 75 74  2  0
 76 75  1  0
 77 51  1  0
 77 82  1  0
 77 78  1  0
 78 81  1  1
 78 79  1  0
 80 78  1  0
 82 85  1  0
 83 87  1  0
 83 82  1  0
 84 83  2  0
 87 86  1  0
 89 87  1  0
 89 90  1  0
 89 88  1  0
M  ISO  4   4 100  16 100  49 101  50 101
M  END
>  <TORSDO>  (24) 
F 19

>  <SCORE>  (24) 
-13.595

>  <name>  (24) 
23

>  <ligand_id>  (24) 
23

>  <original_smiles>  (24) 
[H]c1c([H])c([H])c2c(c1[H])C([H])([H])C([H])([H])C([H])([H])C2([H])N([H])C(=O)C1([H])N(C(=O)C([H])(N([H])C(=O)C([H])(N([H])C([H])([H])[H])C([H])([H])[H])C(C([H])([H])[H])(C([H])([H])[H])C([H])([H])[H])C([H])([H])c2c([H])c(OC([H])([H])C([H])([H])[N+]([H])([H])C3([H])C([H])([H])N(C(=O)N4C([H])([H])C([H])([H])C([H])([H])C([H])(n5nc(-c6c([H])c([H])c(Oc7c([H])c([H])c(F)c([H])c7F)c([H])c6[H])c(C(=O)N([H])[H])c5N([H])[H])C4([H])[H])C([H])([H])C3([H])N([H])[H])c([H])c([H])c2C1([H])[H]

>  <smiles>  (24) 
[H]c1c([H])c([H])c2c(c1[H])C([H])([H])C([H])([H])C([H])([H])C2([H])N([H])C(=O)C1([H])N(C(=O)C([H])(N([H])C(=O)C([H])(N([H])C([H])([H])[H])C([H])([H])[H])C(C([H])([H])[H])(C([H])([H])[H])C([H])([H])[H])C([H])([H])c2c([H])c(OC([H])([H])C([H])([H])[N+]([H])([H])C3([H])C([H])([H])N(C(=O)N4C([H])([H])C([H])([H])C([H])([H])C([H])(n5nc(-c6c([H])c([H])c(Oc7c([H])c([H])c(F)c([H])c7F)c([H])c6[H])c(C(=O)N([H])[H])c5N([H])[H])C4([H])[H])C([H])([H])C3([H])N([H])[H])c([H])c([H])c2C1([H])[H]

$$$$
24:0:0
     RDKit          3D

 92102  0  0  1  0  0  0  0  0999 V2000
  -29.4830  -22.4330   21.7990 C   0  0  0  0  0  3  0  0  0  0  0  0
  -29.0810  -23.7200   21.4840 C   0  0  0  0  0  0  0  0  0  0  0  0
  -29.5370  -21.7200   20.5700 C   0  0  0  0  0  0  0  0  0  0  0  0
  -29.4140  -19.6290   19.3670 C   0  0  0  0  0  2  0  0  0  0  0  0
  -29.4730  -18.9910   20.7360 C   0  0  0  0  0  3  0  0  0  0  0  0
  -29.2280  -22.5950   19.5690 N   0  0  0  0  0  0  0  0  0  0  0  0
  -28.9590  -23.8660   20.1060 N   0  0  0  0  0  0  0  0  0  0  0  0
  -30.0730  -20.3630   20.4380 N   0  0  0  0  0  0  0  0  0  0  0  0
  -27.9190  -24.6330   23.6330 C   0  0  0  0  0  2  0  0  0  0  0  0
  -27.3610  -25.3700   22.4370 C   0  0  0  0  0  2  0  0  0  0  0  0
  -28.7690  -24.8460   22.3990 C   0  0  0  0  0  3  0  0  0  0  0  0
  -30.4270  -17.6890   20.9290 C   0  0  0  0  0  2  0  0  0  0  0  0
  -30.7330  -15.0630   20.5860 C   0  0  0  0  0  0  0  0  0  0  0  0
  -30.5850  -12.7750   19.5400 C   0  0  0  0  0  2  0  0  0  0  0  0
  -29.6980  -12.8490   18.2750 C   0  0  0  0  0  2  0  0  0  0  0  0
  -28.2180  -12.6540   18.6480 C   0  0  0  0  0  2  0  0  0  0  0  0
  -27.7910  -13.5120   19.8680 C   0  0  0  0  0  3  0  0  0  0  0  0
  -28.8110  -13.4490   21.0270 C   0  0  0  0  0  2  0  0  0  0  0  0
  -30.1160  -13.8290   20.4800 N   0  0  0  0  0  0  0  0  0  0  0  0
  -31.9180  -15.1640   20.2600 O   0  0  0  0  0  0  0  0  0  0  0  0
  -29.9810  -16.2050   20.8870 N   0  0  0  0  0  0  0  0  0  0  0  0
  -29.0220  -16.0240   21.1480 H   0  0  0  0  0  0  0  0  0  0  0  0
  -25.3680  -14.0510   20.4870 C   0  0  0  0  0  0  0  0  0  0  0  0
  -24.3040  -13.2620   20.8160 C   0  0  0  0  0  0  0  0  0  0  0  0
  -24.7900  -11.9170   20.8160 C   0  0  0  0  0  0  0  0  0  0  0  0
  -26.4380  -13.1910   20.3080 N   0  0  0  0  0  0  0  0  0  0  0  0
  -26.0940  -11.9020   20.5640 N   0  0  0  0  0  0  0  0  0  0  0  0
  -24.0780  -10.6450   20.9810 C   0  0  0  0  0  0  0  0  0  0  0  0
  -24.4780   -9.6890   21.9410 C   0  0  0  0  0  3  0  0  0  0  0  0
  -23.7600   -8.4850   22.0940 C   0  0  0  0  0  3  0  0  0  0  0  0
  -22.6270   -8.2250   21.2880 C   0  0  0  0  0  0  0  0  0  0  0  0
  -22.2460   -9.1700   20.3180 C   0  0  0  0  0  3  0  0  0  0  0  0
  -22.9670  -10.3660   20.1620 C   0  0  0  0  0  3  0  0  0  0  0  0
  -21.8820   -7.0720   21.3540 O   0  0  0  0  0  0  0  0  0  0  0  0
  -21.7980   -6.3320   22.5050 C   0  0  0  0  0  0  0  0  0  0  0  0
  -21.2770   -6.8730   23.7020 C   0  0  0  0  0  3  0  0  0  0  0  0
  -21.1420   -6.0580   24.8420 C   0  0  0  0  0  3  0  0  0  0  0  0
  -21.5190   -4.7030   24.7920 C   0  0  0  0  0  0  0  0  0  0  0  0
  -22.0350   -4.1620   23.6010 C   0  0  0  0  0  3  0  0  0  0  0  0
  -22.1710   -4.9730   22.4600 C   0  0  0  0  0  0  0  0  0  0  0  0
  -22.6470   -4.4400   21.3110 F   0  0  0  0  0  0  0  0  0  0  0  0
  -21.3840   -3.9170   25.8860 F   0  0  0  0  0  0  0  0  0  0  0  0
  -22.8900  -13.7160   21.0280 C   0  0  0  0  0  0  0  0  0  0  0  0
  -22.1400  -13.0100   21.8630 N   0  0  0  0  0  0  0  0  0  0  0  0
  -22.4610  -14.7390   20.4910 O   0  0  0  0  0  0  0  0  0  0  0  0
  -22.5020  -12.1820   22.3160 H   0  0  0  0  0  0  0  0  0  0  0  0
  -21.1900  -13.2960   22.0510 H   0  0  0  0  0  0  0  0  0  0  0  0
  -25.5200  -15.4230   20.2980 N   0  0  0  0  0  0  0  0  0  0  0  0
  -24.7350  -16.0640   20.3220 H   0  0  0  0  0  0  0  0  0  0  0  0
  -26.3710  -15.8560   19.9670 H   0  0  0  0  0  0  0  0  0  0  0  0
  -28.5290  -25.0580   19.2130 C   0  0  0  0  0  2  0  0  0  0  0  0
  -28.5080  -26.4610   19.7450 O   0  0  0  0  0  0  0  0  0  0  0  0
  -24.6290  -31.7130   22.9730 C   0  0  0  0  0  0  0  0  0  0  0  0
  -27.3670  -27.3290   19.6670 C   0  0  0  0  0  0  0  0  0  0  0  0
  -23.4510  -30.3460   21.2950 C   0  0  0  0  0  3  0  0  0  0  0  0
  -24.9350  -28.9190   19.7630 C   0  0  0  0  0  0  0  0  0  0  0  0
  -25.9770  -30.7530   21.0790 C   0  0  0  0  0  2  0  0  0  0  0  0
  -26.1020  -29.4050   20.3650 C   0  0  0  0  0  0  0  0  0  0  0  0
  -27.3090  -28.6230   20.3110 C   0  0  0  0  0  3  0  0  0  0  0  0
  -26.1650  -26.9350   19.0270 C   0  0  0  0  0  3  0  0  0  0  0  0
  -24.9790  -27.6980   19.0750 C   0  0  0  0  0  3  0  0  0  0  0  0
  -23.6620  -29.7410   19.8830 C   0  0  0  0  0  2  0  0  0  0  0  0
  -24.7070  -30.9570   21.8380 N   0  0  0  0  0  0  0  0  0  0  0  0
  -23.5480  -31.9170   23.5430 O   0  0  0  0  0  0  0  0  0  0  0  0
  -22.8490  -29.2610   22.2210 C   0  0  0  0  0  0  0  0  0  0  0  0
  -21.5260  -29.0380   22.1210 N   0  0  0  0  0  0  0  0  0  0  0  0
  -23.5690  -28.6220   22.9910 O   0  0  0  0  0  0  0  0  0  0  0  0
  -20.9920  -29.6020   21.4740 H   0  0  0  0  0  0  0  0  0  0  0  0
  -18.2130  -27.6940   22.6820 C   0  0  0  0  0  0  0  0  0  0  0  0
  -20.7690  -28.0320   22.8710 C   0  0  0  0  0  3  0  0  0  0  0  0
  -20.8990  -26.6380   22.2140 C   0  0  0  0  0  2  0  0  0  0  0  0
  -19.7710  -26.3320   21.2240 C   0  0  0  0  0  2  0  0  0  0  0  0
  -18.4110  -26.3910   21.9250 C   0  0  0  0  0  2  0  0  0  0  0  0
  -19.3200  -28.4710   23.1130 C   0  0  0  0  0  0  0  0  0  0  0  0
  -19.0810  -29.6910   23.7830 C   0  0  0  0  0  3  0  0  0  0  0  0
  -17.7680  -30.1350   24.0260 C   0  0  0  0  0  3  0  0  0  0  0  0
  -16.6750  -29.3550   23.6120 C   0  0  0  0  0  3  0  0  0  0  0  0
  -16.8990  -28.1360   22.9450 C   0  0  0  0  0  3  0  0  0  0  0  0
  -25.8960  -32.3800   23.5920 C   0  0  0  0  0  3  0  0  0  0  0  0
  -26.4850  -31.5690   24.8130 C   0  0  1  0  0  0  0  0  0  0  0  0
  -25.4390  -31.2250   25.8970 C   0  0  0  0  0  1  0  0  0  0  0  0
  -27.1190  -30.2430   24.3350 C   0  0  0  0  0  1  0  0  0  0  0  0
  -27.6160  -32.3800   25.4890 C   0  0  0  0  0  1  0  0  0  0  0  0
  -25.5230  -33.7380   24.0140 N   0  0  0  0  0  0  0  0  0  0  0  0
  -25.7990  -34.8560   23.3300 C   0  0  0  0  0  0  0  0  0  0  0  0
  -26.4630  -34.8550   22.2900 O   0  0  0  0  0  0  0  0  0  0  0  0
  -24.9310  -33.8080   24.8280 H   0  0  0  0  0  0  0  0  0  0  0  0
  -23.9970  -36.6010   23.1060 C   0  0  0  0  0  1  0  0  0  0  0  0
  -25.2540  -36.1850   23.8870 C   0  0  0  0  0  3  0  0  0  0  0  0
  -27.3410  -37.1060   24.7980 C   0  0  0  0  0  1  0  0  0  0  0  0
  -26.2400  -37.2890   23.8570 N   0  0  0  0  0  0  0  0  0  0  0  0
  -25.7930  -38.1770   24.0650 H   0  0  0  0  0  0  0  0  0  0  0  0
  2  1  2  0
  2 11  1  0
  3  1  1  0
  4  8  1  0
  4  5  1  0
  5 12  1  0
  6  7  1  0
  6  3  2  0
  7  2  1  0
  8  3  1  0
  8  5  1  0
 10  9  1  0
 11 10  1  0
 11  9  1  0
 13 21  1  0
 14 19  1  0
 15 16  1  0
 15 14  1  0
 17 16  1  0
 17 26  1  0
 17 18  1  0
 19 13  1  0
 19 18  1  0
 20 13  2  0
 21 12  1  0
 21 22  1  0
 23 24  2  0
 24 25  1  0
 24 43  1  0
 25 28  1  0
 26 23  1  0
 26 27  1  0
 27 25  2  0
 28 29  1  0
 29 30  2  0
 31 34  1  0
 31 30  1  0
 32 31  2  0
 33 32  1  0
 33 28  2  0
 34 35  1  0
 35 36  1  0
 36 37  2  0
 38 37  1  0
 38 42  1  0
 39 38  2  0
 40 35  2  0
 40 39  1  0
 41 40  1  0
 43 44  1  0
 44 47  1  0
 44 46  1  0
 45 43  2  0
 48 49  1  0
 48 23  1  0
 50 48  1  0
 51 52  1  0
 51  7  1  0
 53 64  2  0
 54 52  1  0
 54 59  1  0
 55 63  1  0
 55 65  1  0
 56 62  1  0
 56 58  1  0
 57 63  1  0
 58 57  1  0
 59 58  2  0
 60 61  1  0
 60 54  2  0
 61 56  2  0
 62 55  1  0
 63 53  1  0
 65 67  2  0
 66 65  1  0
 68 66  1  0
 69 78  2  0
 69 74  1  0
 70 66  1  0
 70 74  1  0
 71 70  1  0
 72 73  1  0
 72 71  1  0
 73 69  1  0
 74 75  2  0
 75 76  1  0
 77 76  2  0
 78 77  1  0
 79 53  1  0
 79 84  1  0
 79 80  1  0
 80 83  1  1
 80 81  1  0
 82 80  1  0
 84 87  1  0
 85 89  1  0
 85 84  1  0
 86 85  2  0
 89 88  1  0
 91 89  1  0
 91 92  1  0
 91 90  1  0
M  ISO  4  13 100  21 100  51 101  52 101
M  END
>  <TORSDO>  (25) 
F 19

>  <SCORE>  (25) 
-12.932

>  <name>  (25) 
24

>  <ligand_id>  (25) 
24

>  <original_smiles>  (25) 
[H]c1c([H])c([H])c2c(c1[H])C([H])([H])C([H])([H])C([H])([H])C2([H])N([H])C(=O)C1([H])N(C(=O)C([H])(N([H])C(=O)C([H])(N([H])C([H])([H])[H])C([H])([H])[H])C(C([H])([H])[H])(C([H])([H])[H])C([H])([H])[H])C([H])([H])c2c([H])c(OC([H])([H])n3nc(N4C([H])([H])C4([H])C([H])([H])N([H])C(=O)N4C([H])([H])C([H])([H])C([H])([H])C([H])(n5nc(-c6c([H])c([H])c(Oc7c([H])c([H])c(F)c([H])c7F)c([H])c6[H])c(C(=O)N([H])[H])c5N([H])[H])C4([H])[H])c([H])c3C3([H])C([H])([H])C3([H])[H])c([H])c([H])c2C1([H])[H]

>  <smiles>  (25) 
[H]c1c([H])c([H])c2c(c1[H])C([H])([H])C([H])([H])C([H])([H])C2([H])N([H])C(=O)C1([H])N(C(=O)C([H])(N([H])C(=O)C([H])(N([H])C([H])([H])[H])C([H])([H])[H])C(C([H])([H])[H])(C([H])([H])[H])C([H])([H])[H])C([H])([H])c2c([H])c(OC([H])([H])n3nc(N4C([H])([H])C4([H])C([H])([H])N([H])C(=O)N4C([H])([H])C([H])([H])C([H])([H])C([H])(n5nc(-c6c([H])c([H])c(Oc7c([H])c([H])c(F)c([H])c7F)c([H])c6[H])c(C(=O)N([H])[H])c5N([H])[H])C4([H])[H])c([H])c3C3([H])C([H])([H])C3([H])[H])c([H])c([H])c2C1([H])[H]

$$$$
25:0:0
     RDKit          3D

 90 99  0  0  1  0  0  0  0  0999 V2000
  -30.6310  -15.7560   20.1350 C   0  0  0  0  0  0  0  0  0  0  0  0
  -30.6220  -13.2720   19.3530 C   0  0  0  0  0  2  0  0  0  0  0  0
  -29.7250  -12.9280   18.1390 C   0  0  0  0  0  2  0  0  0  0  0  0
  -28.2980  -12.6180   18.6080 C   0  0  0  0  0  2  0  0  0  0  0  0
  -27.7980  -13.6500   19.6500 C   0  0  0  0  0  3  0  0  0  0  0  0
  -28.8270  -13.9350   20.7650 C   0  0  0  0  0  2  0  0  0  0  0  0
  -30.0260  -14.4600   20.0870 N   0  0  0  0  0  0  0  0  0  0  0  0
  -31.8630  -15.6590   20.0060 O   0  0  0  0  0  0  0  0  0  0  0  0
  -26.4150  -23.1610   20.7600 C   0  0  0  0  0  3  0  0  0  0  0  0
  -28.3370  -22.1150   20.1030 C   0  0  0  0  0  0  0  0  0  0  0  0
  -27.9450  -24.6250   19.9720 C   0  0  0  0  0  0  0  0  0  0  0  0
  -30.1640  -19.9680   19.4090 C   0  0  0  0  0  3  0  0  0  0  0  0
  -28.2900  -19.3700   20.6070 C   0  0  0  0  0  3  0  0  0  0  0  0
  -30.7910  -18.4930   19.9770 C   0  0  0  0  0  3  0  0  0  0  0  0
  -28.6180  -17.7640   20.1490 C   0  0  0  0  0  3  0  0  0  0  0  0
  -25.0220  -23.0010   21.3340 C   0  0  0  0  0  1  0  0  0  0  0  0
  -27.1140  -22.0320   20.6100 N   0  0  0  0  0  0  0  0  0  0  0  0
  -26.7430  -24.4190   20.4820 N   0  0  0  0  0  0  0  0  0  0  0  0
  -28.7980  -23.4520   19.7670 N   0  0  0  0  0  0  0  0  0  0  0  0
  -28.9510  -20.6470   20.0370 N   0  0  0  0  0  0  0  0  0  0  0  0
  -30.0210  -17.1420   20.0930 N   0  0  0  0  0  0  0  0  0  0  0  0
  -25.4280  -14.1830   20.4090 C   0  0  0  0  0  0  0  0  0  0  0  0
  -24.3730  -13.3970   20.7750 C   0  0  0  0  0  0  0  0  0  0  0  0
  -24.8570  -12.0520   20.7530 C   0  0  0  0  0  0  0  0  0  0  0  0
  -26.4800  -13.3190   20.1700 N   0  0  0  0  0  0  0  0  0  0  0  0
  -26.1500  -12.0310   20.4490 N   0  0  0  0  0  0  0  0  0  0  0  0
  -24.1440  -10.7810   20.9460 C   0  0  0  0  0  0  0  0  0  0  0  0
  -24.5570   -9.8370   21.9110 C   0  0  0  0  0  3  0  0  0  0  0  0
  -23.8400   -8.6350   22.0900 C   0  0  0  0  0  3  0  0  0  0  0  0
  -22.6950   -8.3670   21.3040 C   0  0  0  0  0  0  0  0  0  0  0  0
  -22.3020   -9.2990   20.3270 C   0  0  0  0  0  3  0  0  0  0  0  0
  -23.0190  -10.4940   20.1470 C   0  0  0  0  0  3  0  0  0  0  0  0
  -21.9510   -7.2160   21.3920 O   0  0  0  0  0  0  0  0  0  0  0  0
  -21.8540   -6.5090   22.5630 C   0  0  0  0  0  0  0  0  0  0  0  0
  -21.3130   -7.0790   23.7360 C   0  0  0  0  0  3  0  0  0  0  0  0
  -21.1730   -6.2940   24.8990 C   0  0  0  0  0  3  0  0  0  0  0  0
  -21.5630   -4.9420   24.8870 C   0  0  0  0  0  0  0  0  0  0  0  0
  -22.0940   -4.3720   23.7170 C   0  0  0  0  0  3  0  0  0  0  0  0
  -22.2350   -5.1530   22.5570 C   0  0  0  0  0  0  0  0  0  0  0  0
  -22.7310   -4.5930   21.4270 F   0  0  0  0  0  0  0  0  0  0  0  0
  -21.4180   -4.1850   26.0000 F   0  0  0  0  0  0  0  0  0  0  0  0
  -22.9700  -13.8590   21.0290 C   0  0  0  0  0  0  0  0  0  0  0  0
  -22.2480  -13.1620   21.9000 N   0  0  0  0  0  0  0  0  0  0  0  0
  -22.5240  -14.8710   20.4910 O   0  0  0  0  0  0  0  0  0  0  0  0
  -22.6270  -12.3400   22.3480 H   0  0  0  0  0  0  0  0  0  0  0  0
  -21.3080  -13.4520   22.1220 H   0  0  0  0  0  0  0  0  0  0  0  0
  -25.5830  -15.5540   20.2280 N   0  0  0  0  0  0  0  0  0  0  0  0
  -24.8170  -16.2070   20.3420 H   0  0  0  0  0  0  0  0  0  0  0  0
  -26.4300  -15.9860   19.8890 H   0  0  0  0  0  0  0  0  0  0  0  0
  -28.2190  -26.1030   19.7500 O   0  0  0  0  0  0  0  0  0  0  0  0
  -24.8750  -31.8870   23.4740 C   0  0  0  0  0  0  0  0  0  0  0  0
  -27.2560  -27.2580   19.8970 C   0  0  0  0  0  0  0  0  0  0  0  0
  -23.6280  -30.7010   21.7170 C   0  0  0  0  0  3  0  0  0  0  0  0
  -25.0190  -29.2280   20.1020 C   0  0  0  0  0  0  0  0  0  0  0  0
  -26.2010  -30.8490   21.5600 C   0  0  0  0  0  2  0  0  0  0  0  0
  -26.2250  -29.5120   20.7550 C   0  0  0  0  0  0  0  0  0  0  0  0
  -27.3360  -28.5500   20.6350 C   0  0  0  0  0  3  0  0  0  0  0  0
  -26.0310  -27.1700   19.1920 C   0  0  0  0  0  3  0  0  0  0  0  0
  -24.9480  -28.0770   19.3070 C   0  0  0  0  0  3  0  0  0  0  0  0
  -23.8250  -30.1710   20.2710 C   0  0  0  0  0  2  0  0  0  0  0  0
  -24.9260  -31.1690   22.3060 N   0  0  0  0  0  0  0  0  0  0  0  0
  -23.8000  -32.1470   24.0390 O   0  0  0  0  0  0  0  0  0  0  0  0
  -22.9230  -29.6230   22.5810 C   0  0  0  0  0  0  0  0  0  0  0  0
  -21.6040  -29.4420   22.3950 N   0  0  0  0  0  0  0  0  0  0  0  0
  -23.5720  -28.9530   23.3890 O   0  0  0  0  0  0  0  0  0  0  0  0
  -21.1350  -30.0280   21.7200 H   0  0  0  0  0  0  0  0  0  0  0  0
  -18.2250  -28.1560   22.7180 C   0  0  0  0  0  0  0  0  0  0  0  0
  -20.7750  -28.4310   23.0640 C   0  0  0  0  0  3  0  0  0  0  0  0
  -20.9090  -27.0520   22.3740 C   0  0  0  0  0  2  0  0  0  0  0  0
  -19.8360  -26.8050   21.3070 C   0  0  0  0  0  2  0  0  0  0  0  0
  -18.4370  -26.8790   21.9230 C   0  0  0  0  0  2  0  0  0  0  0  0
  -19.3230  -28.8940   23.2370 C   0  0  0  0  0  0  0  0  0  0  0  0
  -19.0690  -30.0940   23.9380 C   0  0  0  0  0  3  0  0  0  0  0  0
  -17.7520  -30.5540   24.1220 C   0  0  0  0  0  3  0  0  0  0  0  0
  -16.6700  -29.8130   23.6150 C   0  0  0  0  0  3  0  0  0  0  0  0
  -16.9060  -28.6140   22.9190 C   0  0  0  0  0  3  0  0  0  0  0  0
  -26.1680  -32.4330   24.1520 C   0  0  0  0  0  3  0  0  0  0  0  0
  -25.8970  -33.8080   24.6040 N   0  0  0  0  0  0  0  0  0  0  0  0
  -26.2070  -34.9180   23.9200 C   0  0  0  0  0  0  0  0  0  0  0  0
  -26.8140  -34.8890   22.8460 O   0  0  0  0  0  0  0  0  0  0  0  0
  -25.3450  -33.9030   25.4440 H   0  0  0  0  0  0  0  0  0  0  0  0
  -24.4800  -36.7510   23.8560 C   0  0  0  0  0  1  0  0  0  0  0  0
  -25.7820  -36.2750   24.5190 C   0  0  0  0  0  3  0  0  0  0  0  0
  -27.9820  -37.0990   25.2380 C   0  0  0  0  0  1  0  0  0  0  0  0
  -26.8160  -37.3270   24.3890 N   0  0  0  0  0  0  0  0  0  0  0  0
  -26.4310  -38.2390   24.6200 H   0  0  0  0  0  0  0  0  0  0  0  0
  -26.6470  -31.5490   25.3690 C   0  0  1  0  0  0  0  0  0  0  0  0
  -25.5390  -31.2710   26.4130 C   0  0  0  0  0  1  0  0  0  0  0  0
  -27.1840  -30.1820   24.8850 C   0  0  0  0  0  1  0  0  0  0  0  0
  -27.8210  -32.2490   26.0950 C   0  0  0  0  0  1  0  0  0  0  0  0
  2  7  1  0
  3  4  1  0
  3  2  1  0
  5  4  1  0
  5 25  1  0
  5  6  1  0
  7  1  1  0
  7  6  1  0
  8  1  2  0
  9 16  1  0
 10 17  2  0
 11 18  2  0
 12 14  2  0
 12 20  1  0
 14 21  1  0
 15 13  2  0
 17  9  1  0
 18  9  1  0
 19 11  2  0
 19 10  1  0
 20 10  1  0
 20 13  1  0
 21  1  1  0
 21 15  1  0
 22 23  2  0
 23 42  1  0
 24 23  1  0
 24 27  1  0
 25 22  1  0
 25 26  1  0
 26 24  2  0
 27 28  1  0
 28 29  2  0
 30 33  1  0
 30 29  1  0
 31 30  2  0
 32 31  1  0
 32 27  2  0
 33 34  1  0
 34 35  1  0
 35 36  2  0
 37 36  1  0
 37 41  1  0
 38 37  2  0
 39 34  2  0
 39 38  1  0
 40 39  1  0
 42 43  1  0
 43 46  1  0
 43 45  1  0
 44 42  2  0
 47 48  1  0
 47 22  1  0
 49 47  1  0
 50 52  1  0
 50 11  1  0
 51 62  2  0
 52 57  1  0
 53 61  1  0
 53 63  1  0
 54 60  1  0
 54 56  1  0
 55 61  1  0
 56 55  1  0
 57 56  2  0
 58 59  1  0
 58 52  2  0
 59 54  2  0
 60 53  1  0
 61 51  1  0
 63 65  2  0
 64 63  1  0
 66 64  1  0
 67 76  2  0
 67 72  1  0
 68 64  1  0
 68 72  1  0
 69 68  1  0
 70 71  1  0
 70 69  1  0
 71 67  1  0
 72 73  2  0
 73 74  1  0
 75 74  2  0
 76 75  1  0
 77 51  1  0
 77 78  1  0
 77 87  1  0
 78 81  1  0
 79 83  1  0
 79 78  1  0
 80 79  2  0
 83 82  1  0
 85 83  1  0
 85 86  1  0
 85 84  1  0
 87 90  1  1
 87 88  1  0
 89 87  1  0
M  ISO  4   1 100  11 101  21 100  50 101
M  END
>  <TORSDO>  (26) 
F 15

>  <SCORE>  (26) 
-14.751

>  <name>  (26) 
25

>  <ligand_id>  (26) 
25

>  <original_smiles>  (26) 
[H]c1c([H])c([H])c2c(c1[H])C([H])([H])C([H])([H])C([H])([H])C2([H])N([H])C(=O)C1([H])N(C(=O)C([H])(N([H])C(=O)C([H])(N([H])C([H])([H])[H])C([H])([H])[H])C(C([H])([H])[H])(C([H])([H])[H])C([H])([H])[H])C([H])([H])c2c([H])c(Oc3nc(N4C([H])([H])C([H])([H])N(C(=O)N5C([H])([H])C([H])([H])C([H])([H])C([H])(n6nc(-c7c([H])c([H])c(Oc8c([H])c([H])c(F)c([H])c8F)c([H])c7[H])c(C(=O)N([H])[H])c6N([H])[H])C5([H])[H])C([H])([H])C4([H])[H])nc(C([H])([H])[H])n3)c([H])c([H])c2C1([H])[H]

>  <smiles>  (26) 
[H]c1c([H])c([H])c2c(c1[H])C([H])([H])C([H])([H])C([H])([H])C2([H])N([H])C(=O)C1([H])N(C(=O)C([H])(N([H])C(=O)C([H])(N([H])C([H])([H])[H])C([H])([H])[H])C(C([H])([H])[H])(C([H])([H])[H])C([H])([H])[H])C([H])([H])c2c([H])c(Oc3nc(N4C([H])([H])C([H])([H])N(C(=O)N5C([H])([H])C([H])([H])C([H])([H])C([H])(n6nc(-c7c([H])c([H])c(Oc8c([H])c([H])c(F)c([H])c8F)c([H])c7[H])c(C(=O)N([H])[H])c6N([H])[H])C5([H])[H])C([H])([H])C4([H])[H])nc(C([H])([H])[H])n3)c([H])c([H])c2C1([H])[H]

$$$$
26:0:0
     RDKit          3D

 87 95  0  0  1  0  0  0  0  0999 V2000
  -28.6710  -21.0470   19.8780 N   0  0  0  0  0  4  0  0  0  0  0  0
  -27.6710  -20.9150   19.8860 H   0  0  0  0  0  0  0  0  0  0  0  0
  -28.9060  -21.1140   18.9000 H   0  0  0  0  0  0  0  0  0  0  0  0
  -30.4410  -15.3740   19.7820 C   0  0  0  0  0  0  0  0  0  0  0  0
  -30.3740  -12.9270   18.8570 C   0  0  0  0  0  2  0  0  0  0  0  0
  -29.3570  -12.7160   17.7050 C   0  0  0  0  0  2  0  0  0  0  0  0
  -27.9560  -12.4260   18.2670 C   0  0  0  0  0  2  0  0  0  0  0  0
  -27.6050  -13.3640   19.4510 C   0  0  0  0  0  3  0  0  0  0  0  0
  -28.7440  -13.4900   20.4850 C   0  0  0  0  0  2  0  0  0  0  0  0
  -29.8930  -14.0520   19.7580 N   0  0  0  0  0  0  0  0  0  0  0  0
  -31.6030  -15.3780   19.3340 O   0  0  0  0  0  0  0  0  0  0  0  0
  -28.2690  -18.5660   21.0860 C   0  0  0  0  0  2  0  0  0  0  0  0
  -28.8290  -17.0520   21.1440 C   0  0  0  0  0  2  0  0  0  0  0  0
  -29.8200  -18.1980   19.4350 C   0  0  0  0  0  2  0  0  0  0  0  0
  -29.2580  -19.5410   20.3700 C   0  0  0  0  0  3  0  0  0  0  0  0
  -29.7150  -16.6810   20.0000 N   0  0  0  0  0  0  0  0  0  0  0  0
  -25.3280  -13.9050   20.4490 C   0  0  0  0  0  0  0  0  0  0  0  0
  -24.2990  -13.1210   20.8850 C   0  0  0  0  0  0  0  0  0  0  0  0
  -24.7420  -11.7700   20.7430 C   0  0  0  0  0  0  0  0  0  0  0  0
  -26.3310  -13.0340   20.0650 N   0  0  0  0  0  0  0  0  0  0  0  0
  -25.9960  -11.7390   20.3040 N   0  0  0  0  0  0  0  0  0  0  0  0
  -24.0210  -10.5080   20.9430 C   0  0  0  0  0  0  0  0  0  0  0  0
  -24.4890   -9.5200   21.8380 C   0  0  0  0  0  3  0  0  0  0  0  0
  -23.7620   -8.3260   22.0280 C   0  0  0  0  0  3  0  0  0  0  0  0
  -22.5530   -8.1090   21.3240 C   0  0  0  0  0  0  0  0  0  0  0  0
  -22.1030   -9.0880   20.4200 C   0  0  0  0  0  3  0  0  0  0  0  0
  -22.8290  -10.2730   20.2270 C   0  0  0  0  0  3  0  0  0  0  0  0
  -21.7930   -6.9700   21.4280 O   0  0  0  0  0  0  0  0  0  0  0  0
  -21.7360   -6.2480   22.5930 C   0  0  0  0  0  0  0  0  0  0  0  0
  -21.2950   -6.8220   23.8060 C   0  0  0  0  0  3  0  0  0  0  0  0
  -21.1810   -6.0250   24.9610 C   0  0  0  0  0  3  0  0  0  0  0  0
  -21.5010   -4.6540   24.9040 C   0  0  0  0  0  0  0  0  0  0  0  0
  -21.9380   -4.0810   23.6980 C   0  0  0  0  0  3  0  0  0  0  0  0
  -22.0520   -4.8740   22.5440 C   0  0  0  0  0  0  0  0  0  0  0  0
  -22.4490   -4.3130   21.3770 F   0  0  0  0  0  0  0  0  0  0  0  0
  -21.3870   -3.8880   26.0140 F   0  0  0  0  0  0  0  0  0  0  0  0
  -22.9430  -13.6000   21.3070 C   0  0  0  0  0  0  0  0  0  0  0  0
  -22.2960  -12.8820   22.2160 N   0  0  0  0  0  0  0  0  0  0  0  0
  -22.4710  -14.6500   20.8710 O   0  0  0  0  0  0  0  0  0  0  0  0
  -22.6980  -12.0400   22.6020 H   0  0  0  0  0  0  0  0  0  0  0  0
  -21.3920  -13.1910   22.5470 H   0  0  0  0  0  0  0  0  0  0  0  0
  -25.4770  -15.2790   20.3100 N   0  0  0  0  0  0  0  0  0  0  0  0
  -24.7020  -15.9030   20.4950 H   0  0  0  0  0  0  0  0  0  0  0  0
  -26.2400  -15.7310   19.8220 H   0  0  0  0  0  0  0  0  0  0  0  0
  -28.8430  -22.6160   20.4690 C   0  0  0  0  0  3  0  0  0  0  0  0
  -27.9680  -24.1680   20.0560 C   0  0  0  0  0  3  0  0  0  0  0  0
  -28.1700  -25.8030   20.3440 O   0  0  0  0  0  0  0  0  0  0  0  0
  -24.6210  -31.8290   23.1980 C   0  0  0  0  0  0  0  0  0  0  0  0
  -27.1840  -26.9270   20.2240 C   0  0  0  0  0  0  0  0  0  0  0  0
  -23.4430  -30.4390   21.5400 C   0  0  0  0  0  3  0  0  0  0  0  0
  -24.9060  -28.8400   20.1230 C   0  0  0  0  0  0  0  0  0  0  0  0
  -26.0090  -30.6460   21.4260 C   0  0  0  0  0  2  0  0  0  0  0  0
  -26.0850  -29.2330   20.7720 C   0  0  0  0  0  0  0  0  0  0  0  0
  -27.2170  -28.2970   20.7970 C   0  0  0  0  0  3  0  0  0  0  0  0
  -25.9840  -26.6980   19.5170 C   0  0  0  0  0  3  0  0  0  0  0  0
  -24.8860  -27.5970   19.4720 C   0  0  0  0  0  3  0  0  0  0  0  0
  -23.6890  -29.7680   20.1600 C   0  0  0  0  0  2  0  0  0  0  0  0
  -24.7110  -31.0000   22.1090 N   0  0  0  0  0  0  0  0  0  0  0  0
  -23.5280  -32.1150   23.7140 O   0  0  0  0  0  0  0  0  0  0  0  0
  -22.7400  -29.4370   22.4950 C   0  0  0  0  0  0  0  0  0  0  0  0
  -21.4120  -29.2680   22.3560 N   0  0  0  0  0  0  0  0  0  0  0  0
  -23.4000  -28.8130   23.3300 O   0  0  0  0  0  0  0  0  0  0  0  0
  -20.9290  -29.8250   21.6640 H   0  0  0  0  0  0  0  0  0  0  0  0
  -18.0330  -28.0390   22.8250 C   0  0  0  0  0  0  0  0  0  0  0  0
  -20.5870  -28.3280   23.1210 C   0  0  0  0  0  3  0  0  0  0  0  0
  -20.7080  -26.8950   22.5520 C   0  0  0  0  0  2  0  0  0  0  0  0
  -19.6220  -26.5600   21.5240 C   0  0  0  0  0  2  0  0  0  0  0  0
  -18.2320  -26.6920   22.1500 C   0  0  0  0  0  2  0  0  0  0  0  0
  -19.1390  -28.8150   23.2670 C   0  0  0  0  0  0  0  0  0  0  0  0
  -18.8980  -30.0720   23.8630 C   0  0  0  0  0  3  0  0  0  0  0  0
  -17.5850  -30.5560   24.0160 C   0  0  0  0  0  3  0  0  0  0  0  0
  -16.4940  -29.7790   23.5880 C   0  0  0  0  0  3  0  0  0  0  0  0
  -16.7200  -28.5220   22.9990 C   0  0  0  0  0  3  0  0  0  0  0  0
  -25.8870  -32.4720   23.8400 C   0  0  0  0  0  3  0  0  0  0  0  0
  -25.5770  -33.8800   24.1460 N   0  0  0  0  0  0  0  0  0  0  0  0
  -25.9040  -34.9240   23.3740 C   0  0  0  0  0  0  0  0  0  0  0  0
  -26.5600  -34.8050   22.3360 O   0  0  0  0  0  0  0  0  0  0  0  0
  -24.9930  -34.0450   24.9520 H   0  0  0  0  0  0  0  0  0  0  0  0
  -24.1650  -36.7200   23.0450 C   0  0  0  0  0  1  0  0  0  0  0  0
  -25.4300  -36.3220   23.8230 C   0  0  0  0  0  3  0  0  0  0  0  0
  -27.5810  -37.2370   24.5800 C   0  0  0  0  0  1  0  0  0  0  0  0
  -26.4560  -37.3750   23.6600 N   0  0  0  0  0  0  0  0  0  0  0  0
  -26.0490  -38.2960   23.7930 H   0  0  0  0  0  0  0  0  0  0  0  0
  -26.3670  -31.7260   25.1470 C   0  0  1  0  0  0  0  0  0  0  0  0
  -25.2470  -31.5240   26.1940 C   0  0  0  0  0  1  0  0  0  0  0  0
  -26.9460  -30.3330   24.8110 C   0  0  0  0  0  1  0  0  0  0  0  0
  -27.5050  -32.5290   25.8250 C   0  0  0  0  0  1  0  0  0  0  0  0
  1  2  1  0
  1 45  1  0
  3  1  1  0
  4 16  1  0
  5 10  1  0
  6  7  1  0
  6  5  1  0
  8  7  1  0
  8 20  1  0
  8  9  1  0
 10  4  1  0
 10  9  1  0
 11  4  2  0
 12 13  1  0
 14 16  1  0
 14 15  1  0
 15  1  1  0
 15 12  1  0
 16 13  1  0
 17 18  2  0
 18 37  1  0
 19 18  1  0
 19 22  1  0
 20 21  1  0
 20 17  1  0
 21 19  2  0
 22 23  1  0
 23 24  2  0
 25 28  1  0
 25 24  1  0
 26 25  2  0
 27 26  1  0
 27 22  2  0
 28 29  1  0
 29 30  1  0
 30 31  2  0
 32 31  1  0
 32 36  1  0
 33 32  2  0
 34 29  2  0
 34 33  1  0
 35 34  1  0
 37 38  1  0
 38 41  1  0
 38 40  1  0
 39 37  2  0
 42 17  1  0
 42 43  1  0
 44 42  1  0
 46 47  1  0
 46 45  2  0
 48 59  2  0
 49 47  1  0
 49 54  1  0
 50 58  1  0
 50 60  1  0
 51 57  1  0
 51 53  1  0
 52 58  1  0
 53 54  2  0
 53 52  1  0
 55 49  2  0
 56 55  1  0
 56 51  2  0
 57 50  1  0
 58 48  1  0
 60 62  2  0
 61 60  1  0
 63 61  1  0
 64 73  2  0
 64 69  1  0
 65 61  1  0
 65 69  1  0
 66 65  1  0
 67 68  1  0
 67 66  1  0
 68 64  1  0
 69 70  2  0
 70 71  1  0
 72 71  2  0
 73 72  1  0
 74 48  1  0
 74 75  1  0
 74 84  1  0
 75 78  1  0
 76 80  1  0
 76 75  1  0
 77 76  2  0
 80 79  1  0
 82 83  1  0
 82 80  1  0
 82 81  1  0
 84 87  1  1
 84 85  1  0
 86 84  1  0
M  ISO  4   4 100  16 100  46 101  47 101
M  END
>  <TORSDO>  (27) 
F 18

>  <SCORE>  (27) 
-15.235

>  <name>  (27) 
26

>  <ligand_id>  (27) 
26

>  <original_smiles>  (27) 
[H]c1c([H])c([H])c2c(c1[H])C([H])([H])C([H])([H])C([H])([H])C2([H])N([H])C(=O)C1([H])N(C(=O)C([H])(N([H])C(=O)C([H])(N([H])C([H])([H])[H])C([H])([H])[H])C(C([H])([H])[H])(C([H])([H])[H])C([H])([H])[H])C([H])([H])c2c([H])c(OC([H])([H])C([H])([H])[N+]([H])([H])C3([H])C([H])([H])N(C(=O)N4C([H])([H])C([H])([H])C([H])([H])C([H])(n5nc(-c6c([H])c([H])c(Oc7c([H])c([H])c(F)c([H])c7F)c([H])c6[H])c(C(=O)N([H])[H])c5N([H])[H])C4([H])[H])C([H])([H])C3([H])[H])c([H])c([H])c2C1([H])[H]

>  <smiles>  (27) 
[H]c1c([H])c([H])c2c(c1[H])C([H])([H])C([H])([H])C([H])([H])C2([H])N([H])C(=O)C1([H])N(C(=O)C([H])(N([H])C(=O)C([H])(N([H])C([H])([H])[H])C([H])([H])[H])C(C([H])([H])[H])(C([H])([H])[H])C([H])([H])[H])C([H])([H])c2c([H])c(OC([H])([H])C([H])([H])[N+]([H])([H])C3([H])C([H])([H])N(C(=O)N4C([H])([H])C([H])([H])C([H])([H])C([H])(n5nc(-c6c([H])c([H])c(Oc7c([H])c([H])c(F)c([H])c7F)c([H])c6[H])c(C(=O)N([H])[H])c5N([H])[H])C4([H])[H])C([H])([H])C3([H])[H])c([H])c([H])c2C1([H])[H]

$$$$
27:0:0
     RDKit          3D

 90 99  0  0  1  0  0  0  0  0999 V2000
  -30.6310  -15.7560   20.1350 C   0  0  0  0  0  0  0  0  0  0  0  0
  -30.6220  -13.2720   19.3530 C   0  0  0  0  0  2  0  0  0  0  0  0
  -29.7250  -12.9280   18.1390 C   0  0  0  0  0  2  0  0  0  0  0  0
  -28.2980  -12.6180   18.6080 C   0  0  0  0  0  2  0  0  0  0  0  0
  -27.7980  -13.6500   19.6500 C   0  0  0  0  0  3  0  0  0  0  0  0
  -28.8270  -13.9350   20.7650 C   0  0  0  0  0  2  0  0  0  0  0  0
  -30.0260  -14.4600   20.0870 N   0  0  0  0  0  0  0  0  0  0  0  0
  -31.8630  -15.6590   20.0060 O   0  0  0  0  0  0  0  0  0  0  0  0
  -26.4150  -23.1610   20.7600 C   0  0  0  0  0  3  0  0  0  0  0  0
  -28.3370  -22.1150   20.1030 C   0  0  0  0  0  0  0  0  0  0  0  0
  -27.9450  -24.6250   19.9720 C   0  0  0  0  0  0  0  0  0  0  0  0
  -30.1640  -19.9680   19.4090 C   0  0  0  0  0  3  0  0  0  0  0  0
  -28.2900  -19.3700   20.6070 C   0  0  0  0  0  3  0  0  0  0  0  0
  -30.7910  -18.4930   19.9770 C   0  0  0  0  0  3  0  0  0  0  0  0
  -28.6180  -17.7640   20.1490 C   0  0  0  0  0  3  0  0  0  0  0  0
  -25.0220  -23.0010   21.3340 C   0  0  0  0  0  1  0  0  0  0  0  0
  -27.1140  -22.0320   20.6100 N   0  0  0  0  0  0  0  0  0  0  0  0
  -26.7430  -24.4190   20.4820 N   0  0  0  0  0  0  0  0  0  0  0  0
  -28.7980  -23.4520   19.7670 N   0  0  0  0  0  0  0  0  0  0  0  0
  -28.9510  -20.6470   20.0370 N   0  0  0  0  0  0  0  0  0  0  0  0
  -30.0210  -17.1420   20.0930 N   0  0  0  0  0  0  0  0  0  0  0  0
  -25.4280  -14.1830   20.4090 C   0  0  0  0  0  0  0  0  0  0  0  0
  -24.3730  -13.3970   20.7750 C   0  0  0  0  0  0  0  0  0  0  0  0
  -24.8570  -12.0520   20.7530 C   0  0  0  0  0  0  0  0  0  0  0  0
  -26.4800  -13.3190   20.1700 N   0  0  0  0  0  0  0  0  0  0  0  0
  -26.1500  -12.0310   20.4490 N   0  0  0  0  0  0  0  0  0  0  0  0
  -24.1440  -10.7810   20.9460 C   0  0  0  0  0  0  0  0  0  0  0  0
  -24.5570   -9.8370   21.9110 C   0  0  0  0  0  3  0  0  0  0  0  0
  -23.8400   -8.6350   22.0900 C   0  0  0  0  0  3  0  0  0  0  0  0
  -22.6950   -8.3670   21.3040 C   0  0  0  0  0  0  0  0  0  0  0  0
  -22.3020   -9.2990   20.3270 C   0  0  0  0  0  3  0  0  0  0  0  0
  -23.0190  -10.4940   20.1470 C   0  0  0  0  0  3  0  0  0  0  0  0
  -21.9510   -7.2160   21.3920 O   0  0  0  0  0  0  0  0  0  0  0  0
  -21.8540   -6.5090   22.5630 C   0  0  0  0  0  0  0  0  0  0  0  0
  -21.3130   -7.0790   23.7360 C   0  0  0  0  0  3  0  0  0  0  0  0
  -21.1730   -6.2940   24.8990 C   0  0  0  0  0  3  0  0  0  0  0  0
  -21.5630   -4.9420   24.8870 C   0  0  0  0  0  0  0  0  0  0  0  0
  -22.0940   -4.3720   23.7170 C   0  0  0  0  0  3  0  0  0  0  0  0
  -22.2350   -5.1530   22.5570 C   0  0  0  0  0  0  0  0  0  0  0  0
  -22.7310   -4.5930   21.4270 F   0  0  0  0  0  0  0  0  0  0  0  0
  -21.4180   -4.1850   26.0000 F   0  0  0  0  0  0  0  0  0  0  0  0
  -22.9700  -13.8590   21.0290 C   0  0  0  0  0  0  0  0  0  0  0  0
  -22.2480  -13.1620   21.9000 N   0  0  0  0  0  0  0  0  0  0  0  0
  -22.5240  -14.8710   20.4910 O   0  0  0  0  0  0  0  0  0  0  0  0
  -22.6270  -12.3400   22.3480 H   0  0  0  0  0  0  0  0  0  0  0  0
  -21.3080  -13.4520   22.1220 H   0  0  0  0  0  0  0  0  0  0  0  0
  -25.5830  -15.5540   20.2280 N   0  0  0  0  0  0  0  0  0  0  0  0
  -24.8170  -16.2070   20.3420 H   0  0  0  0  0  0  0  0  0  0  0  0
  -26.4300  -15.9860   19.8890 H   0  0  0  0  0  0  0  0  0  0  0  0
  -28.2190  -26.1030   19.7500 O   0  0  0  0  0  0  0  0  0  0  0  0
  -24.8750  -31.8870   23.4740 C   0  0  0  0  0  0  0  0  0  0  0  0
  -27.2560  -27.2580   19.8970 C   0  0  0  0  0  0  0  0  0  0  0  0
  -23.6280  -30.7010   21.7170 C   0  0  0  0  0  3  0  0  0  0  0  0
  -25.0190  -29.2280   20.1020 C   0  0  0  0  0  0  0  0  0  0  0  0
  -26.2010  -30.8490   21.5600 C   0  0  0  0  0  2  0  0  0  0  0  0
  -26.2250  -29.5120   20.7550 C   0  0  0  0  0  0  0  0  0  0  0  0
  -27.3360  -28.5500   20.6350 C   0  0  0  0  0  3  0  0  0  0  0  0
  -26.0310  -27.1700   19.1920 C   0  0  0  0  0  3  0  0  0  0  0  0
  -24.9480  -28.0770   19.3070 C   0  0  0  0  0  3  0  0  0  0  0  0
  -23.8250  -30.1710   20.2710 C   0  0  0  0  0  2  0  0  0  0  0  0
  -24.9260  -31.1690   22.3060 N   0  0  0  0  0  0  0  0  0  0  0  0
  -23.8000  -32.1470   24.0390 O   0  0  0  0  0  0  0  0  0  0  0  0
  -22.9230  -29.6230   22.5810 C   0  0  0  0  0  0  0  0  0  0  0  0
  -21.6040  -29.4420   22.3950 N   0  0  0  0  0  0  0  0  0  0  0  0
  -23.5720  -28.9530   23.3890 O   0  0  0  0  0  0  0  0  0  0  0  0
  -21.1350  -30.0280   21.7200 H   0  0  0  0  0  0  0  0  0  0  0  0
  -18.2250  -28.1560   22.7180 C   0  0  0  0  0  0  0  0  0  0  0  0
  -20.7750  -28.4310   23.0640 C   0  0  0  0  0  3  0  0  0  0  0  0
  -20.9090  -27.0520   22.3740 C   0  0  0  0  0  2  0  0  0  0  0  0
  -19.8360  -26.8050   21.3070 C   0  0  0  0  0  2  0  0  0  0  0  0
  -18.4370  -26.8790   21.9230 C   0  0  0  0  0  2  0  0  0  0  0  0
  -19.3230  -28.8940   23.2370 C   0  0  0  0  0  0  0  0  0  0  0  0
  -19.0690  -30.0940   23.9380 C   0  0  0  0  0  3  0  0  0  0  0  0
  -17.7520  -30.5540   24.1220 C   0  0  0  0  0  3  0  0  0  0  0  0
  -16.6700  -29.8130   23.6150 C   0  0  0  0  0  3  0  0  0  0  0  0
  -16.9060  -28.6140   22.9190 C   0  0  0  0  0  3  0  0  0  0  0  0
  -26.1680  -32.4330   24.1520 C   0  0  0  0  0  3  0  0  0  0  0  0
  -25.8970  -33.8080   24.6040 N   0  0  0  0  0  0  0  0  0  0  0  0
  -26.2070  -34.9180   23.9200 C   0  0  0  0  0  0  0  0  0  0  0  0
  -26.8140  -34.8890   22.8460 O   0  0  0  0  0  0  0  0  0  0  0  0
  -25.3450  -33.9030   25.4440 H   0  0  0  0  0  0  0  0  0  0  0  0
  -24.4800  -36.7510   23.8560 C   0  0  0  0  0  1  0  0  0  0  0  0
  -25.7820  -36.2750   24.5190 C   0  0  0  0  0  3  0  0  0  0  0  0
  -27.9820  -37.0990   25.2380 C   0  0  0  0  0  1  0  0  0  0  0  0
  -26.8160  -37.3270   24.3890 N   0  0  0  0  0  0  0  0  0  0  0  0
  -26.4310  -38.2390   24.6200 H   0  0  0  0  0  0  0  0  0  0  0  0
  -26.6470  -31.5490   25.3690 C   0  0  1  0  0  0  0  0  0  0  0  0
  -25.5390  -31.2710   26.4130 C   0  0  0  0  0  1  0  0  0  0  0  0
  -27.1840  -30.1820   24.8850 C   0  0  0  0  0  1  0  0  0  0  0  0
  -27.8210  -32.2490   26.0950 C   0  0  0  0  0  1  0  0  0  0  0  0
  2  7  1  0
  3  4  1  0
  3  2  1  0
  5  4  1  0
  5 25  1  0
  5  6  1  0
  7  1  1  0
  7  6  1  0
  8  1  2  0
  9 16  1  0
 10 17  2  0
 11 18  2  0
 12 14  2  0
 12 20  1  0
 14 21  1  0
 15 13  2  0
 17  9  1  0
 18  9  1  0
 19 11  2  0
 19 10  1  0
 20 10  1  0
 20 13  1  0
 21  1  1  0
 21 15  1  0
 22 23  2  0
 23 42  1  0
 24 23  1  0
 24 27  1  0
 25 22  1  0
 25 26  1  0
 26 24  2  0
 27 28  1  0
 28 29  2  0
 30 33  1  0
 30 29  1  0
 31 30  2  0
 32 31  1  0
 32 27  2  0
 33 34  1  0
 34 35  1  0
 35 36  2  0
 37 36  1  0
 37 41  1  0
 38 37  2  0
 39 34  2  0
 39 38  1  0
 40 39  1  0
 42 43  1  0
 43 46  1  0
 43 45  1  0
 44 42  2  0
 47 48  1  0
 47 22  1  0
 49 47  1  0
 50 52  1  0
 50 11  1  0
 51 62  2  0
 52 57  1  0
 53 61  1  0
 53 63  1  0
 54 60  1  0
 54 56  1  0
 55 61  1  0
 56 55  1  0
 57 56  2  0
 58 59  1  0
 58 52  2  0
 59 54  2  0
 60 53  1  0
 61 51  1  0
 63 65  2  0
 64 63  1  0
 66 64  1  0
 67 76  2  0
 67 72  1  0
 68 64  1  0
 68 72  1  0
 69 68  1  0
 70 71  1  0
 70 69  1  0
 71 67  1  0
 72 73  2  0
 73 74  1  0
 75 74  2  0
 76 75  1  0
 77 51  1  0
 77 78  1  0
 77 87  1  0
 78 81  1  0
 79 83  1  0
 79 78  1  0
 80 79  2  0
 83 82  1  0
 85 83  1  0
 85 86  1  0
 85 84  1  0
 87 90  1  1
 87 88  1  0
 89 87  1  0
M  ISO  4   1 100  11 101  21 100  50 101
M  END
>  <TORSDO>  (28) 
F 15

>  <SCORE>  (28) 
-14.751

>  <name>  (28) 
27

>  <ligand_id>  (28) 
27

>  <original_smiles>  (28) 
[H]c1c([H])c([H])c2c(c1[H])C([H])([H])C([H])([H])C([H])([H])C2([H])N([H])C(=O)C1([H])N(C(=O)C([H])(N([H])C(=O)C([H])(N([H])C([H])([H])[H])C([H])([H])[H])C(C([H])([H])[H])(C([H])([H])[H])C([H])([H])[H])C([H])([H])c2c([H])c(Oc3nc(N4C([H])([H])C([H])([H])N(C(=O)N5C([H])([H])C([H])([H])C([H])([H])C([H])(n6nc(-c7c([H])c([H])c(Oc8c([H])c([H])c(F)c([H])c8F)c([H])c7[H])c(C(=O)N([H])[H])c6N([H])[H])C5([H])[H])C([H])([H])C4([H])[H])nc(C([H])([H])[H])n3)c([H])c([H])c2C1([H])[H]

>  <smiles>  (28) 
[H]c1c([H])c([H])c2c(c1[H])C([H])([H])C([H])([H])C([H])([H])C2([H])N([H])C(=O)C1([H])N(C(=O)C([H])(N([H])C(=O)C([H])(N([H])C([H])([H])[H])C([H])([H])[H])C(C([H])([H])[H])(C([H])([H])[H])C([H])([H])[H])C([H])([H])c2c([H])c(Oc3nc(N4C([H])([H])C([H])([H])N(C(=O)N5C([H])([H])C([H])([H])C([H])([H])C([H])(n6nc(-c7c([H])c([H])c(Oc8c([H])c([H])c(F)c([H])c8F)c([H])c7[H])c(C(=O)N([H])[H])c6N([H])[H])C5([H])[H])C([H])([H])C4([H])[H])nc(C([H])([H])[H])n3)c([H])c([H])c2C1([H])[H]

$$$$
28:0:0
     RDKit          3D

 88 98  0  0  1  0  0  0  0  0999 V2000
  -29.0960  -21.8640   21.2640 C   0  0  0  0  0  3  0  0  0  0  0  0
  -28.5170  -21.6400   19.4050 C   0  0  0  0  0  3  0  0  0  0  0  0
  -28.8810  -23.0300   20.1620 C   0  0  0  0  0  3  0  0  0  0  0  0
  -29.4220  -20.7530   20.2560 N   0  0  2  0  0  4  0  0  0  0  0  0
  -30.3720  -20.8840   19.9410 H   0  0  0  0  0  0  0  0  0  0  0  0
  -30.4880  -15.1680   20.2460 C   0  0  0  0  0  0  0  0  0  0  0  0
  -30.3640  -12.7780   19.3230 C   0  0  0  0  0  2  0  0  0  0  0  0
  -29.4230  -12.6270   18.1060 C   0  0  0  0  0  2  0  0  0  0  0  0
  -27.9790  -12.3630   18.5690 C   0  0  0  0  0  2  0  0  0  0  0  0
  -27.5510  -13.3110   19.7160 C   0  0  0  0  0  3  0  0  0  0  0  0
  -28.6220  -13.4430   20.8220 C   0  0  0  0  0  2  0  0  0  0  0  0
  -29.8540  -13.9090   20.1680 N   0  0  0  0  0  0  0  0  0  0  0  0
  -31.7140  -15.1290   20.0720 O   0  0  0  0  0  0  0  0  0  0  0  0
  -28.2030  -18.3520   19.7000 C   0  0  0  0  0  2  0  0  0  0  0  0
  -28.4180  -16.7970   19.9770 C   0  0  0  0  0  2  0  0  0  0  0  0
  -30.3610  -17.9480   20.4540 C   0  0  0  0  0  2  0  0  0  0  0  0
  -29.2060  -19.1570   20.5450 C   0  0  0  0  0  3  0  0  0  0  0  0
  -29.8180  -16.4700   20.3360 N   0  0  0  0  0  0  0  0  0  0  0  0
  -25.1870  -13.8730   20.4990 C   0  0  0  0  0  0  0  0  0  0  0  0
  -24.1310  -13.0910   20.8750 C   0  0  0  0  0  0  0  0  0  0  0  0
  -24.6030  -11.7430   20.8310 C   0  0  0  0  0  0  0  0  0  0  0  0
  -26.2300  -13.0010   20.2420 N   0  0  0  0  0  0  0  0  0  0  0  0
  -25.8910  -11.7140   20.5100 N   0  0  0  0  0  0  0  0  0  0  0  0
  -23.8840  -10.4780   21.0160 C   0  0  0  0  0  0  0  0  0  0  0  0
  -24.3090   -9.5190   21.9610 C   0  0  0  0  0  3  0  0  0  0  0  0
  -23.5870   -8.3180   22.1350 C   0  0  0  0  0  3  0  0  0  0  0  0
  -22.4280   -8.0690   21.3630 C   0  0  0  0  0  0  0  0  0  0  0  0
  -22.0230   -9.0180   20.4080 C   0  0  0  0  0  3  0  0  0  0  0  0
  -22.7440  -10.2090   20.2320 C   0  0  0  0  0  3  0  0  0  0  0  0
  -21.6790   -6.9200   21.4470 O   0  0  0  0  0  0  0  0  0  0  0  0
  -21.5970   -6.1980   22.6110 C   0  0  0  0  0  0  0  0  0  0  0  0
  -21.1080   -6.7670   23.8070 C   0  0  0  0  0  3  0  0  0  0  0  0
  -20.9750   -5.9710   24.9620 C   0  0  0  0  0  3  0  0  0  0  0  0
  -21.3200   -4.6070   24.9210 C   0  0  0  0  0  0  0  0  0  0  0  0
  -21.8010   -4.0380   23.7290 C   0  0  0  0  0  3  0  0  0  0  0  0
  -21.9360   -4.8320   22.5760 C   0  0  0  0  0  0  0  0  0  0  0  0
  -22.3810   -4.2730   21.4240 F   0  0  0  0  0  0  0  0  0  0  0  0
  -21.1840   -3.8400   26.0270 F   0  0  0  0  0  0  0  0  0  0  0  0
  -22.7350  -13.5630   21.1570 C   0  0  0  0  0  0  0  0  0  0  0  0
  -22.0150  -12.8610   22.0250 N   0  0  0  0  0  0  0  0  0  0  0  0
  -22.2900  -14.5880   20.6420 O   0  0  0  0  0  0  0  0  0  0  0  0
  -22.3890  -12.0330   22.4630 H   0  0  0  0  0  0  0  0  0  0  0  0
  -21.0780  -13.1580   22.2570 H   0  0  0  0  0  0  0  0  0  0  0  0
  -25.3340  -15.2450   20.3230 N   0  0  0  0  0  0  0  0  0  0  0  0
  -24.5560  -15.8850   20.4400 H   0  0  0  0  0  0  0  0  0  0  0  0
  -26.1650  -15.6910   19.9590 H   0  0  0  0  0  0  0  0  0  0  0  0
  -27.9060  -24.4770   20.1950 C   0  0  0  0  0  2  0  0  0  0  0  0
  -28.2090  -26.0490   20.2690 O   0  0  0  0  0  0  0  0  0  0  0  0
  -24.6480  -31.9010   23.2380 C   0  0  0  0  0  0  0  0  0  0  0  0
  -27.1780  -27.0920   20.2150 C   0  0  0  0  0  0  0  0  0  0  0  0
  -23.4360  -30.5090   21.6070 C   0  0  0  0  0  3  0  0  0  0  0  0
  -24.8710  -28.9130   20.1820 C   0  0  0  0  0  0  0  0  0  0  0  0
  -25.9980  -30.7360   21.4400 C   0  0  0  0  0  2  0  0  0  0  0  0
  -26.0600  -29.3350   20.7890 C   0  0  0  0  0  0  0  0  0  0  0  0
  -27.2120  -28.4440   20.7820 C   0  0  0  0  0  3  0  0  0  0  0  0
  -25.9570  -26.7970   19.5670 C   0  0  0  0  0  3  0  0  0  0  0  0
  -24.8380  -27.6610   19.5530 C   0  0  0  0  0  3  0  0  0  0  0  0
  -23.6520  -29.8260   20.2310 C   0  0  0  0  0  2  0  0  0  0  0  0
  -24.7150  -31.0730   22.1490 N   0  0  0  0  0  0  0  0  0  0  0  0
  -23.5630  -32.1950   23.7670 O   0  0  0  0  0  0  0  0  0  0  0  0
  -22.7500  -29.5110   22.5760 C   0  0  0  0  0  0  0  0  0  0  0  0
  -21.4200  -29.3480   22.4540 N   0  0  0  0  0  0  0  0  0  0  0  0
  -23.4180  -28.8870   23.4040 O   0  0  0  0  0  0  0  0  0  0  0  0
  -20.9350  -29.9020   21.7610 H   0  0  0  0  0  0  0  0  0  0  0  0
  -18.0340  -28.1550   22.9680 C   0  0  0  0  0  0  0  0  0  0  0  0
  -20.5950  -28.4170   23.2300 C   0  0  0  0  0  3  0  0  0  0  0  0
  -20.6940  -26.9810   22.6630 C   0  0  0  0  0  2  0  0  0  0  0  0
  -19.5900  -26.6540   21.6520 C   0  0  0  0  0  2  0  0  0  0  0  0
  -18.2090  -26.8030   22.2960 C   0  0  0  0  0  2  0  0  0  0  0  0
  -19.1540  -28.9190   23.3920 C   0  0  0  0  0  0  0  0  0  0  0  0
  -18.9350  -30.1820   23.9820 C   0  0  0  0  0  3  0  0  0  0  0  0
  -17.6310  -30.6820   24.1520 C   0  0  0  0  0  3  0  0  0  0  0  0
  -16.5260  -29.9160   23.7420 C   0  0  0  0  0  3  0  0  0  0  0  0
  -16.7290  -28.6540   23.1570 C   0  0  0  0  0  3  0  0  0  0  0  0
  -25.9280  -32.5350   23.8610 C   0  0  0  0  0  3  0  0  0  0  0  0
  -25.6180  -33.9340   24.2020 N   0  0  0  0  0  0  0  0  0  0  0  0
  -25.9280  -34.9940   23.4430 C   0  0  0  0  0  0  0  0  0  0  0  0
  -26.5680  -34.8980   22.3940 O   0  0  0  0  0  0  0  0  0  0  0  0
  -25.0450  -34.0820   25.0190 H   0  0  0  0  0  0  0  0  0  0  0  0
  -24.1770  -36.7820   23.1670 C   0  0  0  0  0  1  0  0  0  0  0  0
  -25.4530  -36.3800   23.9240 C   0  0  0  0  0  3  0  0  0  0  0  0
  -27.6130  -37.2810   24.6700 C   0  0  0  0  0  1  0  0  0  0  0  0
  -26.4750  -37.4400   23.7690 N   0  0  0  0  0  0  0  0  0  0  0  0
  -26.0690  -38.3580   23.9290 H   0  0  0  0  0  0  0  0  0  0  0  0
  -26.4420  -31.7630   25.1380 C   0  0  1  0  0  0  0  0  0  0  0  0
  -25.3490  -31.5290   26.2080 C   0  0  0  0  0  1  0  0  0  0  0  0
  -27.0220  -30.3830   24.7530 C   0  0  0  0  0  1  0  0  0  0  0  0
  -27.5960  -32.5540   25.7990 C   0  0  0  0  0  1  0  0  0  0  0  0
  2  3  1  0
  2  4  1  0
  2  1  1  0
  3 47  1  0
  3  1  1  0
  4 17  1  0
  4  1  1  0
  4  5  1  6
  6 18  1  0
  7 12  1  0
  8  9  1  0
  8  7  1  0
  9 10  1  0
 10 22  1  0
 10 11  1  0
 12  6  1  0
 12 11  1  0
 13  6  2  0
 14 15  1  0
 14 17  1  0
 15 18  1  0
 16 17  1  0
 18 16  1  0
 19 20  2  0
 20 39  1  0
 21 20  1  0
 21 24  1  0
 22 19  1  0
 22 23  1  0
 23 21  2  0
 24 25  1  0
 25 26  2  0
 27 30  1  0
 27 26  1  0
 28 27  2  0
 29 28  1  0
 29 24  2  0
 30 31  1  0
 31 32  1  0
 32 33  2  0
 34 33  1  0
 34 38  1  0
 35 34  2  0
 36 31  2  0
 36 35  1  0
 37 36  1  0
 39 40  1  0
 40 43  1  0
 40 42  1  0
 41 39  2  0
 44 45  1  0
 44 19  1  0
 46 44  1  0
 47 48  1  0
 49 60  2  0
 49 75  1  0
 50 48  1  0
 50 55  1  0
 51 59  1  0
 51 61  1  0
 52 58  1  0
 52 54  1  0
 53 59  1  0
 54 53  1  0
 55 54  2  0
 56 50  2  0
 57 56  1  0
 57 52  2  0
 58 51  1  0
 59 49  1  0
 61 63  2  0
 62 61  1  0
 62 66  1  0
 64 62  1  0
 65 74  2  0
 65 70  1  0
 66 70  1  0
 67 66  1  0
 68 69  1  0
 68 67  1  0
 69 65  1  0
 70 71  2  0
 71 72  1  0
 73 72  2  0
 74 73  1  0
 75 76  1  0
 75 85  1  0
 76 79  1  0
 77 81  1  0
 77 76  1  0
 78 77  2  0
 80 81  1  0
 83 81  1  0
 83 84  1  0
 83 82  1  0
 85 88  1  1
 85 86  1  0
 87 85  1  0
M  ISO  4   6 100  18 100  47 101  48 101
M  END
>  <TORSDO>  (29) 
F 17

>  <SCORE>  (29) 
-15.769

>  <name>  (29) 
28

>  <ligand_id>  (29) 
28

>  <original_smiles>  (29) 
[H]c1c([H])c([H])c2c(c1[H])C([H])([H])C([H])([H])C([H])([H])C2([H])N([H])C(=O)C1([H])N(C(=O)C([H])(N([H])C(=O)C([H])(N([H])C([H])([H])[H])C([H])([H])[H])C(C([H])([H])[H])(C([H])([H])[H])C([H])([H])[H])C([H])([H])c2c([H])c(OC([H])([H])C3([H])C([H])([H])[N+]([H])(C4([H])C([H])([H])N(C(=O)N5C([H])([H])C([H])([H])C([H])([H])C([H])(n6nc(-c7c([H])c([H])c(Oc8c([H])c([H])c(F)c([H])c8F)c([H])c7[H])c(C(=O)N([H])[H])c6N([H])[H])C5([H])[H])C([H])([H])C4([H])[H])C3([H])[H])c([H])c([H])c2C1([H])[H]

>  <smiles>  (29) 
[H]c1c([H])c([H])c2c(c1[H])C([H])([H])C([H])([H])C([H])([H])C2([H])N([H])C(=O)C1([H])N(C(=O)C([H])(N([H])C(=O)C([H])(N([H])C([H])([H])[H])C([H])([H])[H])C(C([H])([H])[H])(C([H])([H])[H])C([H])([H])[H])C([H])([H])c2c([H])c(OC([H])([H])C3([H])C([H])([H])[N+]([H])(C4([H])C([H])([H])N(C(=O)N5C([H])([H])C([H])([H])C([H])([H])C([H])(n6nc(-c7c([H])c([H])c(Oc8c([H])c([H])c(F)c([H])c8F)c([H])c7[H])c(C(=O)N([H])[H])c6N([H])[H])C5([H])[H])C([H])([H])C4([H])[H])C3([H])[H])c([H])c([H])c2C1([H])[H]

$$$$
29:0:0
     RDKit          3D

 93102  0  0  1  0  0  0  0  0999 V2000
  -30.5860  -14.9830   20.3690 C   0  0  0  0  0  0  0  0  0  0  0  0
  -30.4260  -12.6410   19.4110 C   0  0  0  0  0  2  0  0  0  0  0  0
  -29.5160  -12.6010   18.1650 C   0  0  0  0  0  2  0  0  0  0  0  0
  -28.0480  -12.3900   18.5790 C   0  0  0  0  0  2  0  0  0  0  0  0
  -27.6260  -13.3110   19.7560 C   0  0  0  0  0  3  0  0  0  0  0  0
  -28.6680  -13.3460   20.8930 C   0  0  0  0  0  2  0  0  0  0  0  0
  -29.9440  -13.7470   20.2890 N   0  0  0  0  0  0  0  0  0  0  0  0
  -31.7990  -14.9830   20.1270 O   0  0  0  0  0  0  0  0  0  0  0  0
  -28.9860  -23.3670   20.1320 C   0  0  0  0  0  0  0  0  0  0  0  0
  -29.6480  -21.0650   20.0270 C   0  0  0  0  0  0  0  0  0  0  0  0
  -30.9170  -22.7340   19.2360 C   0  0  0  0  0  0  0  0  0  0  0  0
  -30.5090  -18.6650   19.4030 C   0  0  0  0  0  3  0  0  0  0  0  0
  -28.8900  -18.6640   21.1250 C   0  0  0  0  0  3  0  0  0  0  0  0
  -30.0210  -17.1590   19.1270 C   0  0  0  0  0  3  0  0  0  0  0  0
  -29.5520  -17.1810   21.4350 C   0  0  0  0  0  3  0  0  0  0  0  0
  -28.7040  -22.0120   20.4100 N   0  0  0  0  0  4  0  0  0  0  0  0
  -30.1170  -23.7330   19.5360 N   0  0  0  0  0  0  0  0  0  0  0  0
  -30.7730  -21.4390   19.4300 N   0  0  0  0  0  2  0  0  0  0  0  0
  -29.5760  -19.5710   20.1480 N   0  0  0  0  0  0  0  0  0  0  0  0
  -29.8730  -16.2250   20.2980 N   0  0  0  0  0  0  0  0  0  0  0  0
  -32.0850  -23.0910   18.6450 N   0  0  0  0  0  0  0  0  0  0  0  0
  -32.1250  -24.0020   18.2080 H   0  0  0  0  0  0  0  0  0  0  0  0
  -32.6090  -22.3590   18.1870 H   0  0  0  0  0  0  0  0  0  0  0  0
  -25.2300  -13.8690   20.4530 C   0  0  0  0  0  0  0  0  0  0  0  0
  -24.1660  -13.0870   20.8080 C   0  0  0  0  0  0  0  0  0  0  0  0
  -24.6450  -11.7410   20.8030 C   0  0  0  0  0  0  0  0  0  0  0  0
  -26.2860  -13.0000   20.2420 N   0  0  0  0  0  0  0  0  0  0  0  0
  -25.9430  -11.7140   20.5180 N   0  0  0  0  0  0  0  0  0  0  0  0
  -23.9250  -10.4740   20.9930 C   0  0  0  0  0  0  0  0  0  0  0  0
  -24.3440   -9.5230   21.9510 C   0  0  0  0  0  3  0  0  0  0  0  0
  -23.6250   -8.3220   22.1280 C   0  0  0  0  0  3  0  0  0  0  0  0
  -22.4710   -8.0640   21.3490 C   0  0  0  0  0  0  0  0  0  0  0  0
  -22.0730   -9.0030   20.3820 C   0  0  0  0  0  3  0  0  0  0  0  0
  -22.7920  -10.1960   20.2030 C   0  0  0  0  0  3  0  0  0  0  0  0
  -21.7230   -6.9150   21.4370 O   0  0  0  0  0  0  0  0  0  0  0  0
  -21.6430   -6.1930   22.6020 C   0  0  0  0  0  0  0  0  0  0  0  0
  -21.1680   -6.7660   23.8030 C   0  0  0  0  0  3  0  0  0  0  0  0
  -21.0390   -5.9710   24.9590 C   0  0  0  0  0  3  0  0  0  0  0  0
  -21.3730   -4.6030   24.9140 C   0  0  0  0  0  0  0  0  0  0  0  0
  -21.8400   -4.0300   23.7180 C   0  0  0  0  0  3  0  0  0  0  0  0
  -21.9720   -4.8230   22.5650 C   0  0  0  0  0  0  0  0  0  0  0  0
  -22.4010   -4.2620   21.4100 F   0  0  0  0  0  0  0  0  0  0  0  0
  -21.2420   -3.8370   26.0230 F   0  0  0  0  0  0  0  0  0  0  0  0
  -22.7600  -13.5550   21.0450 C   0  0  0  0  0  0  0  0  0  0  0  0
  -22.0240  -12.8690   21.9120 N   0  0  0  0  0  0  0  0  0  0  0  0
  -22.3240  -14.5660   20.4980 O   0  0  0  0  0  0  0  0  0  0  0  0
  -22.3900  -12.0520   22.3790 H   0  0  0  0  0  0  0  0  0  0  0  0
  -21.0790  -13.1650   22.1120 H   0  0  0  0  0  0  0  0  0  0  0  0
  -25.3870  -15.2390   20.2650 N   0  0  0  0  0  0  0  0  0  0  0  0
  -24.6180  -15.8940   20.3620 H   0  0  0  0  0  0  0  0  0  0  0  0
  -26.2520  -15.6810   19.9810 H   0  0  0  0  0  0  0  0  0  0  0  0
  -27.9610  -24.6350   20.3960 C   0  0  0  0  0  2  0  0  0  0  0  0
  -28.2860  -26.1630   20.2380 O   0  0  0  0  0  0  0  0  0  0  0  0
  -24.6960  -31.8910   23.2720 C   0  0  0  0  0  0  0  0  0  0  0  0
  -27.2360  -27.1600   20.2160 C   0  0  0  0  0  0  0  0  0  0  0  0
  -23.4830  -30.5050   21.6360 C   0  0  0  0  0  3  0  0  0  0  0  0
  -24.9180  -28.9250   20.2070 C   0  0  0  0  0  0  0  0  0  0  0  0
  -26.0400  -30.7550   21.4620 C   0  0  0  0  0  2  0  0  0  0  0  0
  -26.1040  -29.3610   20.8090 C   0  0  0  0  0  0  0  0  0  0  0  0
  -27.2650  -28.4950   20.7960 C   0  0  0  0  0  3  0  0  0  0  0  0
  -26.0210  -26.8370   19.5680 C   0  0  0  0  0  3  0  0  0  0  0  0
  -24.8880  -27.6750   19.5740 C   0  0  0  0  0  3  0  0  0  0  0  0
  -23.6960  -29.8290   20.2570 C   0  0  0  0  0  2  0  0  0  0  0  0
  -24.7610  -31.0720   22.1780 N   0  0  0  0  0  0  0  0  0  0  0  0
  -23.6130  -32.1810   23.8030 O   0  0  0  0  0  0  0  0  0  0  0  0
  -22.8040  -29.4990   22.5990 C   0  0  0  0  0  0  0  0  0  0  0  0
  -21.4770  -29.3280   22.4720 N   0  0  0  0  0  0  0  0  0  0  0  0
  -23.4740  -28.8740   23.4250 O   0  0  0  0  0  0  0  0  0  0  0  0
  -20.9920  -29.8820   21.7800 H   0  0  0  0  0  0  0  0  0  0  0  0
  -18.0960  -28.1160   22.9620 C   0  0  0  0  0  0  0  0  0  0  0  0
  -20.6540  -28.3920   23.2420 C   0  0  0  0  0  3  0  0  0  0  0  0
  -20.7640  -26.9560   22.6780 C   0  0  0  0  0  2  0  0  0  0  0  0
  -19.6700  -26.6210   21.6590 C   0  0  0  0  0  2  0  0  0  0  0  0
  -18.2840  -26.7640   22.2940 C   0  0  0  0  0  2  0  0  0  0  0  0
  -19.2090  -28.8870   23.3940 C   0  0  0  0  0  0  0  0  0  0  0  0
  -18.9810  -30.1500   23.9810 C   0  0  0  0  0  3  0  0  0  0  0  0
  -17.6720  -30.6450   24.1380 C   0  0  0  0  0  3  0  0  0  0  0  0
  -16.5730  -29.8720   23.7230 C   0  0  0  0  0  3  0  0  0  0  0  0
  -16.7860  -28.6100   23.1410 C   0  0  0  0  0  3  0  0  0  0  0  0
  -25.9790  -32.5220   23.8930 C   0  0  0  0  0  3  0  0  0  0  0  0
  -25.6690  -33.9190   24.2410 N   0  0  0  0  0  0  0  0  0  0  0  0
  -25.9810  -34.9810   23.4860 C   0  0  0  0  0  0  0  0  0  0  0  0
  -26.6270  -34.8890   22.4390 O   0  0  0  0  0  0  0  0  0  0  0  0
  -25.0940  -34.0640   25.0580 H   0  0  0  0  0  0  0  0  0  0  0  0
  -24.2330  -36.7710   23.2030 C   0  0  0  0  0  1  0  0  0  0  0  0
  -25.5030  -36.3650   23.9690 C   0  0  0  0  0  3  0  0  0  0  0  0
  -27.6610  -37.2560   24.7320 C   0  0  0  0  0  1  0  0  0  0  0  0
  -26.5250  -37.4260   23.8300 N   0  0  0  0  0  0  0  0  0  0  0  0
  -26.1200  -38.3420   24.0010 H   0  0  0  0  0  0  0  0  0  0  0  0
  -26.4960  -31.7430   25.1650 C   0  0  1  0  0  0  0  0  0  0  0  0
  -25.4080  -31.5030   26.2370 C   0  0  0  0  0  1  0  0  0  0  0  0
  -27.0730  -30.3640   24.7680 C   0  0  0  0  0  1  0  0  0  0  0  0
  -27.6540  -32.5280   25.8250 C   0  0  0  0  0  1  0  0  0  0  0  0
  2  7  1  0
  3  4  1  0
  3  2  1  0
  5  4  1  0
  5 27  1  0
  5  6  1  0
  7  1  1  0
  7  6  1  0
  8  1  2  0
  9 52  1  0
  9 16  2  0
 10 19  1  0
 10 16  2  0
 11 18  1  0
 11 17  2  0
 12 19  1  0
 13 15  2  0
 14 12  2  0
 14 20  1  0
 17  9  1  0
 18 10  1  0
 19 13  1  0
 20  1  1  0
 20 15  1  0
 21 11  1  0
 22 21  1  0
 23 21  1  0
 24 25  2  0
 25 44  1  0
 26 25  1  0
 26 29  1  0
 27 24  1  0
 27 28  1  0
 28 26  2  0
 29 30  1  0
 30 31  2  0
 32 35  1  0
 32 31  1  0
 33 32  2  0
 34 33  1  0
 34 29  2  0
 35 36  1  0
 36 37  1  0
 37 38  2  0
 39 38  1  0
 39 43  1  0
 40 39  2  0
 41 36  2  0
 41 40  1  0
 42 41  1  0
 44 45  1  0
 45 48  1  0
 45 47  1  0
 46 44  2  0
 49 50  1  0
 49 24  1  0
 51 49  1  0
 53 52  1  0
 54 65  2  0
 55 53  1  0
 55 60  1  0
 56 64  1  0
 56 66  1  0
 57 63  1  0
 57 59  1  0
 58 64  1  0
 59 58  1  0
 60 59  2  0
 61 62  1  0
 61 55  2  0
 62 57  2  0
 63 56  1  0
 64 54  1  0
 66 68  2  0
 67 66  1  0
 69 67  1  0
 70 79  2  0
 70 75  1  0
 71 67  1  0
 71 75  1  0
 72 71  1  0
 73 74  1  0
 73 72  1  0
 74 70  1  0
 75 76  2  0
 76 77  1  0
 78 77  2  0
 79 78  1  0
 80 54  1  0
 80 81  1  0
 80 90  1  0
 81 84  1  0
 82 86  1  0
 82 81  1  0
 83 82  2  0
 86 85  1  0
 88 86  1  0
 88 89  1  0
 88 87  1  0
 90 93  1  1
 90 91  1  0
 92 90  1  0
M  ISO  4   1 100  20 100  52 101  53 101
M  END
>  <TORSDO>  (30) 
F 16

>  <SCORE>  (30) 
-14.974

>  <name>  (30) 
29

>  <ligand_id>  (30) 
29

>  <original_smiles>  (30) 
[H]c1c([H])c([H])c2c(c1[H])C([H])([H])C([H])([H])C([H])([H])C2([H])N([H])C(=O)C1([H])N(C(=O)C([H])(N([H])C(=O)C([H])(N([H])C([H])([H])[H])C([H])([H])[H])C(C([H])([H])[H])(C([H])([H])[H])C([H])([H])[H])C([H])([H])c2c([H])c(OC([H])([H])c3nc(N([H])[H])nc(N4C([H])([H])C([H])([H])N(C(=O)N5C([H])([H])C([H])([H])C([H])([H])C([H])(n6nc(-c7c([H])c([H])c(Oc8c([H])c([H])c(F)c([H])c8F)c([H])c7[H])c(C(=O)N([H])[H])c6N([H])[H])C5([H])[H])C([H])([H])C4([H])[H])n3)c([H])c([H])c2C1([H])[H]

>  <smiles>  (30) 
[H]c1c([H])c([H])c2c(c1[H])C([H])([H])C([H])([H])C([H])([H])C2([H])N([H])C(=O)C1([H])N(C(=O)C([H])(N([H])C(=O)C([H])(N([H])C([H])([H])[H])C([H])([H])[H])C(C([H])([H])[H])(C([H])([H])[H])C([H])([H])[H])C([H])([H])c2c([H])c(OC([H])([H])c3nc(N([H])[H])nc(N4C([H])([H])C([H])([H])N(C(=O)N5C([H])([H])C([H])([H])C([H])([H])C([H])(n6nc(-c7c([H])c([H])c(Oc8c([H])c([H])c(F)c([H])c8F)c([H])c7[H])c(C(=O)N([H])[H])c6N([H])[H])C5([H])[H])C([H])([H])C4([H])[H])n3)c([H])c([H])c2C1([H])[H]

$$$$
30:0:0
     RDKit          3D

 90 99  0  0  1  0  0  0  0  0999 V2000
  -29.0990  -22.0500   20.6520 C   0  0  0  0  0  0  0  0  0  0  0  0
  -29.6540  -21.1300   19.6210 C   0  0  0  0  0  0  0  0  0  0  0  0
  -28.9210  -23.3980   20.1730 C   0  0  0  0  0  0  0  0  0  0  0  0
  -28.7820  -21.5440   22.0350 C   0  0  0  0  0  1  0  0  0  0  0  0
  -29.5310  -24.3110   17.8990 C   0  0  0  0  0  1  0  0  0  0  0  0
  -29.8340  -21.9670   18.5790 N   0  0  0  0  0  0  0  0  0  0  0  0
  -29.4200  -23.2540   18.8930 N   0  0  0  0  0  0  0  0  0  0  0  0
  -30.1220  -19.5100   19.4080 C   0  0  0  0  0  2  0  0  0  0  0  0
  -30.5880  -15.3200   19.9300 C   0  0  0  0  0  0  0  0  0  0  0  0
  -30.5310  -12.9470   18.9290 C   0  0  0  0  0  2  0  0  0  0  0  0
  -29.5110  -12.7920   17.7730 C   0  0  0  0  0  2  0  0  0  0  0  0
  -28.0950  -12.4990   18.3090 C   0  0  0  0  0  2  0  0  0  0  0  0
  -27.7320  -13.4090   19.5130 C   0  0  0  0  0  3  0  0  0  0  0  0
  -28.8760  -13.4340   20.5530 C   0  0  0  0  0  2  0  0  0  0  0  0
  -30.0350  -14.0200   19.8530 N   0  0  0  0  0  0  0  0  0  0  0  0
  -31.7980  -15.3630   19.6650 O   0  0  0  0  0  0  0  0  0  0  0  0
  -28.3990  -18.0260   20.8560 C   0  0  0  0  0  2  0  0  0  0  0  0
  -28.3460  -16.5890   20.3500 C   0  0  0  0  0  2  0  0  0  0  0  0
  -29.8630  -18.1570   20.4100 C   0  0  0  0  0  3  0  0  0  0  0  0
  -29.7960  -16.5580   20.0670 N   0  0  0  0  0  0  0  0  0  0  0  0
  -25.4040  -13.9750   20.4300 C   0  0  0  0  0  0  0  0  0  0  0  0
  -24.3660  -13.1890   20.8540 C   0  0  0  0  0  0  0  0  0  0  0  0
  -24.8280  -11.8440   20.7430 C   0  0  0  0  0  0  0  0  0  0  0  0
  -26.4310  -13.1040   20.0960 N   0  0  0  0  0  0  0  0  0  0  0  0
  -26.0940  -11.8120   20.3450 N   0  0  0  0  0  0  0  0  0  0  0  0
  -24.1040  -10.5820   20.9270 C   0  0  0  0  0  0  0  0  0  0  0  0
  -24.5500   -9.6090   21.8470 C   0  0  0  0  0  3  0  0  0  0  0  0
  -23.8280   -8.4070   22.0240 C   0  0  0  0  0  3  0  0  0  0  0  0
  -22.6450   -8.1770   21.2790 C   0  0  0  0  0  0  0  0  0  0  0  0
  -22.2170   -9.1430   20.3510 C   0  0  0  0  0  3  0  0  0  0  0  0
  -22.9410  -10.3310   20.1730 C   0  0  0  0  0  3  0  0  0  0  0  0
  -21.8940   -7.0310   21.3680 O   0  0  0  0  0  0  0  0  0  0  0  0
  -21.8100   -6.3110   22.5320 C   0  0  0  0  0  0  0  0  0  0  0  0
  -21.3050   -6.8780   23.7230 C   0  0  0  0  0  3  0  0  0  0  0  0
  -21.1730   -6.0840   24.8800 C   0  0  0  0  0  3  0  0  0  0  0  0
  -21.5350   -4.7240   24.8440 C   0  0  0  0  0  0  0  0  0  0  0  0
  -22.0360   -4.1590   23.6590 C   0  0  0  0  0  3  0  0  0  0  0  0
  -22.1720   -4.9500   22.5070 C   0  0  0  0  0  0  0  0  0  0  0  0
  -22.6330   -4.3940   21.3600 F   0  0  0  0  0  0  0  0  0  0  0  0
  -21.4010   -3.9590   25.9520 F   0  0  0  0  0  0  0  0  0  0  0  0
  -22.9930  -13.6660   21.2260 C   0  0  0  0  0  0  0  0  0  0  0  0
  -22.3120  -12.9470   22.1140 N   0  0  0  0  0  0  0  0  0  0  0  0
  -22.5300  -14.7140   20.7730 O   0  0  0  0  0  0  0  0  0  0  0  0
  -22.6910  -12.1030   22.5140 H   0  0  0  0  0  0  0  0  0  0  0  0
  -21.3930  -13.2510   22.3950 H   0  0  0  0  0  0  0  0  0  0  0  0
  -25.5280  -15.3460   20.2780 N   0  0  0  0  0  0  0  0  0  0  0  0
  -24.7630  -15.9840   20.4700 H   0  0  0  0  0  0  0  0  0  0  0  0
  -26.3430  -15.8120   19.9030 H   0  0  0  0  0  0  0  0  0  0  0  0
  -28.2880  -24.8180   20.7920 C   0  0  0  0  0  2  0  0  0  0  0  0
  -28.4030  -26.2590   20.1670 O   0  0  0  0  0  0  0  0  0  0  0  0
  -24.6270  -31.9100   23.1670 C   0  0  0  0  0  0  0  0  0  0  0  0
  -27.3140  -27.2250   20.1780 C   0  0  0  0  0  0  0  0  0  0  0  0
  -23.4580  -30.5020   21.5160 C   0  0  0  0  0  3  0  0  0  0  0  0
  -24.9480  -28.9410   20.1100 C   0  0  0  0  0  0  0  0  0  0  0  0
  -26.0070  -30.8110   21.3600 C   0  0  0  0  0  2  0  0  0  0  0  0
  -26.1170  -29.4120   20.7190 C   0  0  0  0  0  0  0  0  0  0  0  0
  -27.3020  -28.5770   20.7230 C   0  0  0  0  0  3  0  0  0  0  0  0
  -26.1090  -26.8510   19.5430 C   0  0  0  0  0  3  0  0  0  0  0  0
  -24.9560  -27.6730   19.5050 C   0  0  0  0  0  3  0  0  0  0  0  0
  -23.7030  -29.8190   20.1420 C   0  0  0  0  0  2  0  0  0  0  0  0
  -24.7170  -31.0940   22.0720 N   0  0  0  0  0  0  0  0  0  0  0  0
  -23.5360  -32.1760   23.6940 O   0  0  0  0  0  0  0  0  0  0  0  0
  -22.7850  -29.4850   22.4750 C   0  0  0  0  0  0  0  0  0  0  0  0
  -21.4580  -29.3090   22.3530 N   0  0  0  0  0  0  0  0  0  0  0  0
  -23.4610  -28.8560   23.2930 O   0  0  0  0  0  0  0  0  0  0  0  0
  -20.9650  -29.8720   21.6750 H   0  0  0  0  0  0  0  0  0  0  0  0
  -18.0840  -28.0860   22.8660 C   0  0  0  0  0  0  0  0  0  0  0  0
  -20.6440  -28.3570   23.1170 C   0  0  0  0  0  3  0  0  0  0  0  0
  -20.7470  -26.9330   22.5280 C   0  0  0  0  0  2  0  0  0  0  0  0
  -19.6410  -26.6170   21.5160 C   0  0  0  0  0  2  0  0  0  0  0  0
  -18.2620  -26.7460   22.1710 C   0  0  0  0  0  2  0  0  0  0  0  0
  -19.2030  -28.8490   23.2970 C   0  0  0  0  0  0  0  0  0  0  0  0
  -18.9810  -30.1000   23.9080 C   0  0  0  0  0  3  0  0  0  0  0  0
  -17.6740  -30.5920   24.0930 C   0  0  0  0  0  3  0  0  0  0  0  0
  -16.5700  -29.8250   23.6800 C   0  0  0  0  0  3  0  0  0  0  0  0
  -16.7770  -28.5750   23.0710 C   0  0  0  0  0  3  0  0  0  0  0  0
  -25.8930  -32.5630   23.8040 C   0  0  0  0  0  3  0  0  0  0  0  0
  -25.5570  -33.9550   24.1460 N   0  0  0  0  0  0  0  0  0  0  0  0
  -25.8690  -35.0230   23.3990 C   0  0  0  0  0  0  0  0  0  0  0  0
  -26.5430  -34.9400   22.3690 O   0  0  0  0  0  0  0  0  0  0  0  0
  -24.9590  -34.0900   24.9490 H   0  0  0  0  0  0  0  0  0  0  0  0
  -24.1260  -36.8040   23.0640 C   0  0  0  0  0  1  0  0  0  0  0  0
  -25.3660  -36.4000   23.8740 C   0  0  0  0  0  3  0  0  0  0  0  0
  -27.4810  -37.3120   24.7310 C   0  0  0  0  0  1  0  0  0  0  0  0
  -26.3860  -37.4690   23.7760 N   0  0  0  0  0  0  0  0  0  0  0  0
  -25.9640  -38.3820   23.9280 H   0  0  0  0  0  0  0  0  0  0  0  0
  -26.4110  -31.7960   25.0830 C   0  0  1  0  0  0  0  0  0  0  0  0
  -25.3150  -31.5380   26.1420 C   0  0  0  0  0  1  0  0  0  0  0  0
  -27.0220  -30.4290   24.6970 C   0  0  0  0  0  1  0  0  0  0  0  0
  -27.5380  -32.6080   25.7620 C   0  0  0  0  0  1  0  0  0  0  0  0
  1  4  1  0
  2  1  1  0
  3  1  2  0
  3 49  1  0
  5  7  1  0
  6  7  1  0
  6  2  2  0
  7  3  1  0
  8  2  1  0
  9 20  1  0
 10 15  1  0
 11 12  1  0
 11 10  1  0
 13 12  1  0
 13 24  1  0
 13 14  1  0
 15  9  1  0
 15 14  1  0
 16  9  2  0
 18 17  1  0
 19  8  1  0
 19 17  1  0
 20 18  1  0
 20 19  1  0
 21 22  2  0
 22 41  1  0
 23 22  1  0
 23 26  1  0
 24 25  1  0
 24 21  1  0
 25 23  2  0
 26 27  1  0
 27 28  2  0
 29 32  1  0
 29 28  1  0
 30 29  2  0
 31 30  1  0
 31 26  2  0
 32 33  1  0
 33 34  1  0
 34 35  2  0
 36 35  1  0
 36 40  1  0
 37 36  2  0
 38 33  2  0
 38 37  1  0
 39 38  1  0
 41 42  1  0
 42 45  1  0
 42 44  1  0
 43 41  2  0
 46 21  1  0
 46 47  1  0
 48 46  1  0
 50 52  1  0
 50 49  1  0
 51 62  2  0
 52 57  1  0
 53 61  1  0
 53 63  1  0
 54 60  1  0
 54 56  1  0
 55 61  1  0
 56 57  2  0
 56 55  1  0
 58 52  2  0
 59 58  1  0
 59 54  2  0
 60 53  1  0
 61 51  1  0
 63 65  2  0
 64 63  1  0
 66 64  1  0
 67 76  2  0
 67 72  1  0
 68 64  1  0
 68 72  1  0
 69 68  1  0
 70 71  1  0
 70 69  1  0
 71 67  1  0
 72 73  2  0
 73 74  1  0
 75 74  2  0
 76 75  1  0
 77 51  1  0
 77 78  1  0
 77 87  1  0
 78 81  1  0
 79 83  1  0
 79 78  1  0
 80 79  2  0
 83 82  1  0
 85 83  1  0
 85 86  1  0
 85 84  1  0
 87 90  1  1
 87 88  1  0
 89 87  1  0
M  ISO  4   9 100  20 100  49 101  50 101
M  END
>  <TORSDO>  (31) 
F 18

>  <SCORE>  (31) 
-15.028

>  <name>  (31) 
30

>  <ligand_id>  (31) 
30

>  <original_smiles>  (31) 
[H]c1c([H])c([H])c2c(c1[H])C([H])([H])C([H])([H])C([H])([H])C2([H])N([H])C(=O)C1([H])N(C(=O)C([H])(N([H])C(=O)C([H])(N([H])C([H])([H])[H])C([H])([H])[H])C(C([H])([H])[H])(C([H])([H])[H])C([H])([H])[H])C([H])([H])c2c([H])c(OC([H])([H])c3c(C([H])([H])[H])c(C([H])([H])C4([H])N(C(=O)N5C([H])([H])C([H])([H])C([H])([H])C([H])(n6nc(-c7c([H])c([H])c(Oc8c([H])c([H])c(F)c([H])c8F)c([H])c7[H])c(C(=O)N([H])[H])c6N([H])[H])C5([H])[H])C([H])([H])C4([H])[H])nn3C([H])([H])[H])c([H])c([H])c2C1([H])[H]

>  <smiles>  (31) 
[H]c1c([H])c([H])c2c(c1[H])C([H])([H])C([H])([H])C([H])([H])C2([H])N([H])C(=O)C1([H])N(C(=O)C([H])(N([H])C(=O)C([H])(N([H])C([H])([H])[H])C([H])([H])[H])C(C([H])([H])[H])(C([H])([H])[H])C([H])([H])[H])C([H])([H])c2c([H])c(OC([H])([H])c3c(C([H])([H])[H])c(C([H])([H])C4([H])N(C(=O)N5C([H])([H])C([H])([H])C([H])([H])C([H])(n6nc(-c7c([H])c([H])c(Oc8c([H])c([H])c(F)c([H])c8F)c([H])c7[H])c(C(=O)N([H])[H])c6N([H])[H])C5([H])[H])C([H])([H])C4([H])[H])nn3C([H])([H])[H])c([H])c([H])c2C1([H])[H]

$$$$
31:0:0
     RDKit          3D

 87 95  0  0  1  0  0  0  0  0999 V2000
  -30.4860  -15.1790   20.3330 C   0  0  0  0  0  0  0  0  0  0  0  0
  -30.4150  -12.7430   19.4930 C   0  0  0  0  0  2  0  0  0  0  0  0
  -29.5270  -12.5720   18.2380 C   0  0  0  0  0  2  0  0  0  0  0  0
  -28.0640  -12.3330   18.6460 C   0  0  0  0  0  2  0  0  0  0  0  0
  -27.6030  -13.3160   19.7540 C   0  0  0  0  0  3  0  0  0  0  0  0
  -28.6240  -13.4550   20.9020 C   0  0  0  0  0  2  0  0  0  0  0  0
  -29.8790  -13.9030   20.2870 N   0  0  0  0  0  0  0  0  0  0  0  0
  -31.7090  -15.1490   20.1260 O   0  0  0  0  0  0  0  0  0  0  0  0
  -28.6880  -21.3330   19.5910 C   0  0  0  0  0  0  0  0  0  0  0  0
  -28.9580  -18.7690   18.9810 C   0  0  0  0  0  3  0  0  0  0  0  0
  -29.6340  -19.1980   21.1570 C   0  0  0  0  0  3  0  0  0  0  0  0
  -29.9300  -17.4460   19.1010 C   0  0  0  0  0  3  0  0  0  0  0  0
  -29.4940  -17.5200   21.3450 C   0  0  0  0  0  3  0  0  0  0  0  0
  -29.1000  -19.9520   19.9370 N   0  0  0  0  0  0  0  0  0  0  0  0
  -29.7710  -16.4680   20.2480 N   0  0  0  0  0  0  0  0  0  0  0  0
  -28.1350  -21.4270   18.4920 O   0  0  0  0  0  0  0  0  0  0  0  0
  -25.2180  -13.8970   20.4410 C   0  0  0  0  0  0  0  0  0  0  0  0
  -24.1470  -13.1270   20.7970 C   0  0  0  0  0  0  0  0  0  0  0  0
  -24.6140  -11.7750   20.8030 C   0  0  0  0  0  0  0  0  0  0  0  0
  -26.2640  -13.0160   20.2380 N   0  0  0  0  0  0  0  0  0  0  0  0
  -25.9120  -11.7350   20.5260 N   0  0  0  0  0  0  0  0  0  0  0  0
  -23.8820  -10.5170   20.9960 C   0  0  0  0  0  0  0  0  0  0  0  0
  -24.2930   -9.5600   21.9490 C   0  0  0  0  0  3  0  0  0  0  0  0
  -23.5580   -8.3690   22.1310 C   0  0  0  0  0  3  0  0  0  0  0  0
  -22.3980   -8.1250   21.3580 C   0  0  0  0  0  0  0  0  0  0  0  0
  -22.0050   -9.0720   20.3950 C   0  0  0  0  0  3  0  0  0  0  0  0
  -22.7410  -10.2540   20.2120 C   0  0  0  0  0  3  0  0  0  0  0  0
  -21.6360   -6.9850   21.4480 O   0  0  0  0  0  0  0  0  0  0  0  0
  -21.5640   -6.2560   22.6080 C   0  0  0  0  0  0  0  0  0  0  0  0
  -21.1310   -6.8290   23.8220 C   0  0  0  0  0  3  0  0  0  0  0  0
  -21.0050   -6.0280   24.9740 C   0  0  0  0  0  3  0  0  0  0  0  0
  -21.3050   -4.6540   24.9130 C   0  0  0  0  0  0  0  0  0  0  0  0
  -21.7320   -4.0790   23.7030 C   0  0  0  0  0  3  0  0  0  0  0  0
  -21.8580   -4.8790   22.5520 C   0  0  0  0  0  0  0  0  0  0  0  0
  -22.2500   -4.3160   21.3840 F   0  0  0  0  0  0  0  0  0  0  0  0
  -21.1770   -3.8810   26.0170 F   0  0  0  0  0  0  0  0  0  0  0  0
  -22.7450  -13.6090   21.0230 C   0  0  0  0  0  0  0  0  0  0  0  0
  -21.9960  -12.9330   21.8860 N   0  0  0  0  0  0  0  0  0  0  0  0
  -22.3230  -14.6240   20.4690 O   0  0  0  0  0  0  0  0  0  0  0  0
  -22.3510  -12.1110   22.3530 H   0  0  0  0  0  0  0  0  0  0  0  0
  -21.0570  -13.2450   22.0870 H   0  0  0  0  0  0  0  0  0  0  0  0
  -25.3900  -15.2650   20.2470 N   0  0  0  0  0  0  0  0  0  0  0  0
  -24.6270  -15.9270   20.3370 H   0  0  0  0  0  0  0  0  0  0  0  0
  -26.2560  -15.7000   19.9580 H   0  0  0  0  0  0  0  0  0  0  0  0
  -28.8040  -22.8840   20.3050 C   0  0  0  0  0  3  0  0  0  0  0  0
  -28.0220  -24.3830   19.7760 C   0  0  0  0  0  3  0  0  0  0  0  0
  -28.2040  -25.9560   20.1200 O   0  0  0  0  0  0  0  0  0  0  0  0
  -24.5250  -31.7730   23.0640 C   0  0  0  0  0  0  0  0  0  0  0  0
  -27.1720  -27.0060   20.0290 C   0  0  0  0  0  0  0  0  0  0  0  0
  -23.3600  -30.3630   21.4160 C   0  0  0  0  0  3  0  0  0  0  0  0
  -24.8390  -28.8020   19.9870 C   0  0  0  0  0  0  0  0  0  0  0  0
  -25.9180  -30.6320   21.2780 C   0  0  0  0  0  2  0  0  0  0  0  0
  -26.0110  -29.2340   20.6160 C   0  0  0  0  0  0  0  0  0  0  0  0
  -27.1740  -28.3530   20.6200 C   0  0  0  0  0  3  0  0  0  0  0  0
  -25.9730  -26.7130   19.3430 C   0  0  0  0  0  3  0  0  0  0  0  0
  -24.8390  -27.5610   19.3310 C   0  0  0  0  0  3  0  0  0  0  0  0
  -23.6020  -29.6940   20.0350 C   0  0  0  0  0  2  0  0  0  0  0  0
  -24.6210  -30.9490   21.9730 N   0  0  0  0  0  0  0  0  0  0  0  0
  -23.4300  -32.0420   23.5830 O   0  0  0  0  0  0  0  0  0  0  0  0
  -22.6850  -29.3490   22.3750 C   0  0  0  0  0  0  0  0  0  0  0  0
  -21.3530  -29.1930   22.2730 N   0  0  0  0  0  0  0  0  0  0  0  0
  -23.3660  -28.7020   23.1750 O   0  0  0  0  0  0  0  0  0  0  0  0
  -20.8580  -29.7690   21.6070 H   0  0  0  0  0  0  0  0  0  0  0  0
  -17.9710  -28.0140   22.8480 C   0  0  0  0  0  0  0  0  0  0  0  0
  -20.5400  -28.2460   23.0450 C   0  0  0  0  0  3  0  0  0  0  0  0
  -20.6080  -26.8270   22.4330 C   0  0  0  0  0  2  0  0  0  0  0  0
  -19.4730  -26.5440   21.4430 C   0  0  0  0  0  2  0  0  0  0  0  0
  -18.1120  -26.6830   22.1300 C   0  0  0  0  0  2  0  0  0  0  0  0
  -19.1090  -28.7560   23.2630 C   0  0  0  0  0  0  0  0  0  0  0  0
  -18.9180  -30.0020   23.8990 C   0  0  0  0  0  3  0  0  0  0  0  0
  -17.6240  -30.5070   24.1230 C   0  0  0  0  0  3  0  0  0  0  0  0
  -16.5010  -29.7640   23.7200 C   0  0  0  0  0  3  0  0  0  0  0  0
  -16.6750  -28.5190   23.0870 C   0  0  0  0  0  3  0  0  0  0  0  0
  -25.7850  -32.4330   23.7020 C   0  0  0  0  0  3  0  0  0  0  0  0
  -25.4310  -33.8150   24.0720 N   0  0  0  0  0  0  0  0  0  0  0  0
  -25.7290  -34.9020   23.3480 C   0  0  0  0  0  0  0  0  0  0  0  0
  -26.3920  -34.8500   22.3100 O   0  0  0  0  0  0  0  0  0  0  0  0
  -24.8310  -33.9270   24.8760 H   0  0  0  0  0  0  0  0  0  0  0  0
  -23.9440  -36.6610   23.0800 C   0  0  0  0  0  1  0  0  0  0  0  0
  -25.2110  -36.2640   23.8560 C   0  0  0  0  0  3  0  0  0  0  0  0
  -27.3340  -37.1880   24.6790 C   0  0  0  0  0  1  0  0  0  0  0  0
  -26.2120  -37.3490   23.7570 N   0  0  0  0  0  0  0  0  0  0  0  0
  -25.7830  -38.2530   23.9360 H   0  0  0  0  0  0  0  0  0  0  0  0
  -26.3220  -31.6510   24.9660 C   0  0  1  0  0  0  0  0  0  0  0  0
  -25.2380  -31.3700   26.0340 C   0  0  0  0  0  1  0  0  0  0  0  0
  -26.9350  -30.2930   24.5580 C   0  0  0  0  0  1  0  0  0  0  0  0
  -27.4580  -32.4600   25.6350 C   0  0  0  0  0  1  0  0  0  0  0  0
  2  7  1  0
  3  4  1  0
  3  2  1  0
  5  4  1  0
  5 20  1  0
  5  6  1  0
  7  1  1  0
  7  6  1  0
  8  1  2  0
  9 14  1  0
  9 45  1  0
 10 12  2  0
 10 14  1  0
 11 13  2  0
 12 15  1  0
 14 11  1  0
 15  1  1  0
 15 13  1  0
 16  9  2  0
 17 18  2  0
 18 19  1  0
 18 37  1  0
 19 22  1  0
 20 17  1  0
 20 21  1  0
 21 19  2  0
 22 23  1  0
 23 24  2  0
 25 28  1  0
 25 24  1  0
 26 25  2  0
 27 26  1  0
 27 22  2  0
 28 29  1  0
 29 30  1  0
 30 31  2  0
 32 31  1  0
 32 36  1  0
 33 32  2  0
 34 29  2  0
 34 33  1  0
 35 34  1  0
 37 38  1  0
 38 41  1  0
 38 40  1  0
 39 37  2  0
 42 43  1  0
 42 17  1  0
 44 42  1  0
 46 47  1  0
 46 45  2  0
 48 59  2  0
 49 47  1  0
 49 54  1  0
 50 58  1  0
 50 60  1  0
 51 57  1  0
 51 53  1  0
 52 58  1  0
 53 54  2  0
 53 52  1  0
 55 49  2  0
 56 55  1  0
 56 51  2  0
 57 50  1  0
 58 48  1  0
 60 62  2  0
 61 60  1  0
 63 61  1  0
 64 73  2  0
 64 69  1  0
 65 61  1  0
 65 69  1  0
 66 65  1  0
 67 68  1  0
 67 66  1  0
 68 64  1  0
 69 70  2  0
 70 71  1  0
 72 71  2  0
 73 72  1  0
 74 48  1  0
 74 75  1  0
 74 84  1  0
 75 78  1  0
 76 80  1  0
 76 75  1  0
 77 76  2  0
 80 79  1  0
 82 80  1  0
 82 83  1  0
 82 81  1  0
 84 87  1  1
 84 85  1  0
 86 84  1  0
M  ISO  4   1 100  15 100  46 101  47 101
M  END
>  <TORSDO>  (32) 
F 17

>  <SCORE>  (32) 
-15.641

>  <name>  (32) 
31

>  <ligand_id>  (32) 
31

>  <original_smiles>  (32) 
[H]c1c([H])c([H])c2c(c1[H])C([H])([H])C([H])([H])C([H])([H])C2([H])N([H])C(=O)C1([H])N(C(=O)C([H])(N([H])C(=O)C([H])(N([H])C([H])([H])[H])C([H])([H])[H])C(C([H])([H])[H])(C([H])([H])[H])C([H])([H])[H])C([H])([H])c2c([H])c(OC([H])([H])C([H])([H])C(=O)N3C([H])([H])C([H])([H])N(C(=O)N4C([H])([H])C([H])([H])C([H])([H])C([H])(n5nc(-c6c([H])c([H])c(Oc7c([H])c([H])c(F)c([H])c7F)c([H])c6[H])c(C(=O)N([H])[H])c5N([H])[H])C4([H])[H])C([H])([H])C3([H])[H])c([H])c([H])c2C1([H])[H]

>  <smiles>  (32) 
[H]c1c([H])c([H])c2c(c1[H])C([H])([H])C([H])([H])C([H])([H])C2([H])N([H])C(=O)C1([H])N(C(=O)C([H])(N([H])C(=O)C([H])(N([H])C([H])([H])[H])C([H])([H])[H])C(C([H])([H])[H])(C([H])([H])[H])C([H])([H])[H])C([H])([H])c2c([H])c(OC([H])([H])C([H])([H])C(=O)N3C([H])([H])C([H])([H])N(C(=O)N4C([H])([H])C([H])([H])C([H])([H])C([H])(n5nc(-c6c([H])c([H])c(Oc7c([H])c([H])c(F)c([H])c7F)c([H])c6[H])c(C(=O)N([H])[H])c5N([H])[H])C4([H])[H])C([H])([H])C3([H])[H])c([H])c([H])c2C1([H])[H]

$$$$
32:0:0
     RDKit          3D

 91100  0  0  1  0  0  0  0  0999 V2000
  -28.1010  -22.5260   19.3580 C   0  0  0  0  0  3  0  0  0  0  0  0
  -30.0340  -22.1290   21.1580 C   0  0  0  0  0  3  0  0  0  0  0  0
  -28.6720  -23.6580   20.0150 C   0  0  0  0  0  0  0  0  0  0  0  0
  -29.4510  -20.9920   20.5000 C   0  0  0  0  0  0  0  0  0  0  0  0
  -30.9560  -17.7650   21.8040 C   0  0  0  0  0  2  0  0  0  0  0  0
  -30.9210  -19.3030   21.6870 C   0  0  0  0  0  2  0  0  0  0  0  0
  -29.3720  -18.3730   20.1140 C   0  0  0  0  0  2  0  0  0  0  0  0
  -30.4100  -17.2330   20.4700 C   0  0  0  0  0  3  0  0  0  0  0  0
  -29.6610  -23.4340   20.9300 N   0  0  0  0  0  0  0  0  0  0  0  0
  -28.4720  -21.2250   19.5890 N   0  0  0  0  0  0  0  0  0  0  0  0
  -29.8450  -19.6280   20.7570 N   0  0  0  0  0  0  0  0  0  0  0  0
  -30.6660  -14.6730   20.2420 C   0  0  0  0  0  0  0  0  0  0  0  0
  -30.3820  -12.4350   19.2000 C   0  0  0  0  0  2  0  0  0  0  0  0
  -29.4070  -12.5530   18.0100 C   0  0  0  0  0  2  0  0  0  0  0  0
  -27.9500  -12.3940   18.4860 C   0  0  0  0  0  2  0  0  0  0  0  0
  -27.6270  -13.2700   19.7270 C   0  0  0  0  0  3  0  0  0  0  0  0
  -28.7190  -13.1470   20.8120 C   0  0  0  0  0  2  0  0  0  0  0  0
  -30.0070  -13.4720   20.1830 N   0  0  0  0  0  0  0  0  0  0  0  0
  -31.8280  -14.7740   19.8430 O   0  0  0  0  0  0  0  0  0  0  0  0
  -29.9420  -15.7970   20.5550 N   0  0  0  0  0  0  0  0  0  0  0  0
  -28.9830  -15.6470   20.8270 H   0  0  0  0  0  0  0  0  0  0  0  0
  -25.2660  -13.8670   20.5420 C   0  0  0  0  0  0  0  0  0  0  0  0
  -24.2080  -13.0940   20.9340 C   0  0  0  0  0  0  0  0  0  0  0  0
  -24.6610  -11.7410   20.8640 C   0  0  0  0  0  0  0  0  0  0  0  0
  -26.2960  -12.9840   20.2560 N   0  0  0  0  0  0  0  0  0  0  0  0
  -25.9400  -11.6990   20.5110 N   0  0  0  0  0  0  0  0  0  0  0  0
  -23.9310  -10.4790   21.0550 C   0  0  0  0  0  0  0  0  0  0  0  0
  -24.3820   -9.4960   21.9630 C   0  0  0  0  0  3  0  0  0  0  0  0
  -23.6530   -8.3010   22.1440 C   0  0  0  0  0  3  0  0  0  0  0  0
  -22.4600   -8.0800   21.4170 C   0  0  0  0  0  0  0  0  0  0  0  0
  -22.0270   -9.0520   20.4970 C   0  0  0  0  0  3  0  0  0  0  0  0
  -22.7570  -10.2390   20.3150 C   0  0  0  0  0  3  0  0  0  0  0  0
  -21.7000   -6.9390   21.5080 O   0  0  0  0  0  0  0  0  0  0  0  0
  -21.6660   -6.1870   22.6550 C   0  0  0  0  0  0  0  0  0  0  0  0
  -21.2290   -6.7240   23.8850 C   0  0  0  0  0  3  0  0  0  0  0  0
  -21.1450   -5.8970   25.0230 C   0  0  0  0  0  3  0  0  0  0  0  0
  -21.4860   -4.5350   24.9320 C   0  0  0  0  0  0  0  0  0  0  0  0
  -21.9170   -3.9970   23.7070 C   0  0  0  0  0  3  0  0  0  0  0  0
  -22.0040   -4.8200   22.5700 C   0  0  0  0  0  0  0  0  0  0  0  0
  -22.3990   -4.2930   21.3870 F   0  0  0  0  0  0  0  0  0  0  0  0
  -21.3980   -3.7380   26.0240 F   0  0  0  0  0  0  0  0  0  0  0  0
  -22.8250  -13.5750   21.2610 C   0  0  0  0  0  0  0  0  0  0  0  0
  -22.1210  -12.8700   22.1390 N   0  0  0  0  0  0  0  0  0  0  0  0
  -22.3760  -14.6120   20.7720 O   0  0  0  0  0  0  0  0  0  0  0  0
  -22.4980  -12.0310   22.5560 H   0  0  0  0  0  0  0  0  0  0  0  0
  -21.1940  -13.1740   22.4000 H   0  0  0  0  0  0  0  0  0  0  0  0
  -25.4330  -15.2400   20.3800 N   0  0  0  0  0  0  0  0  0  0  0  0
  -24.6690  -15.8920   20.5200 H   0  0  0  0  0  0  0  0  0  0  0  0
  -26.2620  -15.6770   19.9990 H   0  0  0  0  0  0  0  0  0  0  0  0
  -28.1320  -25.1040   19.6530 C   0  0  0  0  0  2  0  0  0  0  0  0
  -28.3230  -26.4560   20.2330 O   0  0  0  0  0  0  0  0  0  0  0  0
  -24.6170  -31.8840   23.2400 C   0  0  0  0  0  0  0  0  0  0  0  0
  -27.2220  -27.3340   20.1590 C   0  0  0  0  0  0  0  0  0  0  0  0
  -23.4130  -30.4980   21.5910 C   0  0  0  0  0  3  0  0  0  0  0  0
  -24.8630  -28.9590   20.1560 C   0  0  0  0  0  0  0  0  0  0  0  0
  -25.9550  -30.8090   21.4160 C   0  0  0  0  0  2  0  0  0  0  0  0
  -26.0330  -29.4360   20.7610 C   0  0  0  0  0  0  0  0  0  0  0  0
  -27.2140  -28.6330   20.7580 C   0  0  0  0  0  3  0  0  0  0  0  0
  -26.0260  -26.9190   19.5240 C   0  0  0  0  0  3  0  0  0  0  0  0
  -24.8620  -27.7060   19.5300 C   0  0  0  0  0  3  0  0  0  0  0  0
  -23.6280  -29.8340   20.2060 C   0  0  0  0  0  2  0  0  0  0  0  0
  -24.6810  -31.0810   22.1390 N   0  0  0  0  0  0  0  0  0  0  0  0
  -23.5330  -32.1620   23.7730 O   0  0  0  0  0  0  0  0  0  0  0  0
  -22.7470  -29.4760   22.5420 C   0  0  0  0  0  0  0  0  0  0  0  0
  -21.4200  -29.3030   22.4120 N   0  0  0  0  0  0  0  0  0  0  0  0
  -23.4220  -28.8420   23.3580 O   0  0  0  0  0  0  0  0  0  0  0  0
  -20.9350  -29.8660   21.7270 H   0  0  0  0  0  0  0  0  0  0  0  0
  -18.0340  -28.1350   22.9170 C   0  0  0  0  0  0  0  0  0  0  0  0
  -20.5960  -28.3650   23.1760 C   0  0  0  0  0  3  0  0  0  0  0  0
  -20.6800  -26.9390   22.5840 C   0  0  0  0  0  2  0  0  0  0  0  0
  -19.5690  -26.6400   21.5720 C   0  0  0  0  0  2  0  0  0  0  0  0
  -18.1920  -26.7920   22.2250 C   0  0  0  0  0  2  0  0  0  0  0  0
  -19.1620  -28.8810   23.3500 C   0  0  0  0  0  0  0  0  0  0  0  0
  -18.9590  -30.1390   23.9570 C   0  0  0  0  0  3  0  0  0  0  0  0
  -17.6610  -30.6520   24.1350 C   0  0  0  0  0  3  0  0  0  0  0  0
  -16.5470  -29.9040   23.7190 C   0  0  0  0  0  3  0  0  0  0  0  0
  -16.7330  -28.6470   23.1170 C   0  0  0  0  0  3  0  0  0  0  0  0
  -25.9000  -32.5100   23.8670 C   0  0  0  0  0  3  0  0  0  0  0  0
  -25.5930  -33.9070   24.2030 N   0  0  0  0  0  0  0  0  0  0  0  0
  -25.9100  -34.9610   23.4390 C   0  0  0  0  0  0  0  0  0  0  0  0
  -26.5620  -34.8590   22.3960 O   0  0  0  0  0  0  0  0  0  0  0  0
  -25.0130  -34.0610   25.0150 H   0  0  0  0  0  0  0  0  0  0  0  0
  -24.1690  -36.7470   23.1200 C   0  0  0  0  0  1  0  0  0  0  0  0
  -25.4280  -36.3480   23.9050 C   0  0  0  0  0  3  0  0  0  0  0  0
  -27.5730  -37.2450   24.6950 C   0  0  0  0  0  1  0  0  0  0  0  0
  -26.4540  -37.4060   23.7700 N   0  0  0  0  0  0  0  0  0  0  0  0
  -26.0470  -38.3240   23.9220 H   0  0  0  0  0  0  0  0  0  0  0  0
  -26.4090  -31.7320   25.1420 C   0  0  1  0  0  0  0  0  0  0  0  0
  -25.3120  -31.4890   26.2040 C   0  0  0  0  0  1  0  0  0  0  0  0
  -26.9930  -30.3550   24.7480 C   0  0  0  0  0  1  0  0  0  0  0  0
  -27.5570  -32.5220   25.8130 C   0  0  0  0  0  1  0  0  0  0  0  0
  1 10  2  0
  1  3  1  0
  3  9  2  0
  4 11  1  0
  4  2  2  0
  6  5  1  0
  7  8  1  0
  7 11  1  0
  8 20  1  0
  8  5  1  0
  9  2  1  0
 10  4  1  0
 11  6  1  0
 12 20  1  0
 13 18  1  0
 14 15  1  0
 14 13  1  0
 16 15  1  0
 16 25  1  0
 16 17  1  0
 18 12  1  0
 18 17  1  0
 19 12  2  0
 20 21  1  0
 22 23  2  0
 23 42  1  0
 24 23  1  0
 24 27  1  0
 25 26  1  0
 25 22  1  0
 26 24  2  0
 27 28  1  0
 28 29  2  0
 30 33  1  0
 30 29  1  0
 31 30  2  0
 32 31  1  0
 32 27  2  0
 33 34  1  0
 34 35  1  0
 35 36  2  0
 37 36  1  0
 37 41  1  0
 38 37  2  0
 39 34  2  0
 39 38  1  0
 40 39  1  0
 42 43  1  0
 43 46  1  0
 43 45  1  0
 44 42  2  0
 47 48  1  0
 47 22  1  0
 49 47  1  0
 50  3  1  0
 50 51  1  0
 52 63  2  0
 53 51  1  0
 53 58  1  0
 54 62  1  0
 54 64  1  0
 55 61  1  0
 55 57  1  0
 56 62  1  0
 57 56  1  0
 58 57  2  0
 59 60  1  0
 59 53  2  0
 60 55  2  0
 61 54  1  0
 62 52  1  0
 64 66  2  0
 65 64  1  0
 67 65  1  0
 68 77  2  0
 68 73  1  0
 69 65  1  0
 69 73  1  0
 70 69  1  0
 71 72  1  0
 71 70  1  0
 72 68  1  0
 73 74  2  0
 74 75  1  0
 76 75  2  0
 77 76  1  0
 78 52  1  0
 78 79  1  0
 78 88  1  0
 79 82  1  0
 80 84  1  0
 80 79  1  0
 81 80  2  0
 84 83  1  0
 86 84  1  0
 86 87  1  0
 86 85  1  0
 88 91  1  1
 88 89  1  0
 90 88  1  0
M  ISO  4  12 100  20 100  50 101  51 101
M  END
>  <TORSDO>  (33) 
F 17

>  <SCORE>  (33) 
-15.308

>  <name>  (33) 
32

>  <ligand_id>  (33) 
32

>  <original_smiles>  (33) 
[H]c1nc(C([H])([H])Oc2c([H])c([H])c3c(c2[H])C([H])([H])N(C(=O)C([H])(N([H])C(=O)C([H])(N([H])C([H])([H])[H])C([H])([H])[H])C(C([H])([H])[H])(C([H])([H])[H])C([H])([H])[H])C([H])(C(=O)N([H])C2([H])c4c([H])c([H])c([H])c([H])c4C([H])([H])C([H])([H])C2([H])[H])C3([H])[H])c([H])nc1N1C([H])([H])C([H])([H])C([H])(N([H])C(=O)N2C([H])([H])C([H])([H])C([H])([H])C([H])(n3nc(-c4c([H])c([H])c(Oc5c([H])c([H])c(F)c([H])c5F)c([H])c4[H])c(C(=O)N([H])[H])c3N([H])[H])C2([H])[H])C1([H])[H]

>  <smiles>  (33) 
[H]c1nc(C([H])([H])Oc2c([H])c([H])c3c(c2[H])C([H])([H])N(C(=O)C([H])(N([H])C(=O)C([H])(N([H])C([H])([H])[H])C([H])([H])[H])C(C([H])([H])[H])(C([H])([H])[H])C([H])([H])[H])C([H])(C(=O)N([H])C2([H])c4c([H])c([H])c([H])c([H])c4C([H])([H])C([H])([H])C2([H])[H])C3([H])[H])c([H])nc1N1C([H])([H])C([H])([H])C([H])(N([H])C(=O)N2C([H])([H])C([H])([H])C([H])([H])C([H])(n3nc(-c4c([H])c([H])c(Oc5c([H])c([H])c(F)c([H])c5F)c([H])c4[H])c(C(=O)N([H])[H])c3N([H])[H])C2([H])[H])C1([H])[H]

$$$$
33:0:0
     RDKit          3D

 89 98  0  0  1  0  0  0  0  0999 V2000
  -28.4740  -22.2030   20.4480 N   0  0  0  0  0  4  0  0  0  0  0  0
  -27.6710  -22.0410   19.8620 H   0  0  0  0  0  0  0  0  0  0  0  0
  -28.1390  -22.1690   21.3960 H   0  0  0  0  0  0  0  0  0  0  0  0
  -29.1500  -24.4670   21.4120 C   0  0  0  0  0  2  0  0  0  0  0  0
  -28.9430  -23.6530   20.1590 C   0  0  0  0  0  3  0  0  0  0  0  0
  -28.0150  -24.9260   20.5140 C   0  0  0  0  0  3  0  0  0  0  0  0
  -28.2740  -26.3900   20.2300 O   0  0  0  0  0  0  0  0  0  0  0  0
  -24.5860  -31.8860   23.2570 C   0  0  0  0  0  0  0  0  0  0  0  0
  -27.1800  -27.2860   20.2000 C   0  0  0  0  0  0  0  0  0  0  0  0
  -23.3800  -30.4940   21.6130 C   0  0  0  0  0  3  0  0  0  0  0  0
  -24.8270  -28.9390   20.1830 C   0  0  0  0  0  0  0  0  0  0  0  0
  -25.9240  -30.7980   21.4320 C   0  0  0  0  0  2  0  0  0  0  0  0
  -26.0020  -29.4160   20.7790 C   0  0  0  0  0  0  0  0  0  0  0  0
  -27.1830  -28.6040   20.7720 C   0  0  0  0  0  3  0  0  0  0  0  0
  -25.9850  -26.8760   19.5720 C   0  0  0  0  0  3  0  0  0  0  0  0
  -24.8250  -27.6770   19.5660 C   0  0  0  0  0  3  0  0  0  0  0  0
  -23.5930  -29.8190   20.2330 C   0  0  0  0  0  2  0  0  0  0  0  0
  -24.6490  -31.0770   22.1560 N   0  0  0  0  0  0  0  0  0  0  0  0
  -23.5020  -32.1630   23.7920 O   0  0  0  0  0  0  0  0  0  0  0  0
  -22.7140  -29.4780   22.5730 C   0  0  0  0  0  0  0  0  0  0  0  0
  -21.3860  -29.3060   22.4500 N   0  0  0  0  0  0  0  0  0  0  0  0
  -23.3910  -28.8480   23.3890 O   0  0  0  0  0  0  0  0  0  0  0  0
  -20.8980  -29.8660   21.7650 H   0  0  0  0  0  0  0  0  0  0  0  0
  -18.0070  -28.1110   22.9530 C   0  0  0  0  0  0  0  0  0  0  0  0
  -20.5670  -28.3670   23.2200 C   0  0  0  0  0  3  0  0  0  0  0  0
  -20.6650  -26.9370   22.6410 C   0  0  0  0  0  2  0  0  0  0  0  0
  -19.5620  -26.6180   21.6270 C   0  0  0  0  0  2  0  0  0  0  0  0
  -18.1810  -26.7630   22.2730 C   0  0  0  0  0  2  0  0  0  0  0  0
  -19.1270  -28.8710   23.3830 C   0  0  0  0  0  0  0  0  0  0  0  0
  -18.9100  -30.1320   23.9800 C   0  0  0  0  0  3  0  0  0  0  0  0
  -17.6060  -30.6330   24.1500 C   0  0  0  0  0  3  0  0  0  0  0  0
  -16.5010  -29.8710   23.7350 C   0  0  0  0  0  3  0  0  0  0  0  0
  -16.7020  -28.6120   23.1420 C   0  0  0  0  0  3  0  0  0  0  0  0
  -25.8680  -32.5180   23.8810 C   0  0  0  0  0  3  0  0  0  0  0  0
  -26.3790  -31.7470   25.1590 C   0  0  1  0  0  0  0  0  0  0  0  0
  -25.2840  -31.5150   26.2270 C   0  0  0  0  0  1  0  0  0  0  0  0
  -26.9580  -30.3660   24.7720 C   0  0  0  0  0  1  0  0  0  0  0  0
  -27.5320  -32.5370   25.8220 C   0  0  0  0  0  1  0  0  0  0  0  0
  -25.5600  -33.9170   24.2120 N   0  0  0  0  0  0  0  0  0  0  0  0
  -25.8800  -34.9700   23.4470 C   0  0  0  0  0  0  0  0  0  0  0  0
  -26.5330  -34.8650   22.4050 O   0  0  0  0  0  0  0  0  0  0  0  0
  -24.9780  -34.0710   25.0220 H   0  0  0  0  0  0  0  0  0  0  0  0
  -24.1390  -36.7580   23.1250 C   0  0  0  0  0  1  0  0  0  0  0  0
  -25.3990  -36.3580   23.9100 C   0  0  0  0  0  3  0  0  0  0  0  0
  -27.5480  -37.2530   24.6910 C   0  0  0  0  0  1  0  0  0  0  0  0
  -26.4260  -37.4140   23.7710 N   0  0  0  0  0  0  0  0  0  0  0  0
  -26.0200  -38.3340   23.9220 H   0  0  0  0  0  0  0  0  0  0  0  0
  -29.4110  -20.9860   20.2410 C   0  0  0  0  0  3  0  0  0  0  0  0
  -28.8540  -19.4880   20.5930 C   0  0  0  0  0  3  0  0  0  0  0  0
  -30.6200  -14.8080   20.3710 C   0  0  0  0  0  0  0  0  0  0  0  0
  -30.4150  -12.5300   19.3530 C   0  0  0  0  0  2  0  0  0  0  0  0
  -29.4800  -12.5840   18.1260 C   0  0  0  0  0  2  0  0  0  0  0  0
  -28.0130  -12.3950   18.5560 C   0  0  0  0  0  2  0  0  0  0  0  0
  -27.6270  -13.2860   19.7670 C   0  0  0  0  0  3  0  0  0  0  0  0
  -28.6850  -13.2290   20.8890 C   0  0  0  0  0  2  0  0  0  0  0  0
  -29.9760  -13.5910   20.2920 N   0  0  0  0  0  0  0  0  0  0  0  0
  -31.8100  -14.8790   20.0550 O   0  0  0  0  0  0  0  0  0  0  0  0
  -28.9180  -16.7540   19.9750 C   0  0  0  0  0  2  0  0  0  0  0  0
  -30.4570  -17.2480   21.2930 C   0  0  0  0  0  2  0  0  0  0  0  0
  -29.6610  -18.1080   20.2560 C   0  0  0  0  0  3  0  0  0  0  0  0
  -29.9230  -15.9620   20.7400 N   0  0  0  0  0  0  0  0  0  0  0  0
  -25.2340  -13.8550   20.4890 C   0  0  0  0  0  0  0  0  0  0  0  0
  -24.1750  -13.0730   20.8570 C   0  0  0  0  0  0  0  0  0  0  0  0
  -24.6510  -11.7260   20.8310 C   0  0  0  0  0  0  0  0  0  0  0  0
  -26.2880  -12.9850   20.2580 N   0  0  0  0  0  0  0  0  0  0  0  0
  -25.9430  -11.7000   20.5280 N   0  0  0  0  0  0  0  0  0  0  0  0
  -23.9340  -10.4580   21.0210 C   0  0  0  0  0  0  0  0  0  0  0  0
  -24.3680   -9.4970   21.9610 C   0  0  0  0  0  3  0  0  0  0  0  0
  -23.6490   -8.2950   22.1390 C   0  0  0  0  0  3  0  0  0  0  0  0
  -22.4850   -8.0450   21.3750 C   0  0  0  0  0  0  0  0  0  0  0  0
  -22.0700   -8.9940   20.4250 C   0  0  0  0  0  3  0  0  0  0  0  0
  -22.7890  -10.1880   20.2460 C   0  0  0  0  0  3  0  0  0  0  0  0
  -21.7380   -6.8950   21.4620 O   0  0  0  0  0  0  0  0  0  0  0  0
  -21.6820   -6.1580   22.6180 C   0  0  0  0  0  0  0  0  0  0  0  0
  -21.2270   -6.7140   23.8340 C   0  0  0  0  0  3  0  0  0  0  0  0
  -21.1200   -5.9040   24.9820 C   0  0  0  0  0  3  0  0  0  0  0  0
  -21.4560   -4.5380   24.9140 C   0  0  0  0  0  0  0  0  0  0  0  0
  -21.9040   -3.9810   23.7040 C   0  0  0  0  0  3  0  0  0  0  0  0
  -22.0130   -4.7890   22.5580 C   0  0  0  0  0  0  0  0  0  0  0  0
  -22.4250   -4.2440   21.3880 F   0  0  0  0  0  0  0  0  0  0  0  0
  -21.3460   -3.7580   26.0150 F   0  0  0  0  0  0  0  0  0  0  0  0
  -22.7730  -13.5390   21.1200 C   0  0  0  0  0  0  0  0  0  0  0  0
  -22.0480  -12.8420   21.9880 N   0  0  0  0  0  0  0  0  0  0  0  0
  -22.3280  -14.5580   20.5920 O   0  0  0  0  0  0  0  0  0  0  0  0
  -22.4210  -12.0180   22.4370 H   0  0  0  0  0  0  0  0  0  0  0  0
  -21.1070  -13.1360   22.2070 H   0  0  0  0  0  0  0  0  0  0  0  0
  -25.3850  -15.2260   20.3080 N   0  0  0  0  0  0  0  0  0  0  0  0
  -24.6120  -15.8730   20.4160 H   0  0  0  0  0  0  0  0  0  0  0  0
  -26.2320  -15.6700   19.9810 H   0  0  0  0  0  0  0  0  0  0  0  0
  1  3  1  0
  2  1  1  0
  5  1  1  0
  5  6  1  0
  5  4  1  0
  6  7  1  0
  6  4  1  0
  8 19  2  0
  9  7  1  0
  9 14  1  0
 10 18  1  0
 10 20  1  0
 11 17  1  0
 11 13  1  0
 12 18  1  0
 13 12  1  0
 14 13  2  0
 15  9  2  0
 16 15  1  0
 16 11  2  0
 17 10  1  0
 18  8  1  0
 20 22  2  0
 21 20  1  0
 23 21  1  0
 24 33  2  0
 24 29  1  0
 25 21  1  0
 25 29  1  0
 26 25  1  0
 27 28  1  0
 27 26  1  0
 28 24  1  0
 29 30  2  0
 30 31  1  0
 32 31  2  0
 33 32  1  0
 34  8  1  0
 34 39  1  0
 34 35  1  0
 35 38  1  1
 35 36  1  0
 37 35  1  0
 39 42  1  0
 40 44  1  0
 40 39  1  0
 41 40  2  0
 44 43  1  0
 46 44  1  0
 46 47  1  0
 46 45  1  0
 48  1  1  0
 48 49  2  0
 50 61  1  0
 51 56  1  0
 52 53  1  0
 52 51  1  0
 54 53  1  0
 54 65  1  0
 54 55  1  0
 56 50  1  0
 56 55  1  0
 57 50  2  0
 58 60  1  0
 58 61  1  0
 60 49  1  0
 60 59  1  0
 61 59  1  0
 62 63  2  0
 63 82  1  0
 64 63  1  0
 64 67  1  0
 65 62  1  0
 65 66  1  0
 66 64  2  0
 67 68  1  0
 68 69  2  0
 70 73  1  0
 70 69  1  0
 71 70  2  0
 72 71  1  0
 72 67  2  0
 73 74  1  0
 74 75  1  0
 75 76  2  0
 77 76  1  0
 77 81  1  0
 78 77  2  0
 79 74  2  0
 79 78  1  0
 80 79  1  0
 82 83  1  0
 83 86  1  0
 83 85  1  0
 84 82  2  0
 87 88  1  0
 87 62  1  0
 89 87  1  0
M  ISO  4   6 101   7 101  50 100  61 100
M  END
>  <TORSDO>  (34) 
F 19

>  <SCORE>  (34) 
-14.166

>  <name>  (34) 
33

>  <ligand_id>  (34) 
33

>  <original_smiles>  (34) 
[H]c1c([H])c([H])c2c(c1[H])C([H])([H])C([H])([H])C([H])([H])C2([H])N([H])C(=O)C1([H])N(C(=O)C([H])(N([H])C(=O)C([H])(N([H])C([H])([H])[H])C([H])([H])[H])C(C([H])([H])[H])(C([H])([H])[H])C([H])([H])[H])C([H])([H])c2c([H])c(OC3([H])C([H])([H])C3([H])[N+]([H])([H])C([H])([H])C([H])([H])C3([H])C([H])([H])N(C(=O)N4C([H])([H])C([H])([H])C([H])([H])C([H])(n5nc(-c6c([H])c([H])c(Oc7c([H])c([H])c(F)c([H])c7F)c([H])c6[H])c(C(=O)N([H])[H])c5N([H])[H])C4([H])[H])C3([H])[H])c([H])c([H])c2C1([H])[H]

>  <smiles>  (34) 
[H]c1c([H])c([H])c2c(c1[H])C([H])([H])C([H])([H])C([H])([H])C2([H])N([H])C(=O)C1([H])N(C(=O)C([H])(N([H])C(=O)C([H])(N([H])C([H])([H])[H])C([H])([H])[H])C(C([H])([H])[H])(C([H])([H])[H])C([H])([H])[H])C([H])([H])c2c([H])c(OC3([H])C([H])([H])C3([H])[N+]([H])([H])C([H])([H])C([H])([H])C3([H])C([H])([H])N(C(=O)N4C([H])([H])C([H])([H])C([H])([H])C([H])(n5nc(-c6c([H])c([H])c(Oc7c([H])c([H])c(F)c([H])c7F)c([H])c6[H])c(C(=O)N([H])[H])c5N([H])[H])C4([H])[H])C3([H])[H])c([H])c([H])c2C1([H])[H]

$$$$
34:0:0
     RDKit          3D

 92100  0  0  1  0  0  0  0  0999 V2000
  -29.5720  -22.0430   22.6760 C   0  0  0  0  0  1  0  0  0  0  0  0
  -29.7070  -21.9280   21.1440 C   0  0  0  0  0  3  0  0  0  0  0  0
  -28.8680  -22.9490   20.5040 N   0  0  0  0  0  0  0  0  0  0  0  0
  -27.9170  -22.8660   20.8560 H   0  0  0  0  0  0  0  0  0  0  0  0
  -29.2940  -24.3530   20.6320 C   0  0  0  0  0  2  0  0  0  0  0  0
  -28.1860  -25.2520   20.0320 C   0  0  0  0  0  2  0  0  0  0  0  0
  -28.3560  -26.6730   20.2200 O   0  0  0  0  0  0  0  0  0  0  0  0
  -24.5800  -31.8980   23.2680 C   0  0  0  0  0  0  0  0  0  0  0  0
  -27.2000  -27.4380   20.1740 C   0  0  0  0  0  0  0  0  0  0  0  0
  -23.3670  -30.5050   21.6260 C   0  0  0  0  0  3  0  0  0  0  0  0
  -24.8130  -28.9740   20.1880 C   0  0  0  0  0  0  0  0  0  0  0  0
  -25.8970  -30.8510   21.4280 C   0  0  0  0  0  2  0  0  0  0  0  0
  -25.9770  -29.4820   20.7790 C   0  0  0  0  0  0  0  0  0  0  0  0
  -27.1720  -28.7220   20.7710 C   0  0  0  0  0  3  0  0  0  0  0  0
  -26.0170  -26.9630   19.5570 C   0  0  0  0  0  3  0  0  0  0  0  0
  -24.8300  -27.7140   19.5730 C   0  0  0  0  0  3  0  0  0  0  0  0
  -23.5730  -29.8360   20.2420 C   0  0  0  0  0  2  0  0  0  0  0  0
  -24.6340  -31.0990   22.1650 N   0  0  0  0  0  0  0  0  0  0  0  0
  -23.5000  -32.1710   23.8110 O   0  0  0  0  0  0  0  0  0  0  0  0
  -22.7150  -29.4800   22.5820 C   0  0  0  0  0  0  0  0  0  0  0  0
  -21.3910  -29.2950   22.4520 N   0  0  0  0  0  0  0  0  0  0  0  0
  -23.3990  -28.8560   23.3980 O   0  0  0  0  0  0  0  0  0  0  0  0
  -20.9010  -29.8520   21.7660 H   0  0  0  0  0  0  0  0  0  0  0  0
  -18.0190  -28.0930   22.9390 C   0  0  0  0  0  0  0  0  0  0  0  0
  -20.5750  -28.3560   23.2220 C   0  0  0  0  0  3  0  0  0  0  0  0
  -20.6830  -26.9240   22.6490 C   0  0  0  0  0  2  0  0  0  0  0  0
  -19.5870  -26.5980   21.6300 C   0  0  0  0  0  2  0  0  0  0  0  0
  -18.2010  -26.7420   22.2670 C   0  0  0  0  0  2  0  0  0  0  0  0
  -19.1340  -28.8570   23.3730 C   0  0  0  0  0  0  0  0  0  0  0  0
  -18.9110  -30.1220   23.9590 C   0  0  0  0  0  3  0  0  0  0  0  0
  -17.6040  -30.6220   24.1160 C   0  0  0  0  0  3  0  0  0  0  0  0
  -16.5030  -29.8540   23.7010 C   0  0  0  0  0  3  0  0  0  0  0  0
  -16.7120  -28.5920   23.1170 C   0  0  0  0  0  3  0  0  0  0  0  0
  -25.8690  -32.5250   23.8850 C   0  0  0  0  0  3  0  0  0  0  0  0
  -25.5680  -33.9260   24.2100 N   0  0  0  0  0  0  0  0  0  0  0  0
  -25.9030  -34.9720   23.4440 C   0  0  0  0  0  0  0  0  0  0  0  0
  -26.5690  -34.8590   22.4110 O   0  0  0  0  0  0  0  0  0  0  0  0
  -24.9770  -34.0880   25.0130 H   0  0  0  0  0  0  0  0  0  0  0  0
  -24.1810  -36.7690   23.0800 C   0  0  0  0  0  1  0  0  0  0  0  0
  -25.4210  -36.3650   23.8930 C   0  0  0  0  0  3  0  0  0  0  0  0
  -27.5590  -37.2440   24.7190 C   0  0  0  0  0  1  0  0  0  0  0  0
  -26.4580  -37.4130   23.7740 N   0  0  0  0  0  0  0  0  0  0  0  0
  -26.0560  -38.3350   23.9200 H   0  0  0  0  0  0  0  0  0  0  0  0
  -26.3850  -31.7550   25.1620 C   0  0  1  0  0  0  0  0  0  0  0  0
  -25.2930  -31.5250   26.2330 C   0  0  0  0  0  1  0  0  0  0  0  0
  -26.9630  -30.3740   24.7720 C   0  0  0  0  0  1  0  0  0  0  0  0
  -27.5410  -32.5450   25.8200 C   0  0  0  0  0  1  0  0  0  0  0  0
  -29.2420  -20.5300   20.6270 C   0  0  0  0  0  2  0  0  0  0  0  0
  -30.0410  -19.3800   21.1330 N   0  0  0  0  0  4  0  0  0  0  0  0
  -31.0000  -19.5000   20.8490 H   0  0  0  0  0  0  0  0  0  0  0  0
  -30.0130  -19.4060   22.1390 H   0  0  0  0  0  0  0  0  0  0  0  0
  -30.6680  -14.5390   20.4990 C   0  0  0  0  0  0  0  0  0  0  0  0
  -30.3840  -12.3330   19.4610 C   0  0  0  0  0  2  0  0  0  0  0  0
  -29.4600  -12.5030   18.2380 C   0  0  0  0  0  2  0  0  0  0  0  0
  -27.9800  -12.3700   18.6510 C   0  0  0  0  0  2  0  0  0  0  0  0
  -27.6170  -13.2260   19.8930 C   0  0  0  0  0  3  0  0  0  0  0  0
  -28.6710  -13.0850   21.0160 C   0  0  0  0  0  2  0  0  0  0  0  0
  -29.9920  -13.3590   20.4350 N   0  0  0  0  0  0  0  0  0  0  0  0
  -31.8700  -14.6380   20.2390 O   0  0  0  0  0  0  0  0  0  0  0  0
  -29.7690  -17.7380   19.2220 C   0  0  0  0  0  2  0  0  0  0  0  0
  -29.5540  -16.2250   19.1670 C   0  0  0  0  0  2  0  0  0  0  0  0
  -30.2030  -16.8150   21.3590 C   0  0  0  0  0  2  0  0  0  0  0  0
  -29.5470  -18.0440   20.6910 C   0  0  0  0  0  3  0  0  0  0  0  0
  -29.8950  -15.6560   20.4920 N   0  0  0  0  0  0  0  0  0  0  0  0
  -25.2180  -13.8460   20.5750 C   0  0  0  0  0  0  0  0  0  0  0  0
  -24.1440  -13.0780   20.9290 C   0  0  0  0  0  0  0  0  0  0  0  0
  -24.6030  -11.7260   20.9110 C   0  0  0  0  0  0  0  0  0  0  0  0
  -26.2630  -12.9580   20.3650 N   0  0  0  0  0  0  0  0  0  0  0  0
  -25.8970  -11.6790   20.6250 N   0  0  0  0  0  0  0  0  0  0  0  0
  -23.8720  -10.4660   21.0940 C   0  0  0  0  0  0  0  0  0  0  0  0
  -24.3050   -9.4900   22.0190 C   0  0  0  0  0  3  0  0  0  0  0  0
  -23.5770   -8.2940   22.1890 C   0  0  0  0  0  3  0  0  0  0  0  0
  -22.4010   -8.0650   21.4360 C   0  0  0  0  0  0  0  0  0  0  0  0
  -21.9880   -9.0290   20.4990 C   0  0  0  0  0  3  0  0  0  0  0  0
  -22.7170  -10.2170   20.3260 C   0  0  0  0  0  3  0  0  0  0  0  0
  -21.6450   -6.9210   21.5180 O   0  0  0  0  0  0  0  0  0  0  0  0
  -21.6110   -6.1610   22.6590 C   0  0  0  0  0  0  0  0  0  0  0  0
  -21.2110   -6.7010   23.9010 C   0  0  0  0  0  3  0  0  0  0  0  0
  -21.1230   -5.8690   25.0340 C   0  0  0  0  0  3  0  0  0  0  0  0
  -21.4240   -4.4970   24.9270 C   0  0  0  0  0  0  0  0  0  0  0  0
  -21.8170   -3.9570   23.6900 C   0  0  0  0  0  3  0  0  0  0  0  0
  -21.9070   -4.7870   22.5590 C   0  0  0  0  0  0  0  0  0  0  0  0
  -22.2670   -4.2580   21.3640 F   0  0  0  0  0  0  0  0  0  0  0  0
  -21.3320   -3.6960   26.0130 F   0  0  0  0  0  0  0  0  0  0  0  0
  -22.7430  -13.5590   21.1770 C   0  0  0  0  0  0  0  0  0  0  0  0
  -22.0000  -12.8680   22.0350 N   0  0  0  0  0  0  0  0  0  0  0  0
  -22.3150  -14.5820   20.6450 O   0  0  0  0  0  0  0  0  0  0  0  0
  -22.3580  -12.0400   22.4890 H   0  0  0  0  0  0  0  0  0  0  0  0
  -21.0590  -13.1690   22.2400 H   0  0  0  0  0  0  0  0  0  0  0  0
  -25.3890  -15.2160   20.3940 N   0  0  0  0  0  0  0  0  0  0  0  0
  -24.6250  -15.8750   20.4960 H   0  0  0  0  0  0  0  0  0  0  0  0
  -26.2530  -15.6530   20.1000 H   0  0  0  0  0  0  0  0  0  0  0  0
  2  1  1  0
  3  5  1  0
  3  4  1  0
  3  2  1  0
  6  7  1  0
  6  5  1  0
  8 19  2  0
  9  7  1  0
  9 14  1  0
 10 18  1  0
 10 20  1  0
 11 17  1  0
 11 13  1  0
 12 18  1  0
 13 12  1  0
 14 13  2  0
 15 16  1  0
 15  9  2  0
 16 11  2  0
 17 10  1  0
 18  8  1  0
 20 22  2  0
 21 20  1  0
 23 21  1  0
 24 33  2  0
 24 29  1  0
 25 21  1  0
 25 29  1  0
 26 25  1  0
 27 28  1  0
 27 26  1  0
 28 24  1  0
 29 30  2  0
 30 31  1  0
 32 31  2  0
 33 32  1  0
 34  8  1  0
 34 35  1  0
 34 44  1  0
 35 38  1  0
 36 40  1  0
 36 35  1  0
 37 36  2  0
 40 39  1  0
 42 40  1  0
 42 43  1  0
 42 41  1  0
 44 47  1  1
 44 45  1  0
 46 44  1  0
 48 49  1  0
 48  2  1  0
 49 51  1  0
 50 49  1  0
 53 58  1  0
 54 55  1  0
 54 53  1  0
 56 55  1  0
 56 68  1  0
 56 57  1  0
 58 52  1  0
 58 57  1  0
 59 52  2  0
 60 63  1  0
 61 60  1  0
 61 64  1  0
 63 49  1  0
 63 62  1  0
 64 52  1  0
 64 62  1  0
 65 66  2  0
 66 85  1  0
 67 66  1  0
 67 70  1  0
 68 65  1  0
 68 69  1  0
 69 67  2  0
 70 71  1  0
 71 72  2  0
 73 76  1  0
 73 72  1  0
 74 73  2  0
 75 74  1  0
 75 70  2  0
 76 77  1  0
 77 78  1  0
 78 79  2  0
 80 79  1  0
 80 84  1  0
 81 80  2  0
 82 77  2  0
 82 81  1  0
 83 82  1  0
 85 86  1  0
 86 89  1  0
 86 88  1  0
 87 85  2  0
 90 91  1  0
 90 65  1  0
 92 90  1  0
M  ISO  4   6 101   7 101  52 100  64 100
M  END
>  <TORSDO>  (35) 
F 21

>  <SCORE>  (35) 
-13.724

>  <name>  (35) 
34

>  <ligand_id>  (35) 
34

>  <original_smiles>  (35) 
[H]c1c([H])c([H])c2c(c1[H])C([H])([H])C([H])([H])C([H])([H])C2([H])N([H])C(=O)C1([H])N(C(=O)C([H])(N([H])C(=O)C([H])(N([H])C([H])([H])[H])C([H])([H])[H])C(C([H])([H])[H])(C([H])([H])[H])C([H])([H])[H])C([H])([H])c2c([H])c(OC([H])([H])C([H])([H])N([H])C([H])(C([H])([H])[H])C([H])([H])[N+]([H])([H])C3([H])C([H])([H])N(C(=O)N4C([H])([H])C([H])([H])C([H])([H])C([H])(n5nc(-c6c([H])c([H])c(Oc7c([H])c([H])c(F)c([H])c7F)c([H])c6[H])c(C(=O)N([H])[H])c5N([H])[H])C4([H])[H])C([H])([H])C3([H])[H])c([H])c([H])c2C1([H])[H]

>  <smiles>  (35) 
[H]c1c([H])c([H])c2c(c1[H])C([H])([H])C([H])([H])C([H])([H])C2([H])N([H])C(=O)C1([H])N(C(=O)C([H])(N([H])C(=O)C([H])(N([H])C([H])([H])[H])C([H])([H])[H])C(C([H])([H])[H])(C([H])([H])[H])C([H])([H])[H])C([H])([H])c2c([H])c(OC([H])([H])C([H])([H])N([H])C([H])(C([H])([H])[H])C([H])([H])[N+]([H])([H])C3([H])C([H])([H])N(C(=O)N4C([H])([H])C([H])([H])C([H])([H])C([H])(n5nc(-c6c([H])c([H])c(Oc7c([H])c([H])c(F)c([H])c7F)c([H])c6[H])c(C(=O)N([H])[H])c5N([H])[H])C4([H])[H])C([H])([H])C3([H])[H])c([H])c([H])c2C1([H])[H]

$$$$
35:0:0
     RDKit          3D

 94104  0  0  1  0  0  0  0  0999 V2000
  -28.0290  -23.3840   19.7840 C   0  0  0  0  0  3  0  0  0  0  0  0
  -28.7140  -25.3890   19.7840 C   0  0  0  0  0  0  0  0  0  0  0  0
  -27.5730  -24.6470   19.6410 N   0  0  0  0  0  0  0  0  0  0  0  0
  -29.8180  -24.6100   20.0050 N   0  0  0  0  0  0  0  0  0  0  0  0
  -29.3600  -23.2680   19.9900 N   0  0  0  0  0  0  0  0  0  0  0  0
  -25.7210  -22.2290   20.2520 C   0  0  0  0  0  2  0  0  0  0  0  0
  -26.7620  -21.3660   20.9190 C   0  0  0  0  0  2  0  0  0  0  0  0
  -27.1290  -22.1890   19.6980 C   0  0  0  0  0  3  0  0  0  0  0  0
  -28.7300  -26.8470   19.7130 O   0  0  0  0  0  0  0  0  0  0  0  0
  -24.6900  -31.9470   23.0830 C   0  0  0  0  0  0  0  0  0  0  0  0
  -27.5860  -27.7090   19.7240 C   0  0  0  0  0  0  0  0  0  0  0  0
  -23.5860  -30.6020   21.3330 C   0  0  0  0  0  3  0  0  0  0  0  0
  -25.1400  -29.2560   19.8000 C   0  0  0  0  0  0  0  0  0  0  0  0
  -26.1110  -31.0630   21.2070 C   0  0  0  0  0  2  0  0  0  0  0  0
  -26.2770  -29.7370   20.4590 C   0  0  0  0  0  0  0  0  0  0  0  0
  -27.4990  -28.9750   20.4170 C   0  0  0  0  0  3  0  0  0  0  0  0
  -26.4300  -27.3430   18.9990 C   0  0  0  0  0  3  0  0  0  0  0  0
  -25.2240  -28.0700   19.0550 C   0  0  0  0  0  3  0  0  0  0  0  0
  -23.8510  -30.0520   19.9070 C   0  0  0  0  0  2  0  0  0  0  0  0
  -24.8130  -31.2230   21.9300 N   0  0  0  0  0  0  0  0  0  0  0  0
  -23.5870  -32.1160   23.6250 O   0  0  0  0  0  0  0  0  0  0  0  0
  -22.9830  -29.4770   22.2100 C   0  0  0  0  0  0  0  0  0  0  0  0
  -21.6720  -29.2200   22.0570 N   0  0  0  0  0  0  0  0  0  0  0  0
  -23.6950  -28.8420   22.9920 O   0  0  0  0  0  0  0  0  0  0  0  0
  -21.1510  -29.7900   21.4040 H   0  0  0  0  0  0  0  0  0  0  0  0
  -18.3720  -27.7880   22.4720 C   0  0  0  0  0  0  0  0  0  0  0  0
  -20.9140  -28.1750   22.7490 C   0  0  0  0  0  3  0  0  0  0  0  0
  -21.0930  -26.8050   22.0540 C   0  0  0  0  0  2  0  0  0  0  0  0
  -20.0020  -26.5050   21.0200 C   0  0  0  0  0  2  0  0  0  0  0  0
  -18.6210  -26.5130   21.6830 C   0  0  0  0  0  2  0  0  0  0  0  0
  -19.4490  -28.5750   22.9580 C   0  0  0  0  0  0  0  0  0  0  0  0
  -19.1630  -29.7670   23.6590 C   0  0  0  0  0  3  0  0  0  0  0  0
  -17.8320  -30.1740   23.8750 C   0  0  0  0  0  3  0  0  0  0  0  0
  -16.7710  -29.3830   23.4030 C   0  0  0  0  0  3  0  0  0  0  0  0
  -17.0420  -28.1910   22.7080 C   0  0  0  0  0  3  0  0  0  0  0  0
  -25.9230  -32.6150   23.7620 C   0  0  0  0  0  3  0  0  0  0  0  0
  -26.4300  -31.8340   25.0370 C   0  0  1  0  0  0  0  0  0  0  0  0
  -25.3110  -31.5030   26.0500 C   0  0  0  0  0  1  0  0  0  0  0  0
  -27.1040  -30.5020   24.6340 C   0  0  0  0  0  1  0  0  0  0  0  0
  -27.5070  -32.6680   25.7680 C   0  0  0  0  0  1  0  0  0  0  0  0
  -25.5450  -33.9910   24.1200 N   0  0  0  0  0  0  0  0  0  0  0  0
  -25.8590  -35.0800   23.4040 C   0  0  0  0  0  0  0  0  0  0  0  0
  -26.5630  -35.0340   22.3920 O   0  0  0  0  0  0  0  0  0  0  0  0
  -24.9190  -34.0960   24.9030 H   0  0  0  0  0  0  0  0  0  0  0  0
  -24.0780  -36.8210   23.0390 C   0  0  0  0  0  1  0  0  0  0  0  0
  -25.3010  -36.4340   23.8850 C   0  0  0  0  0  3  0  0  0  0  0  0
  -27.3650  -37.3740   24.8300 C   0  0  0  0  0  1  0  0  0  0  0  0
  -26.2970  -37.5280   23.8460 N   0  0  0  0  0  0  0  0  0  0  0  0
  -25.8500  -38.4280   24.0010 H   0  0  0  0  0  0  0  0  0  0  0  0
  -30.2090  -22.0340   20.4400 C   0  0  0  0  0  2  0  0  0  0  0  0
  -30.1210  -20.6710   19.6940 N   0  0  0  0  0  4  0  0  0  0  0  0
  -29.1840  -20.5380   19.3570 H   0  0  0  0  0  0  0  0  0  0  0  0
  -30.6960  -20.7990   18.8780 H   0  0  0  0  0  0  0  0  0  0  0  0
  -31.4670  -15.5110   20.2360 C   0  0  0  0  0  0  0  0  0  0  0  0
  -31.2900  -13.1630   19.3430 C   0  0  0  0  0  2  0  0  0  0  0  0
  -30.3570  -13.1270   18.1120 C   0  0  0  0  0  2  0  0  0  0  0  0
  -28.8860  -12.9650   18.5420 C   0  0  0  0  0  2  0  0  0  0  0  0
  -28.4990  -13.9110   19.7100 C   0  0  0  0  0  3  0  0  0  0  0  0
  -29.5570  -13.8850   20.8340 C   0  0  0  0  0  2  0  0  0  0  0  0
  -30.8360  -14.2730   20.2240 N   0  0  0  0  0  0  0  0  0  0  0  0
  -32.6380  -15.5590   19.8420 O   0  0  0  0  0  0  0  0  0  0  0  0
  -29.6230  -18.6920   21.3690 C   0  0  0  0  0  2  0  0  0  0  0  0
  -30.0630  -17.2010   21.5570 C   0  0  0  0  0  2  0  0  0  0  0  0
  -30.8970  -18.0020   19.5160 C   0  0  0  0  0  2  0  0  0  0  0  0
  -30.5920  -19.3350   20.3710 C   0  0  0  0  0  3  0  0  0  0  0  0
  -30.7250  -16.7130   20.3290 N   0  0  0  0  0  0  0  0  0  0  0  0
  -26.1440  -14.5430   20.4950 C   0  0  0  0  0  0  0  0  0  0  0  0
  -25.0580  -13.7890   20.8490 C   0  0  0  0  0  0  0  0  0  0  0  0
  -25.4760  -12.4260   20.7550 C   0  0  0  0  0  0  0  0  0  0  0  0
  -27.1550  -13.6410   20.2090 N   0  0  0  0  0  0  0  0  0  0  0  0
  -26.7600  -12.3590   20.4250 N   0  0  0  0  0  0  0  0  0  0  0  0
  -24.7100  -11.1810   20.9040 C   0  0  0  0  0  0  0  0  0  0  0  0
  -25.0150  -10.2420   21.9140 C   0  0  0  0  0  3  0  0  0  0  0  0
  -24.2510   -9.0630   22.0480 C   0  0  0  0  0  3  0  0  0  0  0  0
  -23.1670   -8.8140   21.1720 C   0  0  0  0  0  0  0  0  0  0  0  0
  -22.8810   -9.7420   20.1550 C   0  0  0  0  0  3  0  0  0  0  0  0
  -23.6460  -10.9140   20.0190 C   0  0  0  0  0  3  0  0  0  0  0  0
  -22.3840   -7.6840   21.2120 O   0  0  0  0  0  0  0  0  0  0  0  0
  -22.0440   -7.0880   22.4000 C   0  0  0  0  0  0  0  0  0  0  0  0
  -21.3360   -7.7800   23.4070 C   0  0  0  0  0  3  0  0  0  0  0  0
  -20.9450   -7.1080   24.5820 C   0  0  0  0  0  3  0  0  0  0  0  0
  -21.2540   -5.7440   24.7500 C   0  0  0  0  0  0  0  0  0  0  0  0
  -21.9530   -5.0510   23.7460 C   0  0  0  0  0  3  0  0  0  0  0  0
  -22.3450   -5.7220   22.5740 C   0  0  0  0  0  0  0  0  0  0  0  0
  -23.0020   -5.0450   21.6020 F   0  0  0  0  0  0  0  0  0  0  0  0
  -20.8720   -5.0960   25.8750 F   0  0  0  0  0  0  0  0  0  0  0  0
  -23.6810  -14.3010   21.1610 C   0  0  0  0  0  0  0  0  0  0  0  0
  -22.9560  -13.6170   22.0370 N   0  0  0  0  0  0  0  0  0  0  0  0
  -23.2610  -15.3450   20.6630 O   0  0  0  0  0  0  0  0  0  0  0  0
  -23.3100  -12.7740   22.4640 H   0  0  0  0  0  0  0  0  0  0  0  0
  -22.0320  -13.9400   22.2870 H   0  0  0  0  0  0  0  0  0  0  0  0
  -26.3530  -15.9140   20.3740 N   0  0  0  0  0  0  0  0  0  0  0  0
  -25.6110  -16.5890   20.5230 H   0  0  0  0  0  0  0  0  0  0  0  0
  -27.2180  -16.3330   20.0590 H   0  0  0  0  0  0  0  0  0  0  0  0
  1  8  1  0
  1  5  1  0
  2  4  2  0
  3  2  2  0
  3  1  1  0
  5  4  1  0
  5 50  1  0
  6  7  1  0
  8  6  1  0
  8  7  1  0
  9 11  1  0
  9  2  1  0
 10 21  2  0
 11 16  1  0
 12 20  1  0
 12 22  1  0
 13 19  1  0
 13 15  1  0
 14 20  1  0
 15 14  1  0
 16 15  2  0
 17 18  1  0
 17 11  2  0
 18 13  2  0
 19 12  1  0
 20 10  1  0
 22 24  2  0
 23 22  1  0
 25 23  1  0
 26 35  2  0
 26 31  1  0
 27 23  1  0
 27 31  1  0
 28 27  1  0
 29 30  1  0
 29 28  1  0
 30 26  1  0
 31 32  2  0
 32 33  1  0
 34 33  2  0
 35 34  1  0
 36 10  1  0
 36 41  1  0
 36 37  1  0
 37 40  1  1
 37 38  1  0
 39 37  1  0
 41 44  1  0
 42 46  1  0
 42 41  1  0
 43 42  2  0
 46 45  1  0
 48 46  1  0
 48 49  1  0
 48 47  1  0
 51 50  1  0
 52 51  1  0
 53 51  1  0
 54 66  1  0
 55 60  1  0
 56 57  1  0
 56 55  1  0
 58 57  1  0
 58 70  1  0
 58 59  1  0
 60 54  1  0
 60 59  1  0
 61 54  2  0
 62 63  1  0
 64 66  1  0
 64 65  1  0
 65 51  1  0
 65 62  1  0
 66 63  1  0
 67 68  2  0
 68 87  1  0
 69 68  1  0
 69 72  1  0
 70 71  1  0
 70 67  1  0
 71 69  2  0
 72 73  1  0
 73 74  2  0
 75 78  1  0
 75 74  1  0
 76 75  2  0
 77 76  1  0
 77 72  2  0
 78 79  1  0
 79 84  2  0
 79 80  1  0
 80 81  2  0
 81 82  1  0
 82 86  1  0
 83 82  2  0
 84 83  1  0
 85 84  1  0
 87 88  1  0
 88 91  1  0
 88 90  1  0
 89 87  2  0
 92 67  1  0
 92 93  1  0
 94 92  1  0
M  ISO  4   2 101   9 101  54 100  66 100
M  END
>  <TORSDO>  (36) 
F 19

>  <SCORE>  (36) 
-9.654

>  <name>  (36) 
35

>  <ligand_id>  (36) 
35

>  <original_smiles>  (36) 
[H]c1c([H])c([H])c2c(c1[H])C([H])([H])C([H])([H])C([H])([H])C2([H])N([H])C(=O)C1([H])N(C(=O)C([H])(N([H])C(=O)C([H])(N([H])C([H])([H])[H])C([H])([H])[H])C(C([H])([H])[H])(C([H])([H])[H])C([H])([H])[H])C([H])([H])c2c([H])c(Oc3nc(C4([H])C([H])([H])C4([H])[H])n(C([H])([H])[N+]([H])([H])C4([H])C([H])([H])N(C(=O)N5C([H])([H])C([H])([H])C([H])([H])C([H])(n6nc(-c7c([H])c([H])c(Oc8c([H])c([H])c(F)c([H])c8F)c([H])c7[H])c(C(=O)N([H])[H])c6N([H])[H])C5([H])[H])C([H])([H])C4([H])[H])n3)c([H])c([H])c2C1([H])[H]

>  <smiles>  (36) 
[H]c1c([H])c([H])c2c(c1[H])C([H])([H])C([H])([H])C([H])([H])C2([H])N([H])C(=O)C1([H])N(C(=O)C([H])(N([H])C(=O)C([H])(N([H])C([H])([H])[H])C([H])([H])[H])C(C([H])([H])[H])(C([H])([H])[H])C([H])([H])[H])C([H])([H])c2c([H])c(Oc3nc(C4([H])C([H])([H])C4([H])[H])n(C([H])([H])[N+]([H])([H])C4([H])C([H])([H])N(C(=O)N5C([H])([H])C([H])([H])C([H])([H])C([H])(n6nc(-c7c([H])c([H])c(Oc8c([H])c([H])c(F)c([H])c8F)c([H])c7[H])c(C(=O)N([H])[H])c6N([H])[H])C5([H])[H])C([H])([H])C4([H])[H])n3)c([H])c([H])c2C1([H])[H]

$$$$
36:0:0
     RDKit          3D

 95105  0  0  1  0  0  0  0  0999 V2000
  -28.8990  -23.1880   18.8590 C   0  0  0  0  0  3  0  0  0  0  0  0
  -29.3790  -21.9930   18.2990 C   0  0  0  0  0  0  0  0  0  0  0  0
  -28.6280  -23.2460   20.2230 C   0  0  0  0  0  3  0  0  0  0  0  0
  -29.3260  -20.8860   20.3240 C   0  0  0  0  0  0  0  0  0  0  0  0
  -29.6040  -20.8570   19.0180 N   0  0  0  0  0  0  0  0  0  0  0  0
  -28.8540  -22.0440   20.9350 N   0  0  0  0  0  0  0  0  0  0  0  0
  -29.0090  -20.8480   15.9540 C   0  0  0  0  0  2  0  0  0  0  0  0
  -30.4090  -20.6320   15.3850 C   0  0  0  0  0  2  0  0  0  0  0  0
  -29.6360  -21.9470   16.8060 C   0  0  0  0  0  3  0  0  0  0  0  0
  -30.9330  -21.3710   16.5300 N   0  0  0  0  0  4  0  0  0  0  0  0
  -31.6380  -22.0630   16.3440 H   0  0  0  0  0  0  0  0  0  0  0  0
  -31.1360  -20.8150   17.3470 H   0  0  0  0  0  0  0  0  0  0  0  0
  -27.9440  -24.6090   20.8240 C   0  0  0  0  0  2  0  0  0  0  0  0
  -28.1820  -26.0420   20.2970 O   0  0  0  0  0  0  0  0  0  0  0  0
  -24.6040  -31.7150   23.3110 C   0  0  0  0  0  0  0  0  0  0  0  0
  -27.1340  -27.0140   20.2820 C   0  0  0  0  0  0  0  0  0  0  0  0
  -23.3990  -30.3640   21.6370 C   0  0  0  0  0  3  0  0  0  0  0  0
  -24.8370  -28.7810   20.2170 C   0  0  0  0  0  0  0  0  0  0  0  0
  -25.9580  -30.5920   21.5090 C   0  0  0  0  0  2  0  0  0  0  0  0
  -26.0160  -29.2080   20.8470 C   0  0  0  0  0  0  0  0  0  0  0  0
  -27.1710  -28.3460   20.8530 C   0  0  0  0  0  3  0  0  0  0  0  0
  -25.9360  -26.6760   19.6180 C   0  0  0  0  0  3  0  0  0  0  0  0
  -24.8130  -27.5280   19.5820 C   0  0  0  0  0  3  0  0  0  0  0  0
  -23.6250  -29.6970   20.2550 C   0  0  0  0  0  2  0  0  0  0  0  0
  -24.6730  -30.9110   22.2060 N   0  0  0  0  0  0  0  0  0  0  0  0
  -23.5190  -32.0120   23.8280 O   0  0  0  0  0  0  0  0  0  0  0  0
  -22.6860  -29.3590   22.5770 C   0  0  0  0  0  0  0  0  0  0  0  0
  -21.3670  -29.1770   22.3960 N   0  0  0  0  0  0  0  0  0  0  0  0
  -23.3290  -28.7420   23.4330 O   0  0  0  0  0  0  0  0  0  0  0  0
  -20.9040  -29.7320   21.6890 H   0  0  0  0  0  0  0  0  0  0  0  0
  -17.9890  -27.9060   22.7320 C   0  0  0  0  0  0  0  0  0  0  0  0
  -20.5210  -28.2390   23.1390 C   0  0  0  0  0  3  0  0  0  0  0  0
  -20.6910  -26.7960   22.6110 C   0  0  0  0  0  2  0  0  0  0  0  0
  -19.6580  -26.4180   21.5440 C   0  0  0  0  0  2  0  0  0  0  0  0
  -18.2360  -26.5460   22.0980 C   0  0  0  0  0  2  0  0  0  0  0  0
  -19.0640  -28.7080   23.2040 C   0  0  0  0  0  0  0  0  0  0  0  0
  -18.7780  -29.9760   23.7530 C   0  0  0  0  0  3  0  0  0  0  0  0
  -17.4540  -30.4480   23.8320 C   0  0  0  0  0  3  0  0  0  0  0  0
  -16.3950  -29.6470   23.3740 C   0  0  0  0  0  3  0  0  0  0  0  0
  -16.6620  -28.3770   22.8330 C   0  0  0  0  0  3  0  0  0  0  0  0
  -25.8860  -32.3190   23.9620 C   0  0  0  0  0  3  0  0  0  0  0  0
  -26.3350  -31.5700   25.2770 C   0  0  1  0  0  0  0  0  0  0  0  0
  -25.1970  -31.4000   26.3110 C   0  0  0  0  0  1  0  0  0  0  0  0
  -26.8890  -30.1650   24.9490 C   0  0  0  0  0  1  0  0  0  0  0  0
  -27.4820  -32.3570   25.9570 C   0  0  0  0  0  1  0  0  0  0  0  0
  -25.6170  -33.7360   24.2520 N   0  0  0  0  0  0  0  0  0  0  0  0
  -26.0520  -34.7660   23.5140 C   0  0  0  0  0  0  0  0  0  0  0  0
  -26.7880  -34.6200   22.5340 O   0  0  0  0  0  0  0  0  0  0  0  0
  -24.9930  -33.9280   25.0230 H   0  0  0  0  0  0  0  0  0  0  0  0
  -24.4570  -36.6460   23.0090 C   0  0  0  0  0  1  0  0  0  0  0  0
  -25.5970  -36.1780   23.9280 C   0  0  0  0  0  3  0  0  0  0  0  0
  -27.6900  -36.9480   24.9530 C   0  0  0  0  0  1  0  0  0  0  0  0
  -26.6860  -37.1800   23.9190 N   0  0  0  0  0  0  0  0  0  0  0  0
  -26.3110  -38.1150   24.0530 H   0  0  0  0  0  0  0  0  0  0  0  0
  -29.5230  -19.6860   21.0710 O   0  0  0  0  0  0  0  0  0  0  0  0
  -30.8780  -14.8420   21.0340 C   0  0  0  0  0  0  0  0  0  0  0  0
  -30.7250  -12.4880   20.1330 C   0  0  0  0  0  2  0  0  0  0  0  0
  -29.9300  -12.3870   18.8170 C   0  0  0  0  0  2  0  0  0  0  0  0
  -28.4340  -12.2080   19.1180 C   0  0  0  0  0  2  0  0  0  0  0  0
  -27.9200  -13.1960   20.1980 C   0  0  0  0  0  3  0  0  0  0  0  0
  -28.8580  -13.2900   21.4180 C   0  0  0  0  0  2  0  0  0  0  0  0
  -30.1830  -13.6450   20.9020 N   0  0  0  0  0  0  0  0  0  0  0  0
  -32.1080  -14.7730   20.9350 O   0  0  0  0  0  0  0  0  0  0  0  0
  -31.0360  -17.4540   20.6870 C   0  0  0  0  0  2  0  0  0  0  0  0
  -29.1210  -16.9640   21.2850 C   0  0  0  0  0  2  0  0  0  0  0  0
  -29.6880  -18.2520   20.5160 C   0  0  0  0  0  3  0  0  0  0  0  0
  -30.3090  -16.1400   20.8570 N   0  0  0  0  0  0  0  0  0  0  0  0
  -25.5070  -13.8240   20.7500 C   0  0  0  0  0  0  0  0  0  0  0  0
  -24.3920  -13.0730   20.9970 C   0  0  0  0  0  0  0  0  0  0  0  0
  -24.8180  -11.7090   20.9660 C   0  0  0  0  0  0  0  0  0  0  0  0
  -26.5390  -12.9220   20.5740 N   0  0  0  0  0  0  0  0  0  0  0  0
  -26.1310  -11.6420   20.7730 N   0  0  0  0  0  0  0  0  0  0  0  0
  -24.0400  -10.4660   21.0530 C   0  0  0  0  0  0  0  0  0  0  0  0
  -24.3960   -9.4320   21.9450 C   0  0  0  0  0  3  0  0  0  0  0  0
  -23.6230   -8.2530   22.0240 C   0  0  0  0  0  3  0  0  0  0  0  0
  -22.4770   -8.1030   21.2060 C   0  0  0  0  0  0  0  0  0  0  0  0
  -22.1380   -9.1260   20.3020 C   0  0  0  0  0  3  0  0  0  0  0  0
  -22.9130  -10.2960   20.2230 C   0  0  0  0  0  3  0  0  0  0  0  0
  -21.6790   -6.9840   21.1930 O   0  0  0  0  0  0  0  0  0  0  0  0
  -21.5780   -6.1610   22.2850 C   0  0  0  0  0  0  0  0  0  0  0  0
  -21.1080   -6.6320   23.5300 C   0  0  0  0  0  3  0  0  0  0  0  0
  -20.9540   -5.7400   24.6100 C   0  0  0  0  0  3  0  0  0  0  0  0
  -21.2580   -4.3750   24.4440 C   0  0  0  0  0  0  0  0  0  0  0  0
  -21.7200   -3.9020   23.2020 C   0  0  0  0  0  3  0  0  0  0  0  0
  -21.8770   -4.7930   22.1260 C   0  0  0  0  0  0  0  0  0  0  0  0
  -22.3030   -4.3290   20.9250 F   0  0  0  0  0  0  0  0  0  0  0  0
  -21.1020   -3.5150   25.4760 F   0  0  0  0  0  0  0  0  0  0  0  0
  -22.9900  -13.5890   21.1500 C   0  0  0  0  0  0  0  0  0  0  0  0
  -22.1730  -12.9020   21.9390 N   0  0  0  0  0  0  0  0  0  0  0  0
  -22.6290  -14.6330   20.6120 O   0  0  0  0  0  0  0  0  0  0  0  0
  -22.4810  -12.0600   22.4020 H   0  0  0  0  0  0  0  0  0  0  0  0
  -21.2260  -13.2230   22.0850 H   0  0  0  0  0  0  0  0  0  0  0  0
  -25.7270  -15.1930   20.6330 N   0  0  0  0  0  0  0  0  0  0  0  0
  -24.9800  -15.8750   20.7040 H   0  0  0  0  0  0  0  0  0  0  0  0
  -26.6190  -15.5990   20.3870 H   0  0  0  0  0  0  0  0  0  0  0  0
  1  3  1  0
  2  1  2  0
  2  5  1  0
  3 13  1  0
  3  6  1  0
  4  6  2  0
  4 55  1  0
  5  4  2  0
  7  9  1  0
  8  7  1  0
  8 10  1  0
  9  2  1  0
 10  9  1  0
 10 12  1  0
 11 10  1  0
 14 13  1  0
 15 26  2  0
 16 14  1  0
 16 21  1  0
 17 25  1  0
 17 27  1  0
 18 24  1  0
 18 20  1  0
 19 25  1  0
 20 21  2  0
 20 19  1  0
 22 16  2  0
 23 22  1  0
 23 18  2  0
 24 17  1  0
 25 15  1  0
 27 29  2  0
 28 27  1  0
 30 28  1  0
 31 40  2  0
 31 36  1  0
 32 28  1  0
 32 36  1  0
 33 32  1  0
 34 35  1  0
 34 33  1  0
 35 31  1  0
 36 37  2  0
 37 38  1  0
 39 38  2  0
 40 39  1  0
 41 15  1  0
 41 46  1  0
 41 42  1  0
 42 45  1  1
 42 43  1  0
 44 42  1  0
 46 49  1  0
 47 51  1  0
 47 46  1  0
 48 47  2  0
 51 50  1  0
 53 51  1  0
 53 54  1  0
 53 52  1  0
 57 62  1  0
 58 59  1  0
 58 57  1  0
 60 59  1  0
 60 71  1  0
 60 61  1  0
 62 56  1  0
 62 61  1  0
 63 56  2  0
 64 67  1  0
 66 64  1  0
 66 55  1  0
 66 65  1  0
 67 56  1  0
 67 65  1  0
 68 69  2  0
 69 88  1  0
 70 69  1  0
 70 73  1  0
 71 68  1  0
 71 72  1  0
 72 70  2  0
 73 74  1  0
 74 75  2  0
 76 75  1  0
 77 76  2  0
 78 77  1  0
 78 73  2  0
 79 76  1  0
 79 80  1  0
 80 81  1  0
 81 82  2  0
 83 82  1  0
 83 87  1  0
 84 83  2  0
 85 80  2  0
 85 84  1  0
 86 85  1  0
 88 89  1  0
 89 92  1  0
 89 91  1  0
 90 88  2  0
 93 94  1  0
 93 68  1  0
 95 93  1  0
M  ISO  4  13 101  14 101  56 100  67 100
M  END
>  <TORSDO>  (37) 
F 19

>  <SCORE>  (37) 
-13.091

>  <name>  (37) 
36

>  <ligand_id>  (37) 
36

>  <original_smiles>  (37) 
[H]c1c(C([H])([H])Oc2c([H])c([H])c3c(c2[H])C([H])([H])N(C(=O)C([H])(N([H])C(=O)C([H])(N([H])C([H])([H])[H])C([H])([H])[H])C(C([H])([H])[H])(C([H])([H])[H])C([H])([H])[H])C([H])(C(=O)N([H])C2([H])c4c([H])c([H])c([H])c([H])c4C([H])([H])C([H])([H])C2([H])[H])C3([H])[H])nc(OC2([H])C([H])([H])N(C(=O)N3C([H])([H])C([H])([H])C([H])([H])C([H])(n4nc(-c5c([H])c([H])c(Oc6c([H])c([H])c(F)c([H])c6F)c([H])c5[H])c(C(=O)N([H])[H])c4N([H])[H])C3([H])[H])C2([H])[H])nc1C1([H])C([H])([H])C([H])([H])[N+]1([H])[H]

>  <smiles>  (37) 
[H]c1c(C([H])([H])Oc2c([H])c([H])c3c(c2[H])C([H])([H])N(C(=O)C([H])(N([H])C(=O)C([H])(N([H])C([H])([H])[H])C([H])([H])[H])C(C([H])([H])[H])(C([H])([H])[H])C([H])([H])[H])C([H])(C(=O)N([H])C2([H])c4c([H])c([H])c([H])c([H])c4C([H])([H])C([H])([H])C2([H])[H])C3([H])[H])nc(OC2([H])C([H])([H])N(C(=O)N3C([H])([H])C([H])([H])C([H])([H])C([H])(n4nc(-c5c([H])c([H])c(Oc6c([H])c([H])c(F)c([H])c6F)c([H])c5[H])c(C(=O)N([H])[H])c4N([H])[H])C3([H])[H])C2([H])[H])nc1C1([H])C([H])([H])C([H])([H])[N+]1([H])[H]

$$$$
37:0:0
     RDKit          3D

 89 97  0  0  1  0  0  0  0  0999 V2000
  -29.1700  -22.0110   20.5030 N   0  0  0  0  0  4  0  0  0  0  0  0
  -29.3920  -22.0110   21.4890 H   0  0  0  0  0  0  0  0  0  0  0  0
  -28.1960  -21.7500   20.4430 H   0  0  0  0  0  0  0  0  0  0  0  0
  -29.9770  -20.8060   19.8530 C   0  0  0  0  0  2  0  0  0  0  0  0
  -30.1160  -19.2540   20.5320 C   0  0  0  0  0  2  0  0  0  0  0  0
  -30.5280  -15.0770   20.1360 C   0  0  0  0  0  0  0  0  0  0  0  0
  -30.3960  -12.7270   19.1340 C   0  0  0  0  0  2  0  0  0  0  0  0
  -29.4230  -12.6820   17.9280 C   0  0  0  0  0  2  0  0  0  0  0  0
  -27.9650  -12.4690   18.3920 C   0  0  0  0  0  2  0  0  0  0  0  0
  -27.5990  -13.3370   19.6220 C   0  0  0  0  0  3  0  0  0  0  0  0
  -28.7060  -13.2650   20.7050 C   0  0  0  0  0  2  0  0  0  0  0  0
  -29.9290  -13.7980   20.0750 N   0  0  0  0  0  0  0  0  0  0  0  0
  -31.7080  -15.1110   19.7520 O   0  0  0  0  0  0  0  0  0  0  0  0
  -27.7050  -17.5690   20.2590 C   0  0  0  0  0  2  0  0  0  0  0  0
  -28.5800  -17.9110   19.0670 C   0  0  0  0  0  2  0  0  0  0  0  0
  -28.5010  -16.4730   21.0070 C   0  0  0  0  0  2  0  0  0  0  0  0
  -29.9600  -17.7840   19.6990 C   0  0  0  0  0  3  0  0  0  0  0  0
  -29.8140  -16.3290   20.3400 N   0  0  0  0  0  0  0  0  0  0  0  0
  -25.2130  -13.8900   20.3910 C   0  0  0  0  0  0  0  0  0  0  0  0
  -24.1690  -13.1150   20.7940 C   0  0  0  0  0  0  0  0  0  0  0  0
  -24.6490  -11.7710   20.7600 C   0  0  0  0  0  0  0  0  0  0  0  0
  -26.2700  -13.0290   20.1440 N   0  0  0  0  0  0  0  0  0  0  0  0
  -25.9350  -11.7450   20.4230 N   0  0  0  0  0  0  0  0  0  0  0  0
  -23.9380  -10.5080   20.9700 C   0  0  0  0  0  0  0  0  0  0  0  0
  -24.3900   -9.5500   21.9020 C   0  0  0  0  0  3  0  0  0  0  0  0
  -23.6730   -8.3520   22.0980 C   0  0  0  0  0  3  0  0  0  0  0  0
  -22.4880   -8.1040   21.3630 C   0  0  0  0  0  0  0  0  0  0  0  0
  -22.0560   -9.0520   20.4200 C   0  0  0  0  0  3  0  0  0  0  0  0
  -22.7740  -10.2410   20.2200 C   0  0  0  0  0  3  0  0  0  0  0  0
  -21.7410   -6.9570   21.4710 O   0  0  0  0  0  0  0  0  0  0  0  0
  -21.7100   -6.2260   22.6300 C   0  0  0  0  0  0  0  0  0  0  0  0
  -21.2970   -6.7920   23.8570 C   0  0  0  0  0  3  0  0  0  0  0  0
  -21.2170   -5.9870   25.0110 C   0  0  0  0  0  3  0  0  0  0  0  0
  -21.5380   -4.6180   24.9390 C   0  0  0  0  0  0  0  0  0  0  0  0
  -21.9440   -4.0520   23.7170 C   0  0  0  0  0  3  0  0  0  0  0  0
  -22.0270   -4.8550   22.5660 C   0  0  0  0  0  0  0  0  0  0  0  0
  -22.3990   -4.3030   21.3850 F   0  0  0  0  0  0  0  0  0  0  0  0
  -21.4510   -3.8420   26.0440 F   0  0  0  0  0  0  0  0  0  0  0  0
  -22.7750  -13.5870   21.0930 C   0  0  0  0  0  0  0  0  0  0  0  0
  -22.0740  -12.8940   21.9810 N   0  0  0  0  0  0  0  0  0  0  0  0
  -22.3200  -14.6090   20.5790 O   0  0  0  0  0  0  0  0  0  0  0  0
  -22.4510  -12.0660   22.4180 H   0  0  0  0  0  0  0  0  0  0  0  0
  -21.1400  -13.1930   22.2250 H   0  0  0  0  0  0  0  0  0  0  0  0
  -25.3280  -15.2540   20.1890 N   0  0  0  0  0  0  0  0  0  0  0  0
  -24.5380  -15.8810   20.3010 H   0  0  0  0  0  0  0  0  0  0  0  0
  -26.1470  -15.6990   19.8000 H   0  0  0  0  0  0  0  0  0  0  0  0
  -29.2840  -23.5220   20.0080 C   0  0  0  0  0  3  0  0  0  0  0  0
  -28.2220  -24.7440   20.4910 C   0  0  0  0  0  3  0  0  0  0  0  0
  -28.3720  -26.2810   20.2650 O   0  0  0  0  0  0  0  0  0  0  0  0
  -24.5900  -31.8810   23.2340 C   0  0  0  0  0  0  0  0  0  0  0  0
  -27.2610  -27.2030   20.2420 C   0  0  0  0  0  0  0  0  0  0  0  0
  -23.4150  -30.4700   21.5880 C   0  0  0  0  0  3  0  0  0  0  0  0
  -24.8910  -28.8980   20.1910 C   0  0  0  0  0  0  0  0  0  0  0  0
  -25.9640  -30.7660   21.4400 C   0  0  0  0  0  2  0  0  0  0  0  0
  -26.0600  -29.3710   20.7990 C   0  0  0  0  0  0  0  0  0  0  0  0
  -27.2450  -28.5410   20.8020 C   0  0  0  0  0  3  0  0  0  0  0  0
  -26.0600  -26.8230   19.6000 C   0  0  0  0  0  3  0  0  0  0  0  0
  -24.9020  -27.6350   19.5770 C   0  0  0  0  0  3  0  0  0  0  0  0
  -23.6540  -29.7820   20.2180 C   0  0  0  0  0  2  0  0  0  0  0  0
  -24.6750  -31.0600   22.1450 N   0  0  0  0  0  0  0  0  0  0  0  0
  -23.4960  -32.1580   23.7530 O   0  0  0  0  0  0  0  0  0  0  0  0
  -22.7330  -29.4640   22.5490 C   0  0  0  0  0  0  0  0  0  0  0  0
  -21.4060  -29.2870   22.4120 N   0  0  0  0  0  0  0  0  0  0  0  0
  -23.4020  -28.8440   23.3790 O   0  0  0  0  0  0  0  0  0  0  0  0
  -20.9210  -29.8420   21.7200 H   0  0  0  0  0  0  0  0  0  0  0  0
  -18.0320  -28.0590   22.8850 C   0  0  0  0  0  0  0  0  0  0  0  0
  -20.5850  -28.3470   23.1790 C   0  0  0  0  0  3  0  0  0  0  0  0
  -20.7050  -26.9110   22.6150 C   0  0  0  0  0  2  0  0  0  0  0  0
  -19.6180  -26.5720   21.5890 C   0  0  0  0  0  2  0  0  0  0  0  0
  -18.2270  -26.7100   22.2160 C   0  0  0  0  0  2  0  0  0  0  0  0
  -19.1390  -28.8350   23.3230 C   0  0  0  0  0  0  0  0  0  0  0  0
  -18.9010  -30.0980   23.9080 C   0  0  0  0  0  3  0  0  0  0  0  0
  -17.5900  -30.5870   24.0600 C   0  0  0  0  0  3  0  0  0  0  0  0
  -16.4970  -29.8100   23.6380 C   0  0  0  0  0  3  0  0  0  0  0  0
  -16.7190  -28.5480   23.0570 C   0  0  0  0  0  3  0  0  0  0  0  0
  -25.8580  -32.5290   23.8710 C   0  0  0  0  0  3  0  0  0  0  0  0
  -26.3550  -31.7730   25.1650 C   0  0  1  0  0  0  0  0  0  0  0  0
  -25.2470  -31.5460   26.2190 C   0  0  0  0  0  1  0  0  0  0  0  0
  -26.9470  -30.3940   24.7990 C   0  0  0  0  0  1  0  0  0  0  0  0
  -27.4960  -32.5770   25.8340 C   0  0  0  0  0  1  0  0  0  0  0  0
  -25.5360  -33.9280   24.1870 N   0  0  0  0  0  0  0  0  0  0  0  0
  -25.8760  -34.9800   23.4310 C   0  0  0  0  0  0  0  0  0  0  0  0
  -26.5600  -34.8750   22.4090 O   0  0  0  0  0  0  0  0  0  0  0  0
  -24.9360  -34.0850   24.9830 H   0  0  0  0  0  0  0  0  0  0  0  0
  -24.1510  -36.7730   23.0500 C   0  0  0  0  0  1  0  0  0  0  0  0
  -25.3820  -36.3710   23.8780 C   0  0  0  0  0  3  0  0  0  0  0  0
  -27.5040  -37.2620   24.7340 C   0  0  0  0  0  1  0  0  0  0  0  0
  -26.4140  -37.4250   23.7740 N   0  0  0  0  0  0  0  0  0  0  0  0
  -26.0060  -38.3450   23.9130 H   0  0  0  0  0  0  0  0  0  0  0  0
  1  2  1  0
  3  1  1  0
  4  1  1  0
  4  5  1  0
  6 18  1  0
  7 12  1  0
  8  9  1  0
  8  7  1  0
 10  9  1  0
 10 22  1  0
 10 11  1  0
 12  6  1  0
 12 11  1  0
 13  6  2  0
 14 16  1  0
 15 17  1  0
 15 14  1  0
 17 18  1  0
 17  5  1  0
 18 16  1  0
 19 20  2  0
 20 39  1  0
 21 20  1  0
 21 24  1  0
 22 19  1  0
 22 23  1  0
 23 21  2  0
 24 25  1  0
 25 26  2  0
 27 30  1  0
 27 26  1  0
 28 27  2  0
 29 28  1  0
 29 24  2  0
 30 31  1  0
 31 32  1  0
 32 33  2  0
 34 33  1  0
 34 38  1  0
 35 34  2  0
 36 31  2  0
 36 35  1  0
 37 36  1  0
 39 40  1  0
 40 43  1  0
 40 42  1  0
 41 39  2  0
 44 45  1  0
 44 19  1  0
 46 44  1  0
 47 48  2  0
 47  1  1  0
 49 48  1  0
 50 61  2  0
 51 49  1  0
 51 56  1  0
 52 60  1  0
 52 62  1  0
 53 59  1  0
 53 55  1  0
 54 60  1  0
 55 56  2  0
 55 54  1  0
 57 51  2  0
 58 57  1  0
 58 53  2  0
 59 52  1  0
 60 50  1  0
 62 64  2  0
 63 62  1  0
 65 63  1  0
 66 75  2  0
 66 71  1  0
 67 63  1  0
 67 71  1  0
 68 67  1  0
 69 70  1  0
 69 68  1  0
 70 66  1  0
 71 72  2  0
 72 73  1  0
 74 73  2  0
 75 74  1  0
 76 50  1  0
 76 81  1  0
 76 77  1  0
 77 80  1  1
 77 78  1  0
 79 77  1  0
 81 84  1  0
 82 86  1  0
 82 81  1  0
 83 82  2  0
 86 85  1  0
 88 86  1  0
 88 89  1  0
 88 87  1  0
M  ISO  4   6 100  18 100  48 101  49 101
M  END
>  <TORSDO>  (38) 
F 20

>  <SCORE>  (38) 
-14.644

>  <name>  (38) 
37

>  <ligand_id>  (38) 
37

>  <original_smiles>  (38) 
[H]c1c([H])c([H])c2c(c1[H])C([H])([H])C([H])([H])C([H])([H])C2([H])N([H])C(=O)C1([H])N(C(=O)C([H])(N([H])C(=O)C([H])(N([H])C([H])([H])[H])C([H])([H])[H])C(C([H])([H])[H])(C([H])([H])[H])C([H])([H])[H])C([H])([H])c2c([H])c(OC([H])([H])C([H])([H])[N+]([H])([H])C([H])([H])C([H])([H])C3([H])N(C(=O)N4C([H])([H])C([H])([H])C([H])([H])C([H])(n5nc(-c6c([H])c([H])c(Oc7c([H])c([H])c(F)c([H])c7F)c([H])c6[H])c(C(=O)N([H])[H])c5N([H])[H])C4([H])[H])C([H])([H])C([H])([H])C3([H])[H])c([H])c([H])c2C1([H])[H]

>  <smiles>  (38) 
[H]c1c([H])c([H])c2c(c1[H])C([H])([H])C([H])([H])C([H])([H])C2([H])N([H])C(=O)C1([H])N(C(=O)C([H])(N([H])C(=O)C([H])(N([H])C([H])([H])[H])C([H])([H])[H])C(C([H])([H])[H])(C([H])([H])[H])C([H])([H])[H])C([H])([H])c2c([H])c(OC([H])([H])C([H])([H])[N+]([H])([H])C([H])([H])C([H])([H])C3([H])N(C(=O)N4C([H])([H])C([H])([H])C([H])([H])C([H])(n5nc(-c6c([H])c([H])c(Oc7c([H])c([H])c(F)c([H])c7F)c([H])c6[H])c(C(=O)N([H])[H])c5N([H])[H])C4([H])[H])C([H])([H])C([H])([H])C3([H])[H])c([H])c([H])c2C1([H])[H]

$$$$
38:0:0
     RDKit          3D

 85 93  0  0  1  0  0  0  0  0999 V2000
  -28.9680  -23.1180   20.3590 C   0  0  0  0  0  3  0  0  0  0  0  0
  -27.9580  -24.5070   20.0950 C   0  0  0  0  0  2  0  0  0  0  0  0
  -28.2200  -26.0710   20.2910 O   0  0  0  0  0  0  0  0  0  0  0  0
  -24.6420  -31.8870   23.2550 C   0  0  0  0  0  0  0  0  0  0  0  0
  -27.1850  -27.1020   20.2250 C   0  0  0  0  0  0  0  0  0  0  0  0
  -23.4350  -30.5000   21.6140 C   0  0  0  0  0  3  0  0  0  0  0  0
  -24.8740  -28.9080   20.1870 C   0  0  0  0  0  0  0  0  0  0  0  0
  -25.9960  -30.7330   21.4550 C   0  0  0  0  0  2  0  0  0  0  0  0
  -26.0600  -29.3350   20.7970 C   0  0  0  0  0  0  0  0  0  0  0  0
  -27.2150  -28.4520   20.7910 C   0  0  0  0  0  3  0  0  0  0  0  0
  -25.9680  -26.7920   19.5780 C   0  0  0  0  0  3  0  0  0  0  0  0
  -24.8440  -27.6520   19.5600 C   0  0  0  0  0  3  0  0  0  0  0  0
  -23.6530  -29.8200   20.2370 C   0  0  0  0  0  2  0  0  0  0  0  0
  -24.7120  -31.0640   22.1630 N   0  0  0  0  0  0  0  0  0  0  0  0
  -23.5550  -32.1790   23.7800 O   0  0  0  0  0  0  0  0  0  0  0  0
  -22.7460  -29.5010   22.5790 C   0  0  0  0  0  0  0  0  0  0  0  0
  -21.4160  -29.3400   22.4520 N   0  0  0  0  0  0  0  0  0  0  0  0
  -23.4120  -28.8700   23.4040 O   0  0  0  0  0  0  0  0  0  0  0  0
  -20.9330  -29.9000   21.7660 H   0  0  0  0  0  0  0  0  0  0  0  0
  -18.0270  -28.1510   22.9550 C   0  0  0  0  0  0  0  0  0  0  0  0
  -20.5880  -28.4060   23.2230 C   0  0  0  0  0  3  0  0  0  0  0  0
  -20.6840  -26.9740   22.6510 C   0  0  0  0  0  2  0  0  0  0  0  0
  -19.5830  -26.6520   21.6360 C   0  0  0  0  0  2  0  0  0  0  0  0
  -18.2010  -26.8010   22.2790 C   0  0  0  0  0  2  0  0  0  0  0  0
  -19.1480  -28.9110   23.3830 C   0  0  0  0  0  0  0  0  0  0  0  0
  -18.9310  -30.1730   23.9800 C   0  0  0  0  0  3  0  0  0  0  0  0
  -17.6260  -30.6730   24.1510 C   0  0  0  0  0  3  0  0  0  0  0  0
  -16.5200  -29.9100   23.7360 C   0  0  0  0  0  3  0  0  0  0  0  0
  -16.7230  -28.6510   23.1440 C   0  0  0  0  0  3  0  0  0  0  0  0
  -25.9190  -32.5190   23.8850 C   0  0  0  0  0  3  0  0  0  0  0  0
  -26.4220  -31.7480   25.1680 C   0  0  1  0  0  0  0  0  0  0  0  0
  -25.3220  -31.5210   26.2310 C   0  0  0  0  0  1  0  0  0  0  0  0
  -26.9980  -30.3650   24.7890 C   0  0  0  0  0  1  0  0  0  0  0  0
  -27.5740  -32.5390   25.8340 C   0  0  0  0  0  1  0  0  0  0  0  0
  -25.6120  -33.9190   24.2220 N   0  0  0  0  0  0  0  0  0  0  0  0
  -25.9240  -34.9770   23.4600 C   0  0  0  0  0  0  0  0  0  0  0  0
  -26.5670  -34.8770   22.4120 O   0  0  0  0  0  0  0  0  0  0  0  0
  -25.0390  -34.0700   25.0380 H   0  0  0  0  0  0  0  0  0  0  0  0
  -24.1740  -36.7670   23.1800 C   0  0  0  0  0  1  0  0  0  0  0  0
  -25.4500  -36.3660   23.9370 C   0  0  0  0  0  3  0  0  0  0  0  0
  -27.6110  -37.2690   24.6770 C   0  0  0  0  0  1  0  0  0  0  0  0
  -26.4720  -37.4250   23.7770 N   0  0  0  0  0  0  0  0  0  0  0  0
  -26.0660  -38.3430   23.9330 H   0  0  0  0  0  0  0  0  0  0  0  0
  -28.6170  -21.4230   20.1800 C   0  0  0  0  0  3  0  0  0  0  0  0
  -29.5610  -20.1610   20.3660 O   0  0  0  0  0  0  0  0  0  0  0  0
  -30.4900  -15.1170   20.2380 C   0  0  0  0  0  0  0  0  0  0  0  0
  -30.3800  -12.7320   19.3220 C   0  0  0  0  0  2  0  0  0  0  0  0
  -29.4320  -12.6340   18.1050 C   0  0  0  0  0  2  0  0  0  0  0  0
  -27.9790  -12.4030   18.5600 C   0  0  0  0  0  2  0  0  0  0  0  0
  -27.5780  -13.3250   19.7420 C   0  0  0  0  0  3  0  0  0  0  0  0
  -28.6550  -13.3920   20.8450 C   0  0  0  0  0  2  0  0  0  0  0  0
  -29.8920  -13.8450   20.1960 N   0  0  0  0  0  0  0  0  0  0  0  0
  -31.6930  -15.1440   19.9550 O   0  0  0  0  0  0  0  0  0  0  0  0
  -29.6870  -17.5040   19.3350 C   0  0  0  0  0  2  0  0  0  0  0  0
  -30.0260  -17.5430   21.2830 C   0  0  0  0  0  2  0  0  0  0  0  0
  -29.2180  -18.6070   20.3960 C   0  0  0  0  0  3  0  0  0  0  0  0
  -29.7400  -16.3570   20.3550 N   0  0  0  0  0  0  0  0  0  0  0  0
  -25.2220  -13.8760   20.5580 C   0  0  0  0  0  0  0  0  0  0  0  0
  -24.1660  -13.0920   20.9360 C   0  0  0  0  0  0  0  0  0  0  0  0
  -24.6310  -11.7430   20.8660 C   0  0  0  0  0  0  0  0  0  0  0  0
  -26.2570  -13.0050   20.2720 N   0  0  0  0  0  0  0  0  0  0  0  0
  -25.9170  -11.7140   20.5240 N   0  0  0  0  0  0  0  0  0  0  0  0
  -23.9090  -10.4760   21.0480 C   0  0  0  0  0  0  0  0  0  0  0  0
  -24.3540   -9.4960   21.9620 C   0  0  0  0  0  3  0  0  0  0  0  0
  -23.6290   -8.2970   22.1360 C   0  0  0  0  0  3  0  0  0  0  0  0
  -22.4460   -8.0680   21.3960 C   0  0  0  0  0  0  0  0  0  0  0  0
  -22.0190   -9.0390   20.4720 C   0  0  0  0  0  3  0  0  0  0  0  0
  -22.7440  -10.2290   20.2960 C   0  0  0  0  0  3  0  0  0  0  0  0
  -21.6900   -6.9230   21.4800 O   0  0  0  0  0  0  0  0  0  0  0  0
  -21.6480   -6.1700   22.6260 C   0  0  0  0  0  0  0  0  0  0  0  0
  -21.2150   -6.7110   23.8570 C   0  0  0  0  0  3  0  0  0  0  0  0
  -21.1220   -5.8850   24.9950 C   0  0  0  0  0  3  0  0  0  0  0  0
  -21.4500   -4.5180   24.9030 C   0  0  0  0  0  0  0  0  0  0  0  0
  -21.8760   -3.9780   23.6770 C   0  0  0  0  0  3  0  0  0  0  0  0
  -21.9720   -4.8010   22.5410 C   0  0  0  0  0  0  0  0  0  0  0  0
  -22.3620   -4.2690   21.3580 F   0  0  0  0  0  0  0  0  0  0  0  0
  -21.3520   -3.7230   25.9940 F   0  0  0  0  0  0  0  0  0  0  0  0
  -22.7760  -13.5630   21.2440 C   0  0  0  0  0  0  0  0  0  0  0  0
  -22.0660  -12.8560   22.1150 N   0  0  0  0  0  0  0  0  0  0  0  0
  -22.3260  -14.5950   20.7460 O   0  0  0  0  0  0  0  0  0  0  0  0
  -22.4410  -12.0240   22.5440 H   0  0  0  0  0  0  0  0  0  0  0  0
  -21.1340  -13.1540   22.3600 H   0  0  0  0  0  0  0  0  0  0  0  0
  -25.3860  -15.2510   20.4100 N   0  0  0  0  0  0  0  0  0  0  0  0
  -24.6420  -15.9150   20.5970 H   0  0  0  0  0  0  0  0  0  0  0  0
  -26.2500  -15.6930   20.1190 H   0  0  0  0  0  0  0  0  0  0  0  0
  2  3  1  0
  2  1  1  0
  4 15  2  0
  5  3  1  0
  5 10  1  0
  6 14  1  0
  6 16  1  0
  7 13  1  0
  7  9  1  0
  8 14  1  0
  9  8  1  0
 10  9  2  0
 11  5  2  0
 12 11  1  0
 12  7  2  0
 13  6  1  0
 14  4  1  0
 16 18  2  0
 17 16  1  0
 19 17  1  0
 20 29  2  0
 20 25  1  0
 21 17  1  0
 21 25  1  0
 22 21  1  0
 23 24  1  0
 23 22  1  0
 24 20  1  0
 25 26  2  0
 26 27  1  0
 28 27  2  0
 29 28  1  0
 30  4  1  0
 30 35  1  0
 30 31  1  0
 31 34  1  1
 31 32  1  0
 33 31  1  0
 35 38  1  0
 36 40  1  0
 36 35  1  0
 37 36  2  0
 40 39  1  0
 42 43  1  0
 42 40  1  0
 42 41  1  0
 44  1  2  0
 44 45  1  0
 46 57  1  0
 47 52  1  0
 48 49  1  0
 48 47  1  0
 50 49  1  0
 50 61  1  0
 50 51  1  0
 52 46  1  0
 52 51  1  0
 53 46  2  0
 54 57  1  0
 54 56  1  0
 56 45  1  0
 56 55  1  0
 57 55  1  0
 58 59  2  0
 59 78  1  0
 60 59  1  0
 60 63  1  0
 61 62  1  0
 61 58  1  0
 62 60  2  0
 63 64  1  0
 64 65  2  0
 66 69  1  0
 66 65  1  0
 67 66  2  0
 68 67  1  0
 68 63  2  0
 69 70  1  0
 70 71  1  0
 71 72  2  0
 73 72  1  0
 73 77  1  0
 74 73  2  0
 75 70  2  0
 75 74  1  0
 76 75  1  0
 78 79  1  0
 79 82  1  0
 79 81  1  0
 80 78  2  0
 83 58  1  0
 83 84  1  0
 85 83  1  0
M  ISO  4   2 101   3 101  46 100  57 100
M  END
>  <TORSDO>  (39) 
F 19

>  <SCORE>  (39) 
-15.325

>  <name>  (39) 
38

>  <ligand_id>  (39) 
38

>  <original_smiles>  (39) 
[H]c1c([H])c([H])c2c(c1[H])C([H])([H])C([H])([H])C([H])([H])C2([H])N([H])C(=O)C1([H])N(C(=O)C([H])(N([H])C(=O)C([H])(N([H])C([H])([H])[H])C([H])([H])[H])C(C([H])([H])[H])(C([H])([H])[H])C([H])([H])[H])C([H])([H])c2c([H])c(OC([H])([H])C([H])([H])C([H])([H])OC3([H])C([H])([H])N(C(=O)N4C([H])([H])C([H])([H])C([H])([H])C([H])(n5nc(-c6c([H])c([H])c(Oc7c([H])c([H])c(F)c([H])c7F)c([H])c6[H])c(C(=O)N([H])[H])c5N([H])[H])C4([H])[H])C3([H])[H])c([H])c([H])c2C1([H])[H]

>  <smiles>  (39) 
[H]c1c([H])c([H])c2c(c1[H])C([H])([H])C([H])([H])C([H])([H])C2([H])N([H])C(=O)C1([H])N(C(=O)C([H])(N([H])C(=O)C([H])(N([H])C([H])([H])[H])C([H])([H])[H])C(C([H])([H])[H])(C([H])([H])[H])C([H])([H])[H])C([H])([H])c2c([H])c(OC([H])([H])C([H])([H])C([H])([H])OC3([H])C([H])([H])N(C(=O)N4C([H])([H])C([H])([H])C([H])([H])C([H])(n5nc(-c6c([H])c([H])c(Oc7c([H])c([H])c(F)c([H])c7F)c([H])c6[H])c(C(=O)N([H])[H])c5N([H])[H])C4([H])[H])C3([H])[H])c([H])c([H])c2C1([H])[H]

$$$$
39:0:0
     RDKit          3D

 93103  0  0  1  0  0  0  0  0999 V2000
  -29.0780  -22.2510   20.9230 C   0  0  0  0  0  3  0  0  0  0  0  0
  -29.0770  -23.5680   20.2740 C   0  0  0  0  0  0  0  0  0  0  0  0
  -29.6270  -21.0510   20.2990 C   0  0  0  0  0  0  0  0  0  0  0  0
  -30.0460  -22.4880   18.4940 C   0  0  0  0  0  0  0  0  0  0  0  0
  -28.9290  -18.6330   21.2760 C   0  0  0  0  0  2  0  0  0  0  0  0
  -30.5130  -18.5680   19.9970 C   0  0  0  0  0  2  0  0  0  0  0  0
  -30.0790  -17.5410   21.1080 C   0  0  0  0  0  3  0  0  0  0  0  0
  -29.5890  -23.6180   19.0320 N   0  0  0  0  0  0  0  0  0  0  0  0
  -30.0950  -21.2760   19.0560 N   0  0  0  0  0  0  0  0  0  0  0  0
  -29.9060  -19.6600   20.8230 N   0  0  0  0  0  0  0  0  0  0  0  0
  -30.5120  -14.9400   20.4570 C   0  0  0  0  0  0  0  0  0  0  0  0
  -30.3560  -12.7360   19.2400 C   0  0  0  0  0  2  0  0  0  0  0  0
  -29.3800  -12.8560   18.0480 C   0  0  0  0  0  2  0  0  0  0  0  0
  -27.9290  -12.6000   18.5010 C   0  0  0  0  0  2  0  0  0  0  0  0
  -27.5640  -13.3760   19.7940 C   0  0  0  0  0  3  0  0  0  0  0  0
  -28.6560  -13.2390   20.8760 C   0  0  0  0  0  2  0  0  0  0  0  0
  -29.9130  -13.7040   20.2770 N   0  0  0  0  0  0  0  0  0  0  0  0
  -31.7040  -15.0660   20.1600 O   0  0  0  0  0  0  0  0  0  0  0  0
  -29.7230  -16.0570   20.7780 N   0  0  0  0  0  0  0  0  0  0  0  0
  -28.7490  -15.8320   20.9050 H   0  0  0  0  0  0  0  0  0  0  0  0
  -25.1630  -13.8460   20.5570 C   0  0  0  0  0  0  0  0  0  0  0  0
  -24.1360  -13.0210   20.9220 C   0  0  0  0  0  0  0  0  0  0  0  0
  -24.6580  -11.6920   20.8660 C   0  0  0  0  0  0  0  0  0  0  0  0
  -26.2420  -13.0170   20.2960 N   0  0  0  0  0  0  0  0  0  0  0  0
  -25.9470  -11.7160   20.5460 N   0  0  0  0  0  0  0  0  0  0  0  0
  -23.9880  -10.3960   21.0370 C   0  0  0  0  0  0  0  0  0  0  0  0
  -24.4410   -9.4500   21.9830 C   0  0  0  0  0  3  0  0  0  0  0  0
  -23.7680   -8.2190   22.1430 C   0  0  0  0  0  3  0  0  0  0  0  0
  -22.6270   -7.9270   21.3580 C   0  0  0  0  0  0  0  0  0  0  0  0
  -22.1930   -8.8630   20.4030 C   0  0  0  0  0  3  0  0  0  0  0  0
  -22.8680  -10.0840   20.2410 C   0  0  0  0  0  3  0  0  0  0  0  0
  -21.9240   -6.7480   21.4280 O   0  0  0  0  0  0  0  0  0  0  0  0
  -21.8290   -6.0350   22.5960 C   0  0  0  0  0  0  0  0  0  0  0  0
  -21.2750   -6.5950   23.7680 C   0  0  0  0  0  3  0  0  0  0  0  0
  -21.1340   -5.8040   24.9260 C   0  0  0  0  0  3  0  0  0  0  0  0
  -21.5330   -4.4550   24.9130 C   0  0  0  0  0  0  0  0  0  0  0  0
  -22.0800   -3.8950   23.7450 C   0  0  0  0  0  3  0  0  0  0  0  0
  -22.2240   -4.6810   22.5880 C   0  0  0  0  0  0  0  0  0  0  0  0
  -22.7310   -4.1310   21.4600 F   0  0  0  0  0  0  0  0  0  0  0  0
  -21.3900   -3.6930   26.0220 F   0  0  0  0  0  0  0  0  0  0  0  0
  -22.7220  -13.4320   21.2070 C   0  0  0  0  0  0  0  0  0  0  0  0
  -22.0380  -12.7070   22.0860 N   0  0  0  0  0  0  0  0  0  0  0  0
  -22.2310  -14.4330   20.6860 O   0  0  0  0  0  0  0  0  0  0  0  0
  -22.4480  -11.8990   22.5270 H   0  0  0  0  0  0  0  0  0  0  0  0
  -21.0900  -12.9650   22.3190 H   0  0  0  0  0  0  0  0  0  0  0  0
  -25.2640  -15.2260   20.3980 N   0  0  0  0  0  0  0  0  0  0  0  0
  -24.4610  -15.8350   20.5120 H   0  0  0  0  0  0  0  0  0  0  0  0
  -26.0690  -15.7030   20.0120 H   0  0  0  0  0  0  0  0  0  0  0  0
  -29.7960  -23.1630   15.9740 C   0  0  0  0  0  2  0  0  0  0  0  0
  -30.1320  -21.6970   15.9960 C   0  0  0  0  0  2  0  0  0  0  0  0
  -30.6210  -22.5970   17.1140 C   0  0  0  0  0  3  0  0  0  0  0  0
  -28.4190  -24.9520   20.8230 C   0  0  0  0  0  2  0  0  0  0  0  0
  -28.5800  -26.3380   20.1780 O   0  0  0  0  0  0  0  0  0  0  0  0
  -24.7030  -31.8240   23.1470 C   0  0  0  0  0  0  0  0  0  0  0  0
  -27.4810  -27.2480   20.1570 C   0  0  0  0  0  0  0  0  0  0  0  0
  -23.5760  -30.4040   21.4740 C   0  0  0  0  0  3  0  0  0  0  0  0
  -25.0990  -28.8810   20.0790 C   0  0  0  0  0  0  0  0  0  0  0  0
  -26.1190  -30.7580   21.3600 C   0  0  0  0  0  2  0  0  0  0  0  0
  -26.2480  -29.3740   20.7100 C   0  0  0  0  0  0  0  0  0  0  0  0
  -27.4450  -28.5740   20.7290 C   0  0  0  0  0  3  0  0  0  0  0  0
  -26.3070  -26.8360   19.4950 C   0  0  0  0  0  3  0  0  0  0  0  0
  -25.1360  -27.6220   19.4580 C   0  0  0  0  0  3  0  0  0  0  0  0
  -23.8440  -29.7370   20.0980 C   0  0  0  0  0  2  0  0  0  0  0  0
  -24.8180  -31.0160   22.0490 N   0  0  0  0  0  0  0  0  0  0  0  0
  -23.5990  -32.0750   23.6530 O   0  0  0  0  0  0  0  0  0  0  0  0
  -22.9080  -29.3730   22.4160 C   0  0  0  0  0  0  0  0  0  0  0  0
  -21.5840  -29.1830   22.2720 N   0  0  0  0  0  0  0  0  0  0  0  0
  -23.5820  -28.7470   23.2380 O   0  0  0  0  0  0  0  0  0  0  0  0
  -21.0970  -29.7400   21.5840 H   0  0  0  0  0  0  0  0  0  0  0  0
  -18.2040  -27.9910   22.7860 C   0  0  0  0  0  0  0  0  0  0  0  0
  -20.7690  -28.2240   23.0220 C   0  0  0  0  0  3  0  0  0  0  0  0
  -20.8490  -26.8130   22.3960 C   0  0  0  0  0  2  0  0  0  0  0  0
  -19.7290  -26.5340   21.3880 C   0  0  0  0  0  2  0  0  0  0  0  0
  -18.3590  -26.6660   22.0580 C   0  0  0  0  0  2  0  0  0  0  0  0
  -19.3340  -28.7300   23.2240 C   0  0  0  0  0  0  0  0  0  0  0  0
  -19.1330  -29.9720   23.8660 C   0  0  0  0  0  3  0  0  0  0  0  0
  -17.8350  -30.4740   24.0720 C   0  0  0  0  0  3  0  0  0  0  0  0
  -16.7190  -29.7320   23.6490 C   0  0  0  0  0  3  0  0  0  0  0  0
  -16.9040  -28.4920   23.0120 C   0  0  0  0  0  3  0  0  0  0  0  0
  -25.9510  -32.4880   23.8040 C   0  0  0  0  0  3  0  0  0  0  0  0
  -25.5950  -33.8760   24.1360 N   0  0  0  0  0  0  0  0  0  0  0  0
  -25.9190  -34.9460   23.3970 C   0  0  0  0  0  0  0  0  0  0  0  0
  -26.6150  -34.8690   22.3810 O   0  0  0  0  0  0  0  0  0  0  0  0
  -24.9780  -34.0080   24.9240 H   0  0  0  0  0  0  0  0  0  0  0  0
  -24.1500  -36.6980   23.0260 C   0  0  0  0  0  1  0  0  0  0  0  0
  -25.3870  -36.3180   23.8560 C   0  0  0  0  0  3  0  0  0  0  0  0
  -27.4800  -37.2570   24.7350 C   0  0  0  0  0  1  0  0  0  0  0  0
  -26.3940  -37.4000   23.7690 N   0  0  0  0  0  0  0  0  0  0  0  0
  -25.9600  -38.3080   23.9100 H   0  0  0  0  0  0  0  0  0  0  0  0
  -26.4540  -31.7250   25.0910 C   0  0  1  0  0  0  0  0  0  0  0  0
  -25.3410  -31.4550   26.1300 C   0  0  0  0  0  1  0  0  0  0  0  0
  -27.0830  -30.3650   24.7120 C   0  0  0  0  0  1  0  0  0  0  0  0
  -27.5660  -32.5460   25.7860 C   0  0  0  0  0  1  0  0  0  0  0  0
  2 52  1  0
  2  1  2  0
  3 10  1  0
  3  1  1  0
  4  8  2  0
  4  9  1  0
  6 10  1  0
  6  7  1  0
  7 19  1  0
  7  5  1  0
  8  2  1  0
  9  3  2  0
 10  5  1  0
 11 19  1  0
 12 17  1  0
 13 14  1  0
 13 12  1  0
 15 14  1  0
 15 24  1  0
 15 16  1  0
 17 11  1  0
 17 16  1  0
 18 11  2  0
 19 20  1  0
 21 22  2  0
 22 41  1  0
 23 22  1  0
 23 26  1  0
 24 25  1  0
 24 21  1  0
 25 23  2  0
 26 27  1  0
 27 28  2  0
 29 32  1  0
 29 28  1  0
 30 29  2  0
 31 30  1  0
 31 26  2  0
 32 33  1  0
 33 34  1  0
 34 35  2  0
 36 35  1  0
 36 40  1  0
 37 36  2  0
 38 33  2  0
 38 37  1  0
 39 38  1  0
 41 42  1  0
 42 45  1  0
 42 44  1  0
 43 41  2  0
 46 47  1  0
 46 21  1  0
 48 46  1  0
 49 50  1  0
 49 51  1  0
 50 51  1  0
 51  4  1  0
 53 52  1  0
 54 65  2  0
 55 53  1  0
 55 60  1  0
 56 64  1  0
 56 66  1  0
 57 63  1  0
 57 59  1  0
 58 64  1  0
 59 60  2  0
 59 58  1  0
 61 55  2  0
 62 61  1  0
 62 57  2  0
 63 56  1  0
 64 54  1  0
 66 68  2  0
 67 66  1  0
 69 67  1  0
 70 79  2  0
 70 75  1  0
 71 67  1  0
 71 75  1  0
 72 71  1  0
 73 74  1  0
 73 72  1  0
 74 70  1  0
 75 76  2  0
 76 77  1  0
 78 77  2  0
 79 78  1  0
 80 54  1  0
 80 81  1  0
 80 90  1  0
 81 84  1  0
 82 86  1  0
 82 81  1  0
 83 82  2  0
 86 85  1  0
 88 86  1  0
 88 89  1  0
 88 87  1  0
 90 93  1  1
 90 91  1  0
 92 90  1  0
M  ISO  4  11 100  19 100  52 101  53 101
M  END
>  <TORSDO>  (40) 
F 18

>  <SCORE>  (40) 
-14.041

>  <name>  (40) 
39

>  <ligand_id>  (40) 
39

>  <original_smiles>  (40) 
[H]c1c(N2C([H])([H])C([H])(N([H])C(=O)N3C([H])([H])C([H])([H])C([H])([H])C([H])(n4nc(-c5c([H])c([H])c(Oc6c([H])c([H])c(F)c([H])c6F)c([H])c5[H])c(C(=O)N([H])[H])c4N([H])[H])C3([H])[H])C2([H])[H])nc(C2([H])C([H])([H])C2([H])[H])nc1C([H])([H])Oc1c([H])c([H])c2c(c1[H])C([H])([H])N(C(=O)C([H])(N([H])C(=O)C([H])(N([H])C([H])([H])[H])C([H])([H])[H])C(C([H])([H])[H])(C([H])([H])[H])C([H])([H])[H])C([H])(C(=O)N([H])C1([H])c3c([H])c([H])c([H])c([H])c3C([H])([H])C([H])([H])C1([H])[H])C2([H])[H]

>  <smiles>  (40) 
[H]c1c(N2C([H])([H])C([H])(N([H])C(=O)N3C([H])([H])C([H])([H])C([H])([H])C([H])(n4nc(-c5c([H])c([H])c(Oc6c([H])c([H])c(F)c([H])c6F)c([H])c5[H])c(C(=O)N([H])[H])c4N([H])[H])C3([H])[H])C2([H])[H])nc(C2([H])C([H])([H])C2([H])[H])nc1C([H])([H])Oc1c([H])c([H])c2c(c1[H])C([H])([H])N(C(=O)C([H])(N([H])C(=O)C([H])(N([H])C([H])([H])[H])C([H])([H])[H])C(C([H])([H])[H])(C([H])([H])[H])C([H])([H])[H])C([H])(C(=O)N([H])C1([H])c3c([H])c([H])c([H])c([H])c3C([H])([H])C([H])([H])C1([H])[H])C2([H])[H]

$$$$
40:0:0
     RDKit          3D

 89 98  0  0  1  0  0  0  0  0999 V2000
  -31.0920  -15.6740   19.7200 C   0  0  0  0  0  0  0  0  0  0  0  0
  -31.0230  -13.1080   19.2530 C   0  0  0  0  0  2  0  0  0  0  0  0
  -30.1530  -12.6420   18.0650 C   0  0  0  0  0  2  0  0  0  0  0  0
  -28.7020  -12.4150   18.5240 C   0  0  0  0  0  2  0  0  0  0  0  0
  -28.2030  -13.5720   19.4280 C   0  0  0  0  0  3  0  0  0  0  0  0
  -29.2160  -13.9940   20.5150 C   0  0  0  0  0  2  0  0  0  0  0  0
  -30.4420  -14.3990   19.8040 N   0  0  0  0  0  0  0  0  0  0  0  0
  -32.3210  -15.5040   19.6180 O   0  0  0  0  0  0  0  0  0  0  0  0
  -29.9200  -21.7930   17.9520 C   0  0  0  0  0  3  0  0  0  0  0  0
  -30.1090  -20.3570   18.3810 C   0  0  0  0  0  3  0  0  0  0  0  0
  -29.4240  -19.7790   19.4740 C   0  0  0  0  0  0  0  0  0  0  0  0
  -29.0470  -22.8070   18.6010 C   0  0  0  0  0  0  0  0  0  0  0  0
  -28.5730  -20.8030   20.0640 C   0  0  0  0  0  0  0  0  0  0  0  0
  -30.9680  -19.2600   17.6810 C   0  0  0  0  0  3  0  0  0  0  0  0
  -29.5660  -18.1420   19.9260 C   0  0  0  0  0  3  0  0  0  0  0  0
  -31.4680  -17.9480   18.5150 C   0  0  0  0  0  3  0  0  0  0  0  0
  -27.6880  -20.4110   21.2350 C   0  0  0  0  0  1  0  0  0  0  0  0
  -28.4180  -22.1540   19.6630 N   0  0  0  0  0  0  0  0  0  0  0  0
  -30.5500  -17.0320   19.3220 N   0  0  0  0  0  0  0  0  0  0  0  0
  -25.9020  -14.2820   20.2600 C   0  0  0  0  0  0  0  0  0  0  0  0
  -24.7880  -13.5770   20.6160 C   0  0  0  0  0  0  0  0  0  0  0  0
  -25.1440  -12.1940   20.5200 C   0  0  0  0  0  0  0  0  0  0  0  0
  -26.8650  -13.3380   19.9570 N   0  0  0  0  0  0  0  0  0  0  0  0
  -26.4240  -12.0730   20.1840 N   0  0  0  0  0  0  0  0  0  0  0  0
  -24.3180  -10.9870   20.6660 C   0  0  0  0  0  0  0  0  0  0  0  0
  -24.7250   -9.9060   21.4790 C   0  0  0  0  0  3  0  0  0  0  0  0
  -23.9030   -8.7660   21.6220 C   0  0  0  0  0  3  0  0  0  0  0  0
  -22.6590   -8.7010   20.9510 C   0  0  0  0  0  0  0  0  0  0  0  0
  -22.2690   -9.7670   20.1220 C   0  0  0  0  0  3  0  0  0  0  0  0
  -23.0910  -10.8980   19.9780 C   0  0  0  0  0  3  0  0  0  0  0  0
  -21.8070   -7.6240   21.0110 O   0  0  0  0  0  0  0  0  0  0  0  0
  -21.8400   -6.7350   22.0540 C   0  0  0  0  0  0  0  0  0  0  0  0
  -21.6020   -7.1390   23.3860 C   0  0  0  0  0  3  0  0  0  0  0  0
  -21.5780   -6.1830   24.4190 C   0  0  0  0  0  3  0  0  0  0  0  0
  -21.7840   -4.8200   24.1240 C   0  0  0  0  0  0  0  0  0  0  0  0
  -22.0150   -4.4140   22.7980 C   0  0  0  0  0  3  0  0  0  0  0  0
  -22.0400   -5.3710   21.7670 C   0  0  0  0  0  0  0  0  0  0  0  0
  -22.2430   -4.9710   20.4890 F   0  0  0  0  0  0  0  0  0  0  0  0
  -21.7540   -3.8980   25.1160 F   0  0  0  0  0  0  0  0  0  0  0  0
  -23.4360  -14.1520   20.9250 C   0  0  0  0  0  0  0  0  0  0  0  0
  -22.6810  -13.5070   21.8070 N   0  0  0  0  0  0  0  0  0  0  0  0
  -23.0650  -15.2090   20.4200 O   0  0  0  0  0  0  0  0  0  0  0  0
  -22.9980  -12.6490   22.2330 H   0  0  0  0  0  0  0  0  0  0  0  0
  -21.7720  -13.8710   22.0510 H   0  0  0  0  0  0  0  0  0  0  0  0
  -26.1740  -15.6410   20.1380 N   0  0  0  0  0  0  0  0  0  0  0  0
  -25.4600  -16.3470   20.2920 H   0  0  0  0  0  0  0  0  0  0  0  0
  -27.0390  -16.0170   19.7690 H   0  0  0  0  0  0  0  0  0  0  0  0
  -28.3810  -24.3600   18.0520 C   0  0  0  0  0  2  0  0  0  0  0  0
  -28.6420  -25.9870   18.2290 O   0  0  0  0  0  0  0  0  0  0  0  0
  -24.6950  -30.5760   22.7550 C   0  0  0  0  0  0  0  0  0  0  0  0
  -27.5650  -27.0040   18.4710 C   0  0  0  0  0  0  0  0  0  0  0  0
  -23.5800  -29.5900   20.7970 C   0  0  0  0  0  3  0  0  0  0  0  0
  -25.1140  -28.6130   18.9650 C   0  0  0  0  0  0  0  0  0  0  0  0
  -26.1110  -30.0870   20.6980 C   0  0  0  0  0  2  0  0  0  0  0  0
  -26.2830  -28.9370   19.6660 C   0  0  0  0  0  0  0  0  0  0  0  0
  -27.5030  -28.1610   19.3990 C   0  0  0  0  0  3  0  0  0  0  0  0
  -26.3490  -26.8470   17.7680 C   0  0  0  0  0  3  0  0  0  0  0  0
  -25.1680  -27.5950   18.0040 C   0  0  0  0  0  3  0  0  0  0  0  0
  -23.8190  -29.3570   19.2810 C   0  0  0  0  0  2  0  0  0  0  0  0
  -24.8170  -30.0980   21.4740 N   0  0  0  0  0  0  0  0  0  0  0  0
  -23.6020  -30.5940   23.3420 O   0  0  0  0  0  0  0  0  0  0  0  0
  -23.0190  -28.2940   21.4410 C   0  0  0  0  0  0  0  0  0  0  0  0
  -21.7060  -28.0390   21.2910 N   0  0  0  0  0  0  0  0  0  0  0  0
  -23.7740  -27.5270   22.0450 O   0  0  0  0  0  0  0  0  0  0  0  0
  -21.1430  -28.7190   20.7990 H   0  0  0  0  0  0  0  0  0  0  0  0
  -18.4890  -26.3600   21.4000 C   0  0  0  0  0  0  0  0  0  0  0  0
  -21.0050  -26.8430   21.7700 C   0  0  0  0  0  3  0  0  0  0  0  0
  -21.2640  -25.6350   20.8400 C   0  0  0  0  0  2  0  0  0  0  0  0
  -20.1940  -25.4620   19.7570 C   0  0  0  0  0  2  0  0  0  0  0  0
  -18.8120  -25.2740   20.3880 C   0  0  0  0  0  2  0  0  0  0  0  0
  -19.5160  -27.1090   22.0350 C   0  0  0  0  0  0  0  0  0  0  0  0
  -19.1570  -28.1290   22.9410 C   0  0  0  0  0  3  0  0  0  0  0  0
  -17.8030  -28.4020   23.2200 C   0  0  0  0  0  3  0  0  0  0  0  0
  -16.7930  -27.6470   22.6020 C   0  0  0  0  0  3  0  0  0  0  0  0
  -17.1360  -26.6270   21.6970 C   0  0  0  0  0  3  0  0  0  0  0  0
  -25.9210  -31.1430   23.5350 C   0  0  0  0  0  3  0  0  0  0  0  0
  -25.5430  -32.4540   24.0900 N   0  0  0  0  0  0  0  0  0  0  0  0
  -26.0110  -33.6350   23.6650 C   0  0  0  0  0  0  0  0  0  0  0  0
  -26.8750  -33.7320   22.7900 O   0  0  0  0  0  0  0  0  0  0  0  0
  -24.8210  -32.4530   24.7950 H   0  0  0  0  0  0  0  0  0  0  0  0
  -24.4540  -35.5850   23.3460 C   0  0  0  0  0  1  0  0  0  0  0  0
  -25.4350  -34.9080   24.3170 C   0  0  0  0  0  3  0  0  0  0  0  0
  -27.2800  -35.4140   25.8550 C   0  0  0  0  0  1  0  0  0  0  0  0
  -26.4680  -35.8810   24.7360 N   0  0  0  0  0  0  0  0  0  0  0  0
  -26.0400  -36.7630   25.0020 H   0  0  0  0  0  0  0  0  0  0  0  0
  -26.4090  -30.1930   24.6970 C   0  0  1  0  0  0  0  0  0  0  0  0
  -25.2820  -29.7750   25.6710 C   0  0  0  0  0  1  0  0  0  0  0  0
  -27.0470  -28.9050   24.1310 C   0  0  0  0  0  1  0  0  0  0  0  0
  -27.5130  -30.9000   25.5220 C   0  0  0  0  0  1  0  0  0  0  0  0
  1  7  1  0
  2  7  1  0
  3  4  1  0
  3  2  1  0
  5  4  1  0
  5 23  1  0
  5  6  1  0
  7  6  1  0
  8  1  2  0
  9 10  1  0
  9 12  2  0
 10 14  1  0
 10 11  1  0
 11 15  2  0
 11 13  1  0
 12 18  1  0
 13 17  1  0
 14 16  2  0
 16 19  1  0
 18 13  2  0
 19  1  1  0
 19 15  1  0
 20 21  2  0
 21 40  1  0
 22 21  1  0
 22 25  1  0
 23 24  1  0
 23 20  1  0
 24 22  2  0
 25 26  1  0
 26 27  2  0
 28 31  1  0
 28 27  1  0
 29 28  2  0
 30 29  1  0
 30 25  2  0
 31 32  1  0
 32 33  1  0
 33 34  2  0
 35 34  1  0
 35 39  1  0
 36 35  2  0
 37 32  2  0
 37 36  1  0
 38 37  1  0
 40 41  1  0
 41 44  1  0
 41 43  1  0
 42 40  2  0
 45 20  1  0
 45 46  1  0
 47 45  1  0
 48 49  1  0
 48 12  1  0
 49 51  1  0
 50 61  2  0
 51 56  1  0
 52 62  1  0
 52 60  1  0
 53 59  1  0
 53 55  1  0
 54 60  1  0
 55 54  1  0
 56 55  2  0
 57 58  1  0
 57 51  2  0
 58 53  2  0
 59 52  1  0
 60 50  1  0
 62 64  2  0
 63 62  1  0
 65 63  1  0
 66 75  2  0
 66 71  1  0
 67 63  1  0
 67 71  1  0
 68 67  1  0
 69 70  1  0
 69 68  1  0
 70 66  1  0
 71 72  2  0
 72 73  1  0
 74 73  2  0
 75 74  1  0
 76 50  1  0
 76 77  1  0
 76 86  1  0
 77 80  1  0
 78 77  1  0
 78 82  1  0
 79 78  2  0
 82 81  1  0
 82 84  1  0
 84 85  1  0
 84 83  1  0
 86 89  1  1
 86 87  1  0
 88 86  1  0
M  ISO  4   1 100  19 100  48 101  49 101
M  END
>  <TORSDO>  (41) 
F 16

>  <SCORE>  (41) 
-11.154

>  <name>  (41) 
40

>  <ligand_id>  (41) 
40

>  <original_smiles>  (41) 
[H]c1c([H])c([H])c2c(c1[H])C([H])([H])C([H])([H])C([H])([H])C2([H])N([H])C(=O)C1([H])N(C(=O)C([H])(N([H])C(=O)C([H])(N([H])C([H])([H])[H])C([H])([H])[H])C(C([H])([H])[H])(C([H])([H])[H])C([H])([H])[H])C([H])([H])c2c([H])c(OC([H])([H])c3nc(C([H])([H])[H])c4c(c3[H])C([H])([H])C([H])([H])N(C(=O)N3C([H])([H])C([H])([H])C([H])([H])C([H])(n5nc(-c6c([H])c([H])c(Oc7c([H])c([H])c(F)c([H])c7F)c([H])c6[H])c(C(=O)N([H])[H])c5N([H])[H])C3([H])[H])C4([H])[H])c([H])c([H])c2C1([H])[H]

>  <smiles>  (41) 
[H]c1c([H])c([H])c2c(c1[H])C([H])([H])C([H])([H])C([H])([H])C2([H])N([H])C(=O)C1([H])N(C(=O)C([H])(N([H])C(=O)C([H])(N([H])C([H])([H])[H])C([H])([H])[H])C(C([H])([H])[H])(C([H])([H])[H])C([H])([H])[H])C([H])([H])c2c([H])c(OC([H])([H])c3nc(C([H])([H])[H])c4c(c3[H])C([H])([H])C([H])([H])N(C(=O)N3C([H])([H])C([H])([H])C([H])([H])C([H])(n5nc(-c6c([H])c([H])c(Oc7c([H])c([H])c(F)c([H])c7F)c([H])c6[H])c(C(=O)N([H])[H])c5N([H])[H])C3([H])[H])C4([H])[H])c([H])c([H])c2C1([H])[H]

$$$$
41:0:0
     RDKit          3D

 88 97  0  0  1  0  0  0  0  0999 V2000
  -27.4020  -22.2140   21.2020 C   0  0  0  0  0  0  0  0  0  0  0  0
  -28.8820  -23.1950   20.0350 C   0  0  0  0  0  3  0  0  0  0  0  0
  -26.0920  -22.0240   21.8910 C   0  0  0  0  0  1  0  0  0  0  0  0
  -27.8400  -23.4390   20.8330 N   0  0  0  0  0  0  0  0  0  0  0  0
  -28.1570  -21.1780   20.8800 N   0  0  0  0  0  2  0  0  0  0  0  0
  -29.1480  -21.6420   20.0670 N   0  0  0  0  0  0  0  0  0  0  0  0
  -31.0530  -16.2890   20.0290 C   0  0  0  0  0  0  0  0  0  0  0  0
  -31.0660  -13.7670   19.2670 C   0  0  0  0  0  2  0  0  0  0  0  0
  -30.1730  -13.3280   18.0800 C   0  0  0  0  0  2  0  0  0  0  0  0
  -28.7570  -13.0030   18.5710 C   0  0  0  0  0  2  0  0  0  0  0  0
  -28.2410  -14.0600   19.5750 C   0  0  0  0  0  3  0  0  0  0  0  0
  -29.2710  -14.4200   20.6660 C   0  0  0  0  0  2  0  0  0  0  0  0
  -30.4460  -14.9770   19.9590 N   0  0  0  0  0  0  0  0  0  0  0  0
  -32.2880  -16.1490   20.0030 O   0  0  0  0  0  0  0  0  0  0  0  0
  -31.0390  -19.1620   20.3110 C   0  0  0  0  0  2  0  0  0  0  0  0
  -29.2120  -18.5930   19.6550 C   0  0  0  0  0  2  0  0  0  0  0  0
  -29.8820  -20.1560   19.6190 C   0  0  0  0  0  3  0  0  0  0  0  0
  -30.4700  -17.7220   19.9960 N   0  0  0  0  0  0  0  0  0  0  0  0
  -25.9130  -14.6190   20.4140 C   0  0  0  0  0  0  0  0  0  0  0  0
  -24.8390  -13.8460   20.7580 C   0  0  0  0  0  0  0  0  0  0  0  0
  -25.2800  -12.4900   20.6620 C   0  0  0  0  0  0  0  0  0  0  0  0
  -26.9300  -13.7360   20.1140 N   0  0  0  0  0  0  0  0  0  0  0  0
  -26.5690  -12.4460   20.3350 N   0  0  0  0  0  0  0  0  0  0  0  0
  -24.5290  -11.2350   20.8020 C   0  0  0  0  0  0  0  0  0  0  0  0
  -24.8890  -10.2620   21.7600 C   0  0  0  0  0  3  0  0  0  0  0  0
  -24.1360   -9.0770   21.8960 C   0  0  0  0  0  3  0  0  0  0  0  0
  -23.0140   -8.8510   21.0660 C   0  0  0  0  0  0  0  0  0  0  0  0
  -22.6700   -9.8120   20.0990 C   0  0  0  0  0  3  0  0  0  0  0  0
  -23.4240  -10.9900   19.9630 C   0  0  0  0  0  3  0  0  0  0  0  0
  -22.2410   -7.7180   21.1060 O   0  0  0  0  0  0  0  0  0  0  0  0
  -22.0230   -7.0360   22.2750 C   0  0  0  0  0  0  0  0  0  0  0  0
  -21.4010   -7.6440   23.3860 C   0  0  0  0  0  3  0  0  0  0  0  0
  -21.1350   -6.8900   24.5460 C   0  0  0  0  0  3  0  0  0  0  0  0
  -21.4770   -5.5240   24.5920 C   0  0  0  0  0  0  0  0  0  0  0  0
  -22.0860   -4.9130   23.4800 C   0  0  0  0  0  3  0  0  0  0  0  0
  -22.3540   -5.6660   22.3250 C   0  0  0  0  0  0  0  0  0  0  0  0
  -22.9250   -5.0680   21.2510 F   0  0  0  0  0  0  0  0  0  0  0  0
  -21.2120   -4.7950   25.7000 F   0  0  0  0  0  0  0  0  0  0  0  0
  -23.4550  -14.3410   21.0550 C   0  0  0  0  0  0  0  0  0  0  0  0
  -22.7170  -13.6300   21.8990 N   0  0  0  0  0  0  0  0  0  0  0  0
  -23.0360  -15.3940   20.5750 O   0  0  0  0  0  0  0  0  0  0  0  0
  -23.0690  -12.7830   22.3210 H   0  0  0  0  0  0  0  0  0  0  0  0
  -21.7840  -13.9400   22.1330 H   0  0  0  0  0  0  0  0  0  0  0  0
  -26.1040  -15.9910   20.2900 N   0  0  0  0  0  0  0  0  0  0  0  0
  -25.3590  -16.6590   20.4590 H   0  0  0  0  0  0  0  0  0  0  0  0
  -26.9710  -16.4200   19.9900 H   0  0  0  0  0  0  0  0  0  0  0  0
  -29.2090  -24.8140   19.3200 C   0  0  0  0  0  2  0  0  0  0  0  0
  -28.9320  -26.4110   19.9150 O   0  0  0  0  0  0  0  0  0  0  0  0
  -24.8810  -31.9860   23.2980 C   0  0  0  0  0  0  0  0  0  0  0  0
  -27.8490  -27.4900   19.8810 C   0  0  0  0  0  0  0  0  0  0  0  0
  -23.8180  -30.6470   21.5270 C   0  0  0  0  0  3  0  0  0  0  0  0
  -25.4070  -29.2600   19.9920 C   0  0  0  0  0  0  0  0  0  0  0  0
  -26.3720  -31.0220   21.4530 C   0  0  0  0  0  2  0  0  0  0  0  0
  -26.5570  -29.6740   20.6650 C   0  0  0  0  0  0  0  0  0  0  0  0
  -27.7580  -28.8100   20.5910 C   0  0  0  0  0  3  0  0  0  0  0  0
  -26.6490  -27.2550   19.1740 C   0  0  0  0  0  3  0  0  0  0  0  0
  -25.4820  -28.0750   19.2360 C   0  0  0  0  0  3  0  0  0  0  0  0
  -24.1200  -30.0870   20.1060 C   0  0  0  0  0  2  0  0  0  0  0  0
  -25.0410  -31.2430   22.1490 N   0  0  0  0  0  0  0  0  0  0  0  0
  -23.7640  -32.1530   23.8180 O   0  0  0  0  0  0  0  0  0  0  0  0
  -23.1840  -29.5330   22.4020 C   0  0  0  0  0  0  0  0  0  0  0  0
  -21.8740  -29.2770   22.2420 N   0  0  0  0  0  0  0  0  0  0  0  0
  -23.8820  -28.8970   23.1970 O   0  0  0  0  0  0  0  0  0  0  0  0
  -21.3590  -29.8420   21.5840 H   0  0  0  0  0  0  0  0  0  0  0  0
  -18.5970  -27.7520   22.6190 C   0  0  0  0  0  0  0  0  0  0  0  0
  -21.1260  -28.2090   22.9210 C   0  0  0  0  0  3  0  0  0  0  0  0
  -21.3430  -26.8460   22.2240 C   0  0  0  0  0  2  0  0  0  0  0  0
  -20.2690  -26.5240   21.1760 C   0  0  0  0  0  2  0  0  0  0  0  0
  -18.8830  -26.4880   21.8290 C   0  0  0  0  0  2  0  0  0  0  0  0
  -19.6460  -28.5670   23.1200 C   0  0  0  0  0  0  0  0  0  0  0  0
  -19.3230  -29.7400   23.8330 C   0  0  0  0  0  3  0  0  0  0  0  0
  -17.9770  -30.1070   24.0410 C   0  0  0  0  0  3  0  0  0  0  0  0
  -16.9410  -29.2980   23.5460 C   0  0  0  0  0  3  0  0  0  0  0  0
  -17.2530  -28.1190   22.8450 C   0  0  0  0  0  3  0  0  0  0  0  0
  -26.0810  -32.6790   24.0090 C   0  0  0  0  0  3  0  0  0  0  0  0
  -25.6760  -34.0520   24.3670 N   0  0  0  0  0  0  0  0  0  0  0  0
  -25.9990  -35.1540   23.6740 C   0  0  0  0  0  0  0  0  0  0  0  0
  -26.7210  -35.1250   22.6750 O   0  0  0  0  0  0  0  0  0  0  0  0
  -25.0290  -34.1450   25.1360 H   0  0  0  0  0  0  0  0  0  0  0  0
  -24.2000  -36.8870   23.3190 C   0  0  0  0  0  1  0  0  0  0  0  0
  -25.4280  -36.5020   24.1630 C   0  0  0  0  0  3  0  0  0  0  0  0
  -27.4750  -37.4680   25.1180 C   0  0  0  0  0  1  0  0  0  0  0  0
  -26.4110  -37.6080   24.1290 N   0  0  0  0  0  0  0  0  0  0  0  0
  -25.9550  -38.5040   24.2790 H   0  0  0  0  0  0  0  0  0  0  0  0
  -26.5650  -31.9120   25.3040 C   0  0  1  0  0  0  0  0  0  0  0  0
  -25.4260  -31.5920   26.3060 C   0  0  0  0  0  1  0  0  0  0  0  0
  -27.2460  -30.5720   24.9380 C   0  0  0  0  0  1  0  0  0  0  0  0
  -27.6310  -32.7560   26.0470 C   0  0  0  0  0  1  0  0  0  0  0  0
  1  3  1  0
  2 47  1  0
  2  6  1  0
  2  4  1  0
  4  1  2  0
  5  1  1  0
  6  5  1  0
  8 13  1  0
  9 10  1  0
  9  8  1  0
 11 10  1  0
 11 22  1  0
 11 12  1  0
 13  7  1  0
 13 12  1  0
 14  7  2  0
 16 18  1  0
 17 16  1  0
 17  6  1  0
 17 15  1  0
 18  7  1  0
 18 15  1  0
 19 20  2  0
 20 39  1  0
 21 20  1  0
 21 24  1  0
 22 23  1  0
 22 19  1  0
 23 21  2  0
 24 25  1  0
 25 26  2  0
 27 30  1  0
 27 26  1  0
 28 27  2  0
 29 28  1  0
 29 24  2  0
 30 31  1  0
 31 36  2  0
 31 32  1  0
 32 33  2  0
 33 34  1  0
 34 38  1  0
 35 34  2  0
 36 35  1  0
 37 36  1  0
 39 40  1  0
 40 43  1  0
 40 42  1  0
 41 39  2  0
 44 19  1  0
 44 45  1  0
 46 44  1  0
 47 48  1  0
 49 60  2  0
 50 48  1  0
 50 55  1  0
 51 59  1  0
 51 61  1  0
 52 58  1  0
 52 54  1  0
 53 59  1  0
 54 53  1  0
 55 54  2  0
 56 57  1  0
 56 50  2  0
 57 52  2  0
 58 51  1  0
 59 49  1  0
 61 63  2  0
 62 61  1  0
 64 62  1  0
 65 74  2  0
 65 70  1  0
 66 62  1  0
 66 70  1  0
 67 66  1  0
 68 69  1  0
 68 67  1  0
 69 65  1  0
 70 71  2  0
 71 72  1  0
 73 72  2  0
 74 73  1  0
 75 49  1  0
 75 76  1  0
 75 85  1  0
 76 79  1  0
 77 81  1  0
 77 76  1  0
 78 77  2  0
 81 80  1  0
 83 81  1  0
 83 84  1  0
 83 82  1  0
 85 88  1  1
 85 86  1  0
 87 85  1  0
M  ISO  4   7 100  18 100  47 101  48 101
M  END
>  <TORSDO>  (42) 
F 17

>  <SCORE>  (42) 
-11.426

>  <name>  (42) 
41

>  <ligand_id>  (42) 
41

>  <original_smiles>  (42) 
[H]c1c([H])c([H])c2c(c1[H])C([H])([H])C([H])([H])C([H])([H])C2([H])N([H])C(=O)C1([H])N(C(=O)C([H])(N([H])C(=O)C([H])(N([H])C([H])([H])[H])C([H])([H])[H])C(C([H])([H])[H])(C([H])([H])[H])C([H])([H])[H])C([H])([H])c2c([H])c(OC([H])([H])c3nc(C([H])([H])[H])nn3C3([H])C([H])([H])N(C(=O)N4C([H])([H])C([H])([H])C([H])([H])C([H])(n5nc(-c6c([H])c([H])c(Oc7c([H])c([H])c(F)c([H])c7F)c([H])c6[H])c(C(=O)N([H])[H])c5N([H])[H])C4([H])[H])C3([H])[H])c([H])c([H])c2C1([H])[H]

>  <smiles>  (42) 
[H]c1c([H])c([H])c2c(c1[H])C([H])([H])C([H])([H])C([H])([H])C2([H])N([H])C(=O)C1([H])N(C(=O)C([H])(N([H])C(=O)C([H])(N([H])C([H])([H])[H])C([H])([H])[H])C(C([H])([H])[H])(C([H])([H])[H])C([H])([H])[H])C([H])([H])c2c([H])c(OC([H])([H])c3nc(C([H])([H])[H])nn3C3([H])C([H])([H])N(C(=O)N4C([H])([H])C([H])([H])C([H])([H])C([H])(n5nc(-c6c([H])c([H])c(Oc7c([H])c([H])c(F)c([H])c7F)c([H])c6[H])c(C(=O)N([H])[H])c5N([H])[H])C4([H])[H])C3([H])[H])c([H])c([H])c2C1([H])[H]

$$$$
42:0:0
     RDKit          3D

 98107  0  0  1  0  0  0  0  0999 V2000
  -30.1760  -22.3630   20.9340 C   0  0  0  0  0  2  0  0  0  0  0  0
  -26.9140  -23.7880   21.5900 C   0  0  0  0  0  0  0  0  0  0  0  0
  -29.0140  -23.3620   20.9820 C   0  0  0  0  0  3  0  0  0  0  0  0
  -28.1430  -25.3900   20.6250 C   0  0  0  0  0  0  0  0  0  0  0  0
  -25.5900  -23.3240   22.1800 C   0  0  0  0  0  1  0  0  0  0  0  0
  -27.8810  -22.8830   21.4960 N   0  0  0  0  0  0  0  0  0  0  0  0
  -26.9870  -25.0530   21.2020 N   0  0  0  0  0  0  0  0  0  0  0  0
  -29.2080  -24.5980   20.5100 N   0  0  0  0  0  0  0  0  0  0  0  0
  -28.2900  -26.6470   20.0900 O   0  0  0  0  0  0  0  0  0  0  0  0
  -24.6500  -31.8880   23.2450 C   0  0  0  0  0  0  0  0  0  0  0  0
  -27.1810  -27.4800   20.0420 C   0  0  0  0  0  0  0  0  0  0  0  0
  -23.4150  -30.5730   21.5500 C   0  0  0  0  0  3  0  0  0  0  0  0
  -24.8380  -29.0650   20.0640 C   0  0  0  0  0  0  0  0  0  0  0  0
  -25.9460  -30.8890   21.3620 C   0  0  0  0  0  2  0  0  0  0  0  0
  -26.0020  -29.5330   20.6830 C   0  0  0  0  0  0  0  0  0  0  0  0
  -27.1770  -28.7460   20.6790 C   0  0  0  0  0  3  0  0  0  0  0  0
  -26.0170  -27.0610   19.3610 C   0  0  0  0  0  3  0  0  0  0  0  0
  -24.8420  -27.8290   19.3950 C   0  0  0  0  0  3  0  0  0  0  0  0
  -23.6120  -29.9470   20.1430 C   0  0  0  0  0  2  0  0  0  0  0  0
  -24.6890  -31.1290   22.1120 N   0  0  0  0  0  0  0  0  0  0  0  0
  -23.5730  -32.1640   23.7950 O   0  0  0  0  0  0  0  0  0  0  0  0
  -22.7420  -29.5310   22.4740 C   0  0  0  0  0  0  0  0  0  0  0  0
  -21.4120  -29.3890   22.3510 N   0  0  0  0  0  0  0  0  0  0  0  0
  -23.4130  -28.8530   23.2560 O   0  0  0  0  0  0  0  0  0  0  0  0
  -20.9280  -29.9990   21.7080 H   0  0  0  0  0  0  0  0  0  0  0  0
  -18.0040  -28.2850   22.8380 C   0  0  0  0  0  0  0  0  0  0  0  0
  -20.5750  -28.4390   23.0850 C   0  0  0  0  0  3  0  0  0  0  0  0
  -20.6170  -27.0340   22.4400 C   0  0  0  0  0  2  0  0  0  0  0  0
  -19.4920  -26.7960   21.4290 C   0  0  0  0  0  2  0  0  0  0  0  0
  -18.1240  -26.9630   22.0970 C   0  0  0  0  0  2  0  0  0  0  0  0
  -19.1560  -28.9830   23.2870 C   0  0  0  0  0  0  0  0  0  0  0  0
  -18.9920  -30.2260   23.9410 C   0  0  0  0  0  3  0  0  0  0  0  0
  -17.7100  -30.7650   24.1500 C   0  0  0  0  0  3  0  0  0  0  0  0
  -16.5710  -30.0620   23.7190 C   0  0  0  0  0  3  0  0  0  0  0  0
  -16.7210  -28.8240   23.0670 C   0  0  0  0  0  3  0  0  0  0  0  0
  -25.9500  -32.4710   23.8860 C   0  0  0  0  0  3  0  0  0  0  0  0
  -26.4450  -31.6530   25.1420 C   0  0  1  0  0  0  0  0  0  0  0  0
  -25.3490  -31.4190   26.2070 C   0  0  0  0  0  1  0  0  0  0  0  0
  -27.0000  -30.2770   24.7110 C   0  0  0  0  0  1  0  0  0  0  0  0
  -27.6100  -32.4020   25.8350 C   0  0  0  0  0  1  0  0  0  0  0  0
  -25.6770  -33.8650   24.2530 N   0  0  0  0  0  0  0  0  0  0  0  0
  -26.0210  -34.9310   23.5140 C   0  0  0  0  0  0  0  0  0  0  0  0
  -26.6770  -34.8390   22.4730 O   0  0  0  0  0  0  0  0  0  0  0  0
  -25.1100  -34.0110   25.0740 H   0  0  0  0  0  0  0  0  0  0  0  0
  -24.3240  -36.7670   23.2240 C   0  0  0  0  0  1  0  0  0  0  0  0
  -25.5640  -36.3140   24.0120 C   0  0  0  0  0  3  0  0  0  0  0  0
  -27.7230  -37.1390   24.8400 C   0  0  0  0  0  1  0  0  0  0  0  0
  -26.6130  -37.3510   23.9160 N   0  0  0  0  0  0  0  0  0  0  0  0
  -26.2250  -38.2710   24.0950 H   0  0  0  0  0  0  0  0  0  0  0  0
  -29.6320  -20.9850   20.8700 N   0  0  0  0  0  4  0  0  0  0  0  0
  -29.2600  -20.8840   19.9430 H   0  0  0  0  0  0  0  0  0  0  0  0
  -28.8340  -21.0630   21.4920 H   0  0  0  0  0  0  0  0  0  0  0  0
  -30.5410  -19.8510   21.2310 C   0  0  0  0  0  2  0  0  0  0  0  0
  -30.0330  -18.4490   20.7210 C   0  0  0  0  0  2  0  0  0  0  0  0
  -30.9220  -14.6630   21.0260 C   0  0  0  0  0  0  0  0  0  0  0  0
  -30.7350  -12.3340   20.2450 C   0  0  0  0  0  2  0  0  0  0  0  0
  -29.9690  -12.2920   18.9110 C   0  0  0  0  0  2  0  0  0  0  0  0
  -28.4410  -12.2360   19.1510 C   0  0  0  0  0  2  0  0  0  0  0  0
  -27.9230  -13.1910   20.2710 C   0  0  0  0  0  3  0  0  0  0  0  0
  -28.8620  -13.2410   21.4950 C   0  0  0  0  0  2  0  0  0  0  0  0
  -30.2170  -13.4910   20.9950 N   0  0  0  0  0  0  0  0  0  0  0  0
  -32.1510  -14.6510   21.0570 O   0  0  0  0  0  0  0  0  0  0  0  0
  -29.8220  -15.9100   19.2210 C   0  0  0  0  0  2  0  0  0  0  0  0
  -30.9090  -16.3720   18.2060 C   0  0  0  0  0  2  0  0  0  0  0  0
  -32.2660  -17.3400   20.0540 C   0  0  0  0  0  2  0  0  0  0  0  0
  -30.9660  -17.1770   20.9140 C   0  0  0  0  0  3  0  0  0  0  0  0
  -30.3130  -15.8370   20.6250 N   0  0  0  0  0  0  0  0  0  0  0  0
  -32.2450  -16.5100   18.8280 N   0  0  0  0  0  4  0  0  0  0  0  0
  -32.9250  -16.8450   18.1620 H   0  0  0  0  0  0  0  0  0  0  0  0
  -32.5320  -15.5850   19.1170 H   0  0  0  0  0  0  0  0  0  0  0  0
  -25.4820  -13.8030   20.7020 C   0  0  0  0  0  0  0  0  0  0  0  0
  -24.3820  -13.0360   20.9720 C   0  0  0  0  0  0  0  0  0  0  0  0
  -24.8490  -11.6880   21.0500 C   0  0  0  0  0  0  0  0  0  0  0  0
  -26.5430  -12.9160   20.6300 N   0  0  0  0  0  0  0  0  0  0  0  0
  -26.1650  -11.6440   20.9040 N   0  0  0  0  0  0  0  0  0  0  0  0
  -24.1110  -10.4290   21.2010 C   0  0  0  0  0  0  0  0  0  0  0  0
  -24.4720   -9.4810   22.1820 C   0  0  0  0  0  3  0  0  0  0  0  0
  -23.7350   -8.2850   22.3270 C   0  0  0  0  0  3  0  0  0  0  0  0
  -22.6280   -8.0280   21.4850 C   0  0  0  0  0  0  0  0  0  0  0  0
  -22.2870   -8.9680   20.4970 C   0  0  0  0  0  3  0  0  0  0  0  0
  -23.0230  -10.1550   20.3510 C   0  0  0  0  0  3  0  0  0  0  0  0
  -21.8690   -6.8840   21.5310 O   0  0  0  0  0  0  0  0  0  0  0  0
  -21.7560   -6.1430   22.6790 C   0  0  0  0  0  0  0  0  0  0  0  0
  -21.2570   -6.6980   23.8770 C   0  0  0  0  0  3  0  0  0  0  0  0
  -21.0930   -5.8840   25.0150 C   0  0  0  0  0  3  0  0  0  0  0  0
  -21.4120   -4.5150   24.9560 C   0  0  0  0  0  0  0  0  0  0  0  0
  -21.8980   -3.9570   23.7600 C   0  0  0  0  0  3  0  0  0  0  0  0
  -22.0670   -4.7690   22.6250 C   0  0  0  0  0  0  0  0  0  0  0  0
  -22.5150   -4.2220   21.4700 F   0  0  0  0  0  0  0  0  0  0  0  0
  -21.2470   -3.7290   26.0470 F   0  0  0  0  0  0  0  0  0  0  0  0
  -22.9640  -13.5150   21.0540 C   0  0  0  0  0  0  0  0  0  0  0  0
  -22.1430  -12.8610   21.8670 N   0  0  0  0  0  0  0  0  0  0  0  0
  -22.5870  -14.5060   20.4320 O   0  0  0  0  0  0  0  0  0  0  0  0
  -22.4560  -12.0600   22.3950 H   0  0  0  0  0  0  0  0  0  0  0  0
  -21.1880  -13.1720   21.9590 H   0  0  0  0  0  0  0  0  0  0  0  0
  -25.6660  -15.1680   20.4880 N   0  0  0  0  0  0  0  0  0  0  0  0
  -24.9010  -15.8340   20.4770 H   0  0  0  0  0  0  0  0  0  0  0  0
  -26.5600  -15.6040   20.2990 H   0  0  0  0  0  0  0  0  0  0  0  0
  2  5  1  0
  3  1  1  0
  3  6  1  0
  4  7  2  0
  6  2  2  0
  7  2  1  0
  8  4  2  0
  8  3  1  0
  9  4  1  0
 10 21  2  0
 11  9  1  0
 11 16  1  0
 12 20  1  0
 12 22  1  0
 13 19  1  0
 13 15  1  0
 14 20  1  0
 15 14  1  0
 16 15  2  0
 17 18  1  0
 17 11  2  0
 18 13  2  0
 19 12  1  0
 20 10  1  0
 22 24  2  0
 23 22  1  0
 25 23  1  0
 26 35  2  0
 26 31  1  0
 27 23  1  0
 27 31  1  0
 28 27  1  0
 29 30  1  0
 29 28  1  0
 30 26  1  0
 31 32  2  0
 32 33  1  0
 34 33  2  0
 35 34  1  0
 36 10  1  0
 36 41  1  0
 36 37  1  0
 37 40  1  1
 37 38  1  0
 39 37  1  0
 41 44  1  0
 42 46  1  0
 42 41  1  0
 43 42  2  0
 46 45  1  0
 48 46  1  0
 48 49  1  0
 48 47  1  0
 50  1  1  0
 50 53  1  0
 50 52  1  0
 51 50  1  0
 54 53  1  0
 55 62  2  0
 56 61  1  0
 57 58  1  0
 57 56  1  0
 59 58  1  0
 59 74  1  0
 59 60  1  0
 61 55  1  0
 61 60  1  0
 63 67  1  0
 64 68  1  0
 64 63  1  0
 65 66  1  0
 66 54  1  0
 67 66  1  0
 67 55  1  0
 68 70  1  0
 68 65  1  0
 69 68  1  0
 71 72  2  0
 72 73  1  0
 72 91  1  0
 73 76  1  0
 74 71  1  0
 74 75  1  0
 75 73  2  0
 76 77  1  0
 77 78  2  0
 79 82  1  0
 79 78  1  0
 80 79  2  0
 81 80  1  0
 81 76  2  0
 82 83  1  0
 83 84  1  0
 84 85  2  0
 86 85  1  0
 86 90  1  0
 87 86  2  0
 88 83  2  0
 88 87  1  0
 89 88  1  0
 91 92  1  0
 92 95  1  0
 92 94  1  0
 93 91  2  0
 96 71  1  0
 97 96  1  0
 98 96  1  0
M  ISO  4   4 101   9 101  55 100  67 100
M  END
>  <TORSDO>  (43) 
F 20

>  <SCORE>  (43) 
-13.345

>  <name>  (43) 
42

>  <ligand_id>  (43) 
42

>  <original_smiles>  (43) 
[H]c1c([H])c([H])c2c(c1[H])C([H])([H])C([H])([H])C([H])([H])C2([H])N([H])C(=O)C1([H])N(C(=O)C([H])(N([H])C(=O)C([H])(N([H])C([H])([H])[H])C([H])([H])[H])C(C([H])([H])[H])(C([H])([H])[H])C([H])([H])[H])C([H])([H])c2c([H])c(Oc3nc(C([H])([H])[H])nc(C([H])([H])[N+]([H])([H])C([H])([H])C([H])([H])C4([H])N(C(=O)N5C([H])([H])C([H])([H])C([H])([H])C([H])(n6nc(-c7c([H])c([H])c(Oc8c([H])c([H])c(F)c([H])c8F)c([H])c7[H])c(C(=O)N([H])[H])c6N([H])[H])C5([H])[H])C([H])([H])C([H])([H])[N+]([H])([H])C4([H])[H])n3)c([H])c([H])c2C1([H])[H]

>  <smiles>  (43) 
[H]c1c([H])c([H])c2c(c1[H])C([H])([H])C([H])([H])C([H])([H])C2([H])N([H])C(=O)C1([H])N(C(=O)C([H])(N([H])C(=O)C([H])(N([H])C([H])([H])[H])C([H])([H])[H])C(C([H])([H])[H])(C([H])([H])[H])C([H])([H])[H])C([H])([H])c2c([H])c(Oc3nc(C([H])([H])[H])nc(C([H])([H])[N+]([H])([H])C([H])([H])C([H])([H])C4([H])N(C(=O)N5C([H])([H])C([H])([H])C([H])([H])C([H])(n6nc(-c7c([H])c([H])c(Oc8c([H])c([H])c(F)c([H])c8F)c([H])c7[H])c(C(=O)N([H])[H])c6N([H])[H])C5([H])[H])C([H])([H])C([H])([H])[N+]([H])([H])C4([H])[H])n3)c([H])c([H])c2C1([H])[H]

$$$$
43:0:0
     RDKit          3D

 88 97  0  0  1  0  0  0  0  0999 V2000
  -30.4500  -15.5820   20.2910 C   0  0  0  0  0  0  0  0  0  0  0  0
  -30.3940  -13.0730   19.4700 C   0  0  0  0  0  2  0  0  0  0  0  0
  -29.5100  -12.6890   18.2590 C   0  0  0  0  0  2  0  0  0  0  0  0
  -28.0850  -12.3610   18.7260 C   0  0  0  0  0  2  0  0  0  0  0  0
  -27.5770  -13.3720   19.7810 C   0  0  0  0  0  3  0  0  0  0  0  0
  -28.6170  -13.7140   20.8790 C   0  0  0  0  0  2  0  0  0  0  0  0
  -29.7930  -14.2900   20.1820 N   0  0  0  0  0  0  0  0  0  0  0  0
  -31.6680  -15.3590   20.1940 O   0  0  0  0  0  0  0  0  0  0  0  0
  -30.6710  -21.0890   19.4400 C   0  0  0  0  0  2  0  0  0  0  0  0
  -30.2110  -19.7590   19.7630 C   0  0  0  0  0  0  0  0  0  0  0  0
  -28.9740  -19.7360   20.3120 C   0  0  0  0  0  0  0  0  0  0  0  0
  -28.7230  -22.3650   20.1690 C   0  0  0  0  0  0  0  0  0  0  0  0
  -28.7580  -18.0750   20.5520 C   0  0  0  0  0  2  0  0  0  0  0  0
  -30.8280  -18.2670   19.5880 C   0  0  0  0  0  3  0  0  0  0  0  0
  -32.3170  -18.2860   20.0020 C   0  0  0  0  0  1  0  0  0  0  0  0
  -29.9720  -22.2880   19.6360 N   0  0  0  0  0  0  0  0  0  0  0  0
  -28.2470  -21.0180   20.4940 N   0  0  0  0  0  2  0  0  0  0  0  0
  -29.9710  -17.0610   20.1560 N   0  0  0  0  0  0  0  0  0  0  0  0
  -25.1990  -13.8790   20.5310 C   0  0  0  0  0  0  0  0  0  0  0  0
  -24.1460  -13.0870   20.8920 C   0  0  0  0  0  0  0  0  0  0  0  0
  -24.6370  -11.7440   20.8750 C   0  0  0  0  0  0  0  0  0  0  0  0
  -26.2610  -13.0230   20.3070 N   0  0  0  0  0  0  0  0  0  0  0  0
  -25.9350  -11.7310   20.5810 N   0  0  0  0  0  0  0  0  0  0  0  0
  -23.9240  -10.4700   21.0630 C   0  0  0  0  0  0  0  0  0  0  0  0
  -24.3550   -9.5110   22.0060 C   0  0  0  0  0  3  0  0  0  0  0  0
  -23.6360   -8.3100   22.1850 C   0  0  0  0  0  3  0  0  0  0  0  0
  -22.4720   -8.0570   21.4210 C   0  0  0  0  0  0  0  0  0  0  0  0
  -22.0600   -9.0060   20.4690 C   0  0  0  0  0  3  0  0  0  0  0  0
  -22.7800  -10.1980   20.2860 C   0  0  0  0  0  3  0  0  0  0  0  0
  -21.7260   -6.9060   21.5090 O   0  0  0  0  0  0  0  0  0  0  0  0
  -21.6720   -6.1680   22.6640 C   0  0  0  0  0  0  0  0  0  0  0  0
  -21.2130   -6.7220   23.8800 C   0  0  0  0  0  3  0  0  0  0  0  0
  -21.1080   -5.9110   25.0280 C   0  0  0  0  0  3  0  0  0  0  0  0
  -21.4510   -4.5480   24.9620 C   0  0  0  0  0  0  0  0  0  0  0  0
  -21.9040   -3.9940   23.7510 C   0  0  0  0  0  3  0  0  0  0  0  0
  -22.0100   -4.8010   22.6050 C   0  0  0  0  0  0  0  0  0  0  0  0
  -22.4260   -4.2560   21.4370 F   0  0  0  0  0  0  0  0  0  0  0  0
  -21.3450   -3.7670   26.0630 F   0  0  0  0  0  0  0  0  0  0  0  0
  -22.7370  -13.5450   21.1310 C   0  0  0  0  0  0  0  0  0  0  0  0
  -22.0060  -12.8590   21.9990 N   0  0  0  0  0  0  0  0  0  0  0  0
  -22.2950  -14.5540   20.5820 O   0  0  0  0  0  0  0  0  0  0  0  0
  -22.3760  -12.0490   22.4730 H   0  0  0  0  0  0  0  0  0  0  0  0
  -21.0590  -13.1550   22.1940 H   0  0  0  0  0  0  0  0  0  0  0  0
  -25.3380  -15.2510   20.3380 N   0  0  0  0  0  0  0  0  0  0  0  0
  -24.5560  -15.8910   20.4360 H   0  0  0  0  0  0  0  0  0  0  0  0
  -26.1730  -15.7000   19.9860 H   0  0  0  0  0  0  0  0  0  0  0  0
  -27.8290  -23.9650   20.2400 C   0  0  0  0  0  2  0  0  0  0  0  0
  -28.1470  -25.6550   20.2740 O   0  0  0  0  0  0  0  0  0  0  0  0
  -24.6470  -31.8620   23.2380 C   0  0  0  0  0  0  0  0  0  0  0  0
  -27.1700  -26.8370   20.2440 C   0  0  0  0  0  0  0  0  0  0  0  0
  -23.4570  -30.4650   21.6030 C   0  0  0  0  0  3  0  0  0  0  0  0
  -24.8990  -28.8230   20.1970 C   0  0  0  0  0  0  0  0  0  0  0  0
  -26.0330  -30.6190   21.4790 C   0  0  0  0  0  2  0  0  0  0  0  0
  -26.0950  -29.1930   20.8260 C   0  0  0  0  0  0  0  0  0  0  0  0
  -27.2190  -28.2240   20.8190 C   0  0  0  0  0  3  0  0  0  0  0  0
  -25.9370  -26.6570   19.5690 C   0  0  0  0  0  3  0  0  0  0  0  0
  -24.8540  -27.5780   19.5490 C   0  0  0  0  0  3  0  0  0  0  0  0
  -23.6910  -29.7670   20.2340 C   0  0  0  0  0  2  0  0  0  0  0  0
  -24.7360  -31.0130   22.1600 N   0  0  0  0  0  0  0  0  0  0  0  0
  -23.5550  -32.1650   23.7470 O   0  0  0  0  0  0  0  0  0  0  0  0
  -22.7410  -29.4870   22.5740 C   0  0  0  0  0  0  0  0  0  0  0  0
  -21.4080  -29.3330   22.4450 N   0  0  0  0  0  0  0  0  0  0  0  0
  -23.3950  -28.8650   23.4140 O   0  0  0  0  0  0  0  0  0  0  0  0
  -20.9300  -29.8800   21.7430 H   0  0  0  0  0  0  0  0  0  0  0  0
  -18.0190  -28.1320   22.9540 C   0  0  0  0  0  0  0  0  0  0  0  0
  -20.5770  -28.4030   23.2200 C   0  0  0  0  0  3  0  0  0  0  0  0
  -20.6800  -26.9660   22.6570 C   0  0  0  0  0  2  0  0  0  0  0  0
  -19.5820  -26.6370   21.6410 C   0  0  0  0  0  2  0  0  0  0  0  0
  -18.1980  -26.7810   22.2810 C   0  0  0  0  0  2  0  0  0  0  0  0
  -19.1340  -28.9000   23.3800 C   0  0  0  0  0  0  0  0  0  0  0  0
  -18.9110  -30.1600   23.9760 C   0  0  0  0  0  3  0  0  0  0  0  0
  -17.6030  -30.6550   24.1460 C   0  0  0  0  0  3  0  0  0  0  0  0
  -16.5020  -29.8860   23.7310 C   0  0  0  0  0  3  0  0  0  0  0  0
  -16.7090  -28.6260   23.1430 C   0  0  0  0  0  3  0  0  0  0  0  0
  -25.9130  -32.5090   23.8760 C   0  0  0  0  0  3  0  0  0  0  0  0
  -25.5950  -33.9130   24.2030 N   0  0  0  0  0  0  0  0  0  0  0  0
  -25.9290  -34.9740   23.4550 C   0  0  0  0  0  0  0  0  0  0  0  0
  -26.5950  -34.8760   22.4220 O   0  0  0  0  0  0  0  0  0  0  0  0
  -25.0000  -34.0620   25.0050 H   0  0  0  0  0  0  0  0  0  0  0  0
  -24.2030  -36.7820   23.1320 C   0  0  0  0  0  1  0  0  0  0  0  0
  -25.4520  -36.3660   23.9250 C   0  0  0  0  0  3  0  0  0  0  0  0
  -27.5970  -37.2490   24.7380 C   0  0  0  0  0  1  0  0  0  0  0  0
  -26.4890  -37.4160   23.8020 N   0  0  0  0  0  0  0  0  0  0  0  0
  -26.0850  -38.3380   23.9500 H   0  0  0  0  0  0  0  0  0  0  0  0
  -26.4060  -31.7540   25.1730 C   0  0  1  0  0  0  0  0  0  0  0  0
  -25.2940  -31.5450   26.2290 C   0  0  0  0  0  1  0  0  0  0  0  0
  -26.9830  -30.3650   24.8230 C   0  0  0  0  0  1  0  0  0  0  0  0
  -27.5540  -32.5480   25.8390 C   0  0  0  0  0  1  0  0  0  0  0  0
  2  7  1  0
  3  4  1  0
  3  2  1  0
  5  4  1  0
  5 22  1  0
  5  6  1  0
  7  1  1  0
  7  6  1  0
  8  1  2  0
  9 16  1  0
  9 10  1  0
 10 11  2  0
 11 17  1  0
 11 13  1  0
 12 47  1  0
 12 17  1  0
 14 10  1  0
 14 15  1  0
 14 18  1  0
 16 12  2  0
 18  1  1  0
 18 13  1  0
 19 20  2  0
 20 39  1  0
 21 20  1  0
 21 24  1  0
 22 19  1  0
 22 23  1  0
 23 21  2  0
 24 25  1  0
 25 26  2  0
 27 30  1  0
 27 26  1  0
 28 27  2  0
 29 28  1  0
 29 24  2  0
 30 31  1  0
 31 32  1  0
 32 33  2  0
 34 33  1  0
 34 38  1  0
 35 34  2  0
 36 31  2  0
 36 35  1  0
 37 36  1  0
 39 40  1  0
 40 43  1  0
 40 42  1  0
 41 39  2  0
 44 45  1  0
 44 19  1  0
 46 44  1  0
 47 48  1  0
 49 60  2  0
 50 48  1  0
 50 55  1  0
 51 59  1  0
 51 61  1  0
 52 58  1  0
 52 54  1  0
 53 59  1  0
 54 53  1  0
 55 54  2  0
 56 50  2  0
 57 56  1  0
 57 52  2  0
 58 51  1  0
 59 49  1  0
 61 63  2  0
 62 61  1  0
 64 62  1  0
 65 74  2  0
 65 70  1  0
 66 62  1  0
 66 70  1  0
 67 66  1  0
 68 69  1  0
 68 67  1  0
 69 65  1  0
 70 71  2  0
 71 72  1  0
 73 72  2  0
 74 73  1  0
 75 49  1  0
 75 76  1  0
 75 85  1  0
 76 79  1  0
 77 81  1  0
 77 76  1  0
 78 77  2  0
 81 80  1  0
 83 81  1  0
 83 84  1  0
 83 82  1  0
 85 88  1  1
 85 86  1  0
 87 85  1  0
M  ISO  4   1 100  18 100  47 101  48 101
M  END
>  <TORSDO>  (44) 
F 16

>  <SCORE>  (44) 
-16.825

>  <name>  (44) 
43

>  <ligand_id>  (44) 
43

>  <original_smiles>  (44) 
[H]c1nc(C([H])([H])Oc2c([H])c([H])c3c(c2[H])C([H])([H])N(C(=O)C([H])(N([H])C(=O)C([H])(N([H])C([H])([H])[H])C([H])([H])[H])C(C([H])([H])[H])(C([H])([H])[H])C([H])([H])[H])C([H])(C(=O)N([H])C2([H])c4c([H])c([H])c([H])c([H])c4C([H])([H])C([H])([H])C2([H])[H])C3([H])[H])nc2c1C([H])(C([H])([H])[H])N(C(=O)N1C([H])([H])C([H])([H])C([H])([H])C([H])(n3nc(-c4c([H])c([H])c(Oc5c([H])c([H])c(F)c([H])c5F)c([H])c4[H])c(C(=O)N([H])[H])c3N([H])[H])C1([H])[H])C2([H])[H]

>  <smiles>  (44) 
[H]c1nc(C([H])([H])Oc2c([H])c([H])c3c(c2[H])C([H])([H])N(C(=O)C([H])(N([H])C(=O)C([H])(N([H])C([H])([H])[H])C([H])([H])[H])C(C([H])([H])[H])(C([H])([H])[H])C([H])([H])[H])C([H])(C(=O)N([H])C2([H])c4c([H])c([H])c([H])c([H])c4C([H])([H])C([H])([H])C2([H])[H])C3([H])[H])nc2c1C([H])(C([H])([H])[H])N(C(=O)N1C([H])([H])C([H])([H])C([H])([H])C([H])(n3nc(-c4c([H])c([H])c(Oc5c([H])c([H])c(F)c([H])c5F)c([H])c4[H])c(C(=O)N([H])[H])c3N([H])[H])C1([H])[H])C2([H])[H]

$$$$
44:0:0
     RDKit          3D

 94103  0  0  1  0  0  0  0  0999 V2000
  -30.0430  -23.7930   21.5520 C   0  0  0  0  0  3  0  0  0  0  0  0
  -29.1200  -24.5870   20.8170 C   0  0  0  0  0  0  0  0  0  0  0  0
  -30.2710  -22.7010   20.7600 C   0  0  0  0  0  0  0  0  0  0  0  0
  -29.3750  -22.0150   18.4580 C   0  0  0  0  0  1  0  0  0  0  0  0
  -28.7970  -24.0210   19.6620 N   0  0  0  0  0  0  0  0  0  0  0  0
  -29.5020  -22.8710   19.6220 N   0  0  0  0  0  0  0  0  0  0  0  0
  -28.4870  -25.8920   21.2200 C   0  0  0  0  0  2  0  0  0  0  0  0
  -28.3820  -26.7880   20.1160 O   0  0  0  0  0  0  0  0  0  0  0  0
  -24.6080  -31.8980   23.2810 C   0  0  0  0  0  0  0  0  0  0  0  0
  -27.2290  -27.5200   20.1400 C   0  0  0  0  0  0  0  0  0  0  0  0
  -23.3850  -30.5040   21.6410 C   0  0  0  0  0  3  0  0  0  0  0  0
  -24.8280  -28.9810   20.1910 C   0  0  0  0  0  0  0  0  0  0  0  0
  -25.9020  -30.8820   21.4140 C   0  0  0  0  0  2  0  0  0  0  0  0
  -25.9860  -29.5170   20.7700 C   0  0  0  0  0  0  0  0  0  0  0  0
  -27.1940  -28.7900   20.7470 C   0  0  0  0  0  3  0  0  0  0  0  0
  -26.0630  -26.9840   19.5590 C   0  0  0  0  0  3  0  0  0  0  0  0
  -24.8580  -27.7120   19.5850 C   0  0  0  0  0  3  0  0  0  0  0  0
  -23.5790  -29.8310   20.2550 C   0  0  0  0  0  2  0  0  0  0  0  0
  -24.6500  -31.1070   22.1710 N   0  0  0  0  0  0  0  0  0  0  0  0
  -23.5330  -32.1650   23.8360 O   0  0  0  0  0  0  0  0  0  0  0  0
  -22.7480  -29.4750   22.6020 C   0  0  0  0  0  0  0  0  0  0  0  0
  -21.4250  -29.2830   22.4750 N   0  0  0  0  0  0  0  0  0  0  0  0
  -23.4390  -28.8530   23.4130 O   0  0  0  0  0  0  0  0  0  0  0  0
  -20.9290  -29.8360   21.7910 H   0  0  0  0  0  0  0  0  0  0  0  0
  -18.0680  -28.0350   22.9400 C   0  0  0  0  0  0  0  0  0  0  0  0
  -20.6160  -28.3380   23.2450 C   0  0  0  0  0  3  0  0  0  0  0  0
  -20.7520  -26.9040   22.6830 C   0  0  0  0  0  2  0  0  0  0  0  0
  -19.6700  -26.5530   21.6580 C   0  0  0  0  0  2  0  0  0  0  0  0
  -18.2760  -26.6820   22.2820 C   0  0  0  0  0  2  0  0  0  0  0  0
  -19.1670  -28.8200   23.3770 C   0  0  0  0  0  0  0  0  0  0  0  0
  -18.9200  -30.0870   23.9490 C   0  0  0  0  0  3  0  0  0  0  0  0
  -17.6050  -30.5690   24.0910 C   0  0  0  0  0  3  0  0  0  0  0  0
  -16.5190  -29.7800   23.6720 C   0  0  0  0  0  3  0  0  0  0  0  0
  -16.7510  -28.5160   23.1020 C   0  0  0  0  0  3  0  0  0  0  0  0
  -25.9020  -32.5240   23.8900 C   0  0  0  0  0  3  0  0  0  0  0  0
  -25.6030  -33.9250   24.2160 N   0  0  0  0  0  0  0  0  0  0  0  0
  -25.9390  -34.9710   23.4490 C   0  0  0  0  0  0  0  0  0  0  0  0
  -26.6060  -34.8580   22.4170 O   0  0  0  0  0  0  0  0  0  0  0  0
  -25.0140  -34.0870   25.0200 H   0  0  0  0  0  0  0  0  0  0  0  0
  -24.2150  -36.7650   23.0930 C   0  0  0  0  0  1  0  0  0  0  0  0
  -25.4600  -36.3640   23.9000 C   0  0  0  0  0  3  0  0  0  0  0  0
  -27.6050  -37.2420   24.7090 C   0  0  0  0  0  1  0  0  0  0  0  0
  -26.4950  -37.4120   23.7740 N   0  0  0  0  0  0  0  0  0  0  0  0
  -26.0950  -38.3340   23.9230 H   0  0  0  0  0  0  0  0  0  0  0  0
  -26.4270  -31.7520   25.1620 C   0  0  1  0  0  0  0  0  0  0  0  0
  -25.3420  -31.5180   26.2390 C   0  0  0  0  0  1  0  0  0  0  0  0
  -27.0010  -30.3730   24.7620 C   0  0  0  0  0  1  0  0  0  0  0  0
  -27.5850  -32.5420   25.8150 C   0  0  0  0  0  1  0  0  0  0  0  0
  -31.1570  -21.5110   20.9930 C   0  0  0  0  0  2  0  0  0  0  0  0
  -29.8900  -20.5170   22.8790 C   0  0  0  0  0  1  0  0  0  0  0  0
  -30.4390  -20.3170   21.5130 N   0  0  2  0  0  4  0  0  0  0  0  0
  -29.6470  -20.1800   20.9060 H   0  0  0  0  0  0  0  0  0  0  0  0
  -31.2740  -19.0940   21.3990 C   0  0  0  0  0  2  0  0  0  0  0  0
  -30.6820  -17.0390   22.9280 C   0  0  0  0  0  2  0  0  0  0  0  0
  -30.5020  -17.8040   21.6400 C   0  0  0  0  0  3  0  0  0  0  0  0
  -31.2350  -16.4730   21.6400 C   0  0  0  0  0  3  0  0  0  0  0  0
  -31.0620  -14.4670   20.2120 C   0  0  0  0  0  0  0  0  0  0  0  0
  -30.6160  -12.4010   18.9360 C   0  0  0  0  0  2  0  0  0  0  0  0
  -29.6420  -12.6720   17.7740 C   0  0  0  0  0  2  0  0  0  0  0  0
  -28.1790  -12.5670   18.2460 C   0  0  0  0  0  2  0  0  0  0  0  0
  -27.9130  -13.3950   19.5310 C   0  0  0  0  0  3  0  0  0  0  0  0
  -28.9840  -13.0940   20.6010 C   0  0  0  0  0  2  0  0  0  0  0  0
  -30.3120  -13.3520   20.0140 N   0  0  0  0  0  0  0  0  0  0  0  0
  -32.1000  -14.7140   19.5870 O   0  0  0  0  0  0  0  0  0  0  0  0
  -30.5870  -15.2990   21.1470 N   0  0  0  0  0  0  0  0  0  0  0  0
  -29.7330  -15.0100   21.6020 H   0  0  0  0  0  0  0  0  0  0  0  0
  -25.5560  -14.0900   20.2980 C   0  0  0  0  0  0  0  0  0  0  0  0
  -24.4740  -13.3560   20.7000 C   0  0  0  0  0  0  0  0  0  0  0  0
  -24.8870  -11.9890   20.6620 C   0  0  0  0  0  0  0  0  0  0  0  0
  -26.5640  -13.1720   20.0450 N   0  0  0  0  0  0  0  0  0  0  0  0
  -26.1650  -11.9040   20.3180 N   0  0  0  0  0  0  0  0  0  0  0  0
  -24.1260  -10.7510   20.8780 C   0  0  0  0  0  0  0  0  0  0  0  0
  -24.5410   -9.7820   21.8180 C   0  0  0  0  0  3  0  0  0  0  0  0
  -23.7830   -8.6090   22.0190 C   0  0  0  0  0  3  0  0  0  0  0  0
  -22.5940   -8.3970   21.2820 C   0  0  0  0  0  0  0  0  0  0  0  0
  -22.1960   -9.3540   20.3330 C   0  0  0  0  0  3  0  0  0  0  0  0
  -22.9550  -10.5190   20.1290 C   0  0  0  0  0  3  0  0  0  0  0  0
  -21.8070   -7.2760   21.3940 O   0  0  0  0  0  0  0  0  0  0  0  0
  -21.7300   -6.5640   22.5630 C   0  0  0  0  0  0  0  0  0  0  0  0
  -21.3350   -7.1670   23.7780 C   0  0  0  0  0  3  0  0  0  0  0  0
  -21.2030   -6.3830   24.9420 C   0  0  0  0  0  3  0  0  0  0  0  0
  -21.4540   -4.9980   24.8920 C   0  0  0  0  0  0  0  0  0  0  0  0
  -21.8410   -4.3960   23.6820 C   0  0  0  0  0  3  0  0  0  0  0  0
  -21.9750   -5.1770   22.5210 C   0  0  0  0  0  0  0  0  0  0  0  0
  -22.3290   -4.5880   21.3530 F   0  0  0  0  0  0  0  0  0  0  0  0
  -21.3190   -4.2440   26.0080 F   0  0  0  0  0  0  0  0  0  0  0  0
  -23.1010  -13.8800   21.0100 C   0  0  0  0  0  0  0  0  0  0  0  0
  -22.3800  -13.2160   21.9080 N   0  0  0  0  0  0  0  0  0  0  0  0
  -22.6760  -14.9110   20.4910 O   0  0  0  0  0  0  0  0  0  0  0  0
  -22.7370  -12.3810   22.3500 H   0  0  0  0  0  0  0  0  0  0  0  0
  -21.4560  -13.5440   22.1540 H   0  0  0  0  0  0  0  0  0  0  0  0
  -25.7710  -15.4530   20.1080 N   0  0  0  0  0  0  0  0  0  0  0  0
  -25.0420  -16.1470   20.2240 H   0  0  0  0  0  0  0  0  0  0  0  0
  -26.6380  -15.8420   19.7590 H   0  0  0  0  0  0  0  0  0  0  0  0
  2  7  1  0
  2  1  1  0
  3 49  1  0
  3  1  2  0
  4  6  1  0
  5  2  2  0
  6  5  1  0
  6  3  1  0
  8 10  1  0
  8  7  1  0
  9 20  2  0
 10 15  1  0
 11 19  1  0
 11 21  1  0
 12 18  1  0
 12 14  1  0
 13 19  1  0
 14 13  1  0
 15 14  2  0
 16 17  1  0
 16 10  2  0
 17 12  2  0
 18 11  1  0
 19  9  1  0
 21 23  2  0
 22 21  1  0
 24 22  1  0
 25 34  2  0
 25 30  1  0
 26 22  1  0
 26 30  1  0
 27 26  1  0
 28 29  1  0
 28 27  1  0
 29 25  1  0
 30 31  2  0
 31 32  1  0
 33 32  2  0
 34 33  1  0
 35  9  1  0
 35 36  1  0
 35 45  1  0
 36 39  1  0
 37 41  1  0
 37 36  1  0
 38 37  2  0
 41 40  1  0
 43 41  1  0
 43 44  1  0
 43 42  1  0
 45 48  1  1
 45 46  1  0
 47 45  1  0
 49 51  1  0
 51 50  1  0
 51 52  1  6
 53 51  1  0
 55 53  1  0
 55 56  1  0
 55 54  1  0
 56 65  1  0
 56 54  1  0
 57 65  1  0
 58 63  1  0
 59 60  1  0
 59 58  1  0
 61 60  1  0
 61 70  1  0
 61 62  1  0
 63 57  1  0
 63 62  1  0
 64 57  2  0
 65 66  1  0
 67 68  2  0
 68 87  1  0
 69 68  1  0
 69 72  1  0
 70 67  1  0
 70 71  1  0
 71 69  2  0
 72 73  1  0
 73 74  2  0
 75 78  1  0
 75 74  1  0
 76 75  2  0
 77 76  1  0
 77 72  2  0
 78 79  1  0
 79 80  1  0
 80 81  2  0
 82 81  1  0
 82 86  1  0
 83 82  2  0
 84 79  2  0
 84 83  1  0
 85 84  1  0
 87 88  1  0
 88 91  1  0
 88 90  1  0
 89 87  2  0
 92 93  1  0
 92 67  1  0
 94 92  1  0
M  ISO  4   7 101   8 101  57 100  65 100
M  END
>  <TORSDO>  (45) 
F 21

>  <SCORE>  (45) 
-12.773

>  <name>  (45) 
44

>  <ligand_id>  (45) 
44

>  <original_smiles>  (45) 
[H]c1c([H])c([H])c2c(c1[H])C([H])([H])C([H])([H])C([H])([H])C2([H])N([H])C(=O)C1([H])N(C(=O)C([H])(N([H])C(=O)C([H])(N([H])C([H])([H])[H])C([H])([H])[H])C(C([H])([H])[H])(C([H])([H])[H])C([H])([H])[H])C([H])([H])c2c([H])c(OC([H])([H])c3nn(C([H])([H])[H])c(C([H])([H])[N+]([H])(C([H])([H])[H])C([H])([H])C4([H])C([H])([H])C4([H])N([H])C(=O)N4C([H])([H])C([H])([H])C([H])([H])C([H])(n5nc(-c6c([H])c([H])c(Oc7c([H])c([H])c(F)c([H])c7F)c([H])c6[H])c(C(=O)N([H])[H])c5N([H])[H])C4([H])[H])c3[H])c([H])c([H])c2C1([H])[H]

>  <smiles>  (45) 
[H]c1c([H])c([H])c2c(c1[H])C([H])([H])C([H])([H])C([H])([H])C2([H])N([H])C(=O)C1([H])N(C(=O)C([H])(N([H])C(=O)C([H])(N([H])C([H])([H])[H])C([H])([H])[H])C(C([H])([H])[H])(C([H])([H])[H])C([H])([H])[H])C([H])([H])c2c([H])c(OC([H])([H])c3nn(C([H])([H])[H])c(C([H])([H])[N+]([H])(C([H])([H])[H])C([H])([H])C4([H])C([H])([H])C4([H])N([H])C(=O)N4C([H])([H])C([H])([H])C([H])([H])C([H])(n5nc(-c6c([H])c([H])c(Oc7c([H])c([H])c(F)c([H])c7F)c([H])c6[H])c(C(=O)N([H])[H])c5N([H])[H])C4([H])[H])c3[H])c([H])c([H])c2C1([H])[H]

$$$$
45:0:0
     RDKit          3D

 94103  0  0  1  0  0  0  0  0999 V2000
  -28.4810  -22.7690   18.3390 C   0  0  0  0  0  0  0  0  0  0  0  0
  -28.4340  -24.0260   17.6980 C   0  0  0  0  0  0  0  0  0  0  0  0
  -28.6100  -22.7410   19.7530 C   0  0  0  0  0  3  0  0  0  0  0  0
  -28.3630  -25.1480   19.6970 C   0  0  0  0  0  0  0  0  0  0  0  0
  -28.3310  -21.5090   17.4850 C   0  0  0  0  0  1  0  0  0  0  0  0
  -28.4130  -24.1730   16.1870 C   0  0  0  0  0  1  0  0  0  0  0  0
  -28.3780  -25.1830   18.3730 N   0  0  0  0  0  0  0  0  0  0  0  0
  -28.5350  -23.9790   20.4060 N   0  0  0  0  0  0  0  0  0  0  0  0
  -28.3250  -26.4150   20.3080 O   0  0  0  0  0  0  0  0  0  0  0  0
  -24.5950  -31.9300   23.2380 C   0  0  0  0  0  0  0  0  0  0  0  0
  -27.2210  -27.3110   20.1910 C   0  0  0  0  0  0  0  0  0  0  0  0
  -23.4010  -30.5280   21.5950 C   0  0  0  0  0  3  0  0  0  0  0  0
  -24.8570  -28.9710   20.1720 C   0  0  0  0  0  0  0  0  0  0  0  0
  -25.9440  -30.8360   21.4200 C   0  0  0  0  0  2  0  0  0  0  0  0
  -26.0280  -29.4490   20.7730 C   0  0  0  0  0  0  0  0  0  0  0  0
  -27.2060  -28.6300   20.7740 C   0  0  0  0  0  3  0  0  0  0  0  0
  -26.0140  -26.9030   19.5740 C   0  0  0  0  0  3  0  0  0  0  0  0
  -24.8560  -27.7080   19.5630 C   0  0  0  0  0  3  0  0  0  0  0  0
  -23.6220  -29.8520   20.2160 C   0  0  0  0  0  2  0  0  0  0  0  0
  -24.6660  -31.1180   22.1410 N   0  0  0  0  0  0  0  0  0  0  0  0
  -23.5080  -32.2060   23.7680 O   0  0  0  0  0  0  0  0  0  0  0  0
  -22.7340  -29.5150   22.5570 C   0  0  0  0  0  0  0  0  0  0  0  0
  -21.4100  -29.3250   22.4190 N   0  0  0  0  0  0  0  0  0  0  0  0
  -23.4070  -28.9000   23.3880 O   0  0  0  0  0  0  0  0  0  0  0  0
  -20.9240  -29.8750   21.7250 H   0  0  0  0  0  0  0  0  0  0  0  0
  -18.0400  -28.0860   22.8820 C   0  0  0  0  0  0  0  0  0  0  0  0
  -20.5910  -28.3850   23.1870 C   0  0  0  0  0  3  0  0  0  0  0  0
  -20.7190  -26.9480   22.6290 C   0  0  0  0  0  2  0  0  0  0  0  0
  -19.6370  -26.6010   21.6010 C   0  0  0  0  0  2  0  0  0  0  0  0
  -18.2440  -26.7330   22.2210 C   0  0  0  0  0  2  0  0  0  0  0  0
  -19.1410  -28.8690   23.3200 C   0  0  0  0  0  0  0  0  0  0  0  0
  -18.8970  -30.1330   23.8980 C   0  0  0  0  0  3  0  0  0  0  0  0
  -17.5820  -30.6170   24.0410 C   0  0  0  0  0  3  0  0  0  0  0  0
  -16.4960  -29.8350   23.6150 C   0  0  0  0  0  3  0  0  0  0  0  0
  -16.7240  -28.5700   23.0430 C   0  0  0  0  0  3  0  0  0  0  0  0
  -25.8720  -32.5690   23.8650 C   0  0  0  0  0  3  0  0  0  0  0  0
  -25.5570  -33.9680   24.1880 N   0  0  0  0  0  0  0  0  0  0  0  0
  -25.8900  -35.0220   23.4290 C   0  0  0  0  0  0  0  0  0  0  0  0
  -26.5640  -34.9170   22.4000 O   0  0  0  0  0  0  0  0  0  0  0  0
  -24.9570  -34.1220   24.9850 H   0  0  0  0  0  0  0  0  0  0  0  0
  -24.1680  -36.8200   23.0610 C   0  0  0  0  0  1  0  0  0  0  0  0
  -25.4000  -36.4100   23.8840 C   0  0  0  0  0  3  0  0  0  0  0  0
  -27.5250  -37.2970   24.7390 C   0  0  0  0  0  1  0  0  0  0  0  0
  -26.4340  -37.4630   23.7820 N   0  0  0  0  0  0  0  0  0  0  0  0
  -26.0250  -38.3830   23.9260 H   0  0  0  0  0  0  0  0  0  0  0  0
  -26.3820  -31.8040   25.1470 C   0  0  1  0  0  0  0  0  0  0  0  0
  -25.2820  -31.5700   26.2100 C   0  0  0  0  0  1  0  0  0  0  0  0
  -26.9680  -30.4250   24.7660 C   0  0  0  0  0  1  0  0  0  0  0  0
  -27.5270  -32.6020   25.8140 C   0  0  0  0  0  1  0  0  0  0  0  0
  -28.6180  -21.3290   20.5520 C   0  0  0  0  0  2  0  0  0  0  0  0
  -30.7320  -20.4270   19.3840 C   0  0  0  0  0  1  0  0  0  0  0  0
  -29.7250  -20.2320   20.4520 N   0  0  2  0  0  4  0  0  0  0  0  0
  -30.2590  -20.4800   21.2700 H   0  0  0  0  0  0  0  0  0  0  0  0
  -30.6080  -14.9580   20.4000 C   0  0  0  0  0  0  0  0  0  0  0  0
  -30.4060  -12.6640   19.3910 C   0  0  0  0  0  2  0  0  0  0  0  0
  -29.4680  -12.6810   18.1650 C   0  0  0  0  0  2  0  0  0  0  0  0
  -28.0070  -12.4420   18.5960 C   0  0  0  0  0  2  0  0  0  0  0  0
  -27.6050  -13.3190   19.8090 C   0  0  0  0  0  3  0  0  0  0  0  0
  -28.6780  -13.3340   20.9250 C   0  0  0  0  0  2  0  0  0  0  0  0
  -29.9470  -13.7400   20.3030 N   0  0  0  0  0  0  0  0  0  0  0  0
  -31.8270  -14.9650   20.2140 O   0  0  0  0  0  0  0  0  0  0  0  0
  -28.4140  -18.0470   19.7520 C   0  0  0  0  0  2  0  0  0  0  0  0
  -28.6010  -16.5120   19.9600 C   0  0  0  0  0  2  0  0  0  0  0  0
  -30.5160  -17.5810   20.7440 C   0  0  0  0  0  2  0  0  0  0  0  0
  -29.3820  -18.7290   20.7140 C   0  0  0  0  0  3  0  0  0  0  0  0
  -29.9240  -16.1930   20.5260 N   0  0  0  0  0  0  0  0  0  0  0  0
  -25.2240  -13.9020   20.5400 C   0  0  0  0  0  0  0  0  0  0  0  0
  -24.1660  -13.1210   20.9080 C   0  0  0  0  0  0  0  0  0  0  0  0
  -24.6420  -11.7760   20.8780 C   0  0  0  0  0  0  0  0  0  0  0  0
  -26.2750  -13.0260   20.3110 N   0  0  0  0  0  0  0  0  0  0  0  0
  -25.9330  -11.7440   20.5760 N   0  0  0  0  0  0  0  0  0  0  0  0
  -23.9270  -10.5100   21.0560 C   0  0  0  0  0  0  0  0  0  0  0  0
  -24.3550   -9.5480   21.9960 C   0  0  0  0  0  3  0  0  0  0  0  0
  -23.6400   -8.3430   22.1600 C   0  0  0  0  0  3  0  0  0  0  0  0
  -22.4840   -8.0950   21.3840 C   0  0  0  0  0  0  0  0  0  0  0  0
  -22.0750   -9.0460   20.4310 C   0  0  0  0  0  3  0  0  0  0  0  0
  -22.7920  -10.2420   20.2650 C   0  0  0  0  0  3  0  0  0  0  0  0
  -21.7370   -6.9450   21.4620 O   0  0  0  0  0  0  0  0  0  0  0  0
  -21.6670   -6.2120   22.6190 C   0  0  0  0  0  0  0  0  0  0  0  0
  -21.1800   -6.7660   23.8240 C   0  0  0  0  0  3  0  0  0  0  0  0
  -21.0610   -5.9570   24.9710 C   0  0  0  0  0  3  0  0  0  0  0  0
  -21.4170   -4.5950   24.9140 C   0  0  0  0  0  0  0  0  0  0  0  0
  -21.8980   -4.0430   23.7140 C   0  0  0  0  0  3  0  0  0  0  0  0
  -22.0190   -4.8490   22.5690 C   0  0  0  0  0  0  0  0  0  0  0  0
  -22.4630   -4.3070   21.4090 F   0  0  0  0  0  0  0  0  0  0  0  0
  -21.2940   -3.8150   26.0140 F   0  0  0  0  0  0  0  0  0  0  0  0
  -22.7640  -13.5900   21.1660 C   0  0  0  0  0  0  0  0  0  0  0  0
  -22.0340  -12.8880   22.0240 N   0  0  0  0  0  0  0  0  0  0  0  0
  -22.3260  -14.6160   20.6470 O   0  0  0  0  0  0  0  0  0  0  0  0
  -22.4030  -12.0580   22.4640 H   0  0  0  0  0  0  0  0  0  0  0  0
  -21.0940  -13.1830   22.2420 H   0  0  0  0  0  0  0  0  0  0  0  0
  -25.3620  -15.2730   20.3490 N   0  0  0  0  0  0  0  0  0  0  0  0
  -24.5660  -15.8980   20.4300 H   0  0  0  0  0  0  0  0  0  0  0  0
  -26.1770  -15.7130   19.9460 H   0  0  0  0  0  0  0  0  0  0  0  0
  1  3  1  0
  2  1  2  0
  2  7  1  0
  3  8  1  0
  3 50  1  0
  4  9  1  0
  4  8  2  0
  5  1  1  0
  6  2  1  0
  7  4  2  0
 10 21  2  0
 11  9  1  0
 11 16  1  0
 12 20  1  0
 12 22  1  0
 13 19  1  0
 13 15  1  0
 14 20  1  0
 15 16  2  0
 15 14  1  0
 17 11  2  0
 18 17  1  0
 18 13  2  0
 19 12  1  0
 20 10  1  0
 22 24  2  0
 23 22  1  0
 25 23  1  0
 26 35  2  0
 26 31  1  0
 27 23  1  0
 27 31  1  0
 28 27  1  0
 29 30  1  0
 29 28  1  0
 30 26  1  0
 31 32  2  0
 32 33  1  0
 34 33  2  0
 35 34  1  0
 36 10  1  0
 36 37  1  0
 36 46  1  0
 37 40  1  0
 38 42  1  0
 38 37  1  0
 39 38  2  0
 42 41  1  0
 44 42  1  0
 44 45  1  0
 44 43  1  0
 46 49  1  1
 46 47  1  0
 48 46  1  0
 51 52  1  0
 52 50  1  0
 52 53  1  1
 54 66  1  0
 55 60  1  0
 56 57  1  0
 56 55  1  0
 58 57  1  0
 58 70  1  0
 58 59  1  0
 60 54  1  0
 60 59  1  0
 61 54  2  0
 62 63  1  0
 62 65  1  0
 63 66  1  0
 65 52  1  0
 65 64  1  0
 66 64  1  0
 67 68  2  0
 68 87  1  0
 69 68  1  0
 69 72  1  0
 70 67  1  0
 70 71  1  0
 71 69  2  0
 72 73  1  0
 73 74  2  0
 75 78  1  0
 75 74  1  0
 76 75  2  0
 77 76  1  0
 77 72  2  0
 78 79  1  0
 79 80  1  0
 80 81  2  0
 82 81  1  0
 82 86  1  0
 83 82  2  0
 84 79  2  0
 84 83  1  0
 85 84  1  0
 87 88  1  0
 88 91  1  0
 88 90  1  0
 89 87  2  0
 92 93  1  0
 92 67  1  0
 94 92  1  0
M  ISO  4   4 101   9 101  54 100  66 100
M  END
>  <TORSDO>  (46) 
F 18

>  <SCORE>  (46) 
-14.637

>  <name>  (46) 
45

>  <ligand_id>  (46) 
45

>  <original_smiles>  (46) 
[H]c1c([H])c([H])c2c(c1[H])C([H])([H])C([H])([H])C([H])([H])C2([H])N([H])C(=O)C1([H])N(C(=O)C([H])(N([H])C(=O)C([H])(N([H])C([H])([H])[H])C([H])([H])[H])C(C([H])([H])[H])(C([H])([H])[H])C([H])([H])[H])C([H])([H])c2c([H])c(Oc3nc(C([H])([H])[H])c(C([H])([H])[H])c(C([H])([H])[N+]([H])(C([H])([H])[H])C4([H])C([H])([H])N(C(=O)N5C([H])([H])C([H])([H])C([H])([H])C([H])(n6nc(-c7c([H])c([H])c(Oc8c([H])c([H])c(F)c([H])c8F)c([H])c7[H])c(C(=O)N([H])[H])c6N([H])[H])C5([H])[H])C([H])([H])C4([H])[H])n3)c([H])c([H])c2C1([H])[H]

>  <smiles>  (46) 
[H]c1c([H])c([H])c2c(c1[H])C([H])([H])C([H])([H])C([H])([H])C2([H])N([H])C(=O)C1([H])N(C(=O)C([H])(N([H])C(=O)C([H])(N([H])C([H])([H])[H])C([H])([H])[H])C(C([H])([H])[H])(C([H])([H])[H])C([H])([H])[H])C([H])([H])c2c([H])c(Oc3nc(C([H])([H])[H])c(C([H])([H])[H])c(C([H])([H])[N+]([H])(C([H])([H])[H])C4([H])C([H])([H])N(C(=O)N5C([H])([H])C([H])([H])C([H])([H])C([H])(n6nc(-c7c([H])c([H])c(Oc8c([H])c([H])c(F)c([H])c8F)c([H])c7[H])c(C(=O)N([H])[H])c6N([H])[H])C5([H])[H])C([H])([H])C4([H])[H])n3)c([H])c([H])c2C1([H])[H]

$$$$
46:0:0
     RDKit          3D

 90 99  0  0  1  0  0  0  0  0999 V2000
  -30.6820  -14.7510   20.3840 C   0  0  0  0  0  0  0  0  0  0  0  0
  -30.4140  -12.4860   19.3700 C   0  0  0  0  0  2  0  0  0  0  0  0
  -29.4980  -12.5750   18.1320 C   0  0  0  0  0  2  0  0  0  0  0  0
  -28.0200  -12.4330   18.5460 C   0  0  0  0  0  2  0  0  0  0  0  0
  -27.6470  -13.3340   19.7540 C   0  0  0  0  0  3  0  0  0  0  0  0
  -28.6900  -13.2480   20.8890 C   0  0  0  0  0  2  0  0  0  0  0  0
  -29.9960  -13.5600   20.3010 N   0  0  0  0  0  0  0  0  0  0  0  0
  -31.8840  -14.7750   20.1020 O   0  0  0  0  0  0  0  0  0  0  0  0
  -29.5080  -19.1080   18.1790 C   0  0  0  0  0  3  0  0  0  0  0  0
  -29.3480  -20.5090   18.2440 C   0  0  0  0  0  3  0  0  0  0  0  0
  -29.5760  -18.3480   19.3640 C   0  0  0  0  0  0  0  0  0  0  0  0
  -29.4740  -19.0730   20.5690 C   0  0  0  0  0  0  0  0  0  0  0  0
  -29.2430  -21.1870   19.4750 C   0  0  0  0  0  0  0  0  0  0  0  0
  -29.7390  -16.7850   19.2950 C   0  0  0  0  0  2  0  0  0  0  0  0
  -29.5330  -18.2060   21.8280 C   0  0  0  0  0  3  0  0  0  0  0  0
  -30.3310  -16.8480   21.6720 C   0  0  0  0  0  3  0  0  0  0  0  0
  -29.3060  -20.4590   20.6430 N   0  0  0  0  0  0  0  0  0  0  0  0
  -29.9860  -15.9570   20.5260 N   0  0  0  0  0  0  0  0  0  0  0  0
  -25.2600  -13.9630   20.4410 C   0  0  0  0  0  0  0  0  0  0  0  0
  -24.1780  -13.2080   20.8000 C   0  0  0  0  0  0  0  0  0  0  0  0
  -24.6230  -11.8500   20.7940 C   0  0  0  0  0  0  0  0  0  0  0  0
  -26.2950  -13.0680   20.2310 N   0  0  0  0  0  0  0  0  0  0  0  0
  -25.9180  -11.7920   20.5090 N   0  0  0  0  0  0  0  0  0  0  0  0
  -23.8760  -10.6000   20.9870 C   0  0  0  0  0  0  0  0  0  0  0  0
  -24.2900   -9.6290   21.9240 C   0  0  0  0  0  3  0  0  0  0  0  0
  -23.5440   -8.4450   22.1050 C   0  0  0  0  0  3  0  0  0  0  0  0
  -22.3690   -8.2220   21.3460 C   0  0  0  0  0  0  0  0  0  0  0  0
  -21.9750   -9.1810   20.3980 C   0  0  0  0  0  3  0  0  0  0  0  0
  -22.7220  -10.3570   20.2150 C   0  0  0  0  0  3  0  0  0  0  0  0
  -21.5950   -7.0910   21.4360 O   0  0  0  0  0  0  0  0  0  0  0  0
  -21.5390   -6.3450   22.5870 C   0  0  0  0  0  0  0  0  0  0  0  0
  -21.1270   -6.9050   23.8160 C   0  0  0  0  0  3  0  0  0  0  0  0
  -21.0180   -6.0870   24.9590 C   0  0  0  0  0  3  0  0  0  0  0  0
  -21.3100   -4.7120   24.8740 C   0  0  0  0  0  0  0  0  0  0  0  0
  -21.7150   -4.1530   23.6480 C   0  0  0  0  0  3  0  0  0  0  0  0
  -21.8260   -4.9680   22.5080 C   0  0  0  0  0  0  0  0  0  0  0  0
  -22.1960   -4.4210   21.3260 F   0  0  0  0  0  0  0  0  0  0  0  0
  -21.1970   -3.9260   25.9690 F   0  0  0  0  0  0  0  0  0  0  0  0
  -22.7820  -13.7080   21.0400 C   0  0  0  0  0  0  0  0  0  0  0  0
  -22.0300  -13.0320   21.9020 N   0  0  0  0  0  0  0  0  0  0  0  0
  -22.3680  -14.7320   20.4990 O   0  0  0  0  0  0  0  0  0  0  0  0
  -22.3770  -12.2040   22.3620 H   0  0  0  0  0  0  0  0  0  0  0  0
  -21.0930  -13.3490   22.1050 H   0  0  0  0  0  0  0  0  0  0  0  0
  -25.4470  -15.3290   20.2530 N   0  0  0  0  0  0  0  0  0  0  0  0
  -24.6910  -15.9980   20.3520 H   0  0  0  0  0  0  0  0  0  0  0  0
  -26.3170  -15.7560   19.9620 H   0  0  0  0  0  0  0  0  0  0  0  0
  -29.1040  -22.6020   19.3560 O   0  0  0  0  0  0  0  0  0  0  0  0
  -28.8160  -23.6710   20.3350 C   0  0  0  0  0  2  0  0  0  0  0  0
  -28.6440  -25.1090   19.5930 C   0  0  0  0  0  2  0  0  0  0  0  0
  -28.5240  -26.4540   20.2570 O   0  0  0  0  0  0  0  0  0  0  0  0
  -24.6810  -31.8500   23.2050 C   0  0  0  0  0  0  0  0  0  0  0  0
  -27.3880  -27.2940   20.1660 C   0  0  0  0  0  0  0  0  0  0  0  0
  -23.5190  -30.4390   21.5480 C   0  0  0  0  0  3  0  0  0  0  0  0
  -25.0050  -28.9090   20.1330 C   0  0  0  0  0  0  0  0  0  0  0  0
  -26.0590  -30.7810   21.3990 C   0  0  0  0  0  2  0  0  0  0  0  0
  -26.1630  -29.4020   20.7470 C   0  0  0  0  0  0  0  0  0  0  0  0
  -27.3520  -28.6050   20.7540 C   0  0  0  0  0  3  0  0  0  0  0  0
  -26.1960  -26.8620   19.5400 C   0  0  0  0  0  3  0  0  0  0  0  0
  -25.0270  -27.6470   19.5220 C   0  0  0  0  0  3  0  0  0  0  0  0
  -23.7580  -29.7710   20.1690 C   0  0  0  0  0  2  0  0  0  0  0  0
  -24.7720  -31.0420   22.1070 N   0  0  0  0  0  0  0  0  0  0  0  0
  -23.5880  -32.1110   23.7260 O   0  0  0  0  0  0  0  0  0  0  0  0
  -22.8570  -29.4120   22.4980 C   0  0  0  0  0  0  0  0  0  0  0  0
  -21.5290  -29.2400   22.3770 N   0  0  0  0  0  0  0  0  0  0  0  0
  -23.5370  -28.7730   23.3050 O   0  0  0  0  0  0  0  0  0  0  0  0
  -21.0380  -29.8070   21.6990 H   0  0  0  0  0  0  0  0  0  0  0  0
  -18.1470  -28.0630   22.8970 C   0  0  0  0  0  0  0  0  0  0  0  0
  -20.7110  -28.2950   23.1390 C   0  0  0  0  0  3  0  0  0  0  0  0
  -20.7930  -26.8750   22.5340 C   0  0  0  0  0  2  0  0  0  0  0  0
  -19.6740  -26.5810   21.5280 C   0  0  0  0  0  2  0  0  0  0  0  0
  -18.3020  -26.7260   22.1920 C   0  0  0  0  0  2  0  0  0  0  0  0
  -19.2780  -28.8070   23.3280 C   0  0  0  0  0  0  0  0  0  0  0  0
  -19.0770  -30.0590   23.9480 C   0  0  0  0  0  3  0  0  0  0  0  0
  -17.7790  -30.5680   24.1420 C   0  0  0  0  0  3  0  0  0  0  0  0
  -16.6630  -29.8210   23.7270 C   0  0  0  0  0  3  0  0  0  0  0  0
  -16.8480  -28.5700   23.1110 C   0  0  0  0  0  3  0  0  0  0  0  0
  -25.9460  -32.5000   23.8440 C   0  0  0  0  0  3  0  0  0  0  0  0
  -25.6100  -33.8920   24.1770 N   0  0  0  0  0  0  0  0  0  0  0  0
  -25.9300  -34.9550   23.4240 C   0  0  0  0  0  0  0  0  0  0  0  0
  -26.6060  -34.8650   22.3960 O   0  0  0  0  0  0  0  0  0  0  0  0
  -25.0090  -34.0330   24.9750 H   0  0  0  0  0  0  0  0  0  0  0  0
  -24.1720  -36.7200   23.0720 C   0  0  0  0  0  1  0  0  0  0  0  0
  -25.4180  -36.3340   23.8840 C   0  0  0  0  0  3  0  0  0  0  0  0
  -27.5340  -37.2540   24.7240 C   0  0  0  0  0  1  0  0  0  0  0  0
  -26.4340  -37.4030   23.7750 N   0  0  0  0  0  0  0  0  0  0  0  0
  -26.0130  -38.3170   23.9200 H   0  0  0  0  0  0  0  0  0  0  0  0
  -26.4580  -31.7340   25.1270 C   0  0  1  0  0  0  0  0  0  0  0  0
  -25.3550  -31.4810   26.1820 C   0  0  0  0  0  1  0  0  0  0  0  0
  -27.0620  -30.3630   24.7420 C   0  0  0  0  0  1  0  0  0  0  0  0
  -27.5910  -32.5420   25.8020 C   0  0  0  0  0  1  0  0  0  0  0  0
  1 18  1  0
  2  7  1  0
  3  4  1  0
  3  2  1  0
  5  4  1  0
  5 22  1  0
  5  6  1  0
  7  1  1  0
  7  6  1  0
  8  1  2  0
  9 10  2  0
  9 11  1  0
 10 13  1  0
 11 12  2  0
 12 17  1  0
 12 15  1  0
 13 17  2  0
 14 11  1  0
 14 18  1  0
 16 15  2  0
 18 16  1  0
 19 20  2  0
 20 39  1  0
 21 20  1  0
 21 24  1  0
 22 19  1  0
 22 23  1  0
 23 21  2  0
 24 25  1  0
 25 26  2  0
 27 30  1  0
 27 26  1  0
 28 27  2  0
 29 28  1  0
 29 24  2  0
 30 31  1  0
 31 32  1  0
 32 33  2  0
 34 33  1  0
 34 38  1  0
 35 34  2  0
 36 31  2  0
 36 35  1  0
 37 36  1  0
 39 40  1  0
 40 43  1  0
 40 42  1  0
 41 39  2  0
 44 45  1  0
 44 19  1  0
 46 44  1  0
 47 13  1  0
 47 48  1  0
 49 50  1  0
 49 48  1  0
 51 62  2  0
 52 50  1  0
 52 57  1  0
 53 61  1  0
 53 63  1  0
 54 60  1  0
 54 56  1  0
 55 61  1  0
 56 57  2  0
 56 55  1  0
 58 52  2  0
 59 58  1  0
 59 54  2  0
 60 53  1  0
 61 51  1  0
 63 65  2  0
 64 63  1  0
 66 64  1  0
 67 76  2  0
 67 72  1  0
 68 64  1  0
 68 72  1  0
 69 68  1  0
 70 71  1  0
 70 69  1  0
 71 67  1  0
 72 73  2  0
 73 74  1  0
 75 74  2  0
 76 75  1  0
 77 51  1  0
 77 78  1  0
 77 87  1  0
 78 81  1  0
 79 83  1  0
 79 78  1  0
 80 79  2  0
 83 82  1  0
 85 83  1  0
 85 86  1  0
 85 84  1  0
 87 90  1  1
 87 88  1  0
 89 87  1  0
M  ISO  4   1 100  18 100  49 101  50 101
M  END
>  <TORSDO>  (47) 
F 18

>  <SCORE>  (47) 
-14.102

>  <name>  (47) 
46

>  <ligand_id>  (47) 
46

>  <original_smiles>  (47) 
[H]c1c(OC([H])([H])C([H])([H])Oc2c([H])c([H])c3c(c2[H])C([H])([H])N(C(=O)C([H])(N([H])C(=O)C([H])(N([H])C([H])([H])[H])C([H])([H])[H])C(C([H])([H])[H])(C([H])([H])[H])C([H])([H])[H])C([H])(C(=O)N([H])C2([H])c4c([H])c([H])c([H])c([H])c4C([H])([H])C([H])([H])C2([H])[H])C3([H])[H])nc2c(c1[H])C([H])([H])N(C(=O)N1C([H])([H])C([H])([H])C([H])([H])C([H])(n3nc(-c4c([H])c([H])c(Oc5c([H])c([H])c(F)c([H])c5F)c([H])c4[H])c(C(=O)N([H])[H])c3N([H])[H])C1([H])[H])C([H])([H])C2([H])[H]

>  <smiles>  (47) 
[H]c1c(OC([H])([H])C([H])([H])Oc2c([H])c([H])c3c(c2[H])C([H])([H])N(C(=O)C([H])(N([H])C(=O)C([H])(N([H])C([H])([H])[H])C([H])([H])[H])C(C([H])([H])[H])(C([H])([H])[H])C([H])([H])[H])C([H])(C(=O)N([H])C2([H])c4c([H])c([H])c([H])c([H])c4C([H])([H])C([H])([H])C2([H])[H])C3([H])[H])nc2c(c1[H])C([H])([H])N(C(=O)N1C([H])([H])C([H])([H])C([H])([H])C([H])(n3nc(-c4c([H])c([H])c(Oc5c([H])c([H])c(F)c([H])c5F)c([H])c4[H])c(C(=O)N([H])[H])c3N([H])[H])C1([H])[H])C([H])([H])C2([H])[H]

$$$$
47:0:0
     RDKit          3D

 94104  0  0  1  0  0  0  0  0999 V2000
  -27.5320  -23.5160   18.4260 C   0  0  0  0  0  3  0  0  0  0  0  0
  -28.8830  -22.6720   19.9890 C   0  0  0  0  0  0  0  0  0  0  0  0
  -28.2800  -24.9870   19.9480 C   0  0  0  0  0  0  0  0  0  0  0  0
  -28.1480  -22.4420   18.9210 N   0  0  0  0  0  0  0  0  0  0  0  0
  -27.5830  -24.7780   18.8400 N   0  0  0  0  0  0  0  0  0  0  0  0
  -28.9910  -23.9420   20.5530 N   0  0  0  0  0  0  0  0  0  0  0  0
  -29.5540  -21.4560   20.5050 N   0  0  0  0  0  0  0  0  0  0  0  0
  -30.1020  -21.6520   21.3340 H   0  0  0  0  0  0  0  0  0  0  0  0
  -31.0160  -15.2860   20.3520 C   0  0  0  0  0  0  0  0  0  0  0  0
  -30.7910  -12.9270   19.4500 C   0  0  0  0  0  2  0  0  0  0  0  0
  -29.8960  -12.8570   18.1960 C   0  0  0  0  0  2  0  0  0  0  0  0
  -28.4230  -12.6800   18.6050 C   0  0  0  0  0  2  0  0  0  0  0  0
  -28.0040  -13.6360   19.7520 C   0  0  0  0  0  3  0  0  0  0  0  0
  -29.0390  -13.6920   20.8950 C   0  0  0  0  0  2  0  0  0  0  0  0
  -30.3120  -14.0810   20.2770 N   0  0  0  0  0  0  0  0  0  0  0  0
  -32.2350  -15.1730   20.1700 O   0  0  0  0  0  0  0  0  0  0  0  0
  -28.9580  -18.8150   20.9530 C   0  0  0  0  0  2  0  0  0  0  0  0
  -31.0600  -19.2830   19.9840 C   0  0  0  0  0  2  0  0  0  0  0  0
  -29.1100  -17.2190   20.6050 C   0  0  0  0  0  2  0  0  0  0  0  0
  -31.1900  -17.7380   19.5330 C   0  0  0  0  0  2  0  0  0  0  0  0
  -29.6350  -19.9470   20.0480 C   0  0  0  0  0  3  0  0  0  0  0  0
  -30.4500  -16.6170   20.2450 N   0  0  0  0  0  0  0  0  0  0  0  0
  -25.6380  -14.2570   20.4870 C   0  0  0  0  0  0  0  0  0  0  0  0
  -24.5460  -13.5040   20.8150 C   0  0  0  0  0  0  0  0  0  0  0  0
  -24.9710  -12.1410   20.7490 C   0  0  0  0  0  0  0  0  0  0  0  0
  -26.6570  -13.3560   20.2320 N   0  0  0  0  0  0  0  0  0  0  0  0
  -26.2650  -12.0750   20.4570 N   0  0  0  0  0  0  0  0  0  0  0  0
  -24.2020  -10.8960   20.8850 C   0  0  0  0  0  0  0  0  0  0  0  0
  -24.5680   -9.8980   21.8160 C   0  0  0  0  0  3  0  0  0  0  0  0
  -23.8000   -8.7210   21.9440 C   0  0  0  0  0  3  0  0  0  0  0  0
  -22.6500   -8.5340   21.1410 C   0  0  0  0  0  0  0  0  0  0  0  0
  -22.3020   -9.5190   20.2000 C   0  0  0  0  0  3  0  0  0  0  0  0
  -23.0710  -10.6880   20.0700 C   0  0  0  0  0  3  0  0  0  0  0  0
  -21.8590   -7.4100   21.1780 O   0  0  0  0  0  0  0  0  0  0  0  0
  -21.6860   -6.6890   22.3310 C   0  0  0  0  0  0  0  0  0  0  0  0
  -21.1070   -7.2590   23.4870 C   0  0  0  0  0  3  0  0  0  0  0  0
  -20.8830   -6.4650   24.6280 C   0  0  0  0  0  3  0  0  0  0  0  0
  -21.2280   -5.1000   24.6150 C   0  0  0  0  0  0  0  0  0  0  0  0
  -21.7990   -4.5290   23.4640 C   0  0  0  0  0  3  0  0  0  0  0  0
  -22.0230   -5.3210   22.3250 C   0  0  0  0  0  0  0  0  0  0  0  0
  -22.5540   -4.7600   21.2120 F   0  0  0  0  0  0  0  0  0  0  0  0
  -21.0060   -4.3340   25.7090 F   0  0  0  0  0  0  0  0  0  0  0  0
  -23.1600  -14.0160   21.0750 C   0  0  0  0  0  0  0  0  0  0  0  0
  -22.4040  -13.3370   21.9300 N   0  0  0  0  0  0  0  0  0  0  0  0
  -22.7560  -15.0570   20.5570 O   0  0  0  0  0  0  0  0  0  0  0  0
  -22.7420  -12.4950   22.3720 H   0  0  0  0  0  0  0  0  0  0  0  0
  -21.4750  -13.6660   22.1460 H   0  0  0  0  0  0  0  0  0  0  0  0
  -25.8450  -15.6270   20.3550 N   0  0  0  0  0  0  0  0  0  0  0  0
  -25.0990  -16.3020   20.4820 H   0  0  0  0  0  0  0  0  0  0  0  0
  -26.7140  -16.0470   20.0560 H   0  0  0  0  0  0  0  0  0  0  0  0
  -25.2770  -23.8530   17.1360 C   0  0  0  0  0  2  0  0  0  0  0  0
  -25.4590  -22.3720   17.3000 C   0  0  0  0  0  2  0  0  0  0  0  0
  -26.6760  -23.2710   17.2210 C   0  0  0  0  0  3  0  0  0  0  0  0
  -28.3810  -26.3770   20.3440 O   0  0  0  0  0  0  0  0  0  0  0  0
  -24.7310  -31.9810   23.4890 C   0  0  0  0  0  0  0  0  0  0  0  0
  -27.3220  -27.3720   20.2690 C   0  0  0  0  0  0  0  0  0  0  0  0
  -23.5440  -30.6550   21.7880 C   0  0  0  0  0  3  0  0  0  0  0  0
  -24.9980  -29.1440   20.3070 C   0  0  0  0  0  0  0  0  0  0  0  0
  -26.1030  -30.9180   21.6520 C   0  0  0  0  0  2  0  0  0  0  0  0
  -26.1780  -29.5550   20.9380 C   0  0  0  0  0  0  0  0  0  0  0  0
  -27.3370  -28.6860   20.9050 C   0  0  0  0  0  3  0  0  0  0  0  0
  -26.0990  -27.0720   19.6190 C   0  0  0  0  0  3  0  0  0  0  0  0
  -24.9730  -27.9170   19.6340 C   0  0  0  0  0  3  0  0  0  0  0  0
  -23.7730  -30.0420   20.3830 C   0  0  0  0  0  2  0  0  0  0  0  0
  -24.8140  -31.2040   22.3650 N   0  0  0  0  0  0  0  0  0  0  0  0
  -23.6400  -32.2450   24.0180 O   0  0  0  0  0  0  0  0  0  0  0  0
  -22.8600  -29.6070   22.7010 C   0  0  0  0  0  0  0  0  0  0  0  0
  -21.5420  -29.4010   22.5210 N   0  0  0  0  0  0  0  0  0  0  0  0
  -23.5180  -28.9820   23.5370 O   0  0  0  0  0  0  0  0  0  0  0  0
  -21.0670  -29.9590   21.8260 H   0  0  0  0  0  0  0  0  0  0  0  0
  -18.1870  -28.0680   22.8460 C   0  0  0  0  0  0  0  0  0  0  0  0
  -20.7200  -28.4250   23.2420 C   0  0  0  0  0  3  0  0  0  0  0  0
  -20.9030  -27.0030   22.6640 C   0  0  0  0  0  2  0  0  0  0  0  0
  -19.8650  -26.6470   21.5940 C   0  0  0  0  0  2  0  0  0  0  0  0
  -18.4490  -26.7330   22.1690 C   0  0  0  0  0  2  0  0  0  0  0  0
  -19.2530  -28.8690   23.3370 C   0  0  0  0  0  0  0  0  0  0  0  0
  -18.9550  -30.1150   23.9290 C   0  0  0  0  0  3  0  0  0  0  0  0
  -17.6240  -30.5610   24.0360 C   0  0  0  0  0  3  0  0  0  0  0  0
  -16.5720  -29.7590   23.5610 C   0  0  0  0  0  3  0  0  0  0  0  0
  -16.8550  -28.5140   22.9720 C   0  0  0  0  0  3  0  0  0  0  0  0
  -26.0020  -32.5940   24.1500 C   0  0  0  0  0  3  0  0  0  0  0  0
  -25.6900  -33.9850   24.5160 N   0  0  0  0  0  0  0  0  0  0  0  0
  -25.9480  -35.0550   23.7500 C   0  0  0  0  0  0  0  0  0  0  0  0
  -26.5400  -34.9730   22.6700 O   0  0  0  0  0  0  0  0  0  0  0  0
  -25.1520  -34.1190   25.3600 H   0  0  0  0  0  0  0  0  0  0  0  0
  -24.1370  -36.7970   23.5970 C   0  0  0  0  0  1  0  0  0  0  0  0
  -25.4750  -36.4310   24.2590 C   0  0  0  0  0  3  0  0  0  0  0  0
  -27.6530  -37.3980   24.8540 C   0  0  0  0  0  1  0  0  0  0  0  0
  -26.4560  -37.5140   24.0260 N   0  0  0  0  0  0  0  0  0  0  0  0
  -26.0370  -38.4230   24.2000 H   0  0  0  0  0  0  0  0  0  0  0  0
  -26.4880  -31.7900   25.4190 C   0  0  1  0  0  0  0  0  0  0  0  0
  -25.3650  -31.4990   26.4410 C   0  0  0  0  0  1  0  0  0  0  0  0
  -27.1080  -30.4350   25.0070 C   0  0  0  0  0  1  0  0  0  0  0  0
  -27.6010  -32.5810   26.1450 C   0  0  0  0  0  1  0  0  0  0  0  0
  1 53  1  0
  1  5  1  0
  1  4  1  0
  2  7  1  0
  2  6  1  0
  3 54  1  0
  3  6  2  0
  4  2  2  0
  5  3  2  0
  7  8  1  0
 10 15  1  0
 11 12  1  0
 11 10  1  0
 13 12  1  0
 13 26  1  0
 13 14  1  0
 15  9  1  0
 15 14  1  0
 16  9  2  0
 18 21  1  0
 19 17  1  0
 20 18  1  0
 20 22  1  0
 21  7  1  0
 21 17  1  0
 22  9  1  0
 22 19  1  0
 23 24  2  0
 24 43  1  0
 25 24  1  0
 25 28  1  0
 26 27  1  0
 26 23  1  0
 27 25  2  0
 28 29  1  0
 29 30  2  0
 31 34  1  0
 31 30  1  0
 32 31  2  0
 33 32  1  0
 33 28  2  0
 34 35  1  0
 35 36  1  0
 36 37  2  0
 38 37  1  0
 38 42  1  0
 39 38  2  0
 40 35  2  0
 40 39  1  0
 41 40  1  0
 43 44  1  0
 44 47  1  0
 44 46  1  0
 45 43  2  0
 48 49  1  0
 48 23  1  0
 50 48  1  0
 51 53  1  0
 51 52  1  0
 53 52  1  0
 55 66  2  0
 56 54  1  0
 56 61  1  0
 57 65  1  0
 57 67  1  0
 58 64  1  0
 58 60  1  0
 59 65  1  0
 60 59  1  0
 61 60  2  0
 62 63  1  0
 62 56  2  0
 63 58  2  0
 64 57  1  0
 65 55  1  0
 67 69  2  0
 68 67  1  0
 70 68  1  0
 71 80  2  0
 71 76  1  0
 72 68  1  0
 72 76  1  0
 73 72  1  0
 74 75  1  0
 74 73  1  0
 75 71  1  0
 76 77  2  0
 77 78  1  0
 79 78  2  0
 80 79  1  0
 81 55  1  0
 81 82  1  0
 81 91  1  0
 82 85  1  0
 83 87  1  0
 83 82  1  0
 84 83  2  0
 87 86  1  0
 89 90  1  0
 89 87  1  0
 89 88  1  0
 91 94  1  1
 91 92  1  0
 93 91  1  0
M  ISO  4   3 101   9 100  22 100  54 101
M  END
>  <TORSDO>  (48) 
F 17

>  <SCORE>  (48) 
-13.731

>  <name>  (48) 
47

>  <ligand_id>  (48) 
47

>  <original_smiles>  (48) 
[H]c1c([H])c([H])c2c(c1[H])C([H])([H])C([H])([H])C([H])([H])C2([H])N([H])C(=O)C1([H])N(C(=O)C([H])(N([H])C(=O)C([H])(N([H])C([H])([H])[H])C([H])([H])[H])C(C([H])([H])[H])(C([H])([H])[H])C([H])([H])[H])C([H])([H])c2c([H])c(Oc3nc(N([H])C4([H])C([H])([H])C([H])([H])N(C(=O)N5C([H])([H])C([H])([H])C([H])([H])C([H])(n6nc(-c7c([H])c([H])c(Oc8c([H])c([H])c(F)c([H])c8F)c([H])c7[H])c(C(=O)N([H])[H])c6N([H])[H])C5([H])[H])C([H])([H])C4([H])[H])nc(C4([H])C([H])([H])C4([H])[H])n3)c([H])c([H])c2C1([H])[H]

>  <smiles>  (48) 
[H]c1c([H])c([H])c2c(c1[H])C([H])([H])C([H])([H])C([H])([H])C2([H])N([H])C(=O)C1([H])N(C(=O)C([H])(N([H])C(=O)C([H])(N([H])C([H])([H])[H])C([H])([H])[H])C(C([H])([H])[H])(C([H])([H])[H])C([H])([H])[H])C([H])([H])c2c([H])c(Oc3nc(N([H])C4([H])C([H])([H])C([H])([H])N(C(=O)N5C([H])([H])C([H])([H])C([H])([H])C([H])(n6nc(-c7c([H])c([H])c(Oc8c([H])c([H])c(F)c([H])c8F)c([H])c7[H])c(C(=O)N([H])[H])c6N([H])[H])C5([H])[H])C([H])([H])C4([H])[H])nc(C4([H])C([H])([H])C4([H])[H])n3)c([H])c([H])c2C1([H])[H]

$$$$
49:0:0
     RDKit          3D

 88 97  0  0  1  0  0  0  0  0999 V2000
  -30.3680  -15.6780   20.1770 C   0  0  0  0  0  0  0  0  0  0  0  0
  -30.4960  -13.0830   19.4990 C   0  0  0  0  0  2  0  0  0  0  0  0
  -29.6470  -12.6090   18.2820 C   0  0  0  0  0  2  0  0  0  0  0  0
  -28.2020  -12.2870   18.6930 C   0  0  0  0  0  2  0  0  0  0  0  0
  -27.6600  -13.3400   19.6850 C   0  0  0  0  0  3  0  0  0  0  0  0
  -28.6570  -13.6740   20.8220 C   0  0  0  0  0  2  0  0  0  0  0  0
  -29.8510  -14.2970   20.1860 N   0  0  0  0  0  0  0  0  0  0  0  0
  -31.5950  -15.6080   19.9640 O   0  0  0  0  0  0  0  0  0  0  0  0
  -28.0740  -20.9250   20.4010 C   0  0  0  0  0  3  0  0  0  0  0  0
  -28.4410  -19.4500   20.4930 C   0  0  0  0  0  0  0  0  0  0  0  0
  -29.5780  -18.7280   19.9770 C   0  0  0  0  0  0  0  0  0  0  0  0
  -28.8040  -22.0490   19.7520 C   0  0  0  0  0  0  0  0  0  0  0  0
  -30.2890  -19.8760   19.3240 C   0  0  0  0  0  0  0  0  0  0  0  0
  -27.6080  -18.3780   21.1610 C   0  0  0  0  0  3  0  0  0  0  0  0
  -28.3240  -16.9710   20.9960 C   0  0  0  0  0  3  0  0  0  0  0  0
  -31.5850  -19.5490   18.6180 C   0  0  0  0  0  1  0  0  0  0  0  0
  -29.9240  -21.3120   19.2180 N   0  0  0  0  0  0  0  0  0  0  0  0
  -29.5960  -17.0510   20.2510 N   0  0  0  0  0  0  0  0  0  0  0  0
  -25.2630  -13.9180   20.3200 C   0  0  0  0  0  0  0  0  0  0  0  0
  -24.1900  -13.1650   20.6910 C   0  0  0  0  0  0  0  0  0  0  0  0
  -24.6520  -11.8140   20.7370 C   0  0  0  0  0  0  0  0  0  0  0  0
  -26.3170  -13.0360   20.1630 N   0  0  0  0  0  0  0  0  0  0  0  0
  -25.9570  -11.7630   20.4780 N   0  0  0  0  0  0  0  0  0  0  0  0
  -23.9060  -10.5670   20.9490 C   0  0  0  0  0  0  0  0  0  0  0  0
  -24.3020   -9.6240   21.9230 C   0  0  0  0  0  3  0  0  0  0  0  0
  -23.5500   -8.4460   22.1250 C   0  0  0  0  0  3  0  0  0  0  0  0
  -22.3880   -8.2030   21.3530 C   0  0  0  0  0  0  0  0  0  0  0  0
  -22.0110   -9.1350   20.3700 C   0  0  0  0  0  3  0  0  0  0  0  0
  -22.7640  -10.3030   20.1660 C   0  0  0  0  0  3  0  0  0  0  0  0
  -21.6120   -7.0750   21.4630 O   0  0  0  0  0  0  0  0  0  0  0  0
  -21.5400   -6.3620   22.6330 C   0  0  0  0  0  0  0  0  0  0  0  0
  -21.1330   -6.9590   23.8460 C   0  0  0  0  0  3  0  0  0  0  0  0
  -21.0070   -6.1740   25.0100 C   0  0  0  0  0  3  0  0  0  0  0  0
  -21.2770   -4.7930   24.9600 C   0  0  0  0  0  0  0  0  0  0  0  0
  -21.6780   -4.1960   23.7520 C   0  0  0  0  0  3  0  0  0  0  0  0
  -21.8060   -4.9780   22.5910 C   0  0  0  0  0  0  0  0  0  0  0  0
  -22.1710   -4.3940   21.4250 F   0  0  0  0  0  0  0  0  0  0  0  0
  -21.1490   -4.0370   26.0760 F   0  0  0  0  0  0  0  0  0  0  0  0
  -22.7880  -13.6640   20.8800 C   0  0  0  0  0  0  0  0  0  0  0  0
  -22.0230  -13.0250   21.7550 N   0  0  0  0  0  0  0  0  0  0  0  0
  -22.3810  -14.6630   20.2860 O   0  0  0  0  0  0  0  0  0  0  0  0
  -22.3660  -12.2210   22.2600 H   0  0  0  0  0  0  0  0  0  0  0  0
  -21.0800  -13.3450   21.9260 H   0  0  0  0  0  0  0  0  0  0  0  0
  -25.4130  -15.2750   20.0640 N   0  0  0  0  0  0  0  0  0  0  0  0
  -24.6180  -15.9040   20.0840 H   0  0  0  0  0  0  0  0  0  0  0  0
  -26.2350  -15.6880   19.6480 H   0  0  0  0  0  0  0  0  0  0  0  0
  -28.1370  -23.7690   19.3580 C   0  0  0  0  0  2  0  0  0  0  0  0
  -28.3490  -25.4960   19.6320 O   0  0  0  0  0  0  0  0  0  0  0  0
  -24.7370  -31.5510   22.9090 C   0  0  0  0  0  0  0  0  0  0  0  0
  -27.3530  -26.6960   19.6270 C   0  0  0  0  0  0  0  0  0  0  0  0
  -23.5550  -30.1950   21.2320 C   0  0  0  0  0  3  0  0  0  0  0  0
  -25.0200  -28.6600   19.7130 C   0  0  0  0  0  0  0  0  0  0  0  0
  -26.1250  -30.4210   21.0660 C   0  0  0  0  0  2  0  0  0  0  0  0
  -26.2180  -29.0220   20.3410 C   0  0  0  0  0  0  0  0  0  0  0  0
  -27.3650  -28.0690   20.2700 C   0  0  0  0  0  3  0  0  0  0  0  0
  -26.1140  -26.5500   18.9510 C   0  0  0  0  0  3  0  0  0  0  0  0
  -25.0060  -27.4520   18.9940 C   0  0  0  0  0  3  0  0  0  0  0  0
  -23.7850  -29.5700   19.8260 C   0  0  0  0  0  2  0  0  0  0  0  0
  -24.8300  -30.7540   21.7900 N   0  0  0  0  0  0  0  0  0  0  0  0
  -23.6470  -31.7940   23.4560 O   0  0  0  0  0  0  0  0  0  0  0  0
  -22.8890  -29.1540   22.1720 C   0  0  0  0  0  0  0  0  0  0  0  0
  -21.5560  -28.9730   22.0750 N   0  0  0  0  0  0  0  0  0  0  0  0
  -23.5810  -28.5070   22.9600 O   0  0  0  0  0  0  0  0  0  0  0  0
  -21.0450  -29.5470   21.4180 H   0  0  0  0  0  0  0  0  0  0  0  0
  -18.2150  -27.6470   22.6090 C   0  0  0  0  0  0  0  0  0  0  0  0
  -20.7730  -27.9800   22.8210 C   0  0  0  0  0  3  0  0  0  0  0  0
  -20.9000  -26.5780   22.1790 C   0  0  0  0  0  2  0  0  0  0  0  0
  -19.7820  -26.2710   21.1770 C   0  0  0  0  0  2  0  0  0  0  0  0
  -18.4130  -26.3410   21.8600 C   0  0  0  0  0  2  0  0  0  0  0  0
  -19.3210  -28.4250   23.0460 C   0  0  0  0  0  0  0  0  0  0  0  0
  -19.0760  -29.6450   23.7130 C   0  0  0  0  0  3  0  0  0  0  0  0
  -17.7610  -30.0900   23.9430 C   0  0  0  0  0  3  0  0  0  0  0  0
  -16.6700  -29.3110   23.5180 C   0  0  0  0  0  3  0  0  0  0  0  0
  -16.8990  -28.0910   22.8580 C   0  0  0  0  0  3  0  0  0  0  0  0
  -25.9940  -32.2090   23.5540 C   0  0  0  0  0  3  0  0  0  0  0  0
  -25.6130  -33.5480   24.0480 N   0  0  0  0  0  0  0  0  0  0  0  0
  -25.8640  -34.7040   23.4180 C   0  0  0  0  0  0  0  0  0  0  0  0
  -26.4970  -34.7590   22.3610 O   0  0  0  0  0  0  0  0  0  0  0  0
  -25.0410  -33.5720   24.8790 H   0  0  0  0  0  0  0  0  0  0  0  0
  -24.0350  -36.4370   23.3540 C   0  0  0  0  0  1  0  0  0  0  0  0
  -25.3310  -36.0050   24.0580 C   0  0  0  0  0  3  0  0  0  0  0  0
  -27.4560  -36.9080   24.9010 C   0  0  0  0  0  1  0  0  0  0  0  0
  -26.3040  -37.1200   24.0280 N   0  0  0  0  0  0  0  0  0  0  0  0
  -25.8590  -37.9930   24.2980 H   0  0  0  0  0  0  0  0  0  0  0  0
  -26.5990  -31.3570   24.7380 C   0  0  1  0  0  0  0  0  0  0  0  0
  -25.5650  -30.9740   25.8240 C   0  0  0  0  0  1  0  0  0  0  0  0
  -27.2270  -30.0460   24.2140 C   0  0  0  0  0  1  0  0  0  0  0  0
  -27.7410  -32.1450   25.4210 C   0  0  0  0  0  1  0  0  0  0  0  0
  1  7  1  0
  1 18  1  0
  2  7  1  0
  3  4  1  0
  3  2  1  0
  5  4  1  0
  5 22  1  0
  5  6  1  0
  7  6  1  0
  8  1  2  0
  9 10  1  0
 10 14  1  0
 11 18  1  0
 11 10  2  0
 12  9  2  0
 13 11  1  0
 15 14  2  0
 16 13  1  0
 17 13  2  0
 17 12  1  0
 18 15  1  0
 19 20  2  0
 20 21  1  0
 20 39  1  0
 21 24  1  0
 22 19  1  0
 22 23  1  0
 23 21  2  0
 24 25  1  0
 25 26  2  0
 27 30  1  0
 27 26  1  0
 28 27  2  0
 29 28  1  0
 29 24  2  0
 30 31  1  0
 31 32  1  0
 32 33  2  0
 34 33  1  0
 34 38  1  0
 35 34  2  0
 36 31  2  0
 36 35  1  0
 37 36  1  0
 39 40  1  0
 40 43  1  0
 40 42  1  0
 41 39  2  0
 44 45  1  0
 44 19  1  0
 46 44  1  0
 47 48  1  0
 47 12  1  0
 49 60  2  0
 50 48  1  0
 50 55  1  0
 51 59  1  0
 51 61  1  0
 52 58  1  0
 52 54  1  0
 53 59  1  0
 54 53  1  0
 55 54  2  0
 56 57  1  0
 56 50  2  0
 57 52  2  0
 58 51  1  0
 59 49  1  0
 61 63  2  0
 62 61  1  0
 64 62  1  0
 65 74  2  0
 65 70  1  0
 66 62  1  0
 66 70  1  0
 67 66  1  0
 68 69  1  0
 68 67  1  0
 69 65  1  0
 70 71  2  0
 71 72  1  0
 73 72  2  0
 74 73  1  0
 75 49  1  0
 75 76  1  0
 75 85  1  0
 76 79  1  0
 77 76  1  0
 77 81  1  0
 78 77  2  0
 81 80  1  0
 83 81  1  0
 83 84  1  0
 83 82  1  0
 85 88  1  1
 85 86  1  0
 87 85  1  0
M  ISO  4   1 100  18 100  47 101  48 101
M  END
>  <TORSDO>  (49) 
F 16

>  <SCORE>  (49) 
-13.544

>  <name>  (49) 
49

>  <ligand_id>  (49) 
49

>  <original_smiles>  (49) 
[H]c1c([H])c([H])c2c(c1[H])C([H])([H])C([H])([H])C([H])([H])C2([H])N([H])C(=O)C1([H])N(C(=O)C([H])(N([H])C(=O)C([H])(N([H])C([H])([H])[H])C([H])([H])[H])C(C([H])([H])[H])(C([H])([H])[H])C([H])([H])[H])C([H])([H])c2c([H])c(OC([H])([H])c3nc(C([H])([H])[H])c4c(c3[H])C([H])([H])C([H])([H])N4C(=O)N3C([H])([H])C([H])([H])C([H])([H])C([H])(n4nc(-c5c([H])c([H])c(Oc6c([H])c([H])c(F)c([H])c6F)c([H])c5[H])c(C(=O)N([H])[H])c4N([H])[H])C3([H])[H])c([H])c([H])c2C1([H])[H]

>  <smiles>  (49) 
[H]c1c([H])c([H])c2c(c1[H])C([H])([H])C([H])([H])C([H])([H])C2([H])N([H])C(=O)C1([H])N(C(=O)C([H])(N([H])C(=O)C([H])(N([H])C([H])([H])[H])C([H])([H])[H])C(C([H])([H])[H])(C([H])([H])[H])C([H])([H])[H])C([H])([H])c2c([H])c(OC([H])([H])c3nc(C([H])([H])[H])c4c(c3[H])C([H])([H])C([H])([H])N4C(=O)N3C([H])([H])C([H])([H])C([H])([H])C([H])(n4nc(-c5c([H])c([H])c(Oc6c([H])c([H])c(F)c([H])c6F)c([H])c5[H])c(C(=O)N([H])[H])c4N([H])[H])C3([H])[H])c([H])c([H])c2C1([H])[H]

$$$$
50:0:0
     RDKit          3D

 89 98  0  0  1  0  0  0  0  0999 V2000
  -28.9300  -22.8990   18.9230 C   0  0  0  0  0  3  0  0  0  0  0  0
  -28.5590  -23.3430   20.2290 C   0  0  0  0  0  0  0  0  0  0  0  0
  -29.2380  -21.6040   18.8670 N   0  0  0  0  0  0  0  0  0  0  0  0
  -28.6570  -22.2060   20.9740 N   0  0  0  0  0  0  0  0  0  0  0  0
  -29.0810  -21.1350   20.1400 N   0  0  0  0  0  0  0  0  0  0  0  0
  -30.7030  -15.0080   20.1960 C   0  0  0  0  0  0  0  0  0  0  0  0
  -30.4260  -12.6900   19.2220 C   0  0  0  0  0  2  0  0  0  0  0  0
  -29.4620  -12.6300   18.0210 C   0  0  0  0  0  2  0  0  0  0  0  0
  -28.0230  -12.4030   18.5120 C   0  0  0  0  0  2  0  0  0  0  0  0
  -27.6480  -13.3440   19.6860 C   0  0  0  0  0  3  0  0  0  0  0  0
  -28.7420  -13.4110   20.7760 C   0  0  0  0  0  2  0  0  0  0  0  0
  -29.9810  -13.8160   20.1010 N   0  0  0  0  0  0  0  0  0  0  0  0
  -31.9080  -14.8980   19.9460 O   0  0  0  0  0  0  0  0  0  0  0  0
  -30.6480  -18.9890   19.7960 C   0  0  0  0  0  2  0  0  0  0  0  0
  -28.4040  -18.4470   20.3750 C   0  0  0  0  0  2  0  0  0  0  0  0
  -31.1270  -17.5250   20.2360 C   0  0  0  0  0  2  0  0  0  0  0  0
  -28.8380  -16.9050   20.7240 C   0  0  0  0  0  2  0  0  0  0  0  0
  -29.4420  -19.6420   20.5540 C   0  0  0  0  0  3  0  0  0  0  0  0
  -30.1690  -16.3480   20.2770 N   0  0  0  0  0  0  0  0  0  0  0  0
  -25.2970  -13.9040   20.5260 C   0  0  0  0  0  0  0  0  0  0  0  0
  -24.2470  -13.1200   20.9120 C   0  0  0  0  0  0  0  0  0  0  0  0
  -24.7120  -11.7710   20.8380 C   0  0  0  0  0  0  0  0  0  0  0  0
  -26.3340  -13.0340   20.2350 N   0  0  0  0  0  0  0  0  0  0  0  0
  -25.9940  -11.7430   20.4920 N   0  0  0  0  0  0  0  0  0  0  0  0
  -23.9910  -10.5040   21.0190 C   0  0  0  0  0  0  0  0  0  0  0  0
  -24.4230   -9.5330   21.9510 C   0  0  0  0  0  3  0  0  0  0  0  0
  -23.6970   -8.3350   22.1240 C   0  0  0  0  0  3  0  0  0  0  0  0
  -22.5270   -8.0970   21.3650 C   0  0  0  0  0  0  0  0  0  0  0  0
  -22.1160   -9.0550   20.4220 C   0  0  0  0  0  3  0  0  0  0  0  0
  -22.8420  -10.2440   20.2470 C   0  0  0  0  0  3  0  0  0  0  0  0
  -21.7740   -6.9500   21.4480 O   0  0  0  0  0  0  0  0  0  0  0  0
  -21.6870   -6.2270   22.6100 C   0  0  0  0  0  0  0  0  0  0  0  0
  -21.1760   -6.7880   23.8000 C   0  0  0  0  0  3  0  0  0  0  0  0
  -21.0390   -5.9910   24.9530 C   0  0  0  0  0  3  0  0  0  0  0  0
  -21.4080   -4.6340   24.9190 C   0  0  0  0  0  0  0  0  0  0  0  0
  -21.9140   -4.0700   23.7350 C   0  0  0  0  0  3  0  0  0  0  0  0
  -22.0510   -4.8660   22.5830 C   0  0  0  0  0  0  0  0  0  0  0  0
  -22.5180   -4.3130   21.4370 F   0  0  0  0  0  0  0  0  0  0  0  0
  -21.2700   -3.8650   26.0250 F   0  0  0  0  0  0  0  0  0  0  0  0
  -22.8590  -13.5890   21.2320 C   0  0  0  0  0  0  0  0  0  0  0  0
  -22.1580  -12.8710   22.1020 N   0  0  0  0  0  0  0  0  0  0  0  0
  -22.4060  -14.6260   20.7480 O   0  0  0  0  0  0  0  0  0  0  0  0
  -22.5410  -12.0340   22.5150 H   0  0  0  0  0  0  0  0  0  0  0  0
  -21.2260  -13.1630   22.3630 H   0  0  0  0  0  0  0  0  0  0  0  0
  -25.4520  -15.2770   20.3660 N   0  0  0  0  0  0  0  0  0  0  0  0
  -24.6860  -15.9270   20.5130 H   0  0  0  0  0  0  0  0  0  0  0  0
  -26.2850  -15.7210   20.0030 H   0  0  0  0  0  0  0  0  0  0  0  0
  -27.9410  -24.7850   20.7230 C   0  0  0  0  0  2  0  0  0  0  0  0
  -28.2800  -26.2190   20.2320 O   0  0  0  0  0  0  0  0  0  0  0  0
  -24.6080  -31.8860   23.2110 C   0  0  0  0  0  0  0  0  0  0  0  0
  -27.2380  -27.2090   20.1970 C   0  0  0  0  0  0  0  0  0  0  0  0
  -23.4330  -30.4840   21.5620 C   0  0  0  0  0  3  0  0  0  0  0  0
  -24.9040  -28.9310   20.1420 C   0  0  0  0  0  0  0  0  0  0  0  0
  -25.9860  -30.7730   21.4180 C   0  0  0  0  0  2  0  0  0  0  0  0
  -26.0770  -29.3860   20.7620 C   0  0  0  0  0  0  0  0  0  0  0  0
  -27.2500  -28.5410   20.7710 C   0  0  0  0  0  3  0  0  0  0  0  0
  -26.0470  -26.8590   19.5260 C   0  0  0  0  0  3  0  0  0  0  0  0
  -24.9020  -27.6800   19.5060 C   0  0  0  0  0  3  0  0  0  0  0  0
  -23.6670  -29.8150   20.1830 C   0  0  0  0  0  2  0  0  0  0  0  0
  -24.6950  -31.0690   22.1180 N   0  0  0  0  0  0  0  0  0  0  0  0
  -23.5160  -32.1600   23.7330 O   0  0  0  0  0  0  0  0  0  0  0  0
  -22.7580  -29.4680   22.5170 C   0  0  0  0  0  0  0  0  0  0  0  0
  -21.4310  -29.2920   22.3850 N   0  0  0  0  0  0  0  0  0  0  0  0
  -23.4300  -28.8390   23.3380 O   0  0  0  0  0  0  0  0  0  0  0  0
  -20.9480  -29.8480   21.6930 H   0  0  0  0  0  0  0  0  0  0  0  0
  -18.0460  -28.1030   22.8960 C   0  0  0  0  0  0  0  0  0  0  0  0
  -20.6080  -28.3510   23.1510 C   0  0  0  0  0  3  0  0  0  0  0  0
  -20.6990  -26.9260   22.5600 C   0  0  0  0  0  2  0  0  0  0  0  0
  -19.5910  -26.6190   21.5500 C   0  0  0  0  0  2  0  0  0  0  0  0
  -18.2120  -26.7610   22.2010 C   0  0  0  0  0  2  0  0  0  0  0  0
  -19.1710  -28.8560   23.3260 C   0  0  0  0  0  0  0  0  0  0  0  0
  -18.9600  -30.1100   23.9390 C   0  0  0  0  0  3  0  0  0  0  0  0
  -17.6580  -30.6130   24.1210 C   0  0  0  0  0  3  0  0  0  0  0  0
  -16.5470  -29.8580   23.7060 C   0  0  0  0  0  3  0  0  0  0  0  0
  -16.7440  -28.6040   23.1000 C   0  0  0  0  0  3  0  0  0  0  0  0
  -25.8760  -32.5310   23.8480 C   0  0  0  0  0  3  0  0  0  0  0  0
  -25.5510  -33.9290   24.1680 N   0  0  0  0  0  0  0  0  0  0  0  0
  -25.8940  -34.9850   23.4160 C   0  0  0  0  0  0  0  0  0  0  0  0
  -26.5840  -34.8830   22.3970 O   0  0  0  0  0  0  0  0  0  0  0  0
  -24.9360  -34.0800   24.9540 H   0  0  0  0  0  0  0  0  0  0  0  0
  -24.1780  -36.7830   23.0240 C   0  0  0  0  0  1  0  0  0  0  0  0
  -25.3970  -36.3730   23.8660 C   0  0  0  0  0  3  0  0  0  0  0  0
  -27.5050  -37.2560   24.7630 C   0  0  0  0  0  1  0  0  0  0  0  0
  -26.4350  -37.4240   23.7840 N   0  0  0  0  0  0  0  0  0  0  0  0
  -26.0250  -38.3450   23.9170 H   0  0  0  0  0  0  0  0  0  0  0  0
  -26.3760  -31.7730   25.1400 C   0  0  1  0  0  0  0  0  0  0  0  0
  -25.2670  -31.5320   26.1910 C   0  0  0  0  0  1  0  0  0  0  0  0
  -26.9760  -30.3960   24.7740 C   0  0  0  0  0  1  0  0  0  0  0  0
  -27.5120  -32.5800   25.8110 C   0  0  0  0  0  1  0  0  0  0  0  0
  1  2  1  0
  2 48  1  0
  2  4  2  0
  3  1  2  0
  3  5  1  0
  5 18  1  0
  5  4  1  0
  6 19  1  0
  7 12  1  0
  8  9  1  0
  8  7  1  0
 10  9  1  0
 10 23  1  0
 10 11  1  0
 12  6  1  0
 12 11  1  0
 13  6  2  0
 14 16  1  0
 15 18  1  0
 15 17  1  0
 16 19  1  0
 18 14  1  0
 19 17  1  0
 20 21  2  0
 21 40  1  0
 22 21  1  0
 22 25  1  0
 23 24  1  0
 23 20  1  0
 24 22  2  0
 25 26  1  0
 26 27  2  0
 28 31  1  0
 28 27  1  0
 29 28  2  0
 30 29  1  0
 30 25  2  0
 31 32  1  0
 32 33  1  0
 33 34  2  0
 35 34  1  0
 35 39  1  0
 36 35  2  0
 37 32  2  0
 37 36  1  0
 38 37  1  0
 40 41  1  0
 41 44  1  0
 41 43  1  0
 42 40  2  0
 45 46  1  0
 45 20  1  0
 47 45  1  0
 49 48  1  0
 50 61  2  0
 51 49  1  0
 51 56  1  0
 52 60  1  0
 52 62  1  0
 53 59  1  0
 53 55  1  0
 54 60  1  0
 55 56  2  0
 55 54  1  0
 57 51  2  0
 58 57  1  0
 58 53  2  0
 59 52  1  0
 60 50  1  0
 62 64  2  0
 63 62  1  0
 65 63  1  0
 66 75  2  0
 66 71  1  0
 67 63  1  0
 67 71  1  0
 68 67  1  0
 69 70  1  0
 69 68  1  0
 70 66  1  0
 71 72  2  0
 72 73  1  0
 74 73  2  0
 75 74  1  0
 76 50  1  0
 76 77  1  0
 76 86  1  0
 77 80  1  0
 78 82  1  0
 78 77  1  0
 79 78  2  0
 82 81  1  0
 84 82  1  0
 84 85  1  0
 84 83  1  0
 86 89  1  1
 86 87  1  0
 88 86  1  0
M  ISO  4   6 100  19 100  48 101  49 101
M  END
>  <TORSDO>  (50) 
F 17

>  <SCORE>  (50) 
-15.225

>  <name>  (50) 
50

>  <ligand_id>  (50) 
50

>  <original_smiles>  (50) 
[H]c1nn(C2([H])C([H])([H])C([H])([H])N(C(=O)N3C([H])([H])C([H])([H])C([H])([H])C([H])(n4nc(-c5c([H])c([H])c(Oc6c([H])c([H])c(F)c([H])c6F)c([H])c5[H])c(C(=O)N([H])[H])c4N([H])[H])C3([H])[H])C([H])([H])C2([H])[H])nc1C([H])([H])Oc1c([H])c([H])c2c(c1[H])C([H])([H])N(C(=O)C([H])(N([H])C(=O)C([H])(N([H])C([H])([H])[H])C([H])([H])[H])C(C([H])([H])[H])(C([H])([H])[H])C([H])([H])[H])C([H])(C(=O)N([H])C1([H])c3c([H])c([H])c([H])c([H])c3C([H])([H])C([H])([H])C1([H])[H])C2([H])[H]

>  <smiles>  (50) 
[H]c1nn(C2([H])C([H])([H])C([H])([H])N(C(=O)N3C([H])([H])C([H])([H])C([H])([H])C([H])(n4nc(-c5c([H])c([H])c(Oc6c([H])c([H])c(F)c([H])c6F)c([H])c5[H])c(C(=O)N([H])[H])c4N([H])[H])C3([H])[H])C([H])([H])C2([H])[H])nc1C([H])([H])Oc1c([H])c([H])c2c(c1[H])C([H])([H])N(C(=O)C([H])(N([H])C(=O)C([H])(N([H])C([H])([H])[H])C([H])([H])[H])C(C([H])([H])[H])(C([H])([H])[H])C([H])([H])[H])C([H])(C(=O)N([H])C1([H])c3c([H])c([H])c([H])c([H])c3C([H])([H])C([H])([H])C1([H])[H])C2([H])[H]

$$$$
51:0:0
     RDKit          3D

 93102  0  0  1  0  0  0  0  0999 V2000
  -30.5150  -14.9170   20.4400 C   0  0  0  0  0  0  0  0  0  0  0  0
  -30.4140  -12.5890   19.4630 C   0  0  0  0  0  2  0  0  0  0  0  0
  -29.4920  -12.6040   18.2210 C   0  0  0  0  0  2  0  0  0  0  0  0
  -28.0180  -12.4090   18.6270 C   0  0  0  0  0  2  0  0  0  0  0  0
  -27.6100  -13.3080   19.8240 C   0  0  0  0  0  3  0  0  0  0  0  0
  -28.6500  -13.2490   20.9640 C   0  0  0  0  0  2  0  0  0  0  0  0
  -29.9450  -13.6500   20.3920 N   0  0  0  0  0  0  0  0  0  0  0  0
  -31.7080  -15.0330   20.1350 O   0  0  0  0  0  0  0  0  0  0  0  0
  -28.6690  -17.9780   19.4710 C   0  0  0  0  0  3  0  0  0  0  0  0
  -28.4270  -19.3810   19.2570 C   0  0  0  0  0  0  0  0  0  0  0  0
  -29.1070  -20.4000   20.0060 C   0  0  0  0  0  0  0  0  0  0  0  0
  -29.6400  -17.5010   20.3930 C   0  0  0  0  0  0  0  0  0  0  0  0
  -27.4850  -19.7760   18.1340 C   0  0  0  0  0  2  0  0  0  0  0  0
  -28.0330  -22.1360   18.3520 C   0  0  0  0  0  2  0  0  0  0  0  0
  -29.0210  -21.9940   19.5460 C   0  0  0  0  0  3  0  0  0  0  0  0
  -30.0600  -19.8840   20.8710 N   0  0  0  0  0  0  0  0  0  0  0  0
  -30.2930  -18.5280   21.0630 N   0  0  0  0  0  0  0  0  0  0  0  0
  -29.6640  -16.0130   20.6740 N   0  0  0  0  0  0  0  0  0  0  0  0
  -27.9870  -20.9730   17.4470 N   0  0  0  0  0  4  0  0  0  0  0  0
  -28.7440  -15.6680   20.8900 H   0  0  0  0  0  0  0  0  0  0  0  0
  -27.3650  -21.1810   16.6840 H   0  0  0  0  0  0  0  0  0  0  0  0
  -28.8950  -20.7900   17.0530 H   0  0  0  0  0  0  0  0  0  0  0  0
  -25.2120  -13.9020   20.5070 C   0  0  0  0  0  0  0  0  0  0  0  0
  -24.1400  -13.1330   20.8660 C   0  0  0  0  0  0  0  0  0  0  0  0
  -24.6020  -11.7810   20.8530 C   0  0  0  0  0  0  0  0  0  0  0  0
  -26.2590  -13.0200   20.2950 N   0  0  0  0  0  0  0  0  0  0  0  0
  -25.8990  -11.7390   20.5670 N   0  0  0  0  0  0  0  0  0  0  0  0
  -23.8710  -10.5200   21.0400 C   0  0  0  0  0  0  0  0  0  0  0  0
  -24.2850   -9.5580   21.9860 C   0  0  0  0  0  3  0  0  0  0  0  0
  -23.5530   -8.3630   22.1610 C   0  0  0  0  0  3  0  0  0  0  0  0
  -22.3920   -8.1230   21.3880 C   0  0  0  0  0  0  0  0  0  0  0  0
  -21.9960   -9.0760   20.4320 C   0  0  0  0  0  3  0  0  0  0  0  0
  -22.7280  -10.2610   20.2560 C   0  0  0  0  0  3  0  0  0  0  0  0
  -21.6340   -6.9810   21.4710 O   0  0  0  0  0  0  0  0  0  0  0  0
  -21.5650   -6.2450   22.6260 C   0  0  0  0  0  0  0  0  0  0  0  0
  -21.1190   -6.8080   23.8420 C   0  0  0  0  0  3  0  0  0  0  0  0
  -20.9980   -5.9980   24.9900 C   0  0  0  0  0  3  0  0  0  0  0  0
  -21.3100   -4.6270   24.9210 C   0  0  0  0  0  0  0  0  0  0  0  0
  -21.7470   -4.0640   23.7090 C   0  0  0  0  0  3  0  0  0  0  0  0
  -21.8710   -4.8710   22.5640 C   0  0  0  0  0  0  0  0  0  0  0  0
  -22.2730   -4.3190   21.3940 F   0  0  0  0  0  0  0  0  0  0  0  0
  -21.1850   -3.8480   26.0200 F   0  0  0  0  0  0  0  0  0  0  0  0
  -22.7390  -13.6130   21.1080 C   0  0  0  0  0  0  0  0  0  0  0  0
  -21.9920  -12.9260   21.9630 N   0  0  0  0  0  0  0  0  0  0  0  0
  -22.3130  -14.6350   20.5690 O   0  0  0  0  0  0  0  0  0  0  0  0
  -22.3480  -12.0990   22.4210 H   0  0  0  0  0  0  0  0  0  0  0  0
  -21.0500  -13.2300   22.1650 H   0  0  0  0  0  0  0  0  0  0  0  0
  -25.3780  -15.2700   20.3170 N   0  0  0  0  0  0  0  0  0  0  0  0
  -24.6000  -15.9160   20.3960 H   0  0  0  0  0  0  0  0  0  0  0  0
  -26.2020  -15.6970   19.9180 H   0  0  0  0  0  0  0  0  0  0  0  0
  -28.7270  -23.3620   20.4750 C   0  0  0  0  0  3  0  0  0  0  0  0
  -28.4270  -24.8610   19.7690 C   0  0  0  0  0  3  0  0  0  0  0  0
  -28.3420  -26.2720   20.3970 O   0  0  0  0  0  0  0  0  0  0  0  0
  -24.6280  -31.9160   23.2550 C   0  0  0  0  0  0  0  0  0  0  0  0
  -27.2540  -27.2050   20.2760 C   0  0  0  0  0  0  0  0  0  0  0  0
  -23.4460  -30.5040   21.6170 C   0  0  0  0  0  3  0  0  0  0  0  0
  -24.9100  -28.9250   20.2180 C   0  0  0  0  0  0  0  0  0  0  0  0
  -25.9990  -30.7790   21.4730 C   0  0  0  0  0  2  0  0  0  0  0  0
  -26.0800  -29.3840   20.8340 C   0  0  0  0  0  0  0  0  0  0  0  0
  -27.2470  -28.5370   20.8510 C   0  0  0  0  0  3  0  0  0  0  0  0
  -26.0510  -26.8400   19.6260 C   0  0  0  0  0  3  0  0  0  0  0  0
  -24.9060  -27.6650   19.6040 C   0  0  0  0  0  3  0  0  0  0  0  0
  -23.6790  -29.8150   20.2460 C   0  0  0  0  0  2  0  0  0  0  0  0
  -24.7110  -31.0880   22.1700 N   0  0  0  0  0  0  0  0  0  0  0  0
  -23.5360  -32.2040   23.7690 O   0  0  0  0  0  0  0  0  0  0  0  0
  -22.7600  -29.5040   22.5800 C   0  0  0  0  0  0  0  0  0  0  0  0
  -21.4320  -29.3400   22.4480 N   0  0  0  0  0  0  0  0  0  0  0  0
  -23.4250  -28.8770   23.4090 O   0  0  0  0  0  0  0  0  0  0  0  0
  -20.9520  -29.8940   21.7530 H   0  0  0  0  0  0  0  0  0  0  0  0
  -18.0400  -28.1780   22.9570 C   0  0  0  0  0  0  0  0  0  0  0  0
  -20.6010  -28.4120   23.2210 C   0  0  0  0  0  3  0  0  0  0  0  0
  -20.6860  -26.9780   22.6470 C   0  0  0  0  0  2  0  0  0  0  0  0
  -19.5800  -26.6670   21.6350 C   0  0  0  0  0  2  0  0  0  0  0  0
  -18.2010  -26.8270   22.2800 C   0  0  0  0  0  2  0  0  0  0  0  0
  -19.1670  -28.9290   23.3840 C   0  0  0  0  0  0  0  0  0  0  0  0
  -18.9610  -30.1930   23.9790 C   0  0  0  0  0  3  0  0  0  0  0  0
  -17.6620  -30.7070   24.1480 C   0  0  0  0  0  3  0  0  0  0  0  0
  -16.5490  -29.9530   23.7360 C   0  0  0  0  0  3  0  0  0  0  0  0
  -16.7390  -28.6910   23.1470 C   0  0  0  0  0  3  0  0  0  0  0  0
  -25.9000  -32.5580   23.8890 C   0  0  0  0  0  3  0  0  0  0  0  0
  -25.5810  -33.9600   24.2040 N   0  0  0  0  0  0  0  0  0  0  0  0
  -25.9150  -35.0100   23.4420 C   0  0  0  0  0  0  0  0  0  0  0  0
  -26.5900  -34.9010   22.4150 O   0  0  0  0  0  0  0  0  0  0  0  0
  -24.9800  -34.1170   25.0000 H   0  0  0  0  0  0  0  0  0  0  0  0
  -24.1840  -36.7990   23.0740 C   0  0  0  0  0  1  0  0  0  0  0  0
  -25.4250  -36.4020   23.8890 C   0  0  0  0  0  3  0  0  0  0  0  0
  -27.5560  -37.3000   24.7160 C   0  0  0  0  0  1  0  0  0  0  0  0
  -26.4560  -37.4560   23.7690 N   0  0  0  0  0  0  0  0  0  0  0  0
  -26.0470  -38.3770   23.9070 H   0  0  0  0  0  0  0  0  0  0  0  0
  -26.3960  -31.8020   25.1830 C   0  0  1  0  0  0  0  0  0  0  0  0
  -25.2880  -31.5770   26.2380 C   0  0  0  0  0  1  0  0  0  0  0  0
  -26.9850  -30.4190   24.8200 C   0  0  0  0  0  1  0  0  0  0  0  0
  -27.5390  -32.6030   25.8500 C   0  0  0  0  0  1  0  0  0  0  0  0
  1 18  1  0
  2  7  1  0
  3  4  1  0
  3  2  1  0
  5  4  1  0
  5 26  1  0
  5  6  1  0
  7  1  1  0
  7  6  1  0
  8  1  2  0
  9 12  1  0
 10  9  2  0
 10 11  1  0
 11 16  2  0
 12 18  1  0
 12 17  2  0
 13 10  1  0
 14 15  1  0
 15 11  1  0
 15 51  1  0
 16 17  1  0
 18 20  1  0
 19 13  1  0
 19 14  1  0
 21 19  1  0
 22 19  1  0
 23 24  2  0
 24 43  1  0
 25 24  1  0
 25 28  1  0
 26 23  1  0
 26 27  1  0
 27 25  2  0
 28 29  1  0
 29 30  2  0
 31 34  1  0
 31 30  1  0
 32 31  2  0
 33 32  1  0
 33 28  2  0
 34 35  1  0
 35 36  1  0
 36 37  2  0
 38 37  1  0
 38 42  1  0
 39 38  2  0
 40 35  2  0
 40 39  1  0
 41 40  1  0
 43 44  1  0
 44 47  1  0
 44 46  1  0
 45 43  2  0
 48 49  1  0
 48 23  1  0
 50 48  1  0
 52 53  1  0
 52 51  2  0
 54 65  2  0
 55 53  1  0
 55 60  1  0
 56 64  1  0
 56 66  1  0
 57 63  1  0
 57 59  1  0
 58 64  1  0
 59 60  2  0
 59 58  1  0
 61 55  2  0
 62 61  1  0
 62 57  2  0
 63 56  1  0
 64 54  1  0
 66 68  2  0
 67 66  1  0
 69 67  1  0
 70 79  2  0
 70 75  1  0
 71 67  1  0
 71 75  1  0
 72 71  1  0
 73 74  1  0
 73 72  1  0
 74 70  1  0
 75 76  2  0
 76 77  1  0
 78 77  2  0
 79 78  1  0
 80 54  1  0
 80 81  1  0
 80 90  1  0
 81 84  1  0
 82 86  1  0
 82 81  1  0
 83 82  2  0
 86 85  1  0
 88 86  1  0
 88 89  1  0
 88 87  1  0
 90 93  1  1
 90 91  1  0
 92 90  1  0
M  ISO  4   1 100  18 100  52 101  53 101
M  END
>  <TORSDO>  (51) 
F 17

>  <SCORE>  (51) 
-15.269

>  <name>  (51) 
51

>  <ligand_id>  (51) 
51

>  <original_smiles>  (51) 
[H]c1c([H])c([H])c2c(c1[H])C([H])([H])C([H])([H])C([H])([H])C2([H])N([H])C(=O)C1([H])N(C(=O)C([H])(N([H])C(=O)C([H])(N([H])C([H])([H])[H])C([H])([H])[H])C(C([H])([H])[H])(C([H])([H])[H])C([H])([H])[H])C([H])([H])c2c([H])c(OC([H])([H])C([H])([H])C3([H])c4nnc(N([H])C(=O)N5C([H])([H])C([H])([H])C([H])([H])C([H])(n6nc(-c7c([H])c([H])c(Oc8c([H])c([H])c(F)c([H])c8F)c([H])c7[H])c(C(=O)N([H])[H])c6N([H])[H])C5([H])[H])c([H])c4C([H])([H])[N+]([H])([H])C3([H])[H])c([H])c([H])c2C1([H])[H]

>  <smiles>  (51) 
[H]c1c([H])c([H])c2c(c1[H])C([H])([H])C([H])([H])C([H])([H])C2([H])N([H])C(=O)C1([H])N(C(=O)C([H])(N([H])C(=O)C([H])(N([H])C([H])([H])[H])C([H])([H])[H])C(C([H])([H])[H])(C([H])([H])[H])C([H])([H])[H])C([H])([H])c2c([H])c(OC([H])([H])C([H])([H])C3([H])c4nnc(N([H])C(=O)N5C([H])([H])C([H])([H])C([H])([H])C([H])(n6nc(-c7c([H])c([H])c(Oc8c([H])c([H])c(F)c([H])c8F)c([H])c7[H])c(C(=O)N([H])[H])c6N([H])[H])C5([H])[H])c([H])c4C([H])([H])[N+]([H])([H])C3([H])[H])c([H])c([H])c2C1([H])[H]

$$$$
52:0:0
     RDKit          3D

 96105  0  0  1  0  0  0  0  0999 V2000
  -29.5600  -20.2950   19.1480 C   0  0  0  0  0  0  0  0  0  0  0  0
  -29.1420  -20.2420   17.9860 O   0  0  0  0  0  0  0  0  0  0  0  0
  -31.0480  -14.4060   21.3840 C   0  0  0  0  0  0  0  0  0  0  0  0
  -31.0000  -12.0570   20.6120 C   0  0  0  0  0  2  0  0  0  0  0  0
  -30.3330  -12.0140   19.2200 C   0  0  0  0  0  2  0  0  0  0  0  0
  -28.8000  -11.9150   19.3460 C   0  0  0  0  0  2  0  0  0  0  0  0
  -28.2120  -12.9540   20.3390 C   0  0  0  0  0  3  0  0  0  0  0  0
  -29.0040  -12.9490   21.6630 C   0  0  0  0  0  2  0  0  0  0  0  0
  -30.4260  -13.1940   21.3500 N   0  0  0  0  0  0  0  0  0  0  0  0
  -32.2310  -14.5540   21.0540 O   0  0  0  0  0  0  0  0  0  0  0  0
  -30.9260  -18.7220   20.5980 C   0  0  0  0  0  3  0  0  0  0  0  0
  -29.7110  -19.0600   19.9790 C   0  0  0  0  0  0  0  0  0  0  0  0
  -28.6940  -18.0900   20.0800 C   0  0  0  0  0  0  0  0  0  0  0  0
  -30.1160  -16.6500   21.1800 C   0  0  0  0  0  0  0  0  0  0  0  0
  -31.1220  -17.5250   21.2010 N   0  0  0  0  0  0  0  0  0  0  0  0
  -28.9100  -16.8990   20.6850 N   0  0  0  0  0  0  0  0  0  0  0  0
  -30.2540  -15.4230   21.7690 N   0  0  0  0  0  0  0  0  0  0  0  0
  -29.3790  -15.0780   22.1220 H   0  0  0  0  0  0  0  0  0  0  0  0
  -25.7430  -13.6560   20.5370 C   0  0  0  0  0  0  0  0  0  0  0  0
  -24.5990  -12.9330   20.7380 C   0  0  0  0  0  0  0  0  0  0  0  0
  -25.0130  -11.5720   20.8710 C   0  0  0  0  0  0  0  0  0  0  0  0
  -26.7840  -12.7400   20.5610 N   0  0  0  0  0  0  0  0  0  0  0  0
  -26.3360  -11.4840   20.8150 N   0  0  0  0  0  0  0  0  0  0  0  0
  -24.2210  -10.3410   20.9960 C   0  0  0  0  0  0  0  0  0  0  0  0
  -24.5090   -9.3750   21.9860 C   0  0  0  0  0  3  0  0  0  0  0  0
  -23.7240   -8.2080   22.0950 C   0  0  0  0  0  3  0  0  0  0  0  0
  -22.6370   -7.9990   21.2130 C   0  0  0  0  0  0  0  0  0  0  0  0
  -22.3680   -8.9530   20.2170 C   0  0  0  0  0  3  0  0  0  0  0  0
  -23.1530  -10.1120   20.1060 C   0  0  0  0  0  3  0  0  0  0  0  0
  -21.8390   -6.8800   21.2280 O   0  0  0  0  0  0  0  0  0  0  0  0
  -21.5360   -6.2260   22.3940 C   0  0  0  0  0  0  0  0  0  0  0  0
  -20.8530   -6.8660   23.4520 C   0  0  0  0  0  3  0  0  0  0  0  0
  -20.5000   -6.1360   24.6050 C   0  0  0  0  0  3  0  0  0  0  0  0
  -20.8200   -4.7690   24.6980 C   0  0  0  0  0  0  0  0  0  0  0  0
  -21.4950   -4.1290   23.6440 C   0  0  0  0  0  3  0  0  0  0  0  0
  -21.8490   -4.8550   22.4940 C   0  0  0  0  0  0  0  0  0  0  0  0
  -22.4800   -4.2290   21.4720 F   0  0  0  0  0  0  0  0  0  0  0  0
  -20.4740   -4.0640   25.8020 F   0  0  0  0  0  0  0  0  0  0  0  0
  -23.1920  -13.4610   20.7200 C   0  0  0  0  0  0  0  0  0  0  0  0
  -22.3090  -12.8900   21.5330 N   0  0  0  0  0  0  0  0  0  0  0  0
  -22.8790  -14.4200   20.0170 O   0  0  0  0  0  0  0  0  0  0  0  0
  -22.5670  -12.1150   22.1240 H   0  0  0  0  0  0  0  0  0  0  0  0
  -21.3610  -13.2350   21.5590 H   0  0  0  0  0  0  0  0  0  0  0  0
  -25.9870  -15.0060   20.3240 N   0  0  0  0  0  0  0  0  0  0  0  0
  -25.2380  -15.6870   20.2950 H   0  0  0  0  0  0  0  0  0  0  0  0
  -26.9110  -15.4240   20.3030 H   0  0  0  0  0  0  0  0  0  0  0  0
  -26.3950  -19.3640   20.0920 C   0  0  0  0  0  2  0  0  0  0  0  0
  -26.1040  -17.9270   20.4160 C   0  0  0  0  0  2  0  0  0  0  0  0
  -27.2990  -18.2710   19.5530 C   0  0  0  0  0  3  0  0  0  0  0  0
  -29.8530  -21.6820   19.7570 C   0  0  0  0  0  2  0  0  0  0  0  0
  -29.3380  -22.6980   18.8010 N   0  0  0  0  0  4  0  0  0  0  0  0
  -28.6190  -22.1960   18.2930 H   0  0  0  0  0  0  0  0  0  0  0  0
  -30.0750  -22.8970   18.1410 H   0  0  0  0  0  0  0  0  0  0  0  0
  -28.7910  -23.9620   19.3810 C   0  0  0  0  0  2  0  0  0  0  0  0
  -28.5130  -25.0540   18.3100 C   0  0  0  0  0  2  0  0  0  0  0  0
  -28.4200  -26.3630   18.8960 O   0  0  0  0  0  0  0  0  0  0  0  0
  -24.7620  -31.0720   22.7730 C   0  0  0  0  0  0  0  0  0  0  0  0
  -27.2240  -27.0560   19.0040 C   0  0  0  0  0  0  0  0  0  0  0  0
  -23.4890  -29.9770   20.9560 C   0  0  0  0  0  3  0  0  0  0  0  0
  -24.8700  -28.6150   19.2980 C   0  0  0  0  0  0  0  0  0  0  0  0
  -26.0250  -30.2700   20.7780 C   0  0  0  0  0  2  0  0  0  0  0  0
  -26.0510  -29.0080   19.9360 C   0  0  0  0  0  0  0  0  0  0  0  0
  -27.2240  -28.2340   19.7890 C   0  0  0  0  0  3  0  0  0  0  0  0
  -26.0140  -26.6640   18.3830 C   0  0  0  0  0  3  0  0  0  0  0  0
  -24.8460  -27.4410   18.5250 C   0  0  0  0  0  3  0  0  0  0  0  0
  -23.6600  -29.5020   19.4880 C   0  0  0  0  0  2  0  0  0  0  0  0
  -24.7780  -30.4470   21.5620 N   0  0  0  0  0  0  0  0  0  0  0  0
  -23.6970  -31.2970   23.3650 O   0  0  0  0  0  0  0  0  0  0  0  0
  -22.8080  -28.8480   21.7630 C   0  0  0  0  0  0  0  0  0  0  0  0
  -21.4660  -28.8070   21.7230 N   0  0  0  0  0  0  0  0  0  0  0  0
  -23.4810  -28.0200   22.3830 O   0  0  0  0  0  0  0  0  0  0  0  0
  -20.9850  -29.5260   21.2020 H   0  0  0  0  0  0  0  0  0  0  0  0
  -18.0350  -27.9030   22.4050 C   0  0  0  0  0  0  0  0  0  0  0  0
  -20.6180  -27.8080   22.3740 C   0  0  0  0  0  3  0  0  0  0  0  0
  -20.4590  -26.5500   21.4880 C   0  0  0  0  0  2  0  0  0  0  0  0
  -19.2190  -26.5980   20.5880 C   0  0  0  0  0  2  0  0  0  0  0  0
  -17.9480  -26.7400   21.4310 C   0  0  0  0  0  2  0  0  0  0  0  0
  -19.2880  -28.4140   22.8360 C   0  0  0  0  0  0  0  0  0  0  0  0
  -19.3110  -29.5190   23.7150 C   0  0  0  0  0  3  0  0  0  0  0  0
  -18.1150  -30.1090   24.1620 C   0  0  0  0  0  3  0  0  0  0  0  0
  -16.8770  -29.5880   23.7460 C   0  0  0  0  0  3  0  0  0  0  0  0
  -16.8390  -28.4850   22.8750 C   0  0  0  0  0  3  0  0  0  0  0  0
  -26.0770  -31.5580   23.4600 C   0  0  0  0  0  3  0  0  0  0  0  0
  -25.8320  -32.9090   23.9800 N   0  0  0  0  0  0  0  0  0  0  0  0
  -26.2340  -34.0390   23.3820 C   0  0  0  0  0  0  0  0  0  0  0  0
  -26.9200  -34.0440   22.3570 O   0  0  0  0  0  0  0  0  0  0  0  0
  -25.2280  -32.9810   24.7860 H   0  0  0  0  0  0  0  0  0  0  0  0
  -24.6110  -35.9550   23.2520 C   0  0  0  0  0  1  0  0  0  0  0  0
  -25.8060  -35.3730   24.0230 C   0  0  0  0  0  3  0  0  0  0  0  0
  -27.9490  -36.0230   25.0310 C   0  0  0  0  0  1  0  0  0  0  0  0
  -26.8960  -36.3720   24.0810 N   0  0  0  0  0  0  0  0  0  0  0  0
  -26.5320  -37.2870   24.3340 H   0  0  0  0  0  0  0  0  0  0  0  0
  -26.5660  -30.5990   24.6140 C   0  0  1  0  0  0  0  0  0  0  0  0
  -25.4750  -30.2810   25.6630 C   0  0  0  0  0  1  0  0  0  0  0  0
  -27.0690  -29.2570   24.0340 C   0  0  0  0  0  1  0  0  0  0  0  0
  -27.7660  -31.2370   25.3540 C   0  0  0  0  0  1  0  0  0  0  0  0
  1 50  1  0
  1 12  1  0
  2  1  2  0
  3 17  1  0
  4  9  1  0
  5  6  1  0
  5  4  1  0
  7  6  1  0
  7 22  1  0
  7  8  1  0
  9  3  1  0
  9  8  1  0
 10  3  2  0
 11 15  1  0
 12 13  1  0
 12 11  2  0
 13 16  2  0
 14 15  2  0
 14 17  1  0
 16 14  1  0
 17 18  1  0
 19 22  1  0
 19 20  2  0
 20 21  1  0
 21 24  1  0
 22 23  1  0
 23 21  2  0
 24 25  1  0
 25 26  2  0
 27 30  1  0
 27 26  1  0
 28 27  2  0
 29 28  1  0
 29 24  2  0
 30 31  1  0
 31 36  2  0
 31 32  1  0
 32 33  2  0
 33 34  1  0
 34 38  1  0
 35 34  2  0
 36 35  1  0
 37 36  1  0
 39 20  1  0
 39 40  1  0
 40 43  1  0
 40 42  1  0
 41 39  2  0
 44 19  1  0
 45 44  1  0
 46 44  1  0
 47 48  1  0
 49 13  1  0
 49 47  1  0
 49 48  1  0
 51 54  1  0
 51 50  1  0
 52 51  1  0
 53 51  1  0
 55 56  1  0
 55 54  1  0
 56 58  1  0
 57 68  2  0
 58 63  1  0
 59 67  1  0
 59 69  1  0
 60 66  1  0
 60 62  1  0
 61 67  1  0
 62 61  1  0
 63 62  2  0
 64 65  1  0
 64 58  2  0
 65 60  2  0
 66 59  1  0
 67 57  1  0
 69 71  2  0
 70 69  1  0
 72 70  1  0
 73 78  2  0
 73 82  1  0
 74 70  1  0
 74 78  1  0
 75 74  1  0
 76 77  1  0
 76 75  1  0
 77 73  1  0
 78 79  1  0
 79 80  2  0
 81 80  1  0
 82 81  2  0
 83 57  1  0
 83 84  1  0
 83 93  1  0
 84 87  1  0
 85 84  1  0
 85 89  1  0
 86 85  2  0
 89 88  1  0
 89 91  1  0
 91 92  1  0
 91 90  1  0
 93 96  1  1
 93 94  1  0
 95 93  1  0
M  ISO  4   3 100  17 100  55 101  56 101
M  END
>  <TORSDO>  (52) 
F 21

>  <SCORE>  (52) 
-9.530

>  <name>  (52) 
52

>  <ligand_id>  (52) 
52

>  <original_smiles>  (52) 
[H]c1nc(N([H])C(=O)N2C([H])([H])C([H])([H])C([H])([H])C([H])(n3nc(-c4c([H])c([H])c(Oc5c([H])c([H])c(F)c([H])c5F)c([H])c4[H])c(C(=O)N([H])[H])c3N([H])[H])C2([H])[H])nc(C2([H])C([H])([H])C2([H])[H])c1C(=O)C([H])([H])[N+]([H])([H])C([H])([H])C([H])([H])Oc1c([H])c([H])c2c(c1[H])C([H])([H])N(C(=O)C([H])(N([H])C(=O)C([H])(N([H])C([H])([H])[H])C([H])([H])[H])C(C([H])([H])[H])(C([H])([H])[H])C([H])([H])[H])C([H])(C(=O)N([H])C1([H])c3c([H])c([H])c([H])c([H])c3C([H])([H])C([H])([H])C1([H])[H])C2([H])[H]

>  <smiles>  (52) 
[H]c1nc(N([H])C(=O)N2C([H])([H])C([H])([H])C([H])([H])C([H])(n3nc(-c4c([H])c([H])c(Oc5c([H])c([H])c(F)c([H])c5F)c([H])c4[H])c(C(=O)N([H])[H])c3N([H])[H])C2([H])[H])nc(C2([H])C([H])([H])C2([H])[H])c1C(=O)C([H])([H])[N+]([H])([H])C([H])([H])C([H])([H])Oc1c([H])c([H])c2c(c1[H])C([H])([H])N(C(=O)C([H])(N([H])C(=O)C([H])(N([H])C([H])([H])[H])C([H])([H])[H])C(C([H])([H])[H])(C([H])([H])[H])C([H])([H])[H])C([H])(C(=O)N([H])C1([H])c3c([H])c([H])c([H])c([H])c3C([H])([H])C([H])([H])C1([H])[H])C2([H])[H]

$$$$
53:0:0
     RDKit          3D

 89 98  0  0  1  0  0  0  0  0999 V2000
  -28.4730  -23.6880   21.3460 C   0  0  0  0  0  2  0  0  0  0  0  0
  -28.4710  -23.6240   19.2370 C   0  0  0  0  0  2  0  0  0  0  0  0
  -29.0520  -22.6110   20.3240 C   0  0  0  0  0  3  0  0  0  0  0  0
  -27.9020  -24.6980   20.2650 C   0  0  0  0  0  3  0  0  0  0  0  0
  -28.6150  -21.0860   20.3850 N   0  0  0  0  0  4  0  0  0  0  0  0
  -27.9320  -20.9210   19.6640 H   0  0  0  0  0  0  0  0  0  0  0  0
  -28.1280  -20.9530   21.2560 H   0  0  0  0  0  0  0  0  0  0  0  0
  -29.6500  -19.9030   20.3130 C   0  0  0  0  0  2  0  0  0  0  0  0
  -30.5160  -14.9010   20.3350 C   0  0  0  0  0  0  0  0  0  0  0  0
  -30.3800  -12.5740   19.3740 C   0  0  0  0  0  2  0  0  0  0  0  0
  -29.4430  -12.5780   18.1470 C   0  0  0  0  0  2  0  0  0  0  0  0
  -27.9780  -12.3880   18.5810 C   0  0  0  0  0  2  0  0  0  0  0  0
  -27.5880  -13.2870   19.7820 C   0  0  0  0  0  3  0  0  0  0  0  0
  -28.6470  -13.2560   20.9010 C   0  0  0  0  0  2  0  0  0  0  0  0
  -29.9160  -13.6520   20.2860 N   0  0  0  0  0  0  0  0  0  0  0  0
  -31.7220  -14.9740   20.0750 O   0  0  0  0  0  0  0  0  0  0  0  0
  -29.9030  -17.2230   21.3570 C   0  0  0  0  0  2  0  0  0  0  0  0
  -29.7430  -17.1750   19.3550 C   0  0  0  0  0  2  0  0  0  0  0  0
  -29.2500  -18.2760   20.3750 C   0  0  0  0  0  3  0  0  0  0  0  0
  -29.7200  -16.0740   20.3950 N   0  0  0  0  0  0  0  0  0  0  0  0
  -25.2050  -13.8610   20.5190 C   0  0  0  0  0  0  0  0  0  0  0  0
  -24.1420  -13.0830   20.8850 C   0  0  0  0  0  0  0  0  0  0  0  0
  -24.6100  -11.7320   20.8490 C   0  0  0  0  0  0  0  0  0  0  0  0
  -26.2500  -12.9860   20.2780 N   0  0  0  0  0  0  0  0  0  0  0  0
  -25.9010  -11.7000   20.5420 N   0  0  0  0  0  0  0  0  0  0  0  0
  -23.8860  -10.4670   21.0300 C   0  0  0  0  0  0  0  0  0  0  0  0
  -24.3080   -9.5050   21.9750 C   0  0  0  0  0  3  0  0  0  0  0  0
  -23.5830   -8.3060   22.1480 C   0  0  0  0  0  3  0  0  0  0  0  0
  -22.4230   -8.0610   21.3750 C   0  0  0  0  0  0  0  0  0  0  0  0
  -22.0210   -9.0110   20.4200 C   0  0  0  0  0  3  0  0  0  0  0  0
  -22.7460  -10.2010   20.2450 C   0  0  0  0  0  3  0  0  0  0  0  0
  -21.6720   -6.9130   21.4550 O   0  0  0  0  0  0  0  0  0  0  0  0
  -21.5910   -6.1840   22.6150 C   0  0  0  0  0  0  0  0  0  0  0  0
  -21.1120   -6.7480   23.8170 C   0  0  0  0  0  3  0  0  0  0  0  0
  -20.9810   -5.9470   24.9680 C   0  0  0  0  0  3  0  0  0  0  0  0
  -21.3180   -4.5810   24.9180 C   0  0  0  0  0  0  0  0  0  0  0  0
  -21.7900   -4.0150   23.7200 C   0  0  0  0  0  3  0  0  0  0  0  0
  -21.9240   -4.8150   22.5710 C   0  0  0  0  0  0  0  0  0  0  0  0
  -22.3590   -4.2580   21.4140 F   0  0  0  0  0  0  0  0  0  0  0  0
  -21.1830   -3.8100   26.0220 F   0  0  0  0  0  0  0  0  0  0  0  0
  -22.7430  -13.5540   21.1530 C   0  0  0  0  0  0  0  0  0  0  0  0
  -22.0160  -12.8570   22.0170 N   0  0  0  0  0  0  0  0  0  0  0  0
  -22.3040  -14.5800   20.6340 O   0  0  0  0  0  0  0  0  0  0  0  0
  -22.3840  -12.0280   22.4600 H   0  0  0  0  0  0  0  0  0  0  0  0
  -21.0780  -13.1570   22.2420 H   0  0  0  0  0  0  0  0  0  0  0  0
  -25.3710  -15.2330   20.3520 N   0  0  0  0  0  0  0  0  0  0  0  0
  -24.6160  -15.8980   20.4880 H   0  0  0  0  0  0  0  0  0  0  0  0
  -26.2410  -15.6690   20.0750 H   0  0  0  0  0  0  0  0  0  0  0  0
  -28.2180  -26.2190   20.2480 O   0  0  0  0  0  0  0  0  0  0  0  0
  -24.6340  -31.9020   23.2460 C   0  0  0  0  0  0  0  0  0  0  0  0
  -27.1720  -27.2050   20.1870 C   0  0  0  0  0  0  0  0  0  0  0  0
  -23.4220  -30.5200   21.6020 C   0  0  0  0  0  3  0  0  0  0  0  0
  -24.8590  -28.9490   20.1660 C   0  0  0  0  0  0  0  0  0  0  0  0
  -25.9780  -30.7740   21.4380 C   0  0  0  0  0  2  0  0  0  0  0  0
  -26.0400  -29.3870   20.7790 C   0  0  0  0  0  0  0  0  0  0  0  0
  -27.2000  -28.5290   20.7760 C   0  0  0  0  0  3  0  0  0  0  0  0
  -25.9750  -26.8740   19.5160 C   0  0  0  0  0  3  0  0  0  0  0  0
  -24.8360  -27.7050   19.5210 C   0  0  0  0  0  3  0  0  0  0  0  0
  -23.6370  -29.8490   20.2190 C   0  0  0  0  0  2  0  0  0  0  0  0
  -24.6970  -31.0870   22.1490 N   0  0  0  0  0  0  0  0  0  0  0  0
  -23.5500  -32.1910   23.7760 O   0  0  0  0  0  0  0  0  0  0  0  0
  -22.7410  -29.5110   22.5610 C   0  0  0  0  0  0  0  0  0  0  0  0
  -21.4110  -29.3480   22.4370 N   0  0  0  0  0  0  0  0  0  0  0  0
  -23.4110  -28.8770   23.3800 O   0  0  0  0  0  0  0  0  0  0  0  0
  -20.9280  -29.9130   21.7530 H   0  0  0  0  0  0  0  0  0  0  0  0
  -18.0230  -28.1730   22.9470 C   0  0  0  0  0  0  0  0  0  0  0  0
  -20.5860  -28.4160   23.2090 C   0  0  0  0  0  3  0  0  0  0  0  0
  -20.6740  -26.9840   22.6310 C   0  0  0  0  0  2  0  0  0  0  0  0
  -19.5670  -26.6720   21.6180 C   0  0  0  0  0  2  0  0  0  0  0  0
  -18.1890  -26.8250   22.2660 C   0  0  0  0  0  2  0  0  0  0  0  0
  -19.1490  -28.9280   23.3760 C   0  0  0  0  0  0  0  0  0  0  0  0
  -18.9390  -30.1880   23.9750 C   0  0  0  0  0  3  0  0  0  0  0  0
  -17.6380  -30.6970   24.1470 C   0  0  0  0  0  3  0  0  0  0  0  0
  -16.5270  -29.9420   23.7320 C   0  0  0  0  0  3  0  0  0  0  0  0
  -16.7210  -28.6820   23.1380 C   0  0  0  0  0  3  0  0  0  0  0  0
  -25.9170  -32.5250   23.8720 C   0  0  0  0  0  3  0  0  0  0  0  0
  -25.6140  -33.9240   24.2130 N   0  0  0  0  0  0  0  0  0  0  0  0
  -25.9260  -34.9820   23.4510 C   0  0  0  0  0  0  0  0  0  0  0  0
  -26.5670  -34.8820   22.4010 O   0  0  0  0  0  0  0  0  0  0  0  0
  -25.0370  -34.0740   25.0290 H   0  0  0  0  0  0  0  0  0  0  0  0
  -24.1780  -36.7720   23.1710 C   0  0  0  0  0  1  0  0  0  0  0  0
  -25.4540  -36.3700   23.9290 C   0  0  0  0  0  3  0  0  0  0  0  0
  -27.6160  -37.2680   24.6680 C   0  0  0  0  0  1  0  0  0  0  0  0
  -26.4770  -37.4260   23.7700 N   0  0  0  0  0  0  0  0  0  0  0  0
  -26.0730  -38.3450   23.9290 H   0  0  0  0  0  0  0  0  0  0  0  0
  -26.4280  -31.7480   25.1480 C   0  0  1  0  0  0  0  0  0  0  0  0
  -25.3330  -31.5170   26.2150 C   0  0  0  0  0  1  0  0  0  0  0  0
  -27.0010  -30.3650   24.7580 C   0  0  0  0  0  1  0  0  0  0  0  0
  -27.5840  -32.5320   25.8110 C   0  0  0  0  0  1  0  0  0  0  0  0
  2  4  1  0
  2  3  1  0
  3  5  1  0
  3  1  1  0
  4 49  1  0
  4  1  1  0
  5  7  1  0
  6  5  1  0
  8  5  1  0
  9 20  1  0
 10 15  1  0
 11 12  1  0
 11 10  1  0
 13 12  1  0
 13 24  1  0
 13 14  1  0
 15  9  1  0
 15 14  1  0
 16  9  2  0
 18 19  1  0
 18 20  1  0
 19  8  1  0
 19 17  1  0
 20 17  1  0
 21 22  2  0
 22 41  1  0
 23 22  1  0
 23 26  1  0
 24 21  1  0
 24 25  1  0
 25 23  2  0
 26 27  1  0
 27 28  2  0
 29 32  1  0
 29 28  1  0
 30 29  2  0
 31 30  1  0
 31 26  2  0
 32 33  1  0
 33 34  1  0
 34 35  2  0
 36 35  1  0
 36 40  1  0
 37 36  2  0
 38 33  2  0
 38 37  1  0
 39 38  1  0
 41 42  1  0
 42 45  1  0
 42 44  1  0
 43 41  2  0
 46 47  1  0
 46 21  1  0
 48 46  1  0
 50 61  2  0
 51 49  1  0
 51 56  1  0
 52 60  1  0
 52 62  1  0
 53 59  1  0
 53 55  1  0
 54 60  1  0
 55 54  1  0
 56 55  2  0
 57 58  1  0
 57 51  2  0
 58 53  2  0
 59 52  1  0
 60 50  1  0
 62 64  2  0
 63 62  1  0
 65 63  1  0
 66 75  2  0
 66 71  1  0
 67 63  1  0
 67 71  1  0
 68 67  1  0
 69 70  1  0
 69 68  1  0
 70 66  1  0
 71 72  2  0
 72 73  1  0
 74 73  2  0
 75 74  1  0
 76 50  1  0
 76 77  1  0
 76 86  1  0
 77 80  1  0
 78 82  1  0
 78 77  1  0
 79 78  2  0
 82 81  1  0
 84 82  1  0
 84 85  1  0
 84 83  1  0
 86 89  1  1
 86 87  1  0
 88 86  1  0
M  ISO  4   4 101   9 100  20 100  49 101
M  END
>  <TORSDO>  (53) 
F 18

>  <SCORE>  (53) 
-14.595

>  <name>  (53) 
53

>  <ligand_id>  (53) 
53

>  <original_smiles>  (53) 
[H]c1c([H])c([H])c2c(c1[H])C([H])([H])C([H])([H])C([H])([H])C2([H])N([H])C(=O)C1([H])N(C(=O)C([H])(N([H])C(=O)C([H])(N([H])C([H])([H])[H])C([H])([H])[H])C(C([H])([H])[H])(C([H])([H])[H])C([H])([H])[H])C([H])([H])c2c([H])c(OC3([H])C([H])([H])C([H])([N+]([H])([H])C([H])([H])C4([H])C([H])([H])N(C(=O)N5C([H])([H])C([H])([H])C([H])([H])C([H])(n6nc(-c7c([H])c([H])c(Oc8c([H])c([H])c(F)c([H])c8F)c([H])c7[H])c(C(=O)N([H])[H])c6N([H])[H])C5([H])[H])C4([H])[H])C3([H])[H])c([H])c([H])c2C1([H])[H]

>  <smiles>  (53) 
[H]c1c([H])c([H])c2c(c1[H])C([H])([H])C([H])([H])C([H])([H])C2([H])N([H])C(=O)C1([H])N(C(=O)C([H])(N([H])C(=O)C([H])(N([H])C([H])([H])[H])C([H])([H])[H])C(C([H])([H])[H])(C([H])([H])[H])C([H])([H])[H])C([H])([H])c2c([H])c(OC3([H])C([H])([H])C([H])([N+]([H])([H])C([H])([H])C4([H])C([H])([H])N(C(=O)N5C([H])([H])C([H])([H])C([H])([H])C([H])(n6nc(-c7c([H])c([H])c(Oc8c([H])c([H])c(F)c([H])c8F)c([H])c7[H])c(C(=O)N([H])[H])c6N([H])[H])C5([H])[H])C4([H])[H])C3([H])[H])c([H])c([H])c2C1([H])[H]

$$$$
54:0:0
     RDKit          3D

 97106  0  0  1  0  0  0  0  0999 V2000
  -29.9090  -20.5060   19.2730 C   0  0  0  0  0  2  0  0  0  0  0  0
  -32.2170  -20.8790   20.3180 C   0  0  0  0  0  2  0  0  0  0  0  0
  -30.0300  -22.0380   19.1490 C   0  0  0  0  0  2  0  0  0  0  0  0
  -31.5400  -22.0070   21.1380 C   0  0  0  0  0  2  0  0  0  0  0  0
  -31.2220  -19.8410   19.7500 C   0  0  0  0  0  3  0  0  0  0  0  0
  -30.3790  -22.6630   20.4550 N   0  0  1  0  0  4  0  0  0  0  0  0
  -29.5820  -22.4640   21.0430 H   0  0  0  0  0  0  0  0  0  0  0  0
  -31.0730  -14.3680   19.5620 C   0  0  0  0  0  0  0  0  0  0  0  0
  -30.4480  -12.4360   18.1440 C   0  0  0  0  0  2  0  0  0  0  0  0
  -29.2870  -12.8290   17.2080 C   0  0  0  0  0  2  0  0  0  0  0  0
  -27.9220  -12.6650   17.9080 C   0  0  0  0  0  2  0  0  0  0  0  0
  -27.8920  -13.3160   19.3140 C   0  0  0  0  0  3  0  0  0  0  0  0
  -29.1240  -12.8710   20.1310 C   0  0  0  0  0  2  0  0  0  0  0  0
  -30.3400  -13.2370   19.3730 N   0  0  0  0  0  0  0  0  0  0  0  0
  -31.9820  -14.7170   18.7950 O   0  0  0  0  0  0  0  0  0  0  0  0
  -30.3750  -16.6560   22.3600 C   0  0  0  0  0  3  0  0  0  0  0  0
  -30.3020  -17.9890   22.7710 C   0  0  0  0  0  0  0  0  0  0  0  0
  -30.7750  -16.3880   21.0420 C   0  0  0  0  0  0  0  0  0  0  0  0
  -30.9680  -18.6660   20.6970 C   0  0  0  0  0  0  0  0  0  0  0  0
  -29.8700  -18.3610   24.1730 C   0  0  0  0  0  1  0  0  0  0  0  0
  -30.6020  -18.9910   21.9310 N   0  0  0  0  0  0  0  0  0  0  0  0
  -31.0680  -17.4220   20.2160 N   0  0  0  0  0  0  0  0  0  0  0  0
  -30.7610  -15.0130   20.6980 N   0  0  0  0  0  0  0  0  0  0  0  0
  -30.1950  -14.4490   21.3080 H   0  0  0  0  0  0  0  0  0  0  0  0
  -25.7030  -13.8920   20.5460 C   0  0  0  0  0  0  0  0  0  0  0  0
  -24.6920  -13.1050   21.0290 C   0  0  0  0  0  0  0  0  0  0  0  0
  -25.0730  -11.7580   20.7470 C   0  0  0  0  0  0  0  0  0  0  0  0
  -26.6410  -13.0210   20.0130 N   0  0  0  0  0  0  0  0  0  0  0  0
  -26.2730  -11.7250   20.1850 N   0  0  0  0  0  0  0  0  0  0  0  0
  -24.3390  -10.4980   20.9310 C   0  0  0  0  0  0  0  0  0  0  0  0
  -24.7980   -9.4970   21.8140 C   0  0  0  0  0  3  0  0  0  0  0  0
  -24.0670   -8.3020   21.9860 C   0  0  0  0  0  3  0  0  0  0  0  0
  -22.8610   -8.1000   21.2730 C   0  0  0  0  0  0  0  0  0  0  0  0
  -22.4190   -9.0910   20.3770 C   0  0  0  0  0  3  0  0  0  0  0  0
  -23.1530  -10.2760   20.2040 C   0  0  0  0  0  3  0  0  0  0  0  0
  -22.0990   -6.9610   21.3560 O   0  0  0  0  0  0  0  0  0  0  0  0
  -21.9460   -6.2800   22.5380 C   0  0  0  0  0  0  0  0  0  0  0  0
  -21.4320   -6.9030   23.6950 C   0  0  0  0  0  3  0  0  0  0  0  0
  -21.2280   -6.1500   24.8680 C   0  0  0  0  0  3  0  0  0  0  0  0
  -21.5280   -4.7740   24.8850 C   0  0  0  0  0  0  0  0  0  0  0  0
  -22.0370   -4.1510   23.7310 C   0  0  0  0  0  3  0  0  0  0  0  0
  -22.2420   -4.9020   22.5600 C   0  0  0  0  0  0  0  0  0  0  0  0
  -22.7120   -4.2920   21.4450 F   0  0  0  0  0  0  0  0  0  0  0  0
  -21.3260   -4.0490   26.0080 F   0  0  0  0  0  0  0  0  0  0  0  0
  -23.3990  -13.5760   21.6330 C   0  0  0  0  0  0  0  0  0  0  0  0
  -22.8460  -12.8140   22.5700 N   0  0  0  0  0  0  0  0  0  0  0  0
  -22.8970  -14.6510   21.3100 O   0  0  0  0  0  0  0  0  0  0  0  0
  -23.2680  -11.9400   22.8480 H   0  0  0  0  0  0  0  0  0  0  0  0
  -21.9890  -13.1080   23.0170 H   0  0  0  0  0  0  0  0  0  0  0  0
  -25.8950  -15.2700   20.5000 N   0  0  0  0  0  0  0  0  0  0  0  0
  -25.1970  -15.9250   20.8350 H   0  0  0  0  0  0  0  0  0  0  0  0
  -26.6860  -15.7220   20.0600 H   0  0  0  0  0  0  0  0  0  0  0  0
  -30.4440  -24.1590   20.3980 C   0  0  0  0  0  2  0  0  0  0  0  0
  -30.3190  -24.7620   22.9050 C   0  0  0  0  0  1  0  0  0  0  0  0
  -29.6370  -24.8730   21.5270 C   0  0  0  0  0  3  0  0  0  0  0  0
  -29.3660  -26.3700   21.2190 C   0  0  0  0  0  2  0  0  0  0  0  0
  -28.5690  -26.4900   20.0420 O   0  0  0  0  0  0  0  0  0  0  0  0
  -24.5790  -31.6580   23.0120 C   0  0  0  0  0  0  0  0  0  0  0  0
  -27.4110  -27.2350   20.0910 C   0  0  0  0  0  0  0  0  0  0  0  0
  -23.4400  -30.1770   21.3890 C   0  0  0  0  0  3  0  0  0  0  0  0
  -24.9620  -28.6470   20.0320 C   0  0  0  0  0  0  0  0  0  0  0  0
  -25.9530  -30.6130   21.2160 C   0  0  0  0  0  2  0  0  0  0  0  0
  -26.0920  -29.2270   20.6240 C   0  0  0  0  0  0  0  0  0  0  0  0
  -27.3200  -28.5280   20.6620 C   0  0  0  0  0  3  0  0  0  0  0  0
  -26.2690  -26.6720   19.4900 C   0  0  0  0  0  3  0  0  0  0  0  0
  -25.0430  -27.3630   19.4650 C   0  0  0  0  0  3  0  0  0  0  0  0
  -23.6920  -29.4680   20.0320 C   0  0  0  0  0  2  0  0  0  0  0  0
  -24.6740  -30.8310   21.9320 N   0  0  0  0  0  0  0  0  0  0  0  0
  -23.4840  -31.9100   23.5320 O   0  0  0  0  0  0  0  0  0  0  0  0
  -22.8080  -29.1620   22.3680 C   0  0  0  0  0  0  0  0  0  0  0  0
  -21.4920  -28.9330   22.2250 N   0  0  0  0  0  0  0  0  0  0  0  0
  -23.4970  -28.5830   23.2110 O   0  0  0  0  0  0  0  0  0  0  0  0
  -20.9940  -29.4560   21.5180 H   0  0  0  0  0  0  0  0  0  0  0  0
  -18.1500  -27.6500   22.7050 C   0  0  0  0  0  0  0  0  0  0  0  0
  -20.6930  -27.9900   23.0080 C   0  0  0  0  0  3  0  0  0  0  0  0
  -20.8470  -26.5480   22.4690 C   0  0  0  0  0  2  0  0  0  0  0  0
  -19.7700  -26.1670   21.4480 C   0  0  0  0  0  2  0  0  0  0  0  0
  -18.3750  -26.2880   22.0680 C   0  0  0  0  0  2  0  0  0  0  0  0
  -19.2390  -28.4540   23.1330 C   0  0  0  0  0  0  0  0  0  0  0  0
  -18.9770  -29.7260   23.6870 C   0  0  0  0  0  3  0  0  0  0  0  0
  -17.6550  -30.1930   23.8200 C   0  0  0  0  0  3  0  0  0  0  0  0
  -16.5800  -29.3860   23.4090 C   0  0  0  0  0  3  0  0  0  0  0  0
  -16.8280  -28.1180   22.8560 C   0  0  0  0  0  3  0  0  0  0  0  0
  -25.8400  -32.3410   23.6310 C   0  0  0  0  0  3  0  0  0  0  0  0
  -26.4540  -31.5340   24.8390 C   0  0  1  0  0  0  0  0  0  0  0  0
  -25.4170  -31.1350   25.9150 C   0  0  0  0  0  1  0  0  0  0  0  0
  -27.1390  -30.2420   24.3350 C   0  0  0  0  0  1  0  0  0  0  0  0
  -27.5510  -32.3790   25.5310 C   0  0  0  0  0  1  0  0  0  0  0  0
  -25.4460  -33.6910   24.0540 N   0  0  0  0  0  0  0  0  0  0  0  0
  -25.6750  -34.8050   23.3460 C   0  0  0  0  0  0  0  0  0  0  0  0
  -26.3080  -34.8100   22.2870 O   0  0  0  0  0  0  0  0  0  0  0  0
  -24.8700  -33.7570   24.8800 H   0  0  0  0  0  0  0  0  0  0  0  0
  -23.8110  -36.4830   23.1550 C   0  0  0  0  0  1  0  0  0  0  0  0
  -25.1070  -36.1250   23.9010 C   0  0  0  0  0  3  0  0  0  0  0  0
  -27.2000  -37.1160   24.7140 C   0  0  0  0  0  1  0  0  0  0  0  0
  -26.0580  -37.2550   23.8170 N   0  0  0  0  0  0  0  0  0  0  0  0
  -25.5930  -38.1350   24.0300 H   0  0  0  0  0  0  0  0  0  0  0  0
  1  5  1  0
  2  4  1  0
  3  1  1  0
  3  6  1  0
  5  2  1  0
  5 19  1  0
  6  7  1  1
  6  4  1  0
  8 23  1  0
  9 14  1  0
 10 11  1  0
 10  9  1  0
 12 11  1  0
 12 28  1  0
 12 13  1  0
 14  8  1  0
 14 13  1  0
 15  8  2  0
 16 17  2  0
 17 20  1  0
 18 16  1  0
 19 21  2  0
 21 17  1  0
 22 19  1  0
 22 18  2  0
 23 18  1  0
 23 24  1  0
 25 26  2  0
 26 45  1  0
 27 30  1  0
 27 26  1  0
 28 29  1  0
 28 25  1  0
 29 27  2  0
 30 31  1  0
 31 32  2  0
 33 36  1  0
 33 32  1  0
 34 33  2  0
 35 34  1  0
 35 30  2  0
 36 37  1  0
 37 42  2  0
 37 38  1  0
 38 39  2  0
 39 40  1  0
 40 44  1  0
 41 40  2  0
 42 41  1  0
 43 42  1  0
 45 46  1  0
 46 48  1  0
 46 49  1  0
 47 45  2  0
 50 25  1  0
 50 51  1  0
 52 50  1  0
 53  6  1  0
 53 55  1  0
 55 54  1  0
 56 55  1  0
 57 59  1  0
 57 56  1  0
 58 69  2  0
 59 64  1  0
 60 68  1  0
 60 70  1  0
 61 63  1  0
 62 68  1  0
 63 64  2  0
 63 62  1  0
 65 59  2  0
 66 65  1  0
 66 61  2  0
 67 61  1  0
 67 60  1  0
 68 58  1  0
 70 72  2  0
 71 70  1  0
 73 71  1  0
 74 83  2  0
 74 79  1  0
 75 71  1  0
 75 79  1  0
 76 75  1  0
 77 78  1  0
 77 76  1  0
 78 74  1  0
 79 80  2  0
 80 81  1  0
 82 81  2  0
 83 82  1  0
 84 58  1  0
 84 89  1  0
 84 85  1  0
 85 88  1  1
 85 86  1  0
 87 85  1  0
 89 92  1  0
 90 94  1  0
 90 89  1  0
 91 90  2  0
 94 93  1  0
 96 94  1  0
 96 97  1  0
 96 95  1  0
M  ISO  4   8 100  23 100  56 101  57 101
M  END
>  <TORSDO>  (54) 
F 19

>  <SCORE>  (54) 
-9.309

>  <name>  (54) 
54

>  <ligand_id>  (54) 
54

>  <original_smiles>  (54) 
[H]c1c(N([H])C(=O)N2C([H])([H])C([H])([H])C([H])([H])C([H])(n3nc(-c4c([H])c([H])c(Oc5c([H])c([H])c(F)c([H])c5F)c([H])c4[H])c(C(=O)N([H])[H])c3N([H])[H])C2([H])[H])nc(C2([H])C([H])([H])C([H])([H])[N+]([H])(C([H])([H])C([H])(C([H])([H])[H])C([H])([H])Oc3c([H])c([H])c4c(c3[H])C([H])([H])N(C(=O)C([H])(N([H])C(=O)C([H])(N([H])C([H])([H])[H])C([H])([H])[H])C(C([H])([H])[H])(C([H])([H])[H])C([H])([H])[H])C([H])(C(=O)N([H])C3([H])c5c([H])c([H])c([H])c([H])c5C([H])([H])C([H])([H])C3([H])[H])C4([H])[H])C([H])([H])C2([H])[H])nc1C([H])([H])[H]

>  <smiles>  (54) 
[H]c1c(N([H])C(=O)N2C([H])([H])C([H])([H])C([H])([H])C([H])(n3nc(-c4c([H])c([H])c(Oc5c([H])c([H])c(F)c([H])c5F)c([H])c4[H])c(C(=O)N([H])[H])c3N([H])[H])C2([H])[H])nc(C2([H])C([H])([H])C([H])([H])[N+]([H])(C([H])([H])C([H])(C([H])([H])[H])C([H])([H])Oc3c([H])c([H])c4c(c3[H])C([H])([H])N(C(=O)C([H])(N([H])C(=O)C([H])(N([H])C([H])([H])[H])C([H])([H])[H])C(C([H])([H])[H])(C([H])([H])[H])C([H])([H])[H])C([H])(C(=O)N([H])C3([H])c5c([H])c([H])c([H])c([H])c5C([H])([H])C([H])([H])C3([H])[H])C4([H])[H])C([H])([H])C2([H])[H])nc1C([H])([H])[H]

$$$$
55:0:0
     RDKit          3D

 89 97  0  0  1  0  0  0  0  0999 V2000
  -28.0690  -22.4110   19.6390 C   0  0  0  0  0  3  0  0  0  0  0  0
  -29.7260  -23.3600   21.0080 C   0  0  0  0  0  2  0  0  0  0  0  0
  -28.6120  -23.6040   20.1820 C   0  0  0  0  0  0  0  0  0  0  0  0
  -29.5970  -21.0410   20.6740 C   0  0  0  0  0  0  0  0  0  0  0  0
  -28.5410  -21.1540   19.8790 N   0  0  0  0  0  0  0  0  0  0  0  0
  -30.2070  -22.0950   21.2350 N   0  0  0  0  0  0  0  0  0  0  0  0
  -27.8690  -24.9620   19.8620 C   0  0  0  0  0  2  0  0  0  0  0  0
  -28.2330  -26.3580   20.2650 O   0  0  0  0  0  0  0  0  0  0  0  0
  -24.6040  -31.8940   23.2710 C   0  0  0  0  0  0  0  0  0  0  0  0
  -27.1720  -27.3010   20.1820 C   0  0  0  0  0  0  0  0  0  0  0  0
  -23.3920  -30.5130   21.6300 C   0  0  0  0  0  3  0  0  0  0  0  0
  -24.8310  -28.9750   20.1870 C   0  0  0  0  0  0  0  0  0  0  0  0
  -25.9410  -30.8010   21.4540 C   0  0  0  0  0  2  0  0  0  0  0  0
  -26.0090  -29.4270   20.7960 C   0  0  0  0  0  0  0  0  0  0  0  0
  -27.1820  -28.6010   20.7920 C   0  0  0  0  0  3  0  0  0  0  0  0
  -25.9700  -26.9450   19.5130 C   0  0  0  0  0  3  0  0  0  0  0  0
  -24.8160  -27.7380   19.5380 C   0  0  0  0  0  3  0  0  0  0  0  0
  -23.6010  -29.8560   20.2440 C   0  0  0  0  0  2  0  0  0  0  0  0
  -24.6650  -31.0870   22.1730 N   0  0  0  0  0  0  0  0  0  0  0  0
  -23.5230  -32.1770   23.8050 O   0  0  0  0  0  0  0  0  0  0  0  0
  -22.7250  -29.4890   22.5830 C   0  0  0  0  0  0  0  0  0  0  0  0
  -21.3990  -29.3140   22.4520 N   0  0  0  0  0  0  0  0  0  0  0  0
  -23.4010  -28.8590   23.4010 O   0  0  0  0  0  0  0  0  0  0  0  0
  -20.9130  -29.8750   21.7670 H   0  0  0  0  0  0  0  0  0  0  0  0
  -18.0170  -28.1200   22.9450 C   0  0  0  0  0  0  0  0  0  0  0  0
  -20.5760  -28.3770   23.2200 C   0  0  0  0  0  3  0  0  0  0  0  0
  -20.6770  -26.9450   22.6450 C   0  0  0  0  0  2  0  0  0  0  0  0
  -19.5760  -26.6230   21.6290 C   0  0  0  0  0  2  0  0  0  0  0  0
  -18.1930  -26.7700   22.2700 C   0  0  0  0  0  2  0  0  0  0  0  0
  -19.1370  -28.8820   23.3770 C   0  0  0  0  0  0  0  0  0  0  0  0
  -18.9180  -30.1450   23.9680 C   0  0  0  0  0  3  0  0  0  0  0  0
  -17.6130  -30.6470   24.1310 C   0  0  0  0  0  3  0  0  0  0  0  0
  -16.5090  -29.8830   23.7160 C   0  0  0  0  0  3  0  0  0  0  0  0
  -16.7120  -28.6220   23.1280 C   0  0  0  0  0  3  0  0  0  0  0  0
  -25.8910  -32.5190   23.8920 C   0  0  0  0  0  3  0  0  0  0  0  0
  -26.3970  -31.7490   25.1740 C   0  0  1  0  0  0  0  0  0  0  0  0
  -25.2970  -31.5240   26.2390 C   0  0  0  0  0  1  0  0  0  0  0  0
  -26.9710  -30.3650   24.7920 C   0  0  0  0  0  1  0  0  0  0  0  0
  -27.5510  -32.5380   25.8340 C   0  0  0  0  0  1  0  0  0  0  0  0
  -25.5890  -33.9200   24.2170 N   0  0  0  0  0  0  0  0  0  0  0  0
  -25.9150  -34.9680   23.4480 C   0  0  0  0  0  0  0  0  0  0  0  0
  -26.5700  -34.8560   22.4080 O   0  0  0  0  0  0  0  0  0  0  0  0
  -25.0070  -34.0830   25.0250 H   0  0  0  0  0  0  0  0  0  0  0  0
  -24.1840  -36.7620   23.1100 C   0  0  0  0  0  1  0  0  0  0  0  0
  -25.4380  -36.3600   23.9030 C   0  0  0  0  0  3  0  0  0  0  0  0
  -27.5900  -37.2440   24.6900 C   0  0  0  0  0  1  0  0  0  0  0  0
  -26.4710  -37.4110   23.7670 N   0  0  0  0  0  0  0  0  0  0  0  0
  -26.0690  -38.3320   23.9200 H   0  0  0  0  0  0  0  0  0  0  0  0
  -30.1430  -19.7990   20.9540 O   0  0  0  0  0  0  0  0  0  0  0  0
  -29.5380  -18.5160   20.5450 C   0  0  0  0  0  2  0  0  0  0  0  0
  -30.4530  -17.2420   20.8820 C   0  0  0  0  0  2  0  0  0  0  0  0
  -30.6260  -14.6980   20.4190 C   0  0  0  0  0  0  0  0  0  0  0  0
  -30.3690  -12.4590   19.3590 C   0  0  0  0  0  2  0  0  0  0  0  0
  -29.4190  -12.5620   18.1470 C   0  0  0  0  0  2  0  0  0  0  0  0
  -27.9540  -12.3910   18.5930 C   0  0  0  0  0  2  0  0  0  0  0  0
  -27.5970  -13.2670   19.8240 C   0  0  0  0  0  3  0  0  0  0  0  0
  -28.6680  -13.1620   20.9330 C   0  0  0  0  0  2  0  0  0  0  0  0
  -29.9640  -13.5000   20.3290 N   0  0  0  0  0  0  0  0  0  0  0  0
  -31.7980  -14.7960   20.0510 O   0  0  0  0  0  0  0  0  0  0  0  0
  -29.9150  -15.8280   20.7480 N   0  0  0  0  0  0  0  0  0  0  0  0
  -28.9430  -15.6870   20.9840 H   0  0  0  0  0  0  0  0  0  0  0  0
  -25.2120  -13.8470   20.5730 C   0  0  0  0  0  0  0  0  0  0  0  0
  -24.1510  -13.0660   20.9460 C   0  0  0  0  0  0  0  0  0  0  0  0
  -24.6180  -11.7160   20.9030 C   0  0  0  0  0  0  0  0  0  0  0  0
  -26.2570  -12.9720   20.3230 N   0  0  0  0  0  0  0  0  0  0  0  0
  -25.9070  -11.6860   20.5830 N   0  0  0  0  0  0  0  0  0  0  0  0
  -23.8970  -10.4500   21.0880 C   0  0  0  0  0  0  0  0  0  0  0  0
  -24.3480   -9.4700   22.0000 C   0  0  0  0  0  3  0  0  0  0  0  0
  -23.6270   -8.2690   22.1750 C   0  0  0  0  0  3  0  0  0  0  0  0
  -22.4400   -8.0410   21.4390 C   0  0  0  0  0  0  0  0  0  0  0  0
  -22.0080   -9.0090   20.5160 C   0  0  0  0  0  3  0  0  0  0  0  0
  -22.7300  -10.2010   20.3390 C   0  0  0  0  0  3  0  0  0  0  0  0
  -21.6880   -6.8930   21.5250 O   0  0  0  0  0  0  0  0  0  0  0  0
  -21.6670   -6.1310   22.6650 C   0  0  0  0  0  0  0  0  0  0  0  0
  -21.2630   -6.6620   23.9090 C   0  0  0  0  0  3  0  0  0  0  0  0
  -21.1890   -5.8260   25.0420 C   0  0  0  0  0  3  0  0  0  0  0  0
  -21.5080   -4.4600   24.9310 C   0  0  0  0  0  0  0  0  0  0  0  0
  -21.9060   -3.9280   23.6910 C   0  0  0  0  0  3  0  0  0  0  0  0
  -21.9810   -4.7610   22.5610 C   0  0  0  0  0  0  0  0  0  0  0  0
  -22.3440   -4.2380   21.3650 F   0  0  0  0  0  0  0  0  0  0  0  0
  -21.4310   -3.6540   26.0160 F   0  0  0  0  0  0  0  0  0  0  0  0
  -22.7540  -13.5360   21.2320 C   0  0  0  0  0  0  0  0  0  0  0  0
  -22.0350  -12.8320   22.0990 N   0  0  0  0  0  0  0  0  0  0  0  0
  -22.3080  -14.5630   20.7220 O   0  0  0  0  0  0  0  0  0  0  0  0
  -22.4080  -12.0000   22.5320 H   0  0  0  0  0  0  0  0  0  0  0  0
  -21.0990  -13.1300   22.3350 H   0  0  0  0  0  0  0  0  0  0  0  0
  -25.3680  -15.2190   20.4010 N   0  0  0  0  0  0  0  0  0  0  0  0
  -24.5970  -15.8690   20.5140 H   0  0  0  0  0  0  0  0  0  0  0  0
  -26.2070  -15.6600   20.0450 H   0  0  0  0  0  0  0  0  0  0  0  0
  1  5  1  0
  1  3  2  0
  2  6  1  0
  3  2  1  0
  4 49  1  0
  4  6  2  0
  5  4  2  0
  7  3  1  0
  7  8  1  0
  9 20  2  0
 10  8  1  0
 10 15  1  0
 11 19  1  0
 11 21  1  0
 12 18  1  0
 12 14  1  0
 13 19  1  0
 14 13  1  0
 15 14  2  0
 16 17  1  0
 16 10  2  0
 17 12  2  0
 18 11  1  0
 19  9  1  0
 21 23  2  0
 22 21  1  0
 24 22  1  0
 25 34  2  0
 25 30  1  0
 26 22  1  0
 26 30  1  0
 27 26  1  0
 28 29  1  0
 28 27  1  0
 29 25  1  0
 30 31  2  0
 31 32  1  0
 33 32  2  0
 34 33  1  0
 35  9  1  0
 35 40  1  0
 35 36  1  0
 36 39  1  1
 36 37  1  0
 38 36  1  0
 40 43  1  0
 41 45  1  0
 41 40  1  0
 42 41  2  0
 45 44  1  0
 47 45  1  0
 47 48  1  0
 47 46  1  0
 50 51  1  0
 50 49  1  0
 52 60  1  0
 53 58  1  0
 54 55  1  0
 54 53  1  0
 56 55  1  0
 56 65  1  0
 56 57  1  0
 58 52  1  0
 58 57  1  0
 59 52  2  0
 60 51  1  0
 60 61  1  0
 62 63  2  0
 63 82  1  0
 64 63  1  0
 64 67  1  0
 65 62  1  0
 65 66  1  0
 66 64  2  0
 67 68  1  0
 68 69  2  0
 70 73  1  0
 70 69  1  0
 71 70  2  0
 72 71  1  0
 72 67  2  0
 73 74  1  0
 74 75  1  0
 75 76  2  0
 77 76  1  0
 77 81  1  0
 78 77  2  0
 79 74  2  0
 79 78  1  0
 80 79  1  0
 82 83  1  0
 83 86  1  0
 83 85  1  0
 84 82  2  0
 87 88  1  0
 87 62  1  0
 89 87  1  0
M  ISO  4   7 101   8 101  52 100  60 100
M  END
>  <TORSDO>  (55) 
F 20

>  <SCORE>  (55) 
-13.834

>  <name>  (55) 
55

>  <ligand_id>  (55) 
55

>  <original_smiles>  (55) 
[H]c1nc(OC([H])([H])C([H])([H])N([H])C(=O)N2C([H])([H])C([H])([H])C([H])([H])C([H])(n3nc(-c4c([H])c([H])c(Oc5c([H])c([H])c(F)c([H])c5F)c([H])c4[H])c(C(=O)N([H])[H])c3N([H])[H])C2([H])[H])nc([H])c1C([H])([H])Oc1c([H])c([H])c2c(c1[H])C([H])([H])N(C(=O)C([H])(N([H])C(=O)C([H])(N([H])C([H])([H])[H])C([H])([H])[H])C(C([H])([H])[H])(C([H])([H])[H])C([H])([H])[H])C([H])(C(=O)N([H])C1([H])c3c([H])c([H])c([H])c([H])c3C([H])([H])C([H])([H])C1([H])[H])C2([H])[H]

>  <smiles>  (55) 
[H]c1nc(OC([H])([H])C([H])([H])N([H])C(=O)N2C([H])([H])C([H])([H])C([H])([H])C([H])(n3nc(-c4c([H])c([H])c(Oc5c([H])c([H])c(F)c([H])c5F)c([H])c4[H])c(C(=O)N([H])[H])c3N([H])[H])C2([H])[H])nc([H])c1C([H])([H])Oc1c([H])c([H])c2c(c1[H])C([H])([H])N(C(=O)C([H])(N([H])C(=O)C([H])(N([H])C([H])([H])[H])C([H])([H])[H])C(C([H])([H])[H])(C([H])([H])[H])C([H])([H])[H])C([H])(C(=O)N([H])C1([H])c3c([H])c([H])c([H])c([H])c3C([H])([H])C([H])([H])C1([H])[H])C2([H])[H]

$$$$
56:0:0
     RDKit          3D

 90 99  0  0  1  0  0  0  0  0999 V2000
  -29.9970  -19.7360   21.0350 C   0  0  0  0  0  3  0  0  0  0  0  0
  -30.4580  -20.6010   22.8960 C   0  0  0  0  0  0  0  0  0  0  0  0
  -30.9020  -20.7440   24.3100 C   0  0  0  0  0  1  0  0  0  0  0  0
  -30.5750  -19.4450   22.2050 N   0  0  0  0  0  0  0  0  0  0  0  0
  -29.8960  -21.6040   22.2430 N   0  0  0  0  0  2  0  0  0  0  0  0
  -29.5930  -21.1010   21.0140 N   0  0  0  0  0  0  0  0  0  0  0  0
  -31.0890  -15.0560   19.8410 C   0  0  0  0  0  0  0  0  0  0  0  0
  -30.6950  -12.7860   18.8530 C   0  0  0  0  0  2  0  0  0  0  0  0
  -29.6920  -12.8410   17.6840 C   0  0  0  0  0  2  0  0  0  0  0  0
  -28.2560  -12.6860   18.2170 C   0  0  0  0  0  2  0  0  0  0  0  0
  -27.9670  -13.6090   19.4310 C   0  0  0  0  0  3  0  0  0  0  0  0
  -29.0980  -13.5730   20.4820 C   0  0  0  0  0  2  0  0  0  0  0  0
  -30.3430  -13.8930   19.7800 N   0  0  0  0  0  0  0  0  0  0  0  0
  -32.2780  -14.9930   19.5160 O   0  0  0  0  0  0  0  0  0  0  0  0
  -29.3790  -17.0660   20.4890 C   0  0  0  0  0  2  0  0  0  0  0  0
  -31.2550  -17.6410   19.7450 C   0  0  0  0  0  2  0  0  0  0  0  0
  -29.9730  -18.4810   20.0610 C   0  0  0  0  0  3  0  0  0  0  0  0
  -30.5190  -16.3420   19.8620 N   0  0  0  0  0  0  0  0  0  0  0  0
  -25.6670  -14.2390   20.3640 C   0  0  0  0  0  0  0  0  0  0  0  0
  -24.6040  -13.4860   20.7820 C   0  0  0  0  0  0  0  0  0  0  0  0
  -25.0180  -12.1230   20.6730 C   0  0  0  0  0  0  0  0  0  0  0  0
  -26.6590  -13.3370   20.0210 N   0  0  0  0  0  0  0  0  0  0  0  0
  -26.2840  -12.0560   20.2740 N   0  0  0  0  0  0  0  0  0  0  0  0
  -24.2630  -10.8790   20.8670 C   0  0  0  0  0  0  0  0  0  0  0  0
  -24.6730   -9.9040   21.8040 C   0  0  0  0  0  3  0  0  0  0  0  0
  -23.9170   -8.7260   21.9860 C   0  0  0  0  0  3  0  0  0  0  0  0
  -22.7370   -8.5150   21.2330 C   0  0  0  0  0  0  0  0  0  0  0  0
  -22.3470   -9.4780   20.2860 C   0  0  0  0  0  3  0  0  0  0  0  0
  -23.1030  -10.6480   20.1020 C   0  0  0  0  0  3  0  0  0  0  0  0
  -21.9530   -7.3910   21.3270 O   0  0  0  0  0  0  0  0  0  0  0  0
  -21.8380   -6.6890   22.5010 C   0  0  0  0  0  0  0  0  0  0  0  0
  -21.3260   -7.2820   23.6750 C   0  0  0  0  0  3  0  0  0  0  0  0
  -21.1580   -6.5070   24.8410 C   0  0  0  0  0  3  0  0  0  0  0  0
  -21.4930   -5.1390   24.8320 C   0  0  0  0  0  0  0  0  0  0  0  0
  -21.9990   -4.5460   23.6620 C   0  0  0  0  0  3  0  0  0  0  0  0
  -22.1680   -5.3190   22.4980 C   0  0  0  0  0  0  0  0  0  0  0  0
  -22.6350   -4.7370   21.3680 F   0  0  0  0  0  0  0  0  0  0  0  0
  -21.3270   -4.3920   25.9480 F   0  0  0  0  0  0  0  0  0  0  0  0
  -23.2460  -13.9990   21.1620 C   0  0  0  0  0  0  0  0  0  0  0  0
  -22.5510  -13.2940   22.0480 N   0  0  0  0  0  0  0  0  0  0  0  0
  -22.8140  -15.0580   20.7100 O   0  0  0  0  0  0  0  0  0  0  0  0
  -22.9140  -12.4350   22.4360 H   0  0  0  0  0  0  0  0  0  0  0  0
  -21.6420  -13.6180   22.3440 H   0  0  0  0  0  0  0  0  0  0  0  0
  -25.8600  -15.6090   20.2210 N   0  0  0  0  0  0  0  0  0  0  0  0
  -25.1220  -16.2820   20.3990 H   0  0  0  0  0  0  0  0  0  0  0  0
  -26.6870  -16.0310   19.8210 H   0  0  0  0  0  0  0  0  0  0  0  0
  -28.8710  -22.1520   20.1460 C   0  0  0  0  0  2  0  0  0  0  0  0
  -28.9980  -23.7680   20.5350 C   0  0  0  0  0  3  0  0  0  0  0  0
  -28.0780  -24.9520   19.8760 C   0  0  0  0  0  3  0  0  0  0  0  0
  -28.2840  -26.4490   20.1140 O   0  0  0  0  0  0  0  0  0  0  0  0
  -24.6540  -31.9620   23.2110 C   0  0  0  0  0  0  0  0  0  0  0  0
  -27.2000  -27.3740   20.0520 C   0  0  0  0  0  0  0  0  0  0  0  0
  -23.4250  -30.5750   21.5840 C   0  0  0  0  0  3  0  0  0  0  0  0
  -24.8490  -29.0490   20.0990 C   0  0  0  0  0  0  0  0  0  0  0  0
  -25.9650  -30.8850   21.3580 C   0  0  0  0  0  2  0  0  0  0  0  0
  -26.0340  -29.5100   20.6850 C   0  0  0  0  0  0  0  0  0  0  0  0
  -27.2100  -28.6850   20.6520 C   0  0  0  0  0  3  0  0  0  0  0  0
  -25.9960  -27.0050   19.4120 C   0  0  0  0  0  3  0  0  0  0  0  0
  -24.8380  -27.8060   19.4490 C   0  0  0  0  0  3  0  0  0  0  0  0
  -23.6130  -29.9250   20.1890 C   0  0  0  0  0  2  0  0  0  0  0  0
  -24.7020  -31.1600   22.1060 N   0  0  0  0  0  0  0  0  0  0  0  0
  -23.5800  -32.2290   23.7700 O   0  0  0  0  0  0  0  0  0  0  0  0
  -22.7850  -29.5440   22.5470 C   0  0  0  0  0  0  0  0  0  0  0  0
  -21.4700  -29.3050   22.3980 N   0  0  0  0  0  0  0  0  0  0  0  0
  -23.4720  -28.9650   23.3910 O   0  0  0  0  0  0  0  0  0  0  0  0
  -20.9730  -29.8230   21.6890 H   0  0  0  0  0  0  0  0  0  0  0  0
  -18.1610  -27.8920   22.7990 C   0  0  0  0  0  0  0  0  0  0  0  0
  -20.6800  -28.3430   23.1700 C   0  0  0  0  0  3  0  0  0  0  0  0
  -20.9080  -26.9010   22.6600 C   0  0  0  0  0  2  0  0  0  0  0  0
  -19.8790  -26.4630   21.6120 C   0  0  0  0  0  2  0  0  0  0  0  0
  -18.4620  -26.5330   22.1880 C   0  0  0  0  0  2  0  0  0  0  0  0
  -19.2020  -28.7470   23.2460 C   0  0  0  0  0  0  0  0  0  0  0  0
  -18.8680  -30.0120   23.7760 C   0  0  0  0  0  3  0  0  0  0  0  0
  -17.5250  -30.4240   23.8680 C   0  0  0  0  0  3  0  0  0  0  0  0
  -16.4970  -29.5670   23.4380 C   0  0  0  0  0  3  0  0  0  0  0  0
  -16.8160  -28.3040   22.9080 C   0  0  0  0  0  3  0  0  0  0  0  0
  -25.9440  -32.6010   23.8080 C   0  0  0  0  0  3  0  0  0  0  0  0
  -26.4930  -31.8230   25.0680 C   0  0  1  0  0  0  0  0  0  0  0  0
  -25.4240  -31.5560   26.1520 C   0  0  0  0  0  1  0  0  0  0  0  0
  -27.0910  -30.4580   24.6550 C   0  0  0  0  0  1  0  0  0  0  0  0
  -27.6450  -32.6260   25.7180 C   0  0  0  0  0  1  0  0  0  0  0  0
  -25.6290  -33.9940   24.1620 N   0  0  0  0  0  0  0  0  0  0  0  0
  -25.9370  -35.0610   23.4110 C   0  0  0  0  0  0  0  0  0  0  0  0
  -26.5860  -34.9770   22.3660 O   0  0  0  0  0  0  0  0  0  0  0  0
  -25.0520  -34.1320   24.9780 H   0  0  0  0  0  0  0  0  0  0  0  0
  -24.1920  -36.8510   23.1170 C   0  0  0  0  0  1  0  0  0  0  0  0
  -25.4490  -36.4400   23.8990 C   0  0  0  0  0  3  0  0  0  0  0  0
  -27.5880  -37.3310   24.7140 C   0  0  0  0  0  1  0  0  0  0  0  0
  -26.4730  -37.5010   23.7850 N   0  0  0  0  0  0  0  0  0  0  0  0
  -26.0630  -38.4170   23.9490 H   0  0  0  0  0  0  0  0  0  0  0  0
  1  4  1  0
  2  3  1  0
  4  2  2  0
  5  2  1  0
  6  1  1  0
  6  5  1  0
  7 18  1  0
  8 13  1  0
  9 10  1  0
  9  8  1  0
 11 10  1  0
 11 22  1  0
 11 12  1  0
 13  7  1  0
 13 12  1  0
 14  7  2  0
 16 18  1  0
 17 16  1  0
 17 15  1  0
 17  1  1  0
 18 15  1  0
 19 20  2  0
 20 39  1  0
 21 20  1  0
 21 24  1  0
 22 23  1  0
 22 19  1  0
 23 21  2  0
 24 25  1  0
 25 26  2  0
 27 30  1  0
 27 26  1  0
 28 27  2  0
 29 28  1  0
 29 24  2  0
 30 31  1  0
 31 32  1  0
 32 33  2  0
 34 33  1  0
 34 38  1  0
 35 34  2  0
 36 31  2  0
 36 35  1  0
 37 36  1  0
 39 40  1  0
 40 43  1  0
 40 42  1  0
 41 39  2  0
 44 19  1  0
 44 45  1  0
 46 44  1  0
 47 48  1  0
 47  6  1  0
 49 50  1  0
 49 48  2  0
 51 62  2  0
 52 50  1  0
 52 57  1  0
 53 61  1  0
 53 63  1  0
 54 60  1  0
 54 56  1  0
 55 61  1  0
 56 55  1  0
 57 56  2  0
 58 59  1  0
 58 52  2  0
 59 54  2  0
 60 53  1  0
 61 51  1  0
 63 65  2  0
 64 63  1  0
 66 64  1  0
 67 76  2  0
 67 72  1  0
 68 64  1  0
 68 72  1  0
 69 68  1  0
 70 71  1  0
 70 69  1  0
 71 67  1  0
 72 73  2  0
 73 74  1  0
 75 74  2  0
 76 75  1  0
 77 51  1  0
 77 82  1  0
 77 78  1  0
 78 81  1  1
 78 79  1  0
 80 78  1  0
 82 85  1  0
 83 87  1  0
 83 82  1  0
 84 83  2  0
 87 86  1  0
 89 87  1  0
 89 90  1  0
 89 88  1  0
M  ISO  4   7 100  18 100  49 101  50 101
M  END
>  <TORSDO>  (56) 
F 19

>  <SCORE>  (56) 
-13.663

>  <name>  (56) 
56

>  <ligand_id>  (56) 
56

>  <original_smiles>  (56) 
[H]c1c([H])c([H])c2c(c1[H])C([H])([H])C([H])([H])C([H])([H])C2([H])N([H])C(=O)C1([H])N(C(=O)C([H])(N([H])C(=O)C([H])(N([H])C([H])([H])[H])C([H])([H])[H])C(C([H])([H])[H])(C([H])([H])[H])C([H])([H])[H])C([H])([H])c2c([H])c(OC([H])([H])C([H])([H])C([H])([H])n3nc(C([H])([H])[H])nc3C3([H])C([H])([H])N(C(=O)N4C([H])([H])C([H])([H])C([H])([H])C([H])(n5nc(-c6c([H])c([H])c(Oc7c([H])c([H])c(F)c([H])c7F)c([H])c6[H])c(C(=O)N([H])[H])c5N([H])[H])C4([H])[H])C3([H])[H])c([H])c([H])c2C1([H])[H]

>  <smiles>  (56) 
[H]c1c([H])c([H])c2c(c1[H])C([H])([H])C([H])([H])C([H])([H])C2([H])N([H])C(=O)C1([H])N(C(=O)C([H])(N([H])C(=O)C([H])(N([H])C([H])([H])[H])C([H])([H])[H])C(C([H])([H])[H])(C([H])([H])[H])C([H])([H])[H])C([H])([H])c2c([H])c(OC([H])([H])C([H])([H])C([H])([H])n3nc(C([H])([H])[H])nc3C3([H])C([H])([H])N(C(=O)N4C([H])([H])C([H])([H])C([H])([H])C([H])(n5nc(-c6c([H])c([H])c(Oc7c([H])c([H])c(F)c([H])c7F)c([H])c6[H])c(C(=O)N([H])[H])c5N([H])[H])C4([H])[H])C3([H])[H])c([H])c([H])c2C1([H])[H]

$$$$
57:0:0
     RDKit          3D

 95104  0  0  1  0  0  0  0  0999 V2000
  -28.2920  -21.8080   19.0340 C   0  0  0  0  0  3  0  0  0  0  0  0
  -29.2020  -21.1440   20.9160 C   0  0  0  0  0  3  0  0  0  0  0  0
  -28.6250  -22.2820   20.3310 C   0  0  0  0  0  0  0  0  0  0  0  0
  -28.7590  -20.5200   18.8510 C   0  0  0  0  0  0  0  0  0  0  0  0
  -29.2080  -19.9830   20.0830 N   0  0  0  0  0  0  0  0  0  0  0  0
  -27.3380  -19.5710   17.0130 C   0  0  0  0  0  1  0  0  0  0  0  0
  -28.7700  -19.8080   17.5320 C   0  0  0  0  0  3  0  0  0  0  0  0
  -29.5360  -20.5430   16.5220 N   0  0  0  0  0  4  0  0  0  0  0  0
  -28.9180  -21.1930   16.0660 H   0  0  0  0  0  0  0  0  0  0  0  0
  -29.9060  -19.9110   15.8260 H   0  0  0  0  0  0  0  0  0  0  0  0
  -30.3080  -21.0310   16.9520 H   0  0  0  0  0  0  0  0  0  0  0  0
  -28.4220  -23.7570   20.9270 C   0  0  0  0  0  3  0  0  0  0  0  0
  -28.3300  -25.1110   19.9950 C   0  0  0  0  0  3  0  0  0  0  0  0
  -28.2300  -26.5900   20.1630 O   0  0  0  0  0  0  0  0  0  0  0  0
  -24.5510  -31.9420   23.2210 C   0  0  0  0  0  0  0  0  0  0  0  0
  -27.0840  -27.3800   20.1270 C   0  0  0  0  0  0  0  0  0  0  0  0
  -23.3240  -30.5420   21.5930 C   0  0  0  0  0  3  0  0  0  0  0  0
  -24.7450  -28.9930   20.1360 C   0  0  0  0  0  0  0  0  0  0  0  0
  -25.8550  -30.8660   21.3650 C   0  0  0  0  0  2  0  0  0  0  0  0
  -25.9170  -29.4810   20.7270 C   0  0  0  0  0  0  0  0  0  0  0  0
  -27.0950  -28.6770   20.7180 C   0  0  0  0  0  3  0  0  0  0  0  0
  -25.8930  -26.9240   19.5360 C   0  0  0  0  0  3  0  0  0  0  0  0
  -24.7360  -27.7220   19.5360 C   0  0  0  0  0  3  0  0  0  0  0  0
  -23.5170  -29.8680   20.2060 C   0  0  0  0  0  2  0  0  0  0  0  0
  -24.5970  -31.1410   22.1170 N   0  0  0  0  0  0  0  0  0  0  0  0
  -23.4740  -32.2170   23.7730 O   0  0  0  0  0  0  0  0  0  0  0  0
  -22.6750  -29.5320   22.5670 C   0  0  0  0  0  0  0  0  0  0  0  0
  -21.3440  -29.3510   22.4540 N   0  0  0  0  0  0  0  0  0  0  0  0
  -23.3670  -28.9120   23.3820 O   0  0  0  0  0  0  0  0  0  0  0  0
  -20.8540  -29.9190   21.7690 H   0  0  0  0  0  0  0  0  0  0  0  0
  -17.9770  -28.1020   22.9760 C   0  0  0  0  0  0  0  0  0  0  0  0
  -20.5360  -28.4070   23.2290 C   0  0  0  0  0  3  0  0  0  0  0  0
  -20.6590  -26.9750   22.6680 C   0  0  0  0  0  2  0  0  0  0  0  0
  -19.5590  -26.6220   21.6610 C   0  0  0  0  0  2  0  0  0  0  0  0
  -18.1770  -26.7490   22.3100 C   0  0  0  0  0  2  0  0  0  0  0  0
  -19.0880  -28.8850   23.3900 C   0  0  0  0  0  0  0  0  0  0  0  0
  -18.8590  -30.1490   23.9770 C   0  0  0  0  0  3  0  0  0  0  0  0
  -17.5510  -30.6340   24.1560 C   0  0  0  0  0  3  0  0  0  0  0  0
  -16.4540  -29.8540   23.7500 C   0  0  0  0  0  3  0  0  0  0  0  0
  -16.6670  -28.5900   23.1710 C   0  0  0  0  0  3  0  0  0  0  0  0
  -25.8500  -32.5740   23.8240 C   0  0  0  0  0  3  0  0  0  0  0  0
  -25.5330  -33.9640   24.1780 N   0  0  0  0  0  0  0  0  0  0  0  0
  -25.8730  -35.0360   23.4470 C   0  0  0  0  0  0  0  0  0  0  0  0
  -26.5480  -34.9520   22.4180 O   0  0  0  0  0  0  0  0  0  0  0  0
  -24.9080  -34.0940   24.9610 H   0  0  0  0  0  0  0  0  0  0  0  0
  -24.1570  -36.8590   23.1250 C   0  0  0  0  0  1  0  0  0  0  0  0
  -25.3890  -36.4180   23.9290 C   0  0  0  0  0  3  0  0  0  0  0  0
  -27.5250  -37.2680   24.7980 C   0  0  0  0  0  1  0  0  0  0  0  0
  -26.4280  -37.4660   23.8530 N   0  0  0  0  0  0  0  0  0  0  0  0
  -26.0240  -38.3820   24.0260 H   0  0  0  0  0  0  0  0  0  0  0  0
  -26.3950  -31.7890   25.0840 C   0  0  1  0  0  0  0  0  0  0  0  0
  -25.3170  -31.5360   26.1660 C   0  0  0  0  0  1  0  0  0  0  0  0
  -26.9870  -30.4200   24.6770 C   0  0  0  0  0  1  0  0  0  0  0  0
  -27.5630  -32.5790   25.7140 C   0  0  0  0  0  1  0  0  0  0  0  0
  -29.7720  -18.5780   20.4880 C   0  0  0  0  0  2  0  0  0  0  0  0
  -30.6670  -14.9620   20.8210 C   0  0  0  0  0  0  0  0  0  0  0  0
  -30.7190  -12.5710   20.1670 C   0  0  0  0  0  2  0  0  0  0  0  0
  -29.8900  -12.4650   18.8640 C   0  0  0  0  0  2  0  0  0  0  0  0
  -28.3780  -12.3110   19.1700 C   0  0  0  0  0  2  0  0  0  0  0  0
  -27.8380  -13.2700   20.2700 C   0  0  0  0  0  3  0  0  0  0  0  0
  -28.8130  -13.3190   21.4600 C   0  0  0  0  0  2  0  0  0  0  0  0
  -30.1330  -13.6910   20.9190 N   0  0  0  0  0  0  0  0  0  0  0  0
  -31.8930  -15.1070   20.8020 O   0  0  0  0  0  0  0  0  0  0  0  0
  -28.5640  -16.7040   18.8350 C   0  0  0  0  0  2  0  0  0  0  0  0
  -30.0070  -16.2310   18.6530 C   0  0  0  0  0  2  0  0  0  0  0  0
  -29.0320  -17.1340   20.2380 C   0  0  0  0  0  3  0  0  0  0  0  0
  -29.9060  -15.8810   20.0880 N   0  0  0  0  0  0  0  0  0  0  0  0
  -25.3830  -13.8630   20.7820 C   0  0  0  0  0  0  0  0  0  0  0  0
  -24.2940  -13.0830   21.0620 C   0  0  0  0  0  0  0  0  0  0  0  0
  -24.7680  -11.7370   21.0800 C   0  0  0  0  0  0  0  0  0  0  0  0
  -26.4560  -12.9860   20.6490 N   0  0  0  0  0  0  0  0  0  0  0  0
  -26.0820  -11.7030   20.8860 N   0  0  0  0  0  0  0  0  0  0  0  0
  -24.0380  -10.4670   21.2280 C   0  0  0  0  0  0  0  0  0  0  0  0
  -24.4300   -9.4990   22.1830 C   0  0  0  0  0  3  0  0  0  0  0  0
  -23.7100   -8.2920   22.3130 C   0  0  0  0  0  3  0  0  0  0  0  0
  -22.5890   -8.0410   21.4880 C   0  0  0  0  0  0  0  0  0  0  0  0
  -22.2180   -8.9950   20.5260 C   0  0  0  0  0  3  0  0  0  0  0  0
  -22.9340  -10.1960   20.3940 C   0  0  0  0  0  3  0  0  0  0  0  0
  -21.8490   -6.8840   21.5260 O   0  0  0  0  0  0  0  0  0  0  0  0
  -21.7520   -6.1280   22.6630 C   0  0  0  0  0  0  0  0  0  0  0  0
  -21.2610   -6.6630   23.8730 C   0  0  0  0  0  3  0  0  0  0  0  0
  -21.1250   -5.8350   25.0060 C   0  0  0  0  0  3  0  0  0  0  0  0
  -21.4640   -4.4720   24.9260 C   0  0  0  0  0  0  0  0  0  0  0  0
  -21.9450   -3.9340   23.7200 C   0  0  0  0  0  3  0  0  0  0  0  0
  -22.0880   -4.7600   22.5910 C   0  0  0  0  0  0  0  0  0  0  0  0
  -22.5350   -4.2340   21.4260 F   0  0  0  0  0  0  0  0  0  0  0  0
  -21.3200   -3.6740   26.0110 F   0  0  0  0  0  0  0  0  0  0  0  0
  -22.8740  -13.5480   21.2180 C   0  0  0  0  0  0  0  0  0  0  0  0
  -22.0730  -12.8600   22.0280 N   0  0  0  0  0  0  0  0  0  0  0  0
  -22.4690  -14.5590   20.6450 O   0  0  0  0  0  0  0  0  0  0  0  0
  -22.3820  -12.0360   22.5240 H   0  0  0  0  0  0  0  0  0  0  0  0
  -21.1260  -13.1840   22.1720 H   0  0  0  0  0  0  0  0  0  0  0  0
  -25.5550  -15.2360   20.6050 N   0  0  0  0  0  0  0  0  0  0  0  0
  -24.7930  -15.9070   20.6100 H   0  0  0  0  0  0  0  0  0  0  0  0
  -26.4500  -15.6680   20.4140 H   0  0  0  0  0  0  0  0  0  0  0  0
  1  3  1  0
  3  2  2  0
  3 12  1  0
  4  1  2  0
  4  5  1  0
  5 55  1  0
  5  2  1  0
  7  6  1  0
  7  4  1  0
  8 11  1  0
  8  7  1  0
  9  8  1  0
 10  8  1  0
 13 14  1  0
 13 12  2  0
 15 26  2  0
 16 14  1  0
 16 21  1  0
 17 25  1  0
 17 27  1  0
 18 24  1  0
 18 20  1  0
 19 25  1  0
 20 19  1  0
 21 20  2  0
 22 16  2  0
 23 22  1  0
 23 18  2  0
 24 17  1  0
 25 15  1  0
 27 29  2  0
 28 27  1  0
 30 28  1  0
 31 40  2  0
 31 36  1  0
 32 28  1  0
 32 36  1  0
 33 32  1  0
 34 35  1  0
 34 33  1  0
 35 31  1  0
 36 37  2  0
 37 38  1  0
 39 38  2  0
 40 39  1  0
 41 15  1  0
 41 42  1  0
 41 51  1  0
 42 45  1  0
 43 47  1  0
 43 42  1  0
 44 43  2  0
 47 46  1  0
 49 47  1  0
 49 50  1  0
 49 48  1  0
 51 54  1  1
 51 52  1  0
 53 51  1  0
 56 62  1  0
 57 62  1  0
 58 59  1  0
 58 57  1  0
 60 59  1  0
 60 71  1  0
 60 61  1  0
 62 61  1  0
 63 56  2  0
 64 66  1  0
 65 64  1  0
 65 67  1  0
 66 55  1  0
 67 66  1  0
 67 56  1  0
 68 69  2  0
 69 70  1  0
 69 88  1  0
 70 73  1  0
 71 68  1  0
 71 72  1  0
 72 70  2  0
 73 74  1  0
 74 75  2  0
 76 79  1  0
 76 75  1  0
 77 76  2  0
 78 77  1  0
 78 73  2  0
 79 80  1  0
 80 81  1  0
 81 82  2  0
 83 82  1  0
 83 87  1  0
 84 83  2  0
 85 80  2  0
 85 84  1  0
 86 85  1  0
 88 89  1  0
 89 92  1  0
 89 91  1  0
 90 88  2  0
 93 94  1  0
 93 68  1  0
 95 93  1  0
M  ISO  4  13 101  14 101  56 100  67 100
M  END
>  <TORSDO>  (57) 
F 21

>  <SCORE>  (57) 
-13.371

>  <name>  (57) 
57

>  <ligand_id>  (57) 
57

>  <original_smiles>  (57) 
[H]c1c([H])c([H])c2c(c1[H])C([H])([H])C([H])([H])C([H])([H])C2([H])N([H])C(=O)C1([H])N(C(=O)C([H])(N([H])C(=O)C([H])(N([H])C([H])([H])[H])C([H])([H])[H])C(C([H])([H])[H])(C([H])([H])[H])C([H])([H])[H])C([H])([H])c2c([H])c(OC([H])([H])C([H])([H])c3c([H])c(C([H])(C([H])([H])[H])[N+]([H])([H])[H])n(C([H])([H])C4([H])N(C(=O)N5C([H])([H])C([H])([H])C([H])([H])C([H])(n6nc(-c7c([H])c([H])c(Oc8c([H])c([H])c(F)c([H])c8F)c([H])c7[H])c(C(=O)N([H])[H])c6N([H])[H])C5([H])[H])C([H])([H])C4([H])[H])c3[H])c([H])c([H])c2C1([H])[H]

>  <smiles>  (57) 
[H]c1c([H])c([H])c2c(c1[H])C([H])([H])C([H])([H])C([H])([H])C2([H])N([H])C(=O)C1([H])N(C(=O)C([H])(N([H])C(=O)C([H])(N([H])C([H])([H])[H])C([H])([H])[H])C(C([H])([H])[H])(C([H])([H])[H])C([H])([H])[H])C([H])([H])c2c([H])c(OC([H])([H])C([H])([H])c3c([H])c(C([H])(C([H])([H])[H])[N+]([H])([H])[H])n(C([H])([H])C4([H])N(C(=O)N5C([H])([H])C([H])([H])C([H])([H])C([H])(n6nc(-c7c([H])c([H])c(Oc8c([H])c([H])c(F)c([H])c8F)c([H])c7[H])c(C(=O)N([H])[H])c6N([H])[H])C5([H])[H])C([H])([H])C4([H])[H])c3[H])c([H])c([H])c2C1([H])[H]

$$$$
58:0:0
     RDKit          3D

 94103  0  0  1  0  0  0  0  0999 V2000
  -31.5550  -21.8350   19.9570 C   0  0  0  0  0  2  0  0  0  0  0  0
  -31.6200  -23.3290   19.6340 C   0  0  0  0  0  2  0  0  0  0  0  0
  -29.6260  -23.0110   20.7410 C   0  0  0  0  0  2  0  0  0  0  0  0
  -30.1370  -21.5930   20.4990 C   0  0  0  0  0  3  0  0  0  0  0  0
  -30.2250  -23.7530   19.6350 N   0  0  0  0  0  0  0  0  0  0  0  0
  -28.8410  -20.8200   22.4730 C   0  0  0  0  0  1  0  0  0  0  0  0
  -30.0950  -20.6900   21.6860 N   0  0  1  0  0  4  0  0  0  0  0  0
  -30.8490  -20.9640   22.2980 H   0  0  0  0  0  0  0  0  0  0  0  0
  -30.3460  -19.2930   21.2500 C   0  0  0  0  0  2  0  0  0  0  0  0
  -30.6340  -18.2780   22.3740 C   0  0  0  0  0  2  0  0  0  0  0  0
  -30.4670  -14.3160   19.5790 C   0  0  0  0  0  0  0  0  0  0  0  0
  -29.8280  -12.4060   18.1590 C   0  0  0  0  0  2  0  0  0  0  0  0
  -28.7070  -12.7610   17.1660 C   0  0  0  0  0  2  0  0  0  0  0  0
  -27.3250  -12.5880   17.8190 C   0  0  0  0  0  2  0  0  0  0  0  0
  -27.2230  -13.3030   19.1900 C   0  0  0  0  0  3  0  0  0  0  0  0
  -28.4250  -12.9330   20.0860 C   0  0  0  0  0  2  0  0  0  0  0  0
  -29.6730  -13.2390   19.3580 N   0  0  0  0  0  0  0  0  0  0  0  0
  -31.3080  -14.7280   18.7700 O   0  0  0  0  0  0  0  0  0  0  0  0
  -31.3240  -15.8090   22.7600 C   0  0  0  0  0  2  0  0  0  0  0  0
  -31.1940  -14.5480   21.8960 C   0  0  0  0  0  2  0  0  0  0  0  0
  -29.9940  -16.3150   20.8540 C   0  0  0  0  0  2  0  0  0  0  0  0
  -31.0530  -16.9300   21.7700 C   0  0  0  0  0  3  0  0  0  0  0  0
  -30.3040  -14.8940   20.7820 N   0  0  0  0  0  0  0  0  0  0  0  0
  -24.9440  -13.8750   20.2530 C   0  0  0  0  0  0  0  0  0  0  0  0
  -23.9440  -13.0830   20.7500 C   0  0  0  0  0  0  0  0  0  0  0  0
  -24.4010  -11.7360   20.6090 C   0  0  0  0  0  0  0  0  0  0  0  0
  -25.9500  -13.0090   19.8480 N   0  0  0  0  0  0  0  0  0  0  0  0
  -25.6320  -11.7170   20.1140 N   0  0  0  0  0  0  0  0  0  0  0  0
  -23.7170  -10.4620   20.8640 C   0  0  0  0  0  0  0  0  0  0  0  0
  -24.2310   -9.5180   21.7830 C   0  0  0  0  0  3  0  0  0  0  0  0
  -23.5450   -8.3080   22.0230 C   0  0  0  0  0  3  0  0  0  0  0  0
  -22.3340   -8.0310   21.3460 C   0  0  0  0  0  0  0  0  0  0  0  0
  -21.8400   -8.9630   20.4160 C   0  0  0  0  0  3  0  0  0  0  0  0
  -22.5250  -10.1650   20.1740 C   0  0  0  0  0  3  0  0  0  0  0  0
  -21.6150   -6.8700   21.4980 O   0  0  0  0  0  0  0  0  0  0  0  0
  -21.5980   -6.1830   22.6840 C   0  0  0  0  0  0  0  0  0  0  0  0
  -21.1620   -6.7840   23.8870 C   0  0  0  0  0  3  0  0  0  0  0  0
  -21.0950   -6.0220   25.0700 C   0  0  0  0  0  3  0  0  0  0  0  0
  -21.4520   -4.6600   25.0520 C   0  0  0  0  0  0  0  0  0  0  0  0
  -21.8810   -4.0590   23.8550 C   0  0  0  0  0  3  0  0  0  0  0  0
  -21.9500   -4.8190   22.6750 C   0  0  0  0  0  0  0  0  0  0  0  0
  -22.3440   -4.2300   21.5190 F   0  0  0  0  0  0  0  0  0  0  0  0
  -21.3790   -3.9250   26.1870 F   0  0  0  0  0  0  0  0  0  0  0  0
  -22.6010  -13.5380   21.2410 C   0  0  0  0  0  0  0  0  0  0  0  0
  -22.0220  -12.8240   22.2010 N   0  0  0  0  0  0  0  0  0  0  0  0
  -22.0750  -14.5620   20.8070 O   0  0  0  0  0  0  0  0  0  0  0  0
  -22.4620  -11.9940   22.5710 H   0  0  0  0  0  0  0  0  0  0  0  0
  -21.1270  -13.1090   22.5690 H   0  0  0  0  0  0  0  0  0  0  0  0
  -25.0770  -15.2520   20.0960 N   0  0  0  0  0  0  0  0  0  0  0  0
  -24.3350  -15.8990   20.3380 H   0  0  0  0  0  0  0  0  0  0  0  0
  -25.8750  -15.7050   19.6700 H   0  0  0  0  0  0  0  0  0  0  0  0
  -30.1010  -25.1950   19.8190 C   0  0  0  0  0  2  0  0  0  0  0  0
  -28.6620  -25.6670   19.5600 C   0  0  0  0  0  2  0  0  0  0  0  0
  -28.5930  -27.0020   20.0170 O   0  0  0  0  0  0  0  0  0  0  0  0
  -24.7170  -31.9380   23.2790 C   0  0  0  0  0  0  0  0  0  0  0  0
  -27.3660  -27.6150   20.0690 C   0  0  0  0  0  0  0  0  0  0  0  0
  -23.4910  -30.5340   21.6500 C   0  0  0  0  0  3  0  0  0  0  0  0
  -24.9320  -29.0370   20.1770 C   0  0  0  0  0  0  0  0  0  0  0  0
  -26.0000  -30.9470   21.3910 C   0  0  0  0  0  2  0  0  0  0  0  0
  -26.0900  -29.5870   20.7390 C   0  0  0  0  0  0  0  0  0  0  0  0
  -27.3070  -28.8790   20.6850 C   0  0  0  0  0  3  0  0  0  0  0  0
  -26.1850  -27.0590   19.5210 C   0  0  0  0  0  3  0  0  0  0  0  0
  -24.9700  -27.7680   19.5730 C   0  0  0  0  0  3  0  0  0  0  0  0
  -23.6740  -29.8700   20.2590 C   0  0  0  0  0  2  0  0  0  0  0  0
  -24.7560  -31.1530   22.1650 N   0  0  0  0  0  0  0  0  0  0  0  0
  -23.6460  -32.1860   23.8490 O   0  0  0  0  0  0  0  0  0  0  0  0
  -22.8830  -29.4920   22.6140 C   0  0  0  0  0  0  0  0  0  0  0  0
  -21.5690  -29.2510   22.4780 N   0  0  0  0  0  0  0  0  0  0  0  0
  -23.5890  -28.9020   23.4370 O   0  0  0  0  0  0  0  0  0  0  0  0
  -21.0610  -29.7820   21.7860 H   0  0  0  0  0  0  0  0  0  0  0  0
  -18.2520  -27.8970   22.9320 C   0  0  0  0  0  0  0  0  0  0  0  0
  -20.7880  -28.2850   23.2480 C   0  0  0  0  0  3  0  0  0  0  0  0
  -20.9740  -26.8520   22.6940 C   0  0  0  0  0  2  0  0  0  0  0  0
  -19.9080  -26.4610   21.6650 C   0  0  0  0  0  2  0  0  0  0  0  0
  -18.5080  -26.5480   22.2810 C   0  0  0  0  0  2  0  0  0  0  0  0
  -19.3240  -28.7200   23.3710 C   0  0  0  0  0  0  0  0  0  0  0  0
  -19.0320  -29.9810   23.9360 C   0  0  0  0  0  3  0  0  0  0  0  0
  -17.7020  -30.4200   24.0670 C   0  0  0  0  0  3  0  0  0  0  0  0
  -16.6450  -29.5950   23.6460 C   0  0  0  0  0  3  0  0  0  0  0  0
  -16.9210  -28.3350   23.0840 C   0  0  0  0  0  3  0  0  0  0  0  0
  -26.0100  -32.5790   23.8750 C   0  0  0  0  0  3  0  0  0  0  0  0
  -25.6820  -33.9560   24.2630 N   0  0  0  0  0  0  0  0  0  0  0  0
  -25.9630  -35.0400   23.5260 C   0  0  0  0  0  0  0  0  0  0  0  0
  -26.5990  -34.9860   22.4710 O   0  0  0  0  0  0  0  0  0  0  0  0
  -25.1120  -34.0710   25.0880 H   0  0  0  0  0  0  0  0  0  0  0  0
  -24.1800  -36.7970   23.2830 C   0  0  0  0  0  1  0  0  0  0  0  0
  -25.4560  -36.3990   24.0440 C   0  0  0  0  0  3  0  0  0  0  0  0
  -27.5940  -37.3070   24.8390 C   0  0  0  0  0  1  0  0  0  0  0  0
  -26.4580  -37.4810   23.9370 N   0  0  0  0  0  0  0  0  0  0  0  0
  -26.0350  -38.3840   24.1320 H   0  0  0  0  0  0  0  0  0  0  0  0
  -26.5950  -31.7760   25.1020 C   0  0  1  0  0  0  0  0  0  0  0  0
  -25.5420  -31.4420   26.1840 C   0  0  0  0  0  1  0  0  0  0  0  0
  -27.2270  -30.4470   24.6290 C   0  0  0  0  0  1  0  0  0  0  0  0
  -27.7260  -32.5910   25.7710 C   0  0  0  0  0  1  0  0  0  0  0  0
  1  4  1  0
  2  5  1  0
  2  1  1  0
  4  3  1  0
  4  7  1  0
  5 52  1  0
  5  3  1  0
  7  8  1  1
  7  6  1  0
  9  7  1  0
  9 10  1  0
 11 23  1  0
 12 17  1  0
 13 14  1  0
 13 12  1  0
 15 14  1  0
 15 27  1  0
 15 16  1  0
 17 11  1  0
 17 16  1  0
 18 11  2  0
 20 19  1  0
 21 22  1  0
 22 10  1  0
 22 19  1  0
 23 21  1  0
 23 20  1  0
 24 25  2  0
 25 44  1  0
 26 25  1  0
 26 29  1  0
 27 28  1  0
 27 24  1  0
 28 26  2  0
 29 30  1  0
 30 31  2  0
 32 35  1  0
 32 31  1  0
 33 32  2  0
 34 33  1  0
 34 29  2  0
 35 36  1  0
 36 37  1  0
 37 38  2  0
 39 38  1  0
 39 43  1  0
 40 39  2  0
 41 36  2  0
 41 40  1  0
 42 41  1  0
 44 45  1  0
 45 48  1  0
 45 47  1  0
 46 44  2  0
 49 24  1  0
 49 50  1  0
 51 49  1  0
 53 52  1  0
 53 54  1  0
 54 56  1  0
 55 66  2  0
 56 61  1  0
 57 65  1  0
 57 67  1  0
 58 64  1  0
 58 60  1  0
 59 65  1  0
 60 59  1  0
 61 60  2  0
 62 63  1  0
 62 56  2  0
 63 58  2  0
 64 57  1  0
 65 55  1  0
 67 69  2  0
 68 67  1  0
 70 68  1  0
 71 80  2  0
 71 76  1  0
 72 68  1  0
 72 76  1  0
 73 72  1  0
 74 75  1  0
 74 73  1  0
 75 71  1  0
 76 77  2  0
 77 78  1  0
 79 78  2  0
 80 79  1  0
 81 55  1  0
 81 82  1  0
 81 91  1  0
 82 85  1  0
 83 87  1  0
 83 82  1  0
 84 83  2  0
 87 86  1  0
 89 87  1  0
 89 90  1  0
 89 88  1  0
 91 94  1  1
 91 92  1  0
 93 91  1  0
M  ISO  4  11 100  23 100  53 101  54 101
M  END
>  <TORSDO>  (58) 
F 21

>  <SCORE>  (58) 
-9.480

>  <name>  (58) 
58

>  <ligand_id>  (58) 
58

>  <original_smiles>  (58) 
[H]c1c([H])c([H])c2c(c1[H])C([H])([H])C([H])([H])C([H])([H])C2([H])N([H])C(=O)C1([H])N(C(=O)C([H])(N([H])C(=O)C([H])(N([H])C([H])([H])[H])C([H])([H])[H])C(C([H])([H])[H])(C([H])([H])[H])C([H])([H])[H])C([H])([H])c2c([H])c(OC([H])([H])C([H])([H])N3C([H])([H])C([H])([H])C([H])([N+]([H])(C([H])([H])[H])C([H])([H])C([H])([H])C4([H])C([H])([H])N(C(=O)N5C([H])([H])C([H])([H])C([H])([H])C([H])(n6nc(-c7c([H])c([H])c(Oc8c([H])c([H])c(F)c([H])c8F)c([H])c7[H])c(C(=O)N([H])[H])c6N([H])[H])C5([H])[H])C([H])([H])C4([H])[H])C3([H])[H])c([H])c([H])c2C1([H])[H]

>  <smiles>  (58) 
[H]c1c([H])c([H])c2c(c1[H])C([H])([H])C([H])([H])C([H])([H])C2([H])N([H])C(=O)C1([H])N(C(=O)C([H])(N([H])C(=O)C([H])(N([H])C([H])([H])[H])C([H])([H])[H])C(C([H])([H])[H])(C([H])([H])[H])C([H])([H])[H])C([H])([H])c2c([H])c(OC([H])([H])C([H])([H])N3C([H])([H])C([H])([H])C([H])([N+]([H])(C([H])([H])[H])C([H])([H])C([H])([H])C4([H])C([H])([H])N(C(=O)N5C([H])([H])C([H])([H])C([H])([H])C([H])(n6nc(-c7c([H])c([H])c(Oc8c([H])c([H])c(F)c([H])c8F)c([H])c7[H])c(C(=O)N([H])[H])c6N([H])[H])C5([H])[H])C([H])([H])C4([H])[H])C3([H])[H])c([H])c([H])c2C1([H])[H]

$$$$
59:0:0
     RDKit          3D

 93102  0  0  1  0  0  0  0  0999 V2000
  -27.6660  -22.5950   20.5550 C   0  0  0  0  0  2  0  0  0  0  0  0
  -29.8060  -22.8460   19.7730 C   0  0  0  0  0  3  0  0  0  0  0  0
  -28.8850  -21.8640   20.2710 C   0  0  0  0  0  0  0  0  0  0  0  0
  -28.4140  -24.8170   20.0150 C   0  0  0  0  0  0  0  0  0  0  0  0
  -27.4460  -23.9800   20.4540 N   0  0  0  0  0  0  0  0  0  0  0  0
  -29.5840  -24.2220   19.6740 N   0  0  0  0  0  0  0  0  0  0  0  0
  -28.3530  -26.2780   19.9790 O   0  0  0  0  0  0  0  0  0  0  0  0
  -24.6510  -31.9230   23.0850 C   0  0  0  0  0  0  0  0  0  0  0  0
  -27.2270  -27.1980   20.0110 C   0  0  0  0  0  0  0  0  0  0  0  0
  -23.4390  -30.5130   21.4660 C   0  0  0  0  0  3  0  0  0  0  0  0
  -24.8780  -28.9440   20.0150 C   0  0  0  0  0  0  0  0  0  0  0  0
  -25.9870  -30.7990   21.2560 C   0  0  0  0  0  2  0  0  0  0  0  0
  -26.0620  -29.4000   20.6070 C   0  0  0  0  0  0  0  0  0  0  0  0
  -27.2300  -28.5420   20.5850 C   0  0  0  0  0  3  0  0  0  0  0  0
  -26.0150  -26.8560   19.3740 C   0  0  0  0  0  3  0  0  0  0  0  0
  -24.8690  -27.6890   19.3830 C   0  0  0  0  0  3  0  0  0  0  0  0
  -23.6440  -29.8350   20.0840 C   0  0  0  0  0  2  0  0  0  0  0  0
  -24.7130  -31.1040   21.9900 N   0  0  0  0  0  0  0  0  0  0  0  0
  -23.5710  -32.1920   23.6350 O   0  0  0  0  0  0  0  0  0  0  0  0
  -22.7910  -29.4980   22.4420 C   0  0  0  0  0  0  0  0  0  0  0  0
  -21.4600  -29.3250   22.3560 N   0  0  0  0  0  0  0  0  0  0  0  0
  -23.4890  -28.8680   23.2400 O   0  0  0  0  0  0  0  0  0  0  0  0
  -20.9510  -29.8850   21.6870 H   0  0  0  0  0  0  0  0  0  0  0  0
  -18.1040  -28.0860   22.9350 C   0  0  0  0  0  0  0  0  0  0  0  0
  -20.6660  -28.3780   23.1440 C   0  0  0  0  0  3  0  0  0  0  0  0
  -20.7700  -26.9480   22.5630 C   0  0  0  0  0  2  0  0  0  0  0  0
  -19.6480  -26.6150   21.5730 C   0  0  0  0  0  2  0  0  0  0  0  0
  -18.2800  -26.7420   22.2490 C   0  0  0  0  0  2  0  0  0  0  0  0
  -19.2240  -28.8610   23.3410 C   0  0  0  0  0  0  0  0  0  0  0  0
  -19.0030  -30.1180   23.9460 C   0  0  0  0  0  3  0  0  0  0  0  0
  -17.6970  -30.6010   24.1470 C   0  0  0  0  0  3  0  0  0  0  0  0
  -16.5920  -29.8240   23.7560 C   0  0  0  0  0  3  0  0  0  0  0  0
  -16.7970  -28.5690   23.1560 C   0  0  0  0  0  3  0  0  0  0  0  0
  -25.9300  -32.5780   23.6900 C   0  0  0  0  0  3  0  0  0  0  0  0
  -26.4870  -31.8040   24.9490 C   0  0  1  0  0  0  0  0  0  0  0  0
  -25.4210  -31.5360   26.0380 C   0  0  0  0  0  1  0  0  0  0  0  0
  -27.0870  -30.4410   24.5370 C   0  0  0  0  0  1  0  0  0  0  0  0
  -27.6370  -32.6120   25.5950 C   0  0  0  0  0  1  0  0  0  0  0  0
  -25.5970  -33.9660   24.0520 N   0  0  0  0  0  0  0  0  0  0  0  0
  -25.9230  -35.0450   23.3280 C   0  0  0  0  0  0  0  0  0  0  0  0
  -26.6000  -34.9770   22.3000 O   0  0  0  0  0  0  0  0  0  0  0  0
  -24.9940  -34.0900   24.8520 H   0  0  0  0  0  0  0  0  0  0  0  0
  -24.1980  -36.8490   22.9960 C   0  0  0  0  0  1  0  0  0  0  0  0
  -25.4200  -36.4160   23.8230 C   0  0  0  0  0  3  0  0  0  0  0  0
  -27.5280  -37.2800   24.7400 C   0  0  0  0  0  1  0  0  0  0  0  0
  -26.4510  -37.4760   23.7730 N   0  0  0  0  0  0  0  0  0  0  0  0
  -26.0370  -38.3900   23.9410 H   0  0  0  0  0  0  0  0  0  0  0  0
  -29.2360  -20.2730   20.7710 C   0  0  0  0  0  3  0  0  0  0  0  0
  -30.7670  -15.2250   19.9740 C   0  0  0  0  0  0  0  0  0  0  0  0
  -30.5660  -12.8590   19.0410 C   0  0  0  0  0  2  0  0  0  0  0  0
  -29.5900  -12.7420   17.8500 C   0  0  0  0  0  2  0  0  0  0  0  0
  -28.1570  -12.5070   18.3580 C   0  0  0  0  0  2  0  0  0  0  0  0
  -27.7830  -13.4550   19.5280 C   0  0  0  0  0  3  0  0  0  0  0  0
  -28.8860  -13.5540   20.6020 C   0  0  0  0  0  2  0  0  0  0  0  0
  -30.0990  -13.9920   19.9030 N   0  0  0  0  0  0  0  0  0  0  0  0
  -31.9730  -15.1670   19.7090 O   0  0  0  0  0  0  0  0  0  0  0  0
  -28.9920  -17.3190   20.5490 C   0  0  0  0  0  2  0  0  0  0  0  0
  -30.8310  -17.9060   19.8540 C   0  0  0  0  0  2  0  0  0  0  0  0
  -29.4780  -18.7590   19.9680 C   0  0  0  0  0  3  0  0  0  0  0  0
  -30.1570  -16.5460   19.9690 N   0  0  0  0  0  0  0  0  0  0  0  0
  -25.4530  -14.0060   20.4100 C   0  0  0  0  0  0  0  0  0  0  0  0
  -24.4090  -13.2230   20.8140 C   0  0  0  0  0  0  0  0  0  0  0  0
  -24.8720  -11.8730   20.7320 C   0  0  0  0  0  0  0  0  0  0  0  0
  -26.4810  -13.1360   20.0980 N   0  0  0  0  0  0  0  0  0  0  0  0
  -26.1470  -11.8450   20.3590 N   0  0  0  0  0  0  0  0  0  0  0  0
  -24.1530  -10.6060   20.9270 C   0  0  0  0  0  0  0  0  0  0  0  0
  -24.5890   -9.6450   21.8650 C   0  0  0  0  0  3  0  0  0  0  0  0
  -23.8670   -8.4460   22.0490 C   0  0  0  0  0  3  0  0  0  0  0  0
  -22.6950   -8.2000   21.2950 C   0  0  0  0  0  0  0  0  0  0  0  0
  -22.2780   -9.1490   20.3460 C   0  0  0  0  0  3  0  0  0  0  0  0
  -23.0010  -10.3400   20.1600 C   0  0  0  0  0  3  0  0  0  0  0  0
  -21.9440   -7.0530   21.3890 O   0  0  0  0  0  0  0  0  0  0  0  0
  -21.8540   -6.3470   22.5620 C   0  0  0  0  0  0  0  0  0  0  0  0
  -21.3470   -6.9280   23.7450 C   0  0  0  0  0  3  0  0  0  0  0  0
  -21.2060   -6.1470   24.9080 C   0  0  0  0  0  3  0  0  0  0  0  0
  -21.5590   -4.7850   24.8910 C   0  0  0  0  0  0  0  0  0  0  0  0
  -22.0580   -4.2020   23.7120 C   0  0  0  0  0  3  0  0  0  0  0  0
  -22.2010   -4.9800   22.5500 C   0  0  0  0  0  0  0  0  0  0  0  0
  -22.6620   -4.4100   21.4110 F   0  0  0  0  0  0  0  0  0  0  0  0
  -21.4170   -4.0310   26.0060 F   0  0  0  0  0  0  0  0  0  0  0  0
  -23.0270  -13.6950   21.1570 C   0  0  0  0  0  0  0  0  0  0  0  0
  -22.3410  -12.9860   22.0480 N   0  0  0  0  0  0  0  0  0  0  0  0
  -22.5660  -14.7270   20.6720 O   0  0  0  0  0  0  0  0  0  0  0  0
  -22.7300  -12.1510   22.4600 H   0  0  0  0  0  0  0  0  0  0  0  0
  -21.4150  -13.2840   22.3200 H   0  0  0  0  0  0  0  0  0  0  0  0
  -25.6080  -15.3810   20.2520 N   0  0  0  0  0  0  0  0  0  0  0  0
  -24.8440  -16.0300   20.4090 H   0  0  0  0  0  0  0  0  0  0  0  0
  -26.4300  -15.8180   19.8610 H   0  0  0  0  0  0  0  0  0  0  0  0
  -30.2860  -20.3540   21.9070 C   0  0  0  0  0  2  0  0  0  0  0  0
  -30.9040  -21.4110   24.0640 C   0  0  0  0  0  1  0  0  0  0  0  0
  -29.9020  -21.2880   22.9870 N   0  0  0  0  0  4  0  0  0  0  0  0
  -29.7460  -22.2020   22.5970 H   0  0  0  0  0  0  0  0  0  0  0  0
  -29.0370  -20.9760   23.3990 H   0  0  0  0  0  0  0  0  0  0  0  0
  2  3  2  0
  3  1  1  0
  3 48  1  0
  4  5  2  0
  5  1  1  0
  6  2  1  0
  6  4  2  0
  7  9  1  0
  7  4  1  0
  8 19  2  0
  9 14  1  0
 10 18  1  0
 10 20  1  0
 11 17  1  0
 11 13  1  0
 12 18  1  0
 13 12  1  0
 14 13  2  0
 15 16  1  0
 15  9  2  0
 16 11  2  0
 17 10  1  0
 18  8  1  0
 20 22  2  0
 21 20  1  0
 23 21  1  0
 24 33  2  0
 24 29  1  0
 25 21  1  0
 25 29  1  0
 26 25  1  0
 27 28  1  0
 27 26  1  0
 28 24  1  0
 29 30  2  0
 30 31  1  0
 32 31  2  0
 33 32  1  0
 34  8  1  0
 34 39  1  0
 34 35  1  0
 35 38  1  1
 35 36  1  0
 37 35  1  0
 39 42  1  0
 40 44  1  0
 40 39  1  0
 41 40  2  0
 44 43  1  0
 46 44  1  0
 46 47  1  0
 46 45  1  0
 48 89  1  0
 50 55  1  0
 51 52  1  0
 51 50  1  0
 53 52  1  0
 53 64  1  0
 53 54  1  0
 55 49  1  0
 55 54  1  0
 56 49  2  0
 58 59  1  0
 58 60  1  0
 59 57  1  0
 59 48  1  0
 60 49  1  0
 60 57  1  0
 61 62  2  0
 62 81  1  0
 63 62  1  0
 63 66  1  0
 64 65  1  0
 64 61  1  0
 65 63  2  0
 66 67  1  0
 67 68  2  0
 69 72  1  0
 69 68  1  0
 70 69  2  0
 71 70  1  0
 71 66  2  0
 72 73  1  0
 73 74  1  0
 74 75  2  0
 76 75  1  0
 76 80  1  0
 77 76  2  0
 78 73  2  0
 78 77  1  0
 79 78  1  0
 81 82  1  0
 82 85  1  0
 82 84  1  0
 83 81  2  0
 86 87  1  0
 86 61  1  0
 88 86  1  0
 89 91  1  0
 91 93  1  0
 91 90  1  0
 92 91  1  0
M  ISO  4   4 101   7 101  49 100  60 100
M  END
>  <TORSDO>  (59) 
F 19

>  <SCORE>  (59) 
-15.625

>  <name>  (59) 
59

>  <ligand_id>  (59) 
59

>  <original_smiles>  (59) 
[H]c1nc(Oc2c([H])c([H])c3c(c2[H])C([H])([H])N(C(=O)C([H])(N([H])C(=O)C([H])(N([H])C([H])([H])[H])C([H])([H])[H])C(C([H])([H])[H])(C([H])([H])[H])C([H])([H])[H])C([H])(C(=O)N([H])C2([H])c4c([H])c([H])c([H])c([H])c4C([H])([H])C([H])([H])C2([H])[H])C3([H])[H])nc([H])c1C([H])(C1([H])C([H])([H])N(C(=O)N2C([H])([H])C([H])([H])C([H])([H])C([H])(n3nc(-c4c([H])c([H])c(Oc5c([H])c([H])c(F)c([H])c5F)c([H])c4[H])c(C(=O)N([H])[H])c3N([H])[H])C2([H])[H])C1([H])[H])C([H])([H])[N+]([H])([H])C([H])([H])[H]

>  <smiles>  (59) 
[H]c1nc(Oc2c([H])c([H])c3c(c2[H])C([H])([H])N(C(=O)C([H])(N([H])C(=O)C([H])(N([H])C([H])([H])[H])C([H])([H])[H])C(C([H])([H])[H])(C([H])([H])[H])C([H])([H])[H])C([H])(C(=O)N([H])C2([H])c4c([H])c([H])c([H])c([H])c4C([H])([H])C([H])([H])C2([H])[H])C3([H])[H])nc([H])c1C([H])(C1([H])C([H])([H])N(C(=O)N2C([H])([H])C([H])([H])C([H])([H])C([H])(n3nc(-c4c([H])c([H])c(Oc5c([H])c([H])c(F)c([H])c5F)c([H])c4[H])c(C(=O)N([H])[H])c3N([H])[H])C2([H])[H])C1([H])[H])C([H])([H])[N+]([H])([H])C([H])([H])[H]

$$$$
60:0:0
     RDKit          3D

 87 95  0  0  1  0  0  0  0  0999 V2000
  -29.5140  -23.7960   20.5890 C   0  0  0  0  0  2  0  0  0  0  0  0
  -28.7190  -22.7110   19.8930 C   0  0  0  0  0  3  0  0  0  0  0  0
  -28.0870  -24.2800   20.4960 C   0  0  0  0  0  3  0  0  0  0  0  0
  -29.0780  -21.2320   20.5890 N   0  0  0  0  0  4  0  0  0  0  0  0
  -28.5830  -21.2100   21.4660 H   0  0  0  0  0  0  0  0  0  0  0  0
  -30.0470  -21.3230   20.8420 H   0  0  0  0  0  0  0  0  0  0  0  0
  -28.9950  -19.6690   20.0100 C   0  0  0  0  0  3  0  0  0  0  0  0
  -29.8540  -18.1810   20.5640 C   0  0  0  0  0  3  0  0  0  0  0  0
  -30.3950  -15.2780   20.2470 C   0  0  0  0  0  0  0  0  0  0  0  0
  -30.3700  -12.8390   19.3570 C   0  0  0  0  0  2  0  0  0  0  0  0
  -29.4380  -12.6230   18.1380 C   0  0  0  0  0  2  0  0  0  0  0  0
  -27.9930  -12.3550   18.5940 C   0  0  0  0  0  2  0  0  0  0  0  0
  -27.5490  -13.3210   19.7210 C   0  0  0  0  0  3  0  0  0  0  0  0
  -28.6080  -13.4700   20.8320 C   0  0  0  0  0  2  0  0  0  0  0  0
  -29.8260  -13.9780   20.1800 N   0  0  0  0  0  0  0  0  0  0  0  0
  -31.6210  -15.2810   20.0690 O   0  0  0  0  0  0  0  0  0  0  0  0
  -29.6200  -16.5410   20.3140 N   0  0  0  0  0  0  0  0  0  0  0  0
  -28.6350  -16.3220   20.3150 H   0  0  0  0  0  0  0  0  0  0  0  0
  -25.1840  -13.8770   20.4950 C   0  0  0  0  0  0  0  0  0  0  0  0
  -24.1270  -13.0990   20.8730 C   0  0  0  0  0  0  0  0  0  0  0  0
  -24.5970  -11.7500   20.8410 C   0  0  0  0  0  0  0  0  0  0  0  0
  -26.2270  -13.0030   20.2440 N   0  0  0  0  0  0  0  0  0  0  0  0
  -25.8870  -11.7180   20.5220 N   0  0  0  0  0  0  0  0  0  0  0  0
  -23.8740  -10.4860   21.0360 C   0  0  0  0  0  0  0  0  0  0  0  0
  -24.3200   -9.5120   21.9570 C   0  0  0  0  0  3  0  0  0  0  0  0
  -23.5930   -8.3160   22.1420 C   0  0  0  0  0  3  0  0  0  0  0  0
  -22.4070   -8.0850   21.4060 C   0  0  0  0  0  0  0  0  0  0  0  0
  -21.9800   -9.0460   20.4740 C   0  0  0  0  0  3  0  0  0  0  0  0
  -22.7070  -10.2340   20.2870 C   0  0  0  0  0  3  0  0  0  0  0  0
  -21.6510   -6.9410   21.5020 O   0  0  0  0  0  0  0  0  0  0  0  0
  -21.6340   -6.1830   22.6460 C   0  0  0  0  0  0  0  0  0  0  0  0
  -21.2580   -6.7270   23.8930 C   0  0  0  0  0  3  0  0  0  0  0  0
  -21.1850   -5.8970   25.0290 C   0  0  0  0  0  3  0  0  0  0  0  0
  -21.4780   -4.5240   24.9190 C   0  0  0  0  0  0  0  0  0  0  0  0
  -21.8480   -3.9800   23.6770 C   0  0  0  0  0  3  0  0  0  0  0  0
  -21.9210   -4.8070   22.5430 C   0  0  0  0  0  0  0  0  0  0  0  0
  -22.2570   -4.2740   21.3430 F   0  0  0  0  0  0  0  0  0  0  0  0
  -21.4020   -3.7250   26.0100 F   0  0  0  0  0  0  0  0  0  0  0  0
  -22.7300  -13.5740   21.1460 C   0  0  0  0  0  0  0  0  0  0  0  0
  -22.0070  -12.8810   22.0180 N   0  0  0  0  0  0  0  0  0  0  0  0
  -22.2890  -14.5950   20.6190 O   0  0  0  0  0  0  0  0  0  0  0  0
  -22.3770  -12.0550   22.4640 H   0  0  0  0  0  0  0  0  0  0  0  0
  -21.0680  -13.1810   22.2420 H   0  0  0  0  0  0  0  0  0  0  0  0
  -25.3400  -15.2480   20.3130 N   0  0  0  0  0  0  0  0  0  0  0  0
  -24.5640  -15.8940   20.4230 H   0  0  0  0  0  0  0  0  0  0  0  0
  -26.1690  -15.6870   19.9350 H   0  0  0  0  0  0  0  0  0  0  0  0
  -28.2420  -25.9040   20.2380 O   0  0  0  0  0  0  0  0  0  0  0  0
  -24.6580  -31.8660   23.2040 C   0  0  0  0  0  0  0  0  0  0  0  0
  -27.2030  -26.9690   20.2330 C   0  0  0  0  0  0  0  0  0  0  0  0
  -23.4580  -30.4590   21.5800 C   0  0  0  0  0  3  0  0  0  0  0  0
  -24.9000  -28.8370   20.1730 C   0  0  0  0  0  0  0  0  0  0  0  0
  -26.0230  -30.6710   21.4220 C   0  0  0  0  0  2  0  0  0  0  0  0
  -26.0910  -29.2540   20.7820 C   0  0  0  0  0  0  0  0  0  0  0  0
  -27.2390  -28.3430   20.7790 C   0  0  0  0  0  3  0  0  0  0  0  0
  -25.9790  -26.6920   19.5870 C   0  0  0  0  0  3  0  0  0  0  0  0
  -24.8670  -27.5760   19.5550 C   0  0  0  0  0  3  0  0  0  0  0  0
  -23.6830  -29.7600   20.2100 C   0  0  0  0  0  2  0  0  0  0  0  0
  -24.7350  -31.0250   22.1220 N   0  0  0  0  0  0  0  0  0  0  0  0
  -23.5700  -32.1600   23.7260 O   0  0  0  0  0  0  0  0  0  0  0  0
  -22.7650  -29.4720   22.5560 C   0  0  0  0  0  0  0  0  0  0  0  0
  -21.4330  -29.3120   22.4370 N   0  0  0  0  0  0  0  0  0  0  0  0
  -23.4310  -28.8490   23.3860 O   0  0  0  0  0  0  0  0  0  0  0  0
  -20.9490  -29.8650   21.7430 H   0  0  0  0  0  0  0  0  0  0  0  0
  -18.0480  -28.1180   22.9640 C   0  0  0  0  0  0  0  0  0  0  0  0
  -20.6090  -28.3830   23.2180 C   0  0  0  0  0  3  0  0  0  0  0  0
  -20.7070  -26.9460   22.6530 C   0  0  0  0  0  2  0  0  0  0  0  0
  -19.6010  -26.6170   21.6460 C   0  0  0  0  0  2  0  0  0  0  0  0
  -18.2210  -26.7660   22.2930 C   0  0  0  0  0  2  0  0  0  0  0  0
  -19.1690  -28.8840   23.3830 C   0  0  0  0  0  0  0  0  0  0  0  0
  -18.9500  -30.1480   23.9740 C   0  0  0  0  0  3  0  0  0  0  0  0
  -17.6450  -30.6470   24.1470 C   0  0  0  0  0  3  0  0  0  0  0  0
  -16.5400  -29.8790   23.7410 C   0  0  0  0  0  3  0  0  0  0  0  0
  -16.7420  -28.6170   23.1560 C   0  0  0  0  0  3  0  0  0  0  0  0
  -25.9300  -32.5110   23.8310 C   0  0  0  0  0  3  0  0  0  0  0  0
  -26.4480  -31.7430   25.1110 C   0  0  1  0  0  0  0  0  0  0  0  0
  -25.3560  -31.5090   26.1820 C   0  0  0  0  0  1  0  0  0  0  0  0
  -27.0310  -30.3650   24.7300 C   0  0  0  0  0  1  0  0  0  0  0  0
  -27.5990  -32.5400   25.7680 C   0  0  0  0  0  1  0  0  0  0  0  0
  -25.6090  -33.9080   24.1740 N   0  0  0  0  0  0  0  0  0  0  0  0
  -25.9270  -34.9740   23.4280 C   0  0  0  0  0  0  0  0  0  0  0  0
  -26.5840  -34.8870   22.3880 O   0  0  0  0  0  0  0  0  0  0  0  0
  -25.0230  -34.0480   24.9830 H   0  0  0  0  0  0  0  0  0  0  0  0
  -24.1800  -36.7650   23.1330 C   0  0  0  0  0  1  0  0  0  0  0  0
  -25.4420  -36.3570   23.9110 C   0  0  0  0  0  3  0  0  0  0  0  0
  -27.5910  -37.2520   24.7000 C   0  0  0  0  0  1  0  0  0  0  0  0
  -26.4660  -37.4180   23.7830 N   0  0  0  0  0  0  0  0  0  0  0  0
  -26.0570  -38.3360   23.9460 H   0  0  0  0  0  0  0  0  0  0  0  0
  2  3  1  0
  2  4  1  0
  2  1  1  0
  3 47  1  0
  3  1  1  0
  4  6  1  0
  4  5  1  0
  7  8  2  0
  7  4  1  0
  9 17  1  0
 10 15  1  0
 11 12  1  0
 11 10  1  0
 13 12  1  0
 13 22  1  0
 13 14  1  0
 15  9  1  0
 15 14  1  0
 16  9  2  0
 17 18  1  0
 17  8  1  0
 19 20  2  0
 20 39  1  0
 21 20  1  0
 21 24  1  0
 22 19  1  0
 22 23  1  0
 23 21  2  0
 24 25  1  0
 25 26  2  0
 27 30  1  0
 27 26  1  0
 28 27  2  0
 29 28  1  0
 29 24  2  0
 30 31  1  0
 31 32  1  0
 32 33  2  0
 34 33  1  0
 34 38  1  0
 35 34  2  0
 36 31  2  0
 36 35  1  0
 37 36  1  0
 39 40  1  0
 40 43  1  0
 40 42  1  0
 41 39  2  0
 44 45  1  0
 44 19  1  0
 46 44  1  0
 48 59  2  0
 49 47  1  0
 49 54  1  0
 50 58  1  0
 50 60  1  0
 51 57  1  0
 51 53  1  0
 52 58  1  0
 53 52  1  0
 54 53  2  0
 55 49  2  0
 56 55  1  0
 56 51  2  0
 57 50  1  0
 58 48  1  0
 60 62  2  0
 61 60  1  0
 63 61  1  0
 64 73  2  0
 64 69  1  0
 65 61  1  0
 65 69  1  0
 66 65  1  0
 67 68  1  0
 67 66  1  0
 68 64  1  0
 69 70  2  0
 70 71  1  0
 72 71  2  0
 73 72  1  0
 74 48  1  0
 74 79  1  0
 74 75  1  0
 75 78  1  1
 75 76  1  0
 77 75  1  0
 79 82  1  0
 80 84  1  0
 80 79  1  0
 81 80  2  0
 84 83  1  0
 86 84  1  0
 86 87  1  0
 86 85  1  0
M  ISO  4   3 101   9 100  17 100  47 101
M  END
>  <TORSDO>  (60) 
F 19

>  <SCORE>  (60) 
-16.414

>  <name>  (60) 
60

>  <ligand_id>  (60) 
60

>  <original_smiles>  (60) 
[H]c1c([H])c([H])c2c(c1[H])C([H])([H])C([H])([H])C([H])([H])C2([H])N([H])C(=O)C1([H])N(C(=O)C([H])(N([H])C(=O)C([H])(N([H])C([H])([H])[H])C([H])([H])[H])C(C([H])([H])[H])(C([H])([H])[H])C([H])([H])[H])C([H])([H])c2c([H])c(OC3([H])C([H])([H])C3([H])[N+]([H])([H])C([H])([H])C([H])([H])N([H])C(=O)N3C([H])([H])C([H])([H])C([H])([H])C([H])(n4nc(-c5c([H])c([H])c(Oc6c([H])c([H])c(F)c([H])c6F)c([H])c5[H])c(C(=O)N([H])[H])c4N([H])[H])C3([H])[H])c([H])c([H])c2C1([H])[H]

>  <smiles>  (60) 
[H]c1c([H])c([H])c2c(c1[H])C([H])([H])C([H])([H])C([H])([H])C2([H])N([H])C(=O)C1([H])N(C(=O)C([H])(N([H])C(=O)C([H])(N([H])C([H])([H])[H])C([H])([H])[H])C(C([H])([H])[H])(C([H])([H])[H])C([H])([H])[H])C([H])([H])c2c([H])c(OC3([H])C([H])([H])C3([H])[N+]([H])([H])C([H])([H])C([H])([H])N([H])C(=O)N3C([H])([H])C([H])([H])C([H])([H])C([H])(n4nc(-c5c([H])c([H])c(Oc6c([H])c([H])c(F)c([H])c6F)c([H])c5[H])c(C(=O)N([H])[H])c4N([H])[H])C3([H])[H])c([H])c([H])c2C1([H])[H]

$$$$
61:0:0
     RDKit          3D

 89 98  0  0  1  0  0  0  0  0999 V2000
  -30.6340  -14.9720   20.4090 C   0  0  0  0  0  0  0  0  0  0  0  0
  -30.4090  -12.6170   19.4960 C   0  0  0  0  0  2  0  0  0  0  0  0
  -29.5050  -12.5230   18.2510 C   0  0  0  0  0  2  0  0  0  0  0  0
  -28.0450  -12.3070   18.6780 C   0  0  0  0  0  2  0  0  0  0  0  0
  -27.6150  -13.2610   19.8240 C   0  0  0  0  0  3  0  0  0  0  0  0
  -28.6610  -13.3670   20.9550 C   0  0  0  0  0  2  0  0  0  0  0  0
  -29.9230  -13.7690   20.3230 N   0  0  0  0  0  0  0  0  0  0  0  0
  -31.8470  -14.8530   20.2080 O   0  0  0  0  0  0  0  0  0  0  0  0
  -30.3760  -21.9330   20.9860 C   0  0  0  0  0  3  0  0  0  0  0  0
  -29.9740  -23.2580   20.8670 C   0  0  0  0  0  3  0  0  0  0  0  0
  -29.3280  -21.0920   20.4900 C   0  0  0  0  0  0  0  0  0  0  0  0
  -30.7140  -18.9020   20.8210 C   0  0  0  0  0  3  0  0  0  0  0  0
  -28.4320  -18.5230   20.1990 C   0  0  0  0  0  3  0  0  0  0  0  0
  -30.9930  -17.4990   20.1000 C   0  0  0  0  0  3  0  0  0  0  0  0
  -28.7440  -16.9560   20.6480 C   0  0  0  0  0  3  0  0  0  0  0  0
  -28.3270  -21.9740   20.1020 N   0  0  0  0  0  0  0  0  0  0  0  0
  -28.7060  -23.3450   20.3200 N   0  0  0  0  0  0  0  0  0  0  0  0
  -29.4530  -19.5960   20.4560 N   0  0  0  0  0  0  0  0  0  0  0  0
  -30.1010  -16.3190   20.4090 N   0  0  0  0  0  0  0  0  0  0  0  0
  -25.2400  -13.8230   20.5750 C   0  0  0  0  0  0  0  0  0  0  0  0
  -24.1740  -13.0440   20.9250 C   0  0  0  0  0  0  0  0  0  0  0  0
  -24.6380  -11.6930   20.8770 C   0  0  0  0  0  0  0  0  0  0  0  0
  -26.2830  -12.9500   20.3250 N   0  0  0  0  0  0  0  0  0  0  0  0
  -25.9310  -11.6610   20.5760 N   0  0  0  0  0  0  0  0  0  0  0  0
  -23.9070  -10.4290   21.0420 C   0  0  0  0  0  0  0  0  0  0  0  0
  -24.3620   -9.4210   21.9190 C   0  0  0  0  0  3  0  0  0  0  0  0
  -23.6300   -8.2240   22.0760 C   0  0  0  0  0  3  0  0  0  0  0  0
  -22.4280   -8.0280   21.3550 C   0  0  0  0  0  0  0  0  0  0  0  0
  -21.9920   -9.0260   20.4650 C   0  0  0  0  0  3  0  0  0  0  0  0
  -22.7240  -10.2130   20.3070 C   0  0  0  0  0  3  0  0  0  0  0  0
  -21.6640   -6.8880   21.4240 O   0  0  0  0  0  0  0  0  0  0  0  0
  -21.6860   -6.0740   22.5280 C   0  0  0  0  0  0  0  0  0  0  0  0
  -21.4020   -6.5640   23.8210 C   0  0  0  0  0  3  0  0  0  0  0  0
  -21.3660   -5.6790   24.9170 C   0  0  0  0  0  3  0  0  0  0  0  0
  -21.6040   -4.3050   24.7220 C   0  0  0  0  0  0  0  0  0  0  0  0
  -21.8810   -3.8150   23.4340 C   0  0  0  0  0  3  0  0  0  0  0  0
  -21.9190   -4.6960   22.3400 C   0  0  0  0  0  0  0  0  0  0  0  0
  -22.1660   -4.2150   21.0980 F   0  0  0  0  0  0  0  0  0  0  0  0
  -21.5630   -3.4530   25.7740 F   0  0  0  0  0  0  0  0  0  0  0  0
  -22.7760  -13.5200   21.1890 C   0  0  0  0  0  0  0  0  0  0  0  0
  -22.0400  -12.8200   22.0440 N   0  0  0  0  0  0  0  0  0  0  0  0
  -22.3440  -14.5500   20.6730 O   0  0  0  0  0  0  0  0  0  0  0  0
  -22.4020  -11.9860   22.4850 H   0  0  0  0  0  0  0  0  0  0  0  0
  -21.1020  -13.1230   22.2650 H   0  0  0  0  0  0  0  0  0  0  0  0
  -25.4020  -15.1960   20.4180 N   0  0  0  0  0  0  0  0  0  0  0  0
  -24.6320  -15.8460   20.5370 H   0  0  0  0  0  0  0  0  0  0  0  0
  -26.2470  -15.6390   20.0850 H   0  0  0  0  0  0  0  0  0  0  0  0
  -27.8120  -24.6080   19.9690 C   0  0  0  0  0  2  0  0  0  0  0  0
  -28.2160  -26.0690   20.2330 O   0  0  0  0  0  0  0  0  0  0  0  0
  -24.6470  -31.8430   23.1890 C   0  0  0  0  0  0  0  0  0  0  0  0
  -27.2030  -27.1060   20.1460 C   0  0  0  0  0  0  0  0  0  0  0  0
  -23.4510  -30.4660   21.5350 C   0  0  0  0  0  3  0  0  0  0  0  0
  -24.8990  -28.8950   20.1070 C   0  0  0  0  0  0  0  0  0  0  0  0
  -26.0120  -30.7060   21.3950 C   0  0  0  0  0  2  0  0  0  0  0  0
  -26.0790  -29.3170   20.7320 C   0  0  0  0  0  0  0  0  0  0  0  0
  -27.2320  -28.4380   20.7380 C   0  0  0  0  0  3  0  0  0  0  0  0
  -25.9980  -26.8080   19.4670 C   0  0  0  0  0  3  0  0  0  0  0  0
  -24.8730  -27.6550   19.4590 C   0  0  0  0  0  3  0  0  0  0  0  0
  -23.6790  -29.8020   20.1530 C   0  0  0  0  0  2  0  0  0  0  0  0
  -24.7240  -31.0260   22.0940 N   0  0  0  0  0  0  0  0  0  0  0  0
  -23.5580  -32.1330   23.7080 O   0  0  0  0  0  0  0  0  0  0  0  0
  -22.7580  -29.4560   22.4840 C   0  0  0  0  0  0  0  0  0  0  0  0
  -21.4270  -29.3060   22.3580 N   0  0  0  0  0  0  0  0  0  0  0  0
  -23.4210  -28.8090   23.3000 O   0  0  0  0  0  0  0  0  0  0  0  0
  -20.9480  -29.8780   21.6770 H   0  0  0  0  0  0  0  0  0  0  0  0
  -18.0310  -28.1400   22.8480 C   0  0  0  0  0  0  0  0  0  0  0  0
  -20.5930  -28.3740   23.1220 C   0  0  0  0  0  3  0  0  0  0  0  0
  -20.6800  -26.9430   22.5400 C   0  0  0  0  0  2  0  0  0  0  0  0
  -19.5760  -26.6380   21.5210 C   0  0  0  0  0  2  0  0  0  0  0  0
  -18.1950  -26.7940   22.1620 C   0  0  0  0  0  2  0  0  0  0  0  0
  -19.1570  -28.8880   23.2840 C   0  0  0  0  0  0  0  0  0  0  0  0
  -18.9480  -30.1480   23.8870 C   0  0  0  0  0  3  0  0  0  0  0  0
  -17.6480  -30.6600   24.0560 C   0  0  0  0  0  3  0  0  0  0  0  0
  -16.5370  -29.9090   23.6340 C   0  0  0  0  0  3  0  0  0  0  0  0
  -16.7300  -28.6510   23.0360 C   0  0  0  0  0  3  0  0  0  0  0  0
  -25.9230  -32.4690   23.8280 C   0  0  0  0  0  3  0  0  0  0  0  0
  -25.5970  -33.8500   24.2190 N   0  0  0  0  0  0  0  0  0  0  0  0
  -25.9080  -34.9400   23.5060 C   0  0  0  0  0  0  0  0  0  0  0  0
  -26.5660  -34.8900   22.4640 O   0  0  0  0  0  0  0  0  0  0  0  0
  -25.0090  -33.9610   25.0320 H   0  0  0  0  0  0  0  0  0  0  0  0
  -24.1490  -36.7250   23.2640 C   0  0  0  0  0  1  0  0  0  0  0  0
  -25.4130  -36.3030   24.0320 C   0  0  0  0  0  3  0  0  0  0  0  0
  -27.5580  -37.1780   24.8460 C   0  0  0  0  0  1  0  0  0  0  0  0
  -26.4280  -37.3750   23.9410 N   0  0  0  0  0  0  0  0  0  0  0  0
  -26.0150  -38.2810   24.1420 H   0  0  0  0  0  0  0  0  0  0  0  0
  -26.4530  -31.6570   25.0730 C   0  0  1  0  0  0  0  0  0  0  0  0
  -25.3700  -31.3780   26.1420 C   0  0  0  0  0  1  0  0  0  0  0  0
  -27.0400  -30.2960   24.6360 C   0  0  0  0  0  1  0  0  0  0  0  0
  -27.6060  -32.4340   25.7520 C   0  0  0  0  0  1  0  0  0  0  0  0
  2  7  1  0
  3  4  1  0
  3  2  1  0
  5  4  1  0
  5 23  1  0
  5  6  1  0
  7  1  1  0
  7  6  1  0
  8  1  2  0
 10  9  2  0
 11  9  1  0
 13 18  1  0
 13 15  2  0
 14 19  1  0
 14 12  2  0
 16 17  1  0
 16 11  2  0
 17 10  1  0
 18 11  1  0
 18 12  1  0
 19  1  1  0
 19 15  1  0
 20 21  2  0
 21 40  1  0
 22 21  1  0
 22 25  1  0
 23 20  1  0
 23 24  1  0
 24 22  2  0
 25 26  1  0
 26 27  2  0
 28 31  1  0
 28 27  1  0
 29 28  2  0
 30 29  1  0
 30 25  2  0
 31 32  1  0
 32 33  1  0
 33 34  2  0
 35 34  1  0
 35 39  1  0
 36 35  2  0
 37 32  2  0
 37 36  1  0
 38 37  1  0
 40 41  1  0
 41 44  1  0
 41 43  1  0
 42 40  2  0
 45 46  1  0
 45 20  1  0
 47 45  1  0
 48 49  1  0
 48 17  1  0
 50 61  2  0
 51 49  1  0
 51 56  1  0
 52 60  1  0
 52 62  1  0
 53 59  1  0
 53 55  1  0
 54 60  1  0
 55 56  2  0
 55 54  1  0
 57 51  2  0
 58 57  1  0
 58 53  2  0
 59 52  1  0
 60 50  1  0
 62 64  2  0
 63 62  1  0
 65 63  1  0
 66 75  2  0
 66 71  1  0
 67 63  1  0
 67 71  1  0
 68 67  1  0
 69 70  1  0
 69 68  1  0
 70 66  1  0
 71 72  2  0
 72 73  1  0
 74 73  2  0
 75 74  1  0
 76 50  1  0
 76 77  1  0
 76 86  1  0
 77 80  1  0
 78 82  1  0
 78 77  1  0
 79 78  2  0
 82 81  1  0
 84 82  1  0
 84 85  1  0
 84 83  1  0
 86 89  1  1
 86 87  1  0
 88 86  1  0
M  ISO  4   1 100  19 100  48 101  49 101
M  END
>  <TORSDO>  (61) 
F 16

>  <SCORE>  (61) 
-15.523

>  <name>  (61) 
61

>  <ligand_id>  (61) 
61

>  <original_smiles>  (61) 
[H]c1c([H])c([H])c2c(c1[H])C([H])([H])C([H])([H])C([H])([H])C2([H])N([H])C(=O)C1([H])N(C(=O)C([H])(N([H])C(=O)C([H])(N([H])C([H])([H])[H])C([H])([H])[H])C(C([H])([H])[H])(C([H])([H])[H])C([H])([H])[H])C([H])([H])c2c([H])c(OC([H])([H])n3nc(N4C([H])([H])C([H])([H])N(C(=O)N5C([H])([H])C([H])([H])C([H])([H])C([H])(n6nc(-c7c([H])c([H])c(Oc8c([H])c([H])c(F)c([H])c8F)c([H])c7[H])c(C(=O)N([H])[H])c6N([H])[H])C5([H])[H])C([H])([H])C4([H])[H])c([H])c3[H])c([H])c([H])c2C1([H])[H]

>  <smiles>  (61) 
[H]c1c([H])c([H])c2c(c1[H])C([H])([H])C([H])([H])C([H])([H])C2([H])N([H])C(=O)C1([H])N(C(=O)C([H])(N([H])C(=O)C([H])(N([H])C([H])([H])[H])C([H])([H])[H])C(C([H])([H])[H])(C([H])([H])[H])C([H])([H])[H])C([H])([H])c2c([H])c(OC([H])([H])n3nc(N4C([H])([H])C([H])([H])N(C(=O)N5C([H])([H])C([H])([H])C([H])([H])C([H])(n6nc(-c7c([H])c([H])c(Oc8c([H])c([H])c(F)c([H])c8F)c([H])c7[H])c(C(=O)N([H])[H])c6N([H])[H])C5([H])[H])C([H])([H])C4([H])[H])c([H])c3[H])c([H])c([H])c2C1([H])[H]

$$$$
62:0:0
     RDKit          3D

 93101  0  0  1  0  0  0  0  0999 V2000
  -28.6590  -21.6550   20.3530 C   0  0  0  0  0  2  0  0  0  0  0  0
  -29.1240  -22.8510   21.1410 N   0  0  0  0  0  4  0  0  0  0  0  0
  -29.9770  -22.5980   21.6120 H   0  0  0  0  0  0  0  0  0  0  0  0
  -28.4470  -22.9950   21.8750 H   0  0  0  0  0  0  0  0  0  0  0  0
  -29.3400  -24.1890   20.4640 C   0  0  0  0  0  2  0  0  0  0  0  0
  -28.0730  -25.1040   20.2760 C   0  0  0  0  0  2  0  0  0  0  0  0
  -28.3010  -26.5550   20.1890 O   0  0  0  0  0  0  0  0  0  0  0  0
  -24.5800  -31.8990   23.2410 C   0  0  0  0  0  0  0  0  0  0  0  0
  -27.1670  -27.3720   20.1590 C   0  0  0  0  0  0  0  0  0  0  0  0
  -23.3590  -30.5030   21.6090 C   0  0  0  0  0  3  0  0  0  0  0  0
  -24.7960  -28.9580   20.1730 C   0  0  0  0  0  0  0  0  0  0  0  0
  -25.8940  -30.8310   21.4010 C   0  0  0  0  0  2  0  0  0  0  0  0
  -25.9690  -29.4550   20.7560 C   0  0  0  0  0  0  0  0  0  0  0  0
  -27.1590  -28.6740   20.7390 C   0  0  0  0  0  3  0  0  0  0  0  0
  -25.9690  -26.9210   19.5550 C   0  0  0  0  0  3  0  0  0  0  0  0
  -24.7960  -27.6950   19.5670 C   0  0  0  0  0  3  0  0  0  0  0  0
  -23.5600  -29.8300   20.2280 C   0  0  0  0  0  2  0  0  0  0  0  0
  -24.6310  -31.0940   22.1410 N   0  0  0  0  0  0  0  0  0  0  0  0
  -23.5010  -32.1780   23.7850 O   0  0  0  0  0  0  0  0  0  0  0  0
  -22.7080  -29.4840   22.5720 C   0  0  0  0  0  0  0  0  0  0  0  0
  -21.3820  -29.3000   22.4490 N   0  0  0  0  0  0  0  0  0  0  0  0
  -23.3910  -28.8620   23.3900 O   0  0  0  0  0  0  0  0  0  0  0  0
  -20.8900  -29.8540   21.7620 H   0  0  0  0  0  0  0  0  0  0  0  0
  -18.0110  -28.0910   22.9500 C   0  0  0  0  0  0  0  0  0  0  0  0
  -20.5670  -28.3640   23.2250 C   0  0  0  0  0  3  0  0  0  0  0  0
  -20.6770  -26.9300   22.6600 C   0  0  0  0  0  2  0  0  0  0  0  0
  -19.5800  -26.5950   21.6460 C   0  0  0  0  0  2  0  0  0  0  0  0
  -18.1960  -26.7380   22.2840 C   0  0  0  0  0  2  0  0  0  0  0  0
  -19.1260  -28.8620   23.3770 C   0  0  0  0  0  0  0  0  0  0  0  0
  -18.8990  -30.1280   23.9600 C   0  0  0  0  0  3  0  0  0  0  0  0
  -17.5910  -30.6240   24.1170 C   0  0  0  0  0  3  0  0  0  0  0  0
  -16.4920  -29.8520   23.7060 C   0  0  0  0  0  3  0  0  0  0  0  0
  -16.7020  -28.5870   23.1280 C   0  0  0  0  0  3  0  0  0  0  0  0
  -25.8690  -32.5290   23.8510 C   0  0  0  0  0  3  0  0  0  0  0  0
  -25.5670  -33.9280   24.1790 N   0  0  0  0  0  0  0  0  0  0  0  0
  -25.9000  -34.9770   23.4140 C   0  0  0  0  0  0  0  0  0  0  0  0
  -26.5640  -34.8670   22.3790 O   0  0  0  0  0  0  0  0  0  0  0  0
  -24.9780  -34.0880   24.9830 H   0  0  0  0  0  0  0  0  0  0  0  0
  -24.1770  -36.7750   23.0610 C   0  0  0  0  0  1  0  0  0  0  0  0
  -25.4200  -36.3690   23.8680 C   0  0  0  0  0  3  0  0  0  0  0  0
  -27.5630  -37.2450   24.6860 C   0  0  0  0  0  1  0  0  0  0  0  0
  -26.4570  -37.4170   23.7480 N   0  0  0  0  0  0  0  0  0  0  0  0
  -26.0550  -38.3390   23.8970 H   0  0  0  0  0  0  0  0  0  0  0  0
  -26.3930  -31.7590   25.1260 C   0  0  1  0  0  0  0  0  0  0  0  0
  -25.3050  -31.5290   26.2020 C   0  0  0  0  0  1  0  0  0  0  0  0
  -26.9650  -30.3770   24.7330 C   0  0  0  0  0  1  0  0  0  0  0  0
  -27.5520  -32.5490   25.7770 C   0  0  0  0  0  1  0  0  0  0  0  0
  -29.7380  -20.6280   19.8310 C   0  0  0  0  0  2  0  0  0  0  0  0
  -31.2720  -17.1950   21.8860 C   0  0  0  0  0  3  0  0  0  0  0  0
  -31.2080  -19.4980   21.6570 C   0  0  0  0  0  0  0  0  0  0  0  0
  -30.1820  -19.3950   20.6800 C   0  0  0  0  0  0  0  0  0  0  0  0
  -30.2470  -17.0290   20.9220 C   0  0  0  0  0  0  0  0  0  0  0  0
  -31.8190  -20.8220   22.0720 C   0  0  0  0  0  1  0  0  0  0  0  0
  -31.7360  -18.4080   22.2630 N   0  0  0  0  0  0  0  0  0  0  0  0
  -29.6900  -18.1510   20.3470 N   0  0  0  0  0  0  0  0  0  0  0  0
  -30.5590  -14.6000   20.3280 C   0  0  0  0  0  0  0  0  0  0  0  0
  -30.2680  -12.4180   19.1860 C   0  0  0  0  0  2  0  0  0  0  0  0
  -29.2940  -12.5910   18.0030 C   0  0  0  0  0  2  0  0  0  0  0  0
  -27.8330  -12.4330   18.4680 C   0  0  0  0  0  2  0  0  0  0  0  0
  -27.5120  -13.2660   19.7370 C   0  0  0  0  0  3  0  0  0  0  0  0
  -28.6000  -13.0820   20.8190 C   0  0  0  0  0  2  0  0  0  0  0  0
  -29.8960  -13.4120   20.2080 N   0  0  0  0  0  0  0  0  0  0  0  0
  -31.7230  -14.7340   19.9410 O   0  0  0  0  0  0  0  0  0  0  0  0
  -29.7990  -15.6830   20.6540 N   0  0  0  0  0  0  0  0  0  0  0  0
  -28.8090  -15.5230   20.7330 H   0  0  0  0  0  0  0  0  0  0  0  0
  -25.1310  -13.8530   20.5090 C   0  0  0  0  0  0  0  0  0  0  0  0
  -24.0770  -13.0720   20.9000 C   0  0  0  0  0  0  0  0  0  0  0  0
  -24.5470  -11.7230   20.8570 C   0  0  0  0  0  0  0  0  0  0  0  0
  -26.1760  -12.9780   20.2500 N   0  0  0  0  0  0  0  0  0  0  0  0
  -25.8310  -11.6930   20.5200 N   0  0  0  0  0  0  0  0  0  0  0  0
  -23.8330  -10.4550   21.0580 C   0  0  0  0  0  0  0  0  0  0  0  0
  -24.2950   -9.4850   21.9750 C   0  0  0  0  0  3  0  0  0  0  0  0
  -23.5800   -8.2830   22.1650 C   0  0  0  0  0  3  0  0  0  0  0  0
  -22.3890   -8.0430   21.4380 C   0  0  0  0  0  0  0  0  0  0  0  0
  -21.9460   -9.0010   20.5110 C   0  0  0  0  0  3  0  0  0  0  0  0
  -22.6620  -10.1950   20.3180 C   0  0  0  0  0  3  0  0  0  0  0  0
  -21.6450   -6.8920   21.5380 O   0  0  0  0  0  0  0  0  0  0  0  0
  -21.6410   -6.1340   22.6820 C   0  0  0  0  0  0  0  0  0  0  0  0
  -21.2640   -6.6740   23.9310 C   0  0  0  0  0  3  0  0  0  0  0  0
  -21.2070   -5.8430   25.0680 C   0  0  0  0  0  3  0  0  0  0  0  0
  -21.5170   -4.4740   24.9570 C   0  0  0  0  0  0  0  0  0  0  0  0
  -21.8870   -3.9340   23.7130 C   0  0  0  0  0  3  0  0  0  0  0  0
  -21.9460   -4.7620   22.5780 C   0  0  0  0  0  0  0  0  0  0  0  0
  -22.2830   -4.2330   21.3780 F   0  0  0  0  0  0  0  0  0  0  0  0
  -21.4530   -3.6730   26.0470 F   0  0  0  0  0  0  0  0  0  0  0  0
  -22.6820  -13.5400   21.2010 C   0  0  0  0  0  0  0  0  0  0  0  0
  -21.9760  -12.8380   22.0800 N   0  0  0  0  0  0  0  0  0  0  0  0
  -22.2280  -14.5640   20.6920 O   0  0  0  0  0  0  0  0  0  0  0  0
  -22.3560  -12.0100   22.5140 H   0  0  0  0  0  0  0  0  0  0  0  0
  -21.0420  -13.1360   22.3260 H   0  0  0  0  0  0  0  0  0  0  0  0
  -25.2810  -15.2250   20.3290 N   0  0  0  0  0  0  0  0  0  0  0  0
  -24.5040  -15.8670   20.4450 H   0  0  0  0  0  0  0  0  0  0  0  0
  -26.1050  -15.6720   19.9470 H   0  0  0  0  0  0  0  0  0  0  0  0
  1  2  1  0
  2  3  1  0
  2  4  1  0
  5  2  1  0
  6  5  1  0
  7  6  1  0
  8 19  2  0
  9  7  1  0
  9 14  1  0
 10 18  1  0
 10 20  1  0
 11 17  1  0
 11 13  1  0
 12 18  1  0
 13 12  1  0
 14 13  2  0
 15 16  1  0
 15  9  2  0
 16 11  2  0
 17 10  1  0
 18  8  1  0
 20 22  2  0
 21 20  1  0
 23 21  1  0
 24 33  2  0
 24 29  1  0
 25 21  1  0
 25 29  1  0
 26 25  1  0
 27 28  1  0
 27 26  1  0
 28 24  1  0
 29 30  2  0
 30 31  1  0
 32 31  2  0
 33 32  1  0
 34  8  1  0
 34 35  1  0
 34 44  1  0
 35 38  1  0
 36 40  1  0
 36 35  1  0
 37 36  2  0
 40 39  1  0
 42 40  1  0
 42 43  1  0
 42 41  1  0
 44 47  1  1
 44 45  1  0
 46 44  1  0
 48  1  1  0
 48 51  1  0
 49 54  1  0
 50 53  1  0
 50 54  2  0
 51 50  1  0
 52 49  2  0
 55 51  2  0
 55 52  1  0
 56 64  1  0
 57 62  1  0
 58 59  1  0
 58 57  1  0
 60 59  1  0
 60 69  1  0
 60 61  1  0
 62 56  1  0
 62 61  1  0
 63 56  2  0
 64 65  1  0
 64 52  1  0
 66 67  2  0
 67 86  1  0
 68 67  1  0
 68 71  1  0
 69 66  1  0
 69 70  1  0
 70 68  2  0
 71 72  1  0
 72 73  2  0
 74 77  1  0
 74 73  1  0
 75 74  2  0
 76 75  1  0
 76 71  2  0
 77 78  1  0
 78 79  1  0
 79 80  2  0
 81 80  1  0
 81 85  1  0
 82 81  2  0
 83 78  2  0
 83 82  1  0
 84 83  1  0
 86 87  1  0
 87 90  1  0
 87 89  1  0
 88 86  2  0
 91 92  1  0
 91 66  1  0
 93 91  1  0
M  ISO  4   6 101   7 101  56 100  64 100
M  END
>  <TORSDO>  (62) 
F 21

>  <SCORE>  (62) 
-13.405

>  <name>  (62) 
62

>  <ligand_id>  (62) 
62

>  <original_smiles>  (62) 
[H]c1nc(C([H])([H])[H])c(C([H])([H])C([H])([H])[N+]([H])([H])C([H])([H])C([H])([H])Oc2c([H])c([H])c3c(c2[H])C([H])([H])N(C(=O)C([H])(N([H])C(=O)C([H])(N([H])C([H])([H])[H])C([H])([H])[H])C(C([H])([H])[H])(C([H])([H])[H])C([H])([H])[H])C([H])(C(=O)N([H])C2([H])c4c([H])c([H])c([H])c([H])c4C([H])([H])C([H])([H])C2([H])[H])C3([H])[H])nc1N([H])C(=O)N1C([H])([H])C([H])([H])C([H])([H])C([H])(n2nc(-c3c([H])c([H])c(Oc4c([H])c([H])c(F)c([H])c4F)c([H])c3[H])c(C(=O)N([H])[H])c2N([H])[H])C1([H])[H]

>  <smiles>  (62) 
[H]c1nc(C([H])([H])[H])c(C([H])([H])C([H])([H])[N+]([H])([H])C([H])([H])C([H])([H])Oc2c([H])c([H])c3c(c2[H])C([H])([H])N(C(=O)C([H])(N([H])C(=O)C([H])(N([H])C([H])([H])[H])C([H])([H])[H])C(C([H])([H])[H])(C([H])([H])[H])C([H])([H])[H])C([H])(C(=O)N([H])C2([H])c4c([H])c([H])c([H])c([H])c4C([H])([H])C([H])([H])C2([H])[H])C3([H])[H])nc1N([H])C(=O)N1C([H])([H])C([H])([H])C([H])([H])C([H])(n2nc(-c3c([H])c([H])c(Oc4c([H])c([H])c(F)c([H])c4F)c([H])c3[H])c(C(=O)N([H])[H])c2N([H])[H])C1([H])[H]

$$$$
63:0:0
     RDKit          3D

 88 96  0  0  1  0  0  0  0  0999 V2000
  -28.7970  -22.7650   19.8970 C   0  0  0  0  0  2  0  0  0  0  0  0
  -28.9060  -21.2320   20.5570 N   0  0  0  0  0  4  0  0  0  0  0  0
  -29.6260  -21.2800   21.2600 H   0  0  0  0  0  0  0  0  0  0  0  0
  -28.0460  -21.1610   21.0780 H   0  0  0  0  0  0  0  0  0  0  0  0
  -28.4500  -18.7120   20.8590 C   0  0  0  0  0  2  0  0  0  0  0  0
  -29.7550  -18.1320   20.3700 C   0  0  0  0  0  3  0  0  0  0  0  0
  -29.0130  -19.7030   19.8760 C   0  0  0  0  0  3  0  0  0  0  0  0
  -30.4040  -15.2890   19.9270 C   0  0  0  0  0  0  0  0  0  0  0  0
  -30.3500  -12.8800   18.9580 C   0  0  0  0  0  2  0  0  0  0  0  0
  -29.3500  -12.7080   17.7860 C   0  0  0  0  0  2  0  0  0  0  0  0
  -27.9250  -12.4350   18.3020 C   0  0  0  0  0  2  0  0  0  0  0  0
  -27.5470  -13.3570   19.4900 C   0  0  0  0  0  3  0  0  0  0  0  0
  -28.6670  -13.4480   20.5460 C   0  0  0  0  0  2  0  0  0  0  0  0
  -29.8510  -13.9830   19.8540 N   0  0  0  0  0  0  0  0  0  0  0  0
  -31.6190  -15.3240   19.6880 O   0  0  0  0  0  0  0  0  0  0  0  0
  -29.5910  -16.5180   20.0750 N   0  0  0  0  0  0  0  0  0  0  0  0
  -28.6240  -16.2430   20.1450 H   0  0  0  0  0  0  0  0  0  0  0  0
  -25.2220  -13.8890   20.3990 C   0  0  0  0  0  0  0  0  0  0  0  0
  -24.1900  -13.0960   20.8220 C   0  0  0  0  0  0  0  0  0  0  0  0
  -24.6630  -11.7510   20.7350 C   0  0  0  0  0  0  0  0  0  0  0  0
  -26.2530  -13.0240   20.0730 N   0  0  0  0  0  0  0  0  0  0  0  0
  -25.9340  -11.7320   20.3460 N   0  0  0  0  0  0  0  0  0  0  0  0
  -23.9570  -10.4790   20.9410 C   0  0  0  0  0  0  0  0  0  0  0  0
  -24.4250   -9.5160   21.8610 C   0  0  0  0  0  3  0  0  0  0  0  0
  -23.7190   -8.3100   22.0600 C   0  0  0  0  0  3  0  0  0  0  0  0
  -22.5290   -8.0560   21.3350 C   0  0  0  0  0  0  0  0  0  0  0  0
  -22.0800   -9.0070   20.4020 C   0  0  0  0  0  3  0  0  0  0  0  0
  -22.7870  -10.2060   20.2030 C   0  0  0  0  0  3  0  0  0  0  0  0
  -21.7900   -6.9030   21.4430 O   0  0  0  0  0  0  0  0  0  0  0  0
  -21.7520   -6.1770   22.6060 C   0  0  0  0  0  0  0  0  0  0  0  0
  -21.2970   -6.7370   23.8210 C   0  0  0  0  0  3  0  0  0  0  0  0
  -21.2120   -5.9350   24.9760 C   0  0  0  0  0  3  0  0  0  0  0  0
  -21.5690   -4.5740   24.9200 C   0  0  0  0  0  0  0  0  0  0  0  0
  -22.0140   -4.0130   23.7110 C   0  0  0  0  0  3  0  0  0  0  0  0
  -22.1050   -4.8120   22.5560 C   0  0  0  0  0  0  0  0  0  0  0  0
  -22.5150   -4.2610   21.3900 F   0  0  0  0  0  0  0  0  0  0  0  0
  -21.4770   -3.8020   26.0280 F   0  0  0  0  0  0  0  0  0  0  0  0
  -22.8060  -13.5550   21.1770 C   0  0  0  0  0  0  0  0  0  0  0  0
  -22.1250  -12.8350   22.0640 N   0  0  0  0  0  0  0  0  0  0  0  0
  -22.3340  -14.5870   20.7020 O   0  0  0  0  0  0  0  0  0  0  0  0
  -22.5170  -12.0040   22.4800 H   0  0  0  0  0  0  0  0  0  0  0  0
  -21.1940  -13.1200   22.3340 H   0  0  0  0  0  0  0  0  0  0  0  0
  -25.3650  -15.2640   20.2330 N   0  0  0  0  0  0  0  0  0  0  0  0
  -24.6040  -15.9130   20.3980 H   0  0  0  0  0  0  0  0  0  0  0  0
  -26.1620  -15.6970   19.7850 H   0  0  0  0  0  0  0  0  0  0  0  0
  -28.6090  -24.3570   22.0470 C   0  0  0  0  0  1  0  0  0  0  0  0
  -28.1490  -24.3070   20.5830 C   0  0  0  0  0  3  0  0  0  0  0  0
  -28.2950  -25.9140   20.2150 O   0  0  0  0  0  0  0  0  0  0  0  0
  -24.6590  -31.8580   23.1810 C   0  0  0  0  0  0  0  0  0  0  0  0
  -27.2600  -26.9860   20.2200 C   0  0  0  0  0  0  0  0  0  0  0  0
  -23.4870  -30.4590   21.5290 C   0  0  0  0  0  3  0  0  0  0  0  0
  -24.9560  -28.8540   20.1340 C   0  0  0  0  0  0  0  0  0  0  0  0
  -26.0520  -30.6800   21.4130 C   0  0  0  0  0  2  0  0  0  0  0  0
  -26.1360  -29.2680   20.7650 C   0  0  0  0  0  0  0  0  0  0  0  0
  -27.2850  -28.3570   20.7800 C   0  0  0  0  0  3  0  0  0  0  0  0
  -26.0500  -26.7200   19.5440 C   0  0  0  0  0  3  0  0  0  0  0  0
  -24.9360  -27.5970   19.5060 C   0  0  0  0  0  3  0  0  0  0  0  0
  -23.7350  -29.7700   20.1590 C   0  0  0  0  0  2  0  0  0  0  0  0
  -24.7540  -31.0270   22.0940 N   0  0  0  0  0  0  0  0  0  0  0  0
  -23.5630  -32.1440   23.6910 O   0  0  0  0  0  0  0  0  0  0  0  0
  -22.7860  -29.4630   22.4880 C   0  0  0  0  0  0  0  0  0  0  0  0
  -21.4560  -29.2990   22.3550 N   0  0  0  0  0  0  0  0  0  0  0  0
  -23.4460  -28.8340   23.3190 O   0  0  0  0  0  0  0  0  0  0  0  0
  -20.9760  -29.8520   21.6590 H   0  0  0  0  0  0  0  0  0  0  0  0
  -18.0730  -28.0970   22.8550 C   0  0  0  0  0  0  0  0  0  0  0  0
  -20.6320  -28.3610   23.1230 C   0  0  0  0  0  3  0  0  0  0  0  0
  -20.7340  -26.9320   22.5440 C   0  0  0  0  0  2  0  0  0  0  0  0
  -19.6350  -26.6110   21.5270 C   0  0  0  0  0  2  0  0  0  0  0  0
  -18.2520  -26.7530   22.1690 C   0  0  0  0  0  2  0  0  0  0  0  0
  -19.1910  -28.8590   23.2890 C   0  0  0  0  0  0  0  0  0  0  0  0
  -18.9680  -30.1150   23.8950 C   0  0  0  0  0  3  0  0  0  0  0  0
  -17.6620  -30.6110   24.0670 C   0  0  0  0  0  3  0  0  0  0  0  0
  -16.5590  -29.8470   23.6460 C   0  0  0  0  0  3  0  0  0  0  0  0
  -16.7650  -28.5930   23.0460 C   0  0  0  0  0  3  0  0  0  0  0  0
  -25.9210  -32.5050   23.8270 C   0  0  0  0  0  3  0  0  0  0  0  0
  -26.4110  -31.7480   25.1230 C   0  0  1  0  0  0  0  0  0  0  0  0
  -25.2970  -31.5220   26.1720 C   0  0  0  0  0  1  0  0  0  0  0  0
  -27.0050  -30.3650   24.7680 C   0  0  0  0  0  1  0  0  0  0  0  0
  -27.5460  -32.5510   25.8030 C   0  0  0  0  0  1  0  0  0  0  0  0
  -25.5940  -33.9040   24.1530 N   0  0  0  0  0  0  0  0  0  0  0  0
  -25.9330  -34.9660   23.4100 C   0  0  0  0  0  0  0  0  0  0  0  0
  -26.6180  -34.8720   22.3880 O   0  0  0  0  0  0  0  0  0  0  0  0
  -24.9830  -34.0500   24.9440 H   0  0  0  0  0  0  0  0  0  0  0  0
  -24.2100  -36.7680   23.0500 C   0  0  0  0  0  1  0  0  0  0  0  0
  -25.4400  -36.3530   23.8730 C   0  0  0  0  0  3  0  0  0  0  0  0
  -27.5580  -37.2410   24.7450 C   0  0  0  0  0  1  0  0  0  0  0  0
  -26.4720  -37.4080   23.7820 N   0  0  0  0  0  0  0  0  0  0  0  0
  -26.0620  -38.3270   23.9210 H   0  0  0  0  0  0  0  0  0  0  0  0
  1  2  1  0
  1 47  1  0
  2  4  1  0
  2  3  1  0
  6 16  1  0
  6  5  1  0
  7  6  1  0
  7  2  1  0
  7  5  1  0
  8 16  1  0
  9 14  1  0
 10 11  1  0
 10  9  1  0
 12 11  1  0
 12 21  1  0
 12 13  1  0
 14  8  1  0
 14 13  1  0
 15  8  2  0
 16 17  1  0
 18 19  2  0
 19 38  1  0
 20 19  1  0
 20 23  1  0
 21 22  1  0
 21 18  1  0
 22 20  2  0
 23 24  1  0
 24 25  2  0
 26 29  1  0
 26 25  1  0
 27 26  2  0
 28 27  1  0
 28 23  2  0
 29 30  1  0
 30 31  1  0
 31 32  2  0
 33 32  1  0
 33 37  1  0
 34 33  2  0
 35 30  2  0
 35 34  1  0
 36 35  1  0
 38 39  1  0
 39 42  1  0
 39 41  1  0
 40 38  2  0
 43 44  1  0
 43 18  1  0
 45 43  1  0
 47 46  1  0
 48 50  1  0
 48 47  1  0
 49 60  2  0
 50 55  1  0
 51 59  1  0
 51 61  1  0
 52 58  1  0
 52 54  1  0
 53 59  1  0
 54 55  2  0
 54 53  1  0
 56 50  2  0
 57 56  1  0
 57 52  2  0
 58 51  1  0
 59 49  1  0
 61 63  2  0
 62 61  1  0
 64 62  1  0
 65 74  2  0
 65 70  1  0
 66 62  1  0
 66 70  1  0
 67 66  1  0
 68 69  1  0
 68 67  1  0
 69 65  1  0
 70 71  2  0
 71 72  1  0
 73 72  2  0
 74 73  1  0
 75 49  1  0
 75 80  1  0
 75 76  1  0
 76 79  1  1
 76 77  1  0
 78 76  1  0
 80 83  1  0
 81 85  1  0
 81 80  1  0
 82 81  2  0
 85 84  1  0
 87 85  1  0
 87 88  1  0
 87 86  1  0
M  ISO  4   8 100  16 100  47 101  48 101
M  END
>  <TORSDO>  (63) 
F 19

>  <SCORE>  (63) 
-15.630

>  <name>  (63) 
63

>  <ligand_id>  (63) 
63

>  <original_smiles>  (63) 
[H]c1c([H])c([H])c2c(c1[H])C([H])([H])C([H])([H])C([H])([H])C2([H])N([H])C(=O)C1([H])N(C(=O)C([H])(N([H])C(=O)C([H])(N([H])C([H])([H])[H])C([H])([H])[H])C(C([H])([H])[H])(C([H])([H])[H])C([H])([H])[H])C([H])([H])c2c([H])c(OC([H])(C([H])([H])[H])C([H])([H])[N+]([H])([H])C3([H])C([H])([H])C3([H])N([H])C(=O)N3C([H])([H])C([H])([H])C([H])([H])C([H])(n4nc(-c5c([H])c([H])c(Oc6c([H])c([H])c(F)c([H])c6F)c([H])c5[H])c(C(=O)N([H])[H])c4N([H])[H])C3([H])[H])c([H])c([H])c2C1([H])[H]

>  <smiles>  (63) 
[H]c1c([H])c([H])c2c(c1[H])C([H])([H])C([H])([H])C([H])([H])C2([H])N([H])C(=O)C1([H])N(C(=O)C([H])(N([H])C(=O)C([H])(N([H])C([H])([H])[H])C([H])([H])[H])C(C([H])([H])[H])(C([H])([H])[H])C([H])([H])[H])C([H])([H])c2c([H])c(OC([H])(C([H])([H])[H])C([H])([H])[N+]([H])([H])C3([H])C([H])([H])C3([H])N([H])C(=O)N3C([H])([H])C([H])([H])C([H])([H])C([H])(n4nc(-c5c([H])c([H])c(Oc6c([H])c([H])c(F)c([H])c6F)c([H])c5[H])c(C(=O)N([H])[H])c4N([H])[H])C3([H])[H])c([H])c([H])c2C1([H])[H]

$$$$
64:0:0
     RDKit          3D

 91100  0  0  1  0  0  0  0  0999 V2000
  -28.1200  -23.9250   19.2910 C   0  0  0  0  0  2  0  0  0  0  0  0
  -29.1960  -24.0910   21.0690 C   0  0  0  0  0  2  0  0  0  0  0  0
  -28.0760  -24.9700   20.4420 C   0  0  0  0  0  3  0  0  0  0  0  0
  -29.0770  -23.0420   20.0190 N   0  0  1  0  0  4  0  0  0  0  0  0
  -29.9410  -22.9830   19.4940 H   0  0  0  0  0  0  0  0  0  0  0  0
  -28.3360  -26.4280   20.1890 O   0  0  0  0  0  0  0  0  0  0  0  0
  -24.6520  -31.8740   23.2170 C   0  0  0  0  0  0  0  0  0  0  0  0
  -27.2330  -27.3020   20.1420 C   0  0  0  0  0  0  0  0  0  0  0  0
  -23.4350  -30.4730   21.5890 C   0  0  0  0  0  3  0  0  0  0  0  0
  -24.8750  -28.9270   20.1400 C   0  0  0  0  0  0  0  0  0  0  0  0
  -25.9720  -30.7950   21.3760 C   0  0  0  0  0  2  0  0  0  0  0  0
  -26.0490  -29.4150   20.7280 C   0  0  0  0  0  0  0  0  0  0  0  0
  -27.2340  -28.6150   20.7150 C   0  0  0  0  0  3  0  0  0  0  0  0
  -26.0410  -26.8730   19.5240 C   0  0  0  0  0  3  0  0  0  0  0  0
  -24.8760  -27.6660   19.5240 C   0  0  0  0  0  3  0  0  0  0  0  0
  -23.6340  -29.7960   20.2050 C   0  0  0  0  0  2  0  0  0  0  0  0
  -24.7060  -31.0660   22.1180 N   0  0  0  0  0  0  0  0  0  0  0  0
  -23.5730  -32.1500   23.7620 O   0  0  0  0  0  0  0  0  0  0  0  0
  -22.7840  -29.4560   22.5560 C   0  0  0  0  0  0  0  0  0  0  0  0
  -21.4580  -29.2770   22.4410 N   0  0  0  0  0  0  0  0  0  0  0  0
  -23.4720  -28.8330   23.3670 O   0  0  0  0  0  0  0  0  0  0  0  0
  -20.9630  -29.8290   21.7560 H   0  0  0  0  0  0  0  0  0  0  0  0
  -18.0890  -28.0590   22.9670 C   0  0  0  0  0  0  0  0  0  0  0  0
  -20.6490  -28.3350   23.2160 C   0  0  0  0  0  3  0  0  0  0  0  0
  -20.7550  -26.9020   22.6400 C   0  0  0  0  0  2  0  0  0  0  0  0
  -19.6470  -26.5690   21.6380 C   0  0  0  0  0  2  0  0  0  0  0  0
  -18.2700  -26.7070   22.2950 C   0  0  0  0  0  2  0  0  0  0  0  0
  -19.2070  -28.8290   23.3860 C   0  0  0  0  0  0  0  0  0  0  0  0
  -18.9840  -30.0930   23.9740 C   0  0  0  0  0  3  0  0  0  0  0  0
  -17.6780  -30.5880   24.1480 C   0  0  0  0  0  3  0  0  0  0  0  0
  -16.5760  -29.8160   23.7460 C   0  0  0  0  0  3  0  0  0  0  0  0
  -16.7810  -28.5520   23.1640 C   0  0  0  0  0  3  0  0  0  0  0  0
  -25.9380  -32.5080   23.8290 C   0  0  0  0  0  3  0  0  0  0  0  0
  -25.6250  -33.9010   24.1790 N   0  0  0  0  0  0  0  0  0  0  0  0
  -25.9370  -34.9650   23.4260 C   0  0  0  0  0  0  0  0  0  0  0  0
  -26.5880  -34.8770   22.3810 O   0  0  0  0  0  0  0  0  0  0  0  0
  -25.0390  -34.0440   24.9880 H   0  0  0  0  0  0  0  0  0  0  0  0
  -24.1870  -36.7480   23.1310 C   0  0  0  0  0  1  0  0  0  0  0  0
  -25.4510  -36.3450   23.9070 C   0  0  0  0  0  3  0  0  0  0  0  0
  -27.5970  -37.2390   24.6970 C   0  0  0  0  0  1  0  0  0  0  0  0
  -26.4720  -37.4060   23.7800 N   0  0  0  0  0  0  0  0  0  0  0  0
  -26.0630  -38.3230   23.9440 H   0  0  0  0  0  0  0  0  0  0  0  0
  -26.4780  -31.7260   25.0900 C   0  0  1  0  0  0  0  0  0  0  0  0
  -25.4010  -31.4740   26.1720 C   0  0  0  0  0  1  0  0  0  0  0  0
  -27.0600  -30.3550   24.6740 C   0  0  0  0  0  1  0  0  0  0  0  0
  -27.6350  -32.5200   25.7400 C   0  0  0  0  0  1  0  0  0  0  0  0
  -28.7240  -21.5870   20.3820 C   0  0  0  0  0  2  0  0  0  0  0  0
  -30.6460  -14.7510   20.1140 C   0  0  0  0  0  0  0  0  0  0  0  0
  -30.3650  -12.5020   19.0710 C   0  0  0  0  0  2  0  0  0  0  0  0
  -29.3890  -12.5920   17.8810 C   0  0  0  0  0  2  0  0  0  0  0  0
  -27.9360  -12.4220   18.3650 C   0  0  0  0  0  2  0  0  0  0  0  0
  -27.6080  -13.2950   19.6070 C   0  0  0  0  0  3  0  0  0  0  0  0
  -28.7070  -13.1980   20.6850 C   0  0  0  0  0  2  0  0  0  0  0  0
  -29.9710  -13.5540   20.0350 N   0  0  0  0  0  0  0  0  0  0  0  0
  -31.8430  -14.7710   19.8050 O   0  0  0  0  0  0  0  0  0  0  0  0
  -29.7700  -20.5230   19.8480 C   0  0  0  0  0  0  0  0  0  0  0  0
  -28.8270  -18.2640   20.8270 C   0  0  0  0  0  2  0  0  0  0  0  0
  -30.7850  -18.2690   19.4090 C   0  0  0  0  0  2  0  0  0  0  0  0
  -29.2770  -16.7320   21.1100 C   0  0  0  0  0  2  0  0  0  0  0  0
  -30.2330  -16.8950   18.9100 C   0  0  0  0  0  2  0  0  0  0  0  0
  -29.7460  -19.1300   20.0270 N   0  0  0  0  0  0  0  0  0  0  0  0
  -29.9230  -15.9450   20.0030 N   0  0  0  0  0  0  0  0  0  0  0  0
  -30.6900  -21.0290   19.1950 O   0  0  0  0  0  0  0  0  0  0  0  0
  -25.2510  -13.8720   20.4260 C   0  0  0  0  0  0  0  0  0  0  0  0
  -24.1980  -13.0910   20.8210 C   0  0  0  0  0  0  0  0  0  0  0  0
  -24.6620  -11.7410   20.7580 C   0  0  0  0  0  0  0  0  0  0  0  0
  -26.2850  -12.9960   20.1420 N   0  0  0  0  0  0  0  0  0  0  0  0
  -25.9430  -11.7090   20.4050 N   0  0  0  0  0  0  0  0  0  0  0  0
  -23.9440  -10.4750   20.9580 C   0  0  0  0  0  0  0  0  0  0  0  0
  -24.3870   -9.5130   21.8920 C   0  0  0  0  0  3  0  0  0  0  0  0
  -23.6680   -8.3130   22.0800 C   0  0  0  0  0  3  0  0  0  0  0  0
  -22.4920   -8.0660   21.3320 C   0  0  0  0  0  0  0  0  0  0  0  0
  -22.0680   -9.0170   20.3850 C   0  0  0  0  0  3  0  0  0  0  0  0
  -22.7880  -10.2080   20.1970 C   0  0  0  0  0  3  0  0  0  0  0  0
  -21.7430   -6.9180   21.4290 O   0  0  0  0  0  0  0  0  0  0  0  0
  -21.6730   -6.2010   22.5960 C   0  0  0  0  0  0  0  0  0  0  0  0
  -21.2230   -6.7810   23.8020 C   0  0  0  0  0  3  0  0  0  0  0  0
  -21.1010   -5.9910   24.9620 C   0  0  0  0  0  3  0  0  0  0  0  0
  -21.4190   -4.6200   24.9170 C   0  0  0  0  0  0  0  0  0  0  0  0
  -21.8620   -4.0400   23.7150 C   0  0  0  0  0  3  0  0  0  0  0  0
  -21.9860   -4.8280   22.5590 C   0  0  0  0  0  0  0  0  0  0  0  0
  -22.3940   -4.2580   21.3980 F   0  0  0  0  0  0  0  0  0  0  0  0
  -21.2960   -3.8570   26.0280 F   0  0  0  0  0  0  0  0  0  0  0  0
  -22.8090  -13.5630   21.1470 C   0  0  0  0  0  0  0  0  0  0  0  0
  -22.1150  -12.8550   22.0290 N   0  0  0  0  0  0  0  0  0  0  0  0
  -22.3530  -14.5950   20.6560 O   0  0  0  0  0  0  0  0  0  0  0  0
  -22.5000  -12.0200   22.4440 H   0  0  0  0  0  0  0  0  0  0  0  0
  -21.1880  -13.1520   22.2970 H   0  0  0  0  0  0  0  0  0  0  0  0
  -25.4110  -15.2440   20.2630 N   0  0  0  0  0  0  0  0  0  0  0  0
  -24.6530  -15.9040   20.4050 H   0  0  0  0  0  0  0  0  0  0  0  0
  -26.2580  -15.6770   19.9160 H   0  0  0  0  0  0  0  0  0  0  0  0
  1  4  1  0
  1  3  1  0
  3  6  1  0
  3  2  1  0
  4 47  1  0
  4  2  1  0
  4  5  1  6
  7 18  2  0
  8  6  1  0
  8 13  1  0
  9 17  1  0
  9 19  1  0
 10 16  1  0
 10 12  1  0
 11 17  1  0
 12 11  1  0
 13 12  2  0
 14 15  1  0
 14  8  2  0
 15 10  2  0
 16  9  1  0
 17  7  1  0
 19 21  2  0
 20 19  1  0
 22 20  1  0
 23 32  2  0
 23 28  1  0
 24 20  1  0
 24 28  1  0
 25 24  1  0
 26 27  1  0
 26 25  1  0
 27 23  1  0
 28 29  2  0
 29 30  1  0
 31 30  2  0
 32 31  1  0
 33  7  1  0
 33 34  1  0
 33 43  1  0
 34 37  1  0
 35 39  1  0
 35 34  1  0
 36 35  2  0
 39 38  1  0
 41 39  1  0
 41 42  1  0
 41 40  1  0
 43 46  1  1
 43 44  1  0
 45 43  1  0
 49 54  1  0
 50 51  1  0
 50 49  1  0
 52 51  1  0
 52 67  1  0
 52 53  1  0
 54 48  1  0
 54 53  1  0
 55 48  2  0
 56 61  1  0
 56 47  1  0
 57 59  1  0
 58 61  1  0
 60 58  1  0
 60 62  1  0
 61 57  1  0
 62 48  1  0
 62 59  1  0
 63 56  2  0
 64 65  2  0
 65 84  1  0
 66 65  1  0
 66 69  1  0
 67 68  1  0
 67 64  1  0
 68 66  2  0
 69 70  1  0
 70 71  2  0
 72 75  1  0
 72 71  1  0
 73 72  2  0
 74 73  1  0
 74 69  2  0
 75 76  1  0
 76 77  1  0
 77 78  2  0
 79 78  1  0
 79 83  1  0
 80 79  2  0
 81 76  2  0
 81 80  1  0
 82 81  1  0
 84 85  1  0
 85 88  1  0
 85 87  1  0
 86 84  2  0
 89 90  1  0
 89 64  1  0
 91 89  1  0
M  ISO  4   3 101   6 101  48 100  62 100
M  END
>  <TORSDO>  (64) 
F 17

>  <SCORE>  (64) 
-14.940

>  <name>  (64) 
64

>  <ligand_id>  (64) 
64

>  <original_smiles>  (64) 
[H]c1c([H])c([H])c2c(c1[H])C([H])([H])C([H])([H])C([H])([H])C2([H])N([H])C(=O)C1([H])N(C(=O)C([H])(N([H])C(=O)C([H])(N([H])C([H])([H])[H])C([H])([H])[H])C(C([H])([H])[H])(C([H])([H])[H])C([H])([H])[H])C([H])([H])c2c([H])c(OC3([H])C([H])([H])[N+]([H])(C([H])([H])C(=O)N4C([H])([H])C([H])([H])N(C(=O)N5C([H])([H])C([H])([H])C([H])([H])C([H])(n6nc(-c7c([H])c([H])c(Oc8c([H])c([H])c(F)c([H])c8F)c([H])c7[H])c(C(=O)N([H])[H])c6N([H])[H])C5([H])[H])C([H])([H])C4([H])[H])C3([H])[H])c([H])c([H])c2C1([H])[H]

>  <smiles>  (64) 
[H]c1c([H])c([H])c2c(c1[H])C([H])([H])C([H])([H])C([H])([H])C2([H])N([H])C(=O)C1([H])N(C(=O)C([H])(N([H])C(=O)C([H])(N([H])C([H])([H])[H])C([H])([H])[H])C(C([H])([H])[H])(C([H])([H])[H])C([H])([H])[H])C([H])([H])c2c([H])c(OC3([H])C([H])([H])[N+]([H])(C([H])([H])C(=O)N4C([H])([H])C([H])([H])N(C(=O)N5C([H])([H])C([H])([H])C([H])([H])C([H])(n6nc(-c7c([H])c([H])c(Oc8c([H])c([H])c(F)c([H])c8F)c([H])c7[H])c(C(=O)N([H])[H])c6N([H])[H])C5([H])[H])C([H])([H])C4([H])[H])C3([H])[H])c([H])c([H])c2C1([H])[H]

$$$$
65:0:0
     RDKit          3D

 90 99  0  0  1  0  0  0  0  0999 V2000
  -26.2210  -22.6950   19.4700 C   0  0  0  0  0  3  0  0  0  0  0  0
  -26.3490  -21.7300   20.4880 C   0  0  0  0  0  3  0  0  0  0  0  0
  -28.4850  -23.1780   19.6100 C   0  0  0  0  0  3  0  0  0  0  0  0
  -28.6440  -21.7330   20.2000 C   0  0  0  0  0  3  0  0  0  0  0  0
  -27.3000  -23.3480   18.9630 N   0  0  0  0  0  0  0  0  0  0  0  0
  -27.5580  -21.2300   20.8360 N   0  0  0  0  0  0  0  0  0  0  0  0
  -29.5150  -20.5220   19.8580 N   0  0  0  0  0  0  0  0  0  0  0  0
  -30.2940  -20.7580   19.2470 H   0  0  0  0  0  0  0  0  0  0  0  0
  -30.7610  -15.4280   19.8630 C   0  0  0  0  0  0  0  0  0  0  0  0
  -30.6970  -12.9980   18.9970 C   0  0  0  0  0  2  0  0  0  0  0  0
  -29.7230  -12.8190   17.8070 C   0  0  0  0  0  2  0  0  0  0  0  0
  -28.2890  -12.5740   18.3070 C   0  0  0  0  0  2  0  0  0  0  0  0
  -27.9020  -13.5340   19.4640 C   0  0  0  0  0  3  0  0  0  0  0  0
  -28.9970  -13.6510   20.5420 C   0  0  0  0  0  2  0  0  0  0  0  0
  -30.2000  -14.1310   19.8530 N   0  0  0  0  0  0  0  0  0  0  0  0
  -31.9540  -15.4630   19.5330 O   0  0  0  0  0  0  0  0  0  0  0  0
  -29.8730  -17.8200   18.9650 C   0  0  0  0  0  2  0  0  0  0  0  0
  -30.1620  -17.8930   20.9250 C   0  0  0  0  0  2  0  0  0  0  0  0
  -29.2970  -18.9120   20.0100 C   0  0  0  0  0  3  0  0  0  0  0  0
  -29.9780  -16.6720   19.9880 N   0  0  0  0  0  0  0  0  0  0  0  0
  -25.5880  -14.1170   20.3650 C   0  0  0  0  0  0  0  0  0  0  0  0
  -24.5360  -13.3490   20.7810 C   0  0  0  0  0  0  0  0  0  0  0  0
  -24.9730  -11.9920   20.6780 C   0  0  0  0  0  0  0  0  0  0  0  0
  -26.5970  -13.2300   20.0340 N   0  0  0  0  0  0  0  0  0  0  0  0
  -26.2410  -11.9450   20.2880 N   0  0  0  0  0  0  0  0  0  0  0  0
  -24.2370  -10.7340   20.8730 C   0  0  0  0  0  0  0  0  0  0  0  0
  -24.6490   -9.7790   21.8290 C   0  0  0  0  0  3  0  0  0  0  0  0
  -23.9090   -8.5910   22.0130 C   0  0  0  0  0  3  0  0  0  0  0  0
  -22.7480   -8.3460   21.2410 C   0  0  0  0  0  0  0  0  0  0  0  0
  -22.3560   -9.2940   20.2790 C   0  0  0  0  0  3  0  0  0  0  0  0
  -23.0940  -10.4740   20.0910 C   0  0  0  0  0  3  0  0  0  0  0  0
  -21.9820   -7.2090   21.3350 O   0  0  0  0  0  0  0  0  0  0  0  0
  -21.8210   -6.5450   22.5260 C   0  0  0  0  0  0  0  0  0  0  0  0
  -21.2620   -7.1730   23.6620 C   0  0  0  0  0  3  0  0  0  0  0  0
  -21.0500   -6.4330   24.8420 C   0  0  0  0  0  3  0  0  0  0  0  0
  -21.3860   -5.0670   24.8880 C   0  0  0  0  0  0  0  0  0  0  0  0
  -21.9430   -4.4400   23.7590 C   0  0  0  0  0  3  0  0  0  0  0  0
  -22.1570   -5.1770   22.5800 C   0  0  0  0  0  0  0  0  0  0  0  0
  -22.6690   -4.5620   21.4870 F   0  0  0  0  0  0  0  0  0  0  0  0
  -21.1790   -4.3540   26.0210 F   0  0  0  0  0  0  0  0  0  0  0  0
  -23.1680  -13.8390   21.1490 C   0  0  0  0  0  0  0  0  0  0  0  0
  -22.4820  -13.1380   22.0440 N   0  0  0  0  0  0  0  0  0  0  0  0
  -22.7180  -14.8830   20.6790 O   0  0  0  0  0  0  0  0  0  0  0  0
  -22.8660  -12.2980   22.4500 H   0  0  0  0  0  0  0  0  0  0  0  0
  -21.5610  -13.4470   22.3230 H   0  0  0  0  0  0  0  0  0  0  0  0
  -25.7670  -15.4870   20.2080 N   0  0  0  0  0  0  0  0  0  0  0  0
  -25.0280  -16.1630   20.3610 H   0  0  0  0  0  0  0  0  0  0  0  0
  -26.6080  -15.9000   19.8230 H   0  0  0  0  0  0  0  0  0  0  0  0
  -28.5710  -24.7420   20.3130 C   0  0  0  0  0  2  0  0  0  0  0  0
  -28.4670  -26.2310   19.6610 O   0  0  0  0  0  0  0  0  0  0  0  0
  -24.6590  -31.7690   22.9730 C   0  0  0  0  0  0  0  0  0  0  0  0
  -27.3750  -27.2150   19.7410 C   0  0  0  0  0  0  0  0  0  0  0  0
  -23.5030  -30.4130   21.2740 C   0  0  0  0  0  3  0  0  0  0  0  0
  -25.0030  -28.9550   19.7640 C   0  0  0  0  0  0  0  0  0  0  0  0
  -26.0490  -30.7690   21.1020 C   0  0  0  0  0  2  0  0  0  0  0  0
  -26.1710  -29.3970   20.3940 C   0  0  0  0  0  0  0  0  0  0  0  0
  -27.3590  -28.5560   20.3480 C   0  0  0  0  0  3  0  0  0  0  0  0
  -26.1770  -26.9030   19.0650 C   0  0  0  0  0  3  0  0  0  0  0  0
  -25.0260  -27.7310   19.0740 C   0  0  0  0  0  3  0  0  0  0  0  0
  -23.7440  -29.8160   19.8580 C   0  0  0  0  0  2  0  0  0  0  0  0
  -24.7600  -31.0060   21.8400 N   0  0  0  0  0  0  0  0  0  0  0  0
  -23.5650  -31.9780   23.5240 O   0  0  0  0  0  0  0  0  0  0  0  0
  -22.8780  -29.3320   22.1930 C   0  0  0  0  0  0  0  0  0  0  0  0
  -21.5500  -29.1330   22.1010 N   0  0  0  0  0  0  0  0  0  0  0  0
  -23.5920  -28.6820   22.9600 O   0  0  0  0  0  0  0  0  0  0  0  0
  -21.0310  -29.7130   21.4580 H   0  0  0  0  0  0  0  0  0  0  0  0
  -18.2250  -27.7940   22.6400 C   0  0  0  0  0  0  0  0  0  0  0  0
  -20.7860  -28.1230   22.8360 C   0  0  0  0  0  3  0  0  0  0  0  0
  -20.9110  -26.7320   22.1690 C   0  0  0  0  0  2  0  0  0  0  0  0
  -19.7820  -26.4390   21.1750 C   0  0  0  0  0  2  0  0  0  0  0  0
  -18.4190  -26.4990   21.8690 C   0  0  0  0  0  2  0  0  0  0  0  0
  -19.3350  -28.5610   23.0840 C   0  0  0  0  0  0  0  0  0  0  0  0
  -19.1000  -29.7720   23.7720 C   0  0  0  0  0  3  0  0  0  0  0  0
  -17.7870  -30.2170   24.0170 C   0  0  0  0  0  3  0  0  0  0  0  0
  -16.6940  -29.4470   23.5870 C   0  0  0  0  0  3  0  0  0  0  0  0
  -16.9120  -28.2360   22.9060 C   0  0  0  0  0  3  0  0  0  0  0  0
  -25.9090  -32.4380   23.6220 C   0  0  0  0  0  3  0  0  0  0  0  0
  -25.5390  -33.8090   24.0140 N   0  0  0  0  0  0  0  0  0  0  0  0
  -25.8360  -34.9120   23.3190 C   0  0  0  0  0  0  0  0  0  0  0  0
  -26.5170  -34.8860   22.2920 O   0  0  0  0  0  0  0  0  0  0  0  0
  -24.9290  -33.8990   24.8150 H   0  0  0  0  0  0  0  0  0  0  0  0
  -24.0440  -36.6670   23.0550 C   0  0  0  0  0  1  0  0  0  0  0  0
  -25.2970  -36.2580   23.8470 C   0  0  0  0  0  3  0  0  0  0  0  0
  -27.3920  -37.1820   24.7380 C   0  0  0  0  0  1  0  0  0  0  0  0
  -26.2900  -37.3530   23.7950 N   0  0  0  0  0  0  0  0  0  0  0  0
  -25.8490  -38.2500   23.9810 H   0  0  0  0  0  0  0  0  0  0  0  0
  -26.4530  -31.6420   24.8730 C   0  0  1  0  0  0  0  0  0  0  0  0
  -25.3700  -31.3440   25.9350 C   0  0  0  0  0  1  0  0  0  0  0  0
  -27.0800  -30.2950   24.4450 C   0  0  0  0  0  1  0  0  0  0  0  0
  -27.5810  -32.4490   25.5610 C   0  0  0  0  0  1  0  0  0  0  0  0
  1  2  1  0
  2  6  2  0
  3  4  1  0
  3 49  1  0
  4  7  1  0
  4  6  1  0
  5  1  2  0
  5  3  1  0
  8  7  1  0
  9 20  1  0
 10 15  1  0
 11 12  1  0
 11 10  1  0
 13 12  1  0
 13 24  1  0
 13 14  1  0
 15  9  1  0
 15 14  1  0
 16  9  2  0
 17 20  1  0
 17 19  1  0
 19  7  1  0
 19 18  1  0
 20 18  1  0
 21 22  2  0
 22 41  1  0
 23 22  1  0
 23 26  1  0
 24 25  1  0
 24 21  1  0
 25 23  2  0
 26 27  1  0
 27 28  2  0
 29 32  1  0
 29 28  1  0
 30 29  2  0
 31 30  1  0
 31 26  2  0
 32 33  1  0
 33 38  2  0
 33 34  1  0
 34 35  2  0
 35 36  1  0
 36 40  1  0
 37 36  2  0
 38 37  1  0
 39 38  1  0
 41 42  1  0
 42 45  1  0
 42 44  1  0
 43 41  2  0
 46 47  1  0
 46 21  1  0
 48 46  1  0
 50 52  1  0
 50 49  1  0
 51 62  2  0
 52 57  1  0
 53 61  1  0
 53 63  1  0
 54 60  1  0
 54 56  1  0
 55 61  1  0
 56 55  1  0
 57 56  2  0
 58 59  1  0
 58 52  2  0
 59 54  2  0
 60 53  1  0
 61 51  1  0
 63 65  2  0
 64 63  1  0
 66 64  1  0
 67 76  2  0
 67 72  1  0
 68 64  1  0
 68 72  1  0
 69 68  1  0
 70 71  1  0
 70 69  1  0
 71 67  1  0
 72 73  2  0
 73 74  1  0
 75 74  2  0
 76 75  1  0
 77 51  1  0
 77 78  1  0
 77 87  1  0
 78 81  1  0
 79 83  1  0
 79 78  1  0
 80 79  2  0
 83 82  1  0
 85 83  1  0
 85 86  1  0
 85 84  1  0
 87 90  1  1
 87 88  1  0
 89 87  1  0
M  ISO  4   9 100  20 100  49 101  50 101
M  END
>  <TORSDO>  (65) 
F 17

>  <SCORE>  (65) 
-13.602

>  <name>  (65) 
65

>  <ligand_id>  (65) 
65

>  <original_smiles>  (65) 
[H]c1nc(N([H])C2([H])C([H])([H])N(C(=O)N3C([H])([H])C([H])([H])C([H])([H])C([H])(n4nc(-c5c([H])c([H])c(Oc6c([H])c([H])c(F)c([H])c6F)c([H])c5[H])c(C(=O)N([H])[H])c4N([H])[H])C3([H])[H])C2([H])[H])c(C([H])([H])Oc2c([H])c([H])c3c(c2[H])C([H])([H])N(C(=O)C([H])(N([H])C(=O)C([H])(N([H])C([H])([H])[H])C([H])([H])[H])C(C([H])([H])[H])(C([H])([H])[H])C([H])([H])[H])C([H])(C(=O)N([H])C2([H])c4c([H])c([H])c([H])c([H])c4C([H])([H])C([H])([H])C2([H])[H])C3([H])[H])nc1[H]

>  <smiles>  (65) 
[H]c1nc(N([H])C2([H])C([H])([H])N(C(=O)N3C([H])([H])C([H])([H])C([H])([H])C([H])(n4nc(-c5c([H])c([H])c(Oc6c([H])c([H])c(F)c([H])c6F)c([H])c5[H])c(C(=O)N([H])[H])c4N([H])[H])C3([H])[H])C2([H])[H])c(C([H])([H])Oc2c([H])c([H])c3c(c2[H])C([H])([H])N(C(=O)C([H])(N([H])C(=O)C([H])(N([H])C([H])([H])[H])C([H])([H])[H])C(C([H])([H])[H])(C([H])([H])[H])C([H])([H])[H])C([H])(C(=O)N([H])C2([H])c4c([H])c([H])c([H])c([H])c4C([H])([H])C([H])([H])C2([H])[H])C3([H])[H])nc1[H]

$$$$
66:0:0
     RDKit          3D

 93102  0  0  1  0  0  0  0  0999 V2000
  -27.3290  -22.9330   20.4080 C   0  0  0  0  0  0  0  0  0  0  0  0
  -28.3880  -23.6100   19.8270 C   0  0  0  0  0  0  0  0  0  0  0  0
  -28.7990  -21.3190   20.0230 C   0  0  0  0  0  0  0  0  0  0  0  0
  -25.9930  -23.4890   20.8040 C   0  0  0  0  0  1  0  0  0  0  0  0
  -27.5830  -21.5420   20.5180 N   0  0  0  0  0  0  0  0  0  0  0  0
  -29.3450  -22.5390   19.6430 N   0  0  0  0  0  0  0  0  0  0  0  0
  -29.4320  -20.0050   19.8790 N   0  0  0  0  0  0  0  0  0  0  0  0
  -30.3760  -20.1150   19.5260 H   0  0  0  0  0  0  0  0  0  0  0  0
  -30.6290  -14.8570   19.8020 C   0  0  0  0  0  0  0  0  0  0  0  0
  -30.3880  -12.5690   18.7870 C   0  0  0  0  0  2  0  0  0  0  0  0
  -29.3600  -12.6360   17.6360 C   0  0  0  0  0  2  0  0  0  0  0  0
  -27.9220  -12.4680   18.1710 C   0  0  0  0  0  2  0  0  0  0  0  0
  -27.6480  -13.3200   19.4390 C   0  0  0  0  0  3  0  0  0  0  0  0
  -28.7920  -13.1980   20.4680 C   0  0  0  0  0  2  0  0  0  0  0  0
  -30.0180  -13.6130   19.7800 N   0  0  0  0  0  0  0  0  0  0  0  0
  -31.7620  -14.9490   19.3140 O   0  0  0  0  0  0  0  0  0  0  0  0
  -29.1770  -17.9410   21.4540 C   0  0  0  0  0  2  0  0  0  0  0  0
  -29.2400  -16.3840   21.3170 C   0  0  0  0  0  2  0  0  0  0  0  0
  -29.9900  -17.3670   19.3190 C   0  0  0  0  0  2  0  0  0  0  0  0
  -29.1090  -18.5090   20.0320 C   0  0  0  0  0  3  0  0  0  0  0  0
  -29.8700  -16.0240   20.0320 N   0  0  0  0  0  0  0  0  0  0  0  0
  -25.3360  -13.9020   20.3750 C   0  0  0  0  0  0  0  0  0  0  0  0
  -24.2930  -13.1240   20.7970 C   0  0  0  0  0  0  0  0  0  0  0  0
  -24.7370  -11.7690   20.6810 C   0  0  0  0  0  0  0  0  0  0  0  0
  -26.3460  -13.0220   20.0260 N   0  0  0  0  0  0  0  0  0  0  0  0
  -25.9970  -11.7320   20.2680 N   0  0  0  0  0  0  0  0  0  0  0  0
  -24.0120  -10.5080   20.8860 C   0  0  0  0  0  0  0  0  0  0  0  0
  -24.4500   -9.5450   21.8230 C   0  0  0  0  0  3  0  0  0  0  0  0
  -23.7230   -8.3510   22.0140 C   0  0  0  0  0  3  0  0  0  0  0  0
  -22.5430   -8.1090   21.2700 C   0  0  0  0  0  0  0  0  0  0  0  0
  -22.1260   -9.0590   20.3230 C   0  0  0  0  0  3  0  0  0  0  0  0
  -22.8530  -10.2450   20.1280 C   0  0  0  0  0  3  0  0  0  0  0  0
  -21.7890   -6.9640   21.3730 O   0  0  0  0  0  0  0  0  0  0  0  0
  -21.6760   -6.2820   22.5570 C   0  0  0  0  0  0  0  0  0  0  0  0
  -21.1600   -6.8930   23.7220 C   0  0  0  0  0  3  0  0  0  0  0  0
  -20.9890   -6.1340   24.8980 C   0  0  0  0  0  3  0  0  0  0  0  0
  -21.3260   -4.7680   24.9100 C   0  0  0  0  0  0  0  0  0  0  0  0
  -21.8400   -4.1580   23.7520 C   0  0  0  0  0  3  0  0  0  0  0  0
  -22.0080   -4.9130   22.5770 C   0  0  0  0  0  0  0  0  0  0  0  0
  -22.4800   -4.3150   21.4570 F   0  0  0  0  0  0  0  0  0  0  0  0
  -21.1560   -4.0380   26.0390 F   0  0  0  0  0  0  0  0  0  0  0  0
  -22.9320  -13.6050   21.2040 C   0  0  0  0  0  0  0  0  0  0  0  0
  -22.2830  -12.9020   22.1270 N   0  0  0  0  0  0  0  0  0  0  0  0
  -22.4550  -14.6400   20.7410 O   0  0  0  0  0  0  0  0  0  0  0  0
  -22.6890  -12.0660   22.5220 H   0  0  0  0  0  0  0  0  0  0  0  0
  -21.3750  -13.2080   22.4470 H   0  0  0  0  0  0  0  0  0  0  0  0
  -25.5070  -15.2770   20.2370 N   0  0  0  0  0  0  0  0  0  0  0  0
  -24.7580  -15.9450   20.3820 H   0  0  0  0  0  0  0  0  0  0  0  0
  -26.3670  -15.7110   19.9270 H   0  0  0  0  0  0  0  0  0  0  0  0
  -31.5620  -23.5910   19.9710 C   0  0  0  0  0  1  0  0  0  0  0  0
  -30.6720  -22.7180   19.0710 C   0  0  0  0  0  2  0  0  0  0  0  0
  -28.4680  -25.0990   19.2120 C   0  0  0  0  0  2  0  0  0  0  0  0
  -28.2870  -26.3530   20.0460 O   0  0  0  0  0  0  0  0  0  0  0  0
  -24.6050  -31.8400   23.0900 C   0  0  0  0  0  0  0  0  0  0  0  0
  -27.2020  -27.2680   19.9390 C   0  0  0  0  0  0  0  0  0  0  0  0
  -23.4030  -30.4660   21.4300 C   0  0  0  0  0  3  0  0  0  0  0  0
  -24.8510  -28.9420   19.9570 C   0  0  0  0  0  0  0  0  0  0  0  0
  -25.9450  -30.7710   21.2470 C   0  0  0  0  0  2  0  0  0  0  0  0
  -26.0210  -29.3970   20.5730 C   0  0  0  0  0  0  0  0  0  0  0  0
  -27.1920  -28.5670   20.5650 C   0  0  0  0  0  3  0  0  0  0  0  0
  -26.0110  -26.8960   19.2780 C   0  0  0  0  0  3  0  0  0  0  0  0
  -24.8530  -27.7020   19.2980 C   0  0  0  0  0  3  0  0  0  0  0  0
  -23.6130  -29.8160   20.0350 C   0  0  0  0  0  2  0  0  0  0  0  0
  -24.6720  -31.0460   21.9780 N   0  0  0  0  0  0  0  0  0  0  0  0
  -23.5200  -32.1090   23.6290 O   0  0  0  0  0  0  0  0  0  0  0  0
  -22.7420  -29.4360   22.3750 C   0  0  0  0  0  0  0  0  0  0  0  0
  -21.4130  -29.2630   22.2540 N   0  0  0  0  0  0  0  0  0  0  0  0
  -23.4220  -28.7950   23.1790 O   0  0  0  0  0  0  0  0  0  0  0  0
  -20.9210  -29.8260   21.5770 H   0  0  0  0  0  0  0  0  0  0  0  0
  -18.0390  -28.0520   22.7590 C   0  0  0  0  0  0  0  0  0  0  0  0
  -20.6000  -28.3090   23.0110 C   0  0  0  0  0  3  0  0  0  0  0  0
  -20.7000  -26.8920   22.4020 C   0  0  0  0  0  2  0  0  0  0  0  0
  -19.5880  -26.5910   21.3910 C   0  0  0  0  0  2  0  0  0  0  0  0
  -18.2110  -26.7210   22.0490 C   0  0  0  0  0  2  0  0  0  0  0  0
  -19.1610  -28.8050   23.1960 C   0  0  0  0  0  0  0  0  0  0  0  0
  -18.9440  -30.0520   23.8190 C   0  0  0  0  0  3  0  0  0  0  0  0
  -17.6400  -30.5470   24.0100 C   0  0  0  0  0  3  0  0  0  0  0  0
  -16.5330  -29.7900   23.5890 C   0  0  0  0  0  3  0  0  0  0  0  0
  -16.7340  -28.5440   22.9690 C   0  0  0  0  0  3  0  0  0  0  0  0
  -25.8860  -32.4700   23.7200 C   0  0  0  0  0  3  0  0  0  0  0  0
  -25.5710  -33.8590   24.0830 N   0  0  0  0  0  0  0  0  0  0  0  0
  -25.8930  -34.9310   23.3480 C   0  0  0  0  0  0  0  0  0  0  0  0
  -26.5570  -34.8570   22.3110 O   0  0  0  0  0  0  0  0  0  0  0  0
  -24.9840  -33.9930   24.8950 H   0  0  0  0  0  0  0  0  0  0  0  0
  -24.1540  -36.7250   23.0510 C   0  0  0  0  0  1  0  0  0  0  0  0
  -25.4030  -36.3060   23.8440 C   0  0  0  0  0  3  0  0  0  0  0  0
  -27.5340  -37.1830   24.6910 C   0  0  0  0  0  1  0  0  0  0  0  0
  -26.4300  -37.3670   23.7530 N   0  0  0  0  0  0  0  0  0  0  0  0
  -26.0190  -38.2810   23.9230 H   0  0  0  0  0  0  0  0  0  0  0  0
  -26.4100  -31.6760   24.9790 C   0  0  1  0  0  0  0  0  0  0  0  0
  -25.3200  -31.4090   26.0430 C   0  0  0  0  0  1  0  0  0  0  0  0
  -26.9990  -30.3100   24.5610 C   0  0  0  0  0  1  0  0  0  0  0  0
  -27.5570  -32.4620   25.6530 C   0  0  0  0  0  1  0  0  0  0  0  0
  1  5  1  0
  1  4  1  0
  2  1  2  0
  3  5  2  0
  6  2  1  0
  6  3  1  0
  7  3  1  0
  8  7  1  0
  9 21  1  0
 10 15  1  0
 11 12  1  0
 11 10  1  0
 13 12  1  0
 13 25  1  0
 13 14  1  0
 15  9  1  0
 15 14  1  0
 16  9  2  0
 18 17  1  0
 19 20  1  0
 19 21  1  0
 20  7  1  0
 20 17  1  0
 21 18  1  0
 22 23  2  0
 23 42  1  0
 24 23  1  0
 24 27  1  0
 25 26  1  0
 25 22  1  0
 26 24  2  0
 27 28  1  0
 28 29  2  0
 30 33  1  0
 30 29  1  0
 31 30  2  0
 32 31  1  0
 32 27  2  0
 33 34  1  0
 34 39  2  0
 34 35  1  0
 35 36  2  0
 36 37  1  0
 37 41  1  0
 38 37  2  0
 39 38  1  0
 40 39  1  0
 42 43  1  0
 43 46  1  0
 43 45  1  0
 44 42  2  0
 47 22  1  0
 47 48  1  0
 49 47  1  0
 51  6  1  0
 51 50  1  0
 52  2  1  0
 52 53  1  0
 54 65  2  0
 55 53  1  0
 55 60  1  0
 56 64  1  0
 56 66  1  0
 57 63  1  0
 57 59  1  0
 58 64  1  0
 59 58  1  0
 60 59  2  0
 61 62  1  0
 61 55  2  0
 62 57  2  0
 63 56  1  0
 64 54  1  0
 66 68  2  0
 67 66  1  0
 69 67  1  0
 70 79  2  0
 70 75  1  0
 71 67  1  0
 71 75  1  0
 72 71  1  0
 73 74  1  0
 73 72  1  0
 74 70  1  0
 75 76  2  0
 76 77  1  0
 78 77  2  0
 79 78  1  0
 80 54  1  0
 80 81  1  0
 80 90  1  0
 81 84  1  0
 82 86  1  0
 82 81  1  0
 83 82  2  0
 86 85  1  0
 88 86  1  0
 88 89  1  0
 88 87  1  0
 90 93  1  1
 90 91  1  0
 92 90  1  0
M  ISO  4   9 100  21 100  52 101  53 101
M  END
>  <TORSDO>  (66) 
F 18

>  <SCORE>  (66) 
-13.744

>  <name>  (66) 
66

>  <ligand_id>  (66) 
66

>  <original_smiles>  (66) 
[H]c1c([H])c([H])c2c(c1[H])C([H])([H])C([H])([H])C([H])([H])C2([H])N([H])C(=O)C1([H])N(C(=O)C([H])(N([H])C(=O)C([H])(N([H])C([H])([H])[H])C([H])([H])[H])C(C([H])([H])[H])(C([H])([H])[H])C([H])([H])[H])C([H])([H])c2c([H])c(OC([H])([H])c3c(C([H])([H])[H])nc(N([H])C4([H])C([H])([H])N(C(=O)N5C([H])([H])C([H])([H])C([H])([H])C([H])(n6nc(-c7c([H])c([H])c(Oc8c([H])c([H])c(F)c([H])c8F)c([H])c7[H])c(C(=O)N([H])[H])c6N([H])[H])C5([H])[H])C([H])([H])C4([H])[H])n3C([H])([H])C([H])([H])[H])c([H])c([H])c2C1([H])[H]

>  <smiles>  (66) 
[H]c1c([H])c([H])c2c(c1[H])C([H])([H])C([H])([H])C([H])([H])C2([H])N([H])C(=O)C1([H])N(C(=O)C([H])(N([H])C(=O)C([H])(N([H])C([H])([H])[H])C([H])([H])[H])C(C([H])([H])[H])(C([H])([H])[H])C([H])([H])[H])C([H])([H])c2c([H])c(OC([H])([H])c3c(C([H])([H])[H])nc(N([H])C4([H])C([H])([H])N(C(=O)N5C([H])([H])C([H])([H])C([H])([H])C([H])(n6nc(-c7c([H])c([H])c(Oc8c([H])c([H])c(F)c([H])c8F)c([H])c7[H])c(C(=O)N([H])[H])c6N([H])[H])C5([H])[H])C([H])([H])C4([H])[H])n3C([H])([H])C([H])([H])[H])c([H])c([H])c2C1([H])[H]

$$$$
67:0:0
     RDKit          3D

 89 98  0  0  1  0  0  0  0  0999 V2000
  -27.4930  -21.8520   21.6860 C   0  0  0  0  0  2  0  0  0  0  0  0
  -28.7550  -22.7260   21.7230 C   0  0  0  0  0  2  0  0  0  0  0  0
  -27.5800  -20.9890   20.4170 C   0  0  0  0  0  2  0  0  0  0  0  0
  -29.1570  -22.8650   20.2530 C   0  0  0  0  0  3  0  0  0  0  0  0
  -28.8900  -21.2590   19.7970 N   0  0  1  0  0  4  0  0  0  0  0  0
  -28.7220  -21.3100   18.8010 H   0  0  0  0  0  0  0  0  0  0  0  0
  -30.8100  -15.6250   19.8140 C   0  0  0  0  0  0  0  0  0  0  0  0
  -30.7290  -13.1570   18.9830 C   0  0  0  0  0  2  0  0  0  0  0  0
  -29.7640  -12.9220   17.7940 C   0  0  0  0  0  2  0  0  0  0  0  0
  -28.3410  -12.6470   18.3130 C   0  0  0  0  0  2  0  0  0  0  0  0
  -27.9410  -13.6220   19.4520 C   0  0  0  0  0  3  0  0  0  0  0  0
  -29.0380  -13.8110   20.5210 C   0  0  0  0  0  2  0  0  0  0  0  0
  -30.2240  -14.3200   19.8150 N   0  0  0  0  0  0  0  0  0  0  0  0
  -31.9960  -15.5760   19.4560 O   0  0  0  0  0  0  0  0  0  0  0  0
  -30.3900  -19.3490   21.2680 C   0  0  0  0  0  2  0  0  0  0  0  0
  -30.9250  -17.8340   21.1550 C   0  0  0  0  0  2  0  0  0  0  0  0
  -29.4040  -18.1970   19.5190 C   0  0  0  0  0  2  0  0  0  0  0  0
  -29.8200  -19.8410   19.9130 C   0  0  0  0  0  3  0  0  0  0  0  0
  -30.2010  -16.9510   20.1840 N   0  0  0  0  0  0  0  0  0  0  0  0
  -25.6460  -14.1820   20.3980 C   0  0  0  0  0  0  0  0  0  0  0  0
  -24.5940  -13.4090   20.8020 C   0  0  0  0  0  0  0  0  0  0  0  0
  -25.0270  -12.0540   20.6690 C   0  0  0  0  0  0  0  0  0  0  0  0
  -26.6470  -13.3010   20.0330 N   0  0  0  0  0  0  0  0  0  0  0  0
  -26.2920  -12.0100   20.2650 N   0  0  0  0  0  0  0  0  0  0  0  0
  -24.2870  -10.7980   20.8470 C   0  0  0  0  0  0  0  0  0  0  0  0
  -24.6930   -9.8330   21.7940 C   0  0  0  0  0  3  0  0  0  0  0  0
  -23.9580   -8.6410   21.9630 C   0  0  0  0  0  3  0  0  0  0  0  0
  -22.8000   -8.4030   21.1870 C   0  0  0  0  0  0  0  0  0  0  0  0
  -22.4090   -9.3590   20.2340 C   0  0  0  0  0  3  0  0  0  0  0  0
  -23.1440  -10.5440   20.0620 C   0  0  0  0  0  3  0  0  0  0  0  0
  -22.0370   -7.2620   21.2660 O   0  0  0  0  0  0  0  0  0  0  0  0
  -21.8480   -6.6010   22.4530 C   0  0  0  0  0  0  0  0  0  0  0  0
  -21.2450   -7.2260   23.5680 C   0  0  0  0  0  3  0  0  0  0  0  0
  -21.0080   -6.4870   24.7440 C   0  0  0  0  0  3  0  0  0  0  0  0
  -21.3610   -5.1270   24.8070 C   0  0  0  0  0  0  0  0  0  0  0  0
  -21.9550   -4.5020   23.6970 C   0  0  0  0  0  3  0  0  0  0  0  0
  -22.1950   -5.2380   22.5230 C   0  0  0  0  0  0  0  0  0  0  0  0
  -22.7460   -4.6250   21.4480 F   0  0  0  0  0  0  0  0  0  0  0  0
  -21.1290   -4.4150   25.9340 F   0  0  0  0  0  0  0  0  0  0  0  0
  -23.2290  -13.9020   21.1840 C   0  0  0  0  0  0  0  0  0  0  0  0
  -22.5420  -13.1940   22.0730 N   0  0  0  0  0  0  0  0  0  0  0  0
  -22.7820  -14.9540   20.7280 O   0  0  0  0  0  0  0  0  0  0  0  0
  -22.9070  -12.3450   22.4740 H   0  0  0  0  0  0  0  0  0  0  0  0
  -21.6270  -13.5140   22.3580 H   0  0  0  0  0  0  0  0  0  0  0  0
  -25.8360  -15.5550   20.2720 N   0  0  0  0  0  0  0  0  0  0  0  0
  -25.1140  -16.2330   20.4800 H   0  0  0  0  0  0  0  0  0  0  0  0
  -26.6750  -15.9740   19.8920 H   0  0  0  0  0  0  0  0  0  0  0  0
  -28.3240  -24.4340   19.7560 C   0  0  0  0  0  2  0  0  0  0  0  0
  -28.4610  -26.0720   20.1140 O   0  0  0  0  0  0  0  0  0  0  0  0
  -24.7080  -31.8930   23.2050 C   0  0  0  0  0  0  0  0  0  0  0  0
  -27.4390  -27.1760   20.0480 C   0  0  0  0  0  0  0  0  0  0  0  0
  -23.5760  -30.5290   21.4980 C   0  0  0  0  0  3  0  0  0  0  0  0
  -25.0890  -29.0220   20.0250 C   0  0  0  0  0  0  0  0  0  0  0  0
  -26.1350  -30.8190   21.3880 C   0  0  0  0  0  2  0  0  0  0  0  0
  -26.2590  -29.4330   20.6800 C   0  0  0  0  0  0  0  0  0  0  0  0
  -27.4230  -28.5320   20.6620 C   0  0  0  0  0  3  0  0  0  0  0  0
  -26.2400  -26.9370   19.3390 C   0  0  0  0  0  3  0  0  0  0  0  0
  -25.1100  -27.7990   19.3340 C   0  0  0  0  0  3  0  0  0  0  0  0
  -23.8370  -29.9040   20.0990 C   0  0  0  0  0  2  0  0  0  0  0  0
  -24.8270  -31.1060   22.0850 N   0  0  0  0  0  0  0  0  0  0  0  0
  -23.6040  -32.1290   23.7240 O   0  0  0  0  0  0  0  0  0  0  0  0
  -22.8990  -29.4770   22.4140 C   0  0  0  0  0  0  0  0  0  0  0  0
  -21.5790  -29.2630   22.2470 N   0  0  0  0  0  0  0  0  0  0  0  0
  -23.5670  -28.8530   23.2410 O   0  0  0  0  0  0  0  0  0  0  0  0
  -21.0890  -29.8120   21.5540 H   0  0  0  0  0  0  0  0  0  0  0  0
  -18.2370  -27.9060   22.6400 C   0  0  0  0  0  0  0  0  0  0  0  0
  -20.7780  -28.2660   22.9660 C   0  0  0  0  0  3  0  0  0  0  0  0
  -20.9490  -26.8620   22.3430 C   0  0  0  0  0  2  0  0  0  0  0  0
  -19.8820  -26.5320   21.2950 C   0  0  0  0  0  2  0  0  0  0  0  0
  -18.4830  -26.5940   21.9140 C   0  0  0  0  0  2  0  0  0  0  0  0
  -19.3140  -28.7000   23.1180 C   0  0  0  0  0  0  0  0  0  0  0  0
  -19.0270  -29.9260   23.7540 C   0  0  0  0  0  3  0  0  0  0  0  0
  -17.6980  -30.3610   23.9180 C   0  0  0  0  0  3  0  0  0  0  0  0
  -16.6360  -29.5650   23.4540 C   0  0  0  0  0  3  0  0  0  0  0  0
  -16.9070  -28.3400   22.8210 C   0  0  0  0  0  3  0  0  0  0  0  0
  -25.9500  -32.5450   23.8820 C   0  0  0  0  0  3  0  0  0  0  0  0
  -25.6130  -33.9450   24.2000 N   0  0  0  0  0  0  0  0  0  0  0  0
  -25.9360  -35.0030   23.4460 C   0  0  0  0  0  0  0  0  0  0  0  0
  -26.6120  -34.9070   22.4190 O   0  0  0  0  0  0  0  0  0  0  0  0
  -25.0050  -34.0900   24.9930 H   0  0  0  0  0  0  0  0  0  0  0  0
  -24.1750  -36.7710   23.1020 C   0  0  0  0  0  1  0  0  0  0  0  0
  -25.4310  -36.3900   23.9010 C   0  0  0  0  0  3  0  0  0  0  0  0
  -27.5510  -37.3260   24.7140 C   0  0  0  0  0  1  0  0  0  0  0  0
  -26.4460  -37.4570   23.7680 N   0  0  0  0  0  0  0  0  0  0  0  0
  -26.0250  -38.3740   23.8970 H   0  0  0  0  0  0  0  0  0  0  0  0
  -26.4130  -31.7880   25.1870 C   0  0  1  0  0  0  0  0  0  0  0  0
  -25.2730  -31.5390   26.2020 C   0  0  0  0  0  1  0  0  0  0  0  0
  -27.0330  -30.4160   24.8390 C   0  0  0  0  0  1  0  0  0  0  0  0
  -27.5230  -32.5990   25.8970 C   0  0  0  0  0  1  0  0  0  0  0  0
  1  2  1  0
  3  1  1  0
  4 48  1  0
  4  2  1  0
  5  6  1  6
  5 18  1  0
  5  4  1  0
  5  3  1  0
  7 13  1  0
  7 19  1  0
  8 13  1  0
  9 10  1  0
  9  8  1  0
 11 10  1  0
 11 23  1  0
 11 12  1  0
 13 12  1  0
 14  7  2  0
 16 15  1  0
 17 19  1  0
 18 17  1  0
 18 15  1  0
 19 16  1  0
 20 21  2  0
 21 40  1  0
 22 21  1  0
 22 25  1  0
 23 24  1  0
 23 20  1  0
 24 22  2  0
 25 26  1  0
 26 27  2  0
 28 31  1  0
 28 27  1  0
 29 28  2  0
 30 29  1  0
 30 25  2  0
 31 32  1  0
 32 37  2  0
 32 33  1  0
 33 34  2  0
 34 35  1  0
 35 39  1  0
 36 35  2  0
 37 36  1  0
 38 37  1  0
 40 41  1  0
 41 44  1  0
 41 43  1  0
 42 40  2  0
 45 20  1  0
 45 46  1  0
 47 45  1  0
 48 49  1  0
 50 61  2  0
 51 49  1  0
 51 56  1  0
 52 60  1  0
 52 62  1  0
 53 59  1  0
 53 55  1  0
 54 60  1  0
 55 54  1  0
 56 55  2  0
 57 51  2  0
 58 57  1  0
 58 53  2  0
 59 52  1  0
 60 50  1  0
 62 64  2  0
 63 62  1  0
 65 63  1  0
 66 75  2  0
 66 71  1  0
 67 63  1  0
 67 71  1  0
 68 67  1  0
 69 70  1  0
 69 68  1  0
 70 66  1  0
 71 72  2  0
 72 73  1  0
 74 73  2  0
 75 74  1  0
 76 50  1  0
 76 77  1  0
 76 86  1  0
 77 80  1  0
 78 82  1  0
 78 77  1  0
 79 78  2  0
 82 81  1  0
 84 85  1  0
 84 82  1  0
 84 83  1  0
 86 89  1  1
 86 87  1  0
 88 86  1  0
M  ISO  4   7 100  19 100  48 101  49 101
M  END
>  <TORSDO>  (67) 
F 17

>  <SCORE>  (67) 
-15.421

>  <name>  (67) 
67

>  <ligand_id>  (67) 
67

>  <original_smiles>  (67) 
[H]c1c([H])c([H])c2c(c1[H])C([H])([H])C([H])([H])C([H])([H])C2([H])N([H])C(=O)C1([H])N(C(=O)C([H])(N([H])C(=O)C([H])(N([H])C([H])([H])[H])C([H])([H])[H])C(C([H])([H])[H])(C([H])([H])[H])C([H])([H])[H])C([H])([H])c2c([H])c(OC([H])([H])C3([H])C([H])([H])C([H])([H])C([H])([H])[N+]3([H])C3([H])C([H])([H])N(C(=O)N4C([H])([H])C([H])([H])C([H])([H])C([H])(n5nc(-c6c([H])c([H])c(Oc7c([H])c([H])c(F)c([H])c7F)c([H])c6[H])c(C(=O)N([H])[H])c5N([H])[H])C4([H])[H])C([H])([H])C3([H])[H])c([H])c([H])c2C1([H])[H]

>  <smiles>  (67) 
[H]c1c([H])c([H])c2c(c1[H])C([H])([H])C([H])([H])C([H])([H])C2([H])N([H])C(=O)C1([H])N(C(=O)C([H])(N([H])C(=O)C([H])(N([H])C([H])([H])[H])C([H])([H])[H])C(C([H])([H])[H])(C([H])([H])[H])C([H])([H])[H])C([H])([H])c2c([H])c(OC([H])([H])C3([H])C([H])([H])C([H])([H])C([H])([H])[N+]3([H])C3([H])C([H])([H])N(C(=O)N4C([H])([H])C([H])([H])C([H])([H])C([H])(n5nc(-c6c([H])c([H])c(Oc7c([H])c([H])c(F)c([H])c7F)c([H])c6[H])c(C(=O)N([H])[H])c5N([H])[H])C4([H])[H])C([H])([H])C3([H])[H])c([H])c([H])c2C1([H])[H]

$$$$
68:0:0
     RDKit          3D

 94103  0  0  1  0  0  0  0  0999 V2000
  -29.1730  -25.7710   23.2360 C   0  0  0  0  0  0  0  0  0  0  0  0
  -28.9790  -23.8950   22.0390 C   0  0  0  0  0  3  0  0  0  0  0  0
  -28.6290  -25.8940   21.1000 C   0  0  0  0  0  0  0  0  0  0  0  0
  -29.4510  -26.4620   24.5520 C   0  0  0  0  0  1  0  0  0  0  0  0
  -29.2370  -24.4490   23.2220 N   0  0  0  0  0  0  0  0  0  0  0  0
  -28.8780  -26.5540   22.2190 N   0  0  0  0  0  0  0  0  0  0  0  0
  -28.6840  -24.5620   20.9110 N   0  0  0  0  0  0  0  0  0  0  0  0
  -28.3900  -26.6820   20.0170 O   0  0  0  0  0  0  0  0  0  0  0  0
  -24.6200  -31.9080   23.1850 C   0  0  0  0  0  0  0  0  0  0  0  0
  -27.2530  -27.4720   20.0730 C   0  0  0  0  0  0  0  0  0  0  0  0
  -23.4090  -30.5130   21.5420 C   0  0  0  0  0  3  0  0  0  0  0  0
  -24.8590  -28.9860   20.0990 C   0  0  0  0  0  0  0  0  0  0  0  0
  -25.9340  -30.8770   21.3310 C   0  0  0  0  0  2  0  0  0  0  0  0
  -26.0200  -29.5080   20.6850 C   0  0  0  0  0  0  0  0  0  0  0  0
  -27.2240  -28.7610   20.6660 C   0  0  0  0  0  3  0  0  0  0  0  0
  -26.0770  -26.9740   19.4760 C   0  0  0  0  0  3  0  0  0  0  0  0
  -24.8840  -27.7190   19.4900 C   0  0  0  0  0  3  0  0  0  0  0  0
  -23.6140  -29.8420   20.1560 C   0  0  0  0  0  2  0  0  0  0  0  0
  -24.6740  -31.1150   22.0770 N   0  0  0  0  0  0  0  0  0  0  0  0
  -23.5410  -32.1740   23.7310 O   0  0  0  0  0  0  0  0  0  0  0  0
  -22.7670  -29.4860   22.5000 C   0  0  0  0  0  0  0  0  0  0  0  0
  -21.4400  -29.3040   22.3830 N   0  0  0  0  0  0  0  0  0  0  0  0
  -23.4580  -28.8550   23.3040 O   0  0  0  0  0  0  0  0  0  0  0  0
  -20.9420  -29.8680   21.7080 H   0  0  0  0  0  0  0  0  0  0  0  0
  -18.0730  -28.0940   22.8930 C   0  0  0  0  0  0  0  0  0  0  0  0
  -20.6320  -28.3590   23.1530 C   0  0  0  0  0  3  0  0  0  0  0  0
  -20.7350  -26.9320   22.5690 C   0  0  0  0  0  2  0  0  0  0  0  0
  -19.6280  -26.6110   21.5590 C   0  0  0  0  0  2  0  0  0  0  0  0
  -18.2500  -26.7480   22.2090 C   0  0  0  0  0  2  0  0  0  0  0  0
  -19.1920  -28.8570   23.3220 C   0  0  0  0  0  0  0  0  0  0  0  0
  -18.9730  -30.1160   23.9210 C   0  0  0  0  0  3  0  0  0  0  0  0
  -17.6680  -30.6130   24.0970 C   0  0  0  0  0  3  0  0  0  0  0  0
  -16.5630  -29.8470   23.6830 C   0  0  0  0  0  3  0  0  0  0  0  0
  -16.7660  -28.5910   23.0870 C   0  0  0  0  0  3  0  0  0  0  0  0
  -25.9070  -32.5410   23.8000 C   0  0  0  0  0  3  0  0  0  0  0  0
  -26.4460  -31.7550   25.0580 C   0  0  1  0  0  0  0  0  0  0  0  0
  -25.3710  -31.5040   26.1410 C   0  0  0  0  0  1  0  0  0  0  0  0
  -27.0310  -30.3840   24.6440 C   0  0  0  0  0  1  0  0  0  0  0  0
  -27.6020  -32.5470   25.7120 C   0  0  0  0  0  1  0  0  0  0  0  0
  -25.5930  -33.9320   24.1510 N   0  0  0  0  0  0  0  0  0  0  0  0
  -25.9190  -34.9970   23.4060 C   0  0  0  0  0  0  0  0  0  0  0  0
  -26.5840  -34.9100   22.3700 O   0  0  0  0  0  0  0  0  0  0  0  0
  -25.0020  -34.0730   24.9570 H   0  0  0  0  0  0  0  0  0  0  0  0
  -24.1810  -36.7840   23.0780 C   0  0  0  0  0  1  0  0  0  0  0  0
  -25.4250  -36.3750   23.8820 C   0  0  0  0  0  3  0  0  0  0  0  0
  -27.5600  -37.2570   24.7180 C   0  0  0  0  0  1  0  0  0  0  0  0
  -26.4540  -37.4330   23.7810 N   0  0  0  0  0  0  0  0  0  0  0  0
  -26.0440  -38.3500   23.9390 H   0  0  0  0  0  0  0  0  0  0  0  0
  -28.9820  -22.3520   22.0950 C   0  0  0  0  0  2  0  0  0  0  0  0
  -29.1900  -21.5790   20.8450 N   0  0  0  0  0  4  0  0  0  0  0  0
  -29.9420  -22.0220   20.3450 H   0  0  0  0  0  0  0  0  0  0  0  0
  -28.3540  -21.6860   20.2970 H   0  0  0  0  0  0  0  0  0  0  0  0
  -29.5030  -20.1340   21.1160 C   0  0  0  0  0  3  0  0  0  0  0  0
  -29.5570  -19.1970   19.8730 C   0  0  0  0  0  3  0  0  0  0  0  0
  -30.7510  -14.6270   20.2230 C   0  0  0  0  0  0  0  0  0  0  0  0
  -30.4890  -12.4160   19.1740 C   0  0  0  0  0  2  0  0  0  0  0  0
  -29.5390  -12.5960   17.9710 C   0  0  0  0  0  2  0  0  0  0  0  0
  -28.0650  -12.4780   18.4100 C   0  0  0  0  0  2  0  0  0  0  0  0
  -27.7340  -13.3340   19.6610 C   0  0  0  0  0  3  0  0  0  0  0  0
  -28.7990  -13.1440   20.7650 C   0  0  0  0  0  2  0  0  0  0  0  0
  -30.1130  -13.4270   20.1710 N   0  0  0  0  0  0  0  0  0  0  0  0
  -31.9380  -14.7630   19.9110 O   0  0  0  0  0  0  0  0  0  0  0  0
  -29.9180  -16.6770   19.0720 C   0  0  0  0  0  2  0  0  0  0  0  0
  -29.7020  -16.7700   21.1520 C   0  0  0  0  0  2  0  0  0  0  0  0
  -30.1760  -17.7830   20.0990 C   0  0  0  0  0  3  0  0  0  0  0  0
  -29.8990  -15.6880   20.1660 N   0  0  0  0  0  0  0  0  0  0  0  0
  -25.3520  -13.9660   20.3920 C   0  0  0  0  0  0  0  0  0  0  0  0
  -24.2810  -13.2070   20.7770 C   0  0  0  0  0  0  0  0  0  0  0  0
  -24.7330  -11.8510   20.7600 C   0  0  0  0  0  0  0  0  0  0  0  0
  -26.3870  -13.0740   20.1600 N   0  0  0  0  0  0  0  0  0  0  0  0
  -26.0200  -11.7970   20.4400 N   0  0  0  0  0  0  0  0  0  0  0  0
  -24.0010  -10.5960   20.9700 C   0  0  0  0  0  0  0  0  0  0  0  0
  -24.4430   -9.6310   21.9000 C   0  0  0  0  0  3  0  0  0  0  0  0
  -23.7120   -8.4390   22.0980 C   0  0  0  0  0  3  0  0  0  0  0  0
  -22.5250   -8.2050   21.3650 C   0  0  0  0  0  0  0  0  0  0  0  0
  -22.1020   -9.1600   20.4230 C   0  0  0  0  0  3  0  0  0  0  0  0
  -22.8330  -10.3430   20.2240 C   0  0  0  0  0  3  0  0  0  0  0  0
  -21.7630   -7.0660   21.4710 O   0  0  0  0  0  0  0  0  0  0  0  0
  -21.7350   -6.3260   22.6260 C   0  0  0  0  0  0  0  0  0  0  0  0
  -21.3580   -6.8910   23.8640 C   0  0  0  0  0  3  0  0  0  0  0  0
  -21.2750   -6.0780   25.0120 C   0  0  0  0  0  3  0  0  0  0  0  0
  -21.5560   -4.7010   24.9240 C   0  0  0  0  0  0  0  0  0  0  0  0
  -21.9270   -4.1360   23.6910 C   0  0  0  0  0  3  0  0  0  0  0  0
  -22.0130   -4.9470   22.5450 C   0  0  0  0  0  0  0  0  0  0  0  0
  -22.3490   -4.3940   21.3550 F   0  0  0  0  0  0  0  0  0  0  0  0
  -21.4690   -3.9180   26.0240 F   0  0  0  0  0  0  0  0  0  0  0  0
  -22.8900  -13.6960   21.0560 C   0  0  0  0  0  0  0  0  0  0  0  0
  -22.1650  -13.0210   21.9400 N   0  0  0  0  0  0  0  0  0  0  0  0
  -22.4530  -14.7150   20.5210 O   0  0  0  0  0  0  0  0  0  0  0  0
  -22.5290  -12.1990   22.3970 H   0  0  0  0  0  0  0  0  0  0  0  0
  -21.2300  -13.3320   22.1650 H   0  0  0  0  0  0  0  0  0  0  0  0
  -25.5270  -15.3350   20.2020 N   0  0  0  0  0  0  0  0  0  0  0  0
  -24.7700  -16.0010   20.3150 H   0  0  0  0  0  0  0  0  0  0  0  0
  -26.3920  -15.7630   19.8930 H   0  0  0  0  0  0  0  0  0  0  0  0
  1  4  1  0
  2 49  1  0
  2  5  1  0
  3  6  2  0
  5  1  2  0
  6  1  1  0
  7  3  2  0
  7  2  1  0
  8 10  1  0
  8  3  1  0
  9 20  2  0
 10 15  1  0
 11 19  1  0
 11 21  1  0
 12 18  1  0
 12 14  1  0
 13 19  1  0
 14 13  1  0
 15 14  2  0
 16 17  1  0
 16 10  2  0
 17 12  2  0
 18 11  1  0
 19  9  1  0
 21 23  2  0
 22 21  1  0
 24 22  1  0
 25 34  2  0
 25 30  1  0
 26 22  1  0
 26 30  1  0
 27 26  1  0
 28 29  1  0
 28 27  1  0
 29 25  1  0
 30 31  2  0
 31 32  1  0
 33 32  2  0
 34 33  1  0
 35  9  1  0
 35 40  1  0
 35 36  1  0
 36 39  1  1
 36 37  1  0
 38 36  1  0
 40 43  1  0
 41 45  1  0
 41 40  1  0
 42 41  2  0
 45 44  1  0
 47 45  1  0
 47 48  1  0
 47 46  1  0
 50 53  1  0
 50 49  1  0
 51 50  1  0
 52 50  1  0
 54 53  2  0
 56 61  1  0
 57 58  1  0
 57 56  1  0
 59 58  1  0
 59 70  1  0
 59 60  1  0
 61 55  1  0
 61 60  1  0
 62 55  2  0
 63 65  1  0
 63 66  1  0
 65 54  1  0
 65 64  1  0
 66 55  1  0
 66 64  1  0
 67 68  2  0
 68 87  1  0
 69 68  1  0
 69 72  1  0
 70 67  1  0
 70 71  1  0
 71 69  2  0
 72 73  1  0
 73 74  2  0
 75 78  1  0
 75 74  1  0
 76 75  2  0
 77 76  1  0
 77 72  2  0
 78 79  1  0
 79 80  1  0
 80 81  2  0
 82 81  1  0
 82 86  1  0
 83 82  2  0
 84 79  2  0
 84 83  1  0
 85 84  1  0
 87 88  1  0
 88 91  1  0
 88 90  1  0
 89 87  2  0
 92 93  1  0
 92 67  1  0
 94 92  1  0
M  ISO  4   3 101   8 101  55 100  66 100
M  END
>  <TORSDO>  (68) 
F 20

>  <SCORE>  (68) 
-13.777

>  <name>  (68) 
68

>  <ligand_id>  (68) 
68

>  <original_smiles>  (68) 
[H]c1c([H])c([H])c2c(c1[H])C([H])([H])C([H])([H])C([H])([H])C2([H])N([H])C(=O)C1([H])N(C(=O)C([H])(N([H])C(=O)C([H])(N([H])C([H])([H])[H])C([H])([H])[H])C(C([H])([H])[H])(C([H])([H])[H])C([H])([H])[H])C([H])([H])c2c([H])c(Oc3nc(C([H])([H])[H])nc(C([H])([H])[N+]([H])([H])C([H])([H])C([H])([H])C4([H])C([H])([H])N(C(=O)N5C([H])([H])C([H])([H])C([H])([H])C([H])(n6nc(-c7c([H])c([H])c(Oc8c([H])c([H])c(F)c([H])c8F)c([H])c7[H])c(C(=O)N([H])[H])c6N([H])[H])C5([H])[H])C4([H])[H])n3)c([H])c([H])c2C1([H])[H]

>  <smiles>  (68) 
[H]c1c([H])c([H])c2c(c1[H])C([H])([H])C([H])([H])C([H])([H])C2([H])N([H])C(=O)C1([H])N(C(=O)C([H])(N([H])C(=O)C([H])(N([H])C([H])([H])[H])C([H])([H])[H])C(C([H])([H])[H])(C([H])([H])[H])C([H])([H])[H])C([H])([H])c2c([H])c(Oc3nc(C([H])([H])[H])nc(C([H])([H])[N+]([H])([H])C([H])([H])C([H])([H])C4([H])C([H])([H])N(C(=O)N5C([H])([H])C([H])([H])C([H])([H])C([H])(n6nc(-c7c([H])c([H])c(Oc8c([H])c([H])c(F)c([H])c8F)c([H])c7[H])c(C(=O)N([H])[H])c6N([H])[H])C5([H])[H])C4([H])[H])n3)c([H])c([H])c2C1([H])[H]

$$$$
69:0:0
     RDKit          3D

 92101  0  0  1  0  0  0  0  0999 V2000
  -30.4790  -20.2610   18.3320 C   0  0  0  0  0  3  0  0  0  0  0  0
  -30.3360  -21.6250   18.4850 C   0  0  0  0  0  0  0  0  0  0  0  0
  -29.6590  -21.7050   19.7470 C   0  0  0  0  0  0  0  0  0  0  0  0
  -30.7600  -22.7050   17.4890 C   0  0  0  0  0  1  0  0  0  0  0  0
  -29.4370  -20.5230   20.2970 N   0  0  0  0  0  0  0  0  0  0  0  0
  -29.9090  -19.6010   19.4190 N   0  0  0  0  0  0  0  0  0  0  0  0
  -29.1340  -22.8260   20.4070 N   0  0  0  0  0  0  0  0  0  0  0  0
  -28.5370  -22.6190   21.2050 H   0  0  0  0  0  0  0  0  0  0  0  0
  -30.6910  -14.5890   20.0580 C   0  0  0  0  0  0  0  0  0  0  0  0
  -30.3140  -12.4110   18.9360 C   0  0  0  0  0  2  0  0  0  0  0  0
  -29.3100  -12.5930   17.7790 C   0  0  0  0  0  2  0  0  0  0  0  0
  -27.8600  -12.3890   18.2750 C   0  0  0  0  0  2  0  0  0  0  0  0
  -27.5770  -13.2110   19.5630 C   0  0  0  0  0  3  0  0  0  0  0  0
  -28.7030  -13.0360   20.6060 C   0  0  0  0  0  2  0  0  0  0  0  0
  -29.9640  -13.4250   19.9530 N   0  0  0  0  0  0  0  0  0  0  0  0
  -31.8790  -14.5850   19.7200 O   0  0  0  0  0  0  0  0  0  0  0  0
  -28.7630  -17.7680   20.8240 C   0  0  0  0  0  2  0  0  0  0  0  0
  -28.7790  -16.2320   20.7470 C   0  0  0  0  0  2  0  0  0  0  0  0
  -30.7170  -17.0920   19.6460 C   0  0  0  0  0  2  0  0  0  0  0  0
  -29.5810  -18.1570   19.5820 C   0  0  0  0  0  3  0  0  0  0  0  0
  -30.0670  -15.8280   20.1290 N   0  0  0  0  0  0  0  0  0  0  0  0
  -25.2540  -13.8300   20.4740 C   0  0  0  0  0  0  0  0  0  0  0  0
  -24.2030  -13.0670   20.8850 C   0  0  0  0  0  0  0  0  0  0  0  0
  -24.6430  -11.7090   20.7930 C   0  0  0  0  0  0  0  0  0  0  0  0
  -26.2650  -12.9430   20.1400 N   0  0  0  0  0  0  0  0  0  0  0  0
  -25.9100  -11.6610   20.4040 N   0  0  0  0  0  0  0  0  0  0  0  0
  -23.9140  -10.4540   20.9920 C   0  0  0  0  0  0  0  0  0  0  0  0
  -24.3710   -9.4760   21.9010 C   0  0  0  0  0  3  0  0  0  0  0  0
  -23.6550   -8.2780   22.0930 C   0  0  0  0  0  3  0  0  0  0  0  0
  -22.4560   -8.0530   21.3750 C   0  0  0  0  0  0  0  0  0  0  0  0
  -22.0120   -9.0230   20.4580 C   0  0  0  0  0  3  0  0  0  0  0  0
  -22.7340  -10.2130   20.2660 C   0  0  0  0  0  3  0  0  0  0  0  0
  -21.7030   -6.9090   21.4770 O   0  0  0  0  0  0  0  0  0  0  0  0
  -21.6630   -6.1700   22.6310 C   0  0  0  0  0  0  0  0  0  0  0  0
  -21.2310   -6.7230   23.8540 C   0  0  0  0  0  3  0  0  0  0  0  0
  -21.1450   -5.9110   25.0030 C   0  0  0  0  0  3  0  0  0  0  0  0
  -21.4780   -4.5460   24.9240 C   0  0  0  0  0  0  0  0  0  0  0  0
  -21.9060   -3.9930   23.7040 C   0  0  0  0  0  3  0  0  0  0  0  0
  -21.9940   -4.8010   22.5600 C   0  0  0  0  0  0  0  0  0  0  0  0
  -22.3860   -4.2620   21.3810 F   0  0  0  0  0  0  0  0  0  0  0  0
  -21.3900   -3.7590   26.0230 F   0  0  0  0  0  0  0  0  0  0  0  0
  -22.8250  -13.5530   21.2450 C   0  0  0  0  0  0  0  0  0  0  0  0
  -22.1260  -12.8570   22.1300 N   0  0  0  0  0  0  0  0  0  0  0  0
  -22.3760  -14.5980   20.7720 O   0  0  0  0  0  0  0  0  0  0  0  0
  -22.4790  -12.0090   22.5470 H   0  0  0  0  0  0  0  0  0  0  0  0
  -21.2070  -13.1900   22.3950 H   0  0  0  0  0  0  0  0  0  0  0  0
  -25.4230  -15.2060   20.3340 N   0  0  0  0  0  0  0  0  0  0  0  0
  -24.6820  -15.8700   20.5270 H   0  0  0  0  0  0  0  0  0  0  0  0
  -26.2930  -15.6420   20.0540 H   0  0  0  0  0  0  0  0  0  0  0  0
  -29.4730  -24.2410   20.1910 C   0  0  0  0  0  2  0  0  0  0  0  0
  -28.2890  -25.1760   20.5810 C   0  0  0  0  0  2  0  0  0  0  0  0
  -28.4570  -26.5830   20.2590 O   0  0  0  0  0  0  0  0  0  0  0  0
  -24.6100  -31.8510   23.1940 C   0  0  0  0  0  0  0  0  0  0  0  0
  -27.3000  -27.3530   20.2190 C   0  0  0  0  0  0  0  0  0  0  0  0
  -23.4330  -30.4360   21.5440 C   0  0  0  0  0  3  0  0  0  0  0  0
  -24.9090  -28.8900   20.1540 C   0  0  0  0  0  0  0  0  0  0  0  0
  -25.9710  -30.7850   21.3880 C   0  0  0  0  0  2  0  0  0  0  0  0
  -26.0630  -29.4110   20.7560 C   0  0  0  0  0  0  0  0  0  0  0  0
  -27.2680  -28.6640   20.7610 C   0  0  0  0  0  3  0  0  0  0  0  0
  -26.1200  -26.8540   19.6190 C   0  0  0  0  0  3  0  0  0  0  0  0
  -24.9410  -27.6140   19.5690 C   0  0  0  0  0  3  0  0  0  0  0  0
  -23.6570  -29.7350   20.1780 C   0  0  0  0  0  2  0  0  0  0  0  0
  -24.6900  -31.0400   22.1000 N   0  0  0  0  0  0  0  0  0  0  0  0
  -23.5190  -32.1210   23.7160 O   0  0  0  0  0  0  0  0  0  0  0  0
  -22.7680  -29.4210   22.5030 C   0  0  0  0  0  0  0  0  0  0  0  0
  -21.4420  -29.2460   22.3690 N   0  0  0  0  0  0  0  0  0  0  0  0
  -23.4440  -28.7850   23.3170 O   0  0  0  0  0  0  0  0  0  0  0  0
  -20.9580  -29.8200   21.6920 H   0  0  0  0  0  0  0  0  0  0  0  0
  -18.0470  -28.1130   22.8950 C   0  0  0  0  0  0  0  0  0  0  0  0
  -20.6140  -28.3110   23.1310 C   0  0  0  0  0  3  0  0  0  0  0  0
  -20.6730  -26.8850   22.5320 C   0  0  0  0  0  2  0  0  0  0  0  0
  -19.5470  -26.6010   21.5310 C   0  0  0  0  0  2  0  0  0  0  0  0
  -18.1780  -26.7730   22.1940 C   0  0  0  0  0  2  0  0  0  0  0  0
  -19.1900  -28.8430   23.3170 C   0  0  0  0  0  0  0  0  0  0  0  0
  -19.0100  -30.1060   23.9250 C   0  0  0  0  0  3  0  0  0  0  0  0
  -17.7210  -30.6310   24.1220 C   0  0  0  0  0  3  0  0  0  0  0  0
  -16.5920  -29.8970   23.7180 C   0  0  0  0  0  3  0  0  0  0  0  0
  -16.7570  -28.6400   23.1100 C   0  0  0  0  0  3  0  0  0  0  0  0
  -25.8830  -32.4930   23.8310 C   0  0  0  0  0  3  0  0  0  0  0  0
  -25.5570  -33.8850   24.1720 N   0  0  0  0  0  0  0  0  0  0  0  0
  -25.8630  -34.9440   23.4140 C   0  0  0  0  0  0  0  0  0  0  0  0
  -26.5230  -34.8590   22.3770 O   0  0  0  0  0  0  0  0  0  0  0  0
  -24.9970  -34.0240   24.9990 H   0  0  0  0  0  0  0  0  0  0  0  0
  -24.1110  -36.7150   23.0580 C   0  0  0  0  0  1  0  0  0  0  0  0
  -25.3530  -36.3250   23.8760 C   0  0  0  0  0  3  0  0  0  0  0  0
  -27.4670  -37.2410   24.7220 C   0  0  0  0  0  1  0  0  0  0  0  0
  -26.3710  -37.3920   23.7690 N   0  0  0  0  0  0  0  0  0  0  0  0
  -25.9540  -38.3100   23.9030 H   0  0  0  0  0  0  0  0  0  0  0  0
  -26.3970  -31.7230   25.1100 C   0  0  1  0  0  0  0  0  0  0  0  0
  -25.2970  -31.4670   26.1650 C   0  0  0  0  0  1  0  0  0  0  0  0
  -27.0140  -30.3570   24.7250 C   0  0  0  0  0  1  0  0  0  0  0  0
  -27.5230  -32.5350   25.7970 C   0  0  0  0  0  1  0  0  0  0  0  0
  1  2  2  0
  1  6  1  0
  2  3  1  0
  3  5  2  0
  3  7  1  0
  4  2  1  0
  6  5  1  0
  7  8  1  0
  9 21  1  0
 10 15  1  0
 11 12  1  0
 11 10  1  0
 13 12  1  0
 13 25  1  0
 13 14  1  0
 15  9  1  0
 15 14  1  0
 16  9  2  0
 18 17  1  0
 19 21  1  0
 20  6  1  0
 20 19  1  0
 20 17  1  0
 21 18  1  0
 22 23  2  0
 23 42  1  0
 24 23  1  0
 24 27  1  0
 25 26  1  0
 25 22  1  0
 26 24  2  0
 27 28  1  0
 28 29  2  0
 30 33  1  0
 30 29  1  0
 31 30  2  0
 32 31  1  0
 32 27  2  0
 33 34  1  0
 34 35  1  0
 35 36  2  0
 37 36  1  0
 37 41  1  0
 38 37  2  0
 39 34  2  0
 39 38  1  0
 40 39  1  0
 42 43  1  0
 43 46  1  0
 43 45  1  0
 44 42  2  0
 47 22  1  0
 47 48  1  0
 49 47  1  0
 50  7  1  0
 50 51  1  0
 52 51  1  0
 53 64  2  0
 54 52  1  0
 54 59  1  0
 55 63  1  0
 55 65  1  0
 56 62  1  0
 56 58  1  0
 57 63  1  0
 58 59  2  0
 58 57  1  0
 60 54  2  0
 61 60  1  0
 61 56  2  0
 62 55  1  0
 63 53  1  0
 65 67  2  0
 66 65  1  0
 68 66  1  0
 69 78  2  0
 69 74  1  0
 70 66  1  0
 70 74  1  0
 71 70  1  0
 72 73  1  0
 72 71  1  0
 73 69  1  0
 74 75  2  0
 75 76  1  0
 77 76  2  0
 78 77  1  0
 79 53  1  0
 79 80  1  0
 79 89  1  0
 80 83  1  0
 81 85  1  0
 81 80  1  0
 82 81  2  0
 85 84  1  0
 87 85  1  0
 87 88  1  0
 87 86  1  0
 89 92  1  1
 89 90  1  0
 91 89  1  0
M  ISO  4   9 100  21 100  51 101  52 101
M  END
>  <TORSDO>  (69) 
F 18

>  <SCORE>  (69) 
-14.504

>  <name>  (69) 
69

>  <ligand_id>  (69) 
69

>  <original_smiles>  (69) 
[H]c1c([H])c([H])c2c(c1[H])C([H])([H])C([H])([H])C([H])([H])C2([H])N([H])C(=O)C1([H])N(C(=O)C([H])(N([H])C(=O)C([H])(N([H])C([H])([H])[H])C([H])([H])[H])C(C([H])([H])[H])(C([H])([H])[H])C([H])([H])[H])C([H])([H])c2c([H])c(OC([H])([H])C([H])([H])N([H])c3nn(C4([H])C([H])([H])N(C(=O)N5C([H])([H])C([H])([H])C([H])([H])C([H])(n6nc(-c7c([H])c([H])c(Oc8c([H])c([H])c(F)c([H])c8F)c([H])c7[H])c(C(=O)N([H])[H])c6N([H])[H])C5([H])[H])C([H])([H])C4([H])[H])c([H])c3C([H])([H])[H])c([H])c([H])c2C1([H])[H]

>  <smiles>  (69) 
[H]c1c([H])c([H])c2c(c1[H])C([H])([H])C([H])([H])C([H])([H])C2([H])N([H])C(=O)C1([H])N(C(=O)C([H])(N([H])C(=O)C([H])(N([H])C([H])([H])[H])C([H])([H])[H])C(C([H])([H])[H])(C([H])([H])[H])C([H])([H])[H])C([H])([H])c2c([H])c(OC([H])([H])C([H])([H])N([H])c3nn(C4([H])C([H])([H])N(C(=O)N5C([H])([H])C([H])([H])C([H])([H])C([H])(n6nc(-c7c([H])c([H])c(Oc8c([H])c([H])c(F)c([H])c8F)c([H])c7[H])c(C(=O)N([H])[H])c6N([H])[H])C5([H])[H])C([H])([H])C4([H])[H])c([H])c3C([H])([H])[H])c([H])c([H])c2C1([H])[H]

$$$$
70:0:0
     RDKit          3D

 92101  0  0  1  0  0  0  0  0999 V2000
  -29.2440  -20.7170   21.2180 C   0  0  0  0  0  2  0  0  0  0  0  0
  -28.9490  -20.3700   19.1930 C   0  0  0  0  0  2  0  0  0  0  0  0
  -28.4210  -21.4900   20.1500 C   0  0  0  0  0  3  0  0  0  0  0  0
  -28.9390  -19.4040   20.4190 C   0  0  0  0  0  3  0  0  0  0  0  0
  -30.7720  -14.6970   20.0300 C   0  0  0  0  0  0  0  0  0  0  0  0
  -30.4710  -12.4990   18.9180 C   0  0  0  0  0  2  0  0  0  0  0  0
  -29.4630  -12.6530   17.7600 C   0  0  0  0  0  2  0  0  0  0  0  0
  -28.0190  -12.4800   18.2710 C   0  0  0  0  0  2  0  0  0  0  0  0
  -27.7300  -13.3160   19.5460 C   0  0  0  0  0  3  0  0  0  0  0  0
  -28.8490  -13.1510   20.5980 C   0  0  0  0  0  2  0  0  0  0  0  0
  -30.1210  -13.4960   19.9490 N   0  0  0  0  0  0  0  0  0  0  0  0
  -31.8820  -14.8620   19.5160 O   0  0  0  0  0  0  0  0  0  0  0  0
  -30.5340  -16.3080   21.8490 C   0  0  0  0  0  2  0  0  0  0  0  0
  -30.1710  -17.8110   21.9010 C   0  0  0  0  0  2  0  0  0  0  0  0
  -29.6970  -16.9840   19.7900 C   0  0  0  0  0  2  0  0  0  0  0  0
  -30.0880  -15.7620   20.5610 N   0  0  0  0  0  0  0  0  0  0  0  0
  -29.9550  -18.2730   20.5160 N   0  0  1  0  0  4  0  0  0  0  0  0
  -30.8470  -18.6100   20.1830 H   0  0  0  0  0  0  0  0  0  0  0  0
  -25.3790  -13.8870   20.4100 C   0  0  0  0  0  0  0  0  0  0  0  0
  -24.3390  -13.1000   20.8210 C   0  0  0  0  0  0  0  0  0  0  0  0
  -24.8040  -11.7520   20.7330 C   0  0  0  0  0  0  0  0  0  0  0  0
  -26.4120  -13.0180   20.0990 N   0  0  0  0  0  0  0  0  0  0  0  0
  -26.0740  -11.7280   20.3530 N   0  0  0  0  0  0  0  0  0  0  0  0
  -24.0940  -10.4830   20.9340 C   0  0  0  0  0  0  0  0  0  0  0  0
  -24.5410   -9.5280   21.8750 C   0  0  0  0  0  3  0  0  0  0  0  0
  -23.8320   -8.3220   22.0630 C   0  0  0  0  0  3  0  0  0  0  0  0
  -22.6610   -8.0640   21.3130 C   0  0  0  0  0  0  0  0  0  0  0  0
  -22.2330   -9.0070   20.3610 C   0  0  0  0  0  3  0  0  0  0  0  0
  -22.9440  -10.2040   20.1710 C   0  0  0  0  0  3  0  0  0  0  0  0
  -21.9190   -6.9100   21.4100 O   0  0  0  0  0  0  0  0  0  0  0  0
  -21.8280   -6.2130   22.5880 C   0  0  0  0  0  0  0  0  0  0  0  0
  -21.3020   -6.7970   23.7620 C   0  0  0  0  0  3  0  0  0  0  0  0
  -21.1610   -6.0230   24.9310 C   0  0  0  0  0  3  0  0  0  0  0  0
  -21.5340   -4.6660   24.9270 C   0  0  0  0  0  0  0  0  0  0  0  0
  -22.0530   -4.0810   23.7580 C   0  0  0  0  0  3  0  0  0  0  0  0
  -22.1960   -4.8520   22.5910 C   0  0  0  0  0  0  0  0  0  0  0  0
  -22.6760   -4.2790   21.4610 F   0  0  0  0  0  0  0  0  0  0  0  0
  -21.3920   -3.9200   26.0480 F   0  0  0  0  0  0  0  0  0  0  0  0
  -22.9570  -13.5640   21.1820 C   0  0  0  0  0  0  0  0  0  0  0  0
  -22.2790  -12.8400   22.0650 N   0  0  0  0  0  0  0  0  0  0  0  0
  -22.4910  -14.6030   20.7170 O   0  0  0  0  0  0  0  0  0  0  0  0
  -22.6700  -11.9980   22.4620 H   0  0  0  0  0  0  0  0  0  0  0  0
  -21.3550  -13.1320   22.3500 H   0  0  0  0  0  0  0  0  0  0  0  0
  -25.5280  -15.2620   20.2560 N   0  0  0  0  0  0  0  0  0  0  0  0
  -24.7640  -15.9080   20.4230 H   0  0  0  0  0  0  0  0  0  0  0  0
  -26.3490  -15.7130   19.8760 H   0  0  0  0  0  0  0  0  0  0  0  0
  -28.2490  -24.0600   20.2740 C   0  0  0  0  0  0  0  0  0  0  0  0
  -28.8220  -22.9000   19.8260 N   0  0  0  0  0  0  0  0  0  0  0  0
  -27.4510  -24.0570   21.2160 O   0  0  0  0  0  0  0  0  0  0  0  0
  -29.4750  -23.0140   19.0610 H   0  0  0  0  0  0  0  0  0  0  0  0
  -28.5720  -25.4130   19.5340 C   0  0  0  0  0  2  0  0  0  0  0  0
  -28.3800  -26.6530   20.3040 O   0  0  0  0  0  0  0  0  0  0  0  0
  -24.5680  -31.9560   23.2680 C   0  0  0  0  0  0  0  0  0  0  0  0
  -27.2190  -27.4250   20.2300 C   0  0  0  0  0  0  0  0  0  0  0  0
  -23.3740  -30.5470   21.6270 C   0  0  0  0  0  3  0  0  0  0  0  0
  -24.8350  -28.9960   20.2120 C   0  0  0  0  0  0  0  0  0  0  0  0
  -25.9080  -30.8810   21.4520 C   0  0  0  0  0  2  0  0  0  0  0  0
  -25.9940  -29.5030   20.8120 C   0  0  0  0  0  0  0  0  0  0  0  0
  -27.1850  -28.7240   20.8160 C   0  0  0  0  0  3  0  0  0  0  0  0
  -26.0340  -26.9530   19.6220 C   0  0  0  0  0  3  0  0  0  0  0  0
  -24.8540  -27.7260   19.6120 C   0  0  0  0  0  3  0  0  0  0  0  0
  -23.5930  -29.8620   20.2510 C   0  0  0  0  0  2  0  0  0  0  0  0
  -24.6350  -31.1450   22.1720 N   0  0  0  0  0  0  0  0  0  0  0  0
  -23.4820  -32.2330   23.7980 O   0  0  0  0  0  0  0  0  0  0  0  0
  -22.7130  -29.5330   22.5890 C   0  0  0  0  0  0  0  0  0  0  0  0
  -21.3880  -29.3500   22.4560 N   0  0  0  0  0  0  0  0  0  0  0  0
  -23.3900  -28.9120   23.4130 O   0  0  0  0  0  0  0  0  0  0  0  0
  -20.9030  -29.9030   21.7640 H   0  0  0  0  0  0  0  0  0  0  0  0
  -18.0090  -28.1670   22.9580 C   0  0  0  0  0  0  0  0  0  0  0  0
  -20.5670  -28.4160   23.2260 C   0  0  0  0  0  3  0  0  0  0  0  0
  -20.6640  -26.9850   22.6490 C   0  0  0  0  0  2  0  0  0  0  0  0
  -19.5590  -26.6670   21.6360 C   0  0  0  0  0  2  0  0  0  0  0  0
  -18.1790  -26.8170   22.2800 C   0  0  0  0  0  2  0  0  0  0  0  0
  -19.1310  -28.9240   23.3880 C   0  0  0  0  0  0  0  0  0  0  0  0
  -18.9160  -30.1880   23.9810 C   0  0  0  0  0  3  0  0  0  0  0  0
  -17.6150  -30.6950   24.1460 C   0  0  0  0  0  3  0  0  0  0  0  0
  -16.5070  -29.9350   23.7340 C   0  0  0  0  0  3  0  0  0  0  0  0
  -16.7050  -28.6710   23.1470 C   0  0  0  0  0  3  0  0  0  0  0  0
  -25.8480  -32.5940   23.8930 C   0  0  0  0  0  3  0  0  0  0  0  0
  -25.5340  -33.9930   24.2160 N   0  0  0  0  0  0  0  0  0  0  0  0
  -25.8730  -35.0450   23.4570 C   0  0  0  0  0  0  0  0  0  0  0  0
  -26.5530  -34.9380   22.4320 O   0  0  0  0  0  0  0  0  0  0  0  0
  -24.9350  -34.1500   25.0130 H   0  0  0  0  0  0  0  0  0  0  0  0
  -24.1540  -36.8400   23.0740 C   0  0  0  0  0  1  0  0  0  0  0  0
  -25.3810  -36.4340   23.9060 C   0  0  0  0  0  3  0  0  0  0  0  0
  -27.5010  -37.3160   24.7750 C   0  0  0  0  0  1  0  0  0  0  0  0
  -26.4170  -37.4850   23.8100 N   0  0  0  0  0  0  0  0  0  0  0  0
  -26.0110  -38.4050   23.9490 H   0  0  0  0  0  0  0  0  0  0  0  0
  -26.3620  -31.8310   25.1750 C   0  0  1  0  0  0  0  0  0  0  0  0
  -25.2590  -31.5730   26.2280 C   0  0  0  0  0  1  0  0  0  0  0  0
  -26.9760  -30.4650   24.7900 C   0  0  0  0  0  1  0  0  0  0  0  0
  -27.4890  -32.6460   25.8530 C   0  0  0  0  0  1  0  0  0  0  0  0
  2  3  1  0
  3 48  1  0
  3  1  1  0
  4  2  1  0
  4 17  1  0
  4  1  1  0
  5 16  1  0
  6 11  1  0
  7  8  1  0
  7  6  1  0
  9  8  1  0
  9 22  1  0
  9 10  1  0
 11  5  1  0
 11 10  1  0
 12  5  2  0
 13 14  1  0
 15 17  1  0
 15 16  1  0
 16 13  1  0
 17 18  1  6
 17 14  1  0
 19 20  2  0
 20 39  1  0
 21 20  1  0
 21 24  1  0
 22 23  1  0
 22 19  1  0
 23 21  2  0
 24 25  1  0
 25 26  2  0
 27 30  1  0
 27 26  1  0
 28 27  2  0
 29 28  1  0
 29 24  2  0
 30 31  1  0
 31 36  2  0
 31 32  1  0
 32 33  2  0
 34 33  1  0
 34 38  1  0
 35 34  2  0
 36 35  1  0
 37 36  1  0
 39 40  1  0
 40 43  1  0
 40 42  1  0
 41 39  2  0
 44 19  1  0
 44 45  1  0
 46 44  1  0
 47 49  2  0
 48 47  1  0
 50 48  1  0
 51 47  1  0
 51 52  1  0
 53 64  2  0
 54 52  1  0
 54 59  1  0
 55 63  1  0
 55 65  1  0
 56 62  1  0
 56 58  1  0
 57 63  1  0
 58 59  2  0
 58 57  1  0
 60 54  2  0
 61 60  1  0
 61 56  2  0
 62 55  1  0
 63 53  1  0
 65 67  2  0
 66 65  1  0
 68 66  1  0
 69 78  2  0
 69 74  1  0
 70 66  1  0
 70 74  1  0
 71 70  1  0
 72 73  1  0
 72 71  1  0
 73 69  1  0
 74 75  2  0
 75 76  1  0
 77 76  2  0
 78 77  1  0
 79 53  1  0
 79 80  1  0
 79 89  1  0
 80 83  1  0
 81 85  1  0
 81 80  1  0
 82 81  2  0
 85 84  1  0
 87 85  1  0
 87 88  1  0
 87 86  1  0
 89 92  1  1
 89 90  1  0
 91 89  1  0
M  ISO  4   5 100  16 100  51 101  52 101
M  END
>  <TORSDO>  (70) 
F 18

>  <SCORE>  (70) 
-14.529

>  <name>  (70) 
70

>  <ligand_id>  (70) 
70

>  <original_smiles>  (70) 
[H]c1c([H])c([H])c2c(c1[H])C([H])([H])C([H])([H])C([H])([H])C2([H])N([H])C(=O)C1([H])N(C(=O)C([H])(N([H])C(=O)C([H])(N([H])C([H])([H])[H])C([H])([H])[H])C(C([H])([H])[H])(C([H])([H])[H])C([H])([H])[H])C([H])([H])c2c([H])c(OC([H])([H])C(=O)N([H])C3([H])C([H])([H])C([H])([N+]4([H])C([H])([H])N(C(=O)N5C([H])([H])C([H])([H])C([H])([H])C([H])(n6nc(-c7c([H])c([H])c(Oc8c([H])c([H])c(F)c([H])c8F)c([H])c7[H])c(C(=O)N([H])[H])c6N([H])[H])C5([H])[H])C([H])([H])C4([H])[H])C3([H])[H])c([H])c([H])c2C1([H])[H]

>  <smiles>  (70) 
[H]c1c([H])c([H])c2c(c1[H])C([H])([H])C([H])([H])C([H])([H])C2([H])N([H])C(=O)C1([H])N(C(=O)C([H])(N([H])C(=O)C([H])(N([H])C([H])([H])[H])C([H])([H])[H])C(C([H])([H])[H])(C([H])([H])[H])C([H])([H])[H])C([H])([H])c2c([H])c(OC([H])([H])C(=O)N([H])C3([H])C([H])([H])C([H])([N+]4([H])C([H])([H])N(C(=O)N5C([H])([H])C([H])([H])C([H])([H])C([H])(n6nc(-c7c([H])c([H])c(Oc8c([H])c([H])c(F)c([H])c8F)c([H])c7[H])c(C(=O)N([H])[H])c6N([H])[H])C5([H])[H])C([H])([H])C4([H])[H])C3([H])[H])c([H])c([H])c2C1([H])[H]

$$$$
71:0:0
     RDKit          3D

 90 98  0  0  1  0  0  0  0  0999 V2000
  -30.3780  -15.4210   20.3280 C   0  0  0  0  0  0  0  0  0  0  0  0
  -30.3970  -12.9210   19.5420 C   0  0  0  0  0  2  0  0  0  0  0  0
  -29.5120  -12.6580   18.2940 C   0  0  0  0  0  2  0  0  0  0  0  0
  -28.0600  -12.3720   18.7100 C   0  0  0  0  0  2  0  0  0  0  0  0
  -27.5750  -13.3550   19.8030 C   0  0  0  0  0  3  0  0  0  0  0  0
  -28.5960  -13.5630   20.9440 C   0  0  0  0  0  2  0  0  0  0  0  0
  -29.8280  -14.0900   20.3300 N   0  0  0  0  0  0  0  0  0  0  0  0
  -31.5930  -15.3760   20.0660 O   0  0  0  0  0  0  0  0  0  0  0  0
  -29.6440  -20.8040   18.7260 C   0  0  0  0  0  3  0  0  0  0  0  0
  -29.1220  -20.8690   20.0240 C   0  0  0  0  0  0  0  0  0  0  0  0
  -30.1300  -19.5900   18.1870 C   0  0  0  0  0  0  0  0  0  0  0  0
  -29.6660  -18.2500   20.0540 C   0  0  0  0  0  0  0  0  0  0  0  0
  -30.2460  -20.5250   15.9130 C   0  0  0  0  0  1  0  0  0  0  0  0
  -29.1500  -19.5030   20.6420 N   0  0  0  0  0  0  0  0  0  0  0  0
  -30.1510  -18.3980   18.8220 N   0  0  0  0  0  0  0  0  0  0  0  0
  -30.6590  -19.5330   16.8980 N   0  0  0  0  0  0  0  0  0  0  0  0
  -29.6430  -16.7290   20.5190 N   0  0  0  0  0  0  0  0  0  0  0  0
  -30.8930  -18.6060   16.5570 H   0  0  0  0  0  0  0  0  0  0  0  0
  -28.7840  -16.5420   21.0070 H   0  0  0  0  0  0  0  0  0  0  0  0
  -25.1960  -13.9050   20.5230 C   0  0  0  0  0  0  0  0  0  0  0  0
  -24.1300  -13.1280   20.8790 C   0  0  0  0  0  0  0  0  0  0  0  0
  -24.5990  -11.7780   20.8600 C   0  0  0  0  0  0  0  0  0  0  0  0
  -26.2420  -13.0310   20.2950 N   0  0  0  0  0  0  0  0  0  0  0  0
  -25.8960  -11.7450   20.5670 N   0  0  0  0  0  0  0  0  0  0  0  0
  -23.8680  -10.5160   21.0430 C   0  0  0  0  0  0  0  0  0  0  0  0
  -24.2860   -9.5480   21.9830 C   0  0  0  0  0  3  0  0  0  0  0  0
  -23.5530   -8.3550   22.1580 C   0  0  0  0  0  3  0  0  0  0  0  0
  -22.3860   -8.1200   21.3910 C   0  0  0  0  0  0  0  0  0  0  0  0
  -21.9870   -9.0760   20.4400 C   0  0  0  0  0  3  0  0  0  0  0  0
  -22.7220  -10.2610   20.2640 C   0  0  0  0  0  3  0  0  0  0  0  0
  -21.6260   -6.9790   21.4740 O   0  0  0  0  0  0  0  0  0  0  0  0
  -21.5600   -6.2390   22.6270 C   0  0  0  0  0  0  0  0  0  0  0  0
  -21.1320   -6.8020   23.8500 C   0  0  0  0  0  3  0  0  0  0  0  0
  -21.0120   -5.9890   24.9950 C   0  0  0  0  0  3  0  0  0  0  0  0
  -21.3110   -4.6160   24.9190 C   0  0  0  0  0  0  0  0  0  0  0  0
  -21.7310   -4.0530   23.7010 C   0  0  0  0  0  3  0  0  0  0  0  0
  -21.8510   -4.8620   22.5570 C   0  0  0  0  0  0  0  0  0  0  0  0
  -22.2370   -4.3090   21.3820 F   0  0  0  0  0  0  0  0  0  0  0  0
  -21.1890   -3.8340   26.0170 F   0  0  0  0  0  0  0  0  0  0  0  0
  -22.7290  -13.6060   21.1210 C   0  0  0  0  0  0  0  0  0  0  0  0
  -21.9860  -12.9180   21.9800 N   0  0  0  0  0  0  0  0  0  0  0  0
  -22.3010  -14.6280   20.5840 O   0  0  0  0  0  0  0  0  0  0  0  0
  -22.3450  -12.0930   22.4370 H   0  0  0  0  0  0  0  0  0  0  0  0
  -21.0430  -13.2190   22.1830 H   0  0  0  0  0  0  0  0  0  0  0  0
  -25.3600  -15.2760   20.3400 N   0  0  0  0  0  0  0  0  0  0  0  0
  -24.5900  -15.9280   20.4370 H   0  0  0  0  0  0  0  0  0  0  0  0
  -26.1990  -15.7050   19.9720 H   0  0  0  0  0  0  0  0  0  0  0  0
  -28.7400  -22.5050   20.6360 C   0  0  0  0  0  2  0  0  0  0  0  0
  -28.1710  -24.1230   19.9310 C   0  0  0  0  0  2  0  0  0  0  0  0
  -28.2040  -25.7670   20.3320 O   0  0  0  0  0  0  0  0  0  0  0  0
  -24.6180  -31.8380   23.1800 C   0  0  0  0  0  0  0  0  0  0  0  0
  -27.2010  -26.8920   20.2080 C   0  0  0  0  0  0  0  0  0  0  0  0
  -23.4390  -30.4240   21.5480 C   0  0  0  0  0  3  0  0  0  0  0  0
  -24.9010  -28.8070   20.1350 C   0  0  0  0  0  0  0  0  0  0  0  0
  -26.0080  -30.6280   21.4160 C   0  0  0  0  0  2  0  0  0  0  0  0
  -26.0850  -29.2080   20.7660 C   0  0  0  0  0  0  0  0  0  0  0  0
  -27.2230  -28.2710   20.7790 C   0  0  0  0  0  3  0  0  0  0  0  0
  -25.9880  -26.6660   19.5160 C   0  0  0  0  0  3  0  0  0  0  0  0
  -24.8830  -27.5600   19.4880 C   0  0  0  0  0  3  0  0  0  0  0  0
  -23.6780  -29.7280   20.1770 C   0  0  0  0  0  2  0  0  0  0  0  0
  -24.7090  -30.9920   22.1010 N   0  0  0  0  0  0  0  0  0  0  0  0
  -23.5240  -32.1280   23.6940 O   0  0  0  0  0  0  0  0  0  0  0  0
  -22.7410  -29.4360   22.5200 C   0  0  0  0  0  0  0  0  0  0  0  0
  -21.4080  -29.2800   22.4040 N   0  0  0  0  0  0  0  0  0  0  0  0
  -23.4070  -28.8110   23.3490 O   0  0  0  0  0  0  0  0  0  0  0  0
  -20.9250  -29.8330   21.7110 H   0  0  0  0  0  0  0  0  0  0  0  0
  -18.0230  -28.0860   22.9380 C   0  0  0  0  0  0  0  0  0  0  0  0
  -20.5860  -28.3460   23.1810 C   0  0  0  0  0  3  0  0  0  0  0  0
  -20.6780  -26.9140   22.6060 C   0  0  0  0  0  2  0  0  0  0  0  0
  -19.5680  -26.5950   21.6010 C   0  0  0  0  0  2  0  0  0  0  0  0
  -18.1910  -26.7390   22.2560 C   0  0  0  0  0  2  0  0  0  0  0  0
  -19.1460  -28.8480   23.3590 C   0  0  0  0  0  0  0  0  0  0  0  0
  -18.9310  -30.1050   23.9620 C   0  0  0  0  0  3  0  0  0  0  0  0
  -17.6270  -30.6020   24.1470 C   0  0  0  0  0  3  0  0  0  0  0  0
  -16.5190  -29.8380   23.7410 C   0  0  0  0  0  3  0  0  0  0  0  0
  -16.7180  -28.5820   23.1420 C   0  0  0  0  0  3  0  0  0  0  0  0
  -25.8810  -32.4940   23.8150 C   0  0  0  0  0  3  0  0  0  0  0  0
  -25.5490  -33.8910   24.1530 N   0  0  0  0  0  0  0  0  0  0  0  0
  -25.8730  -34.9590   23.4130 C   0  0  0  0  0  0  0  0  0  0  0  0
  -26.5410  -34.8740   22.3800 O   0  0  0  0  0  0  0  0  0  0  0  0
  -24.9500  -34.0280   24.9550 H   0  0  0  0  0  0  0  0  0  0  0  0
  -24.1260  -36.7480   23.0950 C   0  0  0  0  0  1  0  0  0  0  0  0
  -25.3780  -36.3410   23.8900 C   0  0  0  0  0  3  0  0  0  0  0  0
  -27.5100  -37.2400   24.7150 C   0  0  0  0  0  1  0  0  0  0  0  0
  -26.4000  -37.4050   23.7800 N   0  0  0  0  0  0  0  0  0  0  0  0
  -25.9870  -38.3200   23.9360 H   0  0  0  0  0  0  0  0  0  0  0  0
  -26.3920  -31.7340   25.1030 C   0  0  1  0  0  0  0  0  0  0  0  0
  -25.2920  -31.5000   26.1650 C   0  0  0  0  0  1  0  0  0  0  0  0
  -26.9840  -30.3560   24.7350 C   0  0  0  0  0  1  0  0  0  0  0  0
  -27.5350  -32.5390   25.7660 C   0  0  0  0  0  1  0  0  0  0  0  0
  1  7  1  0
  1 17  1  0
  2  7  1  0
  3  4  1  0
  3  2  1  0
  5  4  1  0
  5 23  1  0
  5  6  1  0
  7  6  1  0
  8  1  2  0
  9 10  2  0
 10 48  1  0
 10 14  1  0
 11  9  1  0
 11 15  2  0
 12 17  1  0
 12 14  2  0
 13 16  1  0
 15 12  1  0
 16 11  1  0
 17 19  1  0
 18 16  1  0
 20 21  2  0
 21 40  1  0
 22 21  1  0
 22 25  1  0
 23 20  1  0
 23 24  1  0
 24 22  2  0
 25 26  1  0
 26 27  2  0
 28 31  1  0
 28 27  1  0
 29 28  2  0
 30 29  1  0
 30 25  2  0
 31 32  1  0
 32 33  1  0
 33 34  2  0
 35 34  1  0
 35 39  1  0
 36 35  2  0
 37 32  2  0
 37 36  1  0
 38 37  1  0
 40 41  1  0
 41 44  1  0
 41 43  1  0
 42 40  2  0
 45 46  1  0
 45 20  1  0
 47 45  1  0
 49 50  1  0
 49 48  1  0
 51 62  2  0
 52 50  1  0
 52 57  1  0
 53 61  1  0
 53 63  1  0
 54 60  1  0
 54 56  1  0
 55 61  1  0
 56 57  2  0
 56 55  1  0
 58 52  2  0
 59 58  1  0
 59 54  2  0
 60 53  1  0
 61 51  1  0
 63 65  2  0
 64 63  1  0
 66 64  1  0
 67 76  2  0
 67 72  1  0
 68 64  1  0
 68 72  1  0
 69 68  1  0
 70 71  1  0
 70 69  1  0
 71 67  1  0
 72 73  2  0
 73 74  1  0
 75 74  2  0
 76 75  1  0
 77 51  1  0
 77 78  1  0
 77 87  1  0
 78 81  1  0
 79 83  1  0
 79 78  1  0
 80 79  2  0
 83 82  1  0
 85 83  1  0
 85 86  1  0
 85 84  1  0
 87 90  1  1
 87 88  1  0
 89 87  1  0
M  ISO  4   1 100  17 100  49 101  50 101
M  END
>  <TORSDO>  (71) 
F 17

>  <SCORE>  (71) 
-16.608

>  <name>  (71) 
71

>  <ligand_id>  (71) 
71

>  <original_smiles>  (71) 
[H]c1c(N([H])C([H])([H])[H])nc(N([H])C(=O)N2C([H])([H])C([H])([H])C([H])([H])C([H])(n3nc(-c4c([H])c([H])c(Oc5c([H])c([H])c(F)c([H])c5F)c([H])c4[H])c(C(=O)N([H])[H])c3N([H])[H])C2([H])[H])nc1C([H])([H])C([H])([H])Oc1c([H])c([H])c2c(c1[H])C([H])([H])N(C(=O)C([H])(N([H])C(=O)C([H])(N([H])C([H])([H])[H])C([H])([H])[H])C(C([H])([H])[H])(C([H])([H])[H])C([H])([H])[H])C([H])(C(=O)N([H])C1([H])c3c([H])c([H])c([H])c([H])c3C([H])([H])C([H])([H])C1([H])[H])C2([H])[H]

>  <smiles>  (71) 
[H]c1c(N([H])C([H])([H])[H])nc(N([H])C(=O)N2C([H])([H])C([H])([H])C([H])([H])C([H])(n3nc(-c4c([H])c([H])c(Oc5c([H])c([H])c(F)c([H])c5F)c([H])c4[H])c(C(=O)N([H])[H])c3N([H])[H])C2([H])[H])nc1C([H])([H])C([H])([H])Oc1c([H])c([H])c2c(c1[H])C([H])([H])N(C(=O)C([H])(N([H])C(=O)C([H])(N([H])C([H])([H])[H])C([H])([H])[H])C(C([H])([H])[H])(C([H])([H])[H])C([H])([H])[H])C([H])(C(=O)N([H])C1([H])c3c([H])c([H])c([H])c([H])c3C([H])([H])C([H])([H])C1([H])[H])C2([H])[H]

$$$$
72:0:0
     RDKit          3D

 95105  0  0  1  0  0  0  0  0999 V2000
  -30.3240  -24.0760   20.1750 C   0  0  0  0  0  0  0  0  0  0  0  0
  -28.9500  -23.9850   20.0610 C   0  0  0  0  0  0  0  0  0  0  0  0
  -29.7900  -21.9080   20.1990 C   0  0  0  0  0  0  0  0  0  0  0  0
  -32.2420  -22.4020   20.3590 C   0  0  0  0  0  1  0  0  0  0  0  0
  -28.6330  -22.5870   20.0770 N   0  0  0  0  0  0  0  0  0  0  0  0
  -30.8340  -22.7670   20.2500 N   0  0  0  0  0  0  0  0  0  0  0  0
  -30.0690  -20.5030   20.2810 N   0  0  0  0  0  0  0  0  0  0  0  0
  -31.0670  -20.4130   20.4260 H   0  0  0  0  0  0  0  0  0  0  0  0
  -30.6760  -14.8410   19.9220 C   0  0  0  0  0  0  0  0  0  0  0  0
  -30.3950  -12.5860   18.9130 C   0  0  0  0  0  2  0  0  0  0  0  0
  -29.3700  -12.6780   17.7620 C   0  0  0  0  0  2  0  0  0  0  0  0
  -27.9380  -12.4930   18.2990 C   0  0  0  0  0  2  0  0  0  0  0  0
  -27.6490  -13.3630   19.5520 C   0  0  0  0  0  3  0  0  0  0  0  0
  -28.7900  -13.2760   20.5890 C   0  0  0  0  0  2  0  0  0  0  0  0
  -30.0380  -13.6260   19.9000 N   0  0  0  0  0  0  0  0  0  0  0  0
  -31.8240  -14.9460   19.4770 O   0  0  0  0  0  0  0  0  0  0  0  0
  -29.9830  -18.2000   21.3690 C   0  0  0  0  0  2  0  0  0  0  0  0
  -29.9670  -18.3480   18.9310 C   0  0  0  0  0  2  0  0  0  0  0  0
  -29.5740  -16.6770   21.2990 C   0  0  0  0  0  2  0  0  0  0  0  0
  -29.5570  -16.8310   18.8570 C   0  0  0  0  0  2  0  0  0  0  0  0
  -29.5020  -19.1160   20.1990 C   0  0  0  0  0  3  0  0  0  0  0  0
  -29.8920  -15.9790   20.0310 N   0  0  0  0  0  0  0  0  0  0  0  0
  -25.3350  -13.9200   20.5120 C   0  0  0  0  0  0  0  0  0  0  0  0
  -24.2980  -13.1290   20.9250 C   0  0  0  0  0  0  0  0  0  0  0  0
  -24.7450  -11.7810   20.7760 C   0  0  0  0  0  0  0  0  0  0  0  0
  -26.3480  -13.0520   20.1380 N   0  0  0  0  0  0  0  0  0  0  0  0
  -26.0050  -11.7570   20.3580 N   0  0  0  0  0  0  0  0  0  0  0  0
  -24.0280  -10.5110   20.9550 C   0  0  0  0  0  0  0  0  0  0  0  0
  -24.4710   -9.5350   21.8760 C   0  0  0  0  0  3  0  0  0  0  0  0
  -23.7530   -8.3300   22.0420 C   0  0  0  0  0  3  0  0  0  0  0  0
  -22.5790   -8.0940   21.2880 C   0  0  0  0  0  0  0  0  0  0  0  0
  -22.1560   -9.0580   20.3570 C   0  0  0  0  0  3  0  0  0  0  0  0
  -22.8740  -10.2540   20.1890 C   0  0  0  0  0  3  0  0  0  0  0  0
  -21.8320   -6.9430   21.3640 O   0  0  0  0  0  0  0  0  0  0  0  0
  -21.6990   -6.2470   22.5400 C   0  0  0  0  0  0  0  0  0  0  0  0
  -21.1160   -6.8270   23.6870 C   0  0  0  0  0  3  0  0  0  0  0  0
  -20.9360   -6.0560   24.8530 C   0  0  0  0  0  3  0  0  0  0  0  0
  -21.3300   -4.7050   24.8700 C   0  0  0  0  0  0  0  0  0  0  0  0
  -21.9060   -4.1230   23.7260 C   0  0  0  0  0  3  0  0  0  0  0  0
  -22.0870   -4.8930   22.5640 C   0  0  0  0  0  0  0  0  0  0  0  0
  -22.6240   -4.3220   21.4590 F   0  0  0  0  0  0  0  0  0  0  0  0
  -21.1500   -3.9600   25.9870 F   0  0  0  0  0  0  0  0  0  0  0  0
  -22.9320  -13.5930   21.3410 C   0  0  0  0  0  0  0  0  0  0  0  0
  -22.2820  -12.8590   22.2370 N   0  0  0  0  0  0  0  0  0  0  0  0
  -22.4540  -14.6410   20.9100 O   0  0  0  0  0  0  0  0  0  0  0  0
  -22.6820  -12.0100   22.6070 H   0  0  0  0  0  0  0  0  0  0  0  0
  -21.3680  -13.1510   22.5590 H   0  0  0  0  0  0  0  0  0  0  0  0
  -25.4980  -15.2980   20.4010 N   0  0  0  0  0  0  0  0  0  0  0  0
  -24.7540  -15.9540   20.6130 H   0  0  0  0  0  0  0  0  0  0  0  0
  -26.3350  -15.7460   20.0490 H   0  0  0  0  0  0  0  0  0  0  0  0
  -32.0980  -25.6200   21.3480 C   0  0  0  0  0  2  0  0  0  0  0  0
  -30.9100  -26.4940   21.0350 C   0  0  0  0  0  2  0  0  0  0  0  0
  -31.2060  -25.2890   20.1720 C   0  0  0  0  0  3  0  0  0  0  0  0
  -27.8710  -25.1000   19.8600 C   0  0  0  0  0  2  0  0  0  0  0  0
  -28.1470  -26.5430   20.1200 O   0  0  0  0  0  0  0  0  0  0  0  0
  -24.5130  -31.9600   23.2640 C   0  0  0  0  0  0  0  0  0  0  0  0
  -27.0440  -27.4240   20.0880 C   0  0  0  0  0  0  0  0  0  0  0  0
  -23.2700  -30.5830   21.6370 C   0  0  0  0  0  3  0  0  0  0  0  0
  -24.6850  -29.0540   20.1580 C   0  0  0  0  0  0  0  0  0  0  0  0
  -25.8080  -30.8960   21.4010 C   0  0  0  0  0  2  0  0  0  0  0  0
  -25.8710  -29.5270   20.7320 C   0  0  0  0  0  0  0  0  0  0  0  0
  -27.0530  -28.7240   20.6890 C   0  0  0  0  0  3  0  0  0  0  0  0
  -25.8290  -27.0190   19.4810 C   0  0  0  0  0  3  0  0  0  0  0  0
  -24.6660  -27.8050   19.5260 C   0  0  0  0  0  3  0  0  0  0  0  0
  -23.4510  -29.9270   20.2450 C   0  0  0  0  0  2  0  0  0  0  0  0
  -24.5500  -31.1630   22.1560 N   0  0  0  0  0  0  0  0  0  0  0  0
  -23.4430  -32.2310   23.8270 O   0  0  0  0  0  0  0  0  0  0  0  0
  -22.6300  -29.5520   22.5990 C   0  0  0  0  0  0  0  0  0  0  0  0
  -21.3110  -29.3320   22.4600 N   0  0  0  0  0  0  0  0  0  0  0  0
  -23.3180  -28.9560   23.4310 O   0  0  0  0  0  0  0  0  0  0  0  0
  -20.8120  -29.8670   21.7630 H   0  0  0  0  0  0  0  0  0  0  0  0
  -17.9750  -28.0050   22.9090 C   0  0  0  0  0  0  0  0  0  0  0  0
  -20.5130  -28.3780   23.2340 C   0  0  0  0  0  3  0  0  0  0  0  0
  -20.6880  -26.9390   22.6930 C   0  0  0  0  0  2  0  0  0  0  0  0
  -19.6260  -26.5490   21.6610 C   0  0  0  0  0  2  0  0  0  0  0  0
  -18.2230  -26.6510   22.2670 C   0  0  0  0  0  2  0  0  0  0  0  0
  -19.0500  -28.8230   23.3480 C   0  0  0  0  0  0  0  0  0  0  0  0
  -18.7640  -30.0890   23.9050 C   0  0  0  0  0  3  0  0  0  0  0  0
  -17.4360  -30.5370   24.0290 C   0  0  0  0  0  3  0  0  0  0  0  0
  -16.3740  -29.7180   23.6070 C   0  0  0  0  0  3  0  0  0  0  0  0
  -16.6450  -28.4530   23.0530 C   0  0  0  0  0  3  0  0  0  0  0  0
  -25.8100  -32.5850   23.8620 C   0  0  0  0  0  3  0  0  0  0  0  0
  -25.5140  -33.9850   24.1980 N   0  0  0  0  0  0  0  0  0  0  0  0
  -25.8070  -35.0330   23.4170 C   0  0  0  0  0  0  0  0  0  0  0  0
  -26.4240  -34.9240   22.3540 O   0  0  0  0  0  0  0  0  0  0  0  0
  -24.9600  -34.1430   25.0270 H   0  0  0  0  0  0  0  0  0  0  0  0
  -24.0520  -36.8150   23.1490 C   0  0  0  0  0  1  0  0  0  0  0  0
  -25.3400  -36.4240   23.8900 C   0  0  0  0  0  3  0  0  0  0  0  0
  -27.5090  -37.3340   24.5950 C   0  0  0  0  0  1  0  0  0  0  0  0
  -26.3590  -37.4800   23.7060 N   0  0  0  0  0  0  0  0  0  0  0  0
  -25.9560  -38.4000   23.8610 H   0  0  0  0  0  0  0  0  0  0  0  0
  -26.3440  -31.8100   25.1300 C   0  0  1  0  0  0  0  0  0  0  0  0
  -25.2660  -31.5660   26.2100 C   0  0  0  0  0  1  0  0  0  0  0  0
  -26.9270  -30.4340   24.7280 C   0  0  0  0  0  1  0  0  0  0  0  0
  -27.5020  -32.6050   25.7780 C   0  0  0  0  0  1  0  0  0  0  0  0
  1  6  1  0
  2  5  1  0
  2  1  2  0
  3  6  1  0
  3  7  1  0
  5  3  2  0
  6  4  1  0
  7  8  1  0
  9 22  1  0
 10 15  1  0
 11 12  1  0
 11 10  1  0
 13 12  1  0
 13 26  1  0
 13 14  1  0
 15  9  1  0
 15 14  1  0
 16  9  2  0
 18 21  1  0
 19 17  1  0
 20 18  1  0
 20 22  1  0
 21  7  1  0
 21 17  1  0
 22 19  1  0
 23 24  2  0
 24 43  1  0
 25 24  1  0
 25 28  1  0
 26 27  1  0
 26 23  1  0
 27 25  2  0
 28 29  1  0
 29 30  2  0
 31 34  1  0
 31 30  1  0
 32 31  2  0
 33 32  1  0
 33 28  2  0
 34 35  1  0
 35 40  2  0
 35 36  1  0
 36 37  2  0
 37 38  1  0
 38 42  1  0
 39 38  2  0
 40 39  1  0
 41 40  1  0
 43 44  1  0
 44 47  1  0
 44 46  1  0
 45 43  2  0
 48 23  1  0
 48 49  1  0
 50 48  1  0
 52 51  1  0
 53  1  1  0
 53 52  1  0
 53 51  1  0
 54  2  1  0
 54 55  1  0
 56 67  2  0
 57 55  1  0
 57 62  1  0
 58 66  1  0
 58 68  1  0
 59 65  1  0
 59 61  1  0
 60 66  1  0
 61 60  1  0
 62 61  2  0
 63 64  1  0
 63 57  2  0
 64 59  2  0
 65 58  1  0
 66 56  1  0
 68 70  2  0
 69 68  1  0
 71 69  1  0
 72 81  2  0
 72 77  1  0
 73 69  1  0
 73 77  1  0
 74 73  1  0
 75 76  1  0
 75 74  1  0
 76 72  1  0
 77 78  2  0
 78 79  1  0
 80 79  2  0
 81 80  1  0
 82 56  1  0
 82 83  1  0
 82 92  1  0
 83 86  1  0
 84 88  1  0
 84 83  1  0
 85 84  2  0
 88 87  1  0
 90 91  1  0
 90 88  1  0
 90 89  1  0
 92 95  1  1
 92 93  1  0
 94 92  1  0
M  ISO  4   9 100  22 100  54 101  55 101
M  END
>  <TORSDO>  (72) 
F 18

>  <SCORE>  (72) 
-13.960

>  <name>  (72) 
72

>  <ligand_id>  (72) 
72

>  <original_smiles>  (72) 
[H]c1c([H])c([H])c2c(c1[H])C([H])([H])C([H])([H])C([H])([H])C2([H])N([H])C(=O)C1([H])N(C(=O)C([H])(N([H])C(=O)C([H])(N([H])C([H])([H])[H])C([H])([H])[H])C(C([H])([H])[H])(C([H])([H])[H])C([H])([H])[H])C([H])([H])c2c([H])c(OC([H])([H])c3nc(N([H])C4([H])C([H])([H])C([H])([H])N(C(=O)N5C([H])([H])C([H])([H])C([H])([H])C([H])(n6nc(-c7c([H])c([H])c(Oc8c([H])c([H])c(F)c([H])c8F)c([H])c7[H])c(C(=O)N([H])[H])c6N([H])[H])C5([H])[H])C([H])([H])C4([H])[H])n(C([H])([H])[H])c3C3([H])C([H])([H])C3([H])[H])c([H])c([H])c2C1([H])[H]

>  <smiles>  (72) 
[H]c1c([H])c([H])c2c(c1[H])C([H])([H])C([H])([H])C([H])([H])C2([H])N([H])C(=O)C1([H])N(C(=O)C([H])(N([H])C(=O)C([H])(N([H])C([H])([H])[H])C([H])([H])[H])C(C([H])([H])[H])(C([H])([H])[H])C([H])([H])[H])C([H])([H])c2c([H])c(OC([H])([H])c3nc(N([H])C4([H])C([H])([H])C([H])([H])N(C(=O)N5C([H])([H])C([H])([H])C([H])([H])C([H])(n6nc(-c7c([H])c([H])c(Oc8c([H])c([H])c(F)c([H])c8F)c([H])c7[H])c(C(=O)N([H])[H])c6N([H])[H])C5([H])[H])C([H])([H])C4([H])[H])n(C([H])([H])[H])c3C3([H])C([H])([H])C3([H])[H])c([H])c([H])c2C1([H])[H]

$$$$
73:0:0
     RDKit          3D

 88 96  0  0  1  0  0  0  0  0999 V2000
  -30.4460  -15.5340   20.1310 C   0  0  0  0  0  0  0  0  0  0  0  0
  -30.5840  -12.9550   19.5480 C   0  0  0  0  0  2  0  0  0  0  0  0
  -29.7500  -12.4730   18.3310 C   0  0  0  0  0  2  0  0  0  0  0  0
  -28.3080  -12.1550   18.7540 C   0  0  0  0  0  2  0  0  0  0  0  0
  -27.7490  -13.2340   19.7160 C   0  0  0  0  0  3  0  0  0  0  0  0
  -28.7290  -13.6270   20.8430 C   0  0  0  0  0  2  0  0  0  0  0  0
  -29.9220  -14.1820   20.1760 N   0  0  0  0  0  0  0  0  0  0  0  0
  -31.6790  -15.4680   19.9570 O   0  0  0  0  0  0  0  0  0  0  0  0
  -29.9850  -17.9930   18.8640 C   0  0  0  0  0  2  0  0  0  0  0  0
  -29.3460  -19.7200   20.8090 C   0  0  0  0  0  2  0  0  0  0  0  0
  -29.2270  -17.9910   20.9740 C   0  0  0  0  0  3  0  0  0  0  0  0
  -29.0970  -19.4470   18.5420 C   0  0  0  0  0  3  0  0  0  0  0  0
  -27.8020  -17.6340   21.4390 C   0  0  0  0  0  1  0  0  0  0  0  0
  -27.8010  -19.0780   17.7920 C   0  0  0  0  0  1  0  0  0  0  0  0
  -29.7180  -16.8890   19.9500 N   0  0  0  0  0  0  0  0  0  0  0  0
  -28.7550  -20.5510   19.6140 N   0  0  2  0  0  4  0  0  0  0  0  0
  -27.7590  -20.4680   19.7530 H   0  0  0  0  0  0  0  0  0  0  0  0
  -25.3710  -13.7950   20.4000 C   0  0  0  0  0  0  0  0  0  0  0  0
  -24.3050  -13.0270   20.7720 C   0  0  0  0  0  0  0  0  0  0  0  0
  -24.7780  -11.6790   20.8070 C   0  0  0  0  0  0  0  0  0  0  0  0
  -26.4200  -12.9170   20.2110 N   0  0  0  0  0  0  0  0  0  0  0  0
  -26.0770  -11.6410   20.5260 N   0  0  0  0  0  0  0  0  0  0  0  0
  -24.0520  -10.4210   21.0290 C   0  0  0  0  0  0  0  0  0  0  0  0
  -24.4730   -9.4830   21.9970 C   0  0  0  0  0  3  0  0  0  0  0  0
  -23.7400   -8.2930   22.2050 C   0  0  0  0  0  3  0  0  0  0  0  0
  -22.5740   -8.0330   21.4450 C   0  0  0  0  0  0  0  0  0  0  0  0
  -22.1740   -8.9600   20.4680 C   0  0  0  0  0  3  0  0  0  0  0  0
  -22.9040  -10.1400   20.2590 C   0  0  0  0  0  3  0  0  0  0  0  0
  -21.8170   -6.8910   21.5620 O   0  0  0  0  0  0  0  0  0  0  0  0
  -21.7640   -6.1790   22.7330 C   0  0  0  0  0  0  0  0  0  0  0  0
  -21.3320   -6.7650   23.9430 C   0  0  0  0  0  3  0  0  0  0  0  0
  -21.2250   -5.9790   25.1080 C   0  0  0  0  0  3  0  0  0  0  0  0
  -21.5410   -4.6070   25.0640 C   0  0  0  0  0  0  0  0  0  0  0  0
  -21.9680   -4.0210   23.8590 C   0  0  0  0  0  3  0  0  0  0  0  0
  -22.0740   -4.8040   22.6960 C   0  0  0  0  0  0  0  0  0  0  0  0
  -22.4650   -4.2310   21.5330 F   0  0  0  0  0  0  0  0  0  0  0  0
  -21.4310   -3.8510   26.1810 F   0  0  0  0  0  0  0  0  0  0  0  0
  -22.9000  -13.5090   20.9820 C   0  0  0  0  0  0  0  0  0  0  0  0
  -22.1510  -12.8590   21.8660 N   0  0  0  0  0  0  0  0  0  0  0  0
  -22.4720  -14.5020   20.3940 O   0  0  0  0  0  0  0  0  0  0  0  0
  -22.5080  -12.0590   22.3680 H   0  0  0  0  0  0  0  0  0  0  0  0
  -21.2080  -13.1710   22.0470 H   0  0  0  0  0  0  0  0  0  0  0  0
  -25.5380  -15.1570   20.1750 N   0  0  0  0  0  0  0  0  0  0  0  0
  -24.7800  -15.8240   20.2550 H   0  0  0  0  0  0  0  0  0  0  0  0
  -26.4020  -15.5770   19.8580 H   0  0  0  0  0  0  0  0  0  0  0  0
  -28.9710  -22.2680   19.3860 C   0  0  0  0  0  3  0  0  0  0  0  0
  -27.9230  -23.8470   19.3810 C   0  0  0  0  0  3  0  0  0  0  0  0
  -28.1390  -25.5630   19.3530 O   0  0  0  0  0  0  0  0  0  0  0  0
  -24.8150  -31.5520   22.8520 C   0  0  0  0  0  0  0  0  0  0  0  0
  -27.1580  -26.7340   19.4310 C   0  0  0  0  0  0  0  0  0  0  0  0
  -23.5280  -30.2570   21.2030 C   0  0  0  0  0  3  0  0  0  0  0  0
  -24.8890  -28.7140   19.6110 C   0  0  0  0  0  0  0  0  0  0  0  0
  -26.0900  -30.4360   20.9340 C   0  0  0  0  0  2  0  0  0  0  0  0
  -26.1150  -29.0510   20.1950 C   0  0  0  0  0  0  0  0  0  0  0  0
  -27.2390  -28.0890   20.0770 C   0  0  0  0  0  3  0  0  0  0  0  0
  -25.8940  -26.5920   18.8040 C   0  0  0  0  0  3  0  0  0  0  0  0
  -24.8110  -27.5120   18.8900 C   0  0  0  0  0  3  0  0  0  0  0  0
  -23.6860  -29.6540   19.7780 C   0  0  0  0  0  2  0  0  0  0  0  0
  -24.8380  -30.7750   21.7170 N   0  0  0  0  0  0  0  0  0  0  0  0
  -23.7560  -31.8150   23.4460 O   0  0  0  0  0  0  0  0  0  0  0  0
  -22.8750  -29.2140   22.1490 C   0  0  0  0  0  0  0  0  0  0  0  0
  -21.5370  -29.0670   22.0980 N   0  0  0  0  0  0  0  0  0  0  0  0
  -23.5810  -28.5360   22.8990 O   0  0  0  0  0  0  0  0  0  0  0  0
  -21.0170  -29.6700   21.4760 H   0  0  0  0  0  0  0  0  0  0  0  0
  -18.1810  -27.8440   22.7490 C   0  0  0  0  0  0  0  0  0  0  0  0
  -20.7550  -28.0850   22.8580 C   0  0  0  0  0  3  0  0  0  0  0  0
  -20.8050  -26.6920   22.1860 C   0  0  0  0  0  2  0  0  0  0  0  0
  -19.6370  -26.4420   21.2260 C   0  0  0  0  0  2  0  0  0  0  0  0
  -18.3020  -26.5440   21.9680 C   0  0  0  0  0  2  0  0  0  0  0  0
  -19.3300  -28.5740   23.1510 C   0  0  0  0  0  0  0  0  0  0  0  0
  -19.1570  -29.7880   23.8490 C   0  0  0  0  0  3  0  0  0  0  0  0
  -17.8690  -30.2750   24.1410 C   0  0  0  0  0  3  0  0  0  0  0  0
  -16.7360  -29.5420   23.7500 C   0  0  0  0  0  3  0  0  0  0  0  0
  -16.8920  -28.3260   23.0590 C   0  0  0  0  0  3  0  0  0  0  0  0
  -26.1190  -32.1630   23.4510 C   0  0  0  0  0  3  0  0  0  0  0  0
  -25.8070  -33.5160   23.9460 N   0  0  0  0  0  0  0  0  0  0  0  0
  -26.0740  -34.6550   23.2930 C   0  0  0  0  0  0  0  0  0  0  0  0
  -26.6710  -34.6760   22.2140 O   0  0  0  0  0  0  0  0  0  0  0  0
  -25.2770  -33.5700   24.8030 H   0  0  0  0  0  0  0  0  0  0  0  0
  -24.3130  -36.4540   23.2620 C   0  0  0  0  0  1  0  0  0  0  0  0
  -25.6120  -35.9790   23.9350 C   0  0  0  0  0  3  0  0  0  0  0  0
  -27.7890  -36.8110   24.7100 C   0  0  0  0  0  1  0  0  0  0  0  0
  -26.6240  -37.0570   23.8640 N   0  0  0  0  0  0  0  0  0  0  0  0
  -26.2180  -37.9490   24.1360 H   0  0  0  0  0  0  0  0  0  0  0  0
  -26.7230  -31.2920   24.6220 C   0  0  1  0  0  0  0  0  0  0  0  0
  -25.7070  -30.9570   25.7400 C   0  0  0  0  0  1  0  0  0  0  0  0
  -27.2820  -29.9550   24.0860 C   0  0  0  0  0  1  0  0  0  0  0  0
  -27.9120  -32.0370   25.2720 C   0  0  0  0  0  1  0  0  0  0  0  0
  1  7  1  0
  2  7  1  0
  3  4  1  0
  3  2  1  0
  5  4  1  0
  5 21  1  0
  5  6  1  0
  7  6  1  0
  8  1  2  0
  9 15  1  0
 10 11  1  0
 11 13  1  0
 12 14  1  0
 12  9  1  0
 12 16  1  0
 15  1  1  0
 15 11  1  0
 16 17  1  1
 16 10  1  0
 18 19  2  0
 19 20  1  0
 19 38  1  0
 20 23  1  0
 21 18  1  0
 21 22  1  0
 22 20  2  0
 23 24  1  0
 24 25  2  0
 26 29  1  0
 26 25  1  0
 27 26  2  0
 28 27  1  0
 28 23  2  0
 29 30  1  0
 30 31  1  0
 31 32  2  0
 33 32  1  0
 33 37  1  0
 34 33  2  0
 35 30  2  0
 35 34  1  0
 36 35  1  0
 38 39  1  0
 39 42  1  0
 39 41  1  0
 40 38  2  0
 43 44  1  0
 43 18  1  0
 45 43  1  0
 46 16  1  0
 47 46  2  0
 48 47  1  0
 48 50  1  0
 49 60  2  0
 50 55  1  0
 51 59  1  0
 51 61  1  0
 52 58  1  0
 52 54  1  0
 53 59  1  0
 54 53  1  0
 55 54  2  0
 56 57  1  0
 56 50  2  0
 57 52  2  0
 58 51  1  0
 59 49  1  0
 61 63  2  0
 62 61  1  0
 64 62  1  0
 65 74  2  0
 65 70  1  0
 66 62  1  0
 66 70  1  0
 67 66  1  0
 68 69  1  0
 68 67  1  0
 69 65  1  0
 70 71  2  0
 71 72  1  0
 73 72  2  0
 74 73  1  0
 75 49  1  0
 75 76  1  0
 75 85  1  0
 76 79  1  0
 77 81  1  0
 77 76  1  0
 78 77  2  0
 81 80  1  0
 83 81  1  0
 83 84  1  0
 83 82  1  0
 85 88  1  1
 85 86  1  0
 87 85  1  0
M  ISO  4   1 100  15 100  47 101  48 101
M  END
>  <TORSDO>  (73) 
F 17

>  <SCORE>  (73) 
-13.145

>  <name>  (73) 
73

>  <ligand_id>  (73) 
73

>  <original_smiles>  (73) 
[H]c1c([H])c([H])c2c(c1[H])C([H])([H])C([H])([H])C([H])([H])C2([H])N([H])C(=O)C1([H])N(C(=O)C([H])(N([H])C(=O)C([H])(N([H])C([H])([H])[H])C([H])([H])[H])C(C([H])([H])[H])(C([H])([H])[H])C([H])([H])[H])C([H])([H])c2c([H])c(OC([H])([H])C([H])([H])[N+]3([H])C([H])([H])C([H])(C([H])([H])[H])N(C(=O)N4C([H])([H])C([H])([H])C([H])([H])C([H])(n5nc(-c6c([H])c([H])c(Oc7c([H])c([H])c(F)c([H])c7F)c([H])c6[H])c(C(=O)N([H])[H])c5N([H])[H])C4([H])[H])C([H])([H])C3([H])C([H])([H])[H])c([H])c([H])c2C1([H])[H]

>  <smiles>  (73) 
[H]c1c([H])c([H])c2c(c1[H])C([H])([H])C([H])([H])C([H])([H])C2([H])N([H])C(=O)C1([H])N(C(=O)C([H])(N([H])C(=O)C([H])(N([H])C([H])([H])[H])C([H])([H])[H])C(C([H])([H])[H])(C([H])([H])[H])C([H])([H])[H])C([H])([H])c2c([H])c(OC([H])([H])C([H])([H])[N+]3([H])C([H])([H])C([H])(C([H])([H])[H])N(C(=O)N4C([H])([H])C([H])([H])C([H])([H])C([H])(n5nc(-c6c([H])c([H])c(Oc7c([H])c([H])c(F)c([H])c7F)c([H])c6[H])c(C(=O)N([H])[H])c5N([H])[H])C4([H])[H])C([H])([H])C3([H])C([H])([H])[H])c([H])c([H])c2C1([H])[H]

$$$$
74:0:0
     RDKit          3D

 93102  0  0  1  0  0  0  0  0999 V2000
  -28.0330  -22.0800   18.2780 C   0  0  0  0  0  0  0  0  0  0  0  0
  -28.8990  -23.5590   19.7320 C   0  0  0  0  0  0  0  0  0  0  0  0
  -29.5120  -21.2850   19.7390 C   0  0  0  0  0  0  0  0  0  0  0  0
  -26.9770  -21.7670   17.2390 C   0  0  0  0  0  1  0  0  0  0  0  0
  -28.0890  -23.3450   18.6980 N   0  0  0  0  0  4  0  0  0  0  0  0
  -28.7180  -21.0250   18.7210 N   0  0  0  0  0  0  0  0  0  0  0  0
  -29.6310  -22.5280   20.3020 N   0  0  0  0  0  2  0  0  0  0  0  0
  -30.1780  -20.1280   20.3020 N   0  0  0  0  0  0  0  0  0  0  0  0
  -30.7090  -20.3700   21.1300 H   0  0  0  0  0  0  0  0  0  0  0  0
  -28.7260  -25.0110   20.4490 C   0  0  0  0  0  2  0  0  0  0  0  0
  -28.8120  -26.3870   19.7790 O   0  0  0  0  0  0  0  0  0  0  0  0
  -24.7010  -31.5900   22.9290 C   0  0  0  0  0  0  0  0  0  0  0  0
  -27.6760  -27.2460   19.7950 C   0  0  0  0  0  0  0  0  0  0  0  0
  -23.6330  -30.1670   21.2210 C   0  0  0  0  0  3  0  0  0  0  0  0
  -25.2180  -28.7510   19.7890 C   0  0  0  0  0  0  0  0  0  0  0  0
  -26.1580  -30.6450   21.1070 C   0  0  0  0  0  2  0  0  0  0  0  0
  -26.3470  -29.2890   20.4160 C   0  0  0  0  0  0  0  0  0  0  0  0
  -27.5840  -28.5520   20.4020 C   0  0  0  0  0  3  0  0  0  0  0  0
  -26.5170  -26.7850   19.1400 C   0  0  0  0  0  3  0  0  0  0  0  0
  -25.3080  -27.5080   19.1430 C   0  0  0  0  0  3  0  0  0  0  0  0
  -23.9280  -29.5490   19.8300 C   0  0  0  0  0  2  0  0  0  0  0  0
  -24.8480  -30.8200   21.8110 N   0  0  0  0  0  0  0  0  0  0  0  0
  -23.5900  -31.7750   23.4470 O   0  0  0  0  0  0  0  0  0  0  0  0
  -23.0190  -29.0810   22.1400 C   0  0  0  0  0  0  0  0  0  0  0  0
  -21.7000  -28.8480   22.0150 N   0  0  0  0  0  0  0  0  0  0  0  0
  -23.7290  -28.4510   22.9280 O   0  0  0  0  0  0  0  0  0  0  0  0
  -21.1810  -29.4070   21.3500 H   0  0  0  0  0  0  0  0  0  0  0  0
  -18.3790  -27.4950   22.5080 C   0  0  0  0  0  0  0  0  0  0  0  0
  -20.9310  -27.8420   22.7510 C   0  0  0  0  0  3  0  0  0  0  0  0
  -21.0750  -26.4450   22.1040 C   0  0  0  0  0  2  0  0  0  0  0  0
  -19.9690  -26.1330   21.0870 C   0  0  0  0  0  2  0  0  0  0  0  0
  -18.5970  -26.1880   21.7600 C   0  0  0  0  0  2  0  0  0  0  0  0
  -19.4760  -28.2770   22.9580 C   0  0  0  0  0  0  0  0  0  0  0  0
  -19.2220  -29.4960   23.6230 C   0  0  0  0  0  3  0  0  0  0  0  0
  -17.9040  -29.9320   23.8490 C   0  0  0  0  0  3  0  0  0  0  0  0
  -16.8220  -29.1460   23.4110 C   0  0  0  0  0  3  0  0  0  0  0  0
  -17.0580  -27.9280   22.7460 C   0  0  0  0  0  3  0  0  0  0  0  0
  -25.9200  -32.2970   23.5970 C   0  0  0  0  0  3  0  0  0  0  0  0
  -25.4860  -33.6400   24.0110 N   0  0  0  0  0  0  0  0  0  0  0  0
  -25.7190  -34.7650   23.3230 C   0  0  0  0  0  0  0  0  0  0  0  0
  -26.3950  -34.7860   22.2900 O   0  0  0  0  0  0  0  0  0  0  0  0
  -24.8790  -33.6900   24.8180 H   0  0  0  0  0  0  0  0  0  0  0  0
  -23.8390  -36.4200   23.0880 C   0  0  0  0  0  1  0  0  0  0  0  0
  -25.1170  -36.0750   23.8700 C   0  0  0  0  0  3  0  0  0  0  0  0
  -27.1700  -37.0950   24.7540 C   0  0  0  0  0  1  0  0  0  0  0  0
  -26.0520  -37.2220   23.8200 N   0  0  0  0  0  0  0  0  0  0  0  0
  -25.5670  -38.0920   24.0190 H   0  0  0  0  0  0  0  0  0  0  0  0
  -26.4970  -31.4980   24.8310 C   0  0  1  0  0  0  0  0  0  0  0  0
  -25.4290  -31.1150   25.8810 C   0  0  0  0  0  1  0  0  0  0  0  0
  -27.1900  -30.1970   24.3680 C   0  0  0  0  0  1  0  0  0  0  0  0
  -27.5790  -32.3460   25.5420 C   0  0  0  0  0  1  0  0  0  0  0  0
  -30.6040  -18.7540   19.7360 C   0  0  0  0  0  2  0  0  0  0  0  0
  -31.1440  -14.9390   19.7380 C   0  0  0  0  0  0  0  0  0  0  0  0
  -30.7960  -12.6770   18.6830 C   0  0  0  0  0  2  0  0  0  0  0  0
  -29.7530  -12.7480   17.5420 C   0  0  0  0  0  2  0  0  0  0  0  0
  -28.3250  -12.5890   18.1000 C   0  0  0  0  0  2  0  0  0  0  0  0
  -28.0770  -13.4940   19.3350 C   0  0  0  0  0  3  0  0  0  0  0  0
  -29.2160  -13.3750   20.3640 C   0  0  0  0  0  2  0  0  0  0  0  0
  -30.4770  -13.7230   19.6910 N   0  0  0  0  0  0  0  0  0  0  0  0
  -32.2050  -15.0590   19.1160 O   0  0  0  0  0  0  0  0  0  0  0  0
  -30.1910  -17.1920   22.5350 C   0  0  0  0  0  2  0  0  0  0  0  0
  -29.1330  -17.5600   21.5070 C   0  0  0  0  0  2  0  0  0  0  0  0
  -30.8600  -15.9600   21.9330 C   0  0  0  0  0  2  0  0  0  0  0  0
  -29.8650  -17.3450   20.1720 C   0  0  0  0  0  3  0  0  0  0  0  0
  -30.6210  -16.0120   20.4800 N   0  0  0  0  0  0  0  0  0  0  0  0
  -25.8320  -14.1550   20.3820 C   0  0  0  0  0  0  0  0  0  0  0  0
  -24.7600  -13.4110   20.8010 C   0  0  0  0  0  0  0  0  0  0  0  0
  -25.1280  -12.0440   20.6050 C   0  0  0  0  0  0  0  0  0  0  0  0
  -26.7770  -13.2420   19.9480 N   0  0  0  0  0  0  0  0  0  0  0  0
  -26.3730  -11.9630   20.1500 N   0  0  0  0  0  0  0  0  0  0  0  0
  -24.3460  -10.8110   20.7670 C   0  0  0  0  0  0  0  0  0  0  0  0
  -24.7530   -9.7850   21.6470 C   0  0  0  0  0  3  0  0  0  0  0  0
  -23.9700   -8.6200   21.7960 C   0  0  0  0  0  3  0  0  0  0  0  0
  -22.7670   -8.4720   21.0660 C   0  0  0  0  0  0  0  0  0  0  0  0
  -22.3780   -9.4880   20.1760 C   0  0  0  0  0  3  0  0  0  0  0  0
  -23.1590  -10.6440   20.0250 C   0  0  0  0  0  3  0  0  0  0  0  0
  -21.9580   -7.3630   21.1260 O   0  0  0  0  0  0  0  0  0  0  0  0
  -21.8220   -6.6330   22.2810 C   0  0  0  0  0  0  0  0  0  0  0  0
  -21.3880   -7.2250   23.4890 C   0  0  0  0  0  3  0  0  0  0  0  0
  -21.2010   -6.4270   24.6350 C   0  0  0  0  0  3  0  0  0  0  0  0
  -21.4340   -5.0390   24.5730 C   0  0  0  0  0  0  0  0  0  0  0  0
  -21.8530   -4.4470   23.3700 C   0  0  0  0  0  3  0  0  0  0  0  0
  -22.0470   -5.2410   22.2260 C   0  0  0  0  0  0  0  0  0  0  0  0
  -22.4350   -4.6660   21.0620 F   0  0  0  0  0  0  0  0  0  0  0  0
  -21.2460   -4.2720   25.6720 F   0  0  0  0  0  0  0  0  0  0  0  0
  -23.4350  -13.9390   21.2670 C   0  0  0  0  0  0  0  0  0  0  0  0
  -22.7770  -13.2220   22.1740 N   0  0  0  0  0  0  0  0  0  0  0  0
  -23.0010  -15.0160   20.8670 O   0  0  0  0  0  0  0  0  0  0  0  0
  -23.1410  -12.3420   22.5080 H   0  0  0  0  0  0  0  0  0  0  0  0
  -21.8920  -13.5530   22.5350 H   0  0  0  0  0  0  0  0  0  0  0  0
  -26.0760  -15.5220   20.3110 N   0  0  0  0  0  0  0  0  0  0  0  0
  -25.3830  -16.2180   20.5660 H   0  0  0  0  0  0  0  0  0  0  0  0
  -26.9350  -15.9250   19.9630 H   0  0  0  0  0  0  0  0  0  0  0  0
  1  5  2  0
  1  6  1  0
  2  7  1  0
  2 10  1  0
  3  7  1  0
  3  8  1  0
  4  1  1  0
  5  2  2  0
  6  3  2  0
  8  9  1  0
 11 13  1  0
 11 10  1  0
 12 23  2  0
 13 18  1  0
 14 22  1  0
 14 24  1  0
 15 21  1  0
 15 17  1  0
 16 22  1  0
 17 16  1  0
 18 17  2  0
 19 20  1  0
 19 13  2  0
 20 15  2  0
 21 14  1  0
 22 12  1  0
 24 26  2  0
 25 24  1  0
 27 25  1  0
 28 37  2  0
 28 33  1  0
 29 25  1  0
 29 33  1  0
 30 29  1  0
 31 32  1  0
 31 30  1  0
 32 28  1  0
 33 34  2  0
 34 35  1  0
 36 35  2  0
 37 36  1  0
 38 12  1  0
 38 39  1  0
 38 48  1  0
 39 42  1  0
 40 44  1  0
 40 39  1  0
 41 40  2  0
 44 43  1  0
 46 44  1  0
 46 47  1  0
 46 45  1  0
 48 51  1  1
 48 49  1  0
 50 48  1  0
 52  8  1  0
 53 65  1  0
 54 59  1  0
 55 56  1  0
 55 54  1  0
 57 56  1  0
 57 69  1  0
 57 58  1  0
 59 53  1  0
 59 58  1  0
 60 53  2  0
 62 61  1  0
 63 61  1  0
 64 52  1  0
 64 65  1  0
 64 62  1  0
 65 63  1  0
 66 67  2  0
 67 86  1  0
 68 71  1  0
 68 67  1  0
 69 70  1  0
 69 66  1  0
 70 68  2  0
 71 72  1  0
 72 73  2  0
 74 77  1  0
 74 73  1  0
 75 74  2  0
 76 75  1  0
 76 71  2  0
 77 78  1  0
 78 79  1  0
 79 80  2  0
 81 80  1  0
 81 85  1  0
 82 81  2  0
 83 78  2  0
 83 82  1  0
 84 83  1  0
 86 87  1  0
 87 89  1  0
 87 90  1  0
 88 86  2  0
 91 66  1  0
 91 92  1  0
 93 91  1  0
M  ISO  4  10 101  11 101  53 100  65 100
M  END
>  <TORSDO>  (74) 
F 18

>  <SCORE>  (74) 
-11.836

>  <name>  (74) 
74

>  <ligand_id>  (74) 
74

>  <original_smiles>  (74) 
[H]c1c([H])c([H])c2c(c1[H])C([H])([H])C([H])([H])C([H])([H])C2([H])N([H])C(=O)C1([H])N(C(=O)C([H])(N([H])C(=O)C([H])(N([H])C([H])([H])[H])C([H])([H])[H])C(C([H])([H])[H])(C([H])([H])[H])C([H])([H])[H])C([H])([H])c2c([H])c(OC([H])([H])c3nc(N([H])C([H])([H])C4([H])N(C(=O)N5C([H])([H])C([H])([H])C([H])([H])C([H])(n6nc(-c7c([H])c([H])c(Oc8c([H])c([H])c(F)c([H])c8F)c([H])c7[H])c(C(=O)N([H])[H])c6N([H])[H])C5([H])[H])C([H])([H])C([H])([H])C4([H])[H])nc(C([H])([H])[H])n3)c([H])c([H])c2C1([H])[H]

>  <smiles>  (74) 
[H]c1c([H])c([H])c2c(c1[H])C([H])([H])C([H])([H])C([H])([H])C2([H])N([H])C(=O)C1([H])N(C(=O)C([H])(N([H])C(=O)C([H])(N([H])C([H])([H])[H])C([H])([H])[H])C(C([H])([H])[H])(C([H])([H])[H])C([H])([H])[H])C([H])([H])c2c([H])c(OC([H])([H])c3nc(N([H])C([H])([H])C4([H])N(C(=O)N5C([H])([H])C([H])([H])C([H])([H])C([H])(n6nc(-c7c([H])c([H])c(Oc8c([H])c([H])c(F)c([H])c8F)c([H])c7[H])c(C(=O)N([H])[H])c6N([H])[H])C5([H])[H])C([H])([H])C([H])([H])C4([H])[H])nc(C([H])([H])[H])n3)c([H])c([H])c2C1([H])[H]

$$$$
75:0:0
     RDKit          3D

 92101  0  0  1  0  0  0  0  0999 V2000
  -28.2520  -22.3300   21.0590 C   0  0  0  0  0  2  0  0  0  0  0  0
  -29.8050  -21.0050   20.7050 C   0  0  0  0  0  0  0  0  0  0  0  0
  -28.4970  -21.0190   21.1130 N   0  0  0  0  0  0  0  0  0  0  0  0
  -30.3270  -22.2040   20.4210 N   0  0  0  0  0  2  0  0  0  0  0  0
  -29.2920  -23.0630   20.6450 N   0  0  0  0  0  0  0  0  0  0  0  0
  -30.6230  -19.7420   20.6300 C   0  0  0  0  0  2  0  0  0  0  0  0
  -30.6710  -14.5320   20.1270 C   0  0  0  0  0  0  0  0  0  0  0  0
  -30.3110  -12.4040   18.9510 C   0  0  0  0  0  2  0  0  0  0  0  0
  -29.3070  -12.6570   17.8060 C   0  0  0  0  0  2  0  0  0  0  0  0
  -27.8560  -12.5160   18.3070 C   0  0  0  0  0  2  0  0  0  0  0  0
  -27.5900  -13.3060   19.6190 C   0  0  0  0  0  3  0  0  0  0  0  0
  -28.7040  -13.0530   20.6600 C   0  0  0  0  0  2  0  0  0  0  0  0
  -29.9940  -13.3580   20.0230 N   0  0  0  0  0  0  0  0  0  0  0  0
  -31.8010  -14.7020   19.6590 O   0  0  0  0  0  0  0  0  0  0  0  0
  -29.9100  -16.1480   21.7950 C   0  0  0  0  0  2  0  0  0  0  0  0
  -29.6650  -16.6120   19.3680 C   0  0  0  0  0  2  0  0  0  0  0  0
  -30.5410  -17.5590   21.8410 C   0  0  0  0  0  2  0  0  0  0  0  0
  -29.0540  -17.9410   19.8760 C   0  0  0  0  0  2  0  0  0  0  0  0
  -29.9020  -15.6080   20.4290 N   0  0  0  0  0  0  0  0  0  0  0  0
  -29.8130  -18.5490   21.0020 N   0  0  2  0  0  4  0  0  0  0  0  0
  -29.1050  -18.9820   21.5840 H   0  0  0  0  0  0  0  0  0  0  0  0
  -25.2350  -13.8930   20.4760 C   0  0  0  0  0  0  0  0  0  0  0  0
  -24.1870  -13.1110   20.8800 C   0  0  0  0  0  0  0  0  0  0  0  0
  -24.6450  -11.7610   20.7860 C   0  0  0  0  0  0  0  0  0  0  0  0
  -26.2660  -13.0190   20.1630 N   0  0  0  0  0  0  0  0  0  0  0  0
  -25.9160  -11.7300   20.4070 N   0  0  0  0  0  0  0  0  0  0  0  0
  -23.9290  -10.4930   20.9770 C   0  0  0  0  0  0  0  0  0  0  0  0
  -24.3830   -9.5240   21.8980 C   0  0  0  0  0  3  0  0  0  0  0  0
  -23.6690   -8.3200   22.0800 C   0  0  0  0  0  3  0  0  0  0  0  0
  -22.4880   -8.0770   21.3400 C   0  0  0  0  0  0  0  0  0  0  0  0
  -22.0530   -9.0340   20.4060 C   0  0  0  0  0  3  0  0  0  0  0  0
  -22.7680  -10.2310   20.2230 C   0  0  0  0  0  3  0  0  0  0  0  0
  -21.7440   -6.9250   21.4310 O   0  0  0  0  0  0  0  0  0  0  0  0
  -21.6700   -6.2050   22.5960 C   0  0  0  0  0  0  0  0  0  0  0  0
  -21.2100   -6.7800   23.8000 C   0  0  0  0  0  3  0  0  0  0  0  0
  -21.0850   -5.9850   24.9580 C   0  0  0  0  0  3  0  0  0  0  0  0
  -21.4120   -4.6170   24.9100 C   0  0  0  0  0  0  0  0  0  0  0  0
  -21.8660   -4.0410   23.7110 C   0  0  0  0  0  3  0  0  0  0  0  0
  -21.9920   -4.8340   22.5560 C   0  0  0  0  0  0  0  0  0  0  0  0
  -22.4100   -4.2700   21.3980 F   0  0  0  0  0  0  0  0  0  0  0  0
  -21.2860   -3.8500   26.0190 F   0  0  0  0  0  0  0  0  0  0  0  0
  -22.8070  -13.5790   21.2390 C   0  0  0  0  0  0  0  0  0  0  0  0
  -22.1260  -12.8610   22.1260 N   0  0  0  0  0  0  0  0  0  0  0  0
  -22.3410  -14.6140   20.7660 O   0  0  0  0  0  0  0  0  0  0  0  0
  -22.5160  -12.0240   22.5330 H   0  0  0  0  0  0  0  0  0  0  0  0
  -21.2000  -13.1550   22.4010 H   0  0  0  0  0  0  0  0  0  0  0  0
  -25.3940  -15.2680   20.3300 N   0  0  0  0  0  0  0  0  0  0  0  0
  -24.6370  -15.9200   20.5030 H   0  0  0  0  0  0  0  0  0  0  0  0
  -26.2270  -15.7120   19.9690 H   0  0  0  0  0  0  0  0  0  0  0  0
  -29.4750  -24.5160   20.5390 C   0  0  0  0  0  2  0  0  0  0  0  0
  -28.1960  -25.2820   20.1270 C   0  0  0  0  0  2  0  0  0  0  0  0
  -28.3590  -26.7140   20.1670 O   0  0  0  0  0  0  0  0  0  0  0  0
  -24.5660  -31.9020   23.2540 C   0  0  0  0  0  0  0  0  0  0  0  0
  -27.1930  -27.4600   20.1460 C   0  0  0  0  0  0  0  0  0  0  0  0
  -23.3550  -30.5050   21.6130 C   0  0  0  0  0  3  0  0  0  0  0  0
  -24.8010  -28.9770   20.1740 C   0  0  0  0  0  0  0  0  0  0  0  0
  -25.8800  -30.8600   21.4110 C   0  0  0  0  0  2  0  0  0  0  0  0
  -25.9620  -29.4930   20.7640 C   0  0  0  0  0  0  0  0  0  0  0  0
  -27.1610  -28.7400   20.7470 C   0  0  0  0  0  3  0  0  0  0  0  0
  -26.0120  -26.9700   19.5380 C   0  0  0  0  0  3  0  0  0  0  0  0
  -24.8200  -27.7160   19.5590 C   0  0  0  0  0  3  0  0  0  0  0  0
  -23.5570  -29.8330   20.2290 C   0  0  0  0  0  2  0  0  0  0  0  0
  -24.6180  -31.1040   22.1520 N   0  0  0  0  0  0  0  0  0  0  0  0
  -23.4870  -32.1760   23.7990 O   0  0  0  0  0  0  0  0  0  0  0  0
  -22.7100  -29.4790   22.5720 C   0  0  0  0  0  0  0  0  0  0  0  0
  -21.3860  -29.2940   22.4460 N   0  0  0  0  0  0  0  0  0  0  0  0
  -23.3980  -28.8540   23.3840 O   0  0  0  0  0  0  0  0  0  0  0  0
  -20.8930  -29.8470   21.7580 H   0  0  0  0  0  0  0  0  0  0  0  0
  -18.0180  -28.0930   22.9530 C   0  0  0  0  0  0  0  0  0  0  0  0
  -20.5750  -28.3530   23.2170 C   0  0  0  0  0  3  0  0  0  0  0  0
  -20.6770  -26.9250   22.6340 C   0  0  0  0  0  2  0  0  0  0  0  0
  -19.5720  -26.6040   21.6230 C   0  0  0  0  0  2  0  0  0  0  0  0
  -18.1930  -26.7470   22.2720 C   0  0  0  0  0  2  0  0  0  0  0  0
  -19.1370  -28.8550   23.3820 C   0  0  0  0  0  0  0  0  0  0  0  0
  -18.9190  -30.1180   23.9770 C   0  0  0  0  0  3  0  0  0  0  0  0
  -17.6150  -30.6180   24.1470 C   0  0  0  0  0  3  0  0  0  0  0  0
  -16.5100  -29.8520   23.7350 C   0  0  0  0  0  3  0  0  0  0  0  0
  -16.7130  -28.5920   23.1450 C   0  0  0  0  0  3  0  0  0  0  0  0
  -25.8560  -32.5330   23.8690 C   0  0  0  0  0  3  0  0  0  0  0  0
  -26.3900  -31.7530   25.1330 C   0  0  1  0  0  0  0  0  0  0  0  0
  -25.3060  -31.5030   26.2080 C   0  0  0  0  0  1  0  0  0  0  0  0
  -26.9750  -30.3810   24.7230 C   0  0  0  0  0  1  0  0  0  0  0  0
  -27.5440  -32.5450   25.7900 C   0  0  0  0  0  1  0  0  0  0  0  0
  -25.5490  -33.9280   24.2100 N   0  0  0  0  0  0  0  0  0  0  0  0
  -25.8630  -34.9830   23.4460 C   0  0  0  0  0  0  0  0  0  0  0  0
  -26.5130  -34.8830   22.4000 O   0  0  0  0  0  0  0  0  0  0  0  0
  -24.9700  -34.0810   25.0230 H   0  0  0  0  0  0  0  0  0  0  0  0
  -24.1130  -36.7600   23.1330 C   0  0  0  0  0  1  0  0  0  0  0  0
  -25.3780  -36.3660   23.9140 C   0  0  0  0  0  3  0  0  0  0  0  0
  -27.5270  -37.2650   24.6920 C   0  0  0  0  0  1  0  0  0  0  0  0
  -26.4010  -37.4260   23.7750 N   0  0  0  0  0  0  0  0  0  0  0  0
  -25.9920  -38.3430   23.9320 H   0  0  0  0  0  0  0  0  0  0  0  0
  1  3  1  0
  2  3  2  0
  4  5  1  0
  4  2  1  0
  5  1  1  0
  6  2  1  0
  6 20  1  0
  7 19  1  0
  8 13  1  0
  9 10  1  0
  9  8  1  0
 11 10  1  0
 11 25  1  0
 11 12  1  0
 13  7  1  0
 13 12  1  0
 14  7  2  0
 15 17  1  0
 16 18  1  0
 16 19  1  0
 18 20  1  0
 19 15  1  0
 20 21  1  1
 20 17  1  0
 22 23  2  0
 23 42  1  0
 24 23  1  0
 24 27  1  0
 25 26  1  0
 25 22  1  0
 26 24  2  0
 27 28  1  0
 28 29  2  0
 30 33  1  0
 30 29  1  0
 31 30  2  0
 32 31  1  0
 32 27  2  0
 33 34  1  0
 34 35  1  0
 35 36  2  0
 37 36  1  0
 37 41  1  0
 38 37  2  0
 39 34  2  0
 39 38  1  0
 40 39  1  0
 42 43  1  0
 43 46  1  0
 43 45  1  0
 44 42  2  0
 47 22  1  0
 47 48  1  0
 49 47  1  0
 50  5  1  0
 51 52  1  0
 51 50  1  0
 53 64  2  0
 54 52  1  0
 54 59  1  0
 55 63  1  0
 55 65  1  0
 56 62  1  0
 56 58  1  0
 57 63  1  0
 58 57  1  0
 59 58  2  0
 60 61  1  0
 60 54  2  0
 61 56  2  0
 62 55  1  0
 63 53  1  0
 65 67  2  0
 66 65  1  0
 68 66  1  0
 69 78  2  0
 69 74  1  0
 70 66  1  0
 70 74  1  0
 71 70  1  0
 72 73  1  0
 72 71  1  0
 73 69  1  0
 74 75  2  0
 75 76  1  0
 77 76  2  0
 78 77  1  0
 79 53  1  0
 79 84  1  0
 79 80  1  0
 80 83  1  1
 80 81  1  0
 82 80  1  0
 84 87  1  0
 85 89  1  0
 85 84  1  0
 86 85  2  0
 89 88  1  0
 91 89  1  0
 91 92  1  0
 91 90  1  0
M  ISO  4   7 100  19 100  51 101  52 101
M  END
>  <TORSDO>  (75) 
F 19

>  <SCORE>  (75) 
-14.445

>  <name>  (75) 
75

>  <ligand_id>  (75) 
75

>  <original_smiles>  (75) 
[H]c1c([H])c([H])c2c(c1[H])C([H])([H])C([H])([H])C([H])([H])C2([H])N([H])C(=O)C1([H])N(C(=O)C([H])(N([H])C(=O)C([H])(N([H])C([H])([H])[H])C([H])([H])[H])C(C([H])([H])[H])(C([H])([H])[H])C([H])([H])[H])C([H])([H])c2c([H])c(OC([H])([H])C([H])([H])n3nc(C([H])([H])[N+]4([H])C([H])([H])C([H])([H])N(C(=O)N5C([H])([H])C([H])([H])C([H])([H])C([H])(n6nc(-c7c([H])c([H])c(Oc8c([H])c([H])c(F)c([H])c8F)c([H])c7[H])c(C(=O)N([H])[H])c6N([H])[H])C5([H])[H])C([H])([H])C4([H])[H])nc3[H])c([H])c([H])c2C1([H])[H]

>  <smiles>  (75) 
[H]c1c([H])c([H])c2c(c1[H])C([H])([H])C([H])([H])C([H])([H])C2([H])N([H])C(=O)C1([H])N(C(=O)C([H])(N([H])C(=O)C([H])(N([H])C([H])([H])[H])C([H])([H])[H])C(C([H])([H])[H])(C([H])([H])[H])C([H])([H])[H])C([H])([H])c2c([H])c(OC([H])([H])C([H])([H])n3nc(C([H])([H])[N+]4([H])C([H])([H])C([H])([H])N(C(=O)N5C([H])([H])C([H])([H])C([H])([H])C([H])(n6nc(-c7c([H])c([H])c(Oc8c([H])c([H])c(F)c([H])c8F)c([H])c7[H])c(C(=O)N([H])[H])c6N([H])[H])C5([H])[H])C([H])([H])C4([H])[H])nc3[H])c([H])c([H])c2C1([H])[H]

$$$$
76:0:0
     RDKit          3D

 94103  0  0  1  0  0  0  0  0999 V2000
  -30.1580  -21.8140   19.1000 C   0  0  0  0  0  0  0  0  0  0  0  0
  -30.8130  -20.6150   18.6830 C   0  0  0  0  0  0  0  0  0  0  0  0
  -29.1070  -21.7100   20.0450 C   0  0  0  0  0  0  0  0  0  0  0  0
  -29.6470  -19.2440   20.1460 C   0  0  0  0  0  0  0  0  0  0  0  0
  -30.5570  -19.3920   19.1990 N   0  0  0  0  0  0  0  0  0  0  0  0
  -28.9090  -20.3810   20.5620 N   0  0  0  0  0  0  0  0  0  0  0  0
  -31.5620  -21.0680   16.1980 C   0  0  0  0  0  2  0  0  0  0  0  0
  -31.7380  -19.5950   16.4470 C   0  0  0  0  0  2  0  0  0  0  0  0
  -31.8580  -20.5740   17.6000 C   0  0  0  0  0  3  0  0  0  0  0  0
  -31.8480  -23.5420   18.7960 C   0  0  0  0  0  1  0  0  0  0  0  0
  -30.4810  -23.0780   18.5700 N   0  0  0  0  0  0  0  0  0  0  0  0
  -29.7860  -23.8070   18.7210 H   0  0  0  0  0  0  0  0  0  0  0  0
  -28.1120  -23.0580   20.2310 C   0  0  0  0  0  2  0  0  0  0  0  0
  -28.4020  -24.6570   20.8090 C   0  0  0  0  0  2  0  0  0  0  0  0
  -28.3260  -26.1320   20.2310 O   0  0  0  0  0  0  0  0  0  0  0  0
  -24.6200  -31.8620   23.2290 C   0  0  0  0  0  0  0  0  0  0  0  0
  -27.2340  -27.0870   20.2860 C   0  0  0  0  0  0  0  0  0  0  0  0
  -23.4410  -30.4500   21.5900 C   0  0  0  0  0  3  0  0  0  0  0  0
  -24.9050  -28.8500   20.2040 C   0  0  0  0  0  0  0  0  0  0  0  0
  -25.9980  -30.7110   21.4470 C   0  0  0  0  0  2  0  0  0  0  0  0
  -26.0790  -29.3040   20.8160 C   0  0  0  0  0  0  0  0  0  0  0  0
  -27.2470  -28.4430   20.8260 C   0  0  0  0  0  3  0  0  0  0  0  0
  -26.0280  -26.7360   19.6460 C   0  0  0  0  0  3  0  0  0  0  0  0
  -24.8940  -27.5810   19.6020 C   0  0  0  0  0  3  0  0  0  0  0  0
  -23.6790  -29.7540   20.2220 C   0  0  0  0  0  2  0  0  0  0  0  0
  -24.7060  -31.0320   22.1430 N   0  0  0  0  0  0  0  0  0  0  0  0
  -23.5280  -32.1470   23.7440 O   0  0  0  0  0  0  0  0  0  0  0  0
  -22.7520  -29.4540   22.5570 C   0  0  0  0  0  0  0  0  0  0  0  0
  -21.4240  -29.2840   22.4220 N   0  0  0  0  0  0  0  0  0  0  0  0
  -23.4170  -28.8340   23.3900 O   0  0  0  0  0  0  0  0  0  0  0  0
  -20.9440  -29.8340   21.7240 H   0  0  0  0  0  0  0  0  0  0  0  0
  -18.0380  -28.0900   22.9190 C   0  0  0  0  0  0  0  0  0  0  0  0
  -20.5970  -28.3510   23.1940 C   0  0  0  0  0  3  0  0  0  0  0  0
  -20.6990  -26.9160   22.6250 C   0  0  0  0  0  2  0  0  0  0  0  0
  -19.6000  -26.5910   21.6080 C   0  0  0  0  0  2  0  0  0  0  0  0
  -18.2170  -26.7390   22.2460 C   0  0  0  0  0  2  0  0  0  0  0  0
  -19.1570  -28.8530   23.3500 C   0  0  0  0  0  0  0  0  0  0  0  0
  -18.9350  -30.1160   23.9420 C   0  0  0  0  0  3  0  0  0  0  0  0
  -17.6300  -30.6150   24.1050 C   0  0  0  0  0  3  0  0  0  0  0  0
  -16.5270  -29.8500   23.6890 C   0  0  0  0  0  3  0  0  0  0  0  0
  -16.7320  -28.5880   23.1020 C   0  0  0  0  0  3  0  0  0  0  0  0
  -25.8890  -32.5090   23.8650 C   0  0  0  0  0  3  0  0  0  0  0  0
  -25.5720  -33.9130   24.1700 N   0  0  0  0  0  0  0  0  0  0  0  0
  -25.9150  -34.9600   23.4070 C   0  0  0  0  0  0  0  0  0  0  0  0
  -26.5960  -34.8440   22.3850 O   0  0  0  0  0  0  0  0  0  0  0  0
  -24.9690  -34.0770   24.9630 H   0  0  0  0  0  0  0  0  0  0  0  0
  -24.1980  -36.7580   23.0170 C   0  0  0  0  0  1  0  0  0  0  0  0
  -25.4280  -36.3550   23.8460 C   0  0  0  0  0  3  0  0  0  0  0  0
  -27.5520  -37.2460   24.6960 C   0  0  0  0  0  1  0  0  0  0  0  0
  -26.4640  -37.4050   23.7350 N   0  0  0  0  0  0  0  0  0  0  0  0
  -26.0580  -38.3270   23.8650 H   0  0  0  0  0  0  0  0  0  0  0  0
  -26.3780  -31.7630   25.1690 C   0  0  1  0  0  0  0  0  0  0  0  0
  -25.2630  -31.5500   26.2200 C   0  0  0  0  0  1  0  0  0  0  0  0
  -26.9640  -30.3750   24.8210 C   0  0  0  0  0  1  0  0  0  0  0  0
  -27.5180  -32.5670   25.8350 C   0  0  0  0  0  1  0  0  0  0  0  0
  -29.7540  -17.7470   20.8870 C   0  0  0  0  0  2  0  0  0  0  0  0
  -30.4510  -15.0630   20.2520 C   0  0  0  0  0  0  0  0  0  0  0  0
  -30.3710  -12.6990   19.2710 C   0  0  0  0  0  2  0  0  0  0  0  0
  -29.4110  -12.6000   18.0610 C   0  0  0  0  0  2  0  0  0  0  0  0
  -27.9610  -12.3650   18.5280 C   0  0  0  0  0  2  0  0  0  0  0  0
  -27.5600  -13.2950   19.7010 C   0  0  0  0  0  3  0  0  0  0  0  0
  -28.6350  -13.3330   20.8030 C   0  0  0  0  0  2  0  0  0  0  0  0
  -29.8720  -13.7900   20.1580 N   0  0  0  0  0  0  0  0  0  0  0  0
  -31.6720  -15.1210   20.0710 O   0  0  0  0  0  0  0  0  0  0  0  0
  -29.6350  -16.2420   20.3380 N   0  0  0  0  0  0  0  0  0  0  0  0
  -28.6630  -16.0060   20.2230 H   0  0  0  0  0  0  0  0  0  0  0  0
  -25.1920  -13.8630   20.4810 C   0  0  0  0  0  0  0  0  0  0  0  0
  -24.1370  -13.0840   20.8660 C   0  0  0  0  0  0  0  0  0  0  0  0
  -24.6090  -11.7350   20.8310 C   0  0  0  0  0  0  0  0  0  0  0  0
  -26.2350  -12.9890   20.2260 N   0  0  0  0  0  0  0  0  0  0  0  0
  -25.8950  -11.7040   20.5060 N   0  0  0  0  0  0  0  0  0  0  0  0
  -23.8890  -10.4700   21.0300 C   0  0  0  0  0  0  0  0  0  0  0  0
  -24.3270   -9.5110   21.9690 C   0  0  0  0  0  3  0  0  0  0  0  0
  -23.6050   -8.3120   22.1560 C   0  0  0  0  0  3  0  0  0  0  0  0
  -22.4340   -8.0630   21.4030 C   0  0  0  0  0  0  0  0  0  0  0  0
  -22.0150   -9.0110   20.4530 C   0  0  0  0  0  3  0  0  0  0  0  0
  -22.7370  -10.2020   20.2640 C   0  0  0  0  0  3  0  0  0  0  0  0
  -21.6840   -6.9160   21.4990 O   0  0  0  0  0  0  0  0  0  0  0  0
  -21.6330   -6.1840   22.6590 C   0  0  0  0  0  0  0  0  0  0  0  0
  -21.1800   -6.7440   23.8730 C   0  0  0  0  0  3  0  0  0  0  0  0
  -21.0780   -5.9390   25.0250 C   0  0  0  0  0  3  0  0  0  0  0  0
  -21.4200   -4.5750   24.9640 C   0  0  0  0  0  0  0  0  0  0  0  0
  -21.8670   -4.0150   23.7540 C   0  0  0  0  0  3  0  0  0  0  0  0
  -21.9700   -4.8170   22.6040 C   0  0  0  0  0  0  0  0  0  0  0  0
  -22.3810   -4.2680   21.4360 F   0  0  0  0  0  0  0  0  0  0  0  0
  -21.3150   -3.7980   26.0670 F   0  0  0  0  0  0  0  0  0  0  0  0
  -22.7410  -13.5550   21.1480 C   0  0  0  0  0  0  0  0  0  0  0  0
  -22.0220  -12.8550   22.0160 N   0  0  0  0  0  0  0  0  0  0  0  0
  -22.2960  -14.5810   20.6330 O   0  0  0  0  0  0  0  0  0  0  0  0
  -22.3940  -12.0250   22.4540 H   0  0  0  0  0  0  0  0  0  0  0  0
  -21.0840  -13.1530   22.2490 H   0  0  0  0  0  0  0  0  0  0  0  0
  -25.3450  -15.2340   20.2970 N   0  0  0  0  0  0  0  0  0  0  0  0
  -24.5690  -15.8770   20.4060 H   0  0  0  0  0  0  0  0  0  0  0  0
  -26.1690  -15.6750   19.9130 H   0  0  0  0  0  0  0  0  0  0  0  0
  1  3  1  0
  2  1  2  0
  2  5  1  0
  3 13  1  0
  3  6  2  0
  4  6  1  0
  4 56  1  0
  5  4  2  0
  7  8  1  0
  7  9  1  0
  8  9  1  0
  9  2  1  0
 11 12  1  0
 11 10  1  0
 11  1  1  0
 13 14  1  0
 15 17  1  0
 15 14  1  0
 16 27  2  0
 17 22  1  0
 18 26  1  0
 18 28  1  0
 19 25  1  0
 19 21  1  0
 20 26  1  0
 21 22  2  0
 21 20  1  0
 23 17  2  0
 24 23  1  0
 24 19  2  0
 25 18  1  0
 26 16  1  0
 28 30  2  0
 29 28  1  0
 31 29  1  0
 32 41  2  0
 32 37  1  0
 33 29  1  0
 33 37  1  0
 34 33  1  0
 35 36  1  0
 35 34  1  0
 36 32  1  0
 37 38  2  0
 38 39  1  0
 40 39  2  0
 41 40  1  0
 42 16  1  0
 42 43  1  0
 42 52  1  0
 43 46  1  0
 44 48  1  0
 44 43  1  0
 45 44  2  0
 48 47  1  0
 50 48  1  0
 50 51  1  0
 50 49  1  0
 52 55  1  1
 52 53  1  0
 54 52  1  0
 57 65  1  0
 58 63  1  0
 59 60  1  0
 59 58  1  0
 61 60  1  0
 61 70  1  0
 61 62  1  0
 63 57  1  0
 63 62  1  0
 64 57  2  0
 65 56  1  0
 66 65  1  0
 67 68  2  0
 68 87  1  0
 69 68  1  0
 69 72  1  0
 70 67  1  0
 70 71  1  0
 71 69  2  0
 72 73  1  0
 73 74  2  0
 75 78  1  0
 75 74  1  0
 76 75  2  0
 77 76  1  0
 77 72  2  0
 78 79  1  0
 79 80  1  0
 80 81  2  0
 82 81  1  0
 82 86  1  0
 83 82  2  0
 84 79  2  0
 84 83  1  0
 85 84  1  0
 87 88  1  0
 88 91  1  0
 88 90  1  0
 89 87  2  0
 92 93  1  0
 92 67  1  0
 94 92  1  0
M  ISO  4  14 101  15 101  57 100  65 100
M  END
>  <TORSDO>  (76) 
F 21

>  <SCORE>  (76) 
-14.256

>  <name>  (76) 
76

>  <ligand_id>  (76) 
76

>  <original_smiles>  (76) 
[H]c1c([H])c([H])c2c(c1[H])C([H])([H])C([H])([H])C([H])([H])C2([H])N([H])C(=O)C1([H])N(C(=O)C([H])(N([H])C(=O)C([H])(N([H])C([H])([H])[H])C([H])([H])[H])C(C([H])([H])[H])(C([H])([H])[H])C([H])([H])[H])C([H])([H])c2c([H])c(OC([H])([H])C([H])([H])c3nc(C([H])([H])N([H])C(=O)N4C([H])([H])C([H])([H])C([H])([H])C([H])(n5nc(-c6c([H])c([H])c(Oc7c([H])c([H])c(F)c([H])c7F)c([H])c6[H])c(C(=O)N([H])[H])c5N([H])[H])C4([H])[H])nc(C4([H])C([H])([H])C4([H])[H])c3N([H])C([H])([H])[H])c([H])c([H])c2C1([H])[H]

>  <smiles>  (76) 
[H]c1c([H])c([H])c2c(c1[H])C([H])([H])C([H])([H])C([H])([H])C2([H])N([H])C(=O)C1([H])N(C(=O)C([H])(N([H])C(=O)C([H])(N([H])C([H])([H])[H])C([H])([H])[H])C(C([H])([H])[H])(C([H])([H])[H])C([H])([H])[H])C([H])([H])c2c([H])c(OC([H])([H])C([H])([H])c3nc(C([H])([H])N([H])C(=O)N4C([H])([H])C([H])([H])C([H])([H])C([H])(n5nc(-c6c([H])c([H])c(Oc7c([H])c([H])c(F)c([H])c7F)c([H])c6[H])c(C(=O)N([H])[H])c5N([H])[H])C4([H])[H])nc(C4([H])C([H])([H])C4([H])[H])c3N([H])C([H])([H])[H])c([H])c([H])c2C1([H])[H]

$$$$
77:0:0
     RDKit          3D

 89 97  0  0  1  0  0  0  0  0999 V2000
  -30.4870  -15.2510   20.3040 C   0  0  0  0  0  0  0  0  0  0  0  0
  -30.5000  -12.7540   19.6250 C   0  0  0  0  0  2  0  0  0  0  0  0
  -29.6240  -12.4940   18.3730 C   0  0  0  0  0  2  0  0  0  0  0  0
  -28.1530  -12.2720   18.7680 C   0  0  0  0  0  2  0  0  0  0  0  0
  -27.6710  -13.3120   19.8100 C   0  0  0  0  0  3  0  0  0  0  0  0
  -28.6750  -13.5050   20.9670 C   0  0  0  0  0  2  0  0  0  0  0  0
  -29.9440  -13.9430   20.3620 N   0  0  0  0  0  0  0  0  0  0  0  0
  -31.7060  -15.2700   20.0700 O   0  0  0  0  0  0  0  0  0  0  0  0
  -28.4910  -18.8580   20.5970 C   0  0  0  0  0  3  0  0  0  0  0  0
  -28.3090  -20.3230   20.4600 C   0  0  0  0  0  0  0  0  0  0  0  0
  -29.2440  -21.2230   19.8110 C   0  0  0  0  0  0  0  0  0  0  0  0
  -30.3410  -20.3450   19.3780 C   0  0  0  0  0  0  0  0  0  0  0  0
  -29.6200  -18.0520   20.1540 C   0  0  0  0  0  0  0  0  0  0  0  0
  -27.0730  -20.9440   21.0780 C   0  0  0  0  0  1  0  0  0  0  0  0
  -31.5260  -20.9850   18.6830 C   0  0  0  0  0  1  0  0  0  0  0  0
  -30.5020  -18.9340   19.5340 N   0  0  0  0  0  0  0  0  0  0  0  0
  -29.6510  -16.4600   20.3680 N   0  0  0  0  0  0  0  0  0  0  0  0
  -28.7330  -16.1480   20.6400 H   0  0  0  0  0  0  0  0  0  0  0  0
  -25.2900  -13.9490   20.4750 C   0  0  0  0  0  0  0  0  0  0  0  0
  -24.2000  -13.2060   20.8320 C   0  0  0  0  0  0  0  0  0  0  0  0
  -24.6340  -11.8440   20.8440 C   0  0  0  0  0  0  0  0  0  0  0  0
  -26.3190  -13.0430   20.2830 N   0  0  0  0  0  0  0  0  0  0  0  0
  -25.9340  -11.7730   20.5720 N   0  0  0  0  0  0  0  0  0  0  0  0
  -23.8710  -10.6040   21.0390 C   0  0  0  0  0  0  0  0  0  0  0  0
  -24.2750   -9.6290   21.9760 C   0  0  0  0  0  3  0  0  0  0  0  0
  -23.5120   -8.4540   22.1610 C   0  0  0  0  0  3  0  0  0  0  0  0
  -22.3330   -8.2480   21.4090 C   0  0  0  0  0  0  0  0  0  0  0  0
  -21.9470   -9.2130   20.4610 C   0  0  0  0  0  3  0  0  0  0  0  0
  -22.7090  -10.3780   20.2730 C   0  0  0  0  0  3  0  0  0  0  0  0
  -21.5440   -7.1270   21.5030 O   0  0  0  0  0  0  0  0  0  0  0  0
  -21.5010   -6.3710   22.6460 C   0  0  0  0  0  0  0  0  0  0  0  0
  -21.1490   -6.9280   23.8940 C   0  0  0  0  0  3  0  0  0  0  0  0
  -21.0490   -6.1020   25.0320 C   0  0  0  0  0  3  0  0  0  0  0  0
  -21.2900   -4.7190   24.9210 C   0  0  0  0  0  0  0  0  0  0  0  0
  -21.6350   -4.1620   23.6780 C   0  0  0  0  0  3  0  0  0  0  0  0
  -21.7370   -4.9850   22.5430 C   0  0  0  0  0  0  0  0  0  0  0  0
  -22.0480   -4.4390   21.3430 F   0  0  0  0  0  0  0  0  0  0  0  0
  -21.1870   -3.9240   26.0120 F   0  0  0  0  0  0  0  0  0  0  0  0
  -22.8070  -13.7210   21.0480 C   0  0  0  0  0  0  0  0  0  0  0  0
  -22.0390  -13.0690   21.9130 N   0  0  0  0  0  0  0  0  0  0  0  0
  -22.4100  -14.7400   20.4850 O   0  0  0  0  0  0  0  0  0  0  0  0
  -22.3760  -12.2460   22.3910 H   0  0  0  0  0  0  0  0  0  0  0  0
  -21.1030  -13.3960   22.1000 H   0  0  0  0  0  0  0  0  0  0  0  0
  -25.4870  -15.3110   20.2690 N   0  0  0  0  0  0  0  0  0  0  0  0
  -24.7180  -15.9710   20.3200 H   0  0  0  0  0  0  0  0  0  0  0  0
  -26.3260  -15.7170   19.8770 H   0  0  0  0  0  0  0  0  0  0  0  0
  -29.2670  -22.9720   19.7810 C   0  0  0  0  0  3  0  0  0  0  0  0
  -28.1570  -24.3300   19.4890 C   0  0  0  0  0  3  0  0  0  0  0  0
  -28.3610  -25.9460   19.6300 O   0  0  0  0  0  0  0  0  0  0  0  0
  -24.7280  -31.5960   22.9970 C   0  0  0  0  0  0  0  0  0  0  0  0
  -27.3150  -26.9960   19.6430 C   0  0  0  0  0  0  0  0  0  0  0  0
  -23.5300  -30.2900   21.2880 C   0  0  0  0  0  3  0  0  0  0  0  0
  -24.9810  -28.8070   19.7450 C   0  0  0  0  0  0  0  0  0  0  0  0
  -26.0870  -30.5610   21.1170 C   0  0  0  0  0  2  0  0  0  0  0  0
  -26.1690  -29.2020   20.3710 C   0  0  0  0  0  0  0  0  0  0  0  0
  -27.3320  -28.3190   20.2950 C   0  0  0  0  0  3  0  0  0  0  0  0
  -26.0930  -26.7410   18.9830 C   0  0  0  0  0  3  0  0  0  0  0  0
  -24.9640  -27.5980   19.0310 C   0  0  0  0  0  3  0  0  0  0  0  0
  -23.7480  -29.7000   19.8670 C   0  0  0  0  0  2  0  0  0  0  0  0
  -24.8030  -30.8380   21.8560 N   0  0  0  0  0  0  0  0  0  0  0  0
  -23.6440  -31.8340   23.5530 O   0  0  0  0  0  0  0  0  0  0  0  0
  -22.8650  -29.2220   22.1950 C   0  0  0  0  0  0  0  0  0  0  0  0
  -21.5320  -29.0640   22.0950 N   0  0  0  0  0  0  0  0  0  0  0  0
  -23.5530  -28.5400   22.9570 O   0  0  0  0  0  0  0  0  0  0  0  0
  -21.0290  -29.6680   21.4590 H   0  0  0  0  0  0  0  0  0  0  0  0
  -18.1640  -27.8240   22.6120 C   0  0  0  0  0  0  0  0  0  0  0  0
  -20.7310  -28.0700   22.8160 C   0  0  0  0  0  3  0  0  0  0  0  0
  -20.8130  -26.6860   22.1320 C   0  0  0  0  0  2  0  0  0  0  0  0
  -19.6800  -26.4410   21.1300 C   0  0  0  0  0  2  0  0  0  0  0  0
  -18.3180  -26.5320   21.8260 C   0  0  0  0  0  2  0  0  0  0  0  0
  -19.2960  -28.5540   23.0620 C   0  0  0  0  0  0  0  0  0  0  0  0
  -19.0950  -29.7630   23.7630 C   0  0  0  0  0  3  0  0  0  0  0  0
  -17.7960  -30.2430   24.0140 C   0  0  0  0  0  3  0  0  0  0  0  0
  -16.6790  -29.5100   23.5760 C   0  0  0  0  0  3  0  0  0  0  0  0
  -16.8640  -28.3020   22.8810 C   0  0  0  0  0  3  0  0  0  0  0  0
  -26.0020  -32.2130   23.6520 C   0  0  0  0  0  3  0  0  0  0  0  0
  -25.6550  -33.5630   24.1280 N   0  0  0  0  0  0  0  0  0  0  0  0
  -25.9280  -34.7010   23.4760 C   0  0  0  0  0  0  0  0  0  0  0  0
  -26.5610  -34.7240   22.4180 O   0  0  0  0  0  0  0  0  0  0  0  0
  -25.0830  -33.6140   24.9590 H   0  0  0  0  0  0  0  0  0  0  0  0
  -24.1280  -36.4600   23.3880 C   0  0  0  0  0  1  0  0  0  0  0  0
  -25.4220  -36.0200   24.0930 C   0  0  0  0  0  3  0  0  0  0  0  0
  -27.5690  -36.9000   24.9010 C   0  0  0  0  0  1  0  0  0  0  0  0
  -26.4130  -37.1180   24.0350 N   0  0  0  0  0  0  0  0  0  0  0  0
  -25.9850  -38.0030   24.2950 H   0  0  0  0  0  0  0  0  0  0  0  0
  -26.5670  -31.3450   24.8440 C   0  0  1  0  0  0  0  0  0  0  0  0
  -25.5070  -30.9910   25.9140 C   0  0  0  0  0  1  0  0  0  0  0  0
  -27.1670  -30.0170   24.3260 C   0  0  0  0  0  1  0  0  0  0  0  0
  -27.7170  -32.1060   25.5450 C   0  0  0  0  0  1  0  0  0  0  0  0
  1  7  1  0
  1 17  1  0
  2  7  1  0
  3  4  1  0
  3  2  1  0
  5  4  1  0
  5 22  1  0
  5  6  1  0
  7  6  1  0
  8  1  2  0
 10  9  1  0
 10 14  1  0
 11 10  2  0
 12 16  2  0
 12 11  1  0
 13 17  1  0
 13  9  2  0
 15 12  1  0
 16 13  1  0
 17 18  1  0
 19 20  2  0
 20 21  1  0
 20 39  1  0
 21 24  1  0
 22 19  1  0
 22 23  1  0
 23 21  2  0
 24 25  1  0
 25 26  2  0
 27 30  1  0
 27 26  1  0
 28 27  2  0
 29 28  1  0
 29 24  2  0
 30 31  1  0
 31 32  1  0
 32 33  2  0
 34 33  1  0
 34 38  1  0
 35 34  2  0
 36 31  2  0
 36 35  1  0
 37 36  1  0
 39 40  1  0
 40 43  1  0
 40 42  1  0
 41 39  2  0
 44 45  1  0
 44 19  1  0
 46 44  1  0
 47 11  1  0
 48 49  1  0
 48 47  2  0
 49 51  1  0
 50 61  2  0
 51 56  1  0
 52 60  1  0
 52 62  1  0
 53 59  1  0
 53 55  1  0
 54 60  1  0
 55 54  1  0
 56 55  2  0
 57 58  1  0
 57 51  2  0
 58 53  2  0
 59 52  1  0
 60 50  1  0
 62 64  2  0
 63 62  1  0
 65 63  1  0
 66 75  2  0
 66 71  1  0
 67 63  1  0
 67 71  1  0
 68 67  1  0
 69 70  1  0
 69 68  1  0
 70 66  1  0
 71 72  2  0
 72 73  1  0
 74 73  2  0
 75 74  1  0
 76 50  1  0
 76 77  1  0
 76 86  1  0
 77 80  1  0
 78 82  1  0
 78 77  1  0
 79 78  2  0
 82 81  1  0
 84 82  1  0
 84 85  1  0
 84 83  1  0
 86 89  1  1
 86 87  1  0
 88 86  1  0
M  ISO  4   1 100  17 100  48 101  49 101
M  END
>  <TORSDO>  (77) 
F 17

>  <SCORE>  (77) 
-13.688

>  <name>  (77) 
77

>  <ligand_id>  (77) 
77

>  <original_smiles>  (77) 
[H]c1c([H])c([H])c2c(c1[H])C([H])([H])C([H])([H])C([H])([H])C2([H])N([H])C(=O)C1([H])N(C(=O)C([H])(N([H])C(=O)C([H])(N([H])C([H])([H])[H])C([H])([H])[H])C(C([H])([H])[H])(C([H])([H])[H])C([H])([H])[H])C([H])([H])c2c([H])c(OC([H])([H])C([H])([H])c3c(C([H])([H])[H])nc(N([H])C(=O)N4C([H])([H])C([H])([H])C([H])([H])C([H])(n5nc(-c6c([H])c([H])c(Oc7c([H])c([H])c(F)c([H])c7F)c([H])c6[H])c(C(=O)N([H])[H])c5N([H])[H])C4([H])[H])c([H])c3C([H])([H])[H])c([H])c([H])c2C1([H])[H]

>  <smiles>  (77) 
[H]c1c([H])c([H])c2c(c1[H])C([H])([H])C([H])([H])C([H])([H])C2([H])N([H])C(=O)C1([H])N(C(=O)C([H])(N([H])C(=O)C([H])(N([H])C([H])([H])[H])C([H])([H])[H])C(C([H])([H])[H])(C([H])([H])[H])C([H])([H])[H])C([H])([H])c2c([H])c(OC([H])([H])C([H])([H])c3c(C([H])([H])[H])nc(N([H])C(=O)N4C([H])([H])C([H])([H])C([H])([H])C([H])(n5nc(-c6c([H])c([H])c(Oc7c([H])c([H])c(F)c([H])c7F)c([H])c6[H])c(C(=O)N([H])[H])c5N([H])[H])C4([H])[H])c([H])c3C([H])([H])[H])c([H])c([H])c2C1([H])[H]

$$$$
78:0:0
     RDKit          3D

 88 97  0  0  1  0  0  0  0  0999 V2000
  -28.9450  -21.9070   18.6460 C   0  0  0  0  0  3  0  0  0  0  0  0
  -29.0170  -22.4990   19.9770 C   0  0  0  0  0  0  0  0  0  0  0  0
  -29.4940  -21.1940   20.5200 C   0  0  0  0  0  0  0  0  0  0  0  0
  -29.9730  -20.5630   21.8050 C   0  0  0  0  0  2  0  0  0  0  0  0
  -30.3270  -19.0040   21.5810 C   0  0  0  0  0  2  0  0  0  0  0  0
  -30.3570  -18.5780   20.0650 C   0  0  0  0  0  3  0  0  0  0  0  0
  -29.2950  -20.5750   18.4560 N   0  0  0  0  0  0  0  0  0  0  0  0
  -29.6130  -20.0160   19.6580 N   0  0  0  0  0  0  0  0  0  0  0  0
  -30.8000  -15.5640   19.7990 C   0  0  0  0  0  0  0  0  0  0  0  0
  -30.7480  -13.0560   18.9930 C   0  0  0  0  0  2  0  0  0  0  0  0
  -29.7760  -12.7290   17.8290 C   0  0  0  0  0  2  0  0  0  0  0  0
  -28.3570  -12.4570   18.3560 C   0  0  0  0  0  2  0  0  0  0  0  0
  -27.9450  -13.4770   19.4440 C   0  0  0  0  0  3  0  0  0  0  0  0
  -29.0440  -13.7210   20.5000 C   0  0  0  0  0  2  0  0  0  0  0  0
  -30.2160  -14.2470   19.7720 N   0  0  0  0  0  0  0  0  0  0  0  0
  -32.0260  -15.4950   19.6130 O   0  0  0  0  0  0  0  0  0  0  0  0
  -30.0720  -16.8980   19.8350 N   0  0  0  0  0  0  0  0  0  0  0  0
  -29.0780  -16.7250   19.8130 H   0  0  0  0  0  0  0  0  0  0  0  0
  -25.6510  -14.0860   20.3620 C   0  0  0  0  0  0  0  0  0  0  0  0
  -24.5870  -13.3350   20.7720 C   0  0  0  0  0  0  0  0  0  0  0  0
  -25.0040  -11.9710   20.6800 C   0  0  0  0  0  0  0  0  0  0  0  0
  -26.6460  -13.1840   20.0330 N   0  0  0  0  0  0  0  0  0  0  0  0
  -26.2740  -11.9020   20.2930 N   0  0  0  0  0  0  0  0  0  0  0  0
  -24.2430  -10.7300   20.8790 C   0  0  0  0  0  0  0  0  0  0  0  0
  -24.6570   -9.7480   21.8050 C   0  0  0  0  0  3  0  0  0  0  0  0
  -23.8950   -8.5750   21.9950 C   0  0  0  0  0  3  0  0  0  0  0  0
  -22.7040   -8.3750   21.2560 C   0  0  0  0  0  0  0  0  0  0  0  0
  -22.3080   -9.3460   20.3190 C   0  0  0  0  0  3  0  0  0  0  0  0
  -23.0710  -10.5090   20.1270 C   0  0  0  0  0  3  0  0  0  0  0  0
  -21.9140   -7.2550   21.3550 O   0  0  0  0  0  0  0  0  0  0  0  0
  -21.8070   -6.5510   22.5270 C   0  0  0  0  0  0  0  0  0  0  0  0
  -21.3330   -7.1480   23.7150 C   0  0  0  0  0  3  0  0  0  0  0  0
  -21.1730   -6.3700   24.8790 C   0  0  0  0  0  3  0  0  0  0  0  0
  -21.4770   -4.9970   24.8560 C   0  0  0  0  0  0  0  0  0  0  0  0
  -21.9440   -4.3990   23.6720 C   0  0  0  0  0  3  0  0  0  0  0  0
  -22.1050   -5.1740   22.5100 C   0  0  0  0  0  0  0  0  0  0  0  0
  -22.5350   -4.5880   21.3670 F   0  0  0  0  0  0  0  0  0  0  0  0
  -21.3170   -4.2470   25.9720 F   0  0  0  0  0  0  0  0  0  0  0  0
  -23.2240  -13.8530   21.1280 C   0  0  0  0  0  0  0  0  0  0  0  0
  -22.5260  -13.1720   22.0300 N   0  0  0  0  0  0  0  0  0  0  0  0
  -22.7910  -14.8960   20.6410 O   0  0  0  0  0  0  0  0  0  0  0  0
  -22.8920  -12.3280   22.4440 H   0  0  0  0  0  0  0  0  0  0  0  0
  -21.6130  -13.5010   22.3110 H   0  0  0  0  0  0  0  0  0  0  0  0
  -25.8490  -15.4550   20.2080 N   0  0  0  0  0  0  0  0  0  0  0  0
  -25.1080  -16.1260   20.3760 H   0  0  0  0  0  0  0  0  0  0  0  0
  -26.6770  -15.8740   19.8080 H   0  0  0  0  0  0  0  0  0  0  0  0
  -28.4250  -24.1450   20.5300 C   0  0  0  0  0  2  0  0  0  0  0  0
  -28.6440  -25.7950   20.1880 O   0  0  0  0  0  0  0  0  0  0  0  0
  -24.8220  -31.7500   23.1920 C   0  0  0  0  0  0  0  0  0  0  0  0
  -27.6110  -26.9130   20.1910 C   0  0  0  0  0  0  0  0  0  0  0  0
  -23.7190  -30.3290   21.5140 C   0  0  0  0  0  3  0  0  0  0  0  0
  -25.2550  -28.7780   20.1130 C   0  0  0  0  0  0  0  0  0  0  0  0
  -26.2860  -30.6080   21.4340 C   0  0  0  0  0  2  0  0  0  0  0  0
  -26.4210  -29.1980   20.7660 C   0  0  0  0  0  0  0  0  0  0  0  0
  -27.5920  -28.2930   20.7710 C   0  0  0  0  0  3  0  0  0  0  0  0
  -26.4040  -26.6720   19.4910 C   0  0  0  0  0  3  0  0  0  0  0  0
  -25.2770  -27.5390   19.4540 C   0  0  0  0  0  3  0  0  0  0  0  0
  -24.0070  -29.6670   20.1390 C   0  0  0  0  0  2  0  0  0  0  0  0
  -24.9620  -30.9260   22.1000 N   0  0  0  0  0  0  0  0  0  0  0  0
  -23.7100  -31.9960   23.6890 O   0  0  0  0  0  0  0  0  0  0  0  0
  -23.0320  -29.3040   22.4560 C   0  0  0  0  0  0  0  0  0  0  0  0
  -21.7130  -29.0890   22.2950 N   0  0  0  0  0  0  0  0  0  0  0  0
  -23.6970  -28.7010   23.3020 O   0  0  0  0  0  0  0  0  0  0  0  0
  -21.2250  -29.6270   21.5930 H   0  0  0  0  0  0  0  0  0  0  0  0
  -18.3720  -27.7260   22.7050 C   0  0  0  0  0  0  0  0  0  0  0  0
  -20.9090  -28.1100   23.0390 C   0  0  0  0  0  3  0  0  0  0  0  0
  -21.0910  -26.6870   22.4600 C   0  0  0  0  0  2  0  0  0  0  0  0
  -20.0340  -26.3210   21.4140 C   0  0  0  0  0  2  0  0  0  0  0  0
  -18.6300  -26.3920   22.0220 C   0  0  0  0  0  2  0  0  0  0  0  0
  -19.4400  -28.5380   23.1680 C   0  0  0  0  0  0  0  0  0  0  0  0
  -19.1430  -29.7800   23.7700 C   0  0  0  0  0  3  0  0  0  0  0  0
  -17.8100  -30.2120   23.9110 C   0  0  0  0  0  3  0  0  0  0  0  0
  -16.7560  -29.3980   23.4620 C   0  0  0  0  0  3  0  0  0  0  0  0
  -17.0370  -28.1560   22.8650 C   0  0  0  0  0  3  0  0  0  0  0  0
  -26.0500  -32.4350   23.8620 C   0  0  0  0  0  3  0  0  0  0  0  0
  -25.6770  -33.8250   24.1840 N   0  0  0  0  0  0  0  0  0  0  0  0
  -25.9790  -34.8970   23.4390 C   0  0  0  0  0  0  0  0  0  0  0  0
  -26.6620  -34.8220   22.4150 O   0  0  0  0  0  0  0  0  0  0  0  0
  -25.0680  -33.9540   24.9790 H   0  0  0  0  0  0  0  0  0  0  0  0
  -24.1800  -36.6280   23.1040 C   0  0  0  0  0  1  0  0  0  0  0  0
  -25.4450  -36.2690   23.9000 C   0  0  0  0  0  3  0  0  0  0  0  0
  -27.5470  -37.2490   24.7120 C   0  0  0  0  0  1  0  0  0  0  0  0
  -26.4340  -37.3630   23.7730 N   0  0  0  0  0  0  0  0  0  0  0  0
  -25.9920  -38.2670   23.9140 H   0  0  0  0  0  0  0  0  0  0  0  0
  -26.5360  -31.6920   25.1670 C   0  0  1  0  0  0  0  0  0  0  0  0
  -25.4100  -31.4340   26.1960 C   0  0  0  0  0  1  0  0  0  0  0  0
  -27.1730  -30.3270   24.8240 C   0  0  0  0  0  1  0  0  0  0  0  0
  -27.6370  -32.5260   25.8650 C   0  0  0  0  0  1  0  0  0  0  0  0
  1  2  1  0
  2  3  2  0
  2 47  1  0
  3  4  1  0
  5  4  1  0
  6 17  1  0
  6  5  1  0
  7  1  2  0
  7  8  1  0
  8  6  1  0
  8  3  1  0
  9 17  1  0
 10 15  1  0
 11 12  1  0
 11 10  1  0
 13 12  1  0
 13 22  1  0
 13 14  1  0
 15  9  1  0
 15 14  1  0
 16  9  2  0
 18 17  1  0
 19 20  2  0
 20 39  1  0
 21 20  1  0
 21 24  1  0
 22 23  1  0
 22 19  1  0
 23 21  2  0
 24 25  1  0
 25 26  2  0
 27 30  1  0
 27 26  1  0
 28 27  2  0
 29 28  1  0
 29 24  2  0
 30 31  1  0
 31 32  1  0
 32 33  2  0
 34 33  1  0
 34 38  1  0
 35 34  2  0
 36 31  2  0
 36 35  1  0
 37 36  1  0
 39 40  1  0
 40 43  1  0
 40 42  1  0
 41 39  2  0
 44 19  1  0
 44 45  1  0
 46 44  1  0
 48 50  1  0
 48 47  1  0
 49 60  2  0
 50 55  1  0
 51 59  1  0
 51 61  1  0
 52 58  1  0
 52 54  1  0
 53 59  1  0
 54 55  2  0
 54 53  1  0
 56 50  2  0
 57 56  1  0
 57 52  2  0
 58 51  1  0
 59 49  1  0
 61 63  2  0
 62 61  1  0
 64 62  1  0
 65 74  2  0
 65 70  1  0
 66 62  1  0
 66 70  1  0
 67 66  1  0
 68 69  1  0
 68 67  1  0
 69 65  1  0
 70 71  2  0
 71 72  1  0
 73 72  2  0
 74 73  1  0
 75 49  1  0
 75 76  1  0
 75 85  1  0
 76 79  1  0
 77 81  1  0
 77 76  1  0
 78 77  2  0
 81 80  1  0
 83 81  1  0
 83 84  1  0
 83 82  1  0
 85 88  1  1
 85 86  1  0
 87 85  1  0
M  ISO  4   9 100  17 100  47 101  48 101
M  END
>  <TORSDO>  (78) 
F 17

>  <SCORE>  (78) 
-15.907

>  <name>  (78) 
78

>  <ligand_id>  (78) 
78

>  <original_smiles>  (78) 
[H]c1nn2c(c1C([H])([H])Oc1c([H])c([H])c3c(c1[H])C([H])([H])N(C(=O)C([H])(N([H])C(=O)C([H])(N([H])C([H])([H])[H])C([H])([H])[H])C(C([H])([H])[H])(C([H])([H])[H])C([H])([H])[H])C([H])(C(=O)N([H])C1([H])c4c([H])c([H])c([H])c([H])c4C([H])([H])C([H])([H])C1([H])[H])C3([H])[H])C([H])([H])C([H])([H])C2([H])N([H])C(=O)N1C([H])([H])C([H])([H])C([H])([H])C([H])(n2nc(-c3c([H])c([H])c(Oc4c([H])c([H])c(F)c([H])c4F)c([H])c3[H])c(C(=O)N([H])[H])c2N([H])[H])C1([H])[H]

>  <smiles>  (78) 
[H]c1nn2c(c1C([H])([H])Oc1c([H])c([H])c3c(c1[H])C([H])([H])N(C(=O)C([H])(N([H])C(=O)C([H])(N([H])C([H])([H])[H])C([H])([H])[H])C(C([H])([H])[H])(C([H])([H])[H])C([H])([H])[H])C([H])(C(=O)N([H])C1([H])c4c([H])c([H])c([H])c([H])c4C([H])([H])C([H])([H])C1([H])[H])C3([H])[H])C([H])([H])C([H])([H])C2([H])N([H])C(=O)N1C([H])([H])C([H])([H])C([H])([H])C([H])(n2nc(-c3c([H])c([H])c(Oc4c([H])c([H])c(F)c([H])c4F)c([H])c3[H])c(C(=O)N([H])[H])c2N([H])[H])C1([H])[H]

$$$$
79:0:0
     RDKit          3D

 90 98  0  0  1  0  0  0  0  0999 V2000
  -29.3440  -22.6450   20.0850 N   0  0  0  0  0  4  0  0  0  0  0  0
  -29.9090  -22.5590   19.2540 H   0  0  0  0  0  0  0  0  0  0  0  0
  -29.9820  -22.9220   20.8140 H   0  0  0  0  0  0  0  0  0  0  0  0
  -28.8540  -21.2220   20.3830 C   0  0  0  0  0  2  0  0  0  0  0  0
  -29.7740  -19.9980   19.8580 C   0  0  0  0  0  2  0  0  0  0  0  0
  -30.7000  -14.7690   20.0310 C   0  0  0  0  0  0  0  0  0  0  0  0
  -30.3930  -12.5380   18.9390 C   0  0  0  0  0  2  0  0  0  0  0  0
  -29.3810  -12.6280   17.7770 C   0  0  0  0  0  2  0  0  0  0  0  0
  -27.9420  -12.4310   18.2930 C   0  0  0  0  0  2  0  0  0  0  0  0
  -27.6440  -13.2820   19.5560 C   0  0  0  0  0  3  0  0  0  0  0  0
  -28.7750  -13.1540   20.6040 C   0  0  0  0  0  2  0  0  0  0  0  0
  -30.0170  -13.5690   19.9390 N   0  0  0  0  0  0  0  0  0  0  0  0
  -31.8650  -14.8060   19.6190 O   0  0  0  0  0  0  0  0  0  0  0  0
  -28.4560  -17.8070   20.7360 C   0  0  0  0  0  2  0  0  0  0  0  0
  -28.8340  -16.3230   21.0150 C   0  0  0  0  0  2  0  0  0  0  0  0
  -30.5960  -17.3500   19.8590 C   0  0  0  0  0  2  0  0  0  0  0  0
  -29.7800  -18.5310   20.5400 C   0  0  0  0  0  3  0  0  0  0  0  0
  -30.0460  -15.9960   20.2450 N   0  0  0  0  0  0  0  0  0  0  0  0
  -25.3070  -13.8580   20.4450 C   0  0  0  0  0  0  0  0  0  0  0  0
  -24.2690  -13.0750   20.8680 C   0  0  0  0  0  0  0  0  0  0  0  0
  -24.7280  -11.7260   20.7720 C   0  0  0  0  0  0  0  0  0  0  0  0
  -26.3340  -12.9850   20.1240 N   0  0  0  0  0  0  0  0  0  0  0  0
  -25.9970  -11.6960   20.3820 N   0  0  0  0  0  0  0  0  0  0  0  0
  -24.0130  -10.4590   20.9680 C   0  0  0  0  0  0  0  0  0  0  0  0
  -24.4640   -9.4940   21.8930 C   0  0  0  0  0  3  0  0  0  0  0  0
  -23.7490   -8.2920   22.0810 C   0  0  0  0  0  3  0  0  0  0  0  0
  -22.5670   -8.0470   21.3410 C   0  0  0  0  0  0  0  0  0  0  0  0
  -22.1350   -9.0010   20.4030 C   0  0  0  0  0  3  0  0  0  0  0  0
  -22.8520  -10.1950   20.2140 C   0  0  0  0  0  3  0  0  0  0  0  0
  -21.8210   -6.8970   21.4370 O   0  0  0  0  0  0  0  0  0  0  0  0
  -21.7460   -6.1840   22.6060 C   0  0  0  0  0  0  0  0  0  0  0  0
  -21.2780   -6.7660   23.8060 C   0  0  0  0  0  3  0  0  0  0  0  0
  -21.1510   -5.9780   24.9670 C   0  0  0  0  0  3  0  0  0  0  0  0
  -21.4820   -4.6090   24.9290 C   0  0  0  0  0  0  0  0  0  0  0  0
  -21.9420   -4.0270   23.7340 C   0  0  0  0  0  3  0  0  0  0  0  0
  -22.0690   -4.8130   22.5750 C   0  0  0  0  0  0  0  0  0  0  0  0
  -22.4930   -4.2440   21.4210 F   0  0  0  0  0  0  0  0  0  0  0  0
  -21.3530   -3.8490   26.0420 F   0  0  0  0  0  0  0  0  0  0  0  0
  -22.8930  -13.5470   21.2390 C   0  0  0  0  0  0  0  0  0  0  0  0
  -22.2190  -12.8270   22.1300 N   0  0  0  0  0  0  0  0  0  0  0  0
  -22.4260  -14.5850   20.7730 O   0  0  0  0  0  0  0  0  0  0  0  0
  -22.6110  -11.9880   22.5290 H   0  0  0  0  0  0  0  0  0  0  0  0
  -21.2970  -13.1200   22.4150 H   0  0  0  0  0  0  0  0  0  0  0  0
  -25.4440  -15.2330   20.2820 N   0  0  0  0  0  0  0  0  0  0  0  0
  -24.6750  -15.8710   20.4530 H   0  0  0  0  0  0  0  0  0  0  0  0
  -26.2530  -15.6890   19.8820 H   0  0  0  0  0  0  0  0  0  0  0  0
  -28.3940  -23.8160   19.7720 C   0  0  0  0  0  2  0  0  0  0  0  0
  -29.4740  -25.1060   21.7630 C   0  0  0  0  0  1  0  0  0  0  0  0
  -28.3420  -25.1140   20.7280 C   0  0  0  0  0  3  0  0  0  0  0  0
  -28.3920  -26.4860   20.1430 O   0  0  0  0  0  0  0  0  0  0  0  0
  -24.6240  -31.8600   23.2250 C   0  0  0  0  0  0  0  0  0  0  0  0
  -27.2570  -27.3110   20.1720 C   0  0  0  0  0  0  0  0  0  0  0  0
  -23.4290  -30.4630   21.5760 C   0  0  0  0  0  3  0  0  0  0  0  0
  -24.8870  -28.9110   20.1570 C   0  0  0  0  0  0  0  0  0  0  0  0
  -25.9680  -30.7860   21.4030 C   0  0  0  0  0  2  0  0  0  0  0  0
  -26.0540  -29.4090   20.7530 C   0  0  0  0  0  0  0  0  0  0  0  0
  -27.2460  -28.6220   20.7430 C   0  0  0  0  0  3  0  0  0  0  0  0
  -26.0690  -26.8580   19.5640 C   0  0  0  0  0  3  0  0  0  0  0  0
  -24.8980  -27.6420   19.5530 C   0  0  0  0  0  3  0  0  0  0  0  0
  -23.6500  -29.7860   20.1980 C   0  0  0  0  0  2  0  0  0  0  0  0
  -24.6920  -31.0540   22.1260 N   0  0  0  0  0  0  0  0  0  0  0  0
  -23.5390  -32.1350   23.7580 O   0  0  0  0  0  0  0  0  0  0  0  0
  -22.7630  -29.4440   22.5330 C   0  0  0  0  0  0  0  0  0  0  0  0
  -21.4370  -29.2720   22.4080 N   0  0  0  0  0  0  0  0  0  0  0  0
  -23.4420  -28.8100   23.3460 O   0  0  0  0  0  0  0  0  0  0  0  0
  -20.9480  -29.8370   21.7260 H   0  0  0  0  0  0  0  0  0  0  0  0
  -18.0530  -28.1010   22.9210 C   0  0  0  0  0  0  0  0  0  0  0  0
  -20.6160  -28.3330   23.1740 C   0  0  0  0  0  3  0  0  0  0  0  0
  -20.6990  -26.9090   22.5780 C   0  0  0  0  0  2  0  0  0  0  0  0
  -19.5870  -26.6090   21.5690 C   0  0  0  0  0  2  0  0  0  0  0  0
  -18.2120  -26.7600   22.2260 C   0  0  0  0  0  2  0  0  0  0  0  0
  -19.1820  -28.8470   23.3510 C   0  0  0  0  0  0  0  0  0  0  0  0
  -18.9800  -30.1050   23.9600 C   0  0  0  0  0  3  0  0  0  0  0  0
  -17.6810  -30.6150   24.1440 C   0  0  0  0  0  3  0  0  0  0  0  0
  -16.5670  -29.8660   23.7300 C   0  0  0  0  0  3  0  0  0  0  0  0
  -16.7520  -28.6110   23.1240 C   0  0  0  0  0  3  0  0  0  0  0  0
  -25.9030  -32.4940   23.8550 C   0  0  0  0  0  3  0  0  0  0  0  0
  -26.4130  -31.7230   25.1340 C   0  0  1  0  0  0  0  0  0  0  0  0
  -25.3150  -31.4850   26.1970 C   0  0  0  0  0  1  0  0  0  0  0  0
  -27.0000  -30.3450   24.7480 C   0  0  0  0  0  1  0  0  0  0  0  0
  -27.5590  -32.5180   25.8030 C   0  0  0  0  0  1  0  0  0  0  0  0
  -25.5900  -33.8920   24.1860 N   0  0  0  0  0  0  0  0  0  0  0  0
  -25.9190  -34.9470   23.4280 C   0  0  0  0  0  0  0  0  0  0  0  0
  -26.5850  -34.8460   22.3950 O   0  0  0  0  0  0  0  0  0  0  0  0
  -24.9960  -34.0430   24.9880 H   0  0  0  0  0  0  0  0  0  0  0  0
  -24.1860  -36.7380   23.0820 C   0  0  0  0  0  1  0  0  0  0  0  0
  -25.4290  -36.3330   23.8900 C   0  0  0  0  0  3  0  0  0  0  0  0
  -27.5640  -37.2190   24.7190 C   0  0  0  0  0  1  0  0  0  0  0  0
  -26.4590  -37.3890   23.7790 N   0  0  0  0  0  0  0  0  0  0  0  0
  -26.0500  -38.3070   23.9350 H   0  0  0  0  0  0  0  0  0  0  0  0
  1  4  1  0
  1  3  1  0
  2  1  1  0
  5  4  1  0
  6 18  1  0
  7 12  1  0
  8  9  1  0
  8  7  1  0
 10  9  1  0
 10 22  1  0
 10 11  1  0
 12  6  1  0
 12 11  1  0
 13  6  2  0
 14 15  1  0
 16 18  1  0
 16 17  1  0
 17  5  1  0
 17 14  1  0
 18 15  1  0
 19 20  2  0
 20 39  1  0
 21 20  1  0
 21 24  1  0
 22 23  1  0
 22 19  1  0
 23 21  2  0
 24 25  1  0
 25 26  2  0
 27 30  1  0
 27 26  1  0
 28 27  2  0
 29 28  1  0
 29 24  2  0
 30 31  1  0
 31 32  1  0
 32 33  2  0
 34 33  1  0
 34 38  1  0
 35 34  2  0
 36 31  2  0
 36 35  1  0
 37 36  1  0
 39 40  1  0
 40 43  1  0
 40 42  1  0
 41 39  2  0
 44 19  1  0
 44 45  1  0
 46 44  1  0
 47  1  1  0
 47 49  1  0
 49 48  1  0
 50 52  1  0
 50 49  1  0
 51 62  2  0
 52 57  1  0
 53 61  1  0
 53 63  1  0
 54 60  1  0
 54 56  1  0
 55 61  1  0
 56 55  1  0
 57 56  2  0
 58 52  2  0
 59 58  1  0
 59 54  2  0
 60 53  1  0
 61 51  1  0
 63 65  2  0
 64 63  1  0
 66 64  1  0
 67 76  2  0
 67 72  1  0
 68 64  1  0
 68 72  1  0
 69 68  1  0
 70 71  1  0
 70 69  1  0
 71 67  1  0
 72 73  2  0
 73 74  1  0
 75 74  2  0
 76 75  1  0
 77 51  1  0
 77 82  1  0
 77 78  1  0
 78 81  1  1
 78 79  1  0
 80 78  1  0
 82 85  1  0
 83 87  1  0
 83 82  1  0
 84 83  2  0
 87 86  1  0
 89 87  1  0
 89 90  1  0
 89 88  1  0
M  ISO  4   6 100  18 100  49 101  50 101
M  END
>  <TORSDO>  (79) 
F 20

>  <SCORE>  (79) 
-13.485

>  <name>  (79) 
79

>  <ligand_id>  (79) 
79

>  <original_smiles>  (79) 
[H]c1c([H])c([H])c2c(c1[H])C([H])([H])C([H])([H])C([H])([H])C2([H])N([H])C(=O)C1([H])N(C(=O)C([H])(N([H])C(=O)C([H])(N([H])C([H])([H])[H])C([H])([H])[H])C(C([H])([H])[H])(C([H])([H])[H])C([H])([H])[H])C([H])([H])c2c([H])c(OC([H])(C([H])([H])[H])C([H])([H])[N+]([H])([H])C([H])([H])C([H])([H])C3([H])C([H])([H])N(C(=O)N4C([H])([H])C([H])([H])C([H])([H])C([H])(n5nc(-c6c([H])c([H])c(Oc7c([H])c([H])c(F)c([H])c7F)c([H])c6[H])c(C(=O)N([H])[H])c5N([H])[H])C4([H])[H])C([H])([H])C3([H])[H])c([H])c([H])c2C1([H])[H]

>  <smiles>  (79) 
[H]c1c([H])c([H])c2c(c1[H])C([H])([H])C([H])([H])C([H])([H])C2([H])N([H])C(=O)C1([H])N(C(=O)C([H])(N([H])C(=O)C([H])(N([H])C([H])([H])[H])C([H])([H])[H])C(C([H])([H])[H])(C([H])([H])[H])C([H])([H])[H])C([H])([H])c2c([H])c(OC([H])(C([H])([H])[H])C([H])([H])[N+]([H])([H])C([H])([H])C([H])([H])C3([H])C([H])([H])N(C(=O)N4C([H])([H])C([H])([H])C([H])([H])C([H])(n5nc(-c6c([H])c([H])c(Oc7c([H])c([H])c(F)c([H])c7F)c([H])c6[H])c(C(=O)N([H])[H])c5N([H])[H])C4([H])[H])C([H])([H])C3([H])[H])c([H])c([H])c2C1([H])[H]

$$$$
80:0:0
     RDKit          3D

 93102  0  0  1  0  0  0  0  0999 V2000
  -30.3710  -21.5540   22.5520 C   0  0  0  0  0  3  0  0  0  0  0  0
  -30.2570  -23.6740   22.3350 C   0  0  0  0  0  3  0  0  0  0  0  0
  -29.7280  -21.7880   21.3520 C   0  0  0  0  0  0  0  0  0  0  0  0
  -30.7240  -22.7500   23.1610 N   0  0  0  0  0  0  0  0  0  0  0  0
  -29.5990  -23.2070   21.2600 N   0  0  0  0  0  0  0  0  0  0  0  0
  -29.2520  -20.7120   20.3750 C   0  0  0  0  0  2  0  0  0  0  0  0
  -30.8970  -17.5400   19.1050 C   0  0  0  0  0  2  0  0  0  0  0  0
  -30.5620  -19.0400   18.9900 C   0  0  0  0  0  2  0  0  0  0  0  0
  -29.6540  -18.2240   21.0500 C   0  0  0  0  0  2  0  0  0  0  0  0
  -29.7940  -17.0390   20.0400 C   0  0  0  0  0  3  0  0  0  0  0  0
  -30.1130  -19.4680   20.3380 N   0  0  2  0  0  4  0  0  0  0  0  0
  -30.9670  -19.7340   20.8030 H   0  0  0  0  0  0  0  0  0  0  0  0
  -30.6150  -14.5820   20.1730 C   0  0  0  0  0  0  0  0  0  0  0  0
  -30.3280  -12.4000   19.0560 C   0  0  0  0  0  2  0  0  0  0  0  0
  -29.3500  -12.6100   17.8800 C   0  0  0  0  0  2  0  0  0  0  0  0
  -27.8900  -12.4530   18.3480 C   0  0  0  0  0  2  0  0  0  0  0  0
  -27.5850  -13.2760   19.6280 C   0  0  0  0  0  3  0  0  0  0  0  0
  -28.6740  -13.0530   20.7030 C   0  0  0  0  0  2  0  0  0  0  0  0
  -29.9790  -13.3780   20.1030 N   0  0  0  0  0  0  0  0  0  0  0  0
  -31.7460  -14.7510   19.7080 O   0  0  0  0  0  0  0  0  0  0  0  0
  -29.8380  -15.6300   20.5580 N   0  0  0  0  0  0  0  0  0  0  0  0
  -28.9830  -15.3340   21.0080 H   0  0  0  0  0  0  0  0  0  0  0  0
  -25.2090  -13.8790   20.4060 C   0  0  0  0  0  0  0  0  0  0  0  0
  -24.1530  -13.1060   20.8080 C   0  0  0  0  0  0  0  0  0  0  0  0
  -24.6150  -11.7550   20.7660 C   0  0  0  0  0  0  0  0  0  0  0  0
  -26.2470  -12.9980   20.1450 N   0  0  0  0  0  0  0  0  0  0  0  0
  -25.8950  -11.7160   20.4190 N   0  0  0  0  0  0  0  0  0  0  0  0
  -23.8980  -10.4910   20.9770 C   0  0  0  0  0  0  0  0  0  0  0  0
  -24.3600   -9.5260   21.8990 C   0  0  0  0  0  3  0  0  0  0  0  0
  -23.6420   -8.3280   22.0980 C   0  0  0  0  0  3  0  0  0  0  0  0
  -22.4480   -8.0860   21.3760 C   0  0  0  0  0  0  0  0  0  0  0  0
  -22.0080   -9.0410   20.4430 C   0  0  0  0  0  3  0  0  0  0  0  0
  -22.7250  -10.2300   20.2410 C   0  0  0  0  0  3  0  0  0  0  0  0
  -21.7000   -6.9390   21.4850 O   0  0  0  0  0  0  0  0  0  0  0  0
  -21.6880   -6.1950   22.6380 C   0  0  0  0  0  0  0  0  0  0  0  0
  -21.2860   -6.7430   23.8760 C   0  0  0  0  0  3  0  0  0  0  0  0
  -21.2220   -5.9250   25.0210 C   0  0  0  0  0  3  0  0  0  0  0  0
  -21.5490   -4.5580   24.9300 C   0  0  0  0  0  0  0  0  0  0  0  0
  -21.9450   -4.0100   23.6970 C   0  0  0  0  0  3  0  0  0  0  0  0
  -22.0110   -4.8260   22.5540 C   0  0  0  0  0  0  0  0  0  0  0  0
  -22.3710   -4.2870   21.3640 F   0  0  0  0  0  0  0  0  0  0  0  0
  -21.4810   -3.7690   26.0280 F   0  0  0  0  0  0  0  0  0  0  0  0
  -22.7630  -13.5820   21.1190 C   0  0  0  0  0  0  0  0  0  0  0  0
  -22.0620  -12.8850   22.0070 N   0  0  0  0  0  0  0  0  0  0  0  0
  -22.3090  -14.6050   20.6100 O   0  0  0  0  0  0  0  0  0  0  0  0
  -22.4410  -12.0550   22.4370 H   0  0  0  0  0  0  0  0  0  0  0  0
  -21.1300  -13.1840   22.2560 H   0  0  0  0  0  0  0  0  0  0  0  0
  -25.3700  -15.2500   20.2200 N   0  0  0  0  0  0  0  0  0  0  0  0
  -24.6090  -15.9080   20.3520 H   0  0  0  0  0  0  0  0  0  0  0  0
  -26.1970  -15.6770   19.8240 H   0  0  0  0  0  0  0  0  0  0  0  0
  -29.0070  -24.1120   20.2430 C   0  0  0  0  0  2  0  0  0  0  0  0
  -28.1360  -25.2960   20.8240 C   0  0  0  0  0  2  0  0  0  0  0  0
  -28.2910  -26.6040   20.1970 O   0  0  0  0  0  0  0  0  0  0  0  0
  -24.5430  -31.8970   23.2640 C   0  0  0  0  0  0  0  0  0  0  0  0
  -27.1590  -27.4070   20.1910 C   0  0  0  0  0  0  0  0  0  0  0  0
  -23.3350  -30.5040   21.6190 C   0  0  0  0  0  3  0  0  0  0  0  0
  -24.7850  -28.9660   20.1870 C   0  0  0  0  0  0  0  0  0  0  0  0
  -25.8670  -30.8420   21.4300 C   0  0  0  0  0  2  0  0  0  0  0  0
  -25.9490  -29.4710   20.7820 C   0  0  0  0  0  0  0  0  0  0  0  0
  -27.1430  -28.7010   20.7750 C   0  0  0  0  0  3  0  0  0  0  0  0
  -25.9790  -26.9340   19.5770 C   0  0  0  0  0  3  0  0  0  0  0  0
  -24.7990  -27.7000   19.5770 C   0  0  0  0  0  3  0  0  0  0  0  0
  -23.5460  -29.8340   20.2350 C   0  0  0  0  0  2  0  0  0  0  0  0
  -24.6000  -31.0960   22.1630 N   0  0  0  0  0  0  0  0  0  0  0  0
  -23.4610  -32.1710   23.8030 O   0  0  0  0  0  0  0  0  0  0  0  0
  -22.6760  -29.4810   22.5750 C   0  0  0  0  0  0  0  0  0  0  0  0
  -21.3530  -29.2960   22.4390 N   0  0  0  0  0  0  0  0  0  0  0  0
  -23.3540  -28.8580   23.3970 O   0  0  0  0  0  0  0  0  0  0  0  0
  -20.8670  -29.8530   21.7510 H   0  0  0  0  0  0  0  0  0  0  0  0
  -17.9800  -28.0790   22.9050 C   0  0  0  0  0  0  0  0  0  0  0  0
  -20.5330  -28.3570   23.2050 C   0  0  0  0  0  3  0  0  0  0  0  0
  -20.6520  -26.9220   22.6430 C   0  0  0  0  0  2  0  0  0  0  0  0
  -19.5640  -26.5840   21.6180 C   0  0  0  0  0  2  0  0  0  0  0  0
  -18.1750  -26.7250   22.2420 C   0  0  0  0  0  2  0  0  0  0  0  0
  -19.0880  -28.8510   23.3430 C   0  0  0  0  0  0  0  0  0  0  0  0
  -18.8530  -30.1180   23.9210 C   0  0  0  0  0  3  0  0  0  0  0  0
  -17.5430  -30.6110   24.0680 C   0  0  0  0  0  3  0  0  0  0  0  0
  -16.4490  -29.8360   23.6460 C   0  0  0  0  0  3  0  0  0  0  0  0
  -16.6680  -28.5720   23.0700 C   0  0  0  0  0  3  0  0  0  0  0  0
  -25.8300  -32.5250   23.8870 C   0  0  0  0  0  3  0  0  0  0  0  0
  -26.3320  -31.7670   25.1760 C   0  0  1  0  0  0  0  0  0  0  0  0
  -25.2300  -31.5500   26.2410 C   0  0  0  0  0  1  0  0  0  0  0  0
  -26.9120  -30.3830   24.8060 C   0  0  0  0  0  1  0  0  0  0  0  0
  -27.4850  -32.5630   25.8330 C   0  0  0  0  0  1  0  0  0  0  0  0
  -25.5310  -33.9290   24.1950 N   0  0  0  0  0  0  0  0  0  0  0  0
  -25.8840  -34.9680   23.4280 C   0  0  0  0  0  0  0  0  0  0  0  0
  -26.5630  -34.8450   22.4060 O   0  0  0  0  0  0  0  0  0  0  0  0
  -24.9270  -34.0980   24.9860 H   0  0  0  0  0  0  0  0  0  0  0  0
  -24.1820  -36.7770   23.0270 C   0  0  0  0  0  1  0  0  0  0  0  0
  -25.4050  -36.3660   23.8640 C   0  0  0  0  0  3  0  0  0  0  0  0
  -27.5340  -37.2320   24.7240 C   0  0  0  0  0  1  0  0  0  0  0  0
  -26.4520  -37.4050   23.7600 N   0  0  0  0  0  0  0  0  0  0  0  0
  -26.0550  -38.3320   23.8980 H   0  0  0  0  0  0  0  0  0  0  0  0
  1  4  1  0
  2  4  2  0
  3  1  2  0
  5  3  1  0
  5  2  1  0
  6  3  1  0
  7 10  1  0
  8  7  1  0
  8 11  1  0
 10 21  1  0
 10  9  1  0
 11  6  1  0
 11 12  1  1
 11  9  1  0
 13 21  1  0
 14 19  1  0
 15 16  1  0
 15 14  1  0
 17 16  1  0
 17 26  1  0
 17 18  1  0
 19 13  1  0
 19 18  1  0
 20 13  2  0
 21 22  1  0
 23 24  2  0
 24 43  1  0
 25 24  1  0
 25 28  1  0
 26 23  1  0
 26 27  1  0
 27 25  2  0
 28 29  1  0
 29 30  2  0
 31 34  1  0
 31 30  1  0
 32 31  2  0
 33 32  1  0
 33 28  2  0
 34 35  1  0
 35 36  1  0
 36 37  2  0
 38 37  1  0
 38 42  1  0
 39 38  2  0
 40 35  2  0
 40 39  1  0
 41 40  1  0
 43 44  1  0
 44 47  1  0
 44 46  1  0
 45 43  2  0
 48 49  1  0
 48 23  1  0
 50 48  1  0
 51 52  1  0
 51  5  1  0
 53 52  1  0
 54 65  2  0
 55 53  1  0
 55 60  1  0
 56 64  1  0
 56 66  1  0
 57 63  1  0
 57 59  1  0
 58 64  1  0
 59 58  1  0
 60 59  2  0
 61 62  1  0
 61 55  2  0
 62 57  2  0
 63 56  1  0
 64 54  1  0
 66 68  2  0
 67 66  1  0
 69 67  1  0
 70 79  2  0
 70 75  1  0
 71 67  1  0
 71 75  1  0
 72 71  1  0
 73 74  1  0
 73 72  1  0
 74 70  1  0
 75 76  2  0
 76 77  1  0
 78 77  2  0
 79 78  1  0
 80 54  1  0
 80 85  1  0
 80 81  1  0
 81 84  1  1
 81 82  1  0
 83 81  1  0
 85 88  1  0
 86 90  1  0
 86 85  1  0
 87 86  2  0
 90 89  1  0
 92 90  1  0
 92 93  1  0
 92 91  1  0
M  ISO  4  13 100  21 100  52 101  53 101
M  END
>  <TORSDO>  (80) 
F 20

>  <SCORE>  (80) 
-13.746

>  <name>  (80) 
80

>  <ligand_id>  (80) 
80

>  <original_smiles>  (80) 
[H]c1nc([H])n(C([H])([H])C([H])([H])Oc2c([H])c([H])c3c(c2[H])C([H])([H])N(C(=O)C([H])(N([H])C(=O)C([H])(N([H])C([H])([H])[H])C([H])([H])[H])C(C([H])([H])[H])(C([H])([H])[H])C([H])([H])[H])C([H])(C(=O)N([H])C2([H])c4c([H])c([H])c([H])c([H])c4C([H])([H])C([H])([H])C2([H])[H])C3([H])[H])c1C([H])([H])[N+]1([H])C([H])([H])C([H])([H])C([H])(N([H])C(=O)N2C([H])([H])C([H])([H])C([H])([H])C([H])(n3nc(-c4c([H])c([H])c(Oc5c([H])c([H])c(F)c([H])c5F)c([H])c4[H])c(C(=O)N([H])[H])c3N([H])[H])C2([H])[H])C1([H])[H]

>  <smiles>  (80) 
[H]c1nc([H])n(C([H])([H])C([H])([H])Oc2c([H])c([H])c3c(c2[H])C([H])([H])N(C(=O)C([H])(N([H])C(=O)C([H])(N([H])C([H])([H])[H])C([H])([H])[H])C(C([H])([H])[H])(C([H])([H])[H])C([H])([H])[H])C([H])(C(=O)N([H])C2([H])c4c([H])c([H])c([H])c([H])c4C([H])([H])C([H])([H])C2([H])[H])C3([H])[H])c1C([H])([H])[N+]1([H])C([H])([H])C([H])([H])C([H])(N([H])C(=O)N2C([H])([H])C([H])([H])C([H])([H])C([H])(n3nc(-c4c([H])c([H])c(Oc5c([H])c([H])c(F)c([H])c5F)c([H])c4[H])c(C(=O)N([H])[H])c3N([H])[H])C2([H])[H])C1([H])[H]

$$$$
81:0:0
     RDKit          3D

 89 98  0  0  1  0  0  0  0  0999 V2000
  -29.2190  -21.3310   19.2960 C   0  0  0  0  0  3  0  0  0  0  0  0
  -28.6870  -21.8080   21.5090 C   0  0  0  0  0  3  0  0  0  0  0  0
  -29.0500  -20.7730   20.5890 C   0  0  0  0  0  0  0  0  0  0  0  0
  -28.6850  -23.5610   19.9480 C   0  0  0  0  0  0  0  0  0  0  0  0
  -29.0410  -22.6640   19.0040 N   0  0  0  0  0  0  0  0  0  0  0  0
  -28.5030  -23.1420   21.2090 N   0  0  0  0  0  0  0  0  0  0  0  0
  -28.4030  -25.0760   19.4410 C   0  0  0  0  0  2  0  0  0  0  0  0
  -28.2850  -26.3380   20.2770 O   0  0  0  0  0  0  0  0  0  0  0  0
  -24.6110  -31.8890   23.2380 C   0  0  0  0  0  0  0  0  0  0  0  0
  -27.1990  -27.2540   20.1740 C   0  0  0  0  0  0  0  0  0  0  0  0
  -23.4100  -30.5030   21.5910 C   0  0  0  0  0  3  0  0  0  0  0  0
  -24.8570  -28.9480   20.1600 C   0  0  0  0  0  0  0  0  0  0  0  0
  -25.9590  -30.7860   21.4270 C   0  0  0  0  0  2  0  0  0  0  0  0
  -26.0310  -29.4050   20.7690 C   0  0  0  0  0  0  0  0  0  0  0  0
  -27.2000  -28.5700   20.7680 C   0  0  0  0  0  3  0  0  0  0  0  0
  -25.9880  -26.8720   19.5500 C   0  0  0  0  0  3  0  0  0  0  0  0
  -24.8430  -27.6910   19.5400 C   0  0  0  0  0  3  0  0  0  0  0  0
  -23.6280  -29.8360   20.2090 C   0  0  0  0  0  2  0  0  0  0  0  0
  -24.6790  -31.0790   22.1400 N   0  0  0  0  0  0  0  0  0  0  0  0
  -23.5260  -32.1730   23.7670 O   0  0  0  0  0  0  0  0  0  0  0  0
  -22.7350  -29.4880   22.5450 C   0  0  0  0  0  0  0  0  0  0  0  0
  -21.4070  -29.3180   22.4160 N   0  0  0  0  0  0  0  0  0  0  0  0
  -23.4060  -28.8550   23.3660 O   0  0  0  0  0  0  0  0  0  0  0  0
  -20.9240  -29.8800   21.7300 H   0  0  0  0  0  0  0  0  0  0  0  0
  -18.0210  -28.1360   22.9110 C   0  0  0  0  0  0  0  0  0  0  0  0
  -20.5810  -28.3810   23.1820 C   0  0  0  0  0  3  0  0  0  0  0  0
  -20.6750  -26.9510   22.6020 C   0  0  0  0  0  2  0  0  0  0  0  0
  -19.5710  -26.6390   21.5860 C   0  0  0  0  0  2  0  0  0  0  0  0
  -18.1900  -26.7890   22.2290 C   0  0  0  0  0  2  0  0  0  0  0  0
  -19.1430  -28.8910   23.3440 C   0  0  0  0  0  0  0  0  0  0  0  0
  -18.9300  -30.1510   23.9430 C   0  0  0  0  0  3  0  0  0  0  0  0
  -17.6280  -30.6580   24.1110 C   0  0  0  0  0  3  0  0  0  0  0  0
  -16.5200  -29.9000   23.6940 C   0  0  0  0  0  3  0  0  0  0  0  0
  -16.7170  -28.6410   23.1000 C   0  0  0  0  0  3  0  0  0  0  0  0
  -25.8910  -32.5190   23.8680 C   0  0  0  0  0  3  0  0  0  0  0  0
  -25.5860  -33.9200   24.1940 N   0  0  0  0  0  0  0  0  0  0  0  0
  -25.9210  -34.9720   23.4350 C   0  0  0  0  0  0  0  0  0  0  0  0
  -26.5900  -34.8640   22.4030 O   0  0  0  0  0  0  0  0  0  0  0  0
  -24.9920  -34.0780   24.9960 H   0  0  0  0  0  0  0  0  0  0  0  0
  -24.2020  -36.7740   23.0810 C   0  0  0  0  0  1  0  0  0  0  0  0
  -25.4410  -36.3630   23.8920 C   0  0  0  0  0  3  0  0  0  0  0  0
  -27.5780  -37.2400   24.7240 C   0  0  0  0  0  1  0  0  0  0  0  0
  -26.4780  -37.4110   23.7790 N   0  0  0  0  0  0  0  0  0  0  0  0
  -26.0750  -38.3330   23.9260 H   0  0  0  0  0  0  0  0  0  0  0  0
  -26.3940  -31.7500   25.1520 C   0  0  1  0  0  0  0  0  0  0  0  0
  -25.2900  -31.5220   26.2120 C   0  0  0  0  0  1  0  0  0  0  0  0
  -26.9720  -30.3680   24.7730 C   0  0  0  0  0  1  0  0  0  0  0  0
  -27.5420  -32.5410   25.8190 C   0  0  0  0  0  1  0  0  0  0  0  0
  -29.2050  -19.4050   21.0170 O   0  0  0  0  0  0  0  0  0  0  0  0
  -30.6780  -14.8200   20.2800 C   0  0  0  0  0  0  0  0  0  0  0  0
  -30.3810  -12.5460   19.2750 C   0  0  0  0  0  2  0  0  0  0  0  0
  -29.4420  -12.5750   18.0540 C   0  0  0  0  0  2  0  0  0  0  0  0
  -27.9820  -12.3970   18.5040 C   0  0  0  0  0  2  0  0  0  0  0  0
  -27.6090  -13.3130   19.7010 C   0  0  0  0  0  3  0  0  0  0  0  0
  -28.6800  -13.3000   20.8140 C   0  0  0  0  0  2  0  0  0  0  0  0
  -29.9550  -13.6450   20.1790 N   0  0  0  0  0  0  0  0  0  0  0  0
  -31.8820  -14.7810   20.0170 O   0  0  0  0  0  0  0  0  0  0  0  0
  -30.7870  -17.4240   20.3100 C   0  0  0  0  0  2  0  0  0  0  0  0
  -28.8410  -16.7950   20.7220 C   0  0  0  0  0  2  0  0  0  0  0  0
  -29.4230  -18.1690   20.1860 C   0  0  0  0  0  3  0  0  0  0  0  0
  -30.0980  -16.0970   20.3420 N   0  0  0  0  0  0  0  0  0  0  0  0
  -25.2330  -13.8950   20.4580 C   0  0  0  0  0  0  0  0  0  0  0  0
  -24.1740  -13.1190   20.8360 C   0  0  0  0  0  0  0  0  0  0  0  0
  -24.6400  -11.7690   20.8060 C   0  0  0  0  0  0  0  0  0  0  0  0
  -26.2770  -13.0170   20.2140 N   0  0  0  0  0  0  0  0  0  0  0  0
  -25.9290  -11.7340   20.4910 N   0  0  0  0  0  0  0  0  0  0  0  0
  -23.9140  -10.5060   21.0000 C   0  0  0  0  0  0  0  0  0  0  0  0
  -24.3470   -9.5430   21.9380 C   0  0  0  0  0  3  0  0  0  0  0  0
  -23.6200   -8.3460   22.1210 C   0  0  0  0  0  3  0  0  0  0  0  0
  -22.4480   -8.1040   21.3660 C   0  0  0  0  0  0  0  0  0  0  0  0
  -22.0360   -9.0560   20.4160 C   0  0  0  0  0  3  0  0  0  0  0  0
  -22.7630  -10.2440   20.2310 C   0  0  0  0  0  3  0  0  0  0  0  0
  -21.6930   -6.9600   21.4580 O   0  0  0  0  0  0  0  0  0  0  0  0
  -21.6360   -6.2270   22.6160 C   0  0  0  0  0  0  0  0  0  0  0  0
  -21.1880   -6.7870   23.8330 C   0  0  0  0  0  3  0  0  0  0  0  0
  -21.0810   -5.9800   24.9820 C   0  0  0  0  0  3  0  0  0  0  0  0
  -21.4090   -4.6130   24.9160 C   0  0  0  0  0  0  0  0  0  0  0  0
  -21.8500   -4.0520   23.7050 C   0  0  0  0  0  3  0  0  0  0  0  0
  -21.9600   -4.8560   22.5570 C   0  0  0  0  0  0  0  0  0  0  0  0
  -22.3650   -4.3050   21.3880 F   0  0  0  0  0  0  0  0  0  0  0  0
  -21.2980   -3.8350   26.0190 F   0  0  0  0  0  0  0  0  0  0  0  0
  -22.7770  -13.5950   21.1100 C   0  0  0  0  0  0  0  0  0  0  0  0
  -22.0510  -12.9000   21.9780 N   0  0  0  0  0  0  0  0  0  0  0  0
  -22.3390  -14.6210   20.5900 O   0  0  0  0  0  0  0  0  0  0  0  0
  -22.4190  -12.0700   22.4200 H   0  0  0  0  0  0  0  0  0  0  0  0
  -21.1140  -13.2030   22.2040 H   0  0  0  0  0  0  0  0  0  0  0  0
  -25.3900  -15.2630   20.2720 N   0  0  0  0  0  0  0  0  0  0  0  0
  -24.6160  -15.9110   20.3730 H   0  0  0  0  0  0  0  0  0  0  0  0
  -26.2230  -15.6990   19.9020 H   0  0  0  0  0  0  0  0  0  0  0  0
  1  3  2  0
  3 49  1  0
  3  2  1  0
  4  6  1  0
  5  1  1  0
  5  4  2  0
  6  2  2  0
  7  4  1  0
  7  8  1  0
  9 20  2  0
 10  8  1  0
 10 15  1  0
 11 19  1  0
 11 21  1  0
 12 18  1  0
 12 14  1  0
 13 19  1  0
 14 13  1  0
 15 14  2  0
 16 10  2  0
 17 16  1  0
 17 12  2  0
 18 11  1  0
 19  9  1  0
 21 23  2  0
 22 21  1  0
 24 22  1  0
 25 34  2  0
 25 30  1  0
 26 22  1  0
 26 30  1  0
 27 26  1  0
 28 29  1  0
 28 27  1  0
 29 25  1  0
 30 31  2  0
 31 32  1  0
 33 32  2  0
 34 33  1  0
 35  9  1  0
 35 36  1  0
 35 45  1  0
 36 39  1  0
 37 41  1  0
 37 36  1  0
 38 37  2  0
 41 40  1  0
 43 41  1  0
 43 44  1  0
 43 42  1  0
 45 48  1  1
 45 46  1  0
 47 45  1  0
 50 61  1  0
 51 56  1  0
 52 53  1  0
 52 51  1  0
 54 53  1  0
 54 65  1  0
 54 55  1  0
 56 50  1  0
 56 55  1  0
 57 50  2  0
 58 61  1  0
 60 58  1  0
 60 59  1  0
 60 49  1  0
 61 59  1  0
 62 63  2  0
 63 82  1  0
 64 63  1  0
 64 67  1  0
 65 62  1  0
 65 66  1  0
 66 64  2  0
 67 68  1  0
 68 69  2  0
 70 73  1  0
 70 69  1  0
 71 70  2  0
 72 71  1  0
 72 67  2  0
 73 74  1  0
 74 75  1  0
 75 76  2  0
 77 76  1  0
 77 81  1  0
 78 77  2  0
 79 74  2  0
 79 78  1  0
 80 79  1  0
 82 83  1  0
 83 86  1  0
 83 85  1  0
 84 82  2  0
 87 88  1  0
 87 62  1  0
 89 87  1  0
M  ISO  4   7 101   8 101  50 100  61 100
M  END
>  <TORSDO>  (81) 
F 18

>  <SCORE>  (81) 
-14.750

>  <name>  (81) 
81

>  <ligand_id>  (81) 
81

>  <original_smiles>  (81) 
[H]c1nc(C([H])([H])Oc2c([H])c([H])c3c(c2[H])C([H])([H])N(C(=O)C([H])(N([H])C(=O)C([H])(N([H])C([H])([H])[H])C([H])([H])[H])C(C([H])([H])[H])(C([H])([H])[H])C([H])([H])[H])C([H])(C(=O)N([H])C2([H])c4c([H])c([H])c([H])c([H])c4C([H])([H])C([H])([H])C2([H])[H])C3([H])[H])nc([H])c1OC1([H])C([H])([H])N(C(=O)N2C([H])([H])C([H])([H])C([H])([H])C([H])(n3nc(-c4c([H])c([H])c(Oc5c([H])c([H])c(F)c([H])c5F)c([H])c4[H])c(C(=O)N([H])[H])c3N([H])[H])C2([H])[H])C1([H])[H]

>  <smiles>  (81) 
[H]c1nc(C([H])([H])Oc2c([H])c([H])c3c(c2[H])C([H])([H])N(C(=O)C([H])(N([H])C(=O)C([H])(N([H])C([H])([H])[H])C([H])([H])[H])C(C([H])([H])[H])(C([H])([H])[H])C([H])([H])[H])C([H])(C(=O)N([H])C2([H])c4c([H])c([H])c([H])c([H])c4C([H])([H])C([H])([H])C2([H])[H])C3([H])[H])nc([H])c1OC1([H])C([H])([H])N(C(=O)N2C([H])([H])C([H])([H])C([H])([H])C([H])(n3nc(-c4c([H])c([H])c(Oc5c([H])c([H])c(F)c([H])c5F)c([H])c4[H])c(C(=O)N([H])[H])c3N([H])[H])C2([H])[H])C1([H])[H]

$$$$
82:0:0
     RDKit          3D

 89 98  0  0  1  0  0  0  0  0999 V2000
  -30.5480  -15.2480   20.3690 C   0  0  0  0  0  0  0  0  0  0  0  0
  -30.4190  -12.8400   19.4900 C   0  0  0  0  0  2  0  0  0  0  0  0
  -29.5180  -12.6680   18.2470 C   0  0  0  0  0  2  0  0  0  0  0  0
  -28.0680  -12.4070   18.6800 C   0  0  0  0  0  2  0  0  0  0  0  0
  -27.6080  -13.3770   19.8000 C   0  0  0  0  0  3  0  0  0  0  0  0
  -28.6460  -13.5420   20.9300 C   0  0  0  0  0  2  0  0  0  0  0  0
  -29.8900  -13.9980   20.2940 N   0  0  0  0  0  0  0  0  0  0  0  0
  -31.7730  -15.1460   20.2080 O   0  0  0  0  0  0  0  0  0  0  0  0
  -29.3020  -19.9510   20.4890 C   0  0  0  0  0  0  0  0  0  0  0  0
  -28.6480  -18.9380   19.8060 C   0  0  0  0  0  0  0  0  0  0  0  0
  -28.7280  -21.3390   20.1260 C   0  0  0  0  0  0  0  0  0  0  0  0
  -30.3700  -19.2680   21.3790 C   0  0  0  0  0  3  0  0  0  0  0  0
  -28.8040  -17.3180   19.8270 C   0  0  0  0  0  2  0  0  0  0  0  0
  -30.8890  -17.7610   20.9580 C   0  0  0  0  0  3  0  0  0  0  0  0
  -26.8040  -19.1250   18.0730 C   0  0  0  0  0  1  0  0  0  0  0  0
  -27.8120  -21.0300   19.2000 N   0  0  0  0  0  0  0  0  0  0  0  0
  -27.7540  -19.6610   19.0280 N   0  0  0  0  0  0  0  0  0  0  0  0
  -29.9760  -16.6010   20.5370 N   0  0  0  0  0  0  0  0  0  0  0  0
  -25.2280  -13.9230   20.5330 C   0  0  0  0  0  0  0  0  0  0  0  0
  -24.1670  -13.1400   20.8910 C   0  0  0  0  0  0  0  0  0  0  0  0
  -24.6440  -11.7930   20.8680 C   0  0  0  0  0  0  0  0  0  0  0  0
  -26.2790  -13.0550   20.3010 N   0  0  0  0  0  0  0  0  0  0  0  0
  -25.9400  -11.7680   20.5720 N   0  0  0  0  0  0  0  0  0  0  0  0
  -23.9230  -10.5260   21.0490 C   0  0  0  0  0  0  0  0  0  0  0  0
  -24.3420   -9.5640   21.9930 C   0  0  0  0  0  3  0  0  0  0  0  0
  -23.6170   -8.3640   22.1640 C   0  0  0  0  0  3  0  0  0  0  0  0
  -22.4600   -8.1170   21.3880 C   0  0  0  0  0  0  0  0  0  0  0  0
  -22.0600   -9.0690   20.4340 C   0  0  0  0  0  3  0  0  0  0  0  0
  -22.7840  -10.2590   20.2610 C   0  0  0  0  0  3  0  0  0  0  0  0
  -21.7070   -6.9700   21.4690 O   0  0  0  0  0  0  0  0  0  0  0  0
  -21.6340   -6.2360   22.6260 C   0  0  0  0  0  0  0  0  0  0  0  0
  -21.1570   -6.7920   23.8330 C   0  0  0  0  0  3  0  0  0  0  0  0
  -21.0330   -5.9830   24.9800 C   0  0  0  0  0  3  0  0  0  0  0  0
  -21.3750   -4.6180   24.9210 C   0  0  0  0  0  0  0  0  0  0  0  0
  -21.8440   -4.0620   23.7180 C   0  0  0  0  0  3  0  0  0  0  0  0
  -21.9700   -4.8680   22.5730 C   0  0  0  0  0  0  0  0  0  0  0  0
  -22.4020   -4.3210   21.4110 F   0  0  0  0  0  0  0  0  0  0  0  0
  -21.2490   -3.8380   26.0200 F   0  0  0  0  0  0  0  0  0  0  0  0
  -22.7640  -13.6080   21.1380 C   0  0  0  0  0  0  0  0  0  0  0  0
  -22.0290  -12.9180   22.0030 N   0  0  0  0  0  0  0  0  0  0  0  0
  -22.3290  -14.6240   20.5980 O   0  0  0  0  0  0  0  0  0  0  0  0
  -22.3960  -12.0990   22.4630 H   0  0  0  0  0  0  0  0  0  0  0  0
  -21.0850  -13.2160   22.2050 H   0  0  0  0  0  0  0  0  0  0  0  0
  -25.3810  -15.2930   20.3560 N   0  0  0  0  0  0  0  0  0  0  0  0
  -24.6060  -15.9370   20.4580 H   0  0  0  0  0  0  0  0  0  0  0  0
  -26.2280  -15.7370   20.0250 H   0  0  0  0  0  0  0  0  0  0  0  0
  -28.9850  -23.0150   20.4230 C   0  0  0  0  0  3  0  0  0  0  0  0
  -27.9820  -24.4410   20.1390 C   0  0  0  0  0  3  0  0  0  0  0  0
  -28.2290  -26.0260   20.3830 O   0  0  0  0  0  0  0  0  0  0  0  0
  -24.6630  -31.9310   23.3050 C   0  0  0  0  0  0  0  0  0  0  0  0
  -27.2130  -27.0920   20.3050 C   0  0  0  0  0  0  0  0  0  0  0  0
  -23.4700  -30.5410   21.6590 C   0  0  0  0  0  3  0  0  0  0  0  0
  -24.9180  -28.9370   20.2450 C   0  0  0  0  0  0  0  0  0  0  0  0
  -26.0340  -30.7550   21.5250 C   0  0  0  0  0  2  0  0  0  0  0  0
  -26.1000  -29.3510   20.8720 C   0  0  0  0  0  0  0  0  0  0  0  0
  -27.2460  -28.4460   20.8800 C   0  0  0  0  0  3  0  0  0  0  0  0
  -26.0030  -26.8110   19.6360 C   0  0  0  0  0  3  0  0  0  0  0  0
  -24.8890  -27.6860   19.6100 C   0  0  0  0  0  3  0  0  0  0  0  0
  -23.7020  -29.8590   20.2840 C   0  0  0  0  0  2  0  0  0  0  0  0
  -24.7420  -31.1020   22.2180 N   0  0  0  0  0  0  0  0  0  0  0  0
  -23.5710  -32.2250   23.8200 O   0  0  0  0  0  0  0  0  0  0  0  0
  -22.7670  -29.5460   22.6190 C   0  0  0  0  0  0  0  0  0  0  0  0
  -21.4380  -29.3840   22.4800 N   0  0  0  0  0  0  0  0  0  0  0  0
  -23.4230  -28.9220   23.4570 O   0  0  0  0  0  0  0  0  0  0  0  0
  -20.9630  -29.9380   21.7810 H   0  0  0  0  0  0  0  0  0  0  0  0
  -18.0480  -28.1890   22.9540 C   0  0  0  0  0  0  0  0  0  0  0  0
  -20.6050  -28.4530   23.2480 C   0  0  0  0  0  3  0  0  0  0  0  0
  -20.7110  -27.0170   22.6820 C   0  0  0  0  0  2  0  0  0  0  0  0
  -19.6210  -26.6900   21.6570 C   0  0  0  0  0  2  0  0  0  0  0  0
  -18.2310  -26.8390   22.2830 C   0  0  0  0  0  2  0  0  0  0  0  0
  -19.1620  -28.9550   23.3920 C   0  0  0  0  0  0  0  0  0  0  0  0
  -18.9350  -30.2170   23.9830 C   0  0  0  0  0  3  0  0  0  0  0  0
  -17.6280  -30.7160   24.1380 C   0  0  0  0  0  3  0  0  0  0  0  0
  -16.5280  -29.9500   23.7140 C   0  0  0  0  0  3  0  0  0  0  0  0
  -16.7390  -28.6890   23.1290 C   0  0  0  0  0  3  0  0  0  0  0  0
  -25.9340  -32.5650   23.9440 C   0  0  0  0  0  3  0  0  0  0  0  0
  -25.6280  -33.9710   24.2620 N   0  0  0  0  0  0  0  0  0  0  0  0
  -25.9420  -35.0200   23.4900 C   0  0  0  0  0  0  0  0  0  0  0  0
  -26.5880  -34.9060   22.4450 O   0  0  0  0  0  0  0  0  0  0  0  0
  -25.0500  -34.1310   25.0740 H   0  0  0  0  0  0  0  0  0  0  0  0
  -24.1930  -36.8070   23.1900 C   0  0  0  0  0  1  0  0  0  0  0  0
  -25.4720  -36.4160   23.9490 C   0  0  0  0  0  3  0  0  0  0  0  0
  -27.6350  -37.3300   24.6700 C   0  0  0  0  0  1  0  0  0  0  0  0
  -26.4940  -37.4710   23.7710 N   0  0  0  0  0  0  0  0  0  0  0  0
  -26.0890  -38.3930   23.9130 H   0  0  0  0  0  0  0  0  0  0  0  0
  -26.4180  -31.8080   25.2420 C   0  0  1  0  0  0  0  0  0  0  0  0
  -25.3030  -31.5960   26.2930 C   0  0  0  0  0  1  0  0  0  0  0  0
  -26.9960  -30.4180   24.8880 C   0  0  0  0  0  1  0  0  0  0  0  0
  -27.5650  -32.5990   25.9140 C   0  0  0  0  0  1  0  0  0  0  0  0
  1 18  1  0
  2  7  1  0
  3  4  1  0
  3  2  1  0
  5  4  1  0
  5 22  1  0
  5  6  1  0
  7  1  1  0
  7  6  1  0
  8  1  2  0
  9 12  1  0
 10 13  1  0
 10  9  2  0
 11 47  1  0
 11  9  1  0
 13 18  1  0
 14 12  2  0
 15 17  1  0
 16 11  2  0
 17 16  1  0
 17 10  1  0
 18 14  1  0
 19 20  2  0
 20 39  1  0
 21 20  1  0
 21 24  1  0
 22 19  1  0
 22 23  1  0
 23 21  2  0
 24 25  1  0
 25 26  2  0
 27 30  1  0
 27 26  1  0
 28 27  2  0
 29 28  1  0
 29 24  2  0
 30 31  1  0
 31 32  1  0
 32 33  2  0
 34 33  1  0
 34 38  1  0
 35 34  2  0
 36 31  2  0
 36 35  1  0
 37 36  1  0
 39 40  1  0
 40 43  1  0
 40 42  1  0
 41 39  2  0
 44 45  1  0
 44 19  1  0
 46 44  1  0
 48 49  1  0
 48 47  2  0
 50 61  2  0
 51 49  1  0
 51 56  1  0
 52 60  1  0
 52 62  1  0
 53 59  1  0
 53 55  1  0
 54 60  1  0
 55 56  2  0
 55 54  1  0
 57 51  2  0
 58 57  1  0
 58 53  2  0
 59 52  1  0
 60 50  1  0
 62 64  2  0
 63 62  1  0
 65 63  1  0
 66 75  2  0
 66 71  1  0
 67 63  1  0
 67 71  1  0
 68 67  1  0
 69 70  1  0
 69 68  1  0
 70 66  1  0
 71 72  2  0
 72 73  1  0
 74 73  2  0
 75 74  1  0
 76 50  1  0
 76 77  1  0
 76 86  1  0
 77 80  1  0
 78 82  1  0
 78 77  1  0
 79 78  2  0
 82 81  1  0
 84 85  1  0
 84 82  1  0
 84 83  1  0
 86 89  1  1
 86 87  1  0
 88 86  1  0
M  ISO  4   1 100  18 100  48 101  49 101
M  END
>  <TORSDO>  (82) 
F 17

>  <SCORE>  (82) 
-16.032

>  <name>  (82) 
82

>  <ligand_id>  (82) 
82

>  <original_smiles>  (82) 
[H]c1c([H])c([H])c2c(c1[H])C([H])([H])C([H])([H])C([H])([H])C2([H])N([H])C(=O)C1([H])N(C(=O)C([H])(N([H])C(=O)C([H])(N([H])C([H])([H])[H])C([H])([H])[H])C(C([H])([H])[H])(C([H])([H])[H])C([H])([H])[H])C([H])([H])c2c([H])c(OC([H])([H])C([H])([H])c3nn(C([H])([H])[H])c4c3C([H])([H])C([H])([H])N(C(=O)N3C([H])([H])C([H])([H])C([H])([H])C([H])(n5nc(-c6c([H])c([H])c(Oc7c([H])c([H])c(F)c([H])c7F)c([H])c6[H])c(C(=O)N([H])[H])c5N([H])[H])C3([H])[H])C4([H])[H])c([H])c([H])c2C1([H])[H]

>  <smiles>  (82) 
[H]c1c([H])c([H])c2c(c1[H])C([H])([H])C([H])([H])C([H])([H])C2([H])N([H])C(=O)C1([H])N(C(=O)C([H])(N([H])C(=O)C([H])(N([H])C([H])([H])[H])C([H])([H])[H])C(C([H])([H])[H])(C([H])([H])[H])C([H])([H])[H])C([H])([H])c2c([H])c(OC([H])([H])C([H])([H])c3nn(C([H])([H])[H])c4c3C([H])([H])C([H])([H])N(C(=O)N3C([H])([H])C([H])([H])C([H])([H])C([H])(n5nc(-c6c([H])c([H])c(Oc7c([H])c([H])c(F)c([H])c7F)c([H])c6[H])c(C(=O)N([H])[H])c5N([H])[H])C3([H])[H])C4([H])[H])c([H])c([H])c2C1([H])[H]

$$$$
83:0:0
     RDKit          3D

 90 98  0  0  1  0  0  0  0  0999 V2000
  -31.1820  -23.1330   19.0630 C   0  0  0  0  0  3  0  0  0  0  0  0
  -30.2840  -24.0740   19.4780 C   0  0  0  0  0  3  0  0  0  0  0  0
  -29.4970  -22.0210   19.9150 C   0  0  0  0  0  0  0  0  0  0  0  0
  -30.6790  -21.8720   19.3230 N   0  0  0  0  0  0  0  0  0  0  0  0
  -29.1550  -23.4600   20.0190 N   0  0  0  0  0  0  0  0  0  0  0  0
  -28.9280  -20.6840   20.2790 N   0  0  0  0  0  0  0  0  0  0  0  0
  -28.0920  -20.8270   20.8390 H   0  0  0  0  0  0  0  0  0  0  0  0
  -28.9910  -19.1530   19.8120 C   0  0  0  0  0  2  0  0  0  0  0  0
  -30.4010  -18.0830   21.7480 C   0  0  0  0  0  1  0  0  0  0  0  0
  -30.0310  -17.8610   20.2760 C   0  0  0  0  0  3  0  0  0  0  0  0
  -30.4780  -15.0680   19.9350 C   0  0  0  0  0  0  0  0  0  0  0  0
  -30.3320  -12.6990   18.9780 C   0  0  0  0  0  2  0  0  0  0  0  0
  -29.3330  -12.6130   17.8000 C   0  0  0  0  0  2  0  0  0  0  0  0
  -27.8990  -12.3830   18.3150 C   0  0  0  0  0  2  0  0  0  0  0  0
  -27.5460  -13.3070   19.5080 C   0  0  0  0  0  3  0  0  0  0  0  0
  -28.6610  -13.3490   20.5720 C   0  0  0  0  0  2  0  0  0  0  0  0
  -29.8800  -13.7990   19.8870 N   0  0  0  0  0  0  0  0  0  0  0  0
  -31.6800  -15.1030   19.6450 O   0  0  0  0  0  0  0  0  0  0  0  0
  -29.7130  -16.2830   20.1100 N   0  0  0  0  0  0  0  0  0  0  0  0
  -28.7330  -16.0790   20.2240 H   0  0  0  0  0  0  0  0  0  0  0  0
  -25.2180  -13.8750   20.3950 C   0  0  0  0  0  0  0  0  0  0  0  0
  -24.1730  -13.0980   20.8110 C   0  0  0  0  0  0  0  0  0  0  0  0
  -24.6300  -11.7470   20.7340 C   0  0  0  0  0  0  0  0  0  0  0  0
  -26.2420  -12.9990   20.0820 N   0  0  0  0  0  0  0  0  0  0  0  0
  -25.9020  -11.7120   20.3520 N   0  0  0  0  0  0  0  0  0  0  0  0
  -23.9090  -10.4830   20.9420 C   0  0  0  0  0  0  0  0  0  0  0  0
  -24.3590   -9.5200   21.8710 C   0  0  0  0  0  3  0  0  0  0  0  0
  -23.6350   -8.3230   22.0690 C   0  0  0  0  0  3  0  0  0  0  0  0
  -22.4490   -8.0820   21.3350 C   0  0  0  0  0  0  0  0  0  0  0  0
  -22.0190   -9.0350   20.3950 C   0  0  0  0  0  3  0  0  0  0  0  0
  -22.7420  -10.2230   20.1970 C   0  0  0  0  0  3  0  0  0  0  0  0
  -21.6960   -6.9380   21.4420 O   0  0  0  0  0  0  0  0  0  0  0  0
  -21.6390   -6.2200   22.6100 C   0  0  0  0  0  0  0  0  0  0  0  0
  -21.1710   -6.7910   23.8140 C   0  0  0  0  0  3  0  0  0  0  0  0
  -21.0630   -5.9980   24.9730 C   0  0  0  0  0  3  0  0  0  0  0  0
  -21.4140   -4.6340   24.9300 C   0  0  0  0  0  0  0  0  0  0  0  0
  -21.8740   -4.0640   23.7310 C   0  0  0  0  0  3  0  0  0  0  0  0
  -21.9830   -4.8530   22.5740 C   0  0  0  0  0  0  0  0  0  0  0  0
  -22.4080   -4.2930   21.4160 F   0  0  0  0  0  0  0  0  0  0  0  0
  -21.3030   -3.8710   26.0430 F   0  0  0  0  0  0  0  0  0  0  0  0
  -22.7940  -13.5750   21.1610 C   0  0  0  0  0  0  0  0  0  0  0  0
  -22.1090  -12.8690   22.0520 N   0  0  0  0  0  0  0  0  0  0  0  0
  -22.3350  -14.6100   20.6790 O   0  0  0  0  0  0  0  0  0  0  0  0
  -22.4940  -12.0320   22.4650 H   0  0  0  0  0  0  0  0  0  0  0  0
  -21.1850  -13.1700   22.3270 H   0  0  0  0  0  0  0  0  0  0  0  0
  -25.3720  -15.2490   20.2290 N   0  0  0  0  0  0  0  0  0  0  0  0
  -24.6080  -15.8960   20.3880 H   0  0  0  0  0  0  0  0  0  0  0  0
  -26.1830  -15.6920   19.8180 H   0  0  0  0  0  0  0  0  0  0  0  0
  -28.0290  -24.5130   20.4460 C   0  0  0  0  0  2  0  0  0  0  0  0
  -28.3100  -26.0540   20.3430 O   0  0  0  0  0  0  0  0  0  0  0  0
  -24.6810  -31.8650   23.2780 C   0  0  0  0  0  0  0  0  0  0  0  0
  -27.2580  -27.0680   20.3010 C   0  0  0  0  0  0  0  0  0  0  0  0
  -23.4910  -30.4650   21.6380 C   0  0  0  0  0  3  0  0  0  0  0  0
  -24.9450  -28.8690   20.2350 C   0  0  0  0  0  0  0  0  0  0  0  0
  -26.0520  -30.7030   21.4970 C   0  0  0  0  0  2  0  0  0  0  0  0
  -26.1250  -29.3000   20.8530 C   0  0  0  0  0  0  0  0  0  0  0  0
  -27.2810  -28.4190   20.8620 C   0  0  0  0  0  3  0  0  0  0  0  0
  -26.0490  -26.7570   19.6380 C   0  0  0  0  0  3  0  0  0  0  0  0
  -24.9250  -27.6130   19.6090 C   0  0  0  0  0  3  0  0  0  0  0  0
  -23.7240  -29.7790   20.2650 C   0  0  0  0  0  2  0  0  0  0  0  0
  -24.7620  -31.0350   22.1930 N   0  0  0  0  0  0  0  0  0  0  0  0
  -23.5900  -32.1570   23.7940 O   0  0  0  0  0  0  0  0  0  0  0  0
  -22.7970  -29.4680   22.6000 C   0  0  0  0  0  0  0  0  0  0  0  0
  -21.4680  -29.3060   22.4670 N   0  0  0  0  0  0  0  0  0  0  0  0
  -23.4590  -28.8420   23.4320 O   0  0  0  0  0  0  0  0  0  0  0  0
  -20.9900  -29.8620   21.7720 H   0  0  0  0  0  0  0  0  0  0  0  0
  -18.0760  -28.1280   22.9630 C   0  0  0  0  0  0  0  0  0  0  0  0
  -20.6370  -28.3760   23.2370 C   0  0  0  0  0  3  0  0  0  0  0  0
  -20.7300  -26.9420   22.6650 C   0  0  0  0  0  2  0  0  0  0  0  0
  -19.6300  -26.6240   21.6480 C   0  0  0  0  0  2  0  0  0  0  0  0
  -18.2470  -26.7780   22.2870 C   0  0  0  0  0  2  0  0  0  0  0  0
  -19.1980  -28.8850   23.3940 C   0  0  0  0  0  0  0  0  0  0  0  0
  -18.9830  -30.1470   23.9890 C   0  0  0  0  0  3  0  0  0  0  0  0
  -17.6800  -30.6540   24.1540 C   0  0  0  0  0  3  0  0  0  0  0  0
  -16.5730  -29.8940   23.7370 C   0  0  0  0  0  3  0  0  0  0  0  0
  -16.7710  -28.6330   23.1480 C   0  0  0  0  0  3  0  0  0  0  0  0
  -25.9530  -32.5030   23.9150 C   0  0  0  0  0  3  0  0  0  0  0  0
  -26.4480  -31.7410   25.2060 C   0  0  1  0  0  0  0  0  0  0  0  0
  -25.3400  -31.5150   26.2610 C   0  0  0  0  0  1  0  0  0  0  0  0
  -27.0330  -30.3570   24.8390 C   0  0  0  0  0  1  0  0  0  0  0  0
  -27.5920  -32.5370   25.8780 C   0  0  0  0  0  1  0  0  0  0  0  0
  -25.6390  -33.9050   24.2410 N   0  0  0  0  0  0  0  0  0  0  0  0
  -25.9650  -34.9580   23.4800 C   0  0  0  0  0  0  0  0  0  0  0  0
  -26.6240  -34.8530   22.4420 O   0  0  0  0  0  0  0  0  0  0  0  0
  -25.0510  -34.0590   25.0450 H   0  0  0  0  0  0  0  0  0  0  0  0
  -24.2290  -36.7530   23.1460 C   0  0  0  0  0  1  0  0  0  0  0  0
  -25.4830  -36.3490   23.9410 C   0  0  0  0  0  3  0  0  0  0  0  0
  -27.6240  -37.2450   24.7430 C   0  0  0  0  0  1  0  0  0  0  0  0
  -26.5120  -37.4030   23.8100 N   0  0  0  0  0  0  0  0  0  0  0  0
  -26.1060  -38.3230   23.9530 H   0  0  0  0  0  0  0  0  0  0  0  0
  1  4  1  0
  1  2  2  0
  2  5  1  0
  3  5  1  0
  3  6  1  0
  4  3  2  0
  5 49  1  0
  6  7  1  0
  8 10  1  0
  8  6  1  0
 10  9  1  0
 11 19  1  0
 12 17  1  0
 13 14  1  0
 13 12  1  0
 15 14  1  0
 15 24  1  0
 15 16  1  0
 17 11  1  0
 17 16  1  0
 18 11  2  0
 19 20  1  0
 19 10  1  0
 21 22  2  0
 22 41  1  0
 23 22  1  0
 23 26  1  0
 24 25  1  0
 24 21  1  0
 25 23  2  0
 26 27  1  0
 27 28  2  0
 29 32  1  0
 29 28  1  0
 30 29  2  0
 31 30  1  0
 31 26  2  0
 32 33  1  0
 33 34  1  0
 34 35  2  0
 36 35  1  0
 36 40  1  0
 37 36  2  0
 38 33  2  0
 38 37  1  0
 39 38  1  0
 41 42  1  0
 42 45  1  0
 42 44  1  0
 43 41  2  0
 46 47  1  0
 46 21  1  0
 48 46  1  0
 50 49  1  0
 51 62  2  0
 52 50  1  0
 52 57  1  0
 53 61  1  0
 53 63  1  0
 54 60  1  0
 54 56  1  0
 55 61  1  0
 56 57  2  0
 56 55  1  0
 58 52  2  0
 59 58  1  0
 59 54  2  0
 60 53  1  0
 61 51  1  0
 63 65  2  0
 64 63  1  0
 66 64  1  0
 67 76  2  0
 67 72  1  0
 68 64  1  0
 68 72  1  0
 69 68  1  0
 70 71  1  0
 70 69  1  0
 71 67  1  0
 72 73  2  0
 73 74  1  0
 75 74  2  0
 76 75  1  0
 77 51  1  0
 77 82  1  0
 77 78  1  0
 78 81  1  1
 78 79  1  0
 80 78  1  0
 82 85  1  0
 83 87  1  0
 83 82  1  0
 84 83  2  0
 87 86  1  0
 89 87  1  0
 89 90  1  0
 89 88  1  0
M  ISO  4  11 100  19 100  49 101  50 101
M  END
>  <TORSDO>  (83) 
F 19

>  <SCORE>  (83) 
-14.523

>  <name>  (83) 
83

>  <ligand_id>  (83) 
83

>  <original_smiles>  (83) 
[H]c1nc(N([H])C([H])([H])C([H])(N([H])C(=O)N2C([H])([H])C([H])([H])C([H])([H])C([H])(n3nc(-c4c([H])c([H])c(Oc5c([H])c([H])c(F)c([H])c5F)c([H])c4[H])c(C(=O)N([H])[H])c3N([H])[H])C2([H])[H])C([H])([H])[H])n(C([H])([H])Oc2c([H])c([H])c3c(c2[H])C([H])([H])N(C(=O)C([H])(N([H])C(=O)C([H])(N([H])C([H])([H])[H])C([H])([H])[H])C(C([H])([H])[H])(C([H])([H])[H])C([H])([H])[H])C([H])(C(=O)N([H])C2([H])c4c([H])c([H])c([H])c([H])c4C([H])([H])C([H])([H])C2([H])[H])C3([H])[H])c1[H]

>  <smiles>  (83) 
[H]c1nc(N([H])C([H])([H])C([H])(N([H])C(=O)N2C([H])([H])C([H])([H])C([H])([H])C([H])(n3nc(-c4c([H])c([H])c(Oc5c([H])c([H])c(F)c([H])c5F)c([H])c4[H])c(C(=O)N([H])[H])c3N([H])[H])C2([H])[H])C([H])([H])[H])n(C([H])([H])Oc2c([H])c([H])c3c(c2[H])C([H])([H])N(C(=O)C([H])(N([H])C(=O)C([H])(N([H])C([H])([H])[H])C([H])([H])[H])C(C([H])([H])[H])(C([H])([H])[H])C([H])([H])[H])C([H])(C(=O)N([H])C2([H])c4c([H])c([H])c([H])c([H])c4C([H])([H])C([H])([H])C2([H])[H])C3([H])[H])c1[H]

$$$$
84:0:0
     RDKit          3D

 93102  0  0  1  0  0  0  0  0999 V2000
  -27.8370  -20.7440   20.8400 C   0  0  0  0  0  2  0  0  0  0  0  0
  -29.1420  -21.2990   20.2700 C   0  0  0  0  0  3  0  0  0  0  0  0
  -29.2900  -19.8310   19.6230 C   0  0  0  0  0  3  0  0  0  0  0  0
  -27.8370  -19.7400   19.7780 N   0  0  0  0  0  4  0  0  0  0  0  0
  -27.3570  -20.0790   18.9620 H   0  0  0  0  0  0  0  0  0  0  0  0
  -27.4840  -18.8430   20.0670 H   0  0  0  0  0  0  0  0  0  0  0  0
  -30.8390  -14.7280   19.6260 C   0  0  0  0  0  0  0  0  0  0  0  0
  -30.4940  -12.5290   18.4880 C   0  0  0  0  0  2  0  0  0  0  0  0
  -29.4220  -12.6820   17.3860 C   0  0  0  0  0  2  0  0  0  0  0  0
  -28.0050  -12.5000   17.9650 C   0  0  0  0  0  2  0  0  0  0  0  0
  -27.7870  -13.3130   19.2680 C   0  0  0  0  0  3  0  0  0  0  0  0
  -28.9590  -13.1120   20.2500 C   0  0  0  0  0  2  0  0  0  0  0  0
  -30.1950  -13.5100   19.5570 N   0  0  0  0  0  0  0  0  0  0  0  0
  -31.8880  -14.9060   18.9970 O   0  0  0  0  0  0  0  0  0  0  0  0
  -30.6470  -17.1360   22.2620 C   0  0  0  0  0  2  0  0  0  0  0  0
  -29.9120  -18.3790   21.7550 C   0  0  0  0  0  2  0  0  0  0  0  0
  -30.0390  -15.8590   21.6620 C   0  0  0  0  0  2  0  0  0  0  0  0
  -29.8150  -17.1080   19.4910 C   0  0  0  0  0  2  0  0  0  0  0  0
  -30.0410  -18.5280   20.2280 C   0  0  0  0  0  3  0  0  0  0  0  0
  -30.1720  -15.8040   20.1980 N   0  0  0  0  0  0  0  0  0  0  0  0
  -25.5000  -13.8820   20.2910 C   0  0  0  0  0  0  0  0  0  0  0  0
  -24.4750  -13.0940   20.7420 C   0  0  0  0  0  0  0  0  0  0  0  0
  -24.9170  -11.7450   20.5850 C   0  0  0  0  0  0  0  0  0  0  0  0
  -26.5000  -13.0110   19.8890 N   0  0  0  0  0  0  0  0  0  0  0  0
  -26.1600  -11.7170   20.1230 N   0  0  0  0  0  0  0  0  0  0  0  0
  -24.2040  -10.4770   20.7910 C   0  0  0  0  0  0  0  0  0  0  0  0
  -24.6330   -9.5360   21.7530 C   0  0  0  0  0  3  0  0  0  0  0  0
  -23.9200   -8.3340   21.9460 C   0  0  0  0  0  3  0  0  0  0  0  0
  -22.7630   -8.0640   21.1770 C   0  0  0  0  0  0  0  0  0  0  0  0
  -22.3540   -8.9930   20.2050 C   0  0  0  0  0  3  0  0  0  0  0  0
  -23.0680  -10.1870   20.0100 C   0  0  0  0  0  3  0  0  0  0  0  0
  -22.0220   -6.9110   21.2780 O   0  0  0  0  0  0  0  0  0  0  0  0
  -21.8340   -6.2790   22.4820 C   0  0  0  0  0  0  0  0  0  0  0  0
  -21.2260   -6.9310   23.5780 C   0  0  0  0  0  3  0  0  0  0  0  0
  -20.9890   -6.2230   24.7730 C   0  0  0  0  0  3  0  0  0  0  0  0
  -21.3480   -4.8660   24.8720 C   0  0  0  0  0  0  0  0  0  0  0  0
  -21.9480   -4.2140   23.7800 C   0  0  0  0  0  3  0  0  0  0  0  0
  -22.1870   -4.9190   22.5880 C   0  0  0  0  0  0  0  0  0  0  0  0
  -22.7460   -4.2810   21.5320 F   0  0  0  0  0  0  0  0  0  0  0  0
  -21.1130   -4.1840   26.0170 F   0  0  0  0  0  0  0  0  0  0  0  0
  -23.1250  -13.5630   21.2000 C   0  0  0  0  0  0  0  0  0  0  0  0
  -22.5080  -12.8410   22.1300 N   0  0  0  0  0  0  0  0  0  0  0  0
  -22.6290  -14.6030   20.7680 O   0  0  0  0  0  0  0  0  0  0  0  0
  -22.9240  -12.0000   22.5010 H   0  0  0  0  0  0  0  0  0  0  0  0
  -21.6070  -13.1370   22.4780 H   0  0  0  0  0  0  0  0  0  0  0  0
  -25.6560  -15.2600   20.1680 N   0  0  0  0  0  0  0  0  0  0  0  0
  -24.9110  -15.9070   20.3950 H   0  0  0  0  0  0  0  0  0  0  0  0
  -26.4550  -15.7000   19.7340 H   0  0  0  0  0  0  0  0  0  0  0  0
  -29.0710  -22.6250   19.5060 N   0  0  0  0  0  0  0  0  0  0  0  0
  -28.4630  -22.5550   18.6940 H   0  0  0  0  0  0  0  0  0  0  0  0
  -28.7130  -23.8800   20.2610 C   0  0  0  0  0  3  0  0  0  0  0  0
  -28.6050  -25.2300   19.4010 C   0  0  0  0  0  3  0  0  0  0  0  0
  -28.4440  -26.5510   20.0600 O   0  0  0  0  0  0  0  0  0  0  0  0
  -24.6180  -31.8000   23.1790 C   0  0  0  0  0  0  0  0  0  0  0  0
  -27.2710  -27.3250   20.0230 C   0  0  0  0  0  0  0  0  0  0  0  0
  -23.4110  -30.3920   21.5460 C   0  0  0  0  0  3  0  0  0  0  0  0
  -24.8650  -28.8820   20.0780 C   0  0  0  0  0  0  0  0  0  0  0  0
  -25.9370  -30.7650   21.3170 C   0  0  0  0  0  2  0  0  0  0  0  0
  -26.0330  -29.3930   20.6570 C   0  0  0  0  0  0  0  0  0  0  0  0
  -27.2330  -28.6240   20.6210 C   0  0  0  0  0  3  0  0  0  0  0  0
  -26.0720  -26.8570   19.4360 C   0  0  0  0  0  3  0  0  0  0  0  0
  -24.8880  -27.6200   19.4620 C   0  0  0  0  0  3  0  0  0  0  0  0
  -23.6120  -29.7300   20.1570 C   0  0  0  0  0  2  0  0  0  0  0  0
  -24.6760  -31.0030   22.0700 N   0  0  0  0  0  0  0  0  0  0  0  0
  -23.5400  -32.0500   23.7370 O   0  0  0  0  0  0  0  0  0  0  0  0
  -22.7870  -29.3560   22.5110 C   0  0  0  0  0  0  0  0  0  0  0  0
  -21.4680  -29.1300   22.3860 N   0  0  0  0  0  0  0  0  0  0  0  0
  -23.4890  -28.7550   23.3290 O   0  0  0  0  0  0  0  0  0  0  0  0
  -20.9610  -29.6680   21.6970 H   0  0  0  0  0  0  0  0  0  0  0  0
  -18.1400  -27.8010   22.8740 C   0  0  0  0  0  0  0  0  0  0  0  0
  -20.6840  -28.1660   23.1580 C   0  0  0  0  0  3  0  0  0  0  0  0
  -20.8470  -26.7360   22.5940 C   0  0  0  0  0  2  0  0  0  0  0  0
  -19.7660  -26.3630   21.5740 C   0  0  0  0  0  2  0  0  0  0  0  0
  -18.3740  -26.4560   22.2090 C   0  0  0  0  0  2  0  0  0  0  0  0
  -19.2240  -28.6110   23.3060 C   0  0  0  0  0  0  0  0  0  0  0  0
  -18.9510  -29.8690   23.8870 C   0  0  0  0  0  3  0  0  0  0  0  0
  -17.6260  -30.3170   24.0420 C   0  0  0  0  0  3  0  0  0  0  0  0
  -16.5560  -29.5060   23.6270 C   0  0  0  0  0  3  0  0  0  0  0  0
  -16.8140  -28.2500   23.0500 C   0  0  0  0  0  3  0  0  0  0  0  0
  -25.9000  -32.4510   23.7840 C   0  0  0  0  0  3  0  0  0  0  0  0
  -26.4660  -31.6670   25.0310 C   0  0  1  0  0  0  0  0  0  0  0  0
  -25.4030  -31.3720   26.1150 C   0  0  0  0  0  1  0  0  0  0  0  0
  -27.0810  -30.3170   24.5950 C   0  0  0  0  0  1  0  0  0  0  0  0
  -27.6060  -32.4800   25.6890 C   0  0  0  0  0  1  0  0  0  0  0  0
  -25.5640  -33.8340   24.1530 N   0  0  0  0  0  0  0  0  0  0  0  0
  -25.8560  -34.9120   23.4140 C   0  0  0  0  0  0  0  0  0  0  0  0
  -26.5070  -34.8490   22.3670 O   0  0  0  0  0  0  0  0  0  0  0  0
  -24.9800  -33.9540   24.9680 H   0  0  0  0  0  0  0  0  0  0  0  0
  -24.0870  -36.6770   23.1300 C   0  0  0  0  0  1  0  0  0  0  0  0
  -25.3460  -36.2780   23.9140 C   0  0  0  0  0  3  0  0  0  0  0  0
  -27.4710  -37.1880   24.7440 C   0  0  0  0  0  1  0  0  0  0  0  0
  -26.3560  -37.3540   23.8160 N   0  0  0  0  0  0  0  0  0  0  0  0
  -25.9320  -38.2630   23.9890 H   0  0  0  0  0  0  0  0  0  0  0  0
  2 49  1  0
  2  1  1  0
  3  4  1  0
  3 19  1  0
  3  2  1  0
  4  6  1  0
  4  1  1  0
  5  4  1  0
  7 20  1  0
  8 13  1  0
  9 10  1  0
  9  8  1  0
 11 10  1  0
 11 24  1  0
 11 12  1  0
 13  7  1  0
 13 12  1  0
 14  7  2  0
 16 15  1  0
 17 15  1  0
 18 20  1  0
 19 18  1  0
 19 16  1  0
 20 17  1  0
 21 22  2  0
 22 41  1  0
 23 22  1  0
 23 26  1  0
 24 25  1  0
 24 21  1  0
 25 23  2  0
 26 27  1  0
 27 28  2  0
 29 32  1  0
 29 28  1  0
 30 29  2  0
 31 30  1  0
 31 26  2  0
 32 33  1  0
 33 38  2  0
 33 34  1  0
 34 35  2  0
 35 36  1  0
 36 40  1  0
 37 36  2  0
 38 37  1  0
 39 38  1  0
 41 42  1  0
 42 45  1  0
 42 44  1  0
 43 41  2  0
 46 21  1  0
 46 47  1  0
 48 46  1  0
 49 51  1  0
 50 49  1  0
 52 53  1  0
 52 51  2  0
 54 65  2  0
 55 53  1  0
 55 60  1  0
 56 64  1  0
 56 66  1  0
 57 63  1  0
 57 59  1  0
 58 64  1  0
 59 58  1  0
 60 59  2  0
 61 62  1  0
 61 55  2  0
 62 57  2  0
 63 56  1  0
 64 54  1  0
 66 68  2  0
 67 66  1  0
 69 67  1  0
 70 79  2  0
 70 75  1  0
 71 67  1  0
 71 75  1  0
 72 71  1  0
 73 74  1  0
 73 72  1  0
 74 70  1  0
 75 76  2  0
 76 77  1  0
 78 77  2  0
 79 78  1  0
 80 54  1  0
 80 85  1  0
 80 81  1  0
 81 84  1  1
 81 82  1  0
 83 81  1  0
 85 88  1  0
 86 90  1  0
 86 85  1  0
 87 86  2  0
 90 89  1  0
 92 90  1  0
 92 93  1  0
 92 91  1  0
M  ISO  4   7 100  20 100  52 101  53 101
M  END
>  <TORSDO>  (84) 
F 19

>  <SCORE>  (84) 
-12.682

>  <name>  (84) 
84

>  <ligand_id>  (84) 
84

>  <original_smiles>  (84) 
[H]c1c([H])c([H])c2c(c1[H])C([H])([H])C([H])([H])C([H])([H])C2([H])N([H])C(=O)C1([H])N(C(=O)C([H])(N([H])C(=O)C([H])(N([H])C([H])([H])[H])C([H])([H])[H])C(C([H])([H])[H])(C([H])([H])[H])C([H])([H])[H])C([H])([H])c2c([H])c(OC([H])([H])C([H])([H])N([H])C3([H])C([H])([H])[N+]([H])([H])C3([H])C3([H])C([H])([H])N(C(=O)N4C([H])([H])C([H])([H])C([H])([H])C([H])(n5nc(-c6c([H])c([H])c(Oc7c([H])c([H])c(F)c([H])c7F)c([H])c6[H])c(C(=O)N([H])[H])c5N([H])[H])C4([H])[H])C([H])([H])C([H])([H])C3([H])[H])c([H])c([H])c2C1([H])[H]

>  <smiles>  (84) 
[H]c1c([H])c([H])c2c(c1[H])C([H])([H])C([H])([H])C([H])([H])C2([H])N([H])C(=O)C1([H])N(C(=O)C([H])(N([H])C(=O)C([H])(N([H])C([H])([H])[H])C([H])([H])[H])C(C([H])([H])[H])(C([H])([H])[H])C([H])([H])[H])C([H])([H])c2c([H])c(OC([H])([H])C([H])([H])N([H])C3([H])C([H])([H])[N+]([H])([H])C3([H])C3([H])C([H])([H])N(C(=O)N4C([H])([H])C([H])([H])C([H])([H])C([H])(n5nc(-c6c([H])c([H])c(Oc7c([H])c([H])c(F)c([H])c7F)c([H])c6[H])c(C(=O)N([H])[H])c5N([H])[H])C4([H])[H])C([H])([H])C([H])([H])C3([H])[H])c([H])c([H])c2C1([H])[H]

$$$$
85:0:0
     RDKit          3D

 92101  0  0  1  0  0  0  0  0999 V2000
  -29.0460  -21.8630   19.9220 C   0  0  0  0  0  0  0  0  0  0  0  0
  -27.7760  -23.3520   20.7320 C   0  0  0  0  0  3  0  0  0  0  0  0
  -26.6710  -24.0230   21.4760 C   0  0  0  0  0  1  0  0  0  0  0  0
  -28.0680  -22.0420   20.8680 N   0  0  0  0  0  0  0  0  0  0  0  0
  -29.3440  -23.0130   19.2730 N   0  0  0  0  0  2  0  0  0  0  0  0
  -28.5260  -23.9880   19.8160 N   0  0  0  0  0  0  0  0  0  0  0  0
  -29.6780  -20.4990   19.4920 C   0  0  0  0  0  2  0  0  0  0  0  0
  -28.7780  -18.2730   20.5290 C   0  0  0  0  0  2  0  0  0  0  0  0
  -30.7400  -18.2060   20.0250 C   0  0  0  0  0  2  0  0  0  0  0  0
  -29.9000  -17.2500   20.9010 C   0  0  0  0  0  3  0  0  0  0  0  0
  -29.8300  -19.3260   20.4550 N   0  0  1  0  0  4  0  0  0  0  0  0
  -30.0730  -19.6570   21.3770 H   0  0  0  0  0  0  0  0  0  0  0  0
  -30.5380  -14.7030   20.3850 C   0  0  0  0  0  0  0  0  0  0  0  0
  -30.3660  -12.4400   19.3330 C   0  0  0  0  0  2  0  0  0  0  0  0
  -29.4170  -12.5410   18.1140 C   0  0  0  0  0  2  0  0  0  0  0  0
  -27.9480  -12.3830   18.5500 C   0  0  0  0  0  2  0  0  0  0  0  0
  -27.5860  -13.2460   19.7860 C   0  0  0  0  0  3  0  0  0  0  0  0
  -28.6480  -13.1030   20.8940 C   0  0  0  0  0  2  0  0  0  0  0  0
  -29.9380  -13.4720   20.2990 N   0  0  0  0  0  0  0  0  0  0  0  0
  -31.7360  -14.8470   20.1260 O   0  0  0  0  0  0  0  0  0  0  0  0
  -29.6930  -15.7810   20.5490 N   0  0  0  0  0  0  0  0  0  0  0  0
  -28.7220  -15.5140   20.5520 H   0  0  0  0  0  0  0  0  0  0  0  0
  -25.1980  -13.8460   20.5150 C   0  0  0  0  0  0  0  0  0  0  0  0
  -24.1290  -13.0760   20.8810 C   0  0  0  0  0  0  0  0  0  0  0  0
  -24.5910  -11.7240   20.8570 C   0  0  0  0  0  0  0  0  0  0  0  0
  -26.2410  -12.9630   20.2760 N   0  0  0  0  0  0  0  0  0  0  0  0
  -25.8810  -11.6820   20.5450 N   0  0  0  0  0  0  0  0  0  0  0  0
  -23.8630  -10.4650   21.0530 C   0  0  0  0  0  0  0  0  0  0  0  0
  -24.3050   -9.4890   21.9750 C   0  0  0  0  0  3  0  0  0  0  0  0
  -23.5750   -8.2950   22.1590 C   0  0  0  0  0  3  0  0  0  0  0  0
  -22.3910   -8.0660   21.4180 C   0  0  0  0  0  0  0  0  0  0  0  0
  -21.9660   -9.0320   20.4890 C   0  0  0  0  0  3  0  0  0  0  0  0
  -22.6940  -10.2150   20.3030 C   0  0  0  0  0  3  0  0  0  0  0  0
  -21.6320   -6.9240   21.5120 O   0  0  0  0  0  0  0  0  0  0  0  0
  -21.6160   -6.1630   22.6540 C   0  0  0  0  0  0  0  0  0  0  0  0
  -21.2510   -6.7050   23.9040 C   0  0  0  0  0  3  0  0  0  0  0  0
  -21.1770   -5.8710   25.0380 C   0  0  0  0  0  3  0  0  0  0  0  0
  -21.4650   -4.4970   24.9220 C   0  0  0  0  0  0  0  0  0  0  0  0
  -21.8260   -3.9560   23.6780 C   0  0  0  0  0  3  0  0  0  0  0  0
  -21.8990   -4.7880   22.5450 C   0  0  0  0  0  0  0  0  0  0  0  0
  -22.2270   -4.2570   21.3440 F   0  0  0  0  0  0  0  0  0  0  0  0
  -21.3860   -3.6950   26.0100 F   0  0  0  0  0  0  0  0  0  0  0  0
  -22.7320  -13.5610   21.1460 C   0  0  0  0  0  0  0  0  0  0  0  0
  -22.0030  -12.8700   22.0190 N   0  0  0  0  0  0  0  0  0  0  0  0
  -22.2990  -14.5830   20.6140 O   0  0  0  0  0  0  0  0  0  0  0  0
  -22.3720  -12.0440   22.4670 H   0  0  0  0  0  0  0  0  0  0  0  0
  -21.0660  -13.1760   22.2390 H   0  0  0  0  0  0  0  0  0  0  0  0
  -25.3550  -15.2180   20.3440 N   0  0  0  0  0  0  0  0  0  0  0  0
  -24.5710  -15.8510   20.4710 H   0  0  0  0  0  0  0  0  0  0  0  0
  -26.1770  -15.6720   19.9660 H   0  0  0  0  0  0  0  0  0  0  0  0
  -28.4800  -25.3750   19.2080 C   0  0  0  0  0  2  0  0  0  0  0  0
  -28.3220  -26.4850   20.1300 O   0  0  0  0  0  0  0  0  0  0  0  0
  -24.6200  -31.8740   23.2300 C   0  0  0  0  0  0  0  0  0  0  0  0
  -27.1800  -27.3060   20.0920 C   0  0  0  0  0  0  0  0  0  0  0  0
  -23.3960  -30.4830   21.6050 C   0  0  0  0  0  3  0  0  0  0  0  0
  -24.8140  -28.9280   20.1550 C   0  0  0  0  0  0  0  0  0  0  0  0
  -25.9370  -30.7770   21.4020 C   0  0  0  0  0  2  0  0  0  0  0  0
  -25.9950  -29.4070   20.7330 C   0  0  0  0  0  0  0  0  0  0  0  0
  -27.1770  -28.6070   20.6900 C   0  0  0  0  0  3  0  0  0  0  0  0
  -25.9560  -26.8650   19.5330 C   0  0  0  0  0  3  0  0  0  0  0  0
  -24.7940  -27.6570   19.5580 C   0  0  0  0  0  3  0  0  0  0  0  0
  -23.5870  -29.8180   20.2200 C   0  0  0  0  0  2  0  0  0  0  0  0
  -24.6720  -31.0580   22.1390 N   0  0  0  0  0  0  0  0  0  0  0  0
  -23.5390  -32.1580   23.7710 O   0  0  0  0  0  0  0  0  0  0  0  0
  -22.7360  -29.4660   22.5650 C   0  0  0  0  0  0  0  0  0  0  0  0
  -21.4080  -29.2920   22.4400 N   0  0  0  0  0  0  0  0  0  0  0  0
  -23.4160  -28.8380   23.3800 O   0  0  0  0  0  0  0  0  0  0  0  0
  -20.9140  -29.8530   21.7610 H   0  0  0  0  0  0  0  0  0  0  0  0
  -18.0360  -28.0890   22.9570 C   0  0  0  0  0  0  0  0  0  0  0  0
  -20.5950  -28.3550   23.2170 C   0  0  0  0  0  3  0  0  0  0  0  0
  -20.6950  -26.9190   22.6510 C   0  0  0  0  0  2  0  0  0  0  0  0
  -19.5920  -26.5900   21.6400 C   0  0  0  0  0  2  0  0  0  0  0  0
  -18.2120  -26.7380   22.2860 C   0  0  0  0  0  2  0  0  0  0  0  0
  -19.1550  -28.8560   23.3790 C   0  0  0  0  0  0  0  0  0  0  0  0
  -18.9340  -30.1210   23.9650 C   0  0  0  0  0  3  0  0  0  0  0  0
  -17.6290  -30.6220   24.1300 C   0  0  0  0  0  3  0  0  0  0  0  0
  -16.5260  -29.8550   23.7200 C   0  0  0  0  0  3  0  0  0  0  0  0
  -16.7300  -28.5890   23.1430 C   0  0  0  0  0  3  0  0  0  0  0  0
  -25.9070  -32.5050   23.8450 C   0  0  0  0  0  3  0  0  0  0  0  0
  -26.4310  -31.7310   25.1150 C   0  0  1  0  0  0  0  0  0  0  0  0
  -25.3460  -31.4920   26.1930 C   0  0  0  0  0  1  0  0  0  0  0  0
  -27.0050  -30.3530   24.7160 C   0  0  0  0  0  1  0  0  0  0  0  0
  -27.5920  -32.5190   25.7650 C   0  0  0  0  0  1  0  0  0  0  0  0
  -25.5990  -33.9030   24.1820 N   0  0  0  0  0  0  0  0  0  0  0  0
  -25.9180  -34.9610   23.4270 C   0  0  0  0  0  0  0  0  0  0  0  0
  -26.5720  -34.8630   22.3840 O   0  0  0  0  0  0  0  0  0  0  0  0
  -25.0260  -34.0500   25.0000 H   0  0  0  0  0  0  0  0  0  0  0  0
  -24.1820  -36.7500   23.0980 C   0  0  0  0  0  1  0  0  0  0  0  0
  -25.4350  -36.3490   23.8950 C   0  0  0  0  0  3  0  0  0  0  0  0
  -27.5850  -37.2260   24.6930 C   0  0  0  0  0  1  0  0  0  0  0  0
  -26.4660  -37.4040   23.7720 N   0  0  0  0  0  0  0  0  0  0  0  0
  -26.0650  -38.3250   23.9310 H   0  0  0  0  0  0  0  0  0  0  0  0
  1  4  2  0
  2  4  1  0
  2  3  1  0
  5  6  1  0
  5  1  1  0
  6  2  1  0
  7  1  1  0
  7 11  1  0
  8 10  1  0
  9 11  1  0
  9 10  1  0
 10 21  1  0
 11  8  1  0
 11 12  1  1
 13 21  1  0
 14 19  1  0
 15 16  1  0
 15 14  1  0
 17 16  1  0
 17 26  1  0
 17 18  1  0
 19 13  1  0
 19 18  1  0
 20 13  2  0
 21 22  1  0
 23 24  2  0
 24 43  1  0
 25 24  1  0
 25 28  1  0
 26 23  1  0
 26 27  1  0
 27 25  2  0
 28 29  1  0
 29 30  2  0
 31 34  1  0
 31 30  1  0
 32 31  2  0
 33 32  1  0
 33 28  2  0
 34 35  1  0
 35 36  1  0
 36 37  2  0
 38 37  1  0
 38 42  1  0
 39 38  2  0
 40 35  2  0
 40 39  1  0
 41 40  1  0
 43 44  1  0
 44 47  1  0
 44 46  1  0
 45 43  2  0
 48 49  1  0
 48 23  1  0
 50 48  1  0
 51  6  1  0
 51 52  1  0
 53 64  2  0
 54 52  1  0
 54 59  1  0
 55 63  1  0
 55 65  1  0
 56 62  1  0
 56 58  1  0
 57 63  1  0
 58 57  1  0
 59 58  2  0
 60 61  1  0
 60 54  2  0
 61 56  2  0
 62 55  1  0
 63 53  1  0
 65 67  2  0
 66 65  1  0
 68 66  1  0
 69 78  2  0
 69 74  1  0
 70 66  1  0
 70 74  1  0
 71 70  1  0
 72 73  1  0
 72 71  1  0
 73 69  1  0
 74 75  2  0
 75 76  1  0
 77 76  2  0
 78 77  1  0
 79 53  1  0
 79 84  1  0
 79 80  1  0
 80 83  1  1
 80 81  1  0
 82 80  1  0
 84 87  1  0
 85 89  1  0
 85 84  1  0
 86 85  2  0
 89 88  1  0
 91 89  1  0
 91 92  1  0
 91 90  1  0
M  ISO  4  13 100  21 100  51 101  52 101
M  END
>  <TORSDO>  (85) 
F 19

>  <SCORE>  (85) 
-14.340

>  <name>  (85) 
85

>  <ligand_id>  (85) 
85

>  <original_smiles>  (85) 
[H]c1c([H])c([H])c2c(c1[H])C([H])([H])C([H])([H])C([H])([H])C2([H])N([H])C(=O)C1([H])N(C(=O)C([H])(N([H])C(=O)C([H])(N([H])C([H])([H])[H])C([H])([H])[H])C(C([H])([H])[H])(C([H])([H])[H])C([H])([H])[H])C([H])([H])c2c([H])c(OC([H])([H])n3nc(C([H])([H])[N+]4([H])C([H])([H])C([H])(N([H])C(=O)N5C([H])([H])C([H])([H])C([H])([H])C([H])(n6nc(-c7c([H])c([H])c(Oc8c([H])c([H])c(F)c([H])c8F)c([H])c7[H])c(C(=O)N([H])[H])c6N([H])[H])C5([H])[H])C4([H])[H])nc3C([H])([H])[H])c([H])c([H])c2C1([H])[H]

>  <smiles>  (85) 
[H]c1c([H])c([H])c2c(c1[H])C([H])([H])C([H])([H])C([H])([H])C2([H])N([H])C(=O)C1([H])N(C(=O)C([H])(N([H])C(=O)C([H])(N([H])C([H])([H])[H])C([H])([H])[H])C(C([H])([H])[H])(C([H])([H])[H])C([H])([H])[H])C([H])([H])c2c([H])c(OC([H])([H])n3nc(C([H])([H])[N+]4([H])C([H])([H])C([H])(N([H])C(=O)N5C([H])([H])C([H])([H])C([H])([H])C([H])(n6nc(-c7c([H])c([H])c(Oc8c([H])c([H])c(F)c([H])c8F)c([H])c7[H])c(C(=O)N([H])[H])c6N([H])[H])C5([H])[H])C4([H])[H])nc3C([H])([H])[H])c([H])c([H])c2C1([H])[H]

$$$$
86:0:0
     RDKit          3D

 93102  0  0  1  0  0  0  0  0999 V2000
  -30.4850  -22.2440   20.8660 C   0  0  0  0  0  3  0  0  0  0  0  0
  -29.9690  -23.5690   20.6980 C   0  0  0  0  0  0  0  0  0  0  0  0
  -28.7000  -23.7160   20.0770 C   0  0  0  0  0  0  0  0  0  0  0  0
  -29.7410  -21.1120   20.4260 C   0  0  0  0  0  0  0  0  0  0  0  0
  -28.0430  -22.5760   19.6830 N   0  0  0  0  0  0  0  0  0  0  0  0
  -28.5310  -21.3230   19.8470 N   0  0  0  0  0  0  0  0  0  0  0  0
  -30.2690  -19.7870   20.5610 N   0  0  0  0  0  0  0  0  0  0  0  0
  -31.1920  -19.7440   20.9780 H   0  0  0  0  0  0  0  0  0  0  0  0
  -30.7290  -14.7760   20.0370 C   0  0  0  0  0  0  0  0  0  0  0  0
  -30.4090  -12.5690   18.9200 C   0  0  0  0  0  2  0  0  0  0  0  0
  -29.3910  -12.6910   17.7650 C   0  0  0  0  0  2  0  0  0  0  0  0
  -27.9550  -12.4930   18.2830 C   0  0  0  0  0  2  0  0  0  0  0  0
  -27.6630  -13.3220   19.5610 C   0  0  0  0  0  3  0  0  0  0  0  0
  -28.7960  -13.1700   20.6000 C   0  0  0  0  0  2  0  0  0  0  0  0
  -30.0440  -13.5810   19.9410 N   0  0  0  0  0  0  0  0  0  0  0  0
  -31.8720  -14.8450   19.5760 O   0  0  0  0  0  0  0  0  0  0  0  0
  -29.0680  -17.7980   21.5810 C   0  0  0  0  0  2  0  0  0  0  0  0
  -29.0580  -16.2680   21.3160 C   0  0  0  0  0  2  0  0  0  0  0  0
  -30.5530  -17.3060   19.8080 C   0  0  0  0  0  2  0  0  0  0  0  0
  -29.6120  -18.4630   20.3150 C   0  0  0  0  0  3  0  0  0  0  0  0
  -30.0610  -15.9710   20.2860 N   0  0  0  0  0  0  0  0  0  0  0  0
  -25.3120  -13.8590   20.4440 C   0  0  0  0  0  0  0  0  0  0  0  0
  -24.2830  -13.0590   20.8610 C   0  0  0  0  0  0  0  0  0  0  0  0
  -24.7630  -11.7170   20.7650 C   0  0  0  0  0  0  0  0  0  0  0  0
  -26.3540  -13.0040   20.1240 N   0  0  0  0  0  0  0  0  0  0  0  0
  -26.0330  -11.7080   20.3760 N   0  0  0  0  0  0  0  0  0  0  0  0
  -24.0680  -10.4390   20.9630 C   0  0  0  0  0  0  0  0  0  0  0  0
  -24.5360   -9.4790   21.8880 C   0  0  0  0  0  3  0  0  0  0  0  0
  -23.8380   -8.2660   22.0760 C   0  0  0  0  0  3  0  0  0  0  0  0
  -22.6600   -8.0040   21.3370 C   0  0  0  0  0  0  0  0  0  0  0  0
  -22.2110   -8.9520   20.4020 C   0  0  0  0  0  3  0  0  0  0  0  0
  -22.9090  -10.1560   20.2120 C   0  0  0  0  0  3  0  0  0  0  0  0
  -21.9310   -6.8430   21.4350 O   0  0  0  0  0  0  0  0  0  0  0  0
  -21.8420   -6.1460   22.6130 C   0  0  0  0  0  0  0  0  0  0  0  0
  -21.3290   -6.7340   23.7900 C   0  0  0  0  0  3  0  0  0  0  0  0
  -21.1920   -5.9600   24.9600 C   0  0  0  0  0  3  0  0  0  0  0  0
  -21.5550   -4.6010   24.9540 C   0  0  0  0  0  0  0  0  0  0  0  0
  -22.0620   -4.0130   23.7810 C   0  0  0  0  0  3  0  0  0  0  0  0
  -22.2010   -4.7820   22.6140 C   0  0  0  0  0  0  0  0  0  0  0  0
  -22.6690   -4.2060   21.4810 F   0  0  0  0  0  0  0  0  0  0  0  0
  -21.4160   -3.8560   26.0760 F   0  0  0  0  0  0  0  0  0  0  0  0
  -22.8990  -13.5070   21.2310 C   0  0  0  0  0  0  0  0  0  0  0  0
  -22.2420  -12.7840   22.1320 N   0  0  0  0  0  0  0  0  0  0  0  0
  -22.4110  -14.5320   20.7590 O   0  0  0  0  0  0  0  0  0  0  0  0
  -22.6510  -11.9540   22.5350 H   0  0  0  0  0  0  0  0  0  0  0  0
  -21.3170  -13.0650   22.4230 H   0  0  0  0  0  0  0  0  0  0  0  0
  -25.4390  -15.2360   20.2880 N   0  0  0  0  0  0  0  0  0  0  0  0
  -24.6650  -15.8690   20.4550 H   0  0  0  0  0  0  0  0  0  0  0  0
  -26.2490  -15.6960   19.8940 H   0  0  0  0  0  0  0  0  0  0  0  0
  -30.2420  -25.3110   22.5170 C   0  0  0  0  0  1  0  0  0  0  0  0
  -30.7650  -24.7680   21.1820 C   0  0  0  0  0  2  0  0  0  0  0  0
  -27.8910  -25.0450   19.7850 C   0  0  0  0  0  2  0  0  0  0  0  0
  -28.2520  -26.4500   20.1480 O   0  0  0  0  0  0  0  0  0  0  0  0
  -24.6340  -31.9090   23.2630 C   0  0  0  0  0  0  0  0  0  0  0  0
  -27.1820  -27.3750   20.0890 C   0  0  0  0  0  0  0  0  0  0  0  0
  -23.4100  -30.5500   21.6110 C   0  0  0  0  0  3  0  0  0  0  0  0
  -24.8380  -29.0360   20.1350 C   0  0  0  0  0  0  0  0  0  0  0  0
  -25.9550  -30.8500   21.4170 C   0  0  0  0  0  2  0  0  0  0  0  0
  -26.0190  -29.4850   20.7400 C   0  0  0  0  0  0  0  0  0  0  0  0
  -27.1930  -28.6660   20.7150 C   0  0  0  0  0  3  0  0  0  0  0  0
  -25.9760  -27.0160   19.4310 C   0  0  0  0  0  3  0  0  0  0  0  0
  -24.8200  -27.8060   19.4730 C   0  0  0  0  0  3  0  0  0  0  0  0
  -23.6080  -29.9140   20.2140 C   0  0  0  0  0  2  0  0  0  0  0  0
  -24.6850  -31.1190   22.1530 N   0  0  0  0  0  0  0  0  0  0  0  0
  -23.5560  -32.1830   23.8110 O   0  0  0  0  0  0  0  0  0  0  0  0
  -22.7510  -29.5130   22.5530 C   0  0  0  0  0  0  0  0  0  0  0  0
  -21.4260  -29.3280   22.4190 N   0  0  0  0  0  0  0  0  0  0  0  0
  -23.4310  -28.8810   23.3660 O   0  0  0  0  0  0  0  0  0  0  0  0
  -20.9360  -29.8910   21.7380 H   0  0  0  0  0  0  0  0  0  0  0  0
  -18.0530  -28.1060   22.8970 C   0  0  0  0  0  0  0  0  0  0  0  0
  -20.6100  -28.3790   23.1780 C   0  0  0  0  0  3  0  0  0  0  0  0
  -20.7220  -26.9530   22.5900 C   0  0  0  0  0  2  0  0  0  0  0  0
  -19.6260  -26.6330   21.5690 C   0  0  0  0  0  2  0  0  0  0  0  0
  -18.2410  -26.7630   22.2100 C   0  0  0  0  0  2  0  0  0  0  0  0
  -19.1670  -28.8710   23.3370 C   0  0  0  0  0  0  0  0  0  0  0  0
  -18.9370  -30.1270   23.9400 C   0  0  0  0  0  3  0  0  0  0  0  0
  -17.6280  -30.6180   24.1060 C   0  0  0  0  0  3  0  0  0  0  0  0
  -16.5310  -29.8490   23.6810 C   0  0  0  0  0  3  0  0  0  0  0  0
  -16.7440  -28.5950   23.0820 C   0  0  0  0  0  3  0  0  0  0  0  0
  -25.9240  -32.5250   23.8840 C   0  0  0  0  0  3  0  0  0  0  0  0
  -25.6260  -33.9220   24.2290 N   0  0  0  0  0  0  0  0  0  0  0  0
  -25.9410  -34.9780   23.4680 C   0  0  0  0  0  0  0  0  0  0  0  0
  -26.5830  -34.8800   22.4180 O   0  0  0  0  0  0  0  0  0  0  0  0
  -25.0540  -34.0740   25.0470 H   0  0  0  0  0  0  0  0  0  0  0  0
  -24.2050  -36.7760   23.1740 C   0  0  0  0  0  1  0  0  0  0  0  0
  -25.4700  -36.3650   23.9460 C   0  0  0  0  0  3  0  0  0  0  0  0
  -27.6260  -37.2480   24.7210 C   0  0  0  0  0  1  0  0  0  0  0  0
  -26.5000  -37.4180   23.8060 N   0  0  0  0  0  0  0  0  0  0  0  0
  -26.0980  -38.3380   23.9650 H   0  0  0  0  0  0  0  0  0  0  0  0
  -26.4390  -31.7370   25.1500 C   0  0  1  0  0  0  0  0  0  0  0  0
  -25.3470  -31.4950   26.2190 C   0  0  0  0  0  1  0  0  0  0  0  0
  -27.0130  -30.3590   24.7450 C   0  0  0  0  0  1  0  0  0  0  0  0
  -27.5960  -32.5170   25.8170 C   0  0  0  0  0  1  0  0  0  0  0  0
  2  1  1  0
  2 51  1  0
  3  2  2  0
  4  7  1  0
  4  1  2  0
  5  6  2  0
  5  3  1  0
  6  4  1  0
  7  8  1  0
  9 21  1  0
 10 15  1  0
 11 12  1  0
 11 10  1  0
 13 12  1  0
 13 25  1  0
 13 14  1  0
 15  9  1  0
 15 14  1  0
 16  9  2  0
 18 17  1  0
 19 21  1  0
 19 20  1  0
 20  7  1  0
 20 17  1  0
 21 18  1  0
 22 23  2  0
 23 42  1  0
 24 23  1  0
 24 27  1  0
 25 26  1  0
 25 22  1  0
 26 24  2  0
 27 28  1  0
 28 29  2  0
 30 33  1  0
 30 29  1  0
 31 30  2  0
 32 31  1  0
 32 27  2  0
 33 34  1  0
 34 39  2  0
 34 35  1  0
 35 36  2  0
 37 36  1  0
 37 41  1  0
 38 37  2  0
 39 38  1  0
 40 39  1  0
 42 43  1  0
 43 46  1  0
 43 45  1  0
 44 42  2  0
 47 22  1  0
 47 48  1  0
 49 47  1  0
 51 50  1  0
 52  3  1  0
 52 53  1  0
 54 65  2  0
 55 53  1  0
 55 60  1  0
 56 64  1  0
 56 66  1  0
 57 63  1  0
 57 59  1  0
 58 64  1  0
 59 58  1  0
 60 59  2  0
 61 62  1  0
 61 55  2  0
 62 57  2  0
 63 56  1  0
 64 54  1  0
 66 68  2  0
 67 66  1  0
 69 67  1  0
 70 79  2  0
 70 75  1  0
 71 67  1  0
 71 75  1  0
 72 71  1  0
 73 74  1  0
 73 72  1  0
 74 70  1  0
 75 76  2  0
 76 77  1  0
 78 77  2  0
 79 78  1  0
 80 54  1  0
 80 81  1  0
 80 90  1  0
 81 84  1  0
 82 86  1  0
 82 81  1  0
 83 82  2  0
 86 85  1  0
 88 86  1  0
 88 89  1  0
 88 87  1  0
 90 93  1  1
 90 91  1  0
 92 90  1  0
M  ISO  4   9 100  21 100  52 101  53 101
M  END
>  <TORSDO>  (86) 
F 18

>  <SCORE>  (86) 
-13.539

>  <name>  (86) 
86

>  <ligand_id>  (86) 
86

>  <original_smiles>  (86) 
[H]c1c([H])c([H])c2c(c1[H])C([H])([H])C([H])([H])C([H])([H])C2([H])N([H])C(=O)C1([H])N(C(=O)C([H])(N([H])C(=O)C([H])(N([H])C([H])([H])[H])C([H])([H])[H])C(C([H])([H])[H])(C([H])([H])[H])C([H])([H])[H])C([H])([H])c2c([H])c(OC([H])([H])c3nnc(N([H])C4([H])C([H])([H])N(C(=O)N5C([H])([H])C([H])([H])C([H])([H])C([H])(n6nc(-c7c([H])c([H])c(Oc8c([H])c([H])c(F)c([H])c8F)c([H])c7[H])c(C(=O)N([H])[H])c6N([H])[H])C5([H])[H])C([H])([H])C4([H])[H])c([H])c3C([H])([H])C([H])([H])[H])c([H])c([H])c2C1([H])[H]

>  <smiles>  (86) 
[H]c1c([H])c([H])c2c(c1[H])C([H])([H])C([H])([H])C([H])([H])C2([H])N([H])C(=O)C1([H])N(C(=O)C([H])(N([H])C(=O)C([H])(N([H])C([H])([H])[H])C([H])([H])[H])C(C([H])([H])[H])(C([H])([H])[H])C([H])([H])[H])C([H])([H])c2c([H])c(OC([H])([H])c3nnc(N([H])C4([H])C([H])([H])N(C(=O)N5C([H])([H])C([H])([H])C([H])([H])C([H])(n6nc(-c7c([H])c([H])c(Oc8c([H])c([H])c(F)c([H])c8F)c([H])c7[H])c(C(=O)N([H])[H])c6N([H])[H])C5([H])[H])C([H])([H])C4([H])[H])c([H])c3C([H])([H])C([H])([H])[H])c([H])c([H])c2C1([H])[H]

$$$$
87:0:0
     RDKit          3D

 91 99  0  0  1  0  0  0  0  0999 V2000
  -29.0120  -23.3170   20.0530 C   0  0  0  0  0  3  0  0  0  0  0  0
  -30.3440  -23.6570   20.5250 N   0  0  0  0  0  0  0  0  0  0  0  0
  -30.3130  -23.7710   21.5340 H   0  0  0  0  0  0  0  0  0  0  0  0
  -30.5550  -24.5940   20.1930 H   0  0  0  0  0  0  0  0  0  0  0  0
  -28.7420  -21.7020   20.5210 C   0  0  0  0  0  2  0  0  0  0  0  0
  -29.5510  -20.4730   19.9220 N   0  0  0  0  0  4  0  0  0  0  0  0
  -29.3160  -20.4280   18.9450 H   0  0  0  0  0  0  0  0  0  0  0  0
  -30.5070  -20.7850   19.9570 H   0  0  0  0  0  0  0  0  0  0  0  0
  -30.6060  -15.0490   19.9900 C   0  0  0  0  0  0  0  0  0  0  0  0
  -30.3740  -12.7170   18.9930 C   0  0  0  0  0  2  0  0  0  0  0  0
  -29.3680  -12.6670   17.8210 C   0  0  0  0  0  2  0  0  0  0  0  0
  -27.9410  -12.4270   18.3440 C   0  0  0  0  0  2  0  0  0  0  0  0
  -27.6010  -13.3380   19.5510 C   0  0  0  0  0  3  0  0  0  0  0  0
  -28.7290  -13.3580   20.6090 C   0  0  0  0  0  2  0  0  0  0  0  0
  -29.9480  -13.8110   19.9240 N   0  0  0  0  0  0  0  0  0  0  0  0
  -31.7880  -15.0400   19.6240 O   0  0  0  0  0  0  0  0  0  0  0  0
  -28.2610  -18.1650   20.5060 C   0  0  0  0  0  2  0  0  0  0  0  0
  -28.6520  -16.6570   20.7780 C   0  0  0  0  0  2  0  0  0  0  0  0
  -30.4680  -17.7600   19.8440 C   0  0  0  0  0  2  0  0  0  0  0  0
  -29.5630  -18.9760   20.4870 C   0  0  0  0  0  3  0  0  0  0  0  0
  -29.9580  -16.3280   20.1680 N   0  0  0  0  0  0  0  0  0  0  0  0
  -25.2720  -13.8970   20.4550 C   0  0  0  0  0  0  0  0  0  0  0  0
  -24.2360  -13.1140   20.8770 C   0  0  0  0  0  0  0  0  0  0  0  0
  -24.6970  -11.7650   20.7820 C   0  0  0  0  0  0  0  0  0  0  0  0
  -26.2990  -13.0280   20.1300 N   0  0  0  0  0  0  0  0  0  0  0  0
  -25.9660  -11.7380   20.3910 N   0  0  0  0  0  0  0  0  0  0  0  0
  -23.9820  -10.5000   20.9810 C   0  0  0  0  0  0  0  0  0  0  0  0
  -24.4380   -9.5290   21.8990 C   0  0  0  0  0  3  0  0  0  0  0  0
  -23.7180   -8.3290   22.0870 C   0  0  0  0  0  3  0  0  0  0  0  0
  -22.5300   -8.0920   21.3560 C   0  0  0  0  0  0  0  0  0  0  0  0
  -22.0930   -9.0510   20.4260 C   0  0  0  0  0  3  0  0  0  0  0  0
  -22.8120  -10.2430   20.2350 C   0  0  0  0  0  3  0  0  0  0  0  0
  -21.7800   -6.9450   21.4550 O   0  0  0  0  0  0  0  0  0  0  0  0
  -21.7220   -6.2220   22.6190 C   0  0  0  0  0  0  0  0  0  0  0  0
  -21.2630   -6.7910   23.8270 C   0  0  0  0  0  3  0  0  0  0  0  0
  -21.1540   -5.9930   24.9840 C   0  0  0  0  0  3  0  0  0  0  0  0
  -21.4930   -4.6270   24.9330 C   0  0  0  0  0  0  0  0  0  0  0  0
  -21.9450   -4.0580   23.7290 C   0  0  0  0  0  3  0  0  0  0  0  0
  -22.0570   -4.8530   22.5750 C   0  0  0  0  0  0  0  0  0  0  0  0
  -22.4730   -4.2960   21.4120 F   0  0  0  0  0  0  0  0  0  0  0  0
  -21.3810   -3.8590   26.0410 F   0  0  0  0  0  0  0  0  0  0  0  0
  -22.8590  -13.5860   21.2440 C   0  0  0  0  0  0  0  0  0  0  0  0
  -22.1820  -12.8660   22.1310 N   0  0  0  0  0  0  0  0  0  0  0  0
  -22.3970  -14.6270   20.7820 O   0  0  0  0  0  0  0  0  0  0  0  0
  -22.5710  -12.0230   22.5270 H   0  0  0  0  0  0  0  0  0  0  0  0
  -21.2610  -13.1640   22.4200 H   0  0  0  0  0  0  0  0  0  0  0  0
  -25.4050  -15.2720   20.2930 N   0  0  0  0  0  0  0  0  0  0  0  0
  -24.6300  -15.9050   20.4580 H   0  0  0  0  0  0  0  0  0  0  0  0
  -26.2030  -15.7260   19.8700 H   0  0  0  0  0  0  0  0  0  0  0  0
  -28.0280  -24.6500   20.4360 C   0  0  0  0  0  2  0  0  0  0  0  0
  -28.3000  -26.1840   20.2400 O   0  0  0  0  0  0  0  0  0  0  0  0
  -24.6090  -31.8800   23.1940 C   0  0  0  0  0  0  0  0  0  0  0  0
  -27.2350  -27.1620   20.1980 C   0  0  0  0  0  0  0  0  0  0  0  0
  -23.4280  -30.4710   21.5530 C   0  0  0  0  0  3  0  0  0  0  0  0
  -24.8960  -28.9010   20.1430 C   0  0  0  0  0  0  0  0  0  0  0  0
  -25.9830  -30.7500   21.4030 C   0  0  0  0  0  2  0  0  0  0  0  0
  -26.0690  -29.3550   20.7580 C   0  0  0  0  0  0  0  0  0  0  0  0
  -27.2410  -28.5040   20.7650 C   0  0  0  0  0  3  0  0  0  0  0  0
  -26.0350  -26.8180   19.5370 C   0  0  0  0  0  3  0  0  0  0  0  0
  -24.8920  -27.6470   19.5170 C   0  0  0  0  0  3  0  0  0  0  0  0
  -23.6620  -29.7910   20.1790 C   0  0  0  0  0  2  0  0  0  0  0  0
  -24.6930  -31.0560   22.1040 N   0  0  0  0  0  0  0  0  0  0  0  0
  -23.5170  -32.1590   23.7140 O   0  0  0  0  0  0  0  0  0  0  0  0
  -22.7510  -29.4630   22.5140 C   0  0  0  0  0  0  0  0  0  0  0  0
  -21.4210  -29.3000   22.3960 N   0  0  0  0  0  0  0  0  0  0  0  0
  -23.4240  -28.8280   23.3300 O   0  0  0  0  0  0  0  0  0  0  0  0
  -20.9330  -29.8630   21.7130 H   0  0  0  0  0  0  0  0  0  0  0  0
  -18.0330  -28.1300   22.9320 C   0  0  0  0  0  0  0  0  0  0  0  0
  -20.5980  -28.3640   23.1680 C   0  0  0  0  0  3  0  0  0  0  0  0
  -20.6780  -26.9360   22.5780 C   0  0  0  0  0  2  0  0  0  0  0  0
  -19.5590  -26.6350   21.5750 C   0  0  0  0  0  2  0  0  0  0  0  0
  -18.1870  -26.7860   22.2380 C   0  0  0  0  0  2  0  0  0  0  0  0
  -19.1650  -28.8780   23.3540 C   0  0  0  0  0  0  0  0  0  0  0  0
  -18.9650  -30.1340   23.9650 C   0  0  0  0  0  3  0  0  0  0  0  0
  -17.6670  -30.6440   24.1560 C   0  0  0  0  0  3  0  0  0  0  0  0
  -16.5510  -29.8950   23.7480 C   0  0  0  0  0  3  0  0  0  0  0  0
  -16.7340  -28.6380   23.1420 C   0  0  0  0  0  3  0  0  0  0  0  0
  -25.8780  -32.5270   23.8260 C   0  0  0  0  0  3  0  0  0  0  0  0
  -26.3850  -31.7670   25.1140 C   0  0  1  0  0  0  0  0  0  0  0  0
  -25.2820  -31.5290   26.1720 C   0  0  0  0  0  1  0  0  0  0  0  0
  -26.9810  -30.3900   24.7410 C   0  0  0  0  0  1  0  0  0  0  0  0
  -27.5240  -32.5730   25.7830 C   0  0  0  0  0  1  0  0  0  0  0  0
  -25.5540  -33.9240   24.1540 N   0  0  0  0  0  0  0  0  0  0  0  0
  -25.8850  -34.9830   23.4010 C   0  0  0  0  0  0  0  0  0  0  0  0
  -26.5620  -34.8850   22.3750 O   0  0  0  0  0  0  0  0  0  0  0  0
  -24.9500  -34.0740   24.9480 H   0  0  0  0  0  0  0  0  0  0  0  0
  -24.1540  -36.7750   23.0390 C   0  0  0  0  0  1  0  0  0  0  0  0
  -25.3890  -36.3690   23.8600 C   0  0  0  0  0  3  0  0  0  0  0  0
  -27.5100  -37.2610   24.7190 C   0  0  0  0  0  1  0  0  0  0  0  0
  -26.4190  -37.4260   23.7620 N   0  0  0  0  0  0  0  0  0  0  0  0
  -26.0070  -38.3450   23.9050 H   0  0  0  0  0  0  0  0  0  0  0  0
  1 50  1  0
  1  5  1  0
  1  2  1  0
  2  3  1  0
  4  2  1  0
  6  8  1  0
  6  5  1  0
  7  6  1  0
  9 21  1  0
 10 15  1  0
 11 12  1  0
 11 10  1  0
 13 12  1  0
 13 25  1  0
 13 14  1  0
 15  9  1  0
 15 14  1  0
 16  9  2  0
 17 18  1  0
 19 21  1  0
 19 20  1  0
 20  6  1  0
 20 17  1  0
 21 18  1  0
 22 23  2  0
 23 42  1  0
 24 23  1  0
 24 27  1  0
 25 26  1  0
 25 22  1  0
 26 24  2  0
 27 28  1  0
 28 29  2  0
 30 33  1  0
 30 29  1  0
 31 30  2  0
 32 31  1  0
 32 27  2  0
 33 34  1  0
 34 35  1  0
 35 36  2  0
 37 36  1  0
 37 41  1  0
 38 37  2  0
 39 34  2  0
 39 38  1  0
 40 39  1  0
 42 43  1  0
 43 46  1  0
 43 45  1  0
 44 42  2  0
 47 22  1  0
 47 48  1  0
 49 47  1  0
 51 50  1  0
 52 63  2  0
 53 51  1  0
 53 58  1  0
 54 62  1  0
 54 64  1  0
 55 61  1  0
 55 57  1  0
 56 62  1  0
 57 58  2  0
 57 56  1  0
 59 53  2  0
 60 59  1  0
 60 55  2  0
 61 54  1  0
 62 52  1  0
 64 66  2  0
 65 64  1  0
 67 65  1  0
 68 77  2  0
 68 73  1  0
 69 65  1  0
 69 73  1  0
 70 69  1  0
 71 72  1  0
 71 70  1  0
 72 68  1  0
 73 74  2  0
 74 75  1  0
 76 75  2  0
 77 76  1  0
 78 52  1  0
 78 83  1  0
 78 79  1  0
 79 82  1  1
 79 80  1  0
 81 79  1  0
 83 86  1  0
 84 88  1  0
 84 83  1  0
 85 84  2  0
 88 87  1  0
 90 88  1  0
 90 91  1  0
 90 89  1  0
M  ISO  4   9 100  21 100  50 101  51 101
M  END
>  <TORSDO>  (87) 
F 20

>  <SCORE>  (87) 
-15.355

>  <name>  (87) 
87

>  <ligand_id>  (87) 
87

>  <original_smiles>  (87) 
[H]c1c([H])c([H])c2c(c1[H])C([H])([H])C([H])([H])C([H])([H])C2([H])N([H])C(=O)C1([H])N(C(=O)C([H])(N([H])C(=O)C([H])(N([H])C([H])([H])[H])C([H])([H])[H])C(C([H])([H])[H])(C([H])([H])[H])C([H])([H])[H])C([H])([H])c2c([H])c(OC([H])([H])C([H])(N([H])[H])C([H])([H])[N+]([H])([H])C3([H])C([H])([H])N(C(=O)N4C([H])([H])C([H])([H])C([H])([H])C([H])(n5nc(-c6c([H])c([H])c(Oc7c([H])c([H])c(F)c([H])c7F)c([H])c6[H])c(C(=O)N([H])[H])c5N([H])[H])C4([H])[H])C([H])([H])C3([H])[H])c([H])c([H])c2C1([H])[H]

>  <smiles>  (87) 
[H]c1c([H])c([H])c2c(c1[H])C([H])([H])C([H])([H])C([H])([H])C2([H])N([H])C(=O)C1([H])N(C(=O)C([H])(N([H])C(=O)C([H])(N([H])C([H])([H])[H])C([H])([H])[H])C(C([H])([H])[H])(C([H])([H])[H])C([H])([H])[H])C([H])([H])c2c([H])c(OC([H])([H])C([H])(N([H])[H])C([H])([H])[N+]([H])([H])C3([H])C([H])([H])N(C(=O)N4C([H])([H])C([H])([H])C([H])([H])C([H])(n5nc(-c6c([H])c([H])c(Oc7c([H])c([H])c(F)c([H])c7F)c([H])c6[H])c(C(=O)N([H])[H])c5N([H])[H])C4([H])[H])C([H])([H])C3([H])[H])c([H])c([H])c2C1([H])[H]

$$$$
88:0:0
     RDKit          3D

 95104  0  0  1  0  0  0  0  0999 V2000
  -30.1690  -21.2530   20.0900 C   0  0  0  0  0  2  0  0  0  0  0  0
  -30.2660  -21.4630   22.5960 C   0  0  0  0  0  2  0  0  0  0  0  0
  -30.2630  -22.7820   19.9790 C   0  0  0  0  0  2  0  0  0  0  0  0
  -30.3660  -22.9920   22.4290 C   0  0  0  0  0  2  0  0  0  0  0  0
  -30.8510  -20.7370   21.3700 C   0  0  0  0  0  3  0  0  0  0  0  0
  -29.6950  -23.4470   21.1830 N   0  0  1  0  0  4  0  0  0  0  0  0
  -28.7330  -23.1480   21.2640 H   0  0  0  0  0  0  0  0  0  0  0  0
  -30.7480  -14.3830   20.1890 C   0  0  0  0  0  0  0  0  0  0  0  0
  -30.2930  -12.3420   18.8820 C   0  0  0  0  0  2  0  0  0  0  0  0
  -29.2810  -12.6430   17.7580 C   0  0  0  0  0  2  0  0  0  0  0  0
  -27.8360  -12.5000   18.2740 C   0  0  0  0  0  2  0  0  0  0  0  0
  -27.5980  -13.2690   19.6000 C   0  0  0  0  0  3  0  0  0  0  0  0
  -28.7110  -12.9510   20.6240 C   0  0  0  0  0  2  0  0  0  0  0  0
  -30.0160  -13.2520   20.0030 N   0  0  0  0  0  0  0  0  0  0  0  0
  -31.7520  -14.6320   19.5090 O   0  0  0  0  0  0  0  0  0  0  0  0
  -29.5410  -18.5640   21.7040 C   0  0  0  0  0  3  0  0  0  0  0  0
  -30.7620  -19.2130   21.4540 C   0  0  0  0  0  0  0  0  0  0  0  0
  -31.8660  -18.3690   21.2180 C   0  0  0  0  0  0  0  0  0  0  0  0
  -30.4970  -16.5280   21.3320 C   0  0  0  0  0  0  0  0  0  0  0  0
  -33.2670  -18.8840   20.9440 C   0  0  0  0  0  1  0  0  0  0  0  0
  -29.4150  -17.2260   21.6460 N   0  0  0  0  0  0  0  0  0  0  0  0
  -31.7180  -17.0340   21.1760 N   0  0  0  0  0  0  0  0  0  0  0  0
  -30.2870  -15.1930   21.1560 N   0  0  0  0  0  0  0  0  0  0  0  0
  -29.4640  -14.8430   21.6160 H   0  0  0  0  0  0  0  0  0  0  0  0
  -25.2430  -13.8690   20.4560 C   0  0  0  0  0  0  0  0  0  0  0  0
  -24.1930  -13.0890   20.8660 C   0  0  0  0  0  0  0  0  0  0  0  0
  -24.6460  -11.7370   20.7720 C   0  0  0  0  0  0  0  0  0  0  0  0
  -26.2700  -12.9900   20.1440 N   0  0  0  0  0  0  0  0  0  0  0  0
  -25.9150  -11.7020   20.3880 N   0  0  0  0  0  0  0  0  0  0  0  0
  -23.9270  -10.4720   20.9710 C   0  0  0  0  0  0  0  0  0  0  0  0
  -24.3800   -9.5030   21.8930 C   0  0  0  0  0  3  0  0  0  0  0  0
  -23.6620   -8.3010   22.0790 C   0  0  0  0  0  3  0  0  0  0  0  0
  -22.4770   -8.0620   21.3430 C   0  0  0  0  0  0  0  0  0  0  0  0
  -22.0430   -9.0200   20.4110 C   0  0  0  0  0  3  0  0  0  0  0  0
  -22.7620  -10.2130   20.2220 C   0  0  0  0  0  3  0  0  0  0  0  0
  -21.7290   -6.9140   21.4400 O   0  0  0  0  0  0  0  0  0  0  0  0
  -21.6560   -6.1980   22.6080 C   0  0  0  0  0  0  0  0  0  0  0  0
  -21.1960   -6.7780   23.8100 C   0  0  0  0  0  3  0  0  0  0  0  0
  -21.0720   -5.9880   24.9710 C   0  0  0  0  0  3  0  0  0  0  0  0
  -21.3960   -4.6190   24.9290 C   0  0  0  0  0  0  0  0  0  0  0  0
  -21.8490   -4.0390   23.7310 C   0  0  0  0  0  3  0  0  0  0  0  0
  -21.9750   -4.8250   22.5730 C   0  0  0  0  0  0  0  0  0  0  0  0
  -22.3920   -4.2570   21.4160 F   0  0  0  0  0  0  0  0  0  0  0  0
  -21.2700   -3.8570   26.0410 F   0  0  0  0  0  0  0  0  0  0  0  0
  -22.8170  -13.5620   21.2350 C   0  0  0  0  0  0  0  0  0  0  0  0
  -22.1460  -12.8520   22.1360 N   0  0  0  0  0  0  0  0  0  0  0  0
  -22.3470  -14.5960   20.7620 O   0  0  0  0  0  0  0  0  0  0  0  0
  -22.5390  -12.0150   22.5410 H   0  0  0  0  0  0  0  0  0  0  0  0
  -21.2250  -13.1500   22.4260 H   0  0  0  0  0  0  0  0  0  0  0  0
  -25.4040  -15.2420   20.3070 N   0  0  0  0  0  0  0  0  0  0  0  0
  -24.6520  -15.9000   20.4840 H   0  0  0  0  0  0  0  0  0  0  0  0
  -26.2470  -15.6880   19.9680 H   0  0  0  0  0  0  0  0  0  0  0  0
  -29.6640  -24.9270   21.0560 C   0  0  0  0  0  2  0  0  0  0  0  0
  -28.4970  -25.4150   20.1850 C   0  0  0  0  0  2  0  0  0  0  0  0
  -28.5230  -26.8370   20.2140 O   0  0  0  0  0  0  0  0  0  0  0  0
  -24.6220  -31.8990   23.2550 C   0  0  0  0  0  0  0  0  0  0  0  0
  -27.3190  -27.4960   20.1980 C   0  0  0  0  0  0  0  0  0  0  0  0
  -23.4320  -30.4840   21.6100 C   0  0  0  0  0  3  0  0  0  0  0  0
  -24.9040  -28.9540   20.2000 C   0  0  0  0  0  0  0  0  0  0  0  0
  -25.9520  -30.8700   21.4200 C   0  0  0  0  0  2  0  0  0  0  0  0
  -26.0500  -29.4990   20.7880 C   0  0  0  0  0  0  0  0  0  0  0  0
  -27.2600  -28.7770   20.7840 C   0  0  0  0  0  3  0  0  0  0  0  0
  -26.1550  -26.9550   19.6040 C   0  0  0  0  0  3  0  0  0  0  0  0
  -24.9490  -27.6790   19.6070 C   0  0  0  0  0  3  0  0  0  0  0  0
  -23.6510  -29.7990   20.2340 C   0  0  0  0  0  2  0  0  0  0  0  0
  -24.6860  -31.0990   22.1540 N   0  0  0  0  0  0  0  0  0  0  0  0
  -23.5360  -32.1650   23.7900 O   0  0  0  0  0  0  0  0  0  0  0  0
  -22.7850  -29.4610   22.5690 C   0  0  0  0  0  0  0  0  0  0  0  0
  -21.4630  -29.2690   22.4340 N   0  0  0  0  0  0  0  0  0  0  0  0
  -23.4700  -28.8410   23.3890 O   0  0  0  0  0  0  0  0  0  0  0  0
  -20.9730  -29.8230   21.7440 H   0  0  0  0  0  0  0  0  0  0  0  0
  -18.0920  -28.0680   22.9160 C   0  0  0  0  0  0  0  0  0  0  0  0
  -20.6470  -28.3300   23.2010 C   0  0  0  0  0  3  0  0  0  0  0  0
  -20.7560  -26.8990   22.6260 C   0  0  0  0  0  2  0  0  0  0  0  0
  -19.6600  -26.5740   21.6060 C   0  0  0  0  0  2  0  0  0  0  0  0
  -18.2740  -26.7180   22.2430 C   0  0  0  0  0  2  0  0  0  0  0  0
  -19.2070  -28.8320   23.3510 C   0  0  0  0  0  0  0  0  0  0  0  0
  -18.9840  -30.0960   23.9390 C   0  0  0  0  0  3  0  0  0  0  0  0
  -17.6780  -30.5970   24.0960 C   0  0  0  0  0  3  0  0  0  0  0  0
  -16.5770  -29.8300   23.6770 C   0  0  0  0  0  3  0  0  0  0  0  0
  -16.7850  -28.5670   23.0930 C   0  0  0  0  0  3  0  0  0  0  0  0
  -25.9020  -32.5380   23.8790 C   0  0  0  0  0  3  0  0  0  0  0  0
  -25.5880  -33.9380   24.1950 N   0  0  0  0  0  0  0  0  0  0  0  0
  -25.9080  -34.9820   23.4190 C   0  0  0  0  0  0  0  0  0  0  0  0
  -26.5700  -34.8690   22.3830 O   0  0  0  0  0  0  0  0  0  0  0  0
  -24.9990  -34.0990   24.9980 H   0  0  0  0  0  0  0  0  0  0  0  0
  -24.1530  -36.7470   23.0650 C   0  0  0  0  0  1  0  0  0  0  0  0
  -25.4130  -36.3710   23.8610 C   0  0  0  0  0  3  0  0  0  0  0  0
  -27.5510  -37.2940   24.6400 C   0  0  0  0  0  1  0  0  0  0  0  0
  -26.4320  -37.4330   23.7120 N   0  0  0  0  0  0  0  0  0  0  0  0
  -26.0190  -38.3510   23.8490 H   0  0  0  0  0  0  0  0  0  0  0  0
  -26.4150  -31.7770   25.1620 C   0  0  1  0  0  0  0  0  0  0  0  0
  -25.3170  -31.5380   26.2240 C   0  0  0  0  0  1  0  0  0  0  0  0
  -27.0090  -30.4020   24.7780 C   0  0  0  0  0  1  0  0  0  0  0  0
  -27.5570  -32.5800   25.8280 C   0  0  0  0  0  1  0  0  0  0  0  0
  1  5  1  0
  3  1  1  0
  3  6  1  0
  4  2  1  0
  5 17  1  0
  5  2  1  0
  6  7  1  1
  6  4  1  0
  8 23  1  0
  9 14  1  0
 10 11  1  0
 10  9  1  0
 12 11  1  0
 12 28  1  0
 12 13  1  0
 14  8  1  0
 14 13  1  0
 15  8  2  0
 17 16  2  0
 18 17  1  0
 19 21  2  0
 20 18  1  0
 21 16  1  0
 22 18  2  0
 22 19  1  0
 23 19  1  0
 23 24  1  0
 25 26  2  0
 26 45  1  0
 27 26  1  0
 27 30  1  0
 28 29  1  0
 28 25  1  0
 29 27  2  0
 30 31  1  0
 31 32  2  0
 33 36  1  0
 33 32  1  0
 34 33  2  0
 35 34  1  0
 35 30  2  0
 36 37  1  0
 37 38  1  0
 38 39  2  0
 40 39  1  0
 40 44  1  0
 41 40  2  0
 42 37  2  0
 42 41  1  0
 43 42  1  0
 45 46  1  0
 46 49  1  0
 46 48  1  0
 47 45  2  0
 50 25  1  0
 50 51  1  0
 52 50  1  0
 53  6  1  0
 54 55  1  0
 54 53  1  0
 56 67  2  0
 57 55  1  0
 57 62  1  0
 58 66  1  0
 58 68  1  0
 59 65  1  0
 59 61  1  0
 60 66  1  0
 61 60  1  0
 62 61  2  0
 63 64  1  0
 63 57  2  0
 64 59  2  0
 65 58  1  0
 66 56  1  0
 68 70  2  0
 69 68  1  0
 71 69  1  0
 72 81  2  0
 72 77  1  0
 73 69  1  0
 73 77  1  0
 74 73  1  0
 75 76  1  0
 75 74  1  0
 76 72  1  0
 77 78  2  0
 78 79  1  0
 80 79  2  0
 81 80  1  0
 82 56  1  0
 82 83  1  0
 82 92  1  0
 83 86  1  0
 84 88  1  0
 84 83  1  0
 85 84  2  0
 88 87  1  0
 90 91  1  0
 90 88  1  0
 90 89  1  0
 92 95  1  1
 92 93  1  0
 94 92  1  0
M  ISO  4   8 100  23 100  54 101  55 101
M  END
>  <TORSDO>  (88) 
F 18

>  <SCORE>  (88) 
-14.333

>  <name>  (88) 
88

>  <ligand_id>  (88) 
88

>  <original_smiles>  (88) 
[H]c1nc(N([H])C(=O)N2C([H])([H])C([H])([H])C([H])([H])C([H])(n3nc(-c4c([H])c([H])c(Oc5c([H])c([H])c(F)c([H])c5F)c([H])c4[H])c(C(=O)N([H])[H])c3N([H])[H])C2([H])[H])nc(C([H])([H])[H])c1C1([H])C([H])([H])C([H])([H])[N+]([H])(C([H])([H])C([H])([H])Oc2c([H])c([H])c3c(c2[H])C([H])([H])N(C(=O)C([H])(N([H])C(=O)C([H])(N([H])C([H])([H])[H])C([H])([H])[H])C(C([H])([H])[H])(C([H])([H])[H])C([H])([H])[H])C([H])(C(=O)N([H])C2([H])c4c([H])c([H])c([H])c([H])c4C([H])([H])C([H])([H])C2([H])[H])C3([H])[H])C([H])([H])C1([H])[H]

>  <smiles>  (88) 
[H]c1nc(N([H])C(=O)N2C([H])([H])C([H])([H])C([H])([H])C([H])(n3nc(-c4c([H])c([H])c(Oc5c([H])c([H])c(F)c([H])c5F)c([H])c4[H])c(C(=O)N([H])[H])c3N([H])[H])C2([H])[H])nc(C([H])([H])[H])c1C1([H])C([H])([H])C([H])([H])[N+]([H])(C([H])([H])C([H])([H])Oc2c([H])c([H])c3c(c2[H])C([H])([H])N(C(=O)C([H])(N([H])C(=O)C([H])(N([H])C([H])([H])[H])C([H])([H])[H])C(C([H])([H])[H])(C([H])([H])[H])C([H])([H])[H])C([H])(C(=O)N([H])C2([H])c4c([H])c([H])c([H])c([H])c4C([H])([H])C([H])([H])C2([H])[H])C3([H])[H])C([H])([H])C1([H])[H]

$$$$
89:0:0
     RDKit          3D

 96106  0  0  1  0  0  0  0  0999 V2000
  -27.9760  -20.6440   20.9310 C   0  0  0  0  0  2  0  0  0  0  0  0
  -29.5100  -21.1650   19.6260 C   0  0  0  0  0  2  0  0  0  0  0  0
  -28.6980  -19.8530   19.8110 C   0  0  0  0  0  3  0  0  0  0  0  0
  -28.2140  -21.8850   20.0360 C   0  0  0  0  0  3  0  0  0  0  0  0
  -31.1900  -14.7810   20.8430 C   0  0  0  0  0  0  0  0  0  0  0  0
  -31.0150  -12.5390   19.8290 C   0  0  0  0  0  2  0  0  0  0  0  0
  -30.1560  -12.5770   18.5460 C   0  0  0  0  0  2  0  0  0  0  0  0
  -28.6570  -12.4630   18.8760 C   0  0  0  0  0  2  0  0  0  0  0  0
  -28.2060  -13.3920   20.0350 C   0  0  0  0  0  3  0  0  0  0  0  0
  -29.1800  -13.2950   21.2280 C   0  0  0  0  0  2  0  0  0  0  0  0
  -30.5230  -13.5990   20.7200 N   0  0  0  0  0  0  0  0  0  0  0  0
  -32.4180  -14.8510   20.7540 O   0  0  0  0  0  0  0  0  0  0  0  0
  -31.3550  -16.5660   16.9320 C   0  0  0  0  0  3  0  0  0  0  0  0
  -30.7810  -17.8240   16.7300 C   0  0  0  0  0  3  0  0  0  0  0  0
  -31.2630  -15.9630   18.1940 C   0  0  0  0  0  3  0  0  0  0  0  0
  -30.1510  -18.4790   17.7990 C   0  0  0  0  0  3  0  0  0  0  0  0
  -30.5970  -16.5870   19.2880 C   0  0  0  0  0  0  0  0  0  0  0  0
  -30.0640  -17.9070   19.0980 C   0  0  0  0  0  0  0  0  0  0  0  0
  -29.8940  -16.6780   21.6700 C   0  0  0  0  0  2  0  0  0  0  0  0
  -28.8890  -17.7400   21.1750 C   0  0  0  0  0  2  0  0  0  0  0  0
  -30.4700  -15.9050   20.5620 N   0  0  0  0  0  0  0  0  0  0  0  0
  -29.4610  -18.6340   20.1670 N   0  0  0  0  0  0  0  0  0  0  0  0
  -25.7680  -13.9940   20.5830 C   0  0  0  0  0  0  0  0  0  0  0  0
  -24.6750  -13.2200   20.8660 C   0  0  0  0  0  0  0  0  0  0  0  0
  -25.1390  -11.8690   20.8640 C   0  0  0  0  0  0  0  0  0  0  0  0
  -26.8270  -13.1150   20.4280 N   0  0  0  0  0  0  0  0  0  0  0  0
  -26.4480  -11.8320   20.6590 N   0  0  0  0  0  0  0  0  0  0  0  0
  -24.4020  -10.6050   20.9870 C   0  0  0  0  0  0  0  0  0  0  0  0
  -24.7820   -9.6160   21.9210 C   0  0  0  0  0  3  0  0  0  0  0  0
  -24.0460   -8.4160   22.0320 C   0  0  0  0  0  3  0  0  0  0  0  0
  -22.9160   -8.1980   21.2100 C   0  0  0  0  0  0  0  0  0  0  0  0
  -22.5560   -9.1750   20.2660 C   0  0  0  0  0  3  0  0  0  0  0  0
  -23.2930  -10.3670   20.1510 C   0  0  0  0  0  3  0  0  0  0  0  0
  -22.1560   -7.0530   21.2320 O   0  0  0  0  0  0  0  0  0  0  0  0
  -22.0290   -6.2970   22.3690 C   0  0  0  0  0  0  0  0  0  0  0  0
  -21.5230   -6.8370   23.5710 C   0  0  0  0  0  3  0  0  0  0  0  0
  -21.3430   -6.0080   24.6960 C   0  0  0  0  0  3  0  0  0  0  0  0
  -21.6580   -4.6380   24.6190 C   0  0  0  0  0  0  0  0  0  0  0  0
  -22.1570   -4.0960   23.4210 C   0  0  0  0  0  3  0  0  0  0  0  0
  -22.3390   -4.9240   22.2980 C   0  0  0  0  0  0  0  0  0  0  0  0
  -22.8010   -4.3930   21.1400 F   0  0  0  0  0  0  0  0  0  0  0  0
  -21.4780   -3.8380   25.6960 F   0  0  0  0  0  0  0  0  0  0  0  0
  -23.2610  -13.6960   21.0290 C   0  0  0  0  0  0  0  0  0  0  0  0
  -22.4740  -13.0090   21.8480 N   0  0  0  0  0  0  0  0  0  0  0  0
  -22.8600  -14.7140   20.4660 O   0  0  0  0  0  0  0  0  0  0  0  0
  -22.8090  -12.1870   22.3290 H   0  0  0  0  0  0  0  0  0  0  0  0
  -21.5220  -13.3100   21.9990 H   0  0  0  0  0  0  0  0  0  0  0  0
  -25.9430  -15.3650   20.4190 N   0  0  0  0  0  0  0  0  0  0  0  0
  -25.1600  -16.0070   20.4470 H   0  0  0  0  0  0  0  0  0  0  0  0
  -26.8020  -15.7920   20.0990 H   0  0  0  0  0  0  0  0  0  0  0  0
  -28.4580  -24.3670   20.1150 C   0  0  0  0  0  0  0  0  0  0  0  0
  -28.4010  -23.1680   20.7310 N   0  0  0  0  0  0  0  0  0  0  0  0
  -28.4980  -24.4690   18.8850 O   0  0  0  0  0  0  0  0  0  0  0  0
  -28.3810  -23.1670   21.7420 H   0  0  0  0  0  0  0  0  0  0  0  0
  -28.4410  -25.6320   21.0060 C   0  0  0  0  0  2  0  0  0  0  0  0
  -28.4750  -26.8620   20.2490 O   0  0  0  0  0  0  0  0  0  0  0  0
  -24.5930  -32.0020   23.3050 C   0  0  0  0  0  0  0  0  0  0  0  0
  -27.3030  -27.5870   20.2480 C   0  0  0  0  0  0  0  0  0  0  0  0
  -23.4090  -30.5760   21.6680 C   0  0  0  0  0  3  0  0  0  0  0  0
  -24.8880  -29.0560   20.2480 C   0  0  0  0  0  0  0  0  0  0  0  0
  -25.9300  -30.9760   21.4670 C   0  0  0  0  0  2  0  0  0  0  0  0
  -26.0370  -29.6030   20.8320 C   0  0  0  0  0  0  0  0  0  0  0  0
  -27.2510  -28.8770   20.8250 C   0  0  0  0  0  3  0  0  0  0  0  0
  -26.1380  -27.0540   19.6580 C   0  0  0  0  0  3  0  0  0  0  0  0
  -24.9330  -27.7820   19.6570 C   0  0  0  0  0  3  0  0  0  0  0  0
  -23.6290  -29.8950   20.2900 C   0  0  0  0  0  2  0  0  0  0  0  0
  -24.6620  -31.1990   22.2050 N   0  0  0  0  0  0  0  0  0  0  0  0
  -23.5090  -32.2570   23.8460 O   0  0  0  0  0  0  0  0  0  0  0  0
  -22.7760  -29.5460   22.6310 C   0  0  0  0  0  0  0  0  0  0  0  0
  -21.4590  -29.3260   22.4930 N   0  0  0  0  0  0  0  0  0  0  0  0
  -23.4680  -28.9480   23.4610 O   0  0  0  0  0  0  0  0  0  0  0  0
  -20.9620  -29.8630   21.7950 H   0  0  0  0  0  0  0  0  0  0  0  0
  -18.1180  -28.0270   22.9440 C   0  0  0  0  0  0  0  0  0  0  0  0
  -20.6590  -28.3740   23.2630 C   0  0  0  0  0  3  0  0  0  0  0  0
  -20.8210  -26.9380   22.7140 C   0  0  0  0  0  2  0  0  0  0  0  0
  -19.7510  -26.5630   21.6840 C   0  0  0  0  0  2  0  0  0  0  0  0
  -18.3530  -26.6730   22.2980 C   0  0  0  0  0  2  0  0  0  0  0  0
  -19.2010  -28.8330   23.3830 C   0  0  0  0  0  0  0  0  0  0  0  0
  -18.9290  -30.0980   23.9470 C   0  0  0  0  0  3  0  0  0  0  0  0
  -17.6060  -30.5590   24.0770 C   0  0  0  0  0  3  0  0  0  0  0  0
  -16.5360  -29.7500   23.6560 C   0  0  0  0  0  3  0  0  0  0  0  0
  -16.7930  -28.4860   23.0940 C   0  0  0  0  0  3  0  0  0  0  0  0
  -25.8700  -32.6550   23.9220 C   0  0  0  0  0  3  0  0  0  0  0  0
  -25.5480  -34.0550   24.2250 N   0  0  0  0  0  0  0  0  0  0  0  0
  -25.8830  -35.0960   23.4520 C   0  0  0  0  0  0  0  0  0  0  0  0
  -26.5670  -34.9810   22.4310 O   0  0  0  0  0  0  0  0  0  0  0  0
  -24.9430  -34.2190   25.0170 H   0  0  0  0  0  0  0  0  0  0  0  0
  -24.1500  -36.8710   23.0380 C   0  0  0  0  0  1  0  0  0  0  0  0
  -25.3800  -36.4880   23.8780 C   0  0  0  0  0  3  0  0  0  0  0  0
  -27.4940  -37.4000   24.7300 C   0  0  0  0  0  1  0  0  0  0  0  0
  -26.4080  -37.5470   23.7660 N   0  0  0  0  0  0  0  0  0  0  0  0
  -25.9930  -38.4660   23.8910 H   0  0  0  0  0  0  0  0  0  0  0  0
  -26.3900  -31.9090   25.2130 C   0  0  1  0  0  0  0  0  0  0  0  0
  -25.2920  -31.6750   26.2770 C   0  0  0  0  0  1  0  0  0  0  0  0
  -26.9910  -30.5340   24.8440 C   0  0  0  0  0  1  0  0  0  0  0  0
  -27.5260  -32.7270   25.8690 C   0  0  0  0  0  1  0  0  0  0  0  0
  2  4  1  0
  3  2  1  0
  3 22  1  0
  3  1  1  0
  4 52  1  0
  4  1  1  0
  6 11  1  0
  7  8  1  0
  7  6  1  0
  9  8  1  0
  9 26  1  0
  9 10  1  0
 11  5  1  0
 11 10  1  0
 12  5  2  0
 13 15  1  0
 14 13  2  0
 14 16  1  0
 15 17  2  0
 16 18  2  0
 17 21  1  0
 18 17  1  0
 18 22  1  0
 20 19  1  0
 21  5  1  0
 21 19  1  0
 22 20  1  0
 23 24  2  0
 24 43  1  0
 25 24  1  0
 25 28  1  0
 26 23  1  0
 26 27  1  0
 27 25  2  0
 28 29  1  0
 29 30  2  0
 31 34  1  0
 31 30  1  0
 32 31  2  0
 33 32  1  0
 33 28  2  0
 34 35  1  0
 35 36  1  0
 36 37  2  0
 38 37  1  0
 38 42  1  0
 39 38  2  0
 40 35  2  0
 40 39  1  0
 41 40  1  0
 43 44  1  0
 44 47  1  0
 44 46  1  0
 45 43  2  0
 48 49  1  0
 48 23  1  0
 50 48  1  0
 51 52  1  0
 51 55  1  0
 52 54  1  0
 53 51  2  0
 56 55  1  0
 57 68  2  0
 58 56  1  0
 58 63  1  0
 59 67  1  0
 59 69  1  0
 60 66  1  0
 60 62  1  0
 61 67  1  0
 62 61  1  0
 63 62  2  0
 64 58  2  0
 65 64  1  0
 65 60  2  0
 66 59  1  0
 67 57  1  0
 69 71  2  0
 70 69  1  0
 72 70  1  0
 73 82  2  0
 73 78  1  0
 74 70  1  0
 74 78  1  0
 75 74  1  0
 76 77  1  0
 76 75  1  0
 77 73  1  0
 78 79  2  0
 79 80  1  0
 81 80  2  0
 82 81  1  0
 83 57  1  0
 83 84  1  0
 83 93  1  0
 84 87  1  0
 85 89  1  0
 85 84  1  0
 86 85  2  0
 89 88  1  0
 91 89  1  0
 91 92  1  0
 91 90  1  0
 93 96  1  1
 93 94  1  0
 95 93  1  0
M  ISO  4   5 100  21 100  55 101  56 101
M  END
>  <TORSDO>  (89) 
F 18

>  <SCORE>  (89) 
-13.121

>  <name>  (89) 
89

>  <ligand_id>  (89) 
89

>  <original_smiles>  (89) 
[H]c1c([H])c([H])c2c(c1[H])N(C(=O)N1C([H])([H])C([H])([H])C([H])([H])C([H])(n3nc(-c4c([H])c([H])c(Oc5c([H])c([H])c(F)c([H])c5F)c([H])c4[H])c(C(=O)N([H])[H])c3N([H])[H])C1([H])[H])C([H])([H])C([H])([H])N2C1([H])C([H])([H])C([H])(N([H])C(=O)C([H])([H])Oc2c([H])c([H])c3c(c2[H])C([H])([H])N(C(=O)C([H])(N([H])C(=O)C([H])(N([H])C([H])([H])[H])C([H])([H])[H])C(C([H])([H])[H])(C([H])([H])[H])C([H])([H])[H])C([H])(C(=O)N([H])C2([H])c4c([H])c([H])c([H])c([H])c4C([H])([H])C([H])([H])C2([H])[H])C3([H])[H])C1([H])[H]

>  <smiles>  (89) 
[H]c1c([H])c([H])c2c(c1[H])N(C(=O)N1C([H])([H])C([H])([H])C([H])([H])C([H])(n3nc(-c4c([H])c([H])c(Oc5c([H])c([H])c(F)c([H])c5F)c([H])c4[H])c(C(=O)N([H])[H])c3N([H])[H])C1([H])[H])C([H])([H])C([H])([H])N2C1([H])C([H])([H])C([H])(N([H])C(=O)C([H])([H])Oc2c([H])c([H])c3c(c2[H])C([H])([H])N(C(=O)C([H])(N([H])C(=O)C([H])(N([H])C([H])([H])[H])C([H])([H])[H])C(C([H])([H])[H])(C([H])([H])[H])C([H])([H])[H])C([H])(C(=O)N([H])C2([H])c4c([H])c([H])c([H])c([H])c4C([H])([H])C([H])([H])C2([H])[H])C3([H])[H])C1([H])[H]

$$$$
90:0:0
     RDKit          3D

 91 99  0  0  1  0  0  0  0  0999 V2000
  -29.4650  -23.3010   20.3800 N   0  0  0  0  0  0  0  0  0  0  0  0
  -30.1040  -23.9120   19.8770 H   0  0  0  0  0  0  0  0  0  0  0  0
  -30.8010  -21.1740   19.7480 C   0  0  0  0  0  3  0  0  0  0  0  0
  -28.9670  -20.8100   20.8780 C   0  0  0  0  0  3  0  0  0  0  0  0
  -29.6970  -21.8630   20.3530 C   0  0  0  0  0  0  0  0  0  0  0  0
  -30.7450  -19.8500   19.8840 N   0  0  0  0  0  0  0  0  0  0  0  0
  -29.6110  -19.5990   20.5840 N   0  0  0  0  0  0  0  0  0  0  0  0
  -29.1960  -18.1930   20.8800 C   0  0  0  0  0  3  0  0  0  0  0  0
  -30.2890  -17.0820   20.6190 C   0  0  0  0  0  3  0  0  0  0  0  0
  -30.6230  -14.5830   20.3580 C   0  0  0  0  0  0  0  0  0  0  0  0
  -30.3660  -12.3920   19.2390 C   0  0  0  0  0  2  0  0  0  0  0  0
  -29.4220  -12.5590   18.0300 C   0  0  0  0  0  2  0  0  0  0  0  0
  -27.9450  -12.4200   18.4600 C   0  0  0  0  0  2  0  0  0  0  0  0
  -27.6030  -13.2540   19.7230 C   0  0  0  0  0  3  0  0  0  0  0  0
  -28.6670  -13.0640   20.8270 C   0  0  0  0  0  2  0  0  0  0  0  0
  -29.9790  -13.3870   20.2540 N   0  0  0  0  0  0  0  0  0  0  0  0
  -31.7700  -14.7440   19.9210 O   0  0  0  0  0  0  0  0  0  0  0  0
  -29.8860  -15.6480   20.7740 N   0  0  0  0  0  0  0  0  0  0  0  0
  -28.9620  -15.4500   21.1290 H   0  0  0  0  0  0  0  0  0  0  0  0
  -25.2150  -13.8490   20.4530 C   0  0  0  0  0  0  0  0  0  0  0  0
  -24.1510  -13.0720   20.8350 C   0  0  0  0  0  0  0  0  0  0  0  0
  -24.6170  -11.7230   20.8020 C   0  0  0  0  0  0  0  0  0  0  0  0
  -26.2570  -12.9700   20.2140 N   0  0  0  0  0  0  0  0  0  0  0  0
  -25.9050  -11.6880   20.4850 N   0  0  0  0  0  0  0  0  0  0  0  0
  -23.8960  -10.4560   21.0050 C   0  0  0  0  0  0  0  0  0  0  0  0
  -24.3420   -9.4920   21.9380 C   0  0  0  0  0  3  0  0  0  0  0  0
  -23.6240   -8.2920   22.1250 C   0  0  0  0  0  3  0  0  0  0  0  0
  -22.4450   -8.0450   21.3820 C   0  0  0  0  0  0  0  0  0  0  0  0
  -22.0180   -8.9980   20.4400 C   0  0  0  0  0  3  0  0  0  0  0  0
  -22.7370  -10.1910   20.2490 C   0  0  0  0  0  3  0  0  0  0  0  0
  -21.6940   -6.8970   21.4820 O   0  0  0  0  0  0  0  0  0  0  0  0
  -21.6640   -6.1530   22.6330 C   0  0  0  0  0  0  0  0  0  0  0  0
  -21.2470   -6.7060   23.8640 C   0  0  0  0  0  3  0  0  0  0  0  0
  -21.1650   -5.8910   25.0110 C   0  0  0  0  0  3  0  0  0  0  0  0
  -21.4860   -4.5230   24.9270 C   0  0  0  0  0  0  0  0  0  0  0  0
  -21.8970   -3.9700   23.7010 C   0  0  0  0  0  3  0  0  0  0  0  0
  -21.9820   -4.7810   22.5570 C   0  0  0  0  0  0  0  0  0  0  0  0
  -22.3570   -4.2400   21.3740 F   0  0  0  0  0  0  0  0  0  0  0  0
  -21.3960   -3.7380   26.0250 F   0  0  0  0  0  0  0  0  0  0  0  0
  -22.7560  -13.5420   21.1190 C   0  0  0  0  0  0  0  0  0  0  0  0
  -22.0380  -12.8450   21.9980 N   0  0  0  0  0  0  0  0  0  0  0  0
  -22.3070  -14.5610   20.5950 O   0  0  0  0  0  0  0  0  0  0  0  0
  -22.4180  -12.0250   22.4460 H   0  0  0  0  0  0  0  0  0  0  0  0
  -21.1000  -13.1410   22.2280 H   0  0  0  0  0  0  0  0  0  0  0  0
  -25.3780  -15.2170   20.2680 N   0  0  0  0  0  0  0  0  0  0  0  0
  -24.6210  -15.8850   20.3700 H   0  0  0  0  0  0  0  0  0  0  0  0
  -26.2190  -15.6340   19.8910 H   0  0  0  0  0  0  0  0  0  0  0  0
  -27.0860  -23.6280   19.7800 C   0  0  0  0  0  1  0  0  0  0  0  0
  -28.1910  -23.9250   20.7970 C   0  0  0  0  0  3  0  0  0  0  0  0
  -28.2730  -25.4600   21.2140 C   0  0  0  0  0  2  0  0  0  0  0  0
  -28.3330  -26.5310   20.2140 O   0  0  0  0  0  0  0  0  0  0  0  0
  -24.6150  -31.8790   23.2490 C   0  0  0  0  0  0  0  0  0  0  0  0
  -27.2310  -27.3780   20.1840 C   0  0  0  0  0  0  0  0  0  0  0  0
  -23.4120  -30.4800   21.6020 C   0  0  0  0  0  3  0  0  0  0  0  0
  -24.8640  -28.9480   20.1630 C   0  0  0  0  0  0  0  0  0  0  0  0
  -25.9440  -30.8210   21.4170 C   0  0  0  0  0  2  0  0  0  0  0  0
  -26.0260  -29.4490   20.7670 C   0  0  0  0  0  0  0  0  0  0  0  0
  -27.2190  -28.6720   20.7740 C   0  0  0  0  0  3  0  0  0  0  0  0
  -26.0600  -26.9230   19.5490 C   0  0  0  0  0  3  0  0  0  0  0  0
  -24.8810  -27.6880   19.5410 C   0  0  0  0  0  3  0  0  0  0  0  0
  -23.6260  -29.8140   20.2160 C   0  0  0  0  0  2  0  0  0  0  0  0
  -24.6750  -31.0770   22.1460 N   0  0  0  0  0  0  0  0  0  0  0  0
  -23.5360  -32.1560   23.7880 O   0  0  0  0  0  0  0  0  0  0  0  0
  -22.7590  -29.4580   22.5600 C   0  0  0  0  0  0  0  0  0  0  0  0
  -21.4330  -29.2800   22.4370 N   0  0  0  0  0  0  0  0  0  0  0  0
  -23.4410  -28.8320   23.3770 O   0  0  0  0  0  0  0  0  0  0  0  0
  -20.9430  -29.8400   21.7540 H   0  0  0  0  0  0  0  0  0  0  0  0
  -18.0570  -28.0860   22.9430 C   0  0  0  0  0  0  0  0  0  0  0  0
  -20.6150  -28.3390   23.2040 C   0  0  0  0  0  3  0  0  0  0  0  0
  -20.7130  -26.9130   22.6160 C   0  0  0  0  0  2  0  0  0  0  0  0
  -19.6060  -26.6000   21.6040 C   0  0  0  0  0  2  0  0  0  0  0  0
  -18.2280  -26.7400   22.2570 C   0  0  0  0  0  2  0  0  0  0  0  0
  -19.1780  -28.8440   23.3720 C   0  0  0  0  0  0  0  0  0  0  0  0
  -18.9640  -30.1050   23.9700 C   0  0  0  0  0  3  0  0  0  0  0  0
  -17.6610  -30.6070   24.1450 C   0  0  0  0  0  3  0  0  0  0  0  0
  -16.5540  -29.8470   23.7300 C   0  0  0  0  0  3  0  0  0  0  0  0
  -16.7530  -28.5890   23.1360 C   0  0  0  0  0  3  0  0  0  0  0  0
  -25.9050  -32.5050   23.8730 C   0  0  0  0  0  3  0  0  0  0  0  0
  -25.6000  -33.9050   24.1980 N   0  0  0  0  0  0  0  0  0  0  0  0
  -25.9350  -34.9560   23.4360 C   0  0  0  0  0  0  0  0  0  0  0  0
  -26.6040  -34.8480   22.4050 O   0  0  0  0  0  0  0  0  0  0  0  0
  -25.0030  -34.0630   24.9970 H   0  0  0  0  0  0  0  0  0  0  0  0
  -24.2120  -36.7500   23.0790 C   0  0  0  0  0  1  0  0  0  0  0  0
  -25.4520  -36.3460   23.8910 C   0  0  0  0  0  3  0  0  0  0  0  0
  -27.5920  -37.2230   24.7170 C   0  0  0  0  0  1  0  0  0  0  0  0
  -26.4890  -37.3950   23.7750 N   0  0  0  0  0  0  0  0  0  0  0  0
  -26.0880  -38.3170   23.9200 H   0  0  0  0  0  0  0  0  0  0  0  0
  -26.4170  -31.7310   25.1510 C   0  0  1  0  0  0  0  0  0  0  0  0
  -25.3220  -31.5020   26.2180 C   0  0  0  0  0  1  0  0  0  0  0  0
  -26.9890  -30.3490   24.7580 C   0  0  0  0  0  1  0  0  0  0  0  0
  -27.5710  -32.5200   25.8100 C   0  0  0  0  0  1  0  0  0  0  0  0
  1 49  1  0
  2  1  1  0
  3  6  2  0
  3  5  1  0
  5  1  1  0
  5  4  2  0
  6  7  1  0
  7  4  1  0
  7  8  1  0
  9 18  1  0
  9  8  2  0
 10 18  1  0
 11 16  1  0
 12 13  1  0
 12 11  1  0
 14 13  1  0
 14 23  1  0
 14 15  1  0
 16 10  1  0
 16 15  1  0
 17 10  2  0
 18 19  1  0
 20 21  2  0
 21 40  1  0
 22 21  1  0
 22 25  1  0
 23 20  1  0
 23 24  1  0
 24 22  2  0
 25 26  1  0
 26 27  2  0
 28 31  1  0
 28 27  1  0
 29 28  2  0
 30 29  1  0
 30 25  2  0
 31 32  1  0
 32 33  1  0
 33 34  2  0
 35 34  1  0
 35 39  1  0
 36 35  2  0
 37 32  2  0
 37 36  1  0
 38 37  1  0
 40 41  1  0
 41 44  1  0
 41 43  1  0
 42 40  2  0
 45 46  1  0
 45 20  1  0
 47 45  1  0
 49 48  1  0
 49 50  1  0
 51 50  1  0
 52 63  2  0
 53 51  1  0
 53 58  1  0
 54 62  1  0
 54 64  1  0
 55 61  1  0
 55 57  1  0
 56 62  1  0
 57 58  2  0
 57 56  1  0
 59 53  2  0
 60 59  1  0
 60 55  2  0
 61 54  1  0
 62 52  1  0
 64 66  2  0
 65 64  1  0
 67 65  1  0
 68 77  2  0
 68 73  1  0
 69 65  1  0
 69 73  1  0
 70 69  1  0
 71 72  1  0
 71 70  1  0
 72 68  1  0
 73 74  2  0
 74 75  1  0
 76 75  2  0
 77 76  1  0
 78 52  1  0
 78 79  1  0
 78 88  1  0
 79 82  1  0
 80 84  1  0
 80 79  1  0
 81 80  2  0
 84 83  1  0
 86 84  1  0
 86 87  1  0
 86 85  1  0
 88 91  1  1
 88 89  1  0
 90 88  1  0
M  ISO  4  10 100  18 100  50 101  51 101
M  END
>  <TORSDO>  (90) 
F 21

>  <SCORE>  (90) 
-13.450

>  <name>  (90) 
90

>  <ligand_id>  (90) 
90

>  <original_smiles>  (90) 
[H]c1nn(C([H])([H])C([H])([H])N([H])C(=O)N2C([H])([H])C([H])([H])C([H])([H])C([H])(n3nc(-c4c([H])c([H])c(Oc5c([H])c([H])c(F)c([H])c5F)c([H])c4[H])c(C(=O)N([H])[H])c3N([H])[H])C2([H])[H])c([H])c1N([H])C([H])(C([H])([H])[H])C([H])([H])Oc1c([H])c([H])c2c(c1[H])C([H])([H])N(C(=O)C([H])(N([H])C(=O)C([H])(N([H])C([H])([H])[H])C([H])([H])[H])C(C([H])([H])[H])(C([H])([H])[H])C([H])([H])[H])C([H])(C(=O)N([H])C1([H])c3c([H])c([H])c([H])c([H])c3C([H])([H])C([H])([H])C1([H])[H])C2([H])[H]

>  <smiles>  (90) 
[H]c1nn(C([H])([H])C([H])([H])N([H])C(=O)N2C([H])([H])C([H])([H])C([H])([H])C([H])(n3nc(-c4c([H])c([H])c(Oc5c([H])c([H])c(F)c([H])c5F)c([H])c4[H])c(C(=O)N([H])[H])c3N([H])[H])C2([H])[H])c([H])c1N([H])C([H])(C([H])([H])[H])C([H])([H])Oc1c([H])c([H])c2c(c1[H])C([H])([H])N(C(=O)C([H])(N([H])C(=O)C([H])(N([H])C([H])([H])[H])C([H])([H])[H])C(C([H])([H])[H])(C([H])([H])[H])C([H])([H])[H])C([H])(C(=O)N([H])C1([H])c3c([H])c([H])c([H])c([H])c3C([H])([H])C([H])([H])C1([H])[H])C2([H])[H]

$$$$
91:0:0
     RDKit          3D

 91100  0  0  1  0  0  0  0  0999 V2000
  -30.5770  -20.7090   20.6830 C   0  0  0  0  0  2  0  0  0  0  0  0
  -30.3020  -22.2410   20.5290 C   0  0  0  0  0  2  0  0  0  0  0  0
  -28.3090  -21.0870   20.2650 C   0  0  0  0  0  2  0  0  0  0  0  0
  -29.4180  -19.9710   20.0030 C   0  0  0  0  0  3  0  0  0  0  0  0
  -28.9270  -22.4380   20.0390 N   0  0  0  0  0  0  0  0  0  0  0  0
  -29.1460  -18.5120   20.4440 N   0  0  0  0  0  4  0  0  0  0  0  0
  -28.3720  -18.2190   19.8680 H   0  0  0  0  0  0  0  0  0  0  0  0
  -28.7910  -18.5330   21.3850 H   0  0  0  0  0  0  0  0  0  0  0  0
  -30.6650  -14.7690   20.0980 C   0  0  0  0  0  0  0  0  0  0  0  0
  -30.3860  -12.5350   19.0020 C   0  0  0  0  0  2  0  0  0  0  0  0
  -29.3910  -12.6450   17.8260 C   0  0  0  0  0  2  0  0  0  0  0  0
  -27.9450  -12.4640   18.3240 C   0  0  0  0  0  2  0  0  0  0  0  0
  -27.6360  -13.3210   19.5810 C   0  0  0  0  0  3  0  0  0  0  0  0
  -28.7430  -13.1930   20.6490 C   0  0  0  0  0  2  0  0  0  0  0  0
  -30.0120  -13.5580   20.0060 N   0  0  0  0  0  0  0  0  0  0  0  0
  -31.7870  -14.8930   19.5980 O   0  0  0  0  0  0  0  0  0  0  0  0
  -31.0610  -17.3570   21.6110 C   0  0  0  0  0  2  0  0  0  0  0  0
  -30.2090  -16.1620   22.0360 C   0  0  0  0  0  2  0  0  0  0  0  0
  -30.2150  -17.3950   20.3400 C   0  0  0  0  0  3  0  0  0  0  0  0
  -29.9860  -15.8800   20.6070 N   0  0  0  0  0  0  0  0  0  0  0  0
  -25.2810  -13.9000   20.4160 C   0  0  0  0  0  0  0  0  0  0  0  0
  -24.2320  -13.1200   20.8210 C   0  0  0  0  0  0  0  0  0  0  0  0
  -24.6940  -11.7710   20.7520 C   0  0  0  0  0  0  0  0  0  0  0  0
  -26.3130  -13.0250   20.1240 N   0  0  0  0  0  0  0  0  0  0  0  0
  -25.9710  -11.7380   20.3870 N   0  0  0  0  0  0  0  0  0  0  0  0
  -23.9770  -10.5040   20.9540 C   0  0  0  0  0  0  0  0  0  0  0  0
  -24.4290   -9.5400   21.8810 C   0  0  0  0  0  3  0  0  0  0  0  0
  -23.7100   -8.3400   22.0730 C   0  0  0  0  0  3  0  0  0  0  0  0
  -22.5260   -8.0960   21.3370 C   0  0  0  0  0  0  0  0  0  0  0  0
  -22.0940   -9.0500   20.3980 C   0  0  0  0  0  3  0  0  0  0  0  0
  -22.8140  -10.2420   20.2050 C   0  0  0  0  0  3  0  0  0  0  0  0
  -21.7780   -6.9480   21.4370 O   0  0  0  0  0  0  0  0  0  0  0  0
  -21.7260   -6.2230   22.6010 C   0  0  0  0  0  0  0  0  0  0  0  0
  -21.2800   -6.7920   23.8140 C   0  0  0  0  0  3  0  0  0  0  0  0
  -21.1770   -5.9930   24.9700 C   0  0  0  0  0  3  0  0  0  0  0  0
  -21.5080   -4.6260   24.9130 C   0  0  0  0  0  0  0  0  0  0  0  0
  -21.9470   -4.0560   23.7050 C   0  0  0  0  0  3  0  0  0  0  0  0
  -22.0520   -4.8530   22.5510 C   0  0  0  0  0  0  0  0  0  0  0  0
  -22.4550   -4.2950   21.3850 F   0  0  0  0  0  0  0  0  0  0  0  0
  -21.4020   -3.8550   26.0210 F   0  0  0  0  0  0  0  0  0  0  0  0
  -22.8480  -13.5930   21.1570 C   0  0  0  0  0  0  0  0  0  0  0  0
  -22.1570  -12.8820   22.0410 N   0  0  0  0  0  0  0  0  0  0  0  0
  -22.3900  -14.6280   20.6730 O   0  0  0  0  0  0  0  0  0  0  0  0
  -22.5410  -12.0440   22.4530 H   0  0  0  0  0  0  0  0  0  0  0  0
  -21.2300  -13.1810   22.3110 H   0  0  0  0  0  0  0  0  0  0  0  0
  -25.4380  -15.2720   20.2490 N   0  0  0  0  0  0  0  0  0  0  0  0
  -24.6720  -15.9230   20.3850 H   0  0  0  0  0  0  0  0  0  0  0  0
  -26.2660  -15.7060   19.8650 H   0  0  0  0  0  0  0  0  0  0  0  0
  -28.2510  -23.7210   20.5240 C   0  0  0  0  0  2  0  0  0  0  0  0
  -28.4970  -25.1140   19.7310 C   0  0  0  0  0  2  0  0  0  0  0  0
  -28.3500  -26.4770   20.3420 O   0  0  0  0  0  0  0  0  0  0  0  0
  -24.5930  -31.9290   23.2460 C   0  0  0  0  0  0  0  0  0  0  0  0
  -27.2170  -27.3120   20.2440 C   0  0  0  0  0  0  0  0  0  0  0  0
  -23.4000  -30.5190   21.6060 C   0  0  0  0  0  3  0  0  0  0  0  0
  -24.8550  -28.9490   20.1980 C   0  0  0  0  0  0  0  0  0  0  0  0
  -25.9410  -30.8250   21.4390 C   0  0  0  0  0  2  0  0  0  0  0  0
  -26.0200  -29.4370   20.8030 C   0  0  0  0  0  0  0  0  0  0  0  0
  -27.1990  -28.6290   20.8150 C   0  0  0  0  0  3  0  0  0  0  0  0
  -26.0270  -26.8790   19.6200 C   0  0  0  0  0  3  0  0  0  0  0  0
  -24.8640  -27.6780   19.5990 C   0  0  0  0  0  3  0  0  0  0  0  0
  -23.6210  -29.8300   20.2330 C   0  0  0  0  0  2  0  0  0  0  0  0
  -24.6630  -31.1100   22.1540 N   0  0  0  0  0  0  0  0  0  0  0  0
  -23.5060  -32.2120   23.7700 O   0  0  0  0  0  0  0  0  0  0  0  0
  -22.7250  -29.5160   22.5720 C   0  0  0  0  0  0  0  0  0  0  0  0
  -21.3980  -29.3500   22.4460 N   0  0  0  0  0  0  0  0  0  0  0  0
  -23.3970  -28.8870   23.3950 O   0  0  0  0  0  0  0  0  0  0  0  0
  -20.9150  -29.9080   21.7570 H   0  0  0  0  0  0  0  0  0  0  0  0
  -18.0070  -28.1930   22.9570 C   0  0  0  0  0  0  0  0  0  0  0  0
  -20.5700  -28.4230   23.2200 C   0  0  0  0  0  3  0  0  0  0  0  0
  -20.6540  -26.9900   22.6440 C   0  0  0  0  0  2  0  0  0  0  0  0
  -19.5450  -26.6810   21.6320 C   0  0  0  0  0  2  0  0  0  0  0  0
  -18.1670  -26.8430   22.2790 C   0  0  0  0  0  2  0  0  0  0  0  0
  -19.1360  -28.9420   23.3840 C   0  0  0  0  0  0  0  0  0  0  0  0
  -18.9330  -30.2070   23.9770 C   0  0  0  0  0  3  0  0  0  0  0  0
  -17.6350  -30.7230   24.1470 C   0  0  0  0  0  3  0  0  0  0  0  0
  -16.5210  -29.9720   23.7370 C   0  0  0  0  0  3  0  0  0  0  0  0
  -16.7080  -28.7080   23.1470 C   0  0  0  0  0  3  0  0  0  0  0  0
  -25.8730  -32.5650   23.8740 C   0  0  0  0  0  3  0  0  0  0  0  0
  -26.3770  -31.8020   25.1600 C   0  0  1  0  0  0  0  0  0  0  0  0
  -25.2740  -31.5700   26.2190 C   0  0  0  0  0  1  0  0  0  0  0  0
  -26.9650  -30.4230   24.7820 C   0  0  0  0  0  1  0  0  0  0  0  0
  -27.5230  -32.6000   25.8270 C   0  0  0  0  0  1  0  0  0  0  0  0
  -25.5630  -33.9660   24.1940 N   0  0  0  0  0  0  0  0  0  0  0  0
  -25.9050  -35.0150   23.4350 C   0  0  0  0  0  0  0  0  0  0  0  0
  -26.5820  -34.9060   22.4100 O   0  0  0  0  0  0  0  0  0  0  0  0
  -24.9640  -34.1250   24.9910 H   0  0  0  0  0  0  0  0  0  0  0  0
  -24.1870  -36.8130   23.0590 C   0  0  0  0  0  1  0  0  0  0  0  0
  -25.4190  -36.4080   23.8830 C   0  0  0  0  0  3  0  0  0  0  0  0
  -27.5480  -37.2870   24.7320 C   0  0  0  0  0  1  0  0  0  0  0  0
  -26.4560  -37.4560   23.7780 N   0  0  0  0  0  0  0  0  0  0  0  0
  -26.0520  -38.3770   23.9190 H   0  0  0  0  0  0  0  0  0  0  0  0
  2  1  1  0
  4  3  1  0
  4  6  1  0
  4  1  1  0
  5  3  1  0
  5 49  1  0
  5  2  1  0
  6  8  1  0
  7  6  1  0
  9 20  1  0
 10 15  1  0
 11 12  1  0
 11 10  1  0
 13 12  1  0
 13 24  1  0
 13 14  1  0
 15  9  1  0
 15 14  1  0
 16  9  2  0
 17 18  1  0
 19  6  1  0
 19 20  1  0
 19 17  1  0
 20 18  1  0
 21 22  2  0
 22 41  1  0
 23 22  1  0
 23 26  1  0
 24 25  1  0
 24 21  1  0
 25 23  2  0
 26 27  1  0
 27 28  2  0
 29 32  1  0
 29 28  1  0
 30 29  2  0
 31 30  1  0
 31 26  2  0
 32 33  1  0
 33 34  1  0
 34 35  2  0
 36 35  1  0
 36 40  1  0
 37 36  2  0
 38 33  2  0
 38 37  1  0
 39 38  1  0
 41 42  1  0
 42 45  1  0
 42 44  1  0
 43 41  2  0
 46 47  1  0
 46 21  1  0
 48 46  1  0
 50 51  1  0
 50 49  1  0
 52 63  2  0
 53 51  1  0
 53 58  1  0
 54 62  1  0
 54 64  1  0
 55 61  1  0
 55 57  1  0
 56 62  1  0
 57 58  2  0
 57 56  1  0
 59 53  2  0
 60 59  1  0
 60 55  2  0
 61 54  1  0
 62 52  1  0
 64 66  2  0
 65 64  1  0
 67 65  1  0
 68 77  2  0
 68 73  1  0
 69 65  1  0
 69 73  1  0
 70 69  1  0
 71 72  1  0
 71 70  1  0
 72 68  1  0
 73 74  2  0
 74 75  1  0
 76 75  2  0
 77 76  1  0
 78 52  1  0
 78 83  1  0
 78 79  1  0
 79 82  1  1
 79 80  1  0
 81 79  1  0
 83 86  1  0
 84 88  1  0
 84 83  1  0
 85 84  2  0
 88 87  1  0
 90 88  1  0
 90 91  1  0
 90 89  1  0
M  ISO  4   9 100  20 100  50 101  51 101
M  END
>  <TORSDO>  (91) 
F 19

>  <SCORE>  (91) 
-14.253

>  <name>  (91) 
91

>  <ligand_id>  (91) 
91

>  <original_smiles>  (91) 
[H]c1c([H])c([H])c2c(c1[H])C([H])([H])C([H])([H])C([H])([H])C2([H])N([H])C(=O)C1([H])N(C(=O)C([H])(N([H])C(=O)C([H])(N([H])C([H])([H])[H])C([H])([H])[H])C(C([H])([H])[H])(C([H])([H])[H])C([H])([H])[H])C([H])([H])c2c([H])c(OC([H])([H])C([H])([H])N3C([H])([H])C([H])([H])C([H])([N+]([H])([H])C4([H])N(C(=O)N5C([H])([H])C([H])([H])C([H])([H])C([H])(n6nc(-c7c([H])c([H])c(Oc8c([H])c([H])c(F)c([H])c8F)c([H])c7[H])c(C(=O)N([H])[H])c6N([H])[H])C5([H])[H])C([H])([H])C4([H])[H])C3([H])[H])c([H])c([H])c2C1([H])[H]

>  <smiles>  (91) 
[H]c1c([H])c([H])c2c(c1[H])C([H])([H])C([H])([H])C([H])([H])C2([H])N([H])C(=O)C1([H])N(C(=O)C([H])(N([H])C(=O)C([H])(N([H])C([H])([H])[H])C([H])([H])[H])C(C([H])([H])[H])(C([H])([H])[H])C([H])([H])[H])C([H])([H])c2c([H])c(OC([H])([H])C([H])([H])N3C([H])([H])C([H])([H])C([H])([N+]([H])([H])C4([H])N(C(=O)N5C([H])([H])C([H])([H])C([H])([H])C([H])(n6nc(-c7c([H])c([H])c(Oc8c([H])c([H])c(F)c([H])c8F)c([H])c7[H])c(C(=O)N([H])[H])c6N([H])[H])C5([H])[H])C([H])([H])C4([H])[H])C3([H])[H])c([H])c([H])c2C1([H])[H]

$$$$
92:0:0
     RDKit          3D

 95104  0  0  1  0  0  0  0  0999 V2000
  -29.2680  -19.8590   19.5700 C   0  0  0  0  0  3  0  0  0  0  0  0
  -30.1920  -19.3300   21.8730 C   0  0  0  0  0  2  0  0  0  0  0  0
  -31.4810  -19.9830   22.4140 C   0  0  0  0  0  2  0  0  0  0  0  0
  -32.9010  -19.1740   20.5550 C   0  0  0  0  0  2  0  0  0  0  0  0
  -31.6720  -18.6880   19.7920 C   0  0  0  0  0  3  0  0  0  0  0  0
  -30.9370  -17.4670   20.2550 C   0  0  0  0  0  3  0  0  0  0  0  0
  -30.2900  -18.9430   20.3960 C   0  0  2  0  0  0  0  0  0  0  0  0
  -33.8990  -19.6680   22.7600 C   0  0  0  0  0  1  0  0  0  0  0  0
  -32.6940  -19.2170   22.0300 N   0  0  1  0  0  4  0  0  0  0  0  0
  -32.5470  -18.2690   22.3420 H   0  0  0  0  0  0  0  0  0  0  0  0
  -31.4030  -15.1690   19.2570 C   0  0  0  0  0  0  0  0  0  0  0  0
  -31.1170  -12.8090   18.4800 C   0  0  0  0  0  2  0  0  0  0  0  0
  -29.9990  -12.7270   17.4190 C   0  0  0  0  0  2  0  0  0  0  0  0
  -28.6130  -12.5910   18.0860 C   0  0  0  0  0  2  0  0  0  0  0  0
  -28.4000  -13.6050   19.2430 C   0  0  0  0  0  3  0  0  0  0  0  0
  -29.6170  -13.6460   20.1900 C   0  0  0  0  0  2  0  0  0  0  0  0
  -30.7880  -13.9490   19.3600 N   0  0  0  0  0  0  0  0  0  0  0  0
  -32.5620  -15.2590   18.8450 O   0  0  0  0  0  0  0  0  0  0  0  0
  -30.6250  -16.2990   19.4100 N   0  0  0  0  0  0  0  0  0  0  0  0
  -29.6370  -16.0870   19.3960 H   0  0  0  0  0  0  0  0  0  0  0  0
  -26.3140  -14.2770   20.5770 C   0  0  0  0  0  0  0  0  0  0  0  0
  -25.2470  -13.5530   21.0360 C   0  0  0  0  0  0  0  0  0  0  0  0
  -25.5060  -12.1950   20.6760 C   0  0  0  0  0  0  0  0  0  0  0  0
  -27.1570  -13.3610   19.9660 N   0  0  0  0  0  0  0  0  0  0  0  0
  -26.6920  -12.0910   20.0870 N   0  0  0  0  0  0  0  0  0  0  0  0
  -24.6670  -10.9970   20.8050 C   0  0  0  0  0  0  0  0  0  0  0  0
  -25.0340   -9.9230   21.6470 C   0  0  0  0  0  3  0  0  0  0  0  0
  -24.2000   -8.7900   21.7660 C   0  0  0  0  0  3  0  0  0  0  0  0
  -22.9850   -8.7240   21.0420 C   0  0  0  0  0  0  0  0  0  0  0  0
  -22.6370   -9.7840   20.1860 C   0  0  0  0  0  3  0  0  0  0  0  0
  -23.4710  -10.9090   20.0650 C   0  0  0  0  0  3  0  0  0  0  0  0
  -22.1250   -7.6520   21.0760 O   0  0  0  0  0  0  0  0  0  0  0  0
  -21.8890   -6.9560   22.2350 C   0  0  0  0  0  0  0  0  0  0  0  0
  -21.3190   -7.5730   23.3710 C   0  0  0  0  0  3  0  0  0  0  0  0
  -21.0250   -6.8050   24.5150 C   0  0  0  0  0  3  0  0  0  0  0  0
  -21.2950   -5.4230   24.5240 C   0  0  0  0  0  0  0  0  0  0  0  0
  -21.8580   -4.8070   23.3920 C   0  0  0  0  0  3  0  0  0  0  0  0
  -22.1510   -5.5720   22.2500 C   0  0  0  0  0  0  0  0  0  0  0  0
  -22.6740   -4.9700   21.1550 F   0  0  0  0  0  0  0  0  0  0  0  0
  -21.0060   -4.6830   25.6210 F   0  0  0  0  0  0  0  0  0  0  0  0
  -24.0070  -14.1040   21.6820 C   0  0  0  0  0  0  0  0  0  0  0  0
  -23.3960  -13.3460   22.5860 N   0  0  0  0  0  0  0  0  0  0  0  0
  -23.6010  -15.2340   21.4200 O   0  0  0  0  0  0  0  0  0  0  0  0
  -23.7370  -12.4260   22.8220 H   0  0  0  0  0  0  0  0  0  0  0  0
  -22.5700  -13.6960   23.0520 H   0  0  0  0  0  0  0  0  0  0  0  0
  -26.6210  -15.6340   20.6040 N   0  0  0  0  0  0  0  0  0  0  0  0
  -25.9730  -16.3170   20.9800 H   0  0  0  0  0  0  0  0  0  0  0  0
  -27.4180  -16.0570   20.1510 H   0  0  0  0  0  0  0  0  0  0  0  0
  -29.5560  -21.4640   19.4750 C   0  0  0  0  0  3  0  0  0  0  0  0
  -28.4360  -22.4300   19.0520 N   0  0  0  0  0  4  0  0  0  0  0  0
  -27.6750  -22.3070   19.7010 H   0  0  0  0  0  0  0  0  0  0  0  0
  -28.0920  -22.1310   18.1530 H   0  0  0  0  0  0  0  0  0  0  0  0
  -28.7250  -23.9430   18.9640 C   0  0  0  0  0  3  0  0  0  0  0  0
  -27.5060  -24.9270   18.5560 C   0  0  0  0  0  3  0  0  0  0  0  0
  -27.6640  -26.4160   18.4060 O   0  0  0  0  0  0  0  0  0  0  0  0
  -24.2610  -31.3670   22.4490 C   0  0  0  0  0  0  0  0  0  0  0  0
  -26.5290  -27.2400   18.5890 C   0  0  0  0  0  0  0  0  0  0  0  0
  -22.8620  -30.0330   20.9130 C   0  0  0  0  0  3  0  0  0  0  0  0
  -24.1200  -28.7120   19.1180 C   0  0  0  0  0  0  0  0  0  0  0  0
  -25.3140  -30.5320   20.3340 C   0  0  0  0  0  2  0  0  0  0  0  0
  -25.3510  -29.2210   19.5540 C   0  0  0  0  0  0  0  0  0  0  0  0
  -26.5560  -28.4980   19.2800 C   0  0  0  0  0  3  0  0  0  0  0  0
  -25.2670  -26.8130   18.1140 C   0  0  0  0  0  3  0  0  0  0  0  0
  -24.0810  -27.5180   18.3880 C   0  0  0  0  0  3  0  0  0  0  0  0
  -22.8660  -29.4890   19.4590 C   0  0  0  0  0  2  0  0  0  0  0  0
  -24.1730  -30.6590   21.2850 N   0  0  0  0  0  0  0  0  0  0  0  0
  -23.2750  -31.5250   23.1850 O   0  0  0  0  0  0  0  0  0  0  0  0
  -22.4300  -28.8980   21.8750 C   0  0  0  0  0  0  0  0  0  0  0  0
  -21.1280  -28.5590   21.8730 N   0  0  0  0  0  0  0  0  0  0  0  0
  -23.2630  -28.3280   22.5830 O   0  0  0  0  0  0  0  0  0  0  0  0
  -20.5010  -29.0810   21.2780 H   0  0  0  0  0  0  0  0  0  0  0  0
  -18.0230  -26.8350   22.5410 C   0  0  0  0  0  0  0  0  0  0  0  0
  -20.5190  -27.4910   22.6670 C   0  0  0  0  0  3  0  0  0  0  0  0
  -20.8110  -26.1030   22.0520 C   0  0  0  0  0  2  0  0  0  0  0  0
  -19.7150  -25.6250   21.0950 C   0  0  0  0  0  2  0  0  0  0  0  0
  -18.3680  -25.5410   21.8210 C   0  0  0  0  0  2  0  0  0  0  0  0
  -19.0310  -27.7570   22.9240 C   0  0  0  0  0  0  0  0  0  0  0  0
  -18.6520  -28.9600   23.5580 C   0  0  0  0  0  3  0  0  0  0  0  0
  -17.2970  -29.2450   23.8120 C   0  0  0  0  0  3  0  0  0  0  0  0
  -16.3040  -28.3200   23.4460 C   0  0  0  0  0  3  0  0  0  0  0  0
  -16.6660  -27.1170   22.8160 C   0  0  0  0  0  3  0  0  0  0  0  0
  -25.5960  -32.0340   22.8990 C   0  0  0  0  0  3  0  0  0  0  0  0
  -25.2600  -33.2830   23.5970 N   0  0  0  0  0  0  0  0  0  0  0  0
  -25.4020  -34.5080   23.0750 C   0  0  0  0  0  0  0  0  0  0  0  0
  -25.9020  -34.7090   21.9650 O   0  0  0  0  0  0  0  0  0  0  0  0
  -24.8040  -33.1910   24.4930 H   0  0  0  0  0  0  0  0  0  0  0  0
  -23.5560  -36.1840   23.3900 C   0  0  0  0  0  1  0  0  0  0  0  0
  -24.9150  -35.7010   23.9200 C   0  0  0  0  0  3  0  0  0  0  0  0
  -27.0910  -36.5370   24.6940 C   0  0  0  0  0  1  0  0  0  0  0  0
  -25.8700  -36.8310   23.9500 N   0  0  0  0  0  0  0  0  0  0  0  0
  -25.4380  -37.6540   24.3630 H   0  0  0  0  0  0  0  0  0  0  0  0
  -26.4770  -31.1010   23.8180 C   0  0  1  0  0  0  0  0  0  0  0  0
  -25.6920  -30.4620   24.9860 C   0  0  0  0  0  1  0  0  0  0  0  0
  -27.1110  -29.9530   22.9980 C   0  0  0  0  0  1  0  0  0  0  0  0
  -27.6510  -31.9110   24.4170 C   0  0  0  0  0  1  0  0  0  0  0  0
  2  3  1  0
  4  9  1  0
  5  6  1  0
  5  7  1  0
  5  4  1  0
  6 19  1  0
  6  7  1  0
  7  1  1  6
  7  2  1  0
  9 10  1  1
  9  3  1  0
  9  8  1  0
 11 17  1  0
 11 19  1  0
 12 17  1  0
 13 14  1  0
 13 12  1  0
 15 14  1  0
 15 24  1  0
 15 16  1  0
 17 16  1  0
 18 11  2  0
 20 19  1  0
 21 46  1  0
 21 22  2  0
 22 41  1  0
 23 26  1  0
 23 22  1  0
 24 25  1  0
 24 21  1  0
 25 23  2  0
 26 27  1  0
 27 28  2  0
 29 32  1  0
 29 28  1  0
 30 29  2  0
 31 30  1  0
 31 26  2  0
 32 33  1  0
 33 38  2  0
 33 34  1  0
 34 35  2  0
 35 36  1  0
 36 40  1  0
 37 36  2  0
 38 37  1  0
 39 38  1  0
 41 42  1  0
 42 44  1  0
 42 45  1  0
 43 41  2  0
 46 47  1  0
 48 46  1  0
 49  1  2  0
 50 49  1  0
 50 51  1  0
 52 50  1  0
 53 50  1  0
 54 53  2  0
 55 54  1  0
 55 57  1  0
 56 67  2  0
 57 62  1  0
 58 66  1  0
 58 68  1  0
 59 65  1  0
 59 61  1  0
 60 66  1  0
 61 60  1  0
 62 61  2  0
 63 64  1  0
 63 57  2  0
 64 59  2  0
 65 58  1  0
 66 56  1  0
 68 70  2  0
 69 68  1  0
 71 69  1  0
 72 81  2  0
 72 77  1  0
 73 69  1  0
 73 77  1  0
 74 73  1  0
 75 76  1  0
 75 74  1  0
 76 72  1  0
 77 78  2  0
 78 79  1  0
 80 79  2  0
 81 80  1  0
 82 56  1  0
 82 83  1  0
 82 92  1  0
 83 86  1  0
 84 83  1  0
 84 88  1  0
 85 84  2  0
 88 87  1  0
 88 90  1  0
 90 91  1  0
 90 89  1  0
 92 95  1  1
 92 93  1  0
 94 92  1  0
M  ISO  4  11 100  19 100  54 101  55 101
M  END
>  <TORSDO>  (92) 
F 21

>  <SCORE>  (92) 
-8.382

>  <name>  (92) 
92

>  <ligand_id>  (92) 
92

>  <original_smiles>  (92) 
[H]c1c([H])c([H])c2c(c1[H])C([H])([H])C([H])([H])C([H])([H])C2([H])N([H])C(=O)C1([H])N(C(=O)C([H])(N([H])C(=O)C([H])(N([H])C([H])([H])[H])C([H])([H])[H])C(C([H])([H])[H])(C([H])([H])[H])C([H])([H])[H])C([H])([H])c2c([H])c(OC([H])([H])C([H])([H])[N+]([H])([H])C([H])([H])C([H])([H])C34C([H])([H])C([H])([H])[N+]([H])(C([H])([H])[H])C([H])([H])C3([H])C4([H])N([H])C(=O)N3C([H])([H])C([H])([H])C([H])([H])C([H])(n4nc(-c5c([H])c([H])c(Oc6c([H])c([H])c(F)c([H])c6F)c([H])c5[H])c(C(=O)N([H])[H])c4N([H])[H])C3([H])[H])c([H])c([H])c2C1([H])[H]

>  <smiles>  (92) 
[H]c1c([H])c([H])c2c(c1[H])C([H])([H])C([H])([H])C([H])([H])C2([H])N([H])C(=O)C1([H])N(C(=O)C([H])(N([H])C(=O)C([H])(N([H])C([H])([H])[H])C([H])([H])[H])C(C([H])([H])[H])(C([H])([H])[H])C([H])([H])[H])C([H])([H])c2c([H])c(OC([H])([H])C([H])([H])[N+]([H])([H])C([H])([H])C([H])([H])C34C([H])([H])C([H])([H])[N+]([H])(C([H])([H])[H])C([H])([H])C3([H])C4([H])N([H])C(=O)N3C([H])([H])C([H])([H])C([H])([H])C([H])(n4nc(-c5c([H])c([H])c(Oc6c([H])c([H])c(F)c([H])c6F)c([H])c5[H])c(C(=O)N([H])[H])c4N([H])[H])C3([H])[H])c([H])c([H])c2C1([H])[H]

$$$$
93:0:0
     RDKit          3D

 90 99  0  0  1  0  0  0  0  0999 V2000
  -28.6130  -22.7990   21.4010 C   0  0  0  0  0  2  0  0  0  0  0  0
  -28.6730  -23.5490   20.1940 C   0  0  0  0  0  0  0  0  0  0  0  0
  -29.4370  -20.8380   20.3740 C   0  0  0  0  0  0  0  0  0  0  0  0
  -29.6320  -18.4450   21.4760 C   0  0  0  0  0  2  0  0  0  0  0  0
  -29.8510  -18.4100   19.4230 C   0  0  0  0  0  2  0  0  0  0  0  0
  -30.3390  -17.4030   20.5310 C   0  0  0  0  0  3  0  0  0  0  0  0
  -29.0010  -21.4770   21.4800 N   0  0  0  0  0  0  0  0  0  0  0  0
  -29.1360  -22.8440   19.1150 N   0  0  0  0  0  0  0  0  0  0  0  0
  -29.5180  -21.5340   19.2100 N   0  0  0  0  0  2  0  0  0  0  0  0
  -29.9790  -19.4600   20.4590 N   0  0  0  0  0  0  0  0  0  0  0  0
  -30.5990  -14.7980   20.2620 C   0  0  0  0  0  0  0  0  0  0  0  0
  -30.3760  -12.5230   19.2480 C   0  0  0  0  0  2  0  0  0  0  0  0
  -29.4170  -12.5830   18.0380 C   0  0  0  0  0  2  0  0  0  0  0  0
  -27.9570  -12.4000   18.4940 C   0  0  0  0  0  2  0  0  0  0  0  0
  -27.5980  -13.2910   19.7130 C   0  0  0  0  0  3  0  0  0  0  0  0
  -28.6760  -13.2210   20.8170 C   0  0  0  0  0  2  0  0  0  0  0  0
  -29.9590  -13.5790   20.1980 N   0  0  0  0  0  0  0  0  0  0  0  0
  -31.7780  -14.8870   19.9090 O   0  0  0  0  0  0  0  0  0  0  0  0
  -29.8610  -15.9450   20.5230 N   0  0  0  0  0  0  0  0  0  0  0  0
  -28.8900  -15.7940   20.7480 H   0  0  0  0  0  0  0  0  0  0  0  0
  -25.2240  -13.8690   20.4950 C   0  0  0  0  0  0  0  0  0  0  0  0
  -24.1660  -13.0900   20.8750 C   0  0  0  0  0  0  0  0  0  0  0  0
  -24.6300  -11.7390   20.8190 C   0  0  0  0  0  0  0  0  0  0  0  0
  -26.2640  -12.9940   20.2280 N   0  0  0  0  0  0  0  0  0  0  0  0
  -25.9150  -11.7070   20.4860 N   0  0  0  0  0  0  0  0  0  0  0  0
  -23.9070  -10.4750   21.0050 C   0  0  0  0  0  0  0  0  0  0  0  0
  -24.3360   -9.5090   21.9430 C   0  0  0  0  0  3  0  0  0  0  0  0
  -23.6140   -8.3090   22.1170 C   0  0  0  0  0  3  0  0  0  0  0  0
  -22.4460   -8.0660   21.3550 C   0  0  0  0  0  0  0  0  0  0  0  0
  -22.0360   -9.0210   20.4080 C   0  0  0  0  0  3  0  0  0  0  0  0
  -22.7600  -10.2120   20.2310 C   0  0  0  0  0  3  0  0  0  0  0  0
  -21.6950   -6.9190   21.4390 O   0  0  0  0  0  0  0  0  0  0  0  0
  -21.6100   -6.1980   22.6030 C   0  0  0  0  0  0  0  0  0  0  0  0
  -21.1220   -6.7680   23.7990 C   0  0  0  0  0  3  0  0  0  0  0  0
  -20.9880   -5.9720   24.9540 C   0  0  0  0  0  3  0  0  0  0  0  0
  -21.3290   -4.6080   24.9140 C   0  0  0  0  0  0  0  0  0  0  0  0
  -21.8100   -4.0370   23.7220 C   0  0  0  0  0  3  0  0  0  0  0  0
  -21.9470   -4.8300   22.5690 C   0  0  0  0  0  0  0  0  0  0  0  0
  -22.3900   -4.2700   21.4180 F   0  0  0  0  0  0  0  0  0  0  0  0
  -21.1920   -3.8400   26.0210 F   0  0  0  0  0  0  0  0  0  0  0  0
  -22.7730  -13.5620   21.1770 C   0  0  0  0  0  0  0  0  0  0  0  0
  -22.0630  -12.8590   22.0510 N   0  0  0  0  0  0  0  0  0  0  0  0
  -22.3250  -14.5920   20.6730 O   0  0  0  0  0  0  0  0  0  0  0  0
  -22.4400  -12.0260   22.4800 H   0  0  0  0  0  0  0  0  0  0  0  0
  -21.1300  -13.1570   22.2960 H   0  0  0  0  0  0  0  0  0  0  0  0
  -25.3820  -15.2430   20.3290 N   0  0  0  0  0  0  0  0  0  0  0  0
  -24.6100  -15.8890   20.4520 H   0  0  0  0  0  0  0  0  0  0  0  0
  -26.2100  -15.6840   19.9490 H   0  0  0  0  0  0  0  0  0  0  0  0
  -27.8380  -24.8960   19.9310 C   0  0  0  0  0  2  0  0  0  0  0  0
  -28.2140  -26.3290   20.2530 O   0  0  0  0  0  0  0  0  0  0  0  0
  -24.6190  -31.9170   23.2700 C   0  0  0  0  0  0  0  0  0  0  0  0
  -27.1610  -27.2890   20.1770 C   0  0  0  0  0  0  0  0  0  0  0  0
  -23.4010  -30.5430   21.6270 C   0  0  0  0  0  3  0  0  0  0  0  0
  -24.8320  -28.9930   20.1810 C   0  0  0  0  0  0  0  0  0  0  0  0
  -25.9520  -30.8150   21.4490 C   0  0  0  0  0  2  0  0  0  0  0  0
  -26.0140  -29.4380   20.7870 C   0  0  0  0  0  0  0  0  0  0  0  0
  -27.1800  -28.5990   20.7780 C   0  0  0  0  0  3  0  0  0  0  0  0
  -25.9540  -26.9410   19.5200 C   0  0  0  0  0  3  0  0  0  0  0  0
  -24.8090  -27.7540   19.5360 C   0  0  0  0  0  3  0  0  0  0  0  0
  -23.6070  -29.8850   20.2400 C   0  0  0  0  0  2  0  0  0  0  0  0
  -24.6770  -31.1090   22.1700 N   0  0  0  0  0  0  0  0  0  0  0  0
  -23.5380  -32.2030   23.8050 O   0  0  0  0  0  0  0  0  0  0  0  0
  -22.7280  -29.5240   22.5800 C   0  0  0  0  0  0  0  0  0  0  0  0
  -21.4010  -29.3520   22.4500 N   0  0  0  0  0  0  0  0  0  0  0  0
  -23.4000  -28.8910   23.3980 O   0  0  0  0  0  0  0  0  0  0  0  0
  -20.9160  -29.9140   21.7640 H   0  0  0  0  0  0  0  0  0  0  0  0
  -18.0150  -28.1710   22.9470 C   0  0  0  0  0  0  0  0  0  0  0  0
  -20.5740  -28.4170   23.2170 C   0  0  0  0  0  3  0  0  0  0  0  0
  -20.6690  -26.9860   22.6380 C   0  0  0  0  0  2  0  0  0  0  0  0
  -19.5660  -26.6720   21.6230 C   0  0  0  0  0  2  0  0  0  0  0  0
  -18.1840  -26.8230   22.2680 C   0  0  0  0  0  2  0  0  0  0  0  0
  -19.1370  -28.9270   23.3790 C   0  0  0  0  0  0  0  0  0  0  0  0
  -18.9240  -30.1870   23.9770 C   0  0  0  0  0  3  0  0  0  0  0  0
  -17.6220  -30.6940   24.1450 C   0  0  0  0  0  3  0  0  0  0  0  0
  -16.5140  -29.9370   23.7290 C   0  0  0  0  0  3  0  0  0  0  0  0
  -16.7110  -28.6760   23.1360 C   0  0  0  0  0  3  0  0  0  0  0  0
  -25.9070  -32.5370   23.8910 C   0  0  0  0  0  3  0  0  0  0  0  0
  -25.6080  -33.9360   24.2290 N   0  0  0  0  0  0  0  0  0  0  0  0
  -25.9160  -34.9900   23.4610 C   0  0  0  0  0  0  0  0  0  0  0  0
  -26.5530  -34.8850   22.4090 O   0  0  0  0  0  0  0  0  0  0  0  0
  -25.0390  -34.0910   25.0490 H   0  0  0  0  0  0  0  0  0  0  0  0
  -24.1680  -36.7770   23.1800 C   0  0  0  0  0  1  0  0  0  0  0  0
  -25.4470  -36.3790   23.9350 C   0  0  0  0  0  3  0  0  0  0  0  0
  -27.6120  -37.2760   24.6670 C   0  0  0  0  0  1  0  0  0  0  0  0
  -26.4700  -37.4340   23.7710 N   0  0  0  0  0  0  0  0  0  0  0  0
  -26.0680  -38.3540   23.9290 H   0  0  0  0  0  0  0  0  0  0  0  0
  -26.4180  -31.7560   25.1650 C   0  0  1  0  0  0  0  0  0  0  0  0
  -25.3220  -31.5220   26.2310 C   0  0  0  0  0  1  0  0  0  0  0  0
  -26.9910  -30.3760   24.7700 C   0  0  0  0  0  1  0  0  0  0  0  0
  -27.5730  -32.5400   25.8290 C   0  0  0  0  0  1  0  0  0  0  0  0
  1  7  1  0
  2  1  1  0
  3 10  1  0
  3  7  2  0
  5 10  1  0
  5  6  1  0
  6 19  1  0
  6  4  1  0
  8  9  1  0
  8  2  2  0
  9  3  1  0
 10  4  1  0
 11 19  1  0
 12 17  1  0
 13 14  1  0
 13 12  1  0
 15 14  1  0
 15 24  1  0
 15 16  1  0
 17 11  1  0
 17 16  1  0
 18 11  2  0
 19 20  1  0
 21 22  2  0
 22 41  1  0
 23 22  1  0
 23 26  1  0
 24 25  1  0
 24 21  1  0
 25 23  2  0
 26 27  1  0
 27 28  2  0
 29 32  1  0
 29 28  1  0
 30 29  2  0
 31 30  1  0
 31 26  2  0
 32 33  1  0
 33 34  1  0
 34 35  2  0
 36 35  1  0
 36 40  1  0
 37 36  2  0
 38 33  2  0
 38 37  1  0
 39 38  1  0
 41 42  1  0
 42 45  1  0
 42 44  1  0
 43 41  2  0
 46 47  1  0
 46 21  1  0
 48 46  1  0
 49  2  1  0
 49 50  1  0
 51 62  2  0
 52 50  1  0
 52 57  1  0
 53 61  1  0
 53 63  1  0
 54 60  1  0
 54 56  1  0
 55 61  1  0
 56 55  1  0
 57 56  2  0
 58 59  1  0
 58 52  2  0
 59 54  2  0
 60 53  1  0
 61 51  1  0
 63 65  2  0
 64 63  1  0
 66 64  1  0
 67 76  2  0
 67 72  1  0
 68 64  1  0
 68 72  1  0
 69 68  1  0
 70 71  1  0
 70 69  1  0
 71 67  1  0
 72 73  2  0
 73 74  1  0
 75 74  2  0
 76 75  1  0
 77 51  1  0
 77 78  1  0
 77 87  1  0
 78 81  1  0
 79 83  1  0
 79 78  1  0
 80 79  2  0
 83 82  1  0
 85 86  1  0
 85 83  1  0
 85 84  1  0
 87 90  1  1
 87 88  1  0
 89 87  1  0
M  ISO  4  11 100  19 100  49 101  50 101
M  END
>  <TORSDO>  (93) 
F 17

>  <SCORE>  (93) 
-14.784

>  <name>  (93) 
93

>  <ligand_id>  (93) 
93

>  <original_smiles>  (93) 
[H]c1nc(N2C([H])([H])C([H])(N([H])C(=O)N3C([H])([H])C([H])([H])C([H])([H])C([H])(n4nc(-c5c([H])c([H])c(Oc6c([H])c([H])c(F)c([H])c6F)c([H])c5[H])c(C(=O)N([H])[H])c4N([H])[H])C3([H])[H])C2([H])[H])nnc1C([H])([H])Oc1c([H])c([H])c2c(c1[H])C([H])([H])N(C(=O)C([H])(N([H])C(=O)C([H])(N([H])C([H])([H])[H])C([H])([H])[H])C(C([H])([H])[H])(C([H])([H])[H])C([H])([H])[H])C([H])(C(=O)N([H])C1([H])c3c([H])c([H])c([H])c([H])c3C([H])([H])C([H])([H])C1([H])[H])C2([H])[H]

>  <smiles>  (93) 
[H]c1nc(N2C([H])([H])C([H])(N([H])C(=O)N3C([H])([H])C([H])([H])C([H])([H])C([H])(n4nc(-c5c([H])c([H])c(Oc6c([H])c([H])c(F)c([H])c6F)c([H])c5[H])c(C(=O)N([H])[H])c4N([H])[H])C3([H])[H])C2([H])[H])nnc1C([H])([H])Oc1c([H])c([H])c2c(c1[H])C([H])([H])N(C(=O)C([H])(N([H])C(=O)C([H])(N([H])C([H])([H])[H])C([H])([H])[H])C(C([H])([H])[H])(C([H])([H])[H])C([H])([H])[H])C([H])(C(=O)N([H])C1([H])c3c([H])c([H])c([H])c([H])c3C([H])([H])C([H])([H])C1([H])[H])C2([H])[H]

$$$$
94:0:0
     RDKit          3D

 98108  0  0  1  0  0  0  0  0999 V2000
  -28.0020  -22.7550   20.3500 C   0  0  0  0  0  0  0  0  0  0  0  0
  -29.3250  -23.1710   20.6600 C   0  0  0  0  0  0  0  0  0  0  0  0
  -27.8160  -21.3660   20.2090 C   0  0  0  0  0  0  0  0  0  0  0  0
  -29.9520  -20.9440   20.8840 C   0  0  0  0  0  0  0  0  0  0  0  0
  -30.2860  -22.2380   20.9440 N   0  0  0  0  0  0  0  0  0  0  0  0
  -28.7860  -20.4840   20.4780 N   0  0  0  0  0  0  0  0  0  0  0  0
  -30.8900  -19.9910   21.2910 N   0  0  0  0  0  0  0  0  0  0  0  0
  -31.7830  -20.3650   21.5850 H   0  0  0  0  0  0  0  0  0  0  0  0
  -31.5530  -15.1390   20.7380 C   0  0  0  0  0  0  0  0  0  0  0  0
  -31.1940  -13.1180   19.3700 C   0  0  0  0  0  2  0  0  0  0  0  0
  -30.3470  -13.5170   18.1440 C   0  0  0  0  0  2  0  0  0  0  0  0
  -28.8440  -13.4090   18.4790 C   0  0  0  0  0  2  0  0  0  0  0  0
  -28.4680  -14.0990   19.8170 C   0  0  0  0  0  3  0  0  0  0  0  0
  -29.4560  -13.7330   20.9480 C   0  0  0  0  0  2  0  0  0  0  0  0
  -30.8170  -14.0230   20.4680 N   0  0  0  0  0  0  0  0  0  0  0  0
  -32.7130  -15.2770   20.3370 O   0  0  0  0  0  0  0  0  0  0  0  0
  -31.3870  -18.0160   22.8090 C   0  0  0  0  0  2  0  0  0  0  0  0
  -31.1190  -16.5020   22.7030 C   0  0  0  0  0  2  0  0  0  0  0  0
  -30.8280  -17.5100   20.5790 C   0  0  0  0  0  2  0  0  0  0  0  0
  -30.5710  -18.5880   21.6560 C   0  0  0  0  0  3  0  0  0  0  0  0
  -30.8980  -16.2000   21.2810 N   0  0  0  0  0  0  0  0  0  0  0  0
  -26.0220  -14.7050   20.3220 C   0  0  0  0  0  0  0  0  0  0  0  0
  -24.9280  -13.9390   20.6180 C   0  0  0  0  0  0  0  0  0  0  0  0
  -25.3910  -12.5890   20.6540 C   0  0  0  0  0  0  0  0  0  0  0  0
  -27.0820  -13.8230   20.1930 N   0  0  0  0  0  0  0  0  0  0  0  0
  -26.7020  -12.5440   20.4510 N   0  0  0  0  0  0  0  0  0  0  0  0
  -24.6520  -11.3270   20.8190 C   0  0  0  0  0  0  0  0  0  0  0  0
  -24.9710  -10.4090   21.8420 C   0  0  0  0  0  3  0  0  0  0  0  0
  -24.2330   -9.2150   21.9910 C   0  0  0  0  0  3  0  0  0  0  0  0
  -23.1600   -8.9290   21.1120 C   0  0  0  0  0  0  0  0  0  0  0  0
  -22.8590   -9.8380   20.0820 C   0  0  0  0  0  3  0  0  0  0  0  0
  -23.6000  -11.0230   19.9330 C   0  0  0  0  0  3  0  0  0  0  0  0
  -22.4060   -7.7820   21.1620 O   0  0  0  0  0  0  0  0  0  0  0  0
  -22.1260   -7.1570   22.3500 C   0  0  0  0  0  0  0  0  0  0  0  0
  -21.4820   -7.8290   23.4120 C   0  0  0  0  0  3  0  0  0  0  0  0
  -21.1510   -7.1300   24.5890 C   0  0  0  0  0  3  0  0  0  0  0  0
  -21.4530   -5.7600   24.7050 C   0  0  0  0  0  0  0  0  0  0  0  0
  -22.0910   -5.0880   23.6460 C   0  0  0  0  0  3  0  0  0  0  0  0
  -22.4230   -5.7850   22.4720 C   0  0  0  0  0  0  0  0  0  0  0  0
  -23.0190   -5.1280   21.4480 F   0  0  0  0  0  0  0  0  0  0  0  0
  -21.1270   -5.0860   25.8330 F   0  0  0  0  0  0  0  0  0  0  0  0
  -23.5140  -14.4210   20.7650 C   0  0  0  0  0  0  0  0  0  0  0  0
  -22.7270  -13.7620   21.6080 N   0  0  0  0  0  0  0  0  0  0  0  0
  -23.1140  -15.4200   20.1690 O   0  0  0  0  0  0  0  0  0  0  0  0
  -23.0630  -12.9580   22.1160 H   0  0  0  0  0  0  0  0  0  0  0  0
  -21.7750  -14.0710   21.7500 H   0  0  0  0  0  0  0  0  0  0  0  0
  -26.2050  -16.0720   20.1360 N   0  0  0  0  0  0  0  0  0  0  0  0
  -25.4390  -16.7340   20.1880 H   0  0  0  0  0  0  0  0  0  0  0  0
  -27.0900  -16.4980   19.9000 H   0  0  0  0  0  0  0  0  0  0  0  0
  -26.4530  -24.7430   21.2230 C   0  0  0  0  0  2  0  0  0  0  0  0
  -25.5830  -23.5340   21.0120 C   0  0  0  0  0  2  0  0  0  0  0  0
  -26.8370  -23.7090   20.1810 C   0  0  0  0  0  3  0  0  0  0  0  0
  -26.5150  -19.4390   19.3510 C   0  0  0  0  0  1  0  0  0  0  0  0
  -26.5960  -20.8340   19.7790 N   0  0  0  0  0  0  0  0  0  0  0  0
  -25.7460  -21.3520   19.9730 H   0  0  0  0  0  0  0  0  0  0  0  0
  -29.7180  -24.6710   20.7820 C   0  0  0  0  0  2  0  0  0  0  0  0
  -29.0670  -25.6790   19.7640 C   0  0  0  0  0  2  0  0  0  0  0  0
  -28.9890  -27.0780   20.1920 O   0  0  0  0  0  0  0  0  0  0  0  0
  -24.7360  -31.9590   23.3040 C   0  0  0  0  0  0  0  0  0  0  0  0
  -27.7750  -27.7750   20.1380 C   0  0  0  0  0  0  0  0  0  0  0  0
  -23.6890  -30.5650   21.5540 C   0  0  0  0  0  3  0  0  0  0  0  0
  -25.2910  -29.1850   20.1240 C   0  0  0  0  0  0  0  0  0  0  0  0
  -26.2030  -31.0610   21.4920 C   0  0  0  0  0  2  0  0  0  0  0  0
  -26.3960  -29.7270   20.7900 C   0  0  0  0  0  0  0  0  0  0  0  0
  -27.6350  -29.0300   20.7960 C   0  0  0  0  0  3  0  0  0  0  0  0
  -26.6430  -27.2800   19.4480 C   0  0  0  0  0  3  0  0  0  0  0  0
  -25.4130  -27.9620   19.4520 C   0  0  0  0  0  3  0  0  0  0  0  0
  -23.9980  -29.9710   20.1550 C   0  0  0  0  0  2  0  0  0  0  0  0
  -24.8900  -31.2110   22.1740 N   0  0  0  0  0  0  0  0  0  0  0  0
  -23.6180  -32.1430   23.8060 O   0  0  0  0  0  0  0  0  0  0  0  0
  -23.0620  -29.4620   22.4370 C   0  0  0  0  0  0  0  0  0  0  0  0
  -21.7560  -29.2130   22.2510 N   0  0  0  0  0  0  0  0  0  0  0  0
  -23.7510  -28.8360   23.2470 O   0  0  0  0  0  0  0  0  0  0  0  0
  -21.2580  -29.7720   21.5720 H   0  0  0  0  0  0  0  0  0  0  0  0
  -18.4280  -27.8450   22.6020 C   0  0  0  0  0  0  0  0  0  0  0  0
  -20.9660  -28.1960   22.9480 C   0  0  0  0  0  3  0  0  0  0  0  0
  -21.1430  -26.8070   22.2900 C   0  0  0  0  0  2  0  0  0  0  0  0
  -20.0780  -26.5010   21.2330 C   0  0  0  0  0  2  0  0  0  0  0  0
  -18.6780  -26.5480   21.8490 C   0  0  0  0  0  2  0  0  0  0  0  0
  -19.5040  -28.6250   23.1030 C   0  0  0  0  0  0  0  0  0  0  0  0
  -19.2180  -29.8400   23.7650 C   0  0  0  0  0  3  0  0  0  0  0  0
  -17.8900  -30.2720   23.9340 C   0  0  0  0  0  3  0  0  0  0  0  0
  -16.8280  -29.4880   23.4510 C   0  0  0  0  0  3  0  0  0  0  0  0
  -17.0990  -28.2760   22.7900 C   0  0  0  0  0  3  0  0  0  0  0  0
  -25.9530  -32.6360   24.0040 C   0  0  0  0  0  3  0  0  0  0  0  0
  -26.4220  -31.8780   25.3050 C   0  0  1  0  0  0  0  0  0  0  0  0
  -25.2710  -31.5580   26.2880 C   0  0  0  0  0  1  0  0  0  0  0  0
  -27.1160  -30.5440   24.9430 C   0  0  0  0  0  1  0  0  0  0  0  0
  -27.4720  -32.7290   26.0580 C   0  0  0  0  0  1  0  0  0  0  0  0
  -25.5670  -34.0170   24.3230 N   0  0  0  0  0  0  0  0  0  0  0  0
  -25.9270  -35.0930   23.6090 C   0  0  0  0  0  0  0  0  0  0  0  0
  -26.6940  -35.0290   22.6440 O   0  0  0  0  0  0  0  0  0  0  0  0
  -24.8900  -34.1350   25.0620 H   0  0  0  0  0  0  0  0  0  0  0  0
  -24.1800  -36.8330   23.1130 C   0  0  0  0  0  1  0  0  0  0  0  0
  -25.3490  -36.4560   24.0370 C   0  0  0  0  0  3  0  0  0  0  0  0
  -27.3630  -37.3900   25.0830 C   0  0  0  0  0  1  0  0  0  0  0  0
  -26.3480  -37.5450   24.0440 N   0  0  0  0  0  0  0  0  0  0  0  0
  -25.8980  -38.4470   24.1720 H   0  0  0  0  0  0  0  0  0  0  0  0
  1  2  2  0
  2 56  1  0
  2  5  1  0
  3  1  1  0
  3  6  2  0
  4  5  2  0
  4  7  1  0
  6  4  1  0
  7  8  1  0
  9 21  1  0
 10 15  1  0
 11 12  1  0
 11 10  1  0
 13 12  1  0
 13 25  1  0
 13 14  1  0
 15  9  1  0
 15 14  1  0
 16  9  2  0
 18 17  1  0
 19 21  1  0
 19 20  1  0
 20  7  1  0
 20 17  1  0
 21 18  1  0
 22 23  2  0
 23 24  1  0
 23 42  1  0
 24 27  1  0
 25 22  1  0
 25 26  1  0
 26 24  2  0
 27 28  1  0
 28 29  2  0
 30 33  1  0
 30 29  1  0
 31 30  2  0
 32 31  1  0
 32 27  2  0
 33 34  1  0
 34 39  2  0
 34 35  1  0
 35 36  2  0
 36 37  1  0
 37 41  1  0
 38 37  2  0
 39 38  1  0
 40 39  1  0
 42 43  1  0
 43 46  1  0
 43 45  1  0
 44 42  2  0
 47 48  1  0
 47 22  1  0
 49 47  1  0
 51 50  1  0
 52  1  1  0
 52 51  1  0
 52 50  1  0
 53 54  1  0
 54 55  1  0
 54  3  1  0
 57 58  1  0
 57 56  1  0
 59 70  2  0
 60 58  1  0
 60 65  1  0
 61 69  1  0
 61 71  1  0
 62 68  1  0
 62 64  1  0
 63 69  1  0
 64 65  2  0
 64 63  1  0
 66 67  1  0
 66 60  2  0
 67 62  2  0
 68 61  1  0
 69 59  1  0
 71 73  2  0
 72 71  1  0
 74 72  1  0
 75 84  2  0
 75 80  1  0
 76 72  1  0
 76 80  1  0
 77 76  1  0
 78 79  1  0
 78 77  1  0
 79 75  1  0
 80 81  2  0
 81 82  1  0
 83 82  2  0
 84 83  1  0
 85 59  1  0
 85 90  1  0
 85 86  1  0
 86 89  1  1
 86 87  1  0
 88 86  1  0
 90 93  1  0
 91 95  1  0
 91 90  1  0
 92 91  2  0
 95 94  1  0
 95 97  1  0
 97 98  1  0
 97 96  1  0
M  ISO  4   9 100  21 100  57 101  58 101
M  END
>  <TORSDO>  (94) 
F 20

>  <SCORE>  (94) 
-10.712

>  <name>  (94) 
94

>  <ligand_id>  (94) 
94

>  <original_smiles>  (94) 
[H]c1c([H])c([H])c2c(c1[H])C([H])([H])C([H])([H])C([H])([H])C2([H])N([H])C(=O)C1([H])N(C(=O)C([H])(N([H])C(=O)C([H])(N([H])C([H])([H])[H])C([H])([H])[H])C(C([H])([H])[H])(C([H])([H])[H])C([H])([H])[H])C([H])([H])c2c([H])c(OC([H])([H])C([H])([H])c3nc(N([H])C4([H])C([H])([H])N(C(=O)N5C([H])([H])C([H])([H])C([H])([H])C([H])(n6nc(-c7c([H])c([H])c(Oc8c([H])c([H])c(F)c([H])c8F)c([H])c7[H])c(C(=O)N([H])[H])c6N([H])[H])C5([H])[H])C([H])([H])C4([H])[H])nc(N([H])C([H])([H])[H])c3C3([H])C([H])([H])C3([H])[H])c([H])c([H])c2C1([H])[H]

>  <smiles>  (94) 
[H]c1c([H])c([H])c2c(c1[H])C([H])([H])C([H])([H])C([H])([H])C2([H])N([H])C(=O)C1([H])N(C(=O)C([H])(N([H])C(=O)C([H])(N([H])C([H])([H])[H])C([H])([H])[H])C(C([H])([H])[H])(C([H])([H])[H])C([H])([H])[H])C([H])([H])c2c([H])c(OC([H])([H])C([H])([H])c3nc(N([H])C4([H])C([H])([H])N(C(=O)N5C([H])([H])C([H])([H])C([H])([H])C([H])(n6nc(-c7c([H])c([H])c(Oc8c([H])c([H])c(F)c([H])c8F)c([H])c7[H])c(C(=O)N([H])[H])c6N([H])[H])C5([H])[H])C([H])([H])C4([H])[H])nc(N([H])C([H])([H])[H])c3C3([H])C([H])([H])C3([H])[H])c([H])c([H])c2C1([H])[H]

$$$$
95:0:0
     RDKit          3D

 92101  0  0  1  0  0  0  0  0999 V2000
  -31.0440  -19.3450   19.2300 C   0  0  0  0  0  3  0  0  0  0  0  0
  -30.9410  -17.9500   19.5340 C   0  0  0  0  0  3  0  0  0  0  0  0
  -29.0060  -18.4050   20.9230 C   0  0  0  0  0  3  0  0  0  0  0  0
  -30.1220  -20.2710   19.7790 C   0  0  0  0  0  0  0  0  0  0  0  0
  -29.1300  -19.8150   20.6120 C   0  0  0  0  0  0  0  0  0  0  0  0
  -29.9250  -17.4140   20.3860 C   0  0  0  0  0  0  0  0  0  0  0  0
  -30.0510  -21.7810   19.6230 C   0  0  0  0  0  0  0  0  0  0  0  0
  -28.3540  -21.0930   21.0380 C   0  0  0  0  0  2  0  0  0  0  0  0
  -29.0190  -22.2880   20.3680 N   0  0  0  0  0  0  0  0  0  0  0  0
  -30.8600  -22.4360   18.9600 O   0  0  0  0  0  0  0  0  0  0  0  0
  -30.5740  -14.8280   20.3770 C   0  0  0  0  0  0  0  0  0  0  0  0
  -30.4110  -12.5230   19.4070 C   0  0  0  0  0  2  0  0  0  0  0  0
  -29.4900  -12.5690   18.1660 C   0  0  0  0  0  2  0  0  0  0  0  0
  -28.0140  -12.3990   18.5740 C   0  0  0  0  0  2  0  0  0  0  0  0
  -27.6210  -13.3040   19.7730 C   0  0  0  0  0  3  0  0  0  0  0  0
  -28.6610  -13.2310   20.9120 C   0  0  0  0  0  2  0  0  0  0  0  0
  -29.9660  -13.5870   20.3390 N   0  0  0  0  0  0  0  0  0  0  0  0
  -31.7560  -14.9290   20.0350 O   0  0  0  0  0  0  0  0  0  0  0  0
  -29.7830  -15.9450   20.6550 N   0  0  0  0  0  0  0  0  0  0  0  0
  -28.8860  -15.6840   21.0360 H   0  0  0  0  0  0  0  0  0  0  0  0
  -25.2230  -13.9090   20.4500 C   0  0  0  0  0  0  0  0  0  0  0  0
  -24.1490  -13.1410   20.8150 C   0  0  0  0  0  0  0  0  0  0  0  0
  -24.6110  -11.7890   20.8140 C   0  0  0  0  0  0  0  0  0  0  0  0
  -26.2680  -13.0240   20.2450 N   0  0  0  0  0  0  0  0  0  0  0  0
  -25.9070  -11.7450   20.5260 N   0  0  0  0  0  0  0  0  0  0  0  0
  -23.8800  -10.5300   21.0110 C   0  0  0  0  0  0  0  0  0  0  0  0
  -24.3000   -9.5720   21.9580 C   0  0  0  0  0  3  0  0  0  0  0  0
  -23.5680   -8.3780   22.1430 C   0  0  0  0  0  3  0  0  0  0  0  0
  -22.4020   -8.1360   21.3810 C   0  0  0  0  0  0  0  0  0  0  0  0
  -21.9990   -9.0850   20.4230 C   0  0  0  0  0  3  0  0  0  0  0  0
  -22.7320  -10.2680   20.2370 C   0  0  0  0  0  3  0  0  0  0  0  0
  -21.6420   -6.9950   21.4750 O   0  0  0  0  0  0  0  0  0  0  0  0
  -21.5910   -6.2580   22.6310 C   0  0  0  0  0  0  0  0  0  0  0  0
  -21.1760   -6.8230   23.8570 C   0  0  0  0  0  3  0  0  0  0  0  0
  -21.0710   -6.0120   25.0050 C   0  0  0  0  0  3  0  0  0  0  0  0
  -21.3690   -4.6390   24.9290 C   0  0  0  0  0  0  0  0  0  0  0  0
  -21.7760   -4.0740   23.7070 C   0  0  0  0  0  3  0  0  0  0  0  0
  -21.8830   -4.8820   22.5610 C   0  0  0  0  0  0  0  0  0  0  0  0
  -22.2550   -4.3270   21.3820 F   0  0  0  0  0  0  0  0  0  0  0  0
  -21.2610   -3.8590   26.0290 F   0  0  0  0  0  0  0  0  0  0  0  0
  -22.7480  -13.6240   21.0550 C   0  0  0  0  0  0  0  0  0  0  0  0
  -22.0040  -12.9420   21.9170 N   0  0  0  0  0  0  0  0  0  0  0  0
  -22.3220  -14.6430   20.5110 O   0  0  0  0  0  0  0  0  0  0  0  0
  -22.3610  -12.1180   22.3780 H   0  0  0  0  0  0  0  0  0  0  0  0
  -21.0620  -13.2470   22.1200 H   0  0  0  0  0  0  0  0  0  0  0  0
  -25.3920  -15.2760   20.2540 N   0  0  0  0  0  0  0  0  0  0  0  0
  -24.6200  -15.9300   20.3310 H   0  0  0  0  0  0  0  0  0  0  0  0
  -26.2380  -15.7050   19.9010 H   0  0  0  0  0  0  0  0  0  0  0  0
  -28.1150  -23.8870   22.1300 C   0  0  0  0  0  1  0  0  0  0  0  0
  -28.8670  -23.7780   20.7910 C   0  0  0  0  0  3  0  0  0  0  0  0
  -28.2590  -24.9080   19.7950 C   0  0  0  0  0  2  0  0  0  0  0  0
  -28.3480  -26.3870   20.1360 O   0  0  0  0  0  0  0  0  0  0  0  0
  -24.6690  -31.8690   23.1940 C   0  0  0  0  0  0  0  0  0  0  0  0
  -27.2400  -27.2760   20.0750 C   0  0  0  0  0  0  0  0  0  0  0  0
  -23.4510  -30.4790   21.5620 C   0  0  0  0  0  3  0  0  0  0  0  0
  -24.8860  -28.9410   20.1000 C   0  0  0  0  0  0  0  0  0  0  0  0
  -25.9920  -30.7870   21.3540 C   0  0  0  0  0  2  0  0  0  0  0  0
  -26.0640  -29.4070   20.6950 C   0  0  0  0  0  0  0  0  0  0  0  0
  -27.2400  -28.5860   20.6740 C   0  0  0  0  0  3  0  0  0  0  0  0
  -26.0400  -26.8970   19.4300 C   0  0  0  0  0  3  0  0  0  0  0  0
  -24.8800  -27.6960   19.4580 C   0  0  0  0  0  3  0  0  0  0  0  0
  -23.6510  -29.8190   20.1730 C   0  0  0  0  0  2  0  0  0  0  0  0
  -24.7250  -31.0640   22.0920 N   0  0  0  0  0  0  0  0  0  0  0  0
  -23.5910  -32.1410   23.7420 O   0  0  0  0  0  0  0  0  0  0  0  0
  -22.8000  -29.4540   22.5230 C   0  0  0  0  0  0  0  0  0  0  0  0
  -21.4730  -29.2740   22.4140 N   0  0  0  0  0  0  0  0  0  0  0  0
  -23.4910  -28.8240   23.3280 O   0  0  0  0  0  0  0  0  0  0  0  0
  -20.9720  -29.8350   21.7400 H   0  0  0  0  0  0  0  0  0  0  0  0
  -18.1080  -28.0490   22.9400 C   0  0  0  0  0  0  0  0  0  0  0  0
  -20.6680  -28.3280   23.1900 C   0  0  0  0  0  3  0  0  0  0  0  0
  -20.7750  -26.8990   22.6110 C   0  0  0  0  0  2  0  0  0  0  0  0
  -19.6680  -26.5700   21.6050 C   0  0  0  0  0  2  0  0  0  0  0  0
  -18.2900  -26.7020   22.2600 C   0  0  0  0  0  2  0  0  0  0  0  0
  -19.2250  -28.8190   23.3620 C   0  0  0  0  0  0  0  0  0  0  0  0
  -19.0000  -30.0770   23.9600 C   0  0  0  0  0  3  0  0  0  0  0  0
  -17.6940  -30.5670   24.1410 C   0  0  0  0  0  3  0  0  0  0  0  0
  -16.5910  -29.7940   23.7340 C   0  0  0  0  0  3  0  0  0  0  0  0
  -16.8000  -28.5370   23.1390 C   0  0  0  0  0  3  0  0  0  0  0  0
  -25.9550  -32.5050   23.8050 C   0  0  0  0  0  3  0  0  0  0  0  0
  -25.6380  -33.8960   24.1630 N   0  0  0  0  0  0  0  0  0  0  0  0
  -25.9470  -34.9660   23.4170 C   0  0  0  0  0  0  0  0  0  0  0  0
  -26.5970  -34.8860   22.3710 O   0  0  0  0  0  0  0  0  0  0  0  0
  -25.0590  -34.0320   24.9780 H   0  0  0  0  0  0  0  0  0  0  0  0
  -24.1960  -36.7500   23.1310 C   0  0  0  0  0  1  0  0  0  0  0  0
  -25.4560  -36.3420   23.9100 C   0  0  0  0  0  3  0  0  0  0  0  0
  -27.6020  -37.2310   24.7110 C   0  0  0  0  0  1  0  0  0  0  0  0
  -26.4770  -37.4060   23.7950 N   0  0  0  0  0  0  0  0  0  0  0  0
  -26.0670  -38.3200   23.9690 H   0  0  0  0  0  0  0  0  0  0  0  0
  -26.5000  -31.7210   25.0610 C   0  0  1  0  0  0  0  0  0  0  0  0
  -25.4280  -31.4620   26.1450 C   0  0  0  0  0  1  0  0  0  0  0  0
  -27.0840  -30.3510   24.6400 C   0  0  0  0  0  1  0  0  0  0  0  0
  -27.6570  -32.5120   25.7130 C   0  0  0  0  0  1  0  0  0  0  0  0
  1  2  2  0
  1  4  1  0
  2  6  1  0
  4  5  2  0
  5  3  1  0
  5  8  1  0
  6 19  1  0
  6  3  2  0
  7  4  1  0
  7  9  1  0
  9 50  1  0
  9  8  1  0
 10  7  2  0
 11 19  1  0
 12 17  1  0
 13 14  1  0
 13 12  1  0
 15 14  1  0
 15 24  1  0
 15 16  1  0
 17 11  1  0
 17 16  1  0
 18 11  2  0
 19 20  1  0
 21 22  2  0
 22 41  1  0
 23 22  1  0
 23 26  1  0
 24 21  1  0
 24 25  1  0
 25 23  2  0
 26 27  1  0
 27 28  2  0
 29 32  1  0
 29 28  1  0
 30 29  2  0
 31 30  1  0
 31 26  2  0
 32 33  1  0
 33 34  1  0
 34 35  2  0
 36 35  1  0
 36 40  1  0
 37 36  2  0
 38 33  2  0
 38 37  1  0
 39 38  1  0
 41 42  1  0
 42 45  1  0
 42 44  1  0
 43 41  2  0
 46 47  1  0
 46 21  1  0
 48 46  1  0
 50 49  1  0
 51 52  1  0
 51 50  1  0
 53 64  2  0
 54 52  1  0
 54 59  1  0
 55 63  1  0
 55 65  1  0
 56 62  1  0
 56 58  1  0
 57 63  1  0
 58 57  1  0
 59 58  2  0
 60 61  1  0
 60 54  2  0
 61 56  2  0
 62 55  1  0
 63 53  1  0
 65 67  2  0
 66 65  1  0
 68 66  1  0
 69 78  2  0
 69 74  1  0
 70 66  1  0
 70 74  1  0
 71 70  1  0
 72 73  1  0
 72 71  1  0
 73 69  1  0
 74 75  2  0
 75 76  1  0
 77 76  2  0
 78 77  1  0
 79 53  1  0
 79 80  1  0
 79 89  1  0
 80 83  1  0
 81 85  1  0
 81 80  1  0
 82 81  2  0
 85 84  1  0
 87 85  1  0
 87 88  1  0
 87 86  1  0
 89 92  1  1
 89 90  1  0
 91 89  1  0
M  ISO  4  11 100  19 100  51 101  52 101
M  END
>  <TORSDO>  (95) 
F 18

>  <SCORE>  (95) 
-14.396

>  <name>  (95) 
95

>  <ligand_id>  (95) 
95

>  <original_smiles>  (95) 
[H]c1c([H])c([H])c2c(c1[H])C([H])([H])C([H])([H])C([H])([H])C2([H])N([H])C(=O)C1([H])N(C(=O)C([H])(N([H])C(=O)C([H])(N([H])C([H])([H])[H])C([H])([H])[H])C(C([H])([H])[H])(C([H])([H])[H])C([H])([H])[H])C([H])([H])c2c([H])c(OC([H])([H])C([H])(N3C(=O)c4c([H])c([H])c(N([H])C(=O)N5C([H])([H])C([H])([H])C([H])([H])C([H])(n6nc(-c7c([H])c([H])c(Oc8c([H])c([H])c(F)c([H])c8F)c([H])c7[H])c(C(=O)N([H])[H])c6N([H])[H])C5([H])[H])c([H])c4C3([H])[H])C([H])([H])[H])c([H])c([H])c2C1([H])[H]

>  <smiles>  (95) 
[H]c1c([H])c([H])c2c(c1[H])C([H])([H])C([H])([H])C([H])([H])C2([H])N([H])C(=O)C1([H])N(C(=O)C([H])(N([H])C(=O)C([H])(N([H])C([H])([H])[H])C([H])([H])[H])C(C([H])([H])[H])(C([H])([H])[H])C([H])([H])[H])C([H])([H])c2c([H])c(OC([H])([H])C([H])(N3C(=O)c4c([H])c([H])c(N([H])C(=O)N5C([H])([H])C([H])([H])C([H])([H])C([H])(n6nc(-c7c([H])c([H])c(Oc8c([H])c([H])c(F)c([H])c8F)c([H])c7[H])c(C(=O)N([H])[H])c6N([H])[H])C5([H])[H])c([H])c4C3([H])[H])C([H])([H])[H])c([H])c([H])c2C1([H])[H]

$$$$
96:0:0
     RDKit          3D

 92100  0  0  1  0  0  0  0  0999 V2000
  -31.2700  -22.0580   21.1050 C   0  0  0  0  0  1  0  0  0  0  0  0
  -30.2360  -21.9590   19.9630 C   0  0  0  0  0  3  0  0  0  0  0  0
  -29.1050  -22.8730   20.2180 N   0  0  0  0  0  0  0  0  0  0  0  0
  -28.6240  -22.6280   21.0810 H   0  0  0  0  0  0  0  0  0  0  0  0
  -29.4320  -24.3170   20.2270 C   0  0  0  0  0  2  0  0  0  0  0  0
  -28.1790  -25.1970   19.9430 C   0  0  0  0  0  2  0  0  0  0  0  0
  -28.3480  -26.6270   20.1280 O   0  0  0  0  0  0  0  0  0  0  0  0
  -24.5430  -31.8510   23.2160 C   0  0  0  0  0  0  0  0  0  0  0  0
  -27.1870  -27.3950   20.1090 C   0  0  0  0  0  0  0  0  0  0  0  0
  -23.3360  -30.4440   21.5860 C   0  0  0  0  0  3  0  0  0  0  0  0
  -24.7890  -28.9230   20.1430 C   0  0  0  0  0  0  0  0  0  0  0  0
  -25.8630  -30.8110   21.3710 C   0  0  0  0  0  2  0  0  0  0  0  0
  -25.9530  -29.4410   20.7240 C   0  0  0  0  0  0  0  0  0  0  0  0
  -27.1560  -28.6870   20.7000 C   0  0  0  0  0  3  0  0  0  0  0  0
  -25.9970  -26.9140   19.5130 C   0  0  0  0  0  3  0  0  0  0  0  0
  -24.8080  -27.6620   19.5320 C   0  0  0  0  0  3  0  0  0  0  0  0
  -23.5390  -29.7730   20.2030 C   0  0  0  0  0  2  0  0  0  0  0  0
  -24.5990  -31.0500   22.1150 N   0  0  0  0  0  0  0  0  0  0  0  0
  -23.4630  -32.1160   23.7630 O   0  0  0  0  0  0  0  0  0  0  0  0
  -22.7000  -29.4140   22.5500 C   0  0  0  0  0  0  0  0  0  0  0  0
  -21.3760  -29.2170   22.4310 N   0  0  0  0  0  0  0  0  0  0  0  0
  -23.3940  -28.7940   23.3600 O   0  0  0  0  0  0  0  0  0  0  0  0
  -20.8770  -29.7700   21.7480 H   0  0  0  0  0  0  0  0  0  0  0  0
  -18.0160  -27.9820   22.9350 C   0  0  0  0  0  0  0  0  0  0  0  0
  -20.5710  -28.2730   23.2050 C   0  0  0  0  0  3  0  0  0  0  0  0
  -20.6910  -26.8400   22.6330 C   0  0  0  0  0  2  0  0  0  0  0  0
  -19.5920  -26.5010   21.6210 C   0  0  0  0  0  2  0  0  0  0  0  0
  -18.2090  -26.6320   22.2650 C   0  0  0  0  0  2  0  0  0  0  0  0
  -19.1250  -28.7600   23.3610 C   0  0  0  0  0  0  0  0  0  0  0  0
  -18.8920  -30.0240   23.9440 C   0  0  0  0  0  3  0  0  0  0  0  0
  -17.5810  -30.5100   24.1080 C   0  0  0  0  0  3  0  0  0  0  0  0
  -16.4860  -29.7290   23.6990 C   0  0  0  0  0  3  0  0  0  0  0  0
  -16.7060  -28.4670   23.1180 C   0  0  0  0  0  3  0  0  0  0  0  0
  -25.8280  -32.4930   23.8260 C   0  0  0  0  0  3  0  0  0  0  0  0
  -26.3720  -31.7160   25.0860 C   0  0  1  0  0  0  0  0  0  0  0  0
  -25.2960  -31.4560   26.1660 C   0  0  0  0  0  1  0  0  0  0  0  0
  -26.9680  -30.3500   24.6720 C   0  0  0  0  0  1  0  0  0  0  0  0
  -27.5200  -32.5200   25.7410 C   0  0  0  0  0  1  0  0  0  0  0  0
  -25.5040  -33.8850   24.1720 N   0  0  0  0  0  0  0  0  0  0  0  0
  -25.8130  -34.9480   23.4180 C   0  0  0  0  0  0  0  0  0  0  0  0
  -26.4710  -34.8630   22.3770 O   0  0  0  0  0  0  0  0  0  0  0  0
  -24.9180  -34.0230   24.9820 H   0  0  0  0  0  0  0  0  0  0  0  0
  -24.0530  -36.7180   23.1010 C   0  0  0  0  0  1  0  0  0  0  0  0
  -25.3100  -36.3250   23.8930 C   0  0  0  0  0  3  0  0  0  0  0  0
  -27.4450  -37.2310   24.7000 C   0  0  0  0  0  1  0  0  0  0  0  0
  -26.3270  -37.3940   23.7760 N   0  0  0  0  0  0  0  0  0  0  0  0
  -25.9100  -38.3060   23.9360 H   0  0  0  0  0  0  0  0  0  0  0  0
  -29.7720  -20.4860   19.6200 C   0  0  0  0  0  2  0  0  0  0  0  0
  -30.2560  -19.4070   20.5320 N   0  0  0  0  0  4  0  0  0  0  0  0
  -31.2610  -19.4510   20.5420 H   0  0  0  0  0  0  0  0  0  0  0  0
  -29.9310  -19.6060   21.4640 H   0  0  0  0  0  0  0  0  0  0  0  0
  -29.8630  -18.0040   20.1820 C   0  0  0  0  0  2  0  0  0  0  0  0
  -30.8330  -14.5010   20.0890 C   0  0  0  0  0  0  0  0  0  0  0  0
  -30.3870  -12.3780   18.8810 C   0  0  0  0  0  2  0  0  0  0  0  0
  -29.3730  -12.5970   17.7400 C   0  0  0  0  0  2  0  0  0  0  0  0
  -27.9260  -12.4750   18.2590 C   0  0  0  0  0  2  0  0  0  0  0  0
  -27.6860  -13.2960   19.5530 C   0  0  0  0  0  3  0  0  0  0  0  0
  -28.8030  -13.0390   20.5850 C   0  0  0  0  0  2  0  0  0  0  0  0
  -30.0930  -13.3570   19.9470 N   0  0  0  0  0  0  0  0  0  0  0  0
  -31.8810  -14.6690   19.4600 O   0  0  0  0  0  0  0  0  0  0  0  0
  -30.8730  -16.8140   22.3430 C   0  0  0  0  0  2  0  0  0  0  0  0
  -30.1130  -15.5020   22.2500 C   0  0  0  0  0  2  0  0  0  0  0  0
  -30.8000  -16.9430   20.8280 C   0  0  0  0  0  3  0  0  0  0  0  0
  -30.2880  -15.5370   20.7910 N   0  0  0  0  0  0  0  0  0  0  0  0
  -25.3530  -13.9350   20.4270 C   0  0  0  0  0  0  0  0  0  0  0  0
  -24.2940  -13.1780   20.8510 C   0  0  0  0  0  0  0  0  0  0  0  0
  -24.7230  -11.8180   20.7660 C   0  0  0  0  0  0  0  0  0  0  0  0
  -26.3620  -13.0370   20.1130 N   0  0  0  0  0  0  0  0  0  0  0  0
  -25.9890  -11.7570   20.3750 N   0  0  0  0  0  0  0  0  0  0  0  0
  -23.9820  -10.5670   20.9810 C   0  0  0  0  0  0  0  0  0  0  0  0
  -24.4470   -9.5780   21.8750 C   0  0  0  0  0  3  0  0  0  0  0  0
  -23.7090   -8.3930   22.0790 C   0  0  0  0  0  3  0  0  0  0  0  0
  -22.4910   -8.1870   21.3890 C   0  0  0  0  0  0  0  0  0  0  0  0
  -22.0420   -9.1660   20.4850 C   0  0  0  0  0  3  0  0  0  0  0  0
  -22.7800  -10.3440   20.2790 C   0  0  0  0  0  3  0  0  0  0  0  0
  -21.7200   -7.0560   21.5040 O   0  0  0  0  0  0  0  0  0  0  0  0
  -21.7150   -6.3020   22.6510 C   0  0  0  0  0  0  0  0  0  0  0  0
  -21.3840   -6.8570   23.9060 C   0  0  0  0  0  3  0  0  0  0  0  0
  -21.3210   -6.0310   25.0470 C   0  0  0  0  0  3  0  0  0  0  0  0
  -21.5790   -4.6530   24.9330 C   0  0  0  0  0  0  0  0  0  0  0  0
  -21.9040   -4.0970   23.6840 C   0  0  0  0  0  3  0  0  0  0  0  0
  -21.9670   -4.9190   22.5440 C   0  0  0  0  0  0  0  0  0  0  0  0
  -22.2590   -4.3750   21.3390 F   0  0  0  0  0  0  0  0  0  0  0  0
  -21.5110   -3.8590   26.0270 F   0  0  0  0  0  0  0  0  0  0  0  0
  -22.9290  -13.6790   21.2230 C   0  0  0  0  0  0  0  0  0  0  0  0
  -22.2480  -12.9900   22.1310 N   0  0  0  0  0  0  0  0  0  0  0  0
  -22.4760  -14.7180   20.7430 O   0  0  0  0  0  0  0  0  0  0  0  0
  -22.6290  -12.1500   22.5430 H   0  0  0  0  0  0  0  0  0  0  0  0
  -21.3330  -13.3070   22.4200 H   0  0  0  0  0  0  0  0  0  0  0  0
  -25.5360  -15.3050   20.2610 N   0  0  0  0  0  0  0  0  0  0  0  0
  -24.7930  -15.9740   20.4240 H   0  0  0  0  0  0  0  0  0  0  0  0
  -26.3770  -15.7230   19.8840 H   0  0  0  0  0  0  0  0  0  0  0  0
  2  3  1  0
  2  1  1  0
  3  5  1  0
  3  4  1  0
  6  7  1  0
  6  5  1  0
  8 19  2  0
  9  7  1  0
  9 14  1  0
 10 18  1  0
 10 20  1  0
 11 17  1  0
 11 13  1  0
 12 18  1  0
 13 12  1  0
 14 13  2  0
 15 16  1  0
 15  9  2  0
 16 11  2  0
 17 10  1  0
 18  8  1  0
 20 22  2  0
 21 20  1  0
 23 21  1  0
 24 33  2  0
 24 29  1  0
 25 21  1  0
 25 29  1  0
 26 25  1  0
 27 28  1  0
 27 26  1  0
 28 24  1  0
 29 30  2  0
 30 31  1  0
 32 31  2  0
 33 32  1  0
 34  8  1  0
 34 39  1  0
 34 35  1  0
 35 38  1  1
 35 36  1  0
 37 35  1  0
 39 42  1  0
 40 44  1  0
 40 39  1  0
 41 40  2  0
 44 43  1  0
 46 44  1  0
 46 47  1  0
 46 45  1  0
 48  2  1  0
 48 49  1  0
 49 50  1  0
 49 51  1  0
 52 49  1  0
 53 64  1  0
 54 59  1  0
 55 56  1  0
 55 54  1  0
 57 56  1  0
 57 68  1  0
 57 58  1  0
 59 53  1  0
 59 58  1  0
 60 53  2  0
 62 61  1  0
 63 52  1  0
 63 61  1  0
 64 63  1  0
 64 62  1  0
 65 66  2  0
 66 85  1  0
 67 66  1  0
 67 70  1  0
 68 69  1  0
 68 65  1  0
 69 67  2  0
 70 71  1  0
 71 72  2  0
 73 76  1  0
 73 72  1  0
 74 73  2  0
 75 74  1  0
 75 70  2  0
 76 77  1  0
 77 78  1  0
 78 79  2  0
 80 79  1  0
 80 84  1  0
 81 80  2  0
 82 77  2  0
 82 81  1  0
 83 82  1  0
 85 86  1  0
 86 89  1  0
 86 88  1  0
 87 85  2  0
 90 91  1  0
 90 65  1  0
 92 90  1  0
M  ISO  4   6 101   7 101  53 100  64 100
M  END
>  <TORSDO>  (96) 
F 22

>  <SCORE>  (96) 
-12.137

>  <name>  (96) 
96

>  <ligand_id>  (96) 
96

>  <original_smiles>  (96) 
[H]c1c([H])c([H])c2c(c1[H])C([H])([H])C([H])([H])C([H])([H])C2([H])N([H])C(=O)C1([H])N(C(=O)C([H])(N([H])C(=O)C([H])(N([H])C([H])([H])[H])C([H])([H])[H])C(C([H])([H])[H])(C([H])([H])[H])C([H])([H])[H])C([H])([H])c2c([H])c(OC([H])([H])C([H])([H])N([H])C([H])(C([H])([H])[H])C([H])([H])[N+]([H])([H])C([H])([H])C3([H])N(C(=O)N4C([H])([H])C([H])([H])C([H])([H])C([H])(n5nc(-c6c([H])c([H])c(Oc7c([H])c([H])c(F)c([H])c7F)c([H])c6[H])c(C(=O)N([H])[H])c5N([H])[H])C4([H])[H])C([H])([H])C3([H])[H])c([H])c([H])c2C1([H])[H]

>  <smiles>  (96) 
[H]c1c([H])c([H])c2c(c1[H])C([H])([H])C([H])([H])C([H])([H])C2([H])N([H])C(=O)C1([H])N(C(=O)C([H])(N([H])C(=O)C([H])(N([H])C([H])([H])[H])C([H])([H])[H])C(C([H])([H])[H])(C([H])([H])[H])C([H])([H])[H])C([H])([H])c2c([H])c(OC([H])([H])C([H])([H])N([H])C([H])(C([H])([H])[H])C([H])([H])[N+]([H])([H])C([H])([H])C3([H])N(C(=O)N4C([H])([H])C([H])([H])C([H])([H])C([H])(n5nc(-c6c([H])c([H])c(Oc7c([H])c([H])c(F)c([H])c7F)c([H])c6[H])c(C(=O)N([H])[H])c5N([H])[H])C4([H])[H])C([H])([H])C3([H])[H])c([H])c([H])c2C1([H])[H]

$$$$
97:0:0
     RDKit          3D

 95104  0  0  1  0  0  0  0  0999 V2000
  -29.3200  -21.0430   21.8140 C   0  0  0  0  0  2  0  0  0  0  0  0
  -28.3790  -20.8880   19.4570 C   0  0  0  0  0  2  0  0  0  0  0  0
  -29.3030  -22.5610   21.4700 C   0  0  0  0  0  2  0  0  0  0  0  0
  -27.6640  -22.2640   19.6150 C   0  0  0  0  0  2  0  0  0  0  0  0
  -28.5470  -20.1440   20.8080 C   0  0  0  0  0  3  0  0  0  0  0  0
  -28.0040  -22.9840   20.8850 N   0  0  2  0  0  4  0  0  0  0  0  0
  -27.3320  -22.6370   21.5560 H   0  0  0  0  0  0  0  0  0  0  0  0
  -29.0350  -18.7200   20.7440 N   0  0  0  0  0  4  0  0  0  0  0  0
  -29.4610  -18.4670   21.6230 H   0  0  0  0  0  0  0  0  0  0  0  0
  -28.2070  -18.1530   20.6650 H   0  0  0  0  0  0  0  0  0  0  0  0
  -31.8310  -17.6580   20.3180 C   0  0  0  0  0  2  0  0  0  0  0  0
  -31.3360  -18.9580   19.6720 C   0  0  0  0  0  2  0  0  0  0  0  0
  -30.6540  -16.9510   19.6220 C   0  0  0  0  0  3  0  0  0  0  0  0
  -29.9240  -18.3370   19.6060 C   0  0  0  0  0  3  0  0  0  0  0  0
  -30.8110  -14.5930   20.2970 C   0  0  0  0  0  0  0  0  0  0  0  0
  -30.4540  -12.3990   19.2640 C   0  0  0  0  0  2  0  0  0  0  0  0
  -29.5280  -12.5740   18.0430 C   0  0  0  0  0  2  0  0  0  0  0  0
  -28.0560  -12.4460   18.4810 C   0  0  0  0  0  2  0  0  0  0  0  0
  -27.7070  -13.3240   19.7150 C   0  0  0  0  0  3  0  0  0  0  0  0
  -28.7690  -13.1870   20.8310 C   0  0  0  0  0  2  0  0  0  0  0  0
  -30.0880  -13.4420   20.2360 N   0  0  0  0  0  0  0  0  0  0  0  0
  -32.0030  -14.6250   19.9970 O   0  0  0  0  0  0  0  0  0  0  0  0
  -30.1160  -15.7620   20.3410 N   0  0  0  0  0  0  0  0  0  0  0  0
  -29.1200  -15.6870   20.4780 H   0  0  0  0  0  0  0  0  0  0  0  0
  -25.3190  -13.9250   20.4460 C   0  0  0  0  0  0  0  0  0  0  0  0
  -24.2510  -13.1520   20.8210 C   0  0  0  0  0  0  0  0  0  0  0  0
  -24.7170  -11.8020   20.7980 C   0  0  0  0  0  0  0  0  0  0  0  0
  -26.3610  -13.0450   20.2100 N   0  0  0  0  0  0  0  0  0  0  0  0
  -26.0070  -11.7640   20.4890 N   0  0  0  0  0  0  0  0  0  0  0  0
  -23.9940  -10.5390   20.9940 C   0  0  0  0  0  0  0  0  0  0  0  0
  -24.4250   -9.5780   21.9370 C   0  0  0  0  0  3  0  0  0  0  0  0
  -23.7010   -8.3800   22.1200 C   0  0  0  0  0  3  0  0  0  0  0  0
  -22.5300   -8.1350   21.3630 C   0  0  0  0  0  0  0  0  0  0  0  0
  -22.1200   -9.0830   20.4080 C   0  0  0  0  0  3  0  0  0  0  0  0
  -22.8460  -10.2720   20.2230 C   0  0  0  0  0  3  0  0  0  0  0  0
  -21.7770   -6.9910   21.4570 O   0  0  0  0  0  0  0  0  0  0  0  0
  -21.7220   -6.2590   22.6170 C   0  0  0  0  0  0  0  0  0  0  0  0
  -21.2860   -6.8240   23.8360 C   0  0  0  0  0  3  0  0  0  0  0  0
  -21.1770   -6.0170   24.9860 C   0  0  0  0  0  3  0  0  0  0  0  0
  -21.4920   -4.6460   24.9200 C   0  0  0  0  0  0  0  0  0  0  0  0
  -21.9200   -4.0820   23.7050 C   0  0  0  0  0  3  0  0  0  0  0  0
  -22.0310   -4.8850   22.5580 C   0  0  0  0  0  0  0  0  0  0  0  0
  -22.4230   -4.3300   21.3860 F   0  0  0  0  0  0  0  0  0  0  0  0
  -21.3790   -3.8710   26.0240 F   0  0  0  0  0  0  0  0  0  0  0  0
  -22.8530  -13.6290   21.0840 C   0  0  0  0  0  0  0  0  0  0  0  0
  -22.1220  -12.9400   21.9530 N   0  0  0  0  0  0  0  0  0  0  0  0
  -22.4170  -14.6490   20.5530 O   0  0  0  0  0  0  0  0  0  0  0  0
  -22.4880  -12.1190   22.4110 H   0  0  0  0  0  0  0  0  0  0  0  0
  -21.1820  -13.2420   22.1640 H   0  0  0  0  0  0  0  0  0  0  0  0
  -25.4790  -15.2960   20.2610 N   0  0  0  0  0  0  0  0  0  0  0  0
  -24.7040  -15.9440   20.3610 H   0  0  0  0  0  0  0  0  0  0  0  0
  -26.3060  -15.7240   19.8690 H   0  0  0  0  0  0  0  0  0  0  0  0
  -27.7460  -24.4660   20.9140 C   0  0  0  0  0  2  0  0  0  0  0  0
  -28.4590  -25.3300   19.8330 C   0  0  0  0  0  2  0  0  0  0  0  0
  -28.4530  -26.7450   20.1270 O   0  0  0  0  0  0  0  0  0  0  0  0
  -24.6110  -31.8980   23.2030 C   0  0  0  0  0  0  0  0  0  0  0  0
  -27.2670  -27.4590   20.0990 C   0  0  0  0  0  0  0  0  0  0  0  0
  -23.4120  -30.4990   21.5510 C   0  0  0  0  0  3  0  0  0  0  0  0
  -24.8720  -28.9760   20.1170 C   0  0  0  0  0  0  0  0  0  0  0  0
  -25.9380  -30.8640   21.3610 C   0  0  0  0  0  2  0  0  0  0  0  0
  -26.0290  -29.4960   20.7090 C   0  0  0  0  0  0  0  0  0  0  0  0
  -27.2270  -28.7450   20.6970 C   0  0  0  0  0  3  0  0  0  0  0  0
  -26.0880  -26.9620   19.4960 C   0  0  0  0  0  3  0  0  0  0  0  0
  -24.8980  -27.7120   19.5080 C   0  0  0  0  0  3  0  0  0  0  0  0
  -23.6240  -29.8280   20.1680 C   0  0  0  0  0  2  0  0  0  0  0  0
  -24.6720  -31.1030   22.0950 N   0  0  0  0  0  0  0  0  0  0  0  0
  -23.5280  -32.1620   23.7430 O   0  0  0  0  0  0  0  0  0  0  0  0
  -22.7650  -29.4680   22.5040 C   0  0  0  0  0  0  0  0  0  0  0  0
  -21.4390  -29.2910   22.3870 N   0  0  0  0  0  0  0  0  0  0  0  0
  -23.4520  -28.8270   23.3030 O   0  0  0  0  0  0  0  0  0  0  0  0
  -20.9430  -29.8600   21.7160 H   0  0  0  0  0  0  0  0  0  0  0  0
  -18.0610  -28.1240   22.9060 C   0  0  0  0  0  0  0  0  0  0  0  0
  -20.6250  -28.3460   23.1490 C   0  0  0  0  0  3  0  0  0  0  0  0
  -20.7020  -26.9240   22.5430 C   0  0  0  0  0  2  0  0  0  0  0  0
  -19.5840  -26.6350   21.5360 C   0  0  0  0  0  2  0  0  0  0  0  0
  -18.2140  -26.7860   22.2040 C   0  0  0  0  0  2  0  0  0  0  0  0
  -19.1940  -28.8640   23.3350 C   0  0  0  0  0  0  0  0  0  0  0  0
  -18.9960  -30.1200   23.9480 C   0  0  0  0  0  3  0  0  0  0  0  0
  -17.6990  -30.6330   24.1390 C   0  0  0  0  0  3  0  0  0  0  0  0
  -16.5810  -29.8860   23.7310 C   0  0  0  0  0  3  0  0  0  0  0  0
  -16.7630  -28.6340   23.1180 C   0  0  0  0  0  3  0  0  0  0  0  0
  -25.8920  -32.5330   23.8270 C   0  0  0  0  0  3  0  0  0  0  0  0
  -26.4130  -31.7610   25.1020 C   0  0  1  0  0  0  0  0  0  0  0  0
  -25.3210  -31.5100   26.1680 C   0  0  0  0  0  1  0  0  0  0  0  0
  -27.0020  -30.3910   24.7010 C   0  0  0  0  0  1  0  0  0  0  0  0
  -27.5630  -32.5570   25.7670 C   0  0  0  0  0  1  0  0  0  0  0  0
  -25.5810  -33.9280   24.1620 N   0  0  0  0  0  0  0  0  0  0  0  0
  -25.9130  -34.9820   23.4050 C   0  0  0  0  0  0  0  0  0  0  0  0
  -26.5860  -34.8840   22.3760 O   0  0  0  0  0  0  0  0  0  0  0  0
  -24.9910  -34.0790   24.9670 H   0  0  0  0  0  0  0  0  0  0  0  0
  -24.1820  -36.7680   23.0470 C   0  0  0  0  0  1  0  0  0  0  0  0
  -25.4200  -36.3660   23.8660 C   0  0  0  0  0  3  0  0  0  0  0  0
  -27.5450  -37.2510   24.7190 C   0  0  0  0  0  1  0  0  0  0  0  0
  -26.4500  -37.4240   23.7670 N   0  0  0  0  0  0  0  0  0  0  0  0
  -26.0390  -38.3420   23.9220 H   0  0  0  0  0  0  0  0  0  0  0  0
  2  4  1  0
  2  5  1  0
  3  1  1  0
  4  6  1  0
  5  8  1  0
  5  1  1  0
  6 53  1  0
  6  3  1  0
  6  7  1  1
  8  9  1  0
 10  8  1  0
 12 11  1  0
 13 11  1  0
 13 23  1  0
 14 13  1  0
 14 12  1  0
 14  8  1  0
 15 23  1  0
 16 21  1  0
 17 18  1  0
 17 16  1  0
 19 18  1  0
 19 28  1  0
 19 20  1  0
 21 15  1  0
 21 20  1  0
 22 15  2  0
 23 24  1  0
 25 26  2  0
 26 45  1  0
 27 26  1  0
 27 30  1  0
 28 25  1  0
 28 29  1  0
 29 27  2  0
 30 31  1  0
 31 32  2  0
 33 36  1  0
 33 32  1  0
 34 33  2  0
 35 34  1  0
 35 30  2  0
 36 37  1  0
 37 38  1  0
 38 39  2  0
 40 39  1  0
 40 44  1  0
 41 40  2  0
 42 37  2  0
 42 41  1  0
 43 42  1  0
 45 46  1  0
 46 49  1  0
 46 48  1  0
 47 45  2  0
 50 51  1  0
 50 25  1  0
 52 50  1  0
 54 55  1  0
 54 53  1  0
 56 67  2  0
 57 55  1  0
 57 62  1  0
 58 66  1  0
 58 68  1  0
 59 65  1  0
 59 61  1  0
 60 66  1  0
 61 60  1  0
 62 61  2  0
 63 64  1  0
 63 57  2  0
 64 59  2  0
 65 58  1  0
 66 56  1  0
 68 70  2  0
 69 68  1  0
 71 69  1  0
 72 81  2  0
 72 77  1  0
 73 69  1  0
 73 77  1  0
 74 73  1  0
 75 76  1  0
 75 74  1  0
 76 72  1  0
 77 78  2  0
 78 79  1  0
 80 79  2  0
 81 80  1  0
 82 56  1  0
 82 87  1  0
 82 83  1  0
 83 86  1  1
 83 84  1  0
 85 83  1  0
 87 90  1  0
 88 92  1  0
 88 87  1  0
 89 88  2  0
 92 91  1  0
 94 92  1  0
 94 95  1  0
 94 93  1  0
M  ISO  4  15 100  23 100  54 101  55 101
M  END
>  <TORSDO>  (97) 
F 20

>  <SCORE>  (97) 
-14.145

>  <name>  (97) 
97

>  <ligand_id>  (97) 
97

>  <original_smiles>  (97) 
[H]c1c([H])c([H])c2c(c1[H])C([H])([H])C([H])([H])C([H])([H])C2([H])N([H])C(=O)C1([H])N(C(=O)C([H])(N([H])C(=O)C([H])(N([H])C([H])([H])[H])C([H])([H])[H])C(C([H])([H])[H])(C([H])([H])[H])C([H])([H])[H])C([H])([H])c2c([H])c(OC([H])([H])C([H])([H])[N+]3([H])C([H])([H])C([H])([H])C([H])([N+]([H])([H])C4([H])C([H])([H])C([H])([H])C4([H])N([H])C(=O)N4C([H])([H])C([H])([H])C([H])([H])C([H])(n5nc(-c6c([H])c([H])c(Oc7c([H])c([H])c(F)c([H])c7F)c([H])c6[H])c(C(=O)N([H])[H])c5N([H])[H])C4([H])[H])C([H])([H])C3([H])[H])c([H])c([H])c2C1([H])[H]

>  <smiles>  (97) 
[H]c1c([H])c([H])c2c(c1[H])C([H])([H])C([H])([H])C([H])([H])C2([H])N([H])C(=O)C1([H])N(C(=O)C([H])(N([H])C(=O)C([H])(N([H])C([H])([H])[H])C([H])([H])[H])C(C([H])([H])[H])(C([H])([H])[H])C([H])([H])[H])C([H])([H])c2c([H])c(OC([H])([H])C([H])([H])[N+]3([H])C([H])([H])C([H])([H])C([H])([N+]([H])([H])C4([H])C([H])([H])C([H])([H])C4([H])N([H])C(=O)N4C([H])([H])C([H])([H])C([H])([H])C([H])(n5nc(-c6c([H])c([H])c(Oc7c([H])c([H])c(F)c([H])c7F)c([H])c6[H])c(C(=O)N([H])[H])c5N([H])[H])C4([H])[H])C([H])([H])C3([H])[H])c([H])c([H])c2C1([H])[H]

$$$$
