0:0:0
     RDKit          3D

 91100  0  0  1  0  0  0  0  0999 V2000
  -30.1510  -19.9010   19.0560 C   0  0  0  0  0  3  0  0  0  0  0  0
  -29.7980  -21.2440   18.9620 C   0  0  0  0  0  0  0  0  0  0  0  0
  -29.5410  -19.3150   20.2070 C   0  0  0  0  0  0  0  0  0  0  0  0
  -28.8130  -20.4090   20.7500 N   0  0  0  0  0  0  0  0  0  0  0  0
  -28.9520  -21.6460   20.0040 N   0  0  0  0  0  0  0  0  0  0  0  0
  -31.6580  -22.4090   17.5910 C   0  0  0  0  0  2  0  0  0  0  0  0
  -30.8160  -23.5170   18.1720 C   0  0  0  0  0  2  0  0  0  0  0  0
  -30.1830  -22.1780   17.8530 C   0  0  2  0  0  0  0  0  0  0  0  0
  -29.2520  -22.0420   16.6630 C   0  0  0  0  0  1  0  0  0  0  0  0
  -29.9100  -17.8000   20.8640 C   0  0  0  0  0  2  0  0  0  0  0  0
  -30.4340  -15.0670   20.3190 C   0  0  0  0  0  0  0  0  0  0  0  0
  -30.3520  -12.6930   19.3640 C   0  0  0  0  0  2  0  0  0  0  0  0
  -29.4120  -12.5850   18.1400 C   0  0  0  0  0  2  0  0  0  0  0  0
  -27.9540  -12.3540   18.5840 C   0  0  0  0  0  2  0  0  0  0  0  0
  -27.5380  -13.2870   19.7510 C   0  0  0  0  0  3  0  0  0  0  0  0
  -28.6000  -13.3430   20.8670 C   0  0  0  0  0  2  0  0  0  0  0  0
  -29.8440  -13.7980   20.2320 N   0  0  0  0  0  0  0  0  0  0  0  0
  -31.6570  -15.1020   20.1440 O   0  0  0  0  0  0  0  0  0  0  0  0
  -29.6510  -16.2790   20.4000 N   0  0  0  0  0  0  0  0  0  0  0  0
  -28.6640  -16.0810   20.3310 H   0  0  0  0  0  0  0  0  0  0  0  0
  -25.1630  -13.8510   20.5090 C   0  0  0  0  0  0  0  0  0  0  0  0
  -24.1040  -13.0700   20.8830 C   0  0  0  0  0  0  0  0  0  0  0  0
  -24.5760  -11.7230   20.8540 C   0  0  0  0  0  0  0  0  0  0  0  0
  -26.2080  -12.9770   20.2640 N   0  0  0  0  0  0  0  0  0  0  0  0
  -25.8670  -11.6920   20.5410 N   0  0  0  0  0  0  0  0  0  0  0  0
  -23.8540  -10.4570   21.0470 C   0  0  0  0  0  0  0  0  0  0  0  0
  -24.2970   -9.4870   21.9730 C   0  0  0  0  0  3  0  0  0  0  0  0
  -23.5720   -8.2890   22.1560 C   0  0  0  0  0  3  0  0  0  0  0  0
  -22.3910   -8.0530   21.4120 C   0  0  0  0  0  0  0  0  0  0  0  0
  -21.9680   -9.0130   20.4750 C   0  0  0  0  0  3  0  0  0  0  0  0
  -22.6930  -10.2020   20.2910 C   0  0  0  0  0  3  0  0  0  0  0  0
  -21.6380   -6.9080   21.5050 O   0  0  0  0  0  0  0  0  0  0  0  0
  -21.6120   -6.1530   22.6500 C   0  0  0  0  0  0  0  0  0  0  0  0
  -21.2180   -6.6990   23.8920 C   0  0  0  0  0  3  0  0  0  0  0  0
  -21.1370   -5.8720   25.0300 C   0  0  0  0  0  3  0  0  0  0  0  0
  -21.4420   -4.5010   24.9280 C   0  0  0  0  0  0  0  0  0  0  0  0
  -21.8300   -3.9550   23.6910 C   0  0  0  0  0  3  0  0  0  0  0  0
  -21.9110   -4.7800   22.5550 C   0  0  0  0  0  0  0  0  0  0  0  0
  -22.2640   -4.2450   21.3610 F   0  0  0  0  0  0  0  0  0  0  0  0
  -21.3580   -3.7040   26.0180 F   0  0  0  0  0  0  0  0  0  0  0  0
  -22.7040  -13.5430   21.1490 C   0  0  0  0  0  0  0  0  0  0  0  0
  -21.9770  -12.8490   22.0150 N   0  0  0  0  0  0  0  0  0  0  0  0
  -22.2650  -14.5650   20.6220 O   0  0  0  0  0  0  0  0  0  0  0  0
  -22.3450  -12.0240   22.4660 H   0  0  0  0  0  0  0  0  0  0  0  0
  -21.0380  -13.1500   22.2360 H   0  0  0  0  0  0  0  0  0  0  0  0
  -25.3150  -15.2220   20.3260 N   0  0  0  0  0  0  0  0  0  0  0  0
  -24.5380  -15.8640   20.4330 H   0  0  0  0  0  0  0  0  0  0  0  0
  -26.1420  -15.6670   19.9520 H   0  0  0  0  0  0  0  0  0  0  0  0
  -28.0980  -23.0360   20.0630 C   0  0  0  0  0  2  0  0  0  0  0  0
  -28.4490  -24.6000   20.7020 C   0  0  0  0  0  2  0  0  0  0  0  0
  -28.3320  -26.1110   20.2000 O   0  0  0  0  0  0  0  0  0  0  0  0
  -24.6400  -31.8590   23.2250 C   0  0  0  0  0  0  0  0  0  0  0  0
  -27.2350  -27.0640   20.2690 C   0  0  0  0  0  0  0  0  0  0  0  0
  -23.4520  -30.4470   21.5930 C   0  0  0  0  0  3  0  0  0  0  0  0
  -24.9080  -28.8400   20.2020 C   0  0  0  0  0  0  0  0  0  0  0  0
  -26.0100  -30.6990   21.4400 C   0  0  0  0  0  2  0  0  0  0  0  0
  -26.0870  -29.2900   20.8090 C   0  0  0  0  0  0  0  0  0  0  0  0
  -27.2530  -28.4230   20.8110 C   0  0  0  0  0  3  0  0  0  0  0  0
  -26.0240  -26.7190   19.6370 C   0  0  0  0  0  3  0  0  0  0  0  0
  -24.8920  -27.5700   19.5990 C   0  0  0  0  0  3  0  0  0  0  0  0
  -23.6840  -29.7480   20.2250 C   0  0  0  0  0  2  0  0  0  0  0  0
  -24.7220  -31.0260   22.1400 N   0  0  0  0  0  0  0  0  0  0  0  0
  -23.5500  -32.1490   23.7430 O   0  0  0  0  0  0  0  0  0  0  0  0
  -22.7640  -29.4540   22.5630 C   0  0  0  0  0  0  0  0  0  0  0  0
  -21.4360  -29.2860   22.4340 N   0  0  0  0  0  0  0  0  0  0  0  0
  -23.4300  -28.8340   23.3960 O   0  0  0  0  0  0  0  0  0  0  0  0
  -20.9540  -29.8370   21.7370 H   0  0  0  0  0  0  0  0  0  0  0  0
  -18.0510  -28.0870   22.9320 C   0  0  0  0  0  0  0  0  0  0  0  0
  -20.6090  -28.3540   23.2080 C   0  0  0  0  0  3  0  0  0  0  0  0
  -20.7150  -26.9180   22.6450 C   0  0  0  0  0  2  0  0  0  0  0  0
  -19.6170  -26.5860   21.6290 C   0  0  0  0  0  2  0  0  0  0  0  0
  -18.2320  -26.7330   22.2650 C   0  0  0  0  0  2  0  0  0  0  0  0
  -19.1670  -28.8550   23.3590 C   0  0  0  0  0  0  0  0  0  0  0  0
  -18.9420  -30.1200   23.9440 C   0  0  0  0  0  3  0  0  0  0  0  0
  -17.6340  -30.6170   24.1050 C   0  0  0  0  0  3  0  0  0  0  0  0
  -16.5330  -29.8470   23.6910 C   0  0  0  0  0  3  0  0  0  0  0  0
  -16.7430  -28.5830   23.1100 C   0  0  0  0  0  3  0  0  0  0  0  0
  -25.9120  -32.5050   23.8570 C   0  0  0  0  0  3  0  0  0  0  0  0
  -26.4150  -31.7460   25.1470 C   0  0  1  0  0  0  0  0  0  0  0  0
  -25.3130  -31.5210   26.2090 C   0  0  0  0  0  1  0  0  0  0  0  0
  -27.0000  -30.3620   24.7790 C   0  0  0  0  0  1  0  0  0  0  0  0
  -27.5600  -32.5460   25.8110 C   0  0  0  0  0  1  0  0  0  0  0  0
  -25.5920  -33.9050   24.1820 N   0  0  0  0  0  0  0  0  0  0  0  0
  -25.9220  -34.9610   23.4270 C   0  0  0  0  0  0  0  0  0  0  0  0
  -26.5930  -34.8590   22.3960 O   0  0  0  0  0  0  0  0  0  0  0  0
  -24.9950  -34.0560   24.9810 H   0  0  0  0  0  0  0  0  0  0  0  0
  -24.1870  -36.7530   23.0840 C   0  0  0  0  0  1  0  0  0  0  0  0
  -25.4340  -36.3500   23.8860 C   0  0  0  0  0  3  0  0  0  0  0  0
  -27.5720  -37.2450   24.7020 C   0  0  0  0  0  1  0  0  0  0  0  0
  -26.4640  -37.4070   23.7640 N   0  0  0  0  0  0  0  0  0  0  0  0
  -26.0570  -38.3250   23.9100 H   0  0  0  0  0  0  0  0  0  0  0  0
  1  3  1  0
  2  1  2  0
  2  5  1  0
  3  4  2  0
  3 10  1  0
  5 49  1  0
  5  4  1  0
  6  8  1  0
  6  7  1  0
  8  7  1  0
  8  2  1  0
  8  9  1  6
 11 19  1  0
 12 17  1  0
 13 14  1  0
 13 12  1  0
 15 14  1  0
 15 24  1  0
 15 16  1  0
 17 11  1  0
 17 16  1  0
 18 11  2  0
 19 10  1  0
 20 19  1  0
 21 22  2  0
 22 41  1  0
 23 22  1  0
 23 26  1  0
 24 21  1  0
 24 25  1  0
 25 23  2  0
 26 27  1  0
 27 28  2  0
 29 32  1  0
 29 28  1  0
 30 29  2  0
 31 30  1  0
 31 26  2  0
 32 33  1  0
 33 34  1  0
 34 35  2  0
 36 35  1  0
 36 40  1  0
 37 36  2  0
 38 33  2  0
 38 37  1  0
 39 38  1  0
 41 42  1  0
 42 45  1  0
 42 44  1  0
 43 41  2  0
 46 47  1  0
 46 21  1  0
 48 46  1  0
 49 50  1  0
 51 53  1  0
 51 50  1  0
 52 63  2  0
 53 58  1  0
 54 62  1  0
 54 64  1  0
 55 61  1  0
 55 57  1  0
 56 62  1  0
 57 58  2  0
 57 56  1  0
 59 53  2  0
 60 59  1  0
 60 55  2  0
 61 54  1  0
 62 52  1  0
 64 66  2  0
 65 64  1  0
 67 65  1  0
 68 77  2  0
 68 73  1  0
 69 65  1  0
 69 73  1  0
 70 69  1  0
 71 72  1  0
 71 70  1  0
 72 68  1  0
 73 74  2  0
 74 75  1  0
 76 75  2  0
 77 76  1  0
 78 52  1  0
 78 83  1  0
 78 79  1  0
 79 82  1  1
 79 80  1  0
 81 79  1  0
 83 86  1  0
 84 88  1  0
 84 83  1  0
 85 84  2  0
 88 87  1  0
 90 88  1  0
 90 91  1  0
 90 89  1  0
M  ISO  4  11 100  19 100  50 101  51 101
M  END
>  <TORSDO>  (1) 
F 20

>  <SCORE>  (1) 
-14.493

>  <name>  (1) 
0

>  <ligand_id>  (1) 
0

>  <original_smiles>  (1) 
[H]c1c([H])c([H])c2c(c1[H])C([H])([H])C([H])([H])C([H])([H])C2([H])N([H])C(=O)C1([H])N(C(=O)C([H])(N([H])C(=O)C([H])(N([H])C([H])([H])[H])C([H])([H])[H])C(C([H])([H])[H])(C([H])([H])[H])C([H])([H])[H])C([H])([H])c2c([H])c(OC([H])([H])C([H])([H])n3nc(C([H])([H])N([H])C(=O)N4C([H])([H])C([H])([H])C([H])([H])C([H])(n5nc(-c6c([H])c([H])c(Oc7c([H])c([H])c(F)c([H])c7F)c([H])c6[H])c(C(=O)N([H])[H])c5N([H])[H])C4([H])[H])c([H])c3C3(C([H])([H])[H])C([H])([H])C3([H])[H])c([H])c([H])c2C1([H])[H]

>  <smiles>  (1) 
[H]c1c([H])c([H])c2c(c1[H])C([H])([H])C([H])([H])C([H])([H])C2([H])N([H])C(=O)C1([H])N(C(=O)C([H])(N([H])C(=O)C([H])(N([H])C([H])([H])[H])C([H])([H])[H])C(C([H])([H])[H])(C([H])([H])[H])C([H])([H])[H])C([H])([H])c2c([H])c(OC([H])([H])C([H])([H])n3nc(C([H])([H])N([H])C(=O)N4C([H])([H])C([H])([H])C([H])([H])C([H])(n5nc(-c6c([H])c([H])c(Oc7c([H])c([H])c(F)c([H])c7F)c([H])c6[H])c(C(=O)N([H])[H])c5N([H])[H])C4([H])[H])c([H])c3C3(C([H])([H])[H])C([H])([H])C3([H])[H])c([H])c([H])c2C1([H])[H]

$$$$
1:0:0
     RDKit          3D

 98107  0  0  1  0  0  0  0  0999 V2000
  -28.4490  -21.4130   17.7980 C   0  0  0  0  0  2  0  0  0  0  0  0
  -27.4140  -20.3070   17.5220 C   0  0  0  0  0  2  0  0  0  0  0  0
  -29.0550  -19.4440   18.9000 C   0  0  0  0  0  3  0  0  0  0  0  0
  -29.1030  -21.0540   19.1270 C   0  0  0  0  0  3  0  0  0  0  0  0
  -27.7150  -19.1480   18.3770 N   0  0  0  0  0  0  0  0  0  0  0  0
  -29.8180  -16.9080   19.1560 C   0  0  0  0  0  3  0  0  0  0  0  0
  -30.2860  -15.7930   19.9450 C   0  0  0  0  0  0  0  0  0  0  0  0
  -30.6770  -16.1540   21.2690 C   0  0  0  0  0  0  0  0  0  0  0  0
  -29.7960  -18.2630   19.6500 C   0  0  0  0  0  0  0  0  0  0  0  0
  -30.7030  -17.5230   21.6590 C   0  0  0  0  0  0  0  0  0  0  0  0
  -31.0490  -15.0820   22.2830 C   0  0  0  0  0  1  0  0  0  0  0  0
  -31.3200  -18.0150   22.9650 C   0  0  0  0  0  1  0  0  0  0  0  0
  -30.2580  -18.5340   20.8810 N   0  0  0  0  0  0  0  0  0  0  0  0
  -30.7010  -14.4190   19.3070 C   0  0  0  0  0  0  0  0  0  0  0  0
  -30.2590  -12.1340   18.3970 C   0  0  0  0  0  2  0  0  0  0  0  0
  -29.1780  -12.2100   17.3020 C   0  0  0  0  0  2  0  0  0  0  0  0
  -27.7750  -12.0730   17.9230 C   0  0  0  0  0  2  0  0  0  0  0  0
  -27.5860  -12.9840   19.1640 C   0  0  0  0  0  3  0  0  0  0  0  0
  -28.7870  -12.9330   20.1340 C   0  0  0  0  0  2  0  0  0  0  0  0
  -30.0010  -13.2310   19.3720 N   0  0  0  0  0  0  0  0  0  0  0  0
  -31.7430  -14.4570   18.6490 O   0  0  0  0  0  0  0  0  0  0  0  0
  -25.3710  -13.6090   20.2690 C   0  0  0  0  0  0  0  0  0  0  0  0
  -24.3460  -12.8540   20.7840 C   0  0  0  0  0  0  0  0  0  0  0  0
  -24.7460  -11.4940   20.6300 C   0  0  0  0  0  0  0  0  0  0  0  0
  -26.3260  -12.7080   19.8410 N   0  0  0  0  0  0  0  0  0  0  0  0
  -25.9680  -11.4280   20.1170 N   0  0  0  0  0  0  0  0  0  0  0  0
  -24.0080  -10.2450   20.8850 C   0  0  0  0  0  0  0  0  0  0  0  0
  -24.4640   -9.2940   21.8240 C   0  0  0  0  0  3  0  0  0  0  0  0
  -23.7210   -8.1190   22.0700 C   0  0  0  0  0  3  0  0  0  0  0  0
  -22.5110   -7.8850   21.3730 C   0  0  0  0  0  0  0  0  0  0  0  0
  -22.0690   -8.8280   20.4300 C   0  0  0  0  0  3  0  0  0  0  0  0
  -22.8130   -9.9950   20.1810 C   0  0  0  0  0  3  0  0  0  0  0  0
  -21.7400   -6.7600   21.5280 O   0  0  0  0  0  0  0  0  0  0  0  0
  -21.6470   -6.1110   22.7330 C   0  0  0  0  0  0  0  0  0  0  0  0
  -21.1680   -6.7580   23.8930 C   0  0  0  0  0  3  0  0  0  0  0  0
  -21.0220   -6.0370   25.0940 C   0  0  0  0  0  3  0  0  0  0  0  0
  -21.3410   -4.6650   25.1350 C   0  0  0  0  0  0  0  0  0  0  0  0
  -21.8130   -4.0170   23.9800 C   0  0  0  0  0  3  0  0  0  0  0  0
  -21.9580   -4.7370   22.7800 C   0  0  0  0  0  0  0  0  0  0  0  0
  -22.3930   -4.1010   21.6660 F   0  0  0  0  0  0  0  0  0  0  0  0
  -21.1910   -3.9680   26.2860 F   0  0  0  0  0  0  0  0  0  0  0  0
  -23.0330  -13.3710   21.2900 C   0  0  0  0  0  0  0  0  0  0  0  0
  -22.4380  -12.6860   22.2670 N   0  0  0  0  0  0  0  0  0  0  0  0
  -22.5400  -14.4100   20.8640 O   0  0  0  0  0  0  0  0  0  0  0  0
  -22.8490  -11.8450   22.6370 H   0  0  0  0  0  0  0  0  0  0  0  0
  -21.5620  -13.0130   22.6500 H   0  0  0  0  0  0  0  0  0  0  0  0
  -25.5500  -14.9730   20.1100 N   0  0  0  0  0  0  0  0  0  0  0  0
  -24.8370  -15.6430   20.3750 H   0  0  0  0  0  0  0  0  0  0  0  0
  -26.3780  -15.4050   19.7130 H   0  0  0  0  0  0  0  0  0  0  0  0
  -26.4710  -17.2800   19.3140 C   0  0  0  0  0  1  0  0  0  0  0  0
  -25.4680  -19.5570   19.5260 C   0  0  0  0  0  1  0  0  0  0  0  0
  -26.7840  -18.7730   19.4600 C   0  0  0  0  0  3  0  0  0  0  0  0
  -28.3960  -21.8250   20.2510 N   0  0  0  0  0  4  0  0  0  0  0  0
  -28.7690  -21.3660   21.0750 H   0  0  0  0  0  0  0  0  0  0  0  0
  -27.4020  -21.6590   20.2900 H   0  0  0  0  0  0  0  0  0  0  0  0
  -28.6880  -23.3330   20.4640 C   0  0  0  0  0  3  0  0  0  0  0  0
  -27.7930  -24.5400   19.8420 C   0  0  0  0  0  3  0  0  0  0  0  0
  -27.9230  -25.9520   20.3810 O   0  0  0  0  0  0  0  0  0  0  0  0
  -24.4080  -31.6620   23.2110 C   0  0  0  0  0  0  0  0  0  0  0  0
  -26.8710  -26.9000   20.2750 C   0  0  0  0  0  0  0  0  0  0  0  0
  -23.1890  -30.3150   21.5410 C   0  0  0  0  0  3  0  0  0  0  0  0
  -24.6010  -28.6670   20.1850 C   0  0  0  0  0  0  0  0  0  0  0  0
  -25.7490  -30.4820   21.4490 C   0  0  0  0  0  2  0  0  0  0  0  0
  -25.7740  -29.0880   20.8190 C   0  0  0  0  0  0  0  0  0  0  0  0
  -26.9120  -28.2170   20.8560 C   0  0  0  0  0  3  0  0  0  0  0  0
  -25.6790  -26.5640   19.5930 C   0  0  0  0  0  3  0  0  0  0  0  0
  -24.5620  -27.4150   19.5560 C   0  0  0  0  0  3  0  0  0  0  0  0
  -23.4120  -29.6080   20.1810 C   0  0  0  0  0  2  0  0  0  0  0  0
  -24.4680  -30.8400   22.1250 N   0  0  0  0  0  0  0  0  0  0  0  0
  -23.3220  -32.0050   23.7060 O   0  0  0  0  0  0  0  0  0  0  0  0
  -22.4450  -29.3420   22.4880 C   0  0  0  0  0  0  0  0  0  0  0  0
  -21.1100  -29.2890   22.3640 N   0  0  0  0  0  0  0  0  0  0  0  0
  -23.0740  -28.6580   23.3000 O   0  0  0  0  0  0  0  0  0  0  0  0
  -20.6630  -29.9520   21.7410 H   0  0  0  0  0  0  0  0  0  0  0  0
  -17.6400  -28.4120   22.8620 C   0  0  0  0  0  0  0  0  0  0  0  0
  -20.2160  -28.3890   23.1050 C   0  0  0  0  0  3  0  0  0  0  0  0
  -20.1540  -26.9860   22.4560 C   0  0  0  0  0  2  0  0  0  0  0  0
  -19.0310  -26.8690   21.4280 C   0  0  0  0  0  2  0  0  0  0  0  0
  -17.6710  -27.1070   22.0900 C   0  0  0  0  0  2  0  0  0  0  0  0
  -18.8370  -29.0250   23.3230 C   0  0  0  0  0  0  0  0  0  0  0  0
  -18.7600  -30.2690   23.9830 C   0  0  0  0  0  3  0  0  0  0  0  0
  -17.5170  -30.8960   24.1770 C   0  0  0  0  0  3  0  0  0  0  0  0
  -16.3360  -30.2790   23.7280 C   0  0  0  0  0  3  0  0  0  0  0  0
  -16.3950  -29.0360   23.0800 C   0  0  0  0  0  3  0  0  0  0  0  0
  -25.7000  -32.2310   23.8760 C   0  0  0  0  0  3  0  0  0  0  0  0
  -25.4530  -33.6480   24.1770 N   0  0  0  0  0  0  0  0  0  0  0  0
  -25.9020  -34.6740   23.4410 C   0  0  0  0  0  0  0  0  0  0  0  0
  -26.6300  -34.5190   22.4580 O   0  0  0  0  0  0  0  0  0  0  0  0
  -24.8100  -33.8420   24.9290 H   0  0  0  0  0  0  0  0  0  0  0  0
  -24.3310  -36.5810   22.9460 C   0  0  0  0  0  1  0  0  0  0  0  0
  -25.4730  -36.0940   23.8590 C   0  0  0  0  0  3  0  0  0  0  0  0
  -27.5870  -36.8380   24.8630 C   0  0  0  0  0  1  0  0  0  0  0  0
  -26.5800  -37.0770   23.8330 N   0  0  0  0  0  0  0  0  0  0  0  0
  -26.2270  -38.0250   23.9390 H   0  0  0  0  0  0  0  0  0  0  0  0
  -26.1140  -31.4530   25.1840 C   0  0  1  0  0  0  0  0  0  0  0  0
  -24.9650  -31.3050   26.2080 C   0  0  0  0  0  1  0  0  0  0  0  0
  -26.6270  -30.0360   24.8420 C   0  0  0  0  0  1  0  0  0  0  0  0
  -27.2840  -32.1870   25.8810 C   0  0  0  0  0  1  0  0  0  0  0  0
  1  4  1  0
  2  1  1  0
  2  5  1  0
  3  4  1  0
  3  9  1  0
  4 53  1  0
  5  3  1  0
  5 52  1  0
  6  9  2  0
  6  7  1  0
  7  8  2  0
  8 10  1  0
  8 11  1  0
  9 13  1  0
 10 12  1  0
 13 10  2  0
 14 20  1  0
 14  7  1  0
 15 20  1  0
 16 17  1  0
 16 15  1  0
 18 17  1  0
 18 25  1  0
 18 19  1  0
 20 19  1  0
 21 14  2  0
 22 23  2  0
 23 42  1  0
 24 23  1  0
 24 27  1  0
 25 26  1  0
 25 22  1  0
 26 24  2  0
 27 28  1  0
 28 29  2  0
 30 33  1  0
 30 29  1  0
 31 30  2  0
 32 31  1  0
 32 27  2  0
 33 34  1  0
 34 39  2  0
 34 35  1  0
 35 36  2  0
 36 37  1  0
 37 41  1  0
 38 37  2  0
 39 38  1  0
 40 39  1  0
 42 43  1  0
 43 45  1  0
 43 46  1  0
 44 42  2  0
 47 22  1  0
 47 48  1  0
 49 47  1  0
 50 52  1  0
 52 51  1  0
 53 55  1  0
 53 56  1  0
 53 54  1  0
 57 58  1  0
 57 56  2  0
 59 70  2  0
 60 58  1  0
 60 65  1  0
 61 69  1  0
 61 71  1  0
 62 64  1  0
 63 69  1  0
 64 65  2  0
 64 63  1  0
 66 60  2  0
 67 66  1  0
 67 62  2  0
 68 62  1  0
 68 61  1  0
 69 59  1  0
 71 73  2  0
 72 71  1  0
 74 72  1  0
 75 84  2  0
 75 80  1  0
 76 72  1  0
 76 80  1  0
 77 76  1  0
 78 79  1  0
 78 77  1  0
 79 75  1  0
 80 81  2  0
 81 82  1  0
 83 82  2  0
 84 83  1  0
 85 59  1  0
 85 86  1  0
 85 95  1  0
 86 89  1  0
 87 91  1  0
 87 86  1  0
 88 87  2  0
 91 90  1  0
 93 91  1  0
 93 94  1  0
 93 92  1  0
 95 98  1  1
 95 96  1  0
 97 95  1  0
M  ISO  4   7 100  14 100  57 101  58 101
M  END
>  <TORSDO>  (2) 
F 21

>  <SCORE>  (2) 
-10.186

>  <name>  (2) 
1

>  <ligand_id>  (2) 
1

>  <original_smiles>  (2) 
[H]c1c([H])c([H])c2c(c1[H])C([H])([H])C([H])([H])C([H])([H])C2([H])N([H])C(=O)C1([H])N(C(=O)C([H])(N([H])C(=O)C([H])(N([H])C([H])([H])[H])C([H])([H])[H])C(C([H])([H])[H])(C([H])([H])[H])C([H])([H])[H])C([H])([H])c2c([H])c(OC([H])([H])C([H])([H])[N+]([H])([H])C3([H])C([H])(c4nc(C([H])([H])[H])c(C([H])([H])[H])c(C(=O)N5C([H])([H])C([H])([H])C([H])([H])C([H])(n6nc(-c7c([H])c([H])c(Oc8c([H])c([H])c(F)c([H])c8F)c([H])c7[H])c(C(=O)N([H])[H])c6N([H])[H])C5([H])[H])c4[H])N(C([H])(C([H])([H])[H])C([H])([H])[H])C([H])([H])C3([H])[H])c([H])c([H])c2C1([H])[H]

>  <smiles>  (2) 
[H]c1c([H])c([H])c2c(c1[H])C([H])([H])C([H])([H])C([H])([H])C2([H])N([H])C(=O)C1([H])N(C(=O)C([H])(N([H])C(=O)C([H])(N([H])C([H])([H])[H])C([H])([H])[H])C(C([H])([H])[H])(C([H])([H])[H])C([H])([H])[H])C([H])([H])c2c([H])c(OC([H])([H])C([H])([H])[N+]([H])([H])C3([H])C([H])(c4nc(C([H])([H])[H])c(C([H])([H])[H])c(C(=O)N5C([H])([H])C([H])([H])C([H])([H])C([H])(n6nc(-c7c([H])c([H])c(Oc8c([H])c([H])c(F)c([H])c8F)c([H])c7[H])c(C(=O)N([H])[H])c6N([H])[H])C5([H])[H])c4[H])N(C([H])(C([H])([H])[H])C([H])([H])[H])C([H])([H])C3([H])[H])c([H])c([H])c2C1([H])[H]

$$$$
2:0:0
     RDKit          3D

 95104  0  0  1  0  0  0  0  0999 V2000
  -30.0530  -20.8990   20.6010 C   0  0  0  0  0  0  0  0  0  0  0  0
  -30.8090  -19.8270   20.0360 C   0  0  0  0  0  0  0  0  0  0  0  0
  -30.1450  -22.1690   19.9660 C   0  0  0  0  0  0  0  0  0  0  0  0
  -31.5640  -21.2700   18.4150 C   0  0  0  0  0  0  0  0  0  0  0  0
  -32.4220  -21.4860   17.1890 C   0  0  0  0  0  1  0  0  0  0  0  0
  -31.5480  -20.0480   18.9320 N   0  0  0  0  0  0  0  0  0  0  0  0
  -30.9080  -22.3290   18.8770 N   0  0  0  0  0  0  0  0  0  0  0  0
  -29.4460  -23.3120   20.4150 N   0  0  0  0  0  0  0  0  0  0  0  0
  -28.9300  -23.1960   21.2800 H   0  0  0  0  0  0  0  0  0  0  0  0
  -29.7800  -21.2710   23.1050 C   0  0  0  0  0  1  0  0  0  0  0  0
  -29.1700  -20.6820   21.8260 C   0  0  0  0  0  2  0  0  0  0  0  0
  -30.9060  -18.3760   20.5940 C   0  0  0  0  0  2  0  0  0  0  0  0
  -31.3350  -15.0450   20.1290 C   0  0  0  0  0  0  0  0  0  0  0  0
  -31.1680  -12.7020   19.3930 C   0  0  0  0  0  2  0  0  0  0  0  0
  -30.2470  -12.6740   18.1530 C   0  0  0  0  0  2  0  0  0  0  0  0
  -28.7650  -12.5650   18.5670 C   0  0  0  0  0  2  0  0  0  0  0  0
  -28.3660  -13.5650   19.6850 C   0  0  0  0  0  3  0  0  0  0  0  0
  -29.4100  -13.5860   20.8260 C   0  0  0  0  0  2  0  0  0  0  0  0
  -30.7290  -13.8290   20.2310 N   0  0  0  0  0  0  0  0  0  0  0  0
  -32.5470  -15.1630   19.9420 O   0  0  0  0  0  0  0  0  0  0  0  0
  -29.5120  -17.4130   18.5250 C   0  0  0  0  0  2  0  0  0  0  0  0
  -30.7090  -16.5220   18.2320 C   0  0  0  0  0  2  0  0  0  0  0  0
  -29.9400  -17.3060   19.9890 C   0  0  0  0  0  3  0  0  0  0  0  0
  -30.5070  -15.9780   19.5810 N   0  0  0  0  0  0  0  0  0  0  0  0
  -25.9970  -14.2220   20.4310 C   0  0  0  0  0  0  0  0  0  0  0  0
  -24.9090  -13.4730   20.7940 C   0  0  0  0  0  0  0  0  0  0  0  0
  -25.3370  -12.1100   20.7400 C   0  0  0  0  0  0  0  0  0  0  0  0
  -27.0150  -13.3170   20.1790 N   0  0  0  0  0  0  0  0  0  0  0  0
  -26.6240  -12.0410   20.4270 N   0  0  0  0  0  0  0  0  0  0  0  0
  -24.5800  -10.8630   20.9120 C   0  0  0  0  0  0  0  0  0  0  0  0
  -24.9290   -9.9190   21.9010 C   0  0  0  0  0  3  0  0  0  0  0  0
  -24.1730   -8.7360   22.0600 C   0  0  0  0  0  3  0  0  0  0  0  0
  -23.0560   -8.4920   21.2280 C   0  0  0  0  0  0  0  0  0  0  0  0
  -22.7260   -9.4250   20.2280 C   0  0  0  0  0  3  0  0  0  0  0  0
  -23.4820  -10.5970   20.0680 C   0  0  0  0  0  3  0  0  0  0  0  0
  -22.2800   -7.3590   21.2920 O   0  0  0  0  0  0  0  0  0  0  0  0
  -22.0450   -6.7140   22.4790 C   0  0  0  0  0  0  0  0  0  0  0  0
  -21.3780   -7.3440   23.5520 C   0  0  0  0  0  3  0  0  0  0  0  0
  -21.0990   -6.6220   24.7300 C   0  0  0  0  0  3  0  0  0  0  0  0
  -21.4760   -5.2690   24.8320 C   0  0  0  0  0  0  0  0  0  0  0  0
  -22.1360   -4.6380   23.7620 C   0  0  0  0  0  3  0  0  0  0  0  0
  -22.4170   -5.3590   22.5880 C   0  0  0  0  0  0  0  0  0  0  0  0
  -23.0340   -4.7400   21.5520 F   0  0  0  0  0  0  0  0  0  0  0  0
  -21.2010   -4.5710   25.9590 F   0  0  0  0  0  0  0  0  0  0  0  0
  -23.5260  -13.9820   21.0800 C   0  0  0  0  0  0  0  0  0  0  0  0
  -22.7830  -13.2870   21.9350 N   0  0  0  0  0  0  0  0  0  0  0  0
  -23.1130  -15.0270   20.5800 O   0  0  0  0  0  0  0  0  0  0  0  0
  -23.1310  -12.4410   22.3590 H   0  0  0  0  0  0  0  0  0  0  0  0
  -21.8540  -13.6080   22.1670 H   0  0  0  0  0  0  0  0  0  0  0  0
  -26.1990  -15.5890   20.2750 N   0  0  0  0  0  0  0  0  0  0  0  0
  -25.4580  -16.2710   20.4000 H   0  0  0  0  0  0  0  0  0  0  0  0
  -27.0730  -16.0010   19.9720 H   0  0  0  0  0  0  0  0  0  0  0  0
  -29.7950  -24.7070   20.0380 C   0  0  0  0  0  2  0  0  0  0  0  0
  -28.5480  -25.6150   19.7940 C   0  0  0  0  0  2  0  0  0  0  0  0
  -28.7150  -27.0560   19.9500 O   0  0  0  0  0  0  0  0  0  0  0  0
  -24.7040  -31.8970   23.3900 C   0  0  0  0  0  0  0  0  0  0  0  0
  -27.5440  -27.8140   19.9550 C   0  0  0  0  0  0  0  0  0  0  0  0
  -23.5730  -30.6050   21.6150 C   0  0  0  0  0  3  0  0  0  0  0  0
  -25.0990  -29.2680   20.0680 C   0  0  0  0  0  0  0  0  0  0  0  0
  -26.0910  -31.0690   21.4840 C   0  0  0  0  0  2  0  0  0  0  0  0
  -26.2360  -29.7660   20.7150 C   0  0  0  0  0  0  0  0  0  0  0  0
  -27.4620  -29.0490   20.6520 C   0  0  0  0  0  3  0  0  0  0  0  0
  -26.3800  -27.3590   19.2860 C   0  0  0  0  0  3  0  0  0  0  0  0
  -25.1700  -28.0690   19.3450 C   0  0  0  0  0  3  0  0  0  0  0  0
  -23.8220  -30.0720   20.1810 C   0  0  0  0  0  2  0  0  0  0  0  0
  -24.8070  -31.2010   22.2220 N   0  0  0  0  0  0  0  0  0  0  0  0
  -23.6090  -32.0740   23.9390 O   0  0  0  0  0  0  0  0  0  0  0  0
  -22.9550  -29.4730   22.4690 C   0  0  0  0  0  0  0  0  0  0  0  0
  -21.6480  -29.2240   22.2850 N   0  0  0  0  0  0  0  0  0  0  0  0
  -23.6510  -28.8270   23.2570 O   0  0  0  0  0  0  0  0  0  0  0  0
  -21.1450  -29.8050   21.6290 H   0  0  0  0  0  0  0  0  0  0  0  0
  -18.3410  -27.7880   22.5720 C   0  0  0  0  0  0  0  0  0  0  0  0
  -20.8680  -28.1820   22.9540 C   0  0  0  0  0  3  0  0  0  0  0  0
  -21.0790  -26.8070   22.2770 C   0  0  0  0  0  2  0  0  0  0  0  0
  -20.0320  -26.4970   21.2020 C   0  0  0  0  0  2  0  0  0  0  0  0
  -18.6250  -26.5080   21.8040 C   0  0  0  0  0  2  0  0  0  0  0  0
  -19.3960  -28.5820   23.0970 C   0  0  0  0  0  0  0  0  0  0  0  0
  -19.0780  -29.7810   23.7730 C   0  0  0  0  0  3  0  0  0  0  0  0
  -17.7400  -30.1870   23.9290 C   0  0  0  0  0  3  0  0  0  0  0  0
  -16.7000  -29.3900   23.4190 C   0  0  0  0  0  3  0  0  0  0  0  0
  -17.0010  -28.1920   22.7450 C   0  0  0  0  0  3  0  0  0  0  0  0
  -25.9570  -32.5220   24.0790 C   0  0  0  0  0  3  0  0  0  0  0  0
  -26.4270  -31.7250   25.3580 C   0  0  1  0  0  0  0  0  0  0  0  0
  -25.2920  -31.4500   26.3710 C   0  0  0  0  0  1  0  0  0  0  0  0
  -27.0410  -30.3630   24.9580 C   0  0  0  0  0  1  0  0  0  0  0  0
  -27.5390  -32.5140   26.0890 C   0  0  0  0  0  1  0  0  0  0  0  0
  -25.6240  -33.9100   24.4270 N   0  0  0  0  0  0  0  0  0  0  0  0
  -25.9350  -34.9780   23.6800 C   0  0  0  0  0  0  0  0  0  0  0  0
  -26.6060  -34.8990   22.6470 O   0  0  0  0  0  0  0  0  0  0  0  0
  -25.0270  -34.0430   25.2300 H   0  0  0  0  0  0  0  0  0  0  0  0
  -24.1570  -36.7310   23.3690 C   0  0  0  0  0  1  0  0  0  0  0  0
  -25.4230  -36.3510   24.1540 C   0  0  0  0  0  3  0  0  0  0  0  0
  -27.5400  -37.2960   24.9640 C   0  0  0  0  0  1  0  0  0  0  0  0
  -26.4260  -37.4300   24.0280 N   0  0  0  0  0  0  0  0  0  0  0  0
  -25.9980  -38.3400   24.1740 H   0  0  0  0  0  0  0  0  0  0  0  0
  1 11  1  0
  2 12  1  0
  2  1  2  0
  3  8  1  0
  3  1  1  0
  4  7  1  0
  4  6  2  0
  5  4  1  0
  6  2  1  0
  7  3  2  0
  8  9  1  0
 11 10  1  0
 13 19  1  0
 14 19  1  0
 15 16  1  0
 15 14  1  0
 17 16  1  0
 17 28  1  0
 17 18  1  0
 19 18  1  0
 20 13  2  0
 21 23  1  0
 22 21  1  0
 22 24  1  0
 23 12  1  0
 24 23  1  0
 24 13  1  0
 25 26  2  0
 26 45  1  0
 27 26  1  0
 27 30  1  0
 28 29  1  0
 28 25  1  0
 29 27  2  0
 30 31  1  0
 31 32  2  0
 33 36  1  0
 33 32  1  0
 34 33  2  0
 35 34  1  0
 35 30  2  0
 36 37  1  0
 37 42  2  0
 37 38  1  0
 38 39  2  0
 39 40  1  0
 40 44  1  0
 41 40  2  0
 42 41  1  0
 43 42  1  0
 45 46  1  0
 46 49  1  0
 46 48  1  0
 47 45  2  0
 50 51  1  0
 50 25  1  0
 52 50  1  0
 53  8  1  0
 54 55  1  0
 54 53  1  0
 55 57  1  0
 56 67  2  0
 57 62  1  0
 58 66  1  0
 58 68  1  0
 59 65  1  0
 59 61  1  0
 60 66  1  0
 61 60  1  0
 62 61  2  0
 63 64  1  0
 63 57  2  0
 64 59  2  0
 65 58  1  0
 66 56  1  0
 68 70  2  0
 69 68  1  0
 71 69  1  0
 72 81  2  0
 72 77  1  0
 73 69  1  0
 73 77  1  0
 74 73  1  0
 75 76  1  0
 75 74  1  0
 76 72  1  0
 77 78  2  0
 78 79  1  0
 80 79  2  0
 81 80  1  0
 82 56  1  0
 82 87  1  0
 82 83  1  0
 83 86  1  1
 83 84  1  0
 85 83  1  0
 87 90  1  0
 88 92  1  0
 88 87  1  0
 89 88  2  0
 92 91  1  0
 94 92  1  0
 94 95  1  0
 94 93  1  0
M  ISO  4  13 100  24 100  54 101  55 101
M  END
>  <TORSDO>  (3) 
F 20

>  <SCORE>  (3) 
-12.105

>  <name>  (3) 
2

>  <ligand_id>  (3) 
2

>  <original_smiles>  (3) 
[H]c1c([H])c([H])c2c(c1[H])C([H])([H])C([H])([H])C([H])([H])C2([H])N([H])C(=O)C1([H])N(C(=O)C([H])(N([H])C(=O)C([H])(N([H])C([H])([H])[H])C([H])([H])[H])C(C([H])([H])[H])(C([H])([H])[H])C([H])([H])[H])C([H])([H])c2c([H])c(OC([H])([H])C([H])([H])N([H])c3nc(C([H])([H])[H])nc(C([H])([H])C4([H])N(C(=O)N5C([H])([H])C([H])([H])C([H])([H])C([H])(n6nc(-c7c([H])c([H])c(Oc8c([H])c([H])c(F)c([H])c8F)c([H])c7[H])c(C(=O)N([H])[H])c6N([H])[H])C5([H])[H])C([H])([H])C4([H])[H])c3C([H])([H])C([H])([H])[H])c([H])c([H])c2C1([H])[H]

>  <smiles>  (3) 
[H]c1c([H])c([H])c2c(c1[H])C([H])([H])C([H])([H])C([H])([H])C2([H])N([H])C(=O)C1([H])N(C(=O)C([H])(N([H])C(=O)C([H])(N([H])C([H])([H])[H])C([H])([H])[H])C(C([H])([H])[H])(C([H])([H])[H])C([H])([H])[H])C([H])([H])c2c([H])c(OC([H])([H])C([H])([H])N([H])c3nc(C([H])([H])[H])nc(C([H])([H])C4([H])N(C(=O)N5C([H])([H])C([H])([H])C([H])([H])C([H])(n6nc(-c7c([H])c([H])c(Oc8c([H])c([H])c(F)c([H])c8F)c([H])c7[H])c(C(=O)N([H])[H])c6N([H])[H])C5([H])[H])C([H])([H])C4([H])[H])c3C([H])([H])C([H])([H])[H])c([H])c([H])c2C1([H])[H]

$$$$
3:0:0
     RDKit          3D

 90 99  0  0  1  0  0  0  0  0999 V2000
  -28.5220  -23.4030   19.2980 C   0  0  0  0  0  2  0  0  0  0  0  0
  -28.7210  -23.5570   21.2910 C   0  0  0  0  0  2  0  0  0  0  0  0
  -28.4680  -22.2230   20.4110 C   0  0  0  0  0  3  0  0  0  0  0  0
  -27.9640  -24.5650   20.2780 C   0  0  0  0  0  3  0  0  0  0  0  0
  -29.4600  -20.9340   20.4210 N   0  0  0  0  0  4  0  0  0  0  0  0
  -30.1320  -21.0990   21.1520 H   0  0  0  0  0  0  0  0  0  0  0  0
  -29.9870  -20.9870   19.5660 H   0  0  0  0  0  0  0  0  0  0  0  0
  -29.0530  -19.3740   20.5750 C   0  0  0  0  0  2  0  0  0  0  0  0
  -30.5030  -15.2010   20.5730 C   0  0  0  0  0  0  0  0  0  0  0  0
  -30.4760  -12.7840   19.7350 C   0  0  0  0  0  2  0  0  0  0  0  0
  -29.6110  -12.6100   18.4640 C   0  0  0  0  0  2  0  0  0  0  0  0
  -28.1320  -12.3830   18.8370 C   0  0  0  0  0  2  0  0  0  0  0  0
  -27.6360  -13.3450   19.9470 C   0  0  0  0  0  3  0  0  0  0  0  0
  -28.6390  -13.4820   21.1100 C   0  0  0  0  0  2  0  0  0  0  0  0
  -29.9130  -13.9240   20.5220 N   0  0  0  0  0  0  0  0  0  0  0  0
  -31.7410  -15.2040   20.5520 O   0  0  0  0  0  0  0  0  0  0  0  0
  -29.8570  -17.4270   18.1420 C   0  0  0  0  0  2  0  0  0  0  0  0
  -30.8100  -18.1710   19.0690 C   0  0  0  0  0  2  0  0  0  0  0  0
  -29.0840  -16.4540   19.0490 C   0  0  0  0  0  2  0  0  0  0  0  0
  -30.1360  -18.0160   20.4290 C   0  0  0  0  0  3  0  0  0  0  0  0
  -29.7500  -16.4400   20.3630 N   0  0  0  0  0  0  0  0  0  0  0  0
  -25.2270  -13.9140   20.5680 C   0  0  0  0  0  0  0  0  0  0  0  0
  -24.1520  -13.1350   20.8910 C   0  0  0  0  0  0  0  0  0  0  0  0
  -24.6320  -11.7890   20.9120 C   0  0  0  0  0  0  0  0  0  0  0  0
  -26.2880  -13.0400   20.3980 N   0  0  0  0  0  0  0  0  0  0  0  0
  -25.9370  -11.7590   20.6740 N   0  0  0  0  0  0  0  0  0  0  0  0
  -23.9090  -10.5230   21.0840 C   0  0  0  0  0  0  0  0  0  0  0  0
  -24.3110   -9.5700   22.0450 C   0  0  0  0  0  3  0  0  0  0  0  0
  -23.5870   -8.3690   22.2060 C   0  0  0  0  0  3  0  0  0  0  0  0
  -22.4480   -8.1140   21.4040 C   0  0  0  0  0  0  0  0  0  0  0  0
  -22.0680   -9.0560   20.4330 C   0  0  0  0  0  3  0  0  0  0  0  0
  -22.7930  -10.2490   20.2700 C   0  0  0  0  0  3  0  0  0  0  0  0
  -21.6980   -6.9650   21.4740 O   0  0  0  0  0  0  0  0  0  0  0  0
  -21.6150   -6.2310   22.6290 C   0  0  0  0  0  0  0  0  0  0  0  0
  -21.1400   -6.7900   23.8370 C   0  0  0  0  0  3  0  0  0  0  0  0
  -21.0050   -5.9800   24.9820 C   0  0  0  0  0  3  0  0  0  0  0  0
  -21.3320   -4.6130   24.9210 C   0  0  0  0  0  0  0  0  0  0  0  0
  -21.7990   -4.0530   23.7190 C   0  0  0  0  0  3  0  0  0  0  0  0
  -21.9370   -4.8590   22.5760 C   0  0  0  0  0  0  0  0  0  0  0  0
  -22.3670   -4.3100   21.4150 F   0  0  0  0  0  0  0  0  0  0  0  0
  -21.1950   -3.8330   26.0190 F   0  0  0  0  0  0  0  0  0  0  0  0
  -22.7380  -13.6030   21.0720 C   0  0  0  0  0  0  0  0  0  0  0  0
  -21.9710  -12.9230   21.9160 N   0  0  0  0  0  0  0  0  0  0  0  0
  -22.3200  -14.6080   20.4990 O   0  0  0  0  0  0  0  0  0  0  0  0
  -22.3210  -12.1100   22.4010 H   0  0  0  0  0  0  0  0  0  0  0  0
  -21.0190  -13.2170   22.0790 H   0  0  0  0  0  0  0  0  0  0  0  0
  -25.3880  -15.2830   20.3770 N   0  0  0  0  0  0  0  0  0  0  0  0
  -24.6150  -15.9350   20.4520 H   0  0  0  0  0  0  0  0  0  0  0  0
  -26.2610  -15.7310   20.1290 H   0  0  0  0  0  0  0  0  0  0  0  0
  -28.2130  -26.1370   20.1830 O   0  0  0  0  0  0  0  0  0  0  0  0
  -24.6430  -31.9320   23.1890 C   0  0  0  0  0  0  0  0  0  0  0  0
  -27.1640  -27.1510   20.1450 C   0  0  0  0  0  0  0  0  0  0  0  0
  -23.4190  -30.5340   21.5710 C   0  0  0  0  0  3  0  0  0  0  0  0
  -24.8450  -28.9420   20.1310 C   0  0  0  0  0  0  0  0  0  0  0  0
  -25.9750  -30.7790   21.3740 C   0  0  0  0  0  2  0  0  0  0  0  0
  -26.0360  -29.3780   20.7250 C   0  0  0  0  0  0  0  0  0  0  0  0
  -27.1950  -28.5020   20.7080 C   0  0  0  0  0  3  0  0  0  0  0  0
  -25.9460  -26.8350   19.5060 C   0  0  0  0  0  3  0  0  0  0  0  0
  -24.8170  -27.6860   19.5030 C   0  0  0  0  0  3  0  0  0  0  0  0
  -23.6220  -29.8490   20.1920 C   0  0  0  0  0  2  0  0  0  0  0  0
  -24.7010  -31.1050   22.0990 N   0  0  0  0  0  0  0  0  0  0  0  0
  -23.5630  -32.2220   23.7290 O   0  0  0  0  0  0  0  0  0  0  0  0
  -22.7480  -29.5350   22.5480 C   0  0  0  0  0  0  0  0  0  0  0  0
  -21.4190  -29.3620   22.4360 N   0  0  0  0  0  0  0  0  0  0  0  0
  -23.4280  -28.9170   23.3720 O   0  0  0  0  0  0  0  0  0  0  0  0
  -20.9260  -29.9100   21.7440 H   0  0  0  0  0  0  0  0  0  0  0  0
  -18.0470  -28.1410   22.9690 C   0  0  0  0  0  0  0  0  0  0  0  0
  -20.6060  -28.4270   23.2210 C   0  0  0  0  0  3  0  0  0  0  0  0
  -20.7170  -26.9900   22.6610 C   0  0  0  0  0  2  0  0  0  0  0  0
  -19.6120  -26.6470   21.6570 C   0  0  0  0  0  2  0  0  0  0  0  0
  -18.2320  -26.7880   22.3040 C   0  0  0  0  0  2  0  0  0  0  0  0
  -19.1620  -28.9180   23.3850 C   0  0  0  0  0  0  0  0  0  0  0  0
  -18.9330  -30.1830   23.9690 C   0  0  0  0  0  3  0  0  0  0  0  0
  -17.6240  -30.6730   24.1390 C   0  0  0  0  0  3  0  0  0  0  0  0
  -16.5250  -29.8930   23.7370 C   0  0  0  0  0  3  0  0  0  0  0  0
  -16.7370  -28.6300   23.1590 C   0  0  0  0  0  3  0  0  0  0  0  0
  -25.9290  -32.5710   23.7980 C   0  0  0  0  0  3  0  0  0  0  0  0
  -25.6130  -33.9640   24.1570 N   0  0  0  0  0  0  0  0  0  0  0  0
  -25.9140  -35.0340   23.4090 C   0  0  0  0  0  0  0  0  0  0  0  0
  -26.5520  -34.9540   22.3560 O   0  0  0  0  0  0  0  0  0  0  0  0
  -25.0460  -34.1010   24.9800 H   0  0  0  0  0  0  0  0  0  0  0  0
  -24.1610  -36.8220   23.1470 C   0  0  0  0  0  1  0  0  0  0  0  0
  -25.4330  -36.4120   23.9070 C   0  0  0  0  0  3  0  0  0  0  0  0
  -27.5880  -37.3030   24.6780 C   0  0  0  0  0  1  0  0  0  0  0  0
  -26.4530  -37.4770   23.7760 N   0  0  0  0  0  0  0  0  0  0  0  0
  -26.0440  -38.3900   23.9520 H   0  0  0  0  0  0  0  0  0  0  0  0
  -26.4700  -31.7920   25.0600 C   0  0  1  0  0  0  0  0  0  0  0  0
  -25.3970  -31.5420   26.1470 C   0  0  0  0  0  1  0  0  0  0  0  0
  -27.0510  -30.4190   24.6520 C   0  0  0  0  0  1  0  0  0  0  0  0
  -27.6290  -32.5850   25.7080 C   0  0  0  0  0  1  0  0  0  0  0  0
  1  4  1  0
  1  3  1  0
  3  5  1  0
  3  2  1  0
  4 50  1  0
  4  2  1  0
  5  8  1  0
  5  6  1  0
  7  5  1  0
 10 15  1  0
 11 12  1  0
 11 10  1  0
 13 12  1  0
 13 25  1  0
 13 14  1  0
 15  9  1  0
 15 14  1  0
 16  9  2  0
 17 19  1  0
 17 18  1  0
 18 20  1  0
 19 21  1  0
 20  8  1  0
 21 20  1  0
 21  9  1  0
 22 23  2  0
 23 24  1  0
 23 42  1  0
 24 27  1  0
 25 22  1  0
 25 26  1  0
 26 24  2  0
 27 28  1  0
 28 29  2  0
 30 33  1  0
 30 29  1  0
 31 30  2  0
 32 31  1  0
 32 27  2  0
 33 34  1  0
 34 35  1  0
 35 36  2  0
 37 36  1  0
 37 41  1  0
 38 37  2  0
 39 34  2  0
 39 38  1  0
 40 39  1  0
 42 43  1  0
 43 46  1  0
 43 45  1  0
 44 42  2  0
 47 48  1  0
 47 22  1  0
 49 47  1  0
 51 62  2  0
 52 50  1  0
 52 57  1  0
 53 61  1  0
 53 63  1  0
 54 60  1  0
 54 56  1  0
 55 61  1  0
 56 55  1  0
 57 56  2  0
 58 52  2  0
 59 58  1  0
 59 54  2  0
 60 53  1  0
 61 51  1  0
 63 65  2  0
 64 63  1  0
 66 64  1  0
 67 76  2  0
 67 72  1  0
 68 64  1  0
 68 72  1  0
 69 68  1  0
 70 71  1  0
 70 69  1  0
 71 67  1  0
 72 73  2  0
 73 74  1  0
 75 74  2  0
 76 75  1  0
 77 51  1  0
 77 78  1  0
 77 87  1  0
 78 81  1  0
 79 83  1  0
 79 78  1  0
 80 79  2  0
 83 82  1  0
 85 83  1  0
 85 86  1  0
 85 84  1  0
 87 90  1  1
 87 88  1  0
 89 87  1  0
M  ISO  4   4 101   9 100  21 100  50 101
M  END
>  <TORSDO>  (4) 
F 18

>  <SCORE>  (4) 
-14.843

>  <name>  (4) 
3

>  <ligand_id>  (4) 
3

>  <original_smiles>  (4) 
[H]c1c([H])c([H])c2c(c1[H])C([H])([H])C([H])([H])C([H])([H])C2([H])N([H])C(=O)C1([H])N(C(=O)C([H])(N([H])C(=O)C([H])(N([H])C([H])([H])[H])C([H])([H])[H])C(C([H])([H])[H])(C([H])([H])[H])C([H])([H])[H])C([H])([H])c2c([H])c(OC3([H])C([H])([H])C([H])([N+]([H])([H])C([H])([H])C4([H])N(C(=O)N5C([H])([H])C([H])([H])C([H])([H])C([H])(n6nc(-c7c([H])c([H])c(Oc8c([H])c([H])c(F)c([H])c8F)c([H])c7[H])c(C(=O)N([H])[H])c6N([H])[H])C5([H])[H])C([H])([H])C([H])([H])C4([H])[H])C3([H])[H])c([H])c([H])c2C1([H])[H]

>  <smiles>  (4) 
[H]c1c([H])c([H])c2c(c1[H])C([H])([H])C([H])([H])C([H])([H])C2([H])N([H])C(=O)C1([H])N(C(=O)C([H])(N([H])C(=O)C([H])(N([H])C([H])([H])[H])C([H])([H])[H])C(C([H])([H])[H])(C([H])([H])[H])C([H])([H])[H])C([H])([H])c2c([H])c(OC3([H])C([H])([H])C([H])([N+]([H])([H])C([H])([H])C4([H])N(C(=O)N5C([H])([H])C([H])([H])C([H])([H])C([H])(n6nc(-c7c([H])c([H])c(Oc8c([H])c([H])c(F)c([H])c8F)c([H])c7[H])c(C(=O)N([H])[H])c6N([H])[H])C5([H])[H])C([H])([H])C([H])([H])C4([H])[H])C3([H])[H])c([H])c([H])c2C1([H])[H]

$$$$
4:0:0
     RDKit          3D

 91101  0  0  1  0  0  0  0  0999 V2000
  -28.5370  -20.7220   20.2870 C   0  0  0  0  0  3  0  0  0  0  0  0
  -29.5300  -19.7770   20.6250 C   0  0  0  0  0  0  0  0  0  0  0  0
  -30.6230  -20.6970   20.8640 C   0  0  0  0  0  0  0  0  0  0  0  0
  -30.2960  -21.9930   20.6690 N   0  0  0  0  0  0  0  0  0  0  0  0
  -28.9890  -22.0820   20.3340 N   0  0  0  0  0  0  0  0  0  0  0  0
  -30.5760  -14.8230   20.2890 C   0  0  0  0  0  0  0  0  0  0  0  0
  -30.3670  -12.5220   19.3050 C   0  0  0  0  0  2  0  0  0  0  0  0
  -29.4330  -12.5860   18.0760 C   0  0  0  0  0  2  0  0  0  0  0  0
  -27.9610  -12.4130   18.5080 C   0  0  0  0  0  2  0  0  0  0  0  0
  -27.5950  -13.2910   19.7370 C   0  0  0  0  0  3  0  0  0  0  0  0
  -28.6640  -13.2030   20.8460 C   0  0  0  0  0  2  0  0  0  0  0  0
  -29.9410  -13.5940   20.2400 N   0  0  0  0  0  0  0  0  0  0  0  0
  -31.7500  -14.8830   19.9080 O   0  0  0  0  0  0  0  0  0  0  0  0
  -29.1350  -16.9810   19.8370 C   0  0  0  0  0  2  0  0  0  0  0  0
  -30.6750  -17.2170   21.1260 C   0  0  0  0  0  2  0  0  0  0  0  0
  -29.4610  -18.1570   20.8390 C   0  0  0  0  0  3  0  0  0  0  0  0
  -29.9100  -15.9990   20.6890 N   0  0  0  0  0  0  0  0  0  0  0  0
  -25.2160  -13.8670   20.4880 C   0  0  0  0  0  0  0  0  0  0  0  0
  -24.1570  -13.0910   20.8660 C   0  0  0  0  0  0  0  0  0  0  0  0
  -24.6230  -11.7420   20.8330 C   0  0  0  0  0  0  0  0  0  0  0  0
  -26.2590  -12.9930   20.2390 N   0  0  0  0  0  0  0  0  0  0  0  0
  -25.9110  -11.7100   20.5110 N   0  0  0  0  0  0  0  0  0  0  0  0
  -23.9030  -10.4770   21.0250 C   0  0  0  0  0  0  0  0  0  0  0  0
  -24.3490   -9.5070   21.9500 C   0  0  0  0  0  3  0  0  0  0  0  0
  -23.6330   -8.3050   22.1330 C   0  0  0  0  0  3  0  0  0  0  0  0
  -22.4530   -8.0630   21.3880 C   0  0  0  0  0  0  0  0  0  0  0  0
  -22.0270   -9.0190   20.4490 C   0  0  0  0  0  3  0  0  0  0  0  0
  -22.7460  -10.2110   20.2650 C   0  0  0  0  0  3  0  0  0  0  0  0
  -21.7050   -6.9160   21.4800 O   0  0  0  0  0  0  0  0  0  0  0  0
  -21.6670   -6.1710   22.6330 C   0  0  0  0  0  0  0  0  0  0  0  0
  -21.2400   -6.7200   23.8620 C   0  0  0  0  0  3  0  0  0  0  0  0
  -21.1540   -5.9030   25.0050 C   0  0  0  0  0  3  0  0  0  0  0  0
  -21.4760   -4.5350   24.9190 C   0  0  0  0  0  0  0  0  0  0  0  0
  -21.8920   -3.9850   23.6950 C   0  0  0  0  0  3  0  0  0  0  0  0
  -21.9840   -4.8010   22.5530 C   0  0  0  0  0  0  0  0  0  0  0  0
  -22.3660   -4.2610   21.3720 F   0  0  0  0  0  0  0  0  0  0  0  0
  -21.3850   -3.7470   26.0160 F   0  0  0  0  0  0  0  0  0  0  0  0
  -22.7570  -13.5590   21.1510 C   0  0  0  0  0  0  0  0  0  0  0  0
  -22.0360  -12.8610   22.0190 N   0  0  0  0  0  0  0  0  0  0  0  0
  -22.3120  -14.5840   20.6360 O   0  0  0  0  0  0  0  0  0  0  0  0
  -22.4080  -12.0330   22.4620 H   0  0  0  0  0  0  0  0  0  0  0  0
  -21.0950  -13.1590   22.2440 H   0  0  0  0  0  0  0  0  0  0  0  0
  -25.3740  -15.2400   20.3070 N   0  0  0  0  0  0  0  0  0  0  0  0
  -24.6100  -15.8940   20.4300 H   0  0  0  0  0  0  0  0  0  0  0  0
  -26.2100  -15.6730   19.9440 H   0  0  0  0  0  0  0  0  0  0  0  0
  -33.2210  -20.9790   20.6030 C   0  0  0  0  0  2  0  0  0  0  0  0
  -33.0970  -19.5180   20.9120 C   0  0  0  0  0  2  0  0  0  0  0  0
  -32.0310  -20.4910   21.4090 C   0  0  0  0  0  3  0  0  0  0  0  0
  -28.4000  -23.4490   19.8430 C   0  0  0  0  0  2  0  0  0  0  0  0
  -28.2290  -24.8300   20.7460 C   0  0  0  0  0  2  0  0  0  0  0  0
  -28.3230  -26.2900   20.2580 O   0  0  0  0  0  0  0  0  0  0  0  0
  -24.6210  -31.8900   23.2460 C   0  0  0  0  0  0  0  0  0  0  0  0
  -27.2230  -27.2000   20.2620 C   0  0  0  0  0  0  0  0  0  0  0  0
  -23.4300  -30.4780   21.6120 C   0  0  0  0  0  3  0  0  0  0  0  0
  -24.8790  -28.8940   20.2110 C   0  0  0  0  0  0  0  0  0  0  0  0
  -25.9780  -30.7650   21.4430 C   0  0  0  0  0  2  0  0  0  0  0  0
  -26.0570  -29.3710   20.8040 C   0  0  0  0  0  0  0  0  0  0  0  0
  -27.2340  -28.5400   20.7990 C   0  0  0  0  0  3  0  0  0  0  0  0
  -26.0170  -26.7980   19.6510 C   0  0  0  0  0  3  0  0  0  0  0  0
  -24.8700  -27.6200   19.6210 C   0  0  0  0  0  3  0  0  0  0  0  0
  -23.6530  -29.7870   20.2410 C   0  0  0  0  0  2  0  0  0  0  0  0
  -24.6940  -31.0670   22.1540 N   0  0  0  0  0  0  0  0  0  0  0  0
  -23.5330  -32.1730   23.7710 O   0  0  0  0  0  0  0  0  0  0  0  0
  -22.7550  -29.4760   22.5810 C   0  0  0  0  0  0  0  0  0  0  0  0
  -21.4260  -29.3010   22.4520 N   0  0  0  0  0  0  0  0  0  0  0  0
  -23.4260  -28.8550   23.4060 O   0  0  0  0  0  0  0  0  0  0  0  0
  -20.9410  -29.8520   21.7560 H   0  0  0  0  0  0  0  0  0  0  0  0
  -18.0460  -28.1070   22.9640 C   0  0  0  0  0  0  0  0  0  0  0  0
  -20.6040  -28.3680   23.2280 C   0  0  0  0  0  3  0  0  0  0  0  0
  -20.7040  -26.9340   22.6590 C   0  0  0  0  0  2  0  0  0  0  0  0
  -19.6010  -26.6070   21.6470 C   0  0  0  0  0  2  0  0  0  0  0  0
  -18.2200  -26.7560   22.2910 C   0  0  0  0  0  2  0  0  0  0  0  0
  -19.1640  -28.8710   23.3890 C   0  0  0  0  0  0  0  0  0  0  0  0
  -18.9470  -30.1360   23.9790 C   0  0  0  0  0  3  0  0  0  0  0  0
  -17.6430  -30.6350   24.1480 C   0  0  0  0  0  3  0  0  0  0  0  0
  -16.5380  -29.8690   23.7380 C   0  0  0  0  0  3  0  0  0  0  0  0
  -16.7400  -28.6070   23.1540 C   0  0  0  0  0  3  0  0  0  0  0  0
  -25.8980  -32.5330   23.8730 C   0  0  0  0  0  3  0  0  0  0  0  0
  -26.4030  -31.7770   25.1630 C   0  0  1  0  0  0  0  0  0  0  0  0
  -25.3030  -31.5560   26.2270 C   0  0  0  0  0  1  0  0  0  0  0  0
  -26.9880  -30.3960   24.7980 C   0  0  0  0  0  1  0  0  0  0  0  0
  -27.5470  -32.5810   25.8230 C   0  0  0  0  0  1  0  0  0  0  0  0
  -25.5820  -33.9330   24.1930 N   0  0  0  0  0  0  0  0  0  0  0  0
  -25.9100  -34.9850   23.4320 C   0  0  0  0  0  0  0  0  0  0  0  0
  -26.5800  -34.8790   22.3990 O   0  0  0  0  0  0  0  0  0  0  0  0
  -24.9870  -34.0890   24.9940 H   0  0  0  0  0  0  0  0  0  0  0  0
  -24.1780  -36.7750   23.0770 C   0  0  0  0  0  1  0  0  0  0  0  0
  -25.4220  -36.3740   23.8860 C   0  0  0  0  0  3  0  0  0  0  0  0
  -27.5570  -37.2680   24.7090 C   0  0  0  0  0  1  0  0  0  0  0  0
  -26.4530  -37.4300   23.7670 N   0  0  0  0  0  0  0  0  0  0  0  0
  -26.0440  -38.3500   23.9120 H   0  0  0  0  0  0  0  0  0  0  0  0
  1  5  1  0
  1  2  2  0
  2  3  1  0
  3 48  1  0
  4  3  2  0
  5  4  1  0
  6 17  1  0
  7 12  1  0
  8  9  1  0
  8  7  1  0
 10  9  1  0
 10 21  1  0
 10 11  1  0
 12  6  1  0
 12 11  1  0
 13  6  2  0
 14 17  1  0
 14 16  1  0
 16  2  1  0
 16 15  1  0
 17 15  1  0
 18 19  2  0
 19 38  1  0
 20 19  1  0
 20 23  1  0
 21 18  1  0
 21 22  1  0
 22 20  2  0
 23 24  1  0
 24 25  2  0
 26 29  1  0
 26 25  1  0
 27 26  2  0
 28 27  1  0
 28 23  2  0
 29 30  1  0
 30 31  1  0
 31 32  2  0
 33 32  1  0
 33 37  1  0
 34 33  2  0
 35 30  2  0
 35 34  1  0
 36 35  1  0
 38 39  1  0
 39 42  1  0
 39 41  1  0
 40 38  2  0
 43 44  1  0
 43 18  1  0
 45 43  1  0
 46 47  1  0
 46 48  1  0
 47 48  1  0
 49  5  1  0
 49 50  1  0
 51 53  1  0
 51 50  1  0
 52 63  2  0
 53 58  1  0
 54 62  1  0
 54 64  1  0
 55 61  1  0
 55 57  1  0
 56 62  1  0
 57 56  1  0
 58 57  2  0
 59 53  2  0
 60 59  1  0
 60 55  2  0
 61 54  1  0
 62 52  1  0
 64 66  2  0
 65 64  1  0
 67 65  1  0
 68 77  2  0
 68 73  1  0
 69 65  1  0
 69 73  1  0
 70 69  1  0
 71 72  1  0
 71 70  1  0
 72 68  1  0
 73 74  2  0
 74 75  1  0
 76 75  2  0
 77 76  1  0
 78 52  1  0
 78 83  1  0
 78 79  1  0
 79 82  1  1
 79 80  1  0
 81 79  1  0
 83 86  1  0
 84 88  1  0
 84 83  1  0
 85 84  2  0
 88 87  1  0
 90 88  1  0
 90 91  1  0
 90 89  1  0
M  ISO  4   6 100  17 100  50 101  51 101
M  END
>  <TORSDO>  (5) 
F 19

>  <SCORE>  (5) 
-14.555

>  <name>  (5) 
4

>  <ligand_id>  (5) 
4

>  <original_smiles>  (5) 
[H]c1c([H])c([H])c2c(c1[H])C([H])([H])C([H])([H])C([H])([H])C2([H])N([H])C(=O)C1([H])N(C(=O)C([H])(N([H])C(=O)C([H])(N([H])C([H])([H])[H])C([H])([H])[H])C(C([H])([H])[H])(C([H])([H])[H])C([H])([H])[H])C([H])([H])c2c([H])c(OC([H])([H])C([H])([H])n3nc(C4([H])C([H])([H])C4([H])[H])c(C4([H])C([H])([H])N(C(=O)N5C([H])([H])C([H])([H])C([H])([H])C([H])(n6nc(-c7c([H])c([H])c(Oc8c([H])c([H])c(F)c([H])c8F)c([H])c7[H])c(C(=O)N([H])[H])c6N([H])[H])C5([H])[H])C4([H])[H])c3[H])c([H])c([H])c2C1([H])[H]

>  <smiles>  (5) 
[H]c1c([H])c([H])c2c(c1[H])C([H])([H])C([H])([H])C([H])([H])C2([H])N([H])C(=O)C1([H])N(C(=O)C([H])(N([H])C(=O)C([H])(N([H])C([H])([H])[H])C([H])([H])[H])C(C([H])([H])[H])(C([H])([H])[H])C([H])([H])[H])C([H])([H])c2c([H])c(OC([H])([H])C([H])([H])n3nc(C4([H])C([H])([H])C4([H])[H])c(C4([H])C([H])([H])N(C(=O)N5C([H])([H])C([H])([H])C([H])([H])C([H])(n6nc(-c7c([H])c([H])c(Oc8c([H])c([H])c(F)c([H])c8F)c([H])c7[H])c(C(=O)N([H])[H])c6N([H])[H])C5([H])[H])C4([H])[H])c3[H])c([H])c([H])c2C1([H])[H]

$$$$
5:0:0
     RDKit          3D

 91100  0  0  1  0  0  0  0  0999 V2000
  -30.2750  -23.5740   19.6360 C   0  0  0  0  0  3  0  0  0  0  0  0
  -29.6220  -20.8370   20.0550 C   0  0  0  0  0  0  0  0  0  0  0  0
  -28.9770  -23.2980   20.1020 C   0  0  0  0  0  0  0  0  0  0  0  0
  -30.8700  -21.2840   19.5170 C   0  0  0  0  0  0  0  0  0  0  0  0
  -31.1780  -22.6000   19.3380 N   0  0  0  0  0  0  0  0  0  0  0  0
  -28.6880  -21.9020   20.3140 N   0  0  0  0  0  0  0  0  0  0  0  0
  -28.7270  -18.3610   19.3240 C   0  0  0  0  0  2  0  0  0  0  0  0
  -29.3280  -19.2180   20.3870 C   0  0  0  0  0  3  0  0  0  0  0  0
  -29.9650  -17.7000   19.9240 C   0  0  0  0  0  3  0  0  0  0  0  0
  -30.4960  -15.0150   20.2520 C   0  0  0  0  0  0  0  0  0  0  0  0
  -30.3810  -12.6520   19.3420 C   0  0  0  0  0  2  0  0  0  0  0  0
  -29.4500  -12.6180   18.1080 C   0  0  0  0  0  2  0  0  0  0  0  0
  -27.9810  -12.4220   18.5300 C   0  0  0  0  0  2  0  0  0  0  0  0
  -27.5800  -13.3160   19.7350 C   0  0  0  0  0  3  0  0  0  0  0  0
  -28.6420  -13.3210   20.8560 C   0  0  0  0  0  2  0  0  0  0  0  0
  -29.9080  -13.7470   20.2410 N   0  0  0  0  0  0  0  0  0  0  0  0
  -31.6920  -15.0700   19.9470 O   0  0  0  0  0  0  0  0  0  0  0  0
  -29.7160  -16.2100   20.3710 N   0  0  0  0  0  0  0  0  0  0  0  0
  -28.7660  -16.0210   20.6500 H   0  0  0  0  0  0  0  0  0  0  0  0
  -25.1970  -13.8690   20.4800 C   0  0  0  0  0  0  0  0  0  0  0  0
  -24.1410  -13.0890   20.8530 C   0  0  0  0  0  0  0  0  0  0  0  0
  -24.6140  -11.7410   20.8170 C   0  0  0  0  0  0  0  0  0  0  0  0
  -26.2470  -13.0040   20.2370 N   0  0  0  0  0  0  0  0  0  0  0  0
  -25.9050  -11.7160   20.5030 N   0  0  0  0  0  0  0  0  0  0  0  0
  -23.8930  -10.4760   21.0060 C   0  0  0  0  0  0  0  0  0  0  0  0
  -24.3130   -9.5150   21.9540 C   0  0  0  0  0  3  0  0  0  0  0  0
  -23.5890   -8.3160   22.1290 C   0  0  0  0  0  3  0  0  0  0  0  0
  -22.4300   -8.0650   21.3570 C   0  0  0  0  0  0  0  0  0  0  0  0
  -22.0270   -9.0130   20.3980 C   0  0  0  0  0  3  0  0  0  0  0  0
  -22.7530  -10.2040   20.2210 C   0  0  0  0  0  3  0  0  0  0  0  0
  -21.6770   -6.9170   21.4420 O   0  0  0  0  0  0  0  0  0  0  0  0
  -21.5950   -6.1970   22.6060 C   0  0  0  0  0  0  0  0  0  0  0  0
  -21.1020   -6.7630   23.8020 C   0  0  0  0  0  3  0  0  0  0  0  0
  -20.9720   -5.9650   24.9560 C   0  0  0  0  0  3  0  0  0  0  0  0
  -21.3230   -4.6020   24.9150 C   0  0  0  0  0  0  0  0  0  0  0  0
  -21.8050   -4.0340   23.7220 C   0  0  0  0  0  3  0  0  0  0  0  0
  -21.9380   -4.8300   22.5700 C   0  0  0  0  0  0  0  0  0  0  0  0
  -22.3860   -4.2760   21.4200 F   0  0  0  0  0  0  0  0  0  0  0  0
  -21.1890   -3.8340   26.0200 F   0  0  0  0  0  0  0  0  0  0  0  0
  -22.7410  -13.5580   21.1230 C   0  0  0  0  0  0  0  0  0  0  0  0
  -22.0180  -12.8580   21.9890 N   0  0  0  0  0  0  0  0  0  0  0  0
  -22.3020  -14.5850   20.6040 O   0  0  0  0  0  0  0  0  0  0  0  0
  -22.3830  -12.0270   22.4340 H   0  0  0  0  0  0  0  0  0  0  0  0
  -21.0800  -13.1540   22.2160 H   0  0  0  0  0  0  0  0  0  0  0  0
  -25.3460  -15.2430   20.3020 N   0  0  0  0  0  0  0  0  0  0  0  0
  -24.5600  -15.8710   20.4170 H   0  0  0  0  0  0  0  0  0  0  0  0
  -26.1570  -15.6900   19.9080 H   0  0  0  0  0  0  0  0  0  0  0  0
  -31.8670  -20.0270   17.5310 C   0  0  0  0  0  1  0  0  0  0  0  0
  -31.9700  -20.3470   19.0350 C   0  0  0  0  0  2  0  0  0  0  0  0
  -27.9090  -24.5670   20.2270 C   0  0  0  0  0  2  0  0  0  0  0  0
  -28.2200  -26.1170   20.2120 O   0  0  0  0  0  0  0  0  0  0  0  0
  -24.6290  -31.8720   23.2440 C   0  0  0  0  0  0  0  0  0  0  0  0
  -27.1670  -27.1200   20.1870 C   0  0  0  0  0  0  0  0  0  0  0  0
  -23.4150  -30.4820   21.6130 C   0  0  0  0  0  3  0  0  0  0  0  0
  -24.8470  -28.9010   20.1790 C   0  0  0  0  0  0  0  0  0  0  0  0
  -25.9730  -30.7230   21.4360 C   0  0  0  0  0  2  0  0  0  0  0  0
  -26.0350  -29.3310   20.7800 C   0  0  0  0  0  0  0  0  0  0  0  0
  -27.1970  -28.4630   20.7580 C   0  0  0  0  0  3  0  0  0  0  0  0
  -25.9430  -26.8000   19.5560 C   0  0  0  0  0  3  0  0  0  0  0  0
  -24.8160  -27.6520   19.5470 C   0  0  0  0  0  3  0  0  0  0  0  0
  -23.6270  -29.8090   20.2320 C   0  0  0  0  0  2  0  0  0  0  0  0
  -24.6920  -31.0540   22.1490 N   0  0  0  0  0  0  0  0  0  0  0  0
  -23.5480  -32.1530   23.7810 O   0  0  0  0  0  0  0  0  0  0  0  0
  -22.7390  -29.4790   22.5790 C   0  0  0  0  0  0  0  0  0  0  0  0
  -21.4100  -29.3040   22.4500 N   0  0  0  0  0  0  0  0  0  0  0  0
  -23.4120  -28.8560   23.4060 O   0  0  0  0  0  0  0  0  0  0  0  0
  -20.9260  -29.8490   21.7470 H   0  0  0  0  0  0  0  0  0  0  0  0
  -18.0330  -28.0840   22.9530 C   0  0  0  0  0  0  0  0  0  0  0  0
  -20.5890  -28.3680   23.2250 C   0  0  0  0  0  3  0  0  0  0  0  0
  -20.7020  -26.9320   22.6600 C   0  0  0  0  0  2  0  0  0  0  0  0
  -19.6050  -26.5930   21.6460 C   0  0  0  0  0  2  0  0  0  0  0  0
  -18.2210  -26.7330   22.2830 C   0  0  0  0  0  2  0  0  0  0  0  0
  -19.1440  -28.8590   23.3790 C   0  0  0  0  0  0  0  0  0  0  0  0
  -18.9120  -30.1200   23.9690 C   0  0  0  0  0  3  0  0  0  0  0  0
  -17.6020  -30.6090   24.1330 C   0  0  0  0  0  3  0  0  0  0  0  0
  -16.5050  -29.8340   23.7190 C   0  0  0  0  0  3  0  0  0  0  0  0
  -16.7220  -28.5730   23.1360 C   0  0  0  0  0  3  0  0  0  0  0  0
  -25.9110  -32.5020   23.8670 C   0  0  0  0  0  3  0  0  0  0  0  0
  -26.4230  -31.7320   25.1470 C   0  0  1  0  0  0  0  0  0  0  0  0
  -25.3280  -31.5010   26.2180 C   0  0  0  0  0  1  0  0  0  0  0  0
  -26.9990  -30.3520   24.7630 C   0  0  0  0  0  1  0  0  0  0  0  0
  -27.5790  -32.5220   25.8030 C   0  0  0  0  0  1  0  0  0  0  0  0
  -25.6010  -33.9010   24.2050 N   0  0  0  0  0  0  0  0  0  0  0  0
  -25.9110  -34.9600   23.4430 C   0  0  0  0  0  0  0  0  0  0  0  0
  -26.5530  -34.8580   22.3930 O   0  0  0  0  0  0  0  0  0  0  0  0
  -25.0360  -34.0550   25.0270 H   0  0  0  0  0  0  0  0  0  0  0  0
  -24.1620  -36.7480   23.1570 C   0  0  0  0  0  1  0  0  0  0  0  0
  -25.4380  -36.3480   23.9190 C   0  0  0  0  0  3  0  0  0  0  0  0
  -27.5940  -37.2480   24.6730 C   0  0  0  0  0  1  0  0  0  0  0  0
  -26.4600  -37.4060   23.7640 N   0  0  0  0  0  0  0  0  0  0  0  0
  -26.0550  -38.3250   23.9190 H   0  0  0  0  0  0  0  0  0  0  0  0
  1  3  1  0
  2  6  1  0
  3 50  1  0
  3  6  2  0
  4  2  2  0
  5  4  1  0
  5  1  2  0
  7  9  1  0
  7  8  1  0
  8  2  1  0
  9 18  1  0
  9  8  1  0
 10 18  1  0
 11 16  1  0
 12 13  1  0
 12 11  1  0
 14 13  1  0
 14 23  1  0
 14 15  1  0
 16 10  1  0
 16 15  1  0
 17 10  2  0
 18 19  1  0
 20 21  2  0
 21 40  1  0
 22 21  1  0
 22 25  1  0
 23 20  1  0
 23 24  1  0
 24 22  2  0
 25 26  1  0
 26 27  2  0
 28 31  1  0
 28 27  1  0
 29 28  2  0
 30 29  1  0
 30 25  2  0
 31 32  1  0
 32 33  1  0
 33 34  2  0
 35 34  1  0
 35 39  1  0
 36 35  2  0
 37 32  2  0
 37 36  1  0
 38 37  1  0
 40 41  1  0
 41 44  1  0
 41 43  1  0
 42 40  2  0
 45 46  1  0
 45 20  1  0
 47 45  1  0
 48 49  1  0
 49  4  1  0
 51 50  1  0
 52 63  2  0
 53 51  1  0
 53 58  1  0
 54 62  1  0
 54 64  1  0
 55 61  1  0
 55 57  1  0
 56 62  1  0
 57 56  1  0
 58 57  2  0
 59 53  2  0
 60 59  1  0
 60 55  2  0
 61 54  1  0
 62 52  1  0
 64 66  2  0
 65 64  1  0
 67 65  1  0
 68 77  2  0
 68 73  1  0
 69 65  1  0
 69 73  1  0
 70 69  1  0
 71 72  1  0
 71 70  1  0
 72 68  1  0
 73 74  2  0
 74 75  1  0
 76 75  2  0
 77 76  1  0
 78 52  1  0
 78 83  1  0
 78 79  1  0
 79 82  1  1
 79 80  1  0
 81 79  1  0
 83 86  1  0
 84 88  1  0
 84 83  1  0
 85 84  2  0
 88 87  1  0
 90 88  1  0
 90 91  1  0
 90 89  1  0
M  ISO  4  10 100  18 100  50 101  51 101
M  END
>  <TORSDO>  (6) 
F 19

>  <SCORE>  (6) 
-14.165

>  <name>  (6) 
5

>  <ligand_id>  (6) 
5

>  <original_smiles>  (6) 
[H]c1nc(C([H])([H])C([H])([H])[H])c(C2([H])C([H])([H])C2([H])N([H])C(=O)N2C([H])([H])C([H])([H])C([H])([H])C([H])(n3nc(-c4c([H])c([H])c(Oc5c([H])c([H])c(F)c([H])c5F)c([H])c4[H])c(C(=O)N([H])[H])c3N([H])[H])C2([H])[H])nc1C([H])([H])Oc1c([H])c([H])c2c(c1[H])C([H])([H])N(C(=O)C([H])(N([H])C(=O)C([H])(N([H])C([H])([H])[H])C([H])([H])[H])C(C([H])([H])[H])(C([H])([H])[H])C([H])([H])[H])C([H])(C(=O)N([H])C1([H])c3c([H])c([H])c([H])c([H])c3C([H])([H])C([H])([H])C1([H])[H])C2([H])[H]

>  <smiles>  (6) 
[H]c1nc(C([H])([H])C([H])([H])[H])c(C2([H])C([H])([H])C2([H])N([H])C(=O)N2C([H])([H])C([H])([H])C([H])([H])C([H])(n3nc(-c4c([H])c([H])c(Oc5c([H])c([H])c(F)c([H])c5F)c([H])c4[H])c(C(=O)N([H])[H])c3N([H])[H])C2([H])[H])nc1C([H])([H])Oc1c([H])c([H])c2c(c1[H])C([H])([H])N(C(=O)C([H])(N([H])C(=O)C([H])(N([H])C([H])([H])[H])C([H])([H])[H])C(C([H])([H])[H])(C([H])([H])[H])C([H])([H])[H])C([H])(C(=O)N([H])C1([H])c3c([H])c([H])c([H])c([H])c3C([H])([H])C([H])([H])C1([H])[H])C2([H])[H]

$$$$
6:0:0
     RDKit          3D

 90 99  0  0  1  0  0  0  0  0999 V2000
  -30.2560  -21.8130   19.4080 C   0  0  0  0  0  3  0  0  0  0  0  0
  -30.3090  -20.3890   19.4680 C   0  0  0  0  0  3  0  0  0  0  0  0
  -29.2650  -22.5560   20.1110 C   0  0  0  0  0  0  0  0  0  0  0  0
  -29.3720  -19.6620   20.2410 C   0  0  0  0  0  0  0  0  0  0  0  0
  -28.3510  -21.7460   20.8410 C   0  0  0  0  0  0  0  0  0  0  0  0
  -27.2160  -22.3710   21.6280 C   0  0  0  0  0  1  0  0  0  0  0  0
  -28.4130  -20.3730   20.9020 N   0  0  0  0  0  0  0  0  0  0  0  0
  -30.6520  -14.8590   20.2660 C   0  0  0  0  0  0  0  0  0  0  0  0
  -30.4190  -12.5830   19.2890 C   0  0  0  0  0  2  0  0  0  0  0  0
  -29.4850  -12.6570   18.0630 C   0  0  0  0  0  2  0  0  0  0  0  0
  -28.0120  -12.5200   18.4930 C   0  0  0  0  0  2  0  0  0  0  0  0
  -27.6470  -13.4360   19.6920 C   0  0  0  0  0  3  0  0  0  0  0  0
  -28.6970  -13.3450   20.8190 C   0  0  0  0  0  2  0  0  0  0  0  0
  -30.0040  -13.6510   20.2230 N   0  0  0  0  0  0  0  0  0  0  0  0
  -31.8410  -14.9470   19.9470 O   0  0  0  0  0  0  0  0  0  0  0  0
  -29.8070  -17.0270   19.3100 C   0  0  0  0  0  2  0  0  0  0  0  0
  -30.1950  -17.1640   21.2830 C   0  0  0  0  0  2  0  0  0  0  0  0
  -29.3470  -18.0730   20.3550 C   0  0  0  0  0  3  0  0  0  0  0  0
  -29.8770  -15.9980   20.3960 N   0  0  0  0  0  0  0  0  0  0  0  0
  -25.2640  -14.0690   20.4040 C   0  0  0  0  0  0  0  0  0  0  0  0
  -24.1860  -13.3120   20.7770 C   0  0  0  0  0  0  0  0  0  0  0  0
  -24.6290  -11.9550   20.7530 C   0  0  0  0  0  0  0  0  0  0  0  0
  -26.2960  -13.1740   20.1780 N   0  0  0  0  0  0  0  0  0  0  0  0
  -25.9200  -11.8980   20.4500 N   0  0  0  0  0  0  0  0  0  0  0  0
  -23.8850  -10.7050   20.9450 C   0  0  0  0  0  0  0  0  0  0  0  0
  -24.2990   -9.7350   21.8850 C   0  0  0  0  0  3  0  0  0  0  0  0
  -23.5550   -8.5500   22.0650 C   0  0  0  0  0  3  0  0  0  0  0  0
  -22.3830   -8.3240   21.3060 C   0  0  0  0  0  0  0  0  0  0  0  0
  -21.9890   -9.2810   20.3540 C   0  0  0  0  0  3  0  0  0  0  0  0
  -22.7330  -10.4590   20.1720 C   0  0  0  0  0  3  0  0  0  0  0  0
  -21.6110   -7.1910   21.3960 O   0  0  0  0  0  0  0  0  0  0  0  0
  -21.5480   -6.4550   22.5520 C   0  0  0  0  0  0  0  0  0  0  0  0
  -21.0990   -7.0150   23.7680 C   0  0  0  0  0  3  0  0  0  0  0  0
  -20.9820   -6.2050   24.9160 C   0  0  0  0  0  3  0  0  0  0  0  0
  -21.3000   -4.8350   24.8480 C   0  0  0  0  0  0  0  0  0  0  0  0
  -21.7420   -4.2750   23.6350 C   0  0  0  0  0  3  0  0  0  0  0  0
  -21.8610   -5.0830   22.4900 C   0  0  0  0  0  0  0  0  0  0  0  0
  -22.2670   -4.5320   21.3200 F   0  0  0  0  0  0  0  0  0  0  0  0
  -21.1820   -4.0550   25.9470 F   0  0  0  0  0  0  0  0  0  0  0  0
  -22.7950  -13.8100   21.0420 C   0  0  0  0  0  0  0  0  0  0  0  0
  -22.0570  -13.1310   21.9140 N   0  0  0  0  0  0  0  0  0  0  0  0
  -22.3730  -14.8370   20.5140 O   0  0  0  0  0  0  0  0  0  0  0  0
  -22.4140  -12.3020   22.3650 H   0  0  0  0  0  0  0  0  0  0  0  0
  -21.1230  -13.4450   22.1320 H   0  0  0  0  0  0  0  0  0  0  0  0
  -25.4440  -15.4350   20.2120 N   0  0  0  0  0  0  0  0  0  0  0  0
  -24.6780  -16.0950   20.2880 H   0  0  0  0  0  0  0  0  0  0  0  0
  -26.2950  -15.8540   19.8540 H   0  0  0  0  0  0  0  0  0  0  0  0
  -29.3470  -24.1470   20.2040 C   0  0  0  0  0  3  0  0  0  0  0  0
  -28.2090  -25.1370   19.6720 C   0  0  0  0  0  3  0  0  0  0  0  0
  -28.3820  -26.6040   19.9070 O   0  0  0  0  0  0  0  0  0  0  0  0
  -24.5560  -31.8400   23.1200 C   0  0  0  0  0  0  0  0  0  0  0  0
  -27.2520  -27.4460   19.8800 C   0  0  0  0  0  0  0  0  0  0  0  0
  -23.3800  -30.4790   21.4300 C   0  0  0  0  0  3  0  0  0  0  0  0
  -24.8580  -29.0240   19.9330 C   0  0  0  0  0  0  0  0  0  0  0  0
  -25.9110  -30.8570   21.2560 C   0  0  0  0  0  2  0  0  0  0  0  0
  -26.0190  -29.5070   20.5500 C   0  0  0  0  0  0  0  0  0  0  0  0
  -27.2170  -28.7280   20.5180 C   0  0  0  0  0  3  0  0  0  0  0  0
  -26.0670  -27.0250   19.2340 C   0  0  0  0  0  3  0  0  0  0  0  0
  -24.8850  -27.7900   19.2660 C   0  0  0  0  0  3  0  0  0  0  0  0
  -23.6030  -29.8720   20.0200 C   0  0  0  0  0  2  0  0  0  0  0  0
  -24.6340  -31.0750   21.9930 N   0  0  0  0  0  0  0  0  0  0  0  0
  -23.4690  -32.0750   23.6670 O   0  0  0  0  0  0  0  0  0  0  0  0
  -22.7450  -29.4070   22.3490 C   0  0  0  0  0  0  0  0  0  0  0  0
  -21.4180  -29.2220   22.2360 N   0  0  0  0  0  0  0  0  0  0  0  0
  -23.4440  -28.7480   23.1230 O   0  0  0  0  0  0  0  0  0  0  0  0
  -20.9120  -29.8090   21.5860 H   0  0  0  0  0  0  0  0  0  0  0  0
  -18.0590  -27.9840   22.7540 C   0  0  0  0  0  0  0  0  0  0  0  0
  -20.6230  -28.2390   22.9730 C   0  0  0  0  0  3  0  0  0  0  0  0
  -20.7150  -26.8430   22.3170 C   0  0  0  0  0  2  0  0  0  0  0  0
  -19.5870  -26.5720   21.3140 C   0  0  0  0  0  2  0  0  0  0  0  0
  -18.2220  -26.6760   22.0000 C   0  0  0  0  0  2  0  0  0  0  0  0
  -19.1860  -28.7250   23.1980 C   0  0  0  0  0  0  0  0  0  0  0  0
  -18.9820  -29.9520   23.8670 C   0  0  0  0  0  3  0  0  0  0  0  0
  -17.6820  -30.4400   24.0930 C   0  0  0  0  0  3  0  0  0  0  0  0
  -16.5680  -29.6950   23.6670 C   0  0  0  0  0  3  0  0  0  0  0  0
  -16.7570  -28.4690   23.0040 C   0  0  0  0  0  3  0  0  0  0  0  0
  -25.8280  -32.4770   23.7620 C   0  0  0  0  0  3  0  0  0  0  0  0
  -25.4940  -33.8630   24.1250 N   0  0  0  0  0  0  0  0  0  0  0  0
  -25.7930  -34.9370   23.3840 C   0  0  0  0  0  0  0  0  0  0  0  0
  -26.4540  -34.8700   22.3430 O   0  0  0  0  0  0  0  0  0  0  0  0
  -24.9060  -33.9880   24.9350 H   0  0  0  0  0  0  0  0  0  0  0  0
  -24.0240  -36.7020   23.0940 C   0  0  0  0  0  1  0  0  0  0  0  0
  -25.2860  -36.3060   23.8760 C   0  0  0  0  0  3  0  0  0  0  0  0
  -27.4110  -37.2260   24.6940 C   0  0  0  0  0  1  0  0  0  0  0  0
  -26.2950  -37.3810   23.7650 N   0  0  0  0  0  0  0  0  0  0  0  0
  -25.8720  -38.2910   23.9310 H   0  0  0  0  0  0  0  0  0  0  0  0
  -26.3500  -31.6850   25.0240 C   0  0  1  0  0  0  0  0  0  0  0  0
  -25.2540  -31.4070   26.0800 C   0  0  0  0  0  1  0  0  0  0  0  0
  -26.9560  -30.3240   24.6050 C   0  0  0  0  0  1  0  0  0  0  0  0
  -27.4840  -32.4810   25.7110 C   0  0  0  0  0  1  0  0  0  0  0  0
  1  2  2  0
  1  3  1  0
  2  4  1  0
  3 48  1  0
  3  5  2  0
  4  7  2  0
  5  7  1  0
  5  6  1  0
  8 19  1  0
  9 14  1  0
 10 11  1  0
 10  9  1  0
 12 11  1  0
 12 23  1  0
 12 13  1  0
 14  8  1  0
 14 13  1  0
 15  8  2  0
 16 18  1  0
 16 19  1  0
 18  4  1  0
 18 17  1  0
 19 17  1  0
 20 21  2  0
 21 40  1  0
 22 21  1  0
 22 25  1  0
 23 20  1  0
 23 24  1  0
 24 22  2  0
 25 26  1  0
 26 27  2  0
 28 31  1  0
 28 27  1  0
 29 28  2  0
 30 29  1  0
 30 25  2  0
 31 32  1  0
 32 33  1  0
 33 34  2  0
 35 34  1  0
 35 39  1  0
 36 35  2  0
 37 32  2  0
 37 36  1  0
 38 37  1  0
 40 41  1  0
 41 44  1  0
 41 43  1  0
 42 40  2  0
 45 46  1  0
 45 20  1  0
 47 45  1  0
 49 50  1  0
 49 48  2  0
 51 62  2  0
 52 50  1  0
 52 57  1  0
 53 61  1  0
 53 63  1  0
 54 60  1  0
 54 56  1  0
 55 61  1  0
 56 55  1  0
 57 56  2  0
 58 59  1  0
 58 52  2  0
 59 54  2  0
 60 53  1  0
 61 51  1  0
 63 65  2  0
 64 63  1  0
 66 64  1  0
 67 76  2  0
 67 72  1  0
 68 64  1  0
 68 72  1  0
 69 68  1  0
 70 71  1  0
 70 69  1  0
 71 67  1  0
 72 73  2  0
 73 74  1  0
 75 74  2  0
 76 75  1  0
 77 51  1  0
 77 78  1  0
 77 87  1  0
 78 81  1  0
 79 83  1  0
 79 78  1  0
 80 79  2  0
 83 82  1  0
 85 83  1  0
 85 86  1  0
 85 84  1  0
 87 90  1  1
 87 88  1  0
 89 87  1  0
M  ISO  4   8 100  19 100  49 101  50 101
M  END
>  <TORSDO>  (7) 
F 18

>  <SCORE>  (7) 
-14.516

>  <name>  (7) 
6

>  <ligand_id>  (7) 
6

>  <original_smiles>  (7) 
[H]c1c(C2([H])C([H])([H])N(C(=O)N3C([H])([H])C([H])([H])C([H])([H])C([H])(n4nc(-c5c([H])c([H])c(Oc6c([H])c([H])c(F)c([H])c6F)c([H])c5[H])c(C(=O)N([H])[H])c4N([H])[H])C3([H])[H])C2([H])[H])nc(C([H])([H])[H])c(C([H])([H])C([H])([H])Oc2c([H])c([H])c3c(c2[H])C([H])([H])N(C(=O)C([H])(N([H])C(=O)C([H])(N([H])C([H])([H])[H])C([H])([H])[H])C(C([H])([H])[H])(C([H])([H])[H])C([H])([H])[H])C([H])(C(=O)N([H])C2([H])c4c([H])c([H])c([H])c([H])c4C([H])([H])C([H])([H])C2([H])[H])C3([H])[H])c1[H]

>  <smiles>  (7) 
[H]c1c(C2([H])C([H])([H])N(C(=O)N3C([H])([H])C([H])([H])C([H])([H])C([H])(n4nc(-c5c([H])c([H])c(Oc6c([H])c([H])c(F)c([H])c6F)c([H])c5[H])c(C(=O)N([H])[H])c4N([H])[H])C3([H])[H])C2([H])[H])nc(C([H])([H])[H])c(C([H])([H])C([H])([H])Oc2c([H])c([H])c3c(c2[H])C([H])([H])N(C(=O)C([H])(N([H])C(=O)C([H])(N([H])C([H])([H])[H])C([H])([H])[H])C(C([H])([H])[H])(C([H])([H])[H])C([H])([H])[H])C([H])(C(=O)N([H])C2([H])c4c([H])c([H])c([H])c([H])c4C([H])([H])C([H])([H])C2([H])[H])C3([H])[H])c1[H]

$$$$
7:0:0
     RDKit          3D

 91100  0  0  1  0  0  0  0  0999 V2000
  -28.9690  -21.7840   21.0660 C   0  0  0  0  0  3  0  0  0  0  0  0
  -28.6940  -22.1660   18.7980 C   0  0  0  0  0  3  0  0  0  0  0  0
  -28.6220  -22.8350   20.0740 C   0  0  0  0  0  0  0  0  0  0  0  0
  -29.2950  -20.3340   20.7850 C   0  0  0  0  0  0  0  0  0  0  0  0
  -29.2780  -19.8560   19.4580 C   0  0  0  0  0  0  0  0  0  0  0  0
  -29.5730  -18.2630   19.0700 C   0  0  0  0  0  2  0  0  0  0  0  0
  -30.2640  -17.9440   21.3890 C   0  0  0  0  0  3  0  0  0  0  0  0
  -29.6670  -17.0140   20.1940 C   0  0  1  0  0  0  0  0  0  0  0  0
  -31.7650  -18.2210   21.2370 C   0  0  0  0  0  1  0  0  0  0  0  0
  -28.2060  -16.7690   20.5940 C   0  0  0  0  0  1  0  0  0  0  0  0
  -28.9900  -20.8190   18.5110 N   0  0  0  0  0  0  0  0  0  0  0  0
  -29.5780  -19.2790   21.7240 N   0  0  0  0  0  0  0  0  0  0  0  0
  -29.5260  -19.5070   22.7160 H   0  0  0  0  0  0  0  0  0  0  0  0
  -30.3890  -15.4080   19.8540 C   0  0  0  0  0  0  0  0  0  0  0  0
  -30.3570  -12.9640   18.9430 C   0  0  0  0  0  2  0  0  0  0  0  0
  -29.3620  -12.7540   17.7710 C   0  0  0  0  0  2  0  0  0  0  0  0
  -27.9290  -12.4780   18.2620 C   0  0  0  0  0  2  0  0  0  0  0  0
  -27.5510  -13.3720   19.4650 C   0  0  0  0  0  3  0  0  0  0  0  0
  -28.6750  -13.5030   20.5140 C   0  0  0  0  0  2  0  0  0  0  0  0
  -29.8580  -14.0760   19.8410 N   0  0  0  0  0  0  0  0  0  0  0  0
  -31.5660  -15.3880   19.4560 O   0  0  0  0  0  0  0  0  0  0  0  0
  -25.2370  -13.8810   20.4220 C   0  0  0  0  0  0  0  0  0  0  0  0
  -24.2170  -13.0820   20.8410 C   0  0  0  0  0  0  0  0  0  0  0  0
  -24.6930  -11.7400   20.7260 C   0  0  0  0  0  0  0  0  0  0  0  0
  -26.2690  -13.0290   20.0640 N   0  0  0  0  0  0  0  0  0  0  0  0
  -25.9580  -11.7320   20.3170 N   0  0  0  0  0  0  0  0  0  0  0  0
  -23.9890  -10.4680   20.9250 C   0  0  0  0  0  0  0  0  0  0  0  0
  -24.4550   -9.5040   21.8450 C   0  0  0  0  0  3  0  0  0  0  0  0
  -23.7480   -8.2980   22.0360 C   0  0  0  0  0  3  0  0  0  0  0  0
  -22.5620   -8.0470   21.3050 C   0  0  0  0  0  0  0  0  0  0  0  0
  -22.1150   -9.0020   20.3750 C   0  0  0  0  0  3  0  0  0  0  0  0
  -22.8210  -10.2000   20.1830 C   0  0  0  0  0  3  0  0  0  0  0  0
  -21.8220   -6.8950   21.4030 O   0  0  0  0  0  0  0  0  0  0  0  0
  -21.7430   -6.1890   22.5750 C   0  0  0  0  0  0  0  0  0  0  0  0
  -21.2560   -6.7740   23.7650 C   0  0  0  0  0  3  0  0  0  0  0  0
  -21.1240   -5.9920   24.9310 C   0  0  0  0  0  3  0  0  0  0  0  0
  -21.4680   -4.6260   24.9060 C   0  0  0  0  0  0  0  0  0  0  0  0
  -21.9430   -4.0410   23.7200 C   0  0  0  0  0  3  0  0  0  0  0  0
  -22.0770   -4.8200   22.5570 C   0  0  0  0  0  0  0  0  0  0  0  0
  -22.5150   -4.2450   21.4100 F   0  0  0  0  0  0  0  0  0  0  0  0
  -21.3350   -3.8740   26.0220 F   0  0  0  0  0  0  0  0  0  0  0  0
  -22.8430  -13.5360   21.2390 C   0  0  0  0  0  0  0  0  0  0  0  0
  -22.1990  -12.8090   22.1430 N   0  0  0  0  0  0  0  0  0  0  0  0
  -22.3580  -14.5740   20.7880 O   0  0  0  0  0  0  0  0  0  0  0  0
  -22.6100  -11.9670   22.5200 H   0  0  0  0  0  0  0  0  0  0  0  0
  -21.2860  -13.0930   22.4620 H   0  0  0  0  0  0  0  0  0  0  0  0
  -25.3520  -15.2600   20.2890 N   0  0  0  0  0  0  0  0  0  0  0  0
  -24.5830  -15.8860   20.5060 H   0  0  0  0  0  0  0  0  0  0  0  0
  -26.1970  -15.7510   20.0320 H   0  0  0  0  0  0  0  0  0  0  0  0
  -27.8230  -24.3760   20.2720 C   0  0  0  0  0  2  0  0  0  0  0  0
  -28.2060  -25.9650   20.2800 O   0  0  0  0  0  0  0  0  0  0  0  0
  -24.6600  -31.9370   23.2450 C   0  0  0  0  0  0  0  0  0  0  0  0
  -27.1960  -27.0610   20.2400 C   0  0  0  0  0  0  0  0  0  0  0  0
  -23.4520  -30.5350   21.6240 C   0  0  0  0  0  3  0  0  0  0  0  0
  -24.8900  -28.9270   20.2020 C   0  0  0  0  0  0  0  0  0  0  0  0
  -26.0140  -30.7520   21.4510 C   0  0  0  0  0  2  0  0  0  0  0  0
  -26.0820  -29.3390   20.8110 C   0  0  0  0  0  0  0  0  0  0  0  0
  -27.2310  -28.4290   20.8030 C   0  0  0  0  0  3  0  0  0  0  0  0
  -25.9670  -26.8000   19.5880 C   0  0  0  0  0  3  0  0  0  0  0  0
  -24.8560  -27.6780   19.5680 C   0  0  0  0  0  3  0  0  0  0  0  0
  -23.6710  -29.8450   20.2500 C   0  0  0  0  0  2  0  0  0  0  0  0
  -24.7310  -31.1000   22.1610 N   0  0  0  0  0  0  0  0  0  0  0  0
  -23.5750  -32.2320   23.7710 O   0  0  0  0  0  0  0  0  0  0  0  0
  -22.7640  -29.5430   22.5980 C   0  0  0  0  0  0  0  0  0  0  0  0
  -21.4340  -29.3720   22.4720 N   0  0  0  0  0  0  0  0  0  0  0  0
  -23.4300  -28.9290   23.4320 O   0  0  0  0  0  0  0  0  0  0  0  0
  -20.9480  -29.9240   21.7810 H   0  0  0  0  0  0  0  0  0  0  0  0
  -18.0560  -28.1480   22.9740 C   0  0  0  0  0  0  0  0  0  0  0  0
  -20.6130  -28.4410   23.2500 C   0  0  0  0  0  3  0  0  0  0  0  0
  -20.7290  -26.9990   22.7020 C   0  0  0  0  0  2  0  0  0  0  0  0
  -19.6380  -26.6500   21.6850 C   0  0  0  0  0  2  0  0  0  0  0  0
  -18.2500  -26.7900   22.3190 C   0  0  0  0  0  2  0  0  0  0  0  0
  -19.1650  -28.9290   23.3980 C   0  0  0  0  0  0  0  0  0  0  0  0
  -18.9280  -30.1950   23.9740 C   0  0  0  0  0  3  0  0  0  0  0  0
  -17.6160  -30.6830   24.1270 C   0  0  0  0  0  3  0  0  0  0  0  0
  -16.5230  -29.9000   23.7190 C   0  0  0  0  0  3  0  0  0  0  0  0
  -16.7440  -28.6340   23.1480 C   0  0  0  0  0  3  0  0  0  0  0  0
  -25.9360  -32.5810   23.8650 C   0  0  0  0  0  3  0  0  0  0  0  0
  -25.6210  -33.9800   24.2000 N   0  0  0  0  0  0  0  0  0  0  0  0
  -25.9350  -35.0410   23.4460 C   0  0  0  0  0  0  0  0  0  0  0  0
  -26.5850  -34.9470   22.4010 O   0  0  0  0  0  0  0  0  0  0  0  0
  -25.0350  -34.1270   25.0100 H   0  0  0  0  0  0  0  0  0  0  0  0
  -24.1840  -36.8300   23.1690 C   0  0  0  0  0  1  0  0  0  0  0  0
  -25.4580  -36.4270   23.9270 C   0  0  0  0  0  3  0  0  0  0  0  0
  -27.6180  -37.3310   24.6760 C   0  0  0  0  0  1  0  0  0  0  0  0
  -26.4790  -37.4880   23.7760 N   0  0  0  0  0  0  0  0  0  0  0  0
  -26.0700  -38.4050   23.9420 H   0  0  0  0  0  0  0  0  0  0  0  0
  -26.4510  -31.8170   25.1480 C   0  0  1  0  0  0  0  0  0  0  0  0
  -25.3580  -31.5890   26.2180 C   0  0  0  0  0  1  0  0  0  0  0  0
  -27.0290  -30.4360   24.7650 C   0  0  0  0  0  1  0  0  0  0  0  0
  -27.5990  -32.6140   25.8100 C   0  0  0  0  0  1  0  0  0  0  0  0
  2  3  1  0
  3 50  1  0
  3  1  2  0
  4  1  1  0
  4 12  1  0
  5  4  2  0
  6  5  1  0
  6  8  1  0
  7  9  1  0
  7 12  1  0
  8 10  1  1
  8  7  1  0
 11  2  2  0
 11  5  1  0
 12 13  1  0
 14  8  1  0
 15 20  1  0
 16 17  1  0
 16 15  1  0
 18 17  1  0
 18 25  1  0
 18 19  1  0
 20 14  1  0
 20 19  1  0
 21 14  2  0
 22 23  2  0
 23 42  1  0
 24 23  1  0
 24 27  1  0
 25 26  1  0
 25 22  1  0
 26 24  2  0
 27 28  1  0
 28 29  2  0
 30 33  1  0
 30 29  1  0
 31 30  2  0
 32 31  1  0
 32 27  2  0
 33 34  1  0
 34 35  1  0
 35 36  2  0
 37 36  1  0
 37 41  1  0
 38 37  2  0
 39 34  2  0
 39 38  1  0
 40 39  1  0
 42 43  1  0
 43 46  1  0
 43 45  1  0
 44 42  2  0
 47 22  1  0
 47 48  1  0
 49 47  1  0
 50 51  1  0
 52 63  2  0
 53 51  1  0
 53 58  1  0
 54 62  1  0
 54 64  1  0
 55 61  1  0
 55 57  1  0
 56 62  1  0
 57 56  1  0
 58 57  2  0
 59 53  2  0
 60 59  1  0
 60 55  2  0
 61 54  1  0
 62 52  1  0
 64 66  2  0
 65 64  1  0
 67 65  1  0
 68 77  2  0
 68 73  1  0
 69 65  1  0
 69 73  1  0
 70 69  1  0
 71 72  1  0
 71 70  1  0
 72 68  1  0
 73 74  2  0
 74 75  1  0
 76 75  2  0
 77 76  1  0
 78 52  1  0
 78 79  1  0
 78 88  1  0
 79 82  1  0
 80 84  1  0
 80 79  1  0
 81 80  2  0
 84 83  1  0
 86 84  1  0
 86 87  1  0
 86 85  1  0
 88 91  1  1
 88 89  1  0
 90 88  1  0
M  ISO  4   8 100  14 100  50 101  51 101
M  END
>  <TORSDO>  (8) 
F 17

>  <SCORE>  (8) 
-16.043

>  <name>  (8) 
7

>  <ligand_id>  (8) 
7

>  <original_smiles>  (8) 
[H]c1nc2c(c([H])c1C([H])([H])Oc1c([H])c([H])c3c(c1[H])C([H])([H])N(C(=O)C([H])(N([H])C(=O)C([H])(N([H])C([H])([H])[H])C([H])([H])[H])C(C([H])([H])[H])(C([H])([H])[H])C([H])([H])[H])C([H])(C(=O)N([H])C1([H])c4c([H])c([H])c([H])c([H])c4C([H])([H])C([H])([H])C1([H])[H])C3([H])[H])N([H])C([H])(C([H])([H])[H])C(C(=O)N1C([H])([H])C([H])([H])C([H])([H])C([H])(n3nc(-c4c([H])c([H])c(Oc5c([H])c([H])c(F)c([H])c5F)c([H])c4[H])c(C(=O)N([H])[H])c3N([H])[H])C1([H])[H])(C([H])([H])[H])C2([H])[H]

>  <smiles>  (8) 
[H]c1nc2c(c([H])c1C([H])([H])Oc1c([H])c([H])c3c(c1[H])C([H])([H])N(C(=O)C([H])(N([H])C(=O)C([H])(N([H])C([H])([H])[H])C([H])([H])[H])C(C([H])([H])[H])(C([H])([H])[H])C([H])([H])[H])C([H])(C(=O)N([H])C1([H])c4c([H])c([H])c([H])c([H])c4C([H])([H])C([H])([H])C1([H])[H])C3([H])[H])N([H])C([H])(C([H])([H])[H])C(C(=O)N1C([H])([H])C([H])([H])C([H])([H])C([H])(n3nc(-c4c([H])c([H])c(Oc5c([H])c([H])c(F)c([H])c5F)c([H])c4[H])c(C(=O)N([H])[H])c3N([H])[H])C1([H])[H])(C([H])([H])[H])C2([H])[H]

$$$$
8:0:0
     RDKit          3D

 93103  0  0  1  0  0  0  0  0999 V2000
  -30.4820  -15.1700   20.3330 C   0  0  0  0  0  0  0  0  0  0  0  0
  -30.3500  -12.7680   19.4690 C   0  0  0  0  0  2  0  0  0  0  0  0
  -29.4530  -12.6040   18.2270 C   0  0  0  0  0  2  0  0  0  0  0  0
  -28.0010  -12.3490   18.6610 C   0  0  0  0  0  2  0  0  0  0  0  0
  -27.5460  -13.3180   19.7810 C   0  0  0  0  0  3  0  0  0  0  0  0
  -28.5810  -13.4780   20.9120 C   0  0  0  0  0  2  0  0  0  0  0  0
  -29.8270  -13.9220   20.2790 N   0  0  0  0  0  0  0  0  0  0  0  0
  -31.7020  -15.0770   20.1250 O   0  0  0  0  0  0  0  0  0  0  0  0
  -30.1830  -21.5030   20.8890 C   0  0  0  0  0  3  0  0  0  0  0  0
  -30.8800  -20.2910   21.2040 C   0  0  0  0  0  0  0  0  0  0  0  0
  -30.2980  -19.0340   20.8860 C   0  0  0  0  0  0  0  0  0  0  0  0
  -29.0910  -19.0200   20.2420 C   0  0  0  0  0  0  0  0  0  0  0  0
  -28.9250  -21.5470   20.2310 C   0  0  0  0  0  0  0  0  0  0  0  0
  -30.8460  -17.5880   21.1170 C   0  0  0  0  0  3  0  0  0  0  0  0
  -28.7910  -17.4370   20.0240 C   0  0  0  0  0  3  0  0  0  0  0  0
  -28.4110  -20.2400   19.9030 N   0  0  0  0  0  0  0  0  0  0  0  0
  -29.9270  -16.5030   20.5840 N   0  0  0  0  0  0  0  0  0  0  0  0
  -25.1690  -13.8630   20.5230 C   0  0  0  0  0  0  0  0  0  0  0  0
  -24.1100  -13.0780   20.8850 C   0  0  0  0  0  0  0  0  0  0  0  0
  -24.5870  -11.7300   20.8530 C   0  0  0  0  0  0  0  0  0  0  0  0
  -26.2180  -12.9970   20.2840 N   0  0  0  0  0  0  0  0  0  0  0  0
  -25.8810  -11.7090   20.5520 N   0  0  0  0  0  0  0  0  0  0  0  0
  -23.8680  -10.4620   21.0330 C   0  0  0  0  0  0  0  0  0  0  0  0
  -24.2870   -9.5010   21.9800 C   0  0  0  0  0  3  0  0  0  0  0  0
  -23.5610   -8.3010   22.1470 C   0  0  0  0  0  3  0  0  0  0  0  0
  -22.4070   -8.0550   21.3670 C   0  0  0  0  0  0  0  0  0  0  0  0
  -22.0100   -9.0040   20.4090 C   0  0  0  0  0  3  0  0  0  0  0  0
  -22.7340  -10.1960   20.2390 C   0  0  0  0  0  3  0  0  0  0  0  0
  -21.6590   -6.9060   21.4470 O   0  0  0  0  0  0  0  0  0  0  0  0
  -21.5660   -6.1820   22.6090 C   0  0  0  0  0  0  0  0  0  0  0  0
  -21.0750   -6.7520   23.8040 C   0  0  0  0  0  3  0  0  0  0  0  0
  -20.9310   -5.9560   24.9570 C   0  0  0  0  0  3  0  0  0  0  0  0
  -21.2700   -4.5900   24.9140 C   0  0  0  0  0  0  0  0  0  0  0  0
  -21.7550   -4.0190   23.7250 C   0  0  0  0  0  3  0  0  0  0  0  0
  -21.8990   -4.8120   22.5730 C   0  0  0  0  0  0  0  0  0  0  0  0
  -22.3460   -4.2530   21.4220 F   0  0  0  0  0  0  0  0  0  0  0  0
  -21.1230   -3.8210   26.0190 F   0  0  0  0  0  0  0  0  0  0  0  0
  -22.7080  -13.5460   21.1400 C   0  0  0  0  0  0  0  0  0  0  0  0
  -21.9720  -12.8450   21.9950 N   0  0  0  0  0  0  0  0  0  0  0  0
  -22.2740  -14.5700   20.6170 O   0  0  0  0  0  0  0  0  0  0  0  0
  -22.3350  -12.0160   22.4440 H   0  0  0  0  0  0  0  0  0  0  0  0
  -21.0330  -13.1500   22.2070 H   0  0  0  0  0  0  0  0  0  0  0  0
  -25.3180  -15.2340   20.3450 N   0  0  0  0  0  0  0  0  0  0  0  0
  -24.5410  -15.8760   20.4550 H   0  0  0  0  0  0  0  0  0  0  0  0
  -26.1560  -15.6860   20.0010 H   0  0  0  0  0  0  0  0  0  0  0  0
  -32.5740  -19.8940   23.1890 C   0  0  0  0  0  2  0  0  0  0  0  0
  -32.5830  -21.3730   22.8770 C   0  0  0  0  0  2  0  0  0  0  0  0
  -32.2540  -20.3730   21.7910 C   0  0  0  0  0  3  0  0  0  0  0  0
  -28.3890  -23.0590   19.6570 C   0  0  0  0  0  3  0  0  0  0  0  0
  -29.3000  -23.5040   18.6620 O   0  0  0  0  0  0  0  0  0  0  0  0
  -28.9300  -24.2990   18.2930 H   0  0  0  0  0  0  0  0  0  0  0  0
  -28.0440  -24.5380   20.4990 C   0  0  0  0  0  2  0  0  0  0  0  0
  -28.1280  -26.0830   20.0740 O   0  0  0  0  0  0  0  0  0  0  0  0
  -24.5180  -31.8710   23.1710 C   0  0  0  0  0  0  0  0  0  0  0  0
  -27.0670  -27.0840   20.1310 C   0  0  0  0  0  0  0  0  0  0  0  0
  -23.3140  -30.4720   21.5410 C   0  0  0  0  0  3  0  0  0  0  0  0
  -24.7510  -28.8840   20.1110 C   0  0  0  0  0  0  0  0  0  0  0  0
  -25.8710  -30.7180   21.3630 C   0  0  0  0  0  2  0  0  0  0  0  0
  -25.9400  -29.3160   20.7150 C   0  0  0  0  0  0  0  0  0  0  0  0
  -27.1000  -28.4380   20.6960 C   0  0  0  0  0  3  0  0  0  0  0  0
  -25.8450  -26.7650   19.5060 C   0  0  0  0  0  3  0  0  0  0  0  0
  -24.7230  -27.6260   19.4900 C   0  0  0  0  0  3  0  0  0  0  0  0
  -23.5270  -29.7930   20.1610 C   0  0  0  0  0  2  0  0  0  0  0  0
  -24.5900  -31.0440   22.0800 N   0  0  0  0  0  0  0  0  0  0  0  0
  -23.4320  -32.1580   23.6970 O   0  0  0  0  0  0  0  0  0  0  0  0
  -22.6350  -29.4670   22.5050 C   0  0  0  0  0  0  0  0  0  0  0  0
  -21.3070  -29.3030   22.3860 N   0  0  0  0  0  0  0  0  0  0  0  0
  -23.3100  -28.8380   23.3260 O   0  0  0  0  0  0  0  0  0  0  0  0
  -20.8210  -29.8610   21.6980 H   0  0  0  0  0  0  0  0  0  0  0  0
  -17.9230  -28.1150   22.9220 C   0  0  0  0  0  0  0  0  0  0  0  0
  -20.4860  -28.3660   23.1600 C   0  0  0  0  0  3  0  0  0  0  0  0
  -20.5750  -26.9380   22.5750 C   0  0  0  0  0  2  0  0  0  0  0  0
  -19.4610  -26.6250   21.5720 C   0  0  0  0  0  2  0  0  0  0  0  0
  -18.0870  -26.7700   22.2330 C   0  0  0  0  0  2  0  0  0  0  0  0
  -19.0500  -28.8710   23.3430 C   0  0  0  0  0  0  0  0  0  0  0  0
  -18.8420  -30.1280   23.9510 C   0  0  0  0  0  3  0  0  0  0  0  0
  -17.5410  -30.6300   24.1410 C   0  0  0  0  0  3  0  0  0  0  0  0
  -16.4290  -29.8720   23.7340 C   0  0  0  0  0  3  0  0  0  0  0  0
  -16.6210  -28.6160   23.1290 C   0  0  0  0  0  3  0  0  0  0  0  0
  -25.7940  -32.5100   23.7980 C   0  0  0  0  0  3  0  0  0  0  0  0
  -26.3020  -31.7450   25.0800 C   0  0  1  0  0  0  0  0  0  0  0  0
  -25.2040  -31.5200   26.1450 C   0  0  0  0  0  1  0  0  0  0  0  0
  -26.8830  -30.3630   24.7020 C   0  0  0  0  0  1  0  0  0  0  0  0
  -27.4530  -32.5410   25.7430 C   0  0  0  0  0  1  0  0  0  0  0  0
  -25.4790  -33.9090   24.1330 N   0  0  0  0  0  0  0  0  0  0  0  0
  -25.8170  -34.9680   23.3870 C   0  0  0  0  0  0  0  0  0  0  0  0
  -26.4930  -34.8720   22.3580 O   0  0  0  0  0  0  0  0  0  0  0  0
  -24.8840  -34.0630   24.9350 H   0  0  0  0  0  0  0  0  0  0  0  0
  -24.1040  -36.7760   23.0290 C   0  0  0  0  0  1  0  0  0  0  0  0
  -25.3300  -36.3560   23.8540 C   0  0  0  0  0  3  0  0  0  0  0  0
  -27.4550  -37.2210   24.7310 C   0  0  0  0  0  1  0  0  0  0  0  0
  -26.3710  -37.4040   23.7700 N   0  0  0  0  0  0  0  0  0  0  0  0
  -25.9660  -38.3260   23.9180 H   0  0  0  0  0  0  0  0  0  0  0  0
  1 17  1  0
  2  7  1  0
  3  4  1  0
  3  2  1  0
  5  4  1  0
  5 21  1  0
  5  6  1  0
  7  1  1  0
  7  6  1  0
  8  1  2  0
  9 10  2  0
 10 48  1  0
 11 14  2  0
 11 10  1  0
 12 11  1  0
 13  9  1  0
 15 12  2  0
 15 17  1  0
 16 13  2  0
 16 12  1  0
 17 14  1  0
 18 19  2  0
 19 38  1  0
 20 19  1  0
 20 23  1  0
 21 18  1  0
 21 22  1  0
 22 20  2  0
 23 24  1  0
 24 25  2  0
 26 29  1  0
 26 25  1  0
 27 26  2  0
 28 27  1  0
 28 23  2  0
 29 30  1  0
 30 31  1  0
 31 32  2  0
 33 32  1  0
 33 37  1  0
 34 33  2  0
 35 30  2  0
 35 34  1  0
 36 35  1  0
 38 39  1  0
 39 42  1  0
 39 41  1  0
 40 38  2  0
 43 44  1  0
 43 18  1  0
 45 43  1  0
 47 46  1  0
 48 47  1  0
 48 46  1  0
 49 13  1  0
 49 52  1  0
 50 49  1  0
 51 50  1  0
 53 55  1  0
 53 52  1  0
 54 65  2  0
 55 60  1  0
 56 64  1  0
 56 66  1  0
 57 63  1  0
 57 59  1  0
 58 64  1  0
 59 58  1  0
 60 59  2  0
 61 55  2  0
 62 61  1  0
 62 57  2  0
 63 56  1  0
 64 54  1  0
 66 68  2  0
 67 66  1  0
 69 67  1  0
 70 79  2  0
 70 75  1  0
 71 67  1  0
 71 75  1  0
 72 71  1  0
 73 74  1  0
 73 72  1  0
 74 70  1  0
 75 76  2  0
 76 77  1  0
 78 77  2  0
 79 78  1  0
 80 54  1  0
 80 85  1  0
 80 81  1  0
 81 84  1  1
 81 82  1  0
 83 81  1  0
 85 88  1  0
 86 90  1  0
 86 85  1  0
 87 86  2  0
 90 89  1  0
 92 90  1  0
 92 93  1  0
 92 91  1  0
M  ISO  4   1 100  17 100  52 101  53 101
M  END
>  <TORSDO>  (9) 
F 19

>  <SCORE>  (9) 
-15.662

>  <name>  (9) 
8

>  <ligand_id>  (9) 
8

>  <original_smiles>  (9) 
[H]OC([H])(c1nc2c(c(C3([H])C([H])([H])C3([H])[H])c1[H])C([H])([H])N(C(=O)N1C([H])([H])C([H])([H])C([H])([H])C([H])(n3nc(-c4c([H])c([H])c(Oc5c([H])c([H])c(F)c([H])c5F)c([H])c4[H])c(C(=O)N([H])[H])c3N([H])[H])C1([H])[H])C2([H])[H])C([H])([H])Oc1c([H])c([H])c2c(c1[H])C([H])([H])N(C(=O)C([H])(N([H])C(=O)C([H])(N([H])C([H])([H])[H])C([H])([H])[H])C(C([H])([H])[H])(C([H])([H])[H])C([H])([H])[H])C([H])(C(=O)N([H])C1([H])c3c([H])c([H])c([H])c([H])c3C([H])([H])C([H])([H])C1([H])[H])C2([H])[H]

>  <smiles>  (9) 
[H]OC([H])(c1nc2c(c(C3([H])C([H])([H])C3([H])[H])c1[H])C([H])([H])N(C(=O)N1C([H])([H])C([H])([H])C([H])([H])C([H])(n3nc(-c4c([H])c([H])c(Oc5c([H])c([H])c(F)c([H])c5F)c([H])c4[H])c(C(=O)N([H])[H])c3N([H])[H])C1([H])[H])C2([H])[H])C([H])([H])Oc1c([H])c([H])c2c(c1[H])C([H])([H])N(C(=O)C([H])(N([H])C(=O)C([H])(N([H])C([H])([H])[H])C([H])([H])[H])C(C([H])([H])[H])(C([H])([H])[H])C([H])([H])[H])C([H])(C(=O)N([H])C1([H])c3c([H])c([H])c([H])c([H])c3C([H])([H])C([H])([H])C1([H])[H])C2([H])[H]

$$$$
9:0:0
     RDKit          3D

 88 97  0  0  1  0  0  0  0  0999 V2000
  -30.5870  -15.1990   20.3430 C   0  0  0  0  0  0  0  0  0  0  0  0
  -30.4570  -12.7710   19.5040 C   0  0  0  0  0  2  0  0  0  0  0  0
  -29.5680  -12.5420   18.2610 C   0  0  0  0  0  2  0  0  0  0  0  0
  -28.1170  -12.2800   18.6920 C   0  0  0  0  0  2  0  0  0  0  0  0
  -27.6390  -13.2890   19.7660 C   0  0  0  0  0  3  0  0  0  0  0  0
  -28.6660  -13.5060   20.9010 C   0  0  0  0  0  2  0  0  0  0  0  0
  -29.9140  -13.9560   20.2610 N   0  0  0  0  0  0  0  0  0  0  0  0
  -31.8130  -15.0830   20.2170 O   0  0  0  0  0  0  0  0  0  0  0  0
  -28.3830  -21.3040   20.3990 C   0  0  0  0  0  0  0  0  0  0  0  0
  -28.2820  -18.6830   20.7560 C   0  0  0  0  0  3  0  0  0  0  0  0
  -30.3330  -19.3720   19.8510 C   0  0  0  0  0  3  0  0  0  0  0  0
  -28.6330  -17.1470   20.2420 C   0  0  0  0  0  3  0  0  0  0  0  0
  -30.8630  -17.8670   20.3630 C   0  0  0  0  0  3  0  0  0  0  0  0
  -29.0020  -19.9610   20.2980 N   0  0  0  0  0  0  0  0  0  0  0  0
  -30.0240  -16.5690   20.3480 N   0  0  0  0  0  0  0  0  0  0  0  0
  -27.2270  -21.2820   20.8350 O   0  0  0  0  0  0  0  0  0  0  0  0
  -25.2450  -13.8360   20.4510 C   0  0  0  0  0  0  0  0  0  0  0  0
  -24.1840  -13.0530   20.8130 C   0  0  0  0  0  0  0  0  0  0  0  0
  -24.6700  -11.7090   20.8310 C   0  0  0  0  0  0  0  0  0  0  0  0
  -26.3060  -12.9700   20.2610 N   0  0  0  0  0  0  0  0  0  0  0  0
  -25.9710  -11.6870   20.5590 N   0  0  0  0  0  0  0  0  0  0  0  0
  -23.9550  -10.4410   21.0290 C   0  0  0  0  0  0  0  0  0  0  0  0
  -24.3890   -9.4850   21.9740 C   0  0  0  0  0  3  0  0  0  0  0  0
  -23.6700   -8.2870   22.1630 C   0  0  0  0  0  3  0  0  0  0  0  0
  -22.5020   -8.0320   21.4060 C   0  0  0  0  0  0  0  0  0  0  0  0
  -22.0860   -8.9750   20.4500 C   0  0  0  0  0  3  0  0  0  0  0  0
  -22.8070  -10.1670   20.2600 C   0  0  0  0  0  3  0  0  0  0  0  0
  -21.7530   -6.8830   21.5040 O   0  0  0  0  0  0  0  0  0  0  0  0
  -21.7230   -6.1390   22.6560 C   0  0  0  0  0  0  0  0  0  0  0  0
  -21.3280   -6.6980   23.8920 C   0  0  0  0  0  3  0  0  0  0  0  0
  -21.2460   -5.8810   25.0380 C   0  0  0  0  0  3  0  0  0  0  0  0
  -21.5470   -4.5090   24.9500 C   0  0  0  0  0  0  0  0  0  0  0  0
  -21.9320   -3.9500   23.7180 C   0  0  0  0  0  3  0  0  0  0  0  0
  -22.0170   -4.7640   22.5740 C   0  0  0  0  0  0  0  0  0  0  0  0
  -22.3710   -4.2160   21.3860 F   0  0  0  0  0  0  0  0  0  0  0  0
  -21.4590   -3.7230   26.0490 F   0  0  0  0  0  0  0  0  0  0  0  0
  -22.7740  -13.5170   21.0260 C   0  0  0  0  0  0  0  0  0  0  0  0
  -22.0310  -12.8420   21.8970 N   0  0  0  0  0  0  0  0  0  0  0  0
  -22.3400  -14.5180   20.4580 O   0  0  0  0  0  0  0  0  0  0  0  0
  -22.3940  -12.0320   22.3770 H   0  0  0  0  0  0  0  0  0  0  0  0
  -21.0860  -13.1430   22.0880 H   0  0  0  0  0  0  0  0  0  0  0  0
  -25.3910  -15.2020   20.2350 N   0  0  0  0  0  0  0  0  0  0  0  0
  -24.6060  -15.8410   20.2920 H   0  0  0  0  0  0  0  0  0  0  0  0
  -26.2310  -15.6390   19.8820 H   0  0  0  0  0  0  0  0  0  0  0  0
  -28.7520  -23.8420   21.2740 C   0  0  0  0  0  2  0  0  0  0  0  0
  -28.8770  -22.8900   20.0930 C   0  0  0  0  0  3  0  0  0  0  0  0
  -27.9440  -24.3780   20.1120 C   0  0  0  0  0  3  0  0  0  0  0  0
  -28.2160  -25.9750   20.0230 O   0  0  0  0  0  0  0  0  0  0  0  0
  -24.6730  -31.8180   23.0790 C   0  0  0  0  0  0  0  0  0  0  0  0
  -27.1870  -27.0290   19.9860 C   0  0  0  0  0  0  0  0  0  0  0  0
  -23.4530  -30.4480   21.4360 C   0  0  0  0  0  3  0  0  0  0  0  0
  -24.8810  -28.8640   19.9770 C   0  0  0  0  0  0  0  0  0  0  0  0
  -26.0140  -30.6720   21.2580 C   0  0  0  0  0  2  0  0  0  0  0  0
  -26.0740  -29.2790   20.5840 C   0  0  0  0  0  0  0  0  0  0  0  0
  -27.2250  -28.3830   20.5620 C   0  0  0  0  0  3  0  0  0  0  0  0
  -25.9690  -26.7520   19.3240 C   0  0  0  0  0  3  0  0  0  0  0  0
  -24.8500  -27.6190   19.3250 C   0  0  0  0  0  3  0  0  0  0  0  0
  -23.6630  -29.7800   20.0470 C   0  0  0  0  0  2  0  0  0  0  0  0
  -24.7360  -31.0030   21.9790 N   0  0  0  0  0  0  0  0  0  0  0  0
  -23.5930  -32.1070   23.6190 O   0  0  0  0  0  0  0  0  0  0  0  0
  -22.7710  -29.4400   22.3950 C   0  0  0  0  0  0  0  0  0  0  0  0
  -21.4360  -29.3000   22.2950 N   0  0  0  0  0  0  0  0  0  0  0  0
  -23.4450  -28.7840   23.1940 O   0  0  0  0  0  0  0  0  0  0  0  0
  -20.9510  -29.8810   21.6240 H   0  0  0  0  0  0  0  0  0  0  0  0
  -18.0400  -28.1570   22.8650 C   0  0  0  0  0  0  0  0  0  0  0  0
  -20.6120  -28.3600   23.0620 C   0  0  0  0  0  3  0  0  0  0  0  0
  -20.6630  -26.9420   22.4470 C   0  0  0  0  0  2  0  0  0  0  0  0
  -19.5270  -26.6710   21.4560 C   0  0  0  0  0  2  0  0  0  0  0  0
  -18.1670  -26.8250   22.1450 C   0  0  0  0  0  2  0  0  0  0  0  0
  -19.1870  -28.8850   23.2790 C   0  0  0  0  0  0  0  0  0  0  0  0
  -19.0120  -30.1300   23.9200 C   0  0  0  0  0  3  0  0  0  0  0  0
  -17.7250  -30.6520   24.1430 C   0  0  0  0  0  3  0  0  0  0  0  0
  -16.5920  -29.9220   23.7420 C   0  0  0  0  0  3  0  0  0  0  0  0
  -16.7500  -28.6760   23.1100 C   0  0  0  0  0  3  0  0  0  0  0  0
  -25.9570  -32.4430   23.7050 C   0  0  0  0  0  3  0  0  0  0  0  0
  -26.4990  -31.6300   24.9470 C   0  0  1  0  0  0  0  0  0  0  0  0
  -25.4270  -31.3490   26.0250 C   0  0  0  0  0  1  0  0  0  0  0  0
  -27.0790  -30.2700   24.5010 C   0  0  0  0  0  1  0  0  0  0  0  0
  -27.6580  -32.4060   25.6120 C   0  0  0  0  0  1  0  0  0  0  0  0
  -25.6390  -33.8240   24.1060 N   0  0  0  0  0  0  0  0  0  0  0  0
  -25.9320  -34.9180   23.3910 C   0  0  0  0  0  0  0  0  0  0  0  0
  -26.5680  -34.8730   22.3340 O   0  0  0  0  0  0  0  0  0  0  0  0
  -25.0680  -33.9330   24.9300 H   0  0  0  0  0  0  0  0  0  0  0  0
  -24.1670  -36.7020   23.1960 C   0  0  0  0  0  1  0  0  0  0  0  0
  -25.4490  -36.2800   23.9310 C   0  0  0  0  0  3  0  0  0  0  0  0
  -27.6110  -37.1560   24.6960 C   0  0  0  0  0  1  0  0  0  0  0  0
  -26.4610  -37.3530   23.8180 N   0  0  0  0  0  0  0  0  0  0  0  0
  -26.0530  -38.2590   24.0290 H   0  0  0  0  0  0  0  0  0  0  0  0
  1 15  1  0
  2  7  1  0
  3  4  1  0
  3  2  1  0
  5  4  1  0
  5 20  1  0
  5  6  1  0
  7  1  1  0
  7  6  1  0
  8  1  2  0
  9 16  2  0
 11 14  1  0
 11 13  2  0
 12 15  1  0
 12 10  2  0
 14  9  1  0
 14 10  1  0
 15 13  1  0
 17 18  2  0
 18 19  1  0
 18 37  1  0
 19 22  1  0
 20 17  1  0
 20 21  1  0
 21 19  2  0
 22 23  1  0
 23 24  2  0
 25 28  1  0
 25 24  1  0
 26 25  2  0
 27 26  1  0
 27 22  2  0
 28 29  1  0
 29 30  1  0
 30 31  2  0
 32 31  1  0
 32 36  1  0
 33 32  2  0
 34 29  2  0
 34 33  1  0
 35 34  1  0
 37 38  1  0
 38 41  1  0
 38 40  1  0
 39 37  2  0
 42 43  1  0
 42 17  1  0
 44 42  1  0
 46 47  1  0
 46  9  1  0
 46 45  1  0
 47 48  1  0
 47 45  1  0
 49 60  2  0
 50 48  1  0
 50 55  1  0
 51 59  1  0
 51 61  1  0
 52 58  1  0
 52 54  1  0
 53 59  1  0
 54 53  1  0
 55 54  2  0
 56 57  1  0
 56 50  2  0
 57 52  2  0
 58 51  1  0
 59 49  1  0
 61 63  2  0
 62 61  1  0
 64 62  1  0
 65 74  2  0
 65 70  1  0
 66 62  1  0
 66 70  1  0
 67 66  1  0
 68 69  1  0
 68 67  1  0
 69 65  1  0
 70 71  2  0
 71 72  1  0
 73 72  2  0
 74 73  1  0
 75 49  1  0
 75 80  1  0
 75 76  1  0
 76 79  1  1
 76 77  1  0
 78 76  1  0
 80 83  1  0
 81 85  1  0
 81 80  1  0
 82 81  2  0
 85 84  1  0
 87 85  1  0
 87 88  1  0
 87 86  1  0
M  ISO  4   1 100  15 100  47 101  48 101
M  END
>  <TORSDO>  (10) 
F 16

>  <SCORE>  (10) 
-14.723

>  <name>  (10) 
9

>  <ligand_id>  (10) 
9

>  <original_smiles>  (10) 
[H]c1c([H])c([H])c2c(c1[H])C([H])([H])C([H])([H])C([H])([H])C2([H])N([H])C(=O)C1([H])N(C(=O)C([H])(N([H])C(=O)C([H])(N([H])C([H])([H])[H])C([H])([H])[H])C(C([H])([H])[H])(C([H])([H])[H])C([H])([H])[H])C([H])([H])c2c([H])c(OC3([H])C([H])([H])C3([H])C(=O)N3C([H])([H])C([H])([H])N(C(=O)N4C([H])([H])C([H])([H])C([H])([H])C([H])(n5nc(-c6c([H])c([H])c(Oc7c([H])c([H])c(F)c([H])c7F)c([H])c6[H])c(C(=O)N([H])[H])c5N([H])[H])C4([H])[H])C([H])([H])C3([H])[H])c([H])c([H])c2C1([H])[H]

>  <smiles>  (10) 
[H]c1c([H])c([H])c2c(c1[H])C([H])([H])C([H])([H])C([H])([H])C2([H])N([H])C(=O)C1([H])N(C(=O)C([H])(N([H])C(=O)C([H])(N([H])C([H])([H])[H])C([H])([H])[H])C(C([H])([H])[H])(C([H])([H])[H])C([H])([H])[H])C([H])([H])c2c([H])c(OC3([H])C([H])([H])C3([H])C(=O)N3C([H])([H])C([H])([H])N(C(=O)N4C([H])([H])C([H])([H])C([H])([H])C([H])(n5nc(-c6c([H])c([H])c(Oc7c([H])c([H])c(F)c([H])c7F)c([H])c6[H])c(C(=O)N([H])[H])c5N([H])[H])C4([H])[H])C([H])([H])C3([H])[H])c([H])c([H])c2C1([H])[H]

$$$$
10:0:0
     RDKit          3D

 91100  0  0  1  0  0  0  0  0999 V2000
  -29.8920  -22.5490   18.1180 C   0  0  0  0  0  2  0  0  0  0  0  0
  -28.8860  -23.5300   19.8790 C   0  0  0  0  0  0  0  0  0  0  0  0
  -29.4180  -21.2410   19.8450 C   0  0  0  0  0  0  0  0  0  0  0  0
  -30.6480  -18.1570   21.7160 C   0  0  0  0  0  2  0  0  0  0  0  0
  -30.5950  -19.6810   21.4110 C   0  0  0  0  0  2  0  0  0  0  0  0
  -29.3940  -18.5840   19.7390 C   0  0  0  0  0  2  0  0  0  0  0  0
  -30.3480  -17.4560   20.3810 C   0  0  0  0  0  3  0  0  0  0  0  0
  -29.4120  -23.6770   18.6590 N   0  0  0  0  0  0  0  0  0  0  0  0
  -29.9120  -21.3190   18.6290 N   0  0  0  0  0  0  0  0  0  0  0  0
  -28.8990  -22.3090   20.5280 N   0  0  0  0  0  2  0  0  0  0  0  0
  -29.5270  -19.9210   20.4410 N   0  0  0  0  0  0  0  0  0  0  0  0
  -30.6210  -14.8040   20.3060 C   0  0  0  0  0  0  0  0  0  0  0  0
  -30.3800  -12.5090   19.3210 C   0  0  0  0  0  2  0  0  0  0  0  0
  -29.4270  -12.5290   18.1060 C   0  0  0  0  0  2  0  0  0  0  0  0
  -27.9730  -12.3370   18.5750 C   0  0  0  0  0  2  0  0  0  0  0  0
  -27.6000  -13.2710   19.7520 C   0  0  0  0  0  3  0  0  0  0  0  0
  -28.6710  -13.2510   20.8640 C   0  0  0  0  0  2  0  0  0  0  0  0
  -29.9610  -13.5910   20.2460 N   0  0  0  0  0  0  0  0  0  0  0  0
  -31.8090  -14.8580   19.9830 O   0  0  0  0  0  0  0  0  0  0  0  0
  -29.9010  -15.9800   20.5020 N   0  0  0  0  0  0  0  0  0  0  0  0
  -28.9270  -15.8380   20.7220 H   0  0  0  0  0  0  0  0  0  0  0  0
  -25.2230  -13.8650   20.5150 C   0  0  0  0  0  0  0  0  0  0  0  0
  -24.1580  -13.0970   20.8860 C   0  0  0  0  0  0  0  0  0  0  0  0
  -24.6160  -11.7400   20.8440 C   0  0  0  0  0  0  0  0  0  0  0  0
  -26.2620  -12.9840   20.2630 N   0  0  0  0  0  0  0  0  0  0  0  0
  -25.9040  -11.7030   20.5300 N   0  0  0  0  0  0  0  0  0  0  0  0
  -23.8860  -10.4810   21.0340 C   0  0  0  0  0  0  0  0  0  0  0  0
  -24.3190   -9.5060   21.9580 C   0  0  0  0  0  3  0  0  0  0  0  0
  -23.5900   -8.3090   22.1330 C   0  0  0  0  0  3  0  0  0  0  0  0
  -22.4100   -8.0810   21.3840 C   0  0  0  0  0  0  0  0  0  0  0  0
  -21.9970   -9.0460   20.4470 C   0  0  0  0  0  3  0  0  0  0  0  0
  -22.7270  -10.2330   20.2710 C   0  0  0  0  0  3  0  0  0  0  0  0
  -21.6510   -6.9400   21.4690 O   0  0  0  0  0  0  0  0  0  0  0  0
  -21.6040   -6.1930   22.6190 C   0  0  0  0  0  0  0  0  0  0  0  0
  -21.1780   -6.7420   23.8480 C   0  0  0  0  0  3  0  0  0  0  0  0
  -21.0780   -5.9190   24.9880 C   0  0  0  0  0  3  0  0  0  0  0  0
  -21.3960   -4.5510   24.9000 C   0  0  0  0  0  0  0  0  0  0  0  0
  -21.8140   -4.0020   23.6750 C   0  0  0  0  0  3  0  0  0  0  0  0
  -21.9150   -4.8220   22.5380 C   0  0  0  0  0  0  0  0  0  0  0  0
  -22.3000   -4.2820   21.3540 F   0  0  0  0  0  0  0  0  0  0  0  0
  -21.2920   -3.7590   25.9940 F   0  0  0  0  0  0  0  0  0  0  0  0
  -22.7640  -13.5760   21.1680 C   0  0  0  0  0  0  0  0  0  0  0  0
  -22.0370  -12.8770   22.0360 N   0  0  0  0  0  0  0  0  0  0  0  0
  -22.3270  -14.6070   20.6580 O   0  0  0  0  0  0  0  0  0  0  0  0
  -22.4000  -12.0380   22.4640 H   0  0  0  0  0  0  0  0  0  0  0  0
  -21.1020  -13.1820   22.2670 H   0  0  0  0  0  0  0  0  0  0  0  0
  -25.3960  -15.2360   20.3410 N   0  0  0  0  0  0  0  0  0  0  0  0
  -24.6330  -15.8970   20.4300 H   0  0  0  0  0  0  0  0  0  0  0  0
  -26.2500  -15.6650   20.0090 H   0  0  0  0  0  0  0  0  0  0  0  0
  -28.0600  -24.7990   20.4860 C   0  0  0  0  0  2  0  0  0  0  0  0
  -28.3380  -26.2790   20.1620 O   0  0  0  0  0  0  0  0  0  0  0  0
  -24.6540  -31.8640   23.2310 C   0  0  0  0  0  0  0  0  0  0  0  0
  -27.2580  -27.2140   20.1670 C   0  0  0  0  0  0  0  0  0  0  0  0
  -23.4590  -30.4590   21.5920 C   0  0  0  0  0  3  0  0  0  0  0  0
  -24.9090  -28.9010   20.1730 C   0  0  0  0  0  0  0  0  0  0  0  0
  -26.0100  -30.7520   21.4260 C   0  0  0  0  0  2  0  0  0  0  0  0
  -26.0890  -29.3630   20.7740 C   0  0  0  0  0  0  0  0  0  0  0  0
  -27.2660  -28.5340   20.7580 C   0  0  0  0  0  3  0  0  0  0  0  0
  -26.0580  -26.8440   19.5250 C   0  0  0  0  0  3  0  0  0  0  0  0
  -24.9040  -27.6520   19.5400 C   0  0  0  0  0  3  0  0  0  0  0  0
  -23.6730  -29.7810   20.2190 C   0  0  0  0  0  2  0  0  0  0  0  0
  -24.7280  -31.0430   22.1390 N   0  0  0  0  0  0  0  0  0  0  0  0
  -23.5660  -32.1440   23.7530 O   0  0  0  0  0  0  0  0  0  0  0  0
  -22.7910  -29.4480   22.5580 C   0  0  0  0  0  0  0  0  0  0  0  0
  -21.4630  -29.2760   22.4340 N   0  0  0  0  0  0  0  0  0  0  0  0
  -23.4650  -28.8190   23.3810 O   0  0  0  0  0  0  0  0  0  0  0  0
  -20.9800  -29.8300   21.7410 H   0  0  0  0  0  0  0  0  0  0  0  0
  -18.0790  -28.0850   22.9390 C   0  0  0  0  0  0  0  0  0  0  0  0
  -20.6400  -28.3390   23.2020 C   0  0  0  0  0  3  0  0  0  0  0  0
  -20.7360  -26.9100   22.6180 C   0  0  0  0  0  2  0  0  0  0  0  0
  -19.6270  -26.5910   21.6110 C   0  0  0  0  0  2  0  0  0  0  0  0
  -18.2480  -26.7380   22.2580 C   0  0  0  0  0  2  0  0  0  0  0  0
  -19.2030  -28.8420   23.3670 C   0  0  0  0  0  0  0  0  0  0  0  0
  -18.9870  -30.1030   23.9670 C   0  0  0  0  0  3  0  0  0  0  0  0
  -17.6860  -30.6060   24.1430 C   0  0  0  0  0  3  0  0  0  0  0  0
  -16.5780  -29.8460   23.7300 C   0  0  0  0  0  3  0  0  0  0  0  0
  -16.7760  -28.5860   23.1330 C   0  0  0  0  0  3  0  0  0  0  0  0
  -25.9290  -32.5060   23.8600 C   0  0  0  0  0  3  0  0  0  0  0  0
  -25.6010  -33.9000   24.1960 N   0  0  0  0  0  0  0  0  0  0  0  0
  -25.9230  -34.9610   23.4460 C   0  0  0  0  0  0  0  0  0  0  0  0
  -26.5880  -34.8700   22.4110 O   0  0  0  0  0  0  0  0  0  0  0  0
  -25.0060  -34.0410   25.0000 H   0  0  0  0  0  0  0  0  0  0  0  0
  -24.1710  -36.7380   23.1310 C   0  0  0  0  0  1  0  0  0  0  0  0
  -25.4290  -36.3430   23.9180 C   0  0  0  0  0  3  0  0  0  0  0  0
  -27.5660  -37.2430   24.7250 C   0  0  0  0  0  1  0  0  0  0  0  0
  -26.4490  -37.4060   23.7980 N   0  0  0  0  0  0  0  0  0  0  0  0
  -26.0370  -38.3240   23.9580 H   0  0  0  0  0  0  0  0  0  0  0  0
  -26.4430  -31.7350   25.1380 C   0  0  1  0  0  0  0  0  0  0  0  0
  -25.3460  -31.4890   26.2020 C   0  0  0  0  0  1  0  0  0  0  0  0
  -27.0360  -30.3620   24.7450 C   0  0  0  0  0  1  0  0  0  0  0  0
  -27.5850  -32.5370   25.8050 C   0  0  0  0  0  1  0  0  0  0  0  0
  1  9  1  0
  1  8  1  0
  2 50  1  0
  2 10  1  0
  3 11  1  0
  3 10  1  0
  5  4  1  0
  6  7  1  0
  6 11  1  0
  7 20  1  0
  7  4  1  0
  8  2  2  0
  9  3  2  0
 11  5  1  0
 12 20  1  0
 13 18  1  0
 14 15  1  0
 14 13  1  0
 16 15  1  0
 16 25  1  0
 16 17  1  0
 18 12  1  0
 18 17  1  0
 19 12  2  0
 20 21  1  0
 22 23  2  0
 23 42  1  0
 24 23  1  0
 24 27  1  0
 25 22  1  0
 25 26  1  0
 26 24  2  0
 27 28  1  0
 28 29  2  0
 30 33  1  0
 30 29  1  0
 31 30  2  0
 32 31  1  0
 32 27  2  0
 33 34  1  0
 34 35  1  0
 35 36  2  0
 37 36  1  0
 37 41  1  0
 38 37  2  0
 39 34  2  0
 39 38  1  0
 40 39  1  0
 42 43  1  0
 43 46  1  0
 43 45  1  0
 44 42  2  0
 47 48  1  0
 47 22  1  0
 49 47  1  0
 51 53  1  0
 51 50  1  0
 52 63  2  0
 53 58  1  0
 54 62  1  0
 54 64  1  0
 55 61  1  0
 55 57  1  0
 56 62  1  0
 57 56  1  0
 58 57  2  0
 59 60  1  0
 59 53  2  0
 60 55  2  0
 61 54  1  0
 62 52  1  0
 64 66  2  0
 65 64  1  0
 67 65  1  0
 68 77  2  0
 68 73  1  0
 69 65  1  0
 69 73  1  0
 70 69  1  0
 71 72  1  0
 71 70  1  0
 72 68  1  0
 73 74  2  0
 74 75  1  0
 76 75  2  0
 77 76  1  0
 78 52  1  0
 78 79  1  0
 78 88  1  0
 79 82  1  0
 80 84  1  0
 80 79  1  0
 81 80  2  0
 84 83  1  0
 86 84  1  0
 86 87  1  0
 86 85  1  0
 88 91  1  1
 88 89  1  0
 90 88  1  0
M  ISO  4  12 100  20 100  50 101  51 101
M  END
>  <TORSDO>  (11) 
F 17

>  <SCORE>  (11) 
-15.075

>  <name>  (11) 
10

>  <ligand_id>  (11) 
10

>  <original_smiles>  (11) 
[H]c1nc(N2C([H])([H])C([H])([H])C([H])(N([H])C(=O)N3C([H])([H])C([H])([H])C([H])([H])C([H])(n4nc(-c5c([H])c([H])c(Oc6c([H])c([H])c(F)c([H])c6F)c([H])c5[H])c(C(=O)N([H])[H])c4N([H])[H])C3([H])[H])C2([H])[H])nc(C([H])([H])Oc2c([H])c([H])c3c(c2[H])C([H])([H])N(C(=O)C([H])(N([H])C(=O)C([H])(N([H])C([H])([H])[H])C([H])([H])[H])C(C([H])([H])[H])(C([H])([H])[H])C([H])([H])[H])C([H])(C(=O)N([H])C2([H])c4c([H])c([H])c([H])c([H])c4C([H])([H])C([H])([H])C2([H])[H])C3([H])[H])n1

>  <smiles>  (11) 
[H]c1nc(N2C([H])([H])C([H])([H])C([H])(N([H])C(=O)N3C([H])([H])C([H])([H])C([H])([H])C([H])(n4nc(-c5c([H])c([H])c(Oc6c([H])c([H])c(F)c([H])c6F)c([H])c5[H])c(C(=O)N([H])[H])c4N([H])[H])C3([H])[H])C2([H])[H])nc(C([H])([H])Oc2c([H])c([H])c3c(c2[H])C([H])([H])N(C(=O)C([H])(N([H])C(=O)C([H])(N([H])C([H])([H])[H])C([H])([H])[H])C(C([H])([H])[H])(C([H])([H])[H])C([H])([H])[H])C([H])(C(=O)N([H])C2([H])c4c([H])c([H])c([H])c([H])c4C([H])([H])C([H])([H])C2([H])[H])C3([H])[H])n1

$$$$
11:0:0
     RDKit          3D

 93103  0  0  1  0  0  0  0  0999 V2000
  -28.3900  -21.8750   19.9900 C   0  0  0  0  0  0  0  0  0  0  0  0
  -29.3300  -20.7490   20.2040 C   0  0  0  0  0  0  0  0  0  0  0  0
  -28.7960  -23.2970   20.1360 C   0  0  0  0  0  0  0  0  0  0  0  0
  -30.8880  -22.4320   20.6390 C   0  0  0  0  0  0  0  0  0  0  0  0
  -32.3190  -22.7490   21.0130 C   0  0  0  0  0  1  0  0  0  0  0  0
  -30.5810  -21.1310   20.5350 N   0  0  0  0  0  0  0  0  0  0  0  0
  -30.0890  -23.4920   20.4640 N   0  0  0  0  0  0  0  0  0  0  0  0
  -26.5800  -20.6560   18.5140 C   0  0  0  0  0  2  0  0  0  0  0  0
  -26.2740  -22.1310   18.4400 C   0  0  0  0  0  2  0  0  0  0  0  0
  -26.9570  -21.5620   19.6650 C   0  0  0  0  0  3  0  0  0  0  0  0
  -29.3040  -18.3760   18.8950 C   0  0  0  0  0  2  0  0  0  0  0  0
  -29.0820  -19.1010   20.1970 C   0  0  0  0  0  3  0  0  0  0  0  0
  -30.0360  -17.7110   20.0360 C   0  0  0  0  0  3  0  0  0  0  0  0
  -30.4970  -15.0060   20.0310 C   0  0  0  0  0  0  0  0  0  0  0  0
  -30.3290  -12.6620   19.0730 C   0  0  0  0  0  2  0  0  0  0  0  0
  -29.3370  -12.6350   17.8890 C   0  0  0  0  0  2  0  0  0  0  0  0
  -27.8970  -12.4160   18.3900 C   0  0  0  0  0  2  0  0  0  0  0  0
  -27.5490  -13.3260   19.5980 C   0  0  0  0  0  3  0  0  0  0  0  0
  -28.6600  -13.3260   20.6710 C   0  0  0  0  0  2  0  0  0  0  0  0
  -29.8980  -13.7460   20.0040 N   0  0  0  0  0  0  0  0  0  0  0  0
  -31.6840  -15.0720   19.6930 O   0  0  0  0  0  0  0  0  0  0  0  0
  -29.7190  -16.1870   20.2100 N   0  0  0  0  0  0  0  0  0  0  0  0
  -28.7620  -15.9910   20.4620 H   0  0  0  0  0  0  0  0  0  0  0  0
  -25.2130  -13.8930   20.4740 C   0  0  0  0  0  0  0  0  0  0  0  0
  -24.1660  -13.1130   20.8810 C   0  0  0  0  0  0  0  0  0  0  0  0
  -24.6220  -11.7620   20.7920 C   0  0  0  0  0  0  0  0  0  0  0  0
  -26.2380  -13.0190   20.1580 N   0  0  0  0  0  0  0  0  0  0  0  0
  -25.8950  -11.7300   20.4150 N   0  0  0  0  0  0  0  0  0  0  0  0
  -23.9000  -10.4970   20.9870 C   0  0  0  0  0  0  0  0  0  0  0  0
  -24.3410   -9.5290   21.9140 C   0  0  0  0  0  3  0  0  0  0  0  0
  -23.6170   -8.3310   22.0990 C   0  0  0  0  0  3  0  0  0  0  0  0
  -22.4370   -8.0930   21.3540 C   0  0  0  0  0  0  0  0  0  0  0  0
  -22.0140   -9.0510   20.4140 C   0  0  0  0  0  3  0  0  0  0  0  0
  -22.7390  -10.2400   20.2290 C   0  0  0  0  0  3  0  0  0  0  0  0
  -21.6840   -6.9480   21.4460 O   0  0  0  0  0  0  0  0  0  0  0  0
  -21.6140   -6.2250   22.6110 C   0  0  0  0  0  0  0  0  0  0  0  0
  -21.1090   -6.7840   23.8050 C   0  0  0  0  0  3  0  0  0  0  0  0
  -20.9890   -5.9850   24.9600 C   0  0  0  0  0  3  0  0  0  0  0  0
  -21.3640   -4.6290   24.9220 C   0  0  0  0  0  0  0  0  0  0  0  0
  -21.8630   -4.0690   23.7320 C   0  0  0  0  0  3  0  0  0  0  0  0
  -21.9840   -4.8650   22.5790 C   0  0  0  0  0  0  0  0  0  0  0  0
  -22.4450   -4.3170   21.4290 F   0  0  0  0  0  0  0  0  0  0  0  0
  -21.2430   -3.8600   26.0290 F   0  0  0  0  0  0  0  0  0  0  0  0
  -22.7870  -13.5890   21.2330 C   0  0  0  0  0  0  0  0  0  0  0  0
  -22.1000  -12.8760   22.1180 N   0  0  0  0  0  0  0  0  0  0  0  0
  -22.3280  -14.6270   20.7580 O   0  0  0  0  0  0  0  0  0  0  0  0
  -22.4840  -12.0360   22.5240 H   0  0  0  0  0  0  0  0  0  0  0  0
  -21.1760  -13.1760   22.3960 H   0  0  0  0  0  0  0  0  0  0  0  0
  -25.3710  -15.2680   20.3220 N   0  0  0  0  0  0  0  0  0  0  0  0
  -24.6050  -15.9140   20.4780 H   0  0  0  0  0  0  0  0  0  0  0  0
  -26.1830  -15.7110   19.9120 H   0  0  0  0  0  0  0  0  0  0  0  0
  -27.8570  -24.6530   19.9350 C   0  0  0  0  0  2  0  0  0  0  0  0
  -28.2070  -26.1560   20.2050 O   0  0  0  0  0  0  0  0  0  0  0  0
  -24.6310  -31.8620   23.2550 C   0  0  0  0  0  0  0  0  0  0  0  0
  -27.1750  -27.1720   20.1420 C   0  0  0  0  0  0  0  0  0  0  0  0
  -23.4240  -30.5030   21.5920 C   0  0  0  0  0  3  0  0  0  0  0  0
  -24.8620  -28.9480   20.1390 C   0  0  0  0  0  0  0  0  0  0  0  0
  -25.9810  -30.7510   21.4350 C   0  0  0  0  0  2  0  0  0  0  0  0
  -26.0450  -29.3690   20.7570 C   0  0  0  0  0  0  0  0  0  0  0  0
  -27.2020  -28.4980   20.7430 C   0  0  0  0  0  3  0  0  0  0  0  0
  -25.9640  -26.8630   19.4800 C   0  0  0  0  0  3  0  0  0  0  0  0
  -24.8360  -27.7090   19.4850 C   0  0  0  0  0  3  0  0  0  0  0  0
  -23.6410  -29.8520   20.2010 C   0  0  0  0  0  2  0  0  0  0  0  0
  -24.6990  -31.0590   22.1490 N   0  0  0  0  0  0  0  0  0  0  0  0
  -23.5460  -32.1450   23.7860 O   0  0  0  0  0  0  0  0  0  0  0  0
  -22.7370  -29.4830   22.5350 C   0  0  0  0  0  0  0  0  0  0  0  0
  -21.4110  -29.3070   22.3890 N   0  0  0  0  0  0  0  0  0  0  0  0
  -23.4000  -28.8550   23.3640 O   0  0  0  0  0  0  0  0  0  0  0  0
  -20.9320  -29.8660   21.6970 H   0  0  0  0  0  0  0  0  0  0  0  0
  -18.0320  -28.0740   22.8250 C   0  0  0  0  0  0  0  0  0  0  0  0
  -20.5830  -28.3610   23.1410 C   0  0  0  0  0  3  0  0  0  0  0  0
  -20.7090  -26.9310   22.5650 C   0  0  0  0  0  2  0  0  0  0  0  0
  -19.6300  -26.6000   21.5290 C   0  0  0  0  0  2  0  0  0  0  0  0
  -18.2350  -26.7300   22.1470 C   0  0  0  0  0  2  0  0  0  0  0  0
  -19.1340  -28.8470   23.2770 C   0  0  0  0  0  0  0  0  0  0  0  0
  -18.8900  -30.1040   23.8710 C   0  0  0  0  0  3  0  0  0  0  0  0
  -17.5760  -30.5890   24.0170 C   0  0  0  0  0  3  0  0  0  0  0  0
  -16.4890  -29.8140   23.5790 C   0  0  0  0  0  3  0  0  0  0  0  0
  -16.7170  -28.5580   22.9890 C   0  0  0  0  0  3  0  0  0  0  0  0
  -25.9120  -32.4790   23.8930 C   0  0  0  0  0  3  0  0  0  0  0  0
  -26.4040  -31.6970   25.1740 C   0  0  1  0  0  0  0  0  0  0  0  0
  -25.2950  -31.4660   26.2270 C   0  0  0  0  0  1  0  0  0  0  0  0
  -26.9780  -30.3140   24.7880 C   0  0  0  0  0  1  0  0  0  0  0  0
  -27.5540  -32.4770   25.8540 C   0  0  0  0  0  1  0  0  0  0  0  0
  -25.6140  -33.8790   24.2320 N   0  0  0  0  0  0  0  0  0  0  0  0
  -25.9270  -34.9340   23.4690 C   0  0  0  0  0  0  0  0  0  0  0  0
  -26.5630  -34.8310   22.4170 O   0  0  0  0  0  0  0  0  0  0  0  0
  -25.0450  -34.0340   25.0520 H   0  0  0  0  0  0  0  0  0  0  0  0
  -24.1760  -36.7240   23.2010 C   0  0  0  0  0  1  0  0  0  0  0  0
  -25.4620  -36.3250   23.9450 C   0  0  0  0  0  3  0  0  0  0  0  0
  -27.6270  -37.2310   24.6670 C   0  0  0  0  0  1  0  0  0  0  0  0
  -26.4830  -37.3800   23.7700 N   0  0  0  0  0  0  0  0  0  0  0  0
  -26.0810  -38.3010   23.9210 H   0  0  0  0  0  0  0  0  0  0  0  0
  1  3  1  0
  1  2  2  0
  2  6  1  0
  3  7  2  0
  4  5  1  0
  6  4  2  0
  7  4  1  0
  8 10  1  0
  9  8  1  0
  9 10  1  0
 10  1  1  0
 11 13  1  0
 11 12  1  0
 12  2  1  0
 13 12  1  0
 13 22  1  0
 14 22  1  0
 15 20  1  0
 16 17  1  0
 16 15  1  0
 18 17  1  0
 18 27  1  0
 18 19  1  0
 20 14  1  0
 20 19  1  0
 21 14  2  0
 22 23  1  0
 24 25  2  0
 25 44  1  0
 26 25  1  0
 26 29  1  0
 27 28  1  0
 27 24  1  0
 28 26  2  0
 29 30  1  0
 30 31  2  0
 32 35  1  0
 32 31  1  0
 33 32  2  0
 34 33  1  0
 34 29  2  0
 35 36  1  0
 36 37  1  0
 37 38  2  0
 39 38  1  0
 39 43  1  0
 40 39  2  0
 41 36  2  0
 41 40  1  0
 42 41  1  0
 44 45  1  0
 45 48  1  0
 45 47  1  0
 46 44  2  0
 49 24  1  0
 49 50  1  0
 51 49  1  0
 52  3  1  0
 52 53  1  0
 54 65  2  0
 55 53  1  0
 55 60  1  0
 56 64  1  0
 56 66  1  0
 57 63  1  0
 57 59  1  0
 58 64  1  0
 59 58  1  0
 60 59  2  0
 61 62  1  0
 61 55  2  0
 62 57  2  0
 63 56  1  0
 64 54  1  0
 66 68  2  0
 67 66  1  0
 69 67  1  0
 70 79  2  0
 70 75  1  0
 71 67  1  0
 71 75  1  0
 72 71  1  0
 73 74  1  0
 73 72  1  0
 74 70  1  0
 75 76  2  0
 76 77  1  0
 78 77  2  0
 79 78  1  0
 80 54  1  0
 80 85  1  0
 80 81  1  0
 81 84  1  1
 81 82  1  0
 83 81  1  0
 85 88  1  0
 86 90  1  0
 86 85  1  0
 87 86  2  0
 90 89  1  0
 92 93  1  0
 92 90  1  0
 92 91  1  0
M  ISO  4  14 100  22 100  52 101  53 101
M  END
>  <TORSDO>  (12) 
F 19

>  <SCORE>  (12) 
-13.892

>  <name>  (12) 
11

>  <ligand_id>  (12) 
11

>  <original_smiles>  (12) 
[H]c1c([H])c([H])c2c(c1[H])C([H])([H])C([H])([H])C([H])([H])C2([H])N([H])C(=O)C1([H])N(C(=O)C([H])(N([H])C(=O)C([H])(N([H])C([H])([H])[H])C([H])([H])[H])C(C([H])([H])[H])(C([H])([H])[H])C([H])([H])[H])C([H])([H])c2c([H])c(OC([H])([H])c3nc(C([H])([H])[H])nc(C4([H])C([H])([H])C4([H])N([H])C(=O)N4C([H])([H])C([H])([H])C([H])([H])C([H])(n5nc(-c6c([H])c([H])c(Oc7c([H])c([H])c(F)c([H])c7F)c([H])c6[H])c(C(=O)N([H])[H])c5N([H])[H])C4([H])[H])c3C3([H])C([H])([H])C3([H])[H])c([H])c([H])c2C1([H])[H]

>  <smiles>  (12) 
[H]c1c([H])c([H])c2c(c1[H])C([H])([H])C([H])([H])C([H])([H])C2([H])N([H])C(=O)C1([H])N(C(=O)C([H])(N([H])C(=O)C([H])(N([H])C([H])([H])[H])C([H])([H])[H])C(C([H])([H])[H])(C([H])([H])[H])C([H])([H])[H])C([H])([H])c2c([H])c(OC([H])([H])c3nc(C([H])([H])[H])nc(C4([H])C([H])([H])C4([H])N([H])C(=O)N4C([H])([H])C([H])([H])C([H])([H])C([H])(n5nc(-c6c([H])c([H])c(Oc7c([H])c([H])c(F)c([H])c7F)c([H])c6[H])c(C(=O)N([H])[H])c5N([H])[H])C4([H])[H])c3C3([H])C([H])([H])C3([H])[H])c([H])c([H])c2C1([H])[H]

$$$$
12:0:0
     RDKit          3D

 96105  0  0  1  0  0  0  0  0999 V2000
  -28.3560  -23.7850   19.8500 C   0  0  0  0  0  0  0  0  0  0  0  0
  -28.7290  -22.5400   20.5210 C   0  0  0  0  0  0  0  0  0  0  0  0
  -28.4550  -25.0480   20.5720 C   0  0  0  0  0  0  0  0  0  0  0  0
  -29.2130  -23.8130   22.3790 C   0  0  0  0  0  0  0  0  0  0  0  0
  -29.6840  -23.8310   23.8170 C   0  0  0  0  0  1  0  0  0  0  0  0
  -29.1640  -22.6160   21.7930 N   0  0  0  0  0  0  0  0  0  0  0  0
  -28.8900  -24.9910   21.8460 N   0  0  0  0  0  0  0  0  0  0  0  0
  -26.4310  -23.2600   18.2450 C   0  0  0  0  0  1  0  0  0  0  0  0
  -27.8830  -23.7420   18.3990 C   0  0  0  0  0  3  0  0  0  0  0  0
  -28.0000  -24.9340   17.8140 F   0  0  0  0  0  0  0  0  0  0  0  0
  -28.3700  -26.3950   20.0700 O   0  0  0  0  0  0  0  0  0  0  0  0
  -24.6610  -31.8640   23.2110 C   0  0  0  0  0  0  0  0  0  0  0  0
  -27.2470  -27.2530   20.1530 C   0  0  0  0  0  0  0  0  0  0  0  0
  -23.4470  -30.4640   21.5790 C   0  0  0  0  0  3  0  0  0  0  0  0
  -24.8890  -28.9020   20.1510 C   0  0  0  0  0  0  0  0  0  0  0  0
  -25.9890  -30.7690   21.3800 C   0  0  0  0  0  2  0  0  0  0  0  0
  -26.0640  -29.3810   20.7430 C   0  0  0  0  0  0  0  0  0  0  0  0
  -27.2460  -28.5690   20.7330 C   0  0  0  0  0  3  0  0  0  0  0  0
  -26.0490  -26.8440   19.5350 C   0  0  0  0  0  3  0  0  0  0  0  0
  -24.8860  -27.6390   19.5370 C   0  0  0  0  0  3  0  0  0  0  0  0
  -23.6550  -29.7830   20.2000 C   0  0  0  0  0  2  0  0  0  0  0  0
  -24.7190  -31.0530   22.1120 N   0  0  0  0  0  0  0  0  0  0  0  0
  -23.5810  -32.1380   23.7550 O   0  0  0  0  0  0  0  0  0  0  0  0
  -22.7900  -29.4480   22.5460 C   0  0  0  0  0  0  0  0  0  0  0  0
  -21.4620  -29.2680   22.4270 N   0  0  0  0  0  0  0  0  0  0  0  0
  -23.4750  -28.8240   23.3590 O   0  0  0  0  0  0  0  0  0  0  0  0
  -20.9660  -29.8230   21.7440 H   0  0  0  0  0  0  0  0  0  0  0  0
  -18.0940  -28.0490   22.9510 C   0  0  0  0  0  0  0  0  0  0  0  0
  -20.6530  -28.3270   23.2050 C   0  0  0  0  0  3  0  0  0  0  0  0
  -20.7610  -26.8930   22.6340 C   0  0  0  0  0  2  0  0  0  0  0  0
  -19.6570  -26.5610   21.6260 C   0  0  0  0  0  2  0  0  0  0  0  0
  -18.2760  -26.7000   22.2750 C   0  0  0  0  0  2  0  0  0  0  0  0
  -19.2110  -28.8190   23.3730 C   0  0  0  0  0  0  0  0  0  0  0  0
  -18.9860  -30.0820   23.9630 C   0  0  0  0  0  3  0  0  0  0  0  0
  -17.6800  -30.5760   24.1360 C   0  0  0  0  0  3  0  0  0  0  0  0
  -16.5780  -29.8030   23.7290 C   0  0  0  0  0  3  0  0  0  0  0  0
  -16.7860  -28.5400   23.1450 C   0  0  0  0  0  3  0  0  0  0  0  0
  -25.9460  -32.5010   23.8230 C   0  0  0  0  0  3  0  0  0  0  0  0
  -26.4780  -31.7290   25.0940 C   0  0  1  0  0  0  0  0  0  0  0  0
  -25.3970  -31.4840   26.1720 C   0  0  0  0  0  1  0  0  0  0  0  0
  -27.0630  -30.3550   24.6950 C   0  0  0  0  0  1  0  0  0  0  0  0
  -27.6310  -32.5270   25.7480 C   0  0  0  0  0  1  0  0  0  0  0  0
  -25.6340  -33.8970   24.1660 N   0  0  0  0  0  0  0  0  0  0  0  0
  -25.9490  -34.9570   23.4090 C   0  0  0  0  0  0  0  0  0  0  0  0
  -26.6040  -34.8630   22.3670 O   0  0  0  0  0  0  0  0  0  0  0  0
  -25.0640  -34.0430   24.9850 H   0  0  0  0  0  0  0  0  0  0  0  0
  -24.2080  -36.7450   23.0860 C   0  0  0  0  0  1  0  0  0  0  0  0
  -25.4610  -36.3410   23.8810 C   0  0  0  0  0  3  0  0  0  0  0  0
  -27.5990  -37.2290   24.6970 C   0  0  0  0  0  1  0  0  0  0  0  0
  -26.4870  -37.4000   23.7650 N   0  0  0  0  0  0  0  0  0  0  0  0
  -26.0780  -38.3170   23.9260 H   0  0  0  0  0  0  0  0  0  0  0  0
  -28.5800  -21.0400   19.9690 C   0  0  0  0  0  2  0  0  0  0  0  0
  -30.9250  -18.0900   19.5430 C   0  0  0  0  0  2  0  0  0  0  0  0
  -30.7340  -19.6360   19.7440 C   0  0  0  0  0  2  0  0  0  0  0  0
  -28.8830  -18.4820   20.6390 C   0  0  0  0  0  2  0  0  0  0  0  0
  -30.0630  -17.4020   20.6160 C   0  0  0  0  0  3  0  0  0  0  0  0
  -29.4680  -19.8850   20.4910 N   0  0  2  0  0  4  0  0  0  0  0  0
  -29.7260  -20.1950   21.4170 H   0  0  0  0  0  0  0  0  0  0  0  0
  -30.5520  -14.7790   20.2260 C   0  0  0  0  0  0  0  0  0  0  0  0
  -30.3670  -12.5010   19.1960 C   0  0  0  0  0  2  0  0  0  0  0  0
  -29.4060  -12.5610   17.9870 C   0  0  0  0  0  2  0  0  0  0  0  0
  -27.9430  -12.3810   18.4380 C   0  0  0  0  0  2  0  0  0  0  0  0
  -27.5830  -13.2660   19.6590 C   0  0  0  0  0  3  0  0  0  0  0  0
  -28.6570  -13.1750   20.7660 C   0  0  0  0  0  2  0  0  0  0  0  0
  -29.9390  -13.5460   20.1540 N   0  0  0  0  0  0  0  0  0  0  0  0
  -31.7370  -14.8930   19.9010 O   0  0  0  0  0  0  0  0  0  0  0  0
  -29.7560  -15.8950   20.4700 N   0  0  0  0  0  0  0  0  0  0  0  0
  -28.7950  -15.6520   20.6570 H   0  0  0  0  0  0  0  0  0  0  0  0
  -25.2050  -13.8580   20.4150 C   0  0  0  0  0  0  0  0  0  0  0  0
  -24.1450  -13.0850   20.8030 C   0  0  0  0  0  0  0  0  0  0  0  0
  -24.6090  -11.7340   20.7720 C   0  0  0  0  0  0  0  0  0  0  0  0
  -26.2460  -12.9780   20.1690 N   0  0  0  0  0  0  0  0  0  0  0  0
  -25.8960  -11.6960   20.4470 N   0  0  0  0  0  0  0  0  0  0  0  0
  -23.8870  -10.4720   20.9740 C   0  0  0  0  0  0  0  0  0  0  0  0
  -24.3290   -9.5090   21.9100 C   0  0  0  0  0  3  0  0  0  0  0  0
  -23.6070   -8.3120   22.1010 C   0  0  0  0  0  3  0  0  0  0  0  0
  -22.4290   -8.0680   21.3570 C   0  0  0  0  0  0  0  0  0  0  0  0
  -22.0050   -9.0180   20.4110 C   0  0  0  0  0  3  0  0  0  0  0  0
  -22.7280  -10.2060   20.2180 C   0  0  0  0  0  3  0  0  0  0  0  0
  -21.6760   -6.9220   21.4580 O   0  0  0  0  0  0  0  0  0  0  0  0
  -21.6360   -6.1870   22.6160 C   0  0  0  0  0  0  0  0  0  0  0  0
  -21.2130   -6.7480   23.8400 C   0  0  0  0  0  3  0  0  0  0  0  0
  -21.1210   -5.9380   24.9900 C   0  0  0  0  0  3  0  0  0  0  0  0
  -21.4430   -4.5690   24.9160 C   0  0  0  0  0  0  0  0  0  0  0  0
  -21.8590   -4.0090   23.6970 C   0  0  0  0  0  3  0  0  0  0  0  0
  -21.9520   -4.8150   22.5480 C   0  0  0  0  0  0  0  0  0  0  0  0
  -22.3340   -4.2650   21.3710 F   0  0  0  0  0  0  0  0  0  0  0  0
  -21.3470   -3.7900   26.0190 F   0  0  0  0  0  0  0  0  0  0  0  0
  -22.7510  -13.5610   21.0860 C   0  0  0  0  0  0  0  0  0  0  0  0
  -22.0330  -12.8670   21.9630 N   0  0  0  0  0  0  0  0  0  0  0  0
  -22.3060  -14.5820   20.5650 O   0  0  0  0  0  0  0  0  0  0  0  0
  -22.4070  -12.0410   22.4050 H   0  0  0  0  0  0  0  0  0  0  0  0
  -21.0960  -13.1670   22.1970 H   0  0  0  0  0  0  0  0  0  0  0  0
  -25.3640  -15.2280   20.2250 N   0  0  0  0  0  0  0  0  0  0  0  0
  -24.5870  -15.8710   20.3210 H   0  0  0  0  0  0  0  0  0  0  0  0
  -26.1830  -15.6560   19.8150 H   0  0  0  0  0  0  0  0  0  0  0  0
  1  2  2  0
  1  3  1  0
  2  6  1  0
  3  7  2  0
  4  5  1  0
  6  4  2  0
  7  4  1  0
  9  8  1  0
  9  1  1  0
 10  9  1  0
 11 13  1  0
 11  3  1  0
 12 23  2  0
 13 18  1  0
 14 22  1  0
 14 24  1  0
 15 21  1  0
 15 17  1  0
 16 22  1  0
 17 16  1  0
 18 17  2  0
 19 20  1  0
 19 13  2  0
 20 15  2  0
 21 14  1  0
 22 12  1  0
 24 26  2  0
 25 24  1  0
 27 25  1  0
 28 37  2  0
 28 33  1  0
 29 25  1  0
 29 33  1  0
 30 29  1  0
 31 32  1  0
 31 30  1  0
 32 28  1  0
 33 34  2  0
 34 35  1  0
 36 35  2  0
 37 36  1  0
 38 12  1  0
 38 43  1  0
 38 39  1  0
 39 42  1  1
 39 40  1  0
 41 39  1  0
 43 46  1  0
 44 48  1  0
 44 43  1  0
 45 44  2  0
 48 47  1  0
 50 48  1  0
 50 51  1  0
 50 49  1  0
 52 57  1  0
 52  2  1  0
 53 54  1  0
 53 56  1  0
 54 57  1  0
 56 67  1  0
 56 55  1  0
 57 55  1  0
 57 58  1  1
 59 67  1  0
 60 65  1  0
 61 62  1  0
 61 60  1  0
 63 62  1  0
 63 72  1  0
 63 64  1  0
 65 59  1  0
 65 64  1  0
 66 59  2  0
 67 68  1  0
 69 70  2  0
 70 89  1  0
 71 70  1  0
 71 74  1  0
 72 69  1  0
 72 73  1  0
 73 71  2  0
 74 75  1  0
 75 76  2  0
 77 80  1  0
 77 76  1  0
 78 77  2  0
 79 78  1  0
 79 74  2  0
 80 81  1  0
 81 82  1  0
 82 83  2  0
 84 83  1  0
 84 88  1  0
 85 84  2  0
 86 81  2  0
 86 85  1  0
 87 86  1  0
 89 90  1  0
 90 93  1  0
 90 92  1  0
 91 89  2  0
 94 95  1  0
 94 69  1  0
 96 94  1  0
M  ISO  4   3 101  11 101  59 100  67 100
M  END
>  <TORSDO>  (13) 
F 19

>  <SCORE>  (13) 
-14.214

>  <name>  (13) 
12

>  <ligand_id>  (13) 
12

>  <original_smiles>  (13) 
[H]c1c([H])c([H])c2c(c1[H])C([H])([H])C([H])([H])C([H])([H])C2([H])N([H])C(=O)C1([H])N(C(=O)C([H])(N([H])C(=O)C([H])(N([H])C([H])([H])[H])C([H])([H])[H])C(C([H])([H])[H])(C([H])([H])[H])C([H])([H])[H])C([H])([H])c2c([H])c(Oc3nc(C([H])([H])[H])nc(C([H])([H])[N+]4([H])C([H])([H])C([H])([H])C([H])(N([H])C(=O)N5C([H])([H])C([H])([H])C([H])([H])C([H])(n6nc(-c7c([H])c([H])c(Oc8c([H])c([H])c(F)c([H])c8F)c([H])c7[H])c(C(=O)N([H])[H])c6N([H])[H])C5([H])[H])C4([H])[H])c3C([H])(F)C([H])([H])[H])c([H])c([H])c2C1([H])[H]

>  <smiles>  (13) 
[H]c1c([H])c([H])c2c(c1[H])C([H])([H])C([H])([H])C([H])([H])C2([H])N([H])C(=O)C1([H])N(C(=O)C([H])(N([H])C(=O)C([H])(N([H])C([H])([H])[H])C([H])([H])[H])C(C([H])([H])[H])(C([H])([H])[H])C([H])([H])[H])C([H])([H])c2c([H])c(Oc3nc(C([H])([H])[H])nc(C([H])([H])[N+]4([H])C([H])([H])C([H])([H])C([H])(N([H])C(=O)N5C([H])([H])C([H])([H])C([H])([H])C([H])(n6nc(-c7c([H])c([H])c(Oc8c([H])c([H])c(F)c([H])c8F)c([H])c7[H])c(C(=O)N([H])[H])c6N([H])[H])C5([H])[H])C4([H])[H])c3C([H])(F)C([H])([H])[H])c([H])c([H])c2C1([H])[H]

$$$$
13:0:0
     RDKit          3D

 97107  0  0  1  0  0  0  0  0999 V2000
  -27.9670  -22.7660   20.9610 C   0  0  0  0  0  3  0  0  0  0  0  0
  -30.2190  -23.4660   20.7770 C   0  0  0  0  0  3  0  0  0  0  0  0
  -27.5210  -24.1030   20.6880 C   0  0  0  0  0  0  0  0  0  0  0  0
  -29.3290  -22.3940   21.0160 C   0  0  0  0  0  0  0  0  0  0  0  0
  -28.5210  -25.1230   20.4270 C   0  0  0  0  0  0  0  0  0  0  0  0
  -29.8320  -24.7440   20.4820 N   0  0  0  0  0  0  0  0  0  0  0  0
  -25.1320  -24.8440   21.7330 C   0  0  0  0  0  2  0  0  0  0  0  0
  -25.9990  -24.2810   20.6150 C   0  0  0  0  0  3  0  0  0  0  0  0
  -25.2040  -23.4240   21.5010 N   0  0  0  0  0  4  0  0  0  0  0  0
  -24.3350  -23.0580   21.1400 H   0  0  0  0  0  0  0  0  0  0  0  0
  -25.6160  -22.9550   22.2900 H   0  0  0  0  0  0  0  0  0  0  0  0
  -28.4180  -26.4940   20.0120 O   0  0  0  0  0  0  0  0  0  0  0  0
  -24.6680  -31.7990   23.1750 C   0  0  0  0  0  0  0  0  0  0  0  0
  -27.3010  -27.3390   20.0060 C   0  0  0  0  0  0  0  0  0  0  0  0
  -23.4890  -30.4720   21.4580 C   0  0  0  0  0  3  0  0  0  0  0  0
  -24.9610  -28.9840   19.9820 C   0  0  0  0  0  0  0  0  0  0  0  0
  -26.0270  -30.7860   21.3350 C   0  0  0  0  0  2  0  0  0  0  0  0
  -26.1140  -29.4300   20.6450 C   0  0  0  0  0  0  0  0  0  0  0  0
  -27.2810  -28.6130   20.6570 C   0  0  0  0  0  3  0  0  0  0  0  0
  -26.1720  -27.0050   19.2370 C   0  0  0  0  0  3  0  0  0  0  0  0
  -24.9970  -27.7820   19.2600 C   0  0  0  0  0  3  0  0  0  0  0  0
  -23.7240  -29.8560   20.0530 C   0  0  0  0  0  2  0  0  0  0  0  0
  -24.7450  -31.0370   22.0450 N   0  0  0  0  0  0  0  0  0  0  0  0
  -23.5790  -32.0490   23.7100 O   0  0  0  0  0  0  0  0  0  0  0  0
  -22.8210  -29.4120   22.3670 C   0  0  0  0  0  0  0  0  0  0  0  0
  -21.4910  -29.2700   22.2530 N   0  0  0  0  0  0  0  0  0  0  0  0
  -23.5020  -28.7260   23.1340 O   0  0  0  0  0  0  0  0  0  0  0  0
  -21.0000  -29.8720   21.6060 H   0  0  0  0  0  0  0  0  0  0  0  0
  -18.0910  -28.1390   22.7670 C   0  0  0  0  0  0  0  0  0  0  0  0
  -20.6660  -28.3000   22.9780 C   0  0  0  0  0  3  0  0  0  0  0  0
  -20.7070  -26.9160   22.2920 C   0  0  0  0  0  2  0  0  0  0  0  0
  -19.5660  -26.7120   21.2940 C   0  0  0  0  0  2  0  0  0  0  0  0
  -18.2060  -26.8360   21.9930 C   0  0  0  0  0  2  0  0  0  0  0  0
  -19.2470  -28.8340   23.2180 C   0  0  0  0  0  0  0  0  0  0  0  0
  -19.0850  -30.0560   23.9060 C   0  0  0  0  0  3  0  0  0  0  0  0
  -17.8030  -30.5910   24.1320 C   0  0  0  0  0  3  0  0  0  0  0  0
  -16.6620  -29.8930   23.6960 C   0  0  0  0  0  3  0  0  0  0  0  0
  -16.8060  -28.6670   23.0250 C   0  0  0  0  0  3  0  0  0  0  0  0
  -25.9430  -32.4090   23.8360 C   0  0  0  0  0  3  0  0  0  0  0  0
  -26.4150  -31.6180   25.1190 C   0  0  1  0  0  0  0  0  0  0  0  0
  -25.2890  -31.3830   26.1530 C   0  0  0  0  0  1  0  0  0  0  0  0
  -26.9950  -30.2370   24.7340 C   0  0  0  0  0  1  0  0  0  0  0  0
  -27.5540  -32.3920   25.8200 C   0  0  0  0  0  1  0  0  0  0  0  0
  -25.6440  -33.8080   24.1720 N   0  0  0  0  0  0  0  0  0  0  0  0
  -26.0160  -34.8660   23.4360 C   0  0  0  0  0  0  0  0  0  0  0  0
  -26.7160  -34.7640   22.4260 O   0  0  0  0  0  0  0  0  0  0  0  0
  -25.0200  -33.9630   24.9510 H   0  0  0  0  0  0  0  0  0  0  0  0
  -24.3330  -36.6970   23.0460 C   0  0  0  0  0  1  0  0  0  0  0  0
  -25.5360  -36.2570   23.8960 C   0  0  0  0  0  3  0  0  0  0  0  0
  -27.6440  -37.0980   24.8330 C   0  0  0  0  0  1  0  0  0  0  0  0
  -26.5910  -37.2920   23.8390 N   0  0  0  0  0  0  0  0  0  0  0  0
  -26.1940  -38.2190   23.9750 H   0  0  0  0  0  0  0  0  0  0  0  0
  -29.7950  -20.9640   21.5070 C   0  0  0  0  0  2  0  0  0  0  0  0
  -30.1140  -19.8630   20.5090 N   0  0  0  0  0  4  0  0  0  0  0  0
  -29.5750  -20.0190   19.6740 H   0  0  0  0  0  0  0  0  0  0  0  0
  -31.0850  -19.9750   20.2610 H   0  0  0  0  0  0  0  0  0  0  0  0
  -30.7310  -14.7690   20.0060 C   0  0  0  0  0  0  0  0  0  0  0  0
  -30.4070  -12.5300   18.9490 C   0  0  0  0  0  2  0  0  0  0  0  0
  -29.3970  -12.6150   17.7850 C   0  0  0  0  0  2  0  0  0  0  0  0
  -27.9600  -12.3990   18.3050 C   0  0  0  0  0  2  0  0  0  0  0  0
  -27.6610  -13.2620   19.5530 C   0  0  0  0  0  3  0  0  0  0  0  0
  -28.7970  -13.1790   20.6050 C   0  0  0  0  0  2  0  0  0  0  0  0
  -30.0380  -13.5770   19.9330 N   0  0  0  0  0  0  0  0  0  0  0  0
  -31.8940  -14.8040   19.5920 O   0  0  0  0  0  0  0  0  0  0  0  0
  -28.5420  -17.8660   20.5890 C   0  0  0  0  0  2  0  0  0  0  0  0
  -28.7020  -16.3360   20.4560 C   0  0  0  0  0  2  0  0  0  0  0  0
  -30.8390  -17.2980   20.3270 C   0  0  0  0  0  2  0  0  0  0  0  0
  -29.9140  -18.4150   20.9390 C   0  0  0  0  0  3  0  0  0  0  0  0
  -30.1300  -15.9760   20.3720 N   0  0  0  0  0  0  0  0  0  0  0  0
  -25.3330  -13.8890   20.4400 C   0  0  0  0  0  0  0  0  0  0  0  0
  -24.2860  -13.1200   20.8610 C   0  0  0  0  0  0  0  0  0  0  0  0
  -24.7320  -11.7680   20.7720 C   0  0  0  0  0  0  0  0  0  0  0  0
  -26.3500  -13.0000   20.1280 N   0  0  0  0  0  0  0  0  0  0  0  0
  -25.9990  -11.7200   20.3910 N   0  0  0  0  0  0  0  0  0  0  0  0
  -24.0110  -10.5080   20.9670 C   0  0  0  0  0  0  0  0  0  0  0  0
  -24.4600   -9.5350   21.8850 C   0  0  0  0  0  3  0  0  0  0  0  0
  -23.7360   -8.3380   22.0740 C   0  0  0  0  0  3  0  0  0  0  0  0
  -22.5490   -8.1070   21.3410 C   0  0  0  0  0  0  0  0  0  0  0  0
  -22.1190   -9.0680   20.4090 C   0  0  0  0  0  3  0  0  0  0  0  0
  -22.8440  -10.2540   20.2180 C   0  0  0  0  0  3  0  0  0  0  0  0
  -21.7950   -6.9630   21.4360 O   0  0  0  0  0  0  0  0  0  0  0  0
  -21.7330   -6.2410   22.6010 C   0  0  0  0  0  0  0  0  0  0  0  0
  -21.2440   -6.8000   23.8020 C   0  0  0  0  0  3  0  0  0  0  0  0
  -21.1320   -6.0010   24.9590 C   0  0  0  0  0  3  0  0  0  0  0  0
  -21.4990   -4.6430   24.9160 C   0  0  0  0  0  0  0  0  0  0  0  0
  -21.9860   -4.0830   23.7210 C   0  0  0  0  0  3  0  0  0  0  0  0
  -22.0990   -4.8800   22.5670 C   0  0  0  0  0  0  0  0  0  0  0  0
  -22.5430   -4.3270   21.4100 F   0  0  0  0  0  0  0  0  0  0  0  0
  -21.3840   -3.8750   26.0230 F   0  0  0  0  0  0  0  0  0  0  0  0
  -22.9140  -13.6030   21.2340 C   0  0  0  0  0  0  0  0  0  0  0  0
  -22.2370  -12.8830   22.1180 N   0  0  0  0  0  0  0  0  0  0  0  0
  -22.4600  -14.6520   20.7780 O   0  0  0  0  0  0  0  0  0  0  0  0
  -22.6240  -12.0310   22.5020 H   0  0  0  0  0  0  0  0  0  0  0  0
  -21.3210  -13.1830   22.4170 H   0  0  0  0  0  0  0  0  0  0  0  0
  -25.4960  -15.2600   20.2730 N   0  0  0  0  0  0  0  0  0  0  0  0
  -24.7550  -15.9250   20.4590 H   0  0  0  0  0  0  0  0  0  0  0  0
  -26.3290  -15.6930   19.8960 H   0  0  0  0  0  0  0  0  0  0  0  0
  1  4  1  0
  2  4  2  0
  3  1  2  0
  4 53  1  0
  5  6  2  0
  5  3  1  0
  6  2  1  0
  8  3  1  0
  8  9  1  0
  8  7  1  0
  9  7  1  0
  9 11  1  0
 10  9  1  0
 12  5  1  0
 13 24  2  0
 14 12  1  0
 14 19  1  0
 15 23  1  0
 15 25  1  0
 16 22  1  0
 16 18  1  0
 17 23  1  0
 18 19  2  0
 18 17  1  0
 20 21  1  0
 20 14  2  0
 21 16  2  0
 22 15  1  0
 23 13  1  0
 25 27  2  0
 26 25  1  0
 28 26  1  0
 29 38  2  0
 29 34  1  0
 30 26  1  0
 30 34  1  0
 31 30  1  0
 32 33  1  0
 32 31  1  0
 33 29  1  0
 34 35  2  0
 35 36  1  0
 37 36  2  0
 38 37  1  0
 39 13  1  0
 39 44  1  0
 39 40  1  0
 40 43  1  1
 40 41  1  0
 42 40  1  0
 44 47  1  0
 45 49  1  0
 45 44  1  0
 46 45  2  0
 49 48  1  0
 51 49  1  0
 51 52  1  0
 51 50  1  0
 54 53  1  0
 55 54  1  0
 56 54  1  0
 57 69  1  0
 58 63  1  0
 59 60  1  0
 59 58  1  0
 61 60  1  0
 61 73  1  0
 61 62  1  0
 63 57  1  0
 63 62  1  0
 64 57  2  0
 65 68  1  0
 66 65  1  0
 67 69  1  0
 67 68  1  0
 68 54  1  0
 69 66  1  0
 70 71  2  0
 71 90  1  0
 72 71  1  0
 72 75  1  0
 73 74  1  0
 73 70  1  0
 74 72  2  0
 75 76  1  0
 76 77  2  0
 78 81  1  0
 78 77  1  0
 79 78  2  0
 80 79  1  0
 80 75  2  0
 81 82  1  0
 82 83  1  0
 83 84  2  0
 85 84  1  0
 85 89  1  0
 86 85  2  0
 87 82  2  0
 87 86  1  0
 88 87  1  0
 90 91  1  0
 91 94  1  0
 91 93  1  0
 92 90  2  0
 95 70  1  0
 95 96  1  0
 97 95  1  0
M  ISO  4   5 101  12 101  57 100  69 100
M  END
>  <TORSDO>  (14) 
F 19

>  <SCORE>  (14) 
-14.566

>  <name>  (14) 
13

>  <ligand_id>  (14) 
13

>  <original_smiles>  (14) 
[H]c1nc(Oc2c([H])c([H])c3c(c2[H])C([H])([H])N(C(=O)C([H])(N([H])C(=O)C([H])(N([H])C([H])([H])[H])C([H])([H])[H])C(C([H])([H])[H])(C([H])([H])[H])C([H])([H])[H])C([H])(C(=O)N([H])C2([H])c4c([H])c([H])c([H])c([H])c4C([H])([H])C([H])([H])C2([H])[H])C3([H])[H])c(C2([H])C([H])([H])[N+]2([H])[H])c([H])c1C([H])([H])[N+]([H])([H])C1([H])C([H])([H])N(C(=O)N2C([H])([H])C([H])([H])C([H])([H])C([H])(n3nc(-c4c([H])c([H])c(Oc5c([H])c([H])c(F)c([H])c5F)c([H])c4[H])c(C(=O)N([H])[H])c3N([H])[H])C2([H])[H])C([H])([H])C1([H])[H]

>  <smiles>  (14) 
[H]c1nc(Oc2c([H])c([H])c3c(c2[H])C([H])([H])N(C(=O)C([H])(N([H])C(=O)C([H])(N([H])C([H])([H])[H])C([H])([H])[H])C(C([H])([H])[H])(C([H])([H])[H])C([H])([H])[H])C([H])(C(=O)N([H])C2([H])c4c([H])c([H])c([H])c([H])c4C([H])([H])C([H])([H])C2([H])[H])C3([H])[H])c(C2([H])C([H])([H])[N+]2([H])[H])c([H])c1C([H])([H])[N+]([H])([H])C1([H])C([H])([H])N(C(=O)N2C([H])([H])C([H])([H])C([H])([H])C([H])(n3nc(-c4c([H])c([H])c(Oc5c([H])c([H])c(F)c([H])c5F)c([H])c4[H])c(C(=O)N([H])[H])c3N([H])[H])C2([H])[H])C([H])([H])C1([H])[H]

$$$$
14:0:0
     RDKit          3D

 91100  0  0  1  0  0  0  0  0999 V2000
  -28.5540  -23.2820   21.2140 C   0  0  0  0  0  3  0  0  0  0  0  0
  -28.7960  -21.9450   21.6690 C   0  0  0  0  0  3  0  0  0  0  0  0
  -28.9530  -22.5300   18.9600 C   0  0  0  0  0  3  0  0  0  0  0  0
  -28.6250  -23.6420   19.8420 C   0  0  0  0  0  0  0  0  0  0  0  0
  -29.2100  -21.1590   19.3860 C   0  0  0  0  0  0  0  0  0  0  0  0
  -29.1230  -20.8870   20.7740 C   0  0  0  0  0  0  0  0  0  0  0  0
  -29.7330  -18.9940   19.6690 C   0  0  0  0  0  0  0  0  0  0  0  0
  -29.5060  -18.7660   22.1610 C   0  0  0  0  0  1  0  0  0  0  0  0
  -29.5650  -19.9560   18.7150 N   0  0  0  0  0  0  0  0  0  0  0  0
  -29.4410  -19.5000   20.9110 N   0  0  0  0  0  0  0  0  0  0  0  0
  -28.2590  -25.1200   19.2770 C   0  0  0  0  0  2  0  0  0  0  0  0
  -28.1540  -26.4080   20.0870 O   0  0  0  0  0  0  0  0  0  0  0  0
  -24.5270  -31.9160   23.2210 C   0  0  0  0  0  0  0  0  0  0  0  0
  -27.0600  -27.3290   20.0230 C   0  0  0  0  0  0  0  0  0  0  0  0
  -23.2910  -30.5400   21.5910 C   0  0  0  0  0  3  0  0  0  0  0  0
  -24.7090  -29.0150   20.0950 C   0  0  0  0  0  0  0  0  0  0  0  0
  -25.8330  -30.8430   21.3580 C   0  0  0  0  0  2  0  0  0  0  0  0
  -25.8970  -29.4700   20.6790 C   0  0  0  0  0  0  0  0  0  0  0  0
  -27.0690  -28.6380   20.6340 C   0  0  0  0  0  3  0  0  0  0  0  0
  -25.8370  -26.9570   19.4150 C   0  0  0  0  0  3  0  0  0  0  0  0
  -24.6870  -27.7700   19.4540 C   0  0  0  0  0  3  0  0  0  0  0  0
  -23.4750  -29.8940   20.1930 C   0  0  0  0  0  2  0  0  0  0  0  0
  -24.5710  -31.1200   22.1120 N   0  0  0  0  0  0  0  0  0  0  0  0
  -23.4540  -32.1810   23.7850 O   0  0  0  0  0  0  0  0  0  0  0  0
  -22.6520  -29.5070   22.5510 C   0  0  0  0  0  0  0  0  0  0  0  0
  -21.3370  -29.2690   22.4040 N   0  0  0  0  0  0  0  0  0  0  0  0
  -23.3420  -28.9220   23.3910 O   0  0  0  0  0  0  0  0  0  0  0  0
  -20.8370  -29.7930   21.7000 H   0  0  0  0  0  0  0  0  0  0  0  0
  -18.0280  -27.8510   22.8000 C   0  0  0  0  0  0  0  0  0  0  0  0
  -20.5470  -28.3030   23.1730 C   0  0  0  0  0  3  0  0  0  0  0  0
  -20.7760  -26.8620   22.6600 C   0  0  0  0  0  2  0  0  0  0  0  0
  -19.7490  -26.4270   21.6100 C   0  0  0  0  0  2  0  0  0  0  0  0
  -18.3310  -26.4950   22.1840 C   0  0  0  0  0  2  0  0  0  0  0  0
  -19.0700  -28.7060   23.2490 C   0  0  0  0  0  0  0  0  0  0  0  0
  -18.7340  -29.9690   23.7840 C   0  0  0  0  0  3  0  0  0  0  0  0
  -17.3900  -30.3800   23.8720 C   0  0  0  0  0  3  0  0  0  0  0  0
  -16.3640  -29.5240   23.4380 C   0  0  0  0  0  3  0  0  0  0  0  0
  -16.6830  -28.2610   22.9080 C   0  0  0  0  0  3  0  0  0  0  0  0
  -25.8190  -32.5480   23.8220 C   0  0  0  0  0  3  0  0  0  0  0  0
  -25.5250  -33.9550   24.1340 N   0  0  0  0  0  0  0  0  0  0  0  0
  -25.8500  -34.9950   23.3540 C   0  0  0  0  0  0  0  0  0  0  0  0
  -26.4980  -34.8700   22.3110 O   0  0  0  0  0  0  0  0  0  0  0  0
  -24.9480  -34.1280   24.9440 H   0  0  0  0  0  0  0  0  0  0  0  0
  -24.1280  -36.7950   23.0080 C   0  0  0  0  0  1  0  0  0  0  0  0
  -25.3850  -36.3940   23.8000 C   0  0  0  0  0  3  0  0  0  0  0  0
  -27.5370  -37.2820   24.5780 C   0  0  0  0  0  1  0  0  0  0  0  0
  -26.4220  -37.4370   23.6470 N   0  0  0  0  0  0  0  0  0  0  0  0
  -26.0250  -38.3630   23.7780 H   0  0  0  0  0  0  0  0  0  0  0  0
  -26.3380  -31.7960   25.1100 C   0  0  1  0  0  0  0  0  0  0  0  0
  -25.2490  -31.5810   26.1850 C   0  0  0  0  0  1  0  0  0  0  0  0
  -26.9110  -30.4090   24.7400 C   0  0  0  0  0  1  0  0  0  0  0  0
  -27.4940  -32.5950   25.7530 C   0  0  0  0  0  1  0  0  0  0  0  0
  -30.4790  -17.5940   19.4100 C   0  0  0  0  0  2  0  0  0  0  0  0
  -30.6670  -14.9980   19.5290 C   0  0  0  0  0  0  0  0  0  0  0  0
  -30.4350  -12.6550   18.6630 C   0  0  0  0  0  2  0  0  0  0  0  0
  -29.3880  -12.6100   17.5300 C   0  0  0  0  0  2  0  0  0  0  0  0
  -27.9770  -12.4040   18.1120 C   0  0  0  0  0  2  0  0  0  0  0  0
  -27.6820  -13.3470   19.3100 C   0  0  0  0  0  3  0  0  0  0  0  0
  -28.8450  -13.3870   20.3230 C   0  0  0  0  0  2  0  0  0  0  0  0
  -30.0530  -13.7600   19.5800 N   0  0  0  0  0  0  0  0  0  0  0  0
  -31.8270  -15.0610   19.1150 O   0  0  0  0  0  0  0  0  0  0  0  0
  -29.9400  -16.1810   19.7110 N   0  0  0  0  0  0  0  0  0  0  0  0
  -28.9740  -16.1070   19.9900 H   0  0  0  0  0  0  0  0  0  0  0  0
  -25.4150  -13.9060   20.3620 C   0  0  0  0  0  0  0  0  0  0  0  0
  -24.3900  -13.1180   20.8100 C   0  0  0  0  0  0  0  0  0  0  0  0
  -24.8250  -11.7690   20.6430 C   0  0  0  0  0  0  0  0  0  0  0  0
  -26.4080  -13.0350   19.9470 N   0  0  0  0  0  0  0  0  0  0  0  0
  -26.0690  -11.7400   20.1790 N   0  0  0  0  0  0  0  0  0  0  0  0
  -24.1060  -10.5030   20.8430 C   0  0  0  0  0  0  0  0  0  0  0  0
  -24.5530   -9.5380   21.7730 C   0  0  0  0  0  3  0  0  0  0  0  0
  -23.8340   -8.3380   21.9600 C   0  0  0  0  0  3  0  0  0  0  0  0
  -22.6530   -8.0950   21.2180 C   0  0  0  0  0  0  0  0  0  0  0  0
  -22.2270   -9.0480   20.2770 C   0  0  0  0  0  3  0  0  0  0  0  0
  -22.9460  -10.2400   20.0880 C   0  0  0  0  0  3  0  0  0  0  0  0
  -21.9030   -6.9480   21.3160 O   0  0  0  0  0  0  0  0  0  0  0  0
  -21.7480   -6.2900   22.5100 C   0  0  0  0  0  0  0  0  0  0  0  0
  -21.1770   -6.9180   23.6380 C   0  0  0  0  0  3  0  0  0  0  0  0
  -20.9710   -6.1830   24.8230 C   0  0  0  0  0  3  0  0  0  0  0  0
  -21.3260   -4.8220   24.8810 C   0  0  0  0  0  0  0  0  0  0  0  0
  -21.8880   -4.1940   23.7550 C   0  0  0  0  0  3  0  0  0  0  0  0
  -22.0960   -4.9260   22.5730 C   0  0  0  0  0  0  0  0  0  0  0  0
  -22.6180   -4.3090   21.4850 F   0  0  0  0  0  0  0  0  0  0  0  0
  -21.1210   -4.1150   26.0160 F   0  0  0  0  0  0  0  0  0  0  0  0
  -23.0430  -13.5910   21.2750 C   0  0  0  0  0  0  0  0  0  0  0  0
  -22.4230  -12.8640   22.1970 N   0  0  0  0  0  0  0  0  0  0  0  0
  -22.5550  -14.6380   20.8530 O   0  0  0  0  0  0  0  0  0  0  0  0
  -22.8370  -12.0160   22.5570 H   0  0  0  0  0  0  0  0  0  0  0  0
  -21.5240  -13.1590   22.5500 H   0  0  0  0  0  0  0  0  0  0  0  0
  -25.5770  -15.2830   20.2460 N   0  0  0  0  0  0  0  0  0  0  0  0
  -24.8300  -15.9300   20.4710 H   0  0  0  0  0  0  0  0  0  0  0  0
  -26.3740  -15.7320   19.8130 H   0  0  0  0  0  0  0  0  0  0  0  0
  1  2  1  0
  3  5  2  0
  3  4  1  0
  4  1  2  0
  5  6  1  0
  6 10  1  0
  6  2  2  0
  7 10  1  0
  9  5  1  0
  9  7  2  0
 10  8  1  0
 11  4  1  0
 11 12  1  0
 13 24  2  0
 14 12  1  0
 14 19  1  0
 15 23  1  0
 15 25  1  0
 16 22  1  0
 16 18  1  0
 17 23  1  0
 18 17  1  0
 19 18  2  0
 20 21  1  0
 20 14  2  0
 21 16  2  0
 22 15  1  0
 23 13  1  0
 25 27  2  0
 26 25  1  0
 28 26  1  0
 29 38  2  0
 29 34  1  0
 30 26  1  0
 30 34  1  0
 31 30  1  0
 32 33  1  0
 32 31  1  0
 33 29  1  0
 34 35  2  0
 35 36  1  0
 37 36  2  0
 38 37  1  0
 39 13  1  0
 39 40  1  0
 39 49  1  0
 40 43  1  0
 41 45  1  0
 41 40  1  0
 42 41  2  0
 45 44  1  0
 47 48  1  0
 47 45  1  0
 47 46  1  0
 49 52  1  1
 49 50  1  0
 51 49  1  0
 53  7  1  0
 53 62  1  0
 54 60  1  0
 54 62  1  0
 55 60  1  0
 56 57  1  0
 56 55  1  0
 58 57  1  0
 58 67  1  0
 58 59  1  0
 60 59  1  0
 61 54  2  0
 62 63  1  0
 64 65  2  0
 65 84  1  0
 66 65  1  0
 66 69  1  0
 67 68  1  0
 67 64  1  0
 68 66  2  0
 69 70  1  0
 70 71  2  0
 72 75  1  0
 72 71  1  0
 73 72  2  0
 74 73  1  0
 74 69  2  0
 75 76  1  0
 76 81  2  0
 76 77  1  0
 77 78  2  0
 78 79  1  0
 79 83  1  0
 80 79  2  0
 81 80  1  0
 82 81  1  0
 84 85  1  0
 85 88  1  0
 85 87  1  0
 86 84  2  0
 89 64  1  0
 89 90  1  0
 91 89  1  0
M  ISO  4  11 101  12 101  54 100  62 100
M  END
>  <TORSDO>  (15) 
F 18

>  <SCORE>  (15) 
-12.824

>  <name>  (15) 
14

>  <ligand_id>  (15) 
14

>  <original_smiles>  (15) 
[H]c1c([H])c([H])c2c(c1[H])C([H])([H])C([H])([H])C([H])([H])C2([H])N([H])C(=O)C1([H])N(C(=O)C([H])(N([H])C(=O)C([H])(N([H])C([H])([H])[H])C([H])([H])[H])C(C([H])([H])[H])(C([H])([H])[H])C([H])([H])[H])C([H])([H])c2c([H])c(OC([H])([H])c3c([H])c([H])c4c(nc(C([H])([H])N([H])C(=O)N5C([H])([H])C([H])([H])C([H])([H])C([H])(n6nc(-c7c([H])c([H])c(Oc8c([H])c([H])c(F)c([H])c8F)c([H])c7[H])c(C(=O)N([H])[H])c6N([H])[H])C5([H])[H])n4C([H])([H])[H])c3[H])c([H])c([H])c2C1([H])[H]

>  <smiles>  (15) 
[H]c1c([H])c([H])c2c(c1[H])C([H])([H])C([H])([H])C([H])([H])C2([H])N([H])C(=O)C1([H])N(C(=O)C([H])(N([H])C(=O)C([H])(N([H])C([H])([H])[H])C([H])([H])[H])C(C([H])([H])[H])(C([H])([H])[H])C([H])([H])[H])C([H])([H])c2c([H])c(OC([H])([H])c3c([H])c([H])c4c(nc(C([H])([H])N([H])C(=O)N5C([H])([H])C([H])([H])C([H])([H])C([H])(n6nc(-c7c([H])c([H])c(Oc8c([H])c([H])c(F)c([H])c8F)c([H])c7[H])c(C(=O)N([H])[H])c6N([H])[H])C5([H])[H])n4C([H])([H])[H])c3[H])c([H])c([H])c2C1([H])[H]

$$$$
15:0:0
     RDKit          3D

 92101  0  0  1  0  0  0  0  0999 V2000
  -28.5010  -22.6250   20.8220 C   0  0  0  0  0  3  0  0  0  0  0  0
  -29.0980  -21.4670   20.2460 C   0  0  0  0  0  0  0  0  0  0  0  0
  -28.7020  -23.9050   20.2280 C   0  0  0  0  0  0  0  0  0  0  0  0
  -29.9830  -22.8630   18.6360 C   0  0  0  0  0  0  0  0  0  0  0  0
  -30.8420  -22.9880   17.3980 C   0  0  0  0  0  1  0  0  0  0  0  0
  -29.8300  -21.6310   19.1300 N   0  0  0  0  0  0  0  0  0  0  0  0
  -29.4620  -23.9910   19.1180 N   0  0  0  0  0  0  0  0  0  0  0  0
  -30.7780  -14.6810   19.8620 C   0  0  0  0  0  0  0  0  0  0  0  0
  -30.3830  -12.4950   18.7580 C   0  0  0  0  0  2  0  0  0  0  0  0
  -29.3560  -12.6600   17.6200 C   0  0  0  0  0  2  0  0  0  0  0  0
  -27.9210  -12.5010   18.1590 C   0  0  0  0  0  2  0  0  0  0  0  0
  -27.6670  -13.3250   19.4520 C   0  0  0  0  0  3  0  0  0  0  0  0
  -28.8150  -13.1660   20.4700 C   0  0  0  0  0  2  0  0  0  0  0  0
  -30.0630  -13.5130   19.7810 N   0  0  0  0  0  0  0  0  0  0  0  0
  -31.9360  -14.7170   19.4310 O   0  0  0  0  0  0  0  0  0  0  0  0
  -29.1340  -18.7890   20.4510 C   0  0  0  0  0  0  0  0  0  0  0  0
  -28.9160  -20.0880   20.8560 C   0  0  0  0  0  3  0  0  0  0  0  0
  -28.7640  -17.5930   21.3410 C   0  0  0  0  0  2  0  0  0  0  0  0
  -29.6190  -18.2810   19.0930 C   0  0  0  0  0  2  0  0  0  0  0  0
  -29.8100  -16.4310   21.3540 C   0  0  0  0  0  2  0  0  0  0  0  0
  -30.5500  -17.0220   19.1580 C   0  0  0  0  0  2  0  0  0  0  0  0
  -30.1020  -15.8810   20.0140 N   0  0  0  0  0  0  0  0  0  0  0  0
  -25.3530  -13.8880   20.4070 C   0  0  0  0  0  0  0  0  0  0  0  0
  -24.3200  -13.1000   20.8380 C   0  0  0  0  0  0  0  0  0  0  0  0
  -24.7740  -11.7510   20.7150 C   0  0  0  0  0  0  0  0  0  0  0  0
  -26.3680  -13.0180   20.0470 N   0  0  0  0  0  0  0  0  0  0  0  0
  -26.0330  -11.7260   20.2940 N   0  0  0  0  0  0  0  0  0  0  0  0
  -24.0620  -10.4830   20.9190 C   0  0  0  0  0  0  0  0  0  0  0  0
  -24.5280   -9.5120   21.8320 C   0  0  0  0  0  3  0  0  0  0  0  0
  -23.8160   -8.3070   22.0240 C   0  0  0  0  0  3  0  0  0  0  0  0
  -22.6220   -8.0670   21.3040 C   0  0  0  0  0  0  0  0  0  0  0  0
  -22.1750   -9.0250   20.3760 C   0  0  0  0  0  3  0  0  0  0  0  0
  -22.8880  -10.2210   20.1830 C   0  0  0  0  0  3  0  0  0  0  0  0
  -21.8760   -6.9180   21.4060 O   0  0  0  0  0  0  0  0  0  0  0  0
  -21.8060   -6.2070   22.5770 C   0  0  0  0  0  0  0  0  0  0  0  0
  -21.3510   -6.7910   23.7800 C   0  0  0  0  0  3  0  0  0  0  0  0
  -21.2310   -6.0050   24.9440 C   0  0  0  0  0  3  0  0  0  0  0  0
  -21.5560   -4.6360   24.9050 C   0  0  0  0  0  0  0  0  0  0  0  0
  -22.0040   -4.0510   23.7080 C   0  0  0  0  0  3  0  0  0  0  0  0
  -22.1260   -4.8350   22.5470 C   0  0  0  0  0  0  0  0  0  0  0  0
  -22.5380   -4.2610   21.3910 F   0  0  0  0  0  0  0  0  0  0  0  0
  -21.4340   -3.8780   26.0210 F   0  0  0  0  0  0  0  0  0  0  0  0
  -22.9530  -13.5660   21.2460 C   0  0  0  0  0  0  0  0  0  0  0  0
  -22.2990  -12.8410   22.1460 N   0  0  0  0  0  0  0  0  0  0  0  0
  -22.4740  -14.6080   20.7990 O   0  0  0  0  0  0  0  0  0  0  0  0
  -22.7050  -12.0000   22.5310 H   0  0  0  0  0  0  0  0  0  0  0  0
  -21.3780  -13.1250   22.4500 H   0  0  0  0  0  0  0  0  0  0  0  0
  -25.5040  -15.2640   20.2720 N   0  0  0  0  0  0  0  0  0  0  0  0
  -24.7520  -15.9120   20.4760 H   0  0  0  0  0  0  0  0  0  0  0  0
  -26.3320  -15.7180   19.9060 H   0  0  0  0  0  0  0  0  0  0  0  0
  -28.0790  -25.2160   20.8140 C   0  0  0  0  0  2  0  0  0  0  0  0
  -28.3670  -26.5280   20.1940 O   0  0  0  0  0  0  0  0  0  0  0  0
  -24.6460  -31.8910   23.2280 C   0  0  0  0  0  0  0  0  0  0  0  0
  -27.2740  -27.3910   20.1500 C   0  0  0  0  0  0  0  0  0  0  0  0
  -23.4470  -30.4960   21.5800 C   0  0  0  0  0  3  0  0  0  0  0  0
  -24.9040  -28.9680   20.1380 C   0  0  0  0  0  0  0  0  0  0  0  0
  -25.9820  -30.8380   21.3950 C   0  0  0  0  0  2  0  0  0  0  0  0
  -26.0690  -29.4660   20.7400 C   0  0  0  0  0  0  0  0  0  0  0  0
  -27.2620  -28.6880   20.7390 C   0  0  0  0  0  3  0  0  0  0  0  0
  -26.0990  -26.9450   19.5090 C   0  0  0  0  0  3  0  0  0  0  0  0
  -24.9220  -27.7140   19.5080 C   0  0  0  0  0  3  0  0  0  0  0  0
  -23.6610  -29.8300   20.1950 C   0  0  0  0  0  2  0  0  0  0  0  0
  -24.7100  -31.0920   22.1240 N   0  0  0  0  0  0  0  0  0  0  0  0
  -23.5620  -32.1580   23.7670 O   0  0  0  0  0  0  0  0  0  0  0  0
  -22.7940  -29.4680   22.5350 C   0  0  0  0  0  0  0  0  0  0  0  0
  -21.4680  -29.2850   22.4090 N   0  0  0  0  0  0  0  0  0  0  0  0
  -23.4790  -28.8400   23.3480 O   0  0  0  0  0  0  0  0  0  0  0  0
  -20.9780  -29.8450   21.7270 H   0  0  0  0  0  0  0  0  0  0  0  0
  -18.0980  -28.0640   22.8930 C   0  0  0  0  0  0  0  0  0  0  0  0
  -20.6530  -28.3420   23.1750 C   0  0  0  0  0  3  0  0  0  0  0  0
  -20.7670  -26.9110   22.5990 C   0  0  0  0  0  2  0  0  0  0  0  0
  -19.6730  -26.5810   21.5810 C   0  0  0  0  0  2  0  0  0  0  0  0
  -18.2870  -26.7160   22.2180 C   0  0  0  0  0  2  0  0  0  0  0  0
  -19.2090  -28.8340   23.3280 C   0  0  0  0  0  0  0  0  0  0  0  0
  -18.9780  -30.0960   23.9190 C   0  0  0  0  0  3  0  0  0  0  0  0
  -17.6680  -30.5860   24.0790 C   0  0  0  0  0  3  0  0  0  0  0  0
  -16.5720  -29.8140   23.6600 C   0  0  0  0  0  3  0  0  0  0  0  0
  -16.7870  -28.5560   23.0720 C   0  0  0  0  0  3  0  0  0  0  0  0
  -25.9260  -32.5240   23.8520 C   0  0  0  0  0  3  0  0  0  0  0  0
  -25.6150  -33.9220   24.1810 N   0  0  0  0  0  0  0  0  0  0  0  0
  -25.9600  -34.9760   23.4290 C   0  0  0  0  0  0  0  0  0  0  0  0
  -26.6430  -34.8740   22.4080 O   0  0  0  0  0  0  0  0  0  0  0  0
  -25.0090  -34.0750   24.9740 H   0  0  0  0  0  0  0  0  0  0  0  0
  -24.2470  -36.7780   23.0480 C   0  0  0  0  0  1  0  0  0  0  0  0
  -25.4680  -36.3650   23.8840 C   0  0  0  0  0  3  0  0  0  0  0  0
  -27.5890  -37.2350   24.7640 C   0  0  0  0  0  1  0  0  0  0  0  0
  -26.5080  -37.4130   23.7990 N   0  0  0  0  0  0  0  0  0  0  0  0
  -26.1030  -38.3340   23.9420 H   0  0  0  0  0  0  0  0  0  0  0  0
  -26.4440  -31.7530   25.1280 C   0  0  1  0  0  0  0  0  0  0  0  0
  -25.3500  -31.5080   26.1940 C   0  0  0  0  0  1  0  0  0  0  0  0
  -27.0290  -30.3770   24.7340 C   0  0  0  0  0  1  0  0  0  0  0  0
  -27.5920  -32.5480   25.7900 C   0  0  0  0  0  1  0  0  0  0  0  0
  2  1  2  0
  2 17  1  0
  3 51  1  0
  3  1  1  0
  4  7  1  0
  4  6  2  0
  5  4  1  0
  6  2  1  0
  7  3  2  0
  8 22  1  0
  9 14  1  0
 10 11  1  0
 10  9  1  0
 12 11  1  0
 12 26  1  0
 12 13  1  0
 14  8  1  0
 14 13  1  0
 15  8  2  0
 16 17  2  0
 16 18  1  0
 18 20  1  0
 19 21  1  0
 19 16  1  0
 21 22  1  0
 22 20  1  0
 23 24  2  0
 24 43  1  0
 25 24  1  0
 25 28  1  0
 26 27  1  0
 26 23  1  0
 27 25  2  0
 28 29  1  0
 29 30  2  0
 31 34  1  0
 31 30  1  0
 32 31  2  0
 33 32  1  0
 33 28  2  0
 34 35  1  0
 35 36  1  0
 36 37  2  0
 38 37  1  0
 38 42  1  0
 39 38  2  0
 40 35  2  0
 40 39  1  0
 41 40  1  0
 43 44  1  0
 44 47  1  0
 44 46  1  0
 45 43  2  0
 48 23  1  0
 48 49  1  0
 50 48  1  0
 52 51  1  0
 53 64  2  0
 54 52  1  0
 54 59  1  0
 55 63  1  0
 55 65  1  0
 56 62  1  0
 56 58  1  0
 57 63  1  0
 58 57  1  0
 59 58  2  0
 60 54  2  0
 61 60  1  0
 61 56  2  0
 62 55  1  0
 63 53  1  0
 65 67  2  0
 66 65  1  0
 68 66  1  0
 69 78  2  0
 69 74  1  0
 70 66  1  0
 70 74  1  0
 71 70  1  0
 72 73  1  0
 72 71  1  0
 73 69  1  0
 74 75  2  0
 75 76  1  0
 77 76  2  0
 78 77  1  0
 79 53  1  0
 79 80  1  0
 79 89  1  0
 80 83  1  0
 81 85  1  0
 81 80  1  0
 82 81  2  0
 85 84  1  0
 87 85  1  0
 87 88  1  0
 87 86  1  0
 89 92  1  1
 89 90  1  0
 91 89  1  0
M  ISO  4   8 100  22 100  51 101  52 101
M  END
>  <TORSDO>  (16) 
F 17

>  <SCORE>  (16) 
-14.241

>  <name>  (16) 
15

>  <ligand_id>  (16) 
15

>  <original_smiles>  (16) 
[H]C(=C1C([H])([H])C([H])([H])N(C(=O)N2C([H])([H])C([H])([H])C([H])([H])C([H])(n3nc(-c4c([H])c([H])c(Oc5c([H])c([H])c(F)c([H])c5F)c([H])c4[H])c(C(=O)N([H])[H])c3N([H])[H])C2([H])[H])C([H])([H])C1([H])[H])c1nc(C([H])([H])[H])nc(C([H])([H])Oc2c([H])c([H])c3c(c2[H])C([H])([H])N(C(=O)C([H])(N([H])C(=O)C([H])(N([H])C([H])([H])[H])C([H])([H])[H])C(C([H])([H])[H])(C([H])([H])[H])C([H])([H])[H])C([H])(C(=O)N([H])C2([H])c4c([H])c([H])c([H])c([H])c4C([H])([H])C([H])([H])C2([H])[H])C3([H])[H])c1[H]

>  <smiles>  (16) 
[H]C(=C1C([H])([H])C([H])([H])N(C(=O)N2C([H])([H])C([H])([H])C([H])([H])C([H])(n3nc(-c4c([H])c([H])c(Oc5c([H])c([H])c(F)c([H])c5F)c([H])c4[H])c(C(=O)N([H])[H])c3N([H])[H])C2([H])[H])C([H])([H])C1([H])[H])c1nc(C([H])([H])[H])nc(C([H])([H])Oc2c([H])c([H])c3c(c2[H])C([H])([H])N(C(=O)C([H])(N([H])C(=O)C([H])(N([H])C([H])([H])[H])C([H])([H])[H])C(C([H])([H])[H])(C([H])([H])[H])C([H])([H])[H])C([H])(C(=O)N([H])C2([H])c4c([H])c([H])c([H])c([H])c4C([H])([H])C([H])([H])C2([H])[H])C3([H])[H])c1[H]

$$$$
16:0:0
     RDKit          3D

 90 99  0  0  1  0  0  0  0  0999 V2000
  -32.9580  -14.9990   20.9450 C   0  0  0  0  0  0  0  0  0  0  0  0
  -33.4110  -12.7390   22.1940 C   0  0  0  0  0  2  0  0  0  0  0  0
  -33.6650  -11.4680   21.3390 C   0  0  0  0  0  2  0  0  0  0  0  0
  -32.3310  -10.8180   20.9430 C   0  0  0  0  0  2  0  0  0  0  0  0
  -31.3150  -11.8720   20.4480 C   0  0  0  0  0  3  0  0  0  0  0  0
  -31.2090  -13.0900   21.3950 C   0  0  0  0  0  2  0  0  0  0  0  0
  -32.5420  -13.7050   21.4040 N   0  0  0  0  0  0  0  0  0  0  0  0
  -33.8550  -15.4290   21.6910 O   0  0  0  0  0  0  0  0  0  0  0  0
  -32.4980  -17.6600   17.4820 C   0  0  0  0  0  3  0  0  0  0  0  0
  -29.9360  -16.9870   17.5420 C   0  0  0  0  0  3  0  0  0  0  0  0
  -31.6450  -18.4810   16.4720 C   0  0  0  0  0  0  0  0  0  0  0  0
  -30.3020  -18.0530   16.6750 C   0  0  0  0  0  0  0  0  0  0  0  0
  -32.0570  -16.5700   18.5180 C   0  0  0  0  0  0  0  0  0  0  0  0
  -29.1750  -18.9600   16.2170 C   0  0  0  0  0  2  0  0  0  0  0  0
  -29.5050  -20.3600   16.7360 C   0  0  0  0  0  2  0  0  0  0  0  0
  -30.7020  -20.9850   15.9680 C   0  0  0  0  0  2  0  0  0  0  0  0
  -31.8250  -19.9470   15.4600 C   0  0  0  0  0  3  0  0  0  0  0  0
  -30.7350  -16.3170   18.4150 N   0  0  0  0  0  0  0  0  0  0  0  0
  -32.8720  -15.6120   19.5600 N   0  0  0  0  0  0  0  0  0  0  0  0
  -33.8430  -15.8050   19.3610 H   0  0  0  0  0  0  0  0  0  0  0  0
  -29.5980  -10.8280   18.8880 C   0  0  0  0  0  0  0  0  0  0  0  0
  -28.3700  -10.2830   19.0940 C   0  0  0  0  0  0  0  0  0  0  0  0
  -28.0820  -10.4620   20.4860 C   0  0  0  0  0  0  0  0  0  0  0  0
  -30.0230  -11.2960   20.1190 N   0  0  0  0  0  0  0  0  0  0  0  0
  -29.0700  -11.1330   21.0730 N   0  0  0  0  0  0  0  0  0  0  0  0
  -26.9660   -9.9710   21.3000 C   0  0  0  0  0  0  0  0  0  0  0  0
  -25.6830  -10.5540   21.2120 C   0  0  0  0  0  3  0  0  0  0  0  0
  -24.6110  -10.0540   21.9840 C   0  0  0  0  0  3  0  0  0  0  0  0
  -24.8190   -8.9590   22.8580 C   0  0  0  0  0  0  0  0  0  0  0  0
  -26.1040   -8.3940   22.9590 C   0  0  0  0  0  3  0  0  0  0  0  0
  -27.1680   -8.8960   22.1920 C   0  0  0  0  0  3  0  0  0  0  0  0
  -23.8470   -8.4230   23.6640 O   0  0  0  0  0  0  0  0  0  0  0  0
  -22.9990   -7.4420   23.2170 C   0  0  0  0  0  0  0  0  0  0  0  0
  -23.4840   -6.2360   22.6660 C   0  0  0  0  0  3  0  0  0  0  0  0
  -22.5820   -5.2230   22.2850 C   0  0  0  0  0  3  0  0  0  0  0  0
  -21.2000   -5.4120   22.4610 C   0  0  0  0  0  0  0  0  0  0  0  0
  -20.7140   -6.6090   23.0100 C   0  0  0  0  0  3  0  0  0  0  0  0
  -21.6120   -7.6200   23.3900 C   0  0  0  0  0  0  0  0  0  0  0  0
  -21.1410   -8.7660   23.9410 F   0  0  0  0  0  0  0  0  0  0  0  0
  -20.3340   -4.4360   22.0970 F   0  0  0  0  0  0  0  0  0  0  0  0
  -27.5390   -9.5480   18.0830 C   0  0  0  0  0  0  0  0  0  0  0  0
  -26.2900   -9.2530   18.4090 N   0  0  0  0  0  0  0  0  0  0  0  0
  -27.9900   -9.2790   16.9680 O   0  0  0  0  0  0  0  0  0  0  0  0
  -25.9160   -9.5000   19.3130 H   0  0  0  0  0  0  0  0  0  0  0  0
  -25.6910   -8.7820   17.7440 H   0  0  0  0  0  0  0  0  0  0  0  0
  -30.4090  -10.9410   17.7590 N   0  0  0  0  0  0  0  0  0  0  0  0
  -30.1260  -10.5780   16.8560 H   0  0  0  0  0  0  0  0  0  0  0  0
  -31.3360  -11.3450   17.7510 H   0  0  0  0  0  0  0  0  0  0  0  0
  -31.9560  -20.2720   13.6530 C   0  0  0  0  0  2  0  0  0  0  0  0
  -32.6080  -21.5130   12.7400 O   0  0  0  0  0  0  0  0  0  0  0  0
  -37.3100  -27.3150   12.4260 C   0  0  0  0  0  0  0  0  0  0  0  0
  -32.9440  -22.9180   13.1240 C   0  0  0  0  0  0  0  0  0  0  0  0
  -35.9940  -26.9890   14.4830 C   0  0  0  0  0  3  0  0  0  0  0  0
  -33.9000  -25.4750   14.2770 C   0  0  0  0  0  0  0  0  0  0  0  0
  -34.9870  -26.3080   12.2070 C   0  0  0  0  0  2  0  0  0  0  0  0
  -34.1410  -25.2160   12.9240 C   0  0  0  0  0  0  0  0  0  0  0  0
  -33.6470  -23.9650   12.3450 C   0  0  0  0  0  3  0  0  0  0  0  0
  -32.6330  -23.3620   14.4300 C   0  0  0  0  0  3  0  0  0  0  0  0
  -33.1050  -24.5730   15.0010 C   0  0  0  0  0  3  0  0  0  0  0  0
  -34.5270  -26.7100   14.9250 C   0  0  0  0  0  2  0  0  0  0  0  0
  -36.1400  -26.8760   12.9930 N   0  0  0  0  0  0  0  0  0  0  0  0
  -38.2280  -27.7910   13.1110 O   0  0  0  0  0  0  0  0  0  0  0  0
  -36.9550  -26.0520   15.2600 C   0  0  0  0  0  0  0  0  0  0  0  0
  -36.6760  -25.8070   16.5530 N   0  0  0  0  0  0  0  0  0  0  0  0
  -37.9230  -25.5430   14.6880 O   0  0  0  0  0  0  0  0  0  0  0  0
  -35.8770  -26.2670   16.9660 H   0  0  0  0  0  0  0  0  0  0  0  0
  -36.6600  -24.1950   19.7990 C   0  0  0  0  0  0  0  0  0  0  0  0
  -37.4280  -24.9080   17.4350 C   0  0  0  0  0  3  0  0  0  0  0  0
  -37.2170  -23.4300   17.0350 C   0  0  0  0  0  2  0  0  0  0  0  0
  -36.0720  -22.7560   17.7980 C   0  0  0  0  0  2  0  0  0  0  0  0
  -36.3440  -22.7910   19.3060 C   0  0  0  0  0  2  0  0  0  0  0  0
  -37.1520  -25.1930   18.9170 C   0  0  0  0  0  0  0  0  0  0  0  0
  -37.3990  -26.4890   19.4190 C   0  0  0  0  0  3  0  0  0  0  0  0
  -37.1610  -26.7970   20.7720 C   0  0  0  0  0  3  0  0  0  0  0  0
  -36.6870  -25.8040   21.6440 C   0  0  0  0  0  3  0  0  0  0  0  0
  -36.4450  -24.5030   21.1590 C   0  0  0  0  0  3  0  0  0  0  0  0
  -37.5440  -27.2590   10.8860 C   0  0  0  0  0  3  0  0  0  0  0  0
  -38.1790  -28.5250   10.4720 N   0  0  0  0  0  0  0  0  0  0  0  0
  -37.5950  -29.4640    9.7160 C   0  0  0  0  0  0  0  0  0  0  0  0
  -36.4650  -29.3280    9.2400 O   0  0  0  0  0  0  0  0  0  0  0  0
  -39.0920  -28.7200   10.8570 H   0  0  0  0  0  0  0  0  0  0  0  0
  -37.7200  -31.9350   10.1800 C   0  0  0  0  0  1  0  0  0  0  0  0
  -38.3870  -30.7590    9.4440 C   0  0  0  0  0  3  0  0  0  0  0  0
  -39.3880  -30.1590    7.2810 C   0  0  0  0  0  1  0  0  0  0  0  0
  -38.5180  -31.0850    8.0060 N   0  0  0  0  0  0  0  0  0  0  0  0
  -38.8850  -32.0250    7.8800 H   0  0  0  0  0  0  0  0  0  0  0  0
  -38.4360  -26.0340   10.4380 C   0  0  1  0  0  0  0  0  0  0  0  0
  -39.8400  -26.0210   11.0850 C   0  0  0  0  0  1  0  0  0  0  0  0
  -37.7530  -24.6940   10.7840 C   0  0  0  0  0  1  0  0  0  0  0  0
  -38.6140  -26.0440    8.9010 C   0  0  0  0  0  1  0  0  0  0  0  0
  1  7  1  0
  1  8  2  0
  3  2  1  0
  4  3  1  0
  5 24  1  0
  5  4  1  0
  5  6  1  0
  6  7  1  0
  7  2  1  0
  9 13  1  0
 10 18  1  0
 11 12  1  0
 11  9  2  0
 12 10  2  0
 13 19  1  0
 14 12  1  0
 14 15  1  0
 16 15  1  0
 17 49  1  0
 17 16  1  0
 17 11  1  0
 18 13  2  0
 19  1  1  0
 20 19  1  0
 21 22  2  0
 21 24  1  0
 22 23  1  0
 23 25  2  0
 23 26  1  0
 24 25  1  0
 26 31  1  0
 27 26  2  0
 27 28  1  0
 28 29  2  0
 29 30  1  0
 29 32  1  0
 31 30  2  0
 33 38  1  0
 33 32  1  0
 34 33  2  0
 35 36  2  0
 35 34  1  0
 36 37  1  0
 37 38  2  0
 38 39  1  0
 40 36  1  0
 41 42  1  0
 41 22  1  0
 42 44  1  0
 43 41  2  0
 45 42  1  0
 46 21  1  0
 47 46  1  0
 48 46  1  0
 50 52  1  0
 50 49  1  0
 51 61  1  0
 51 62  2  0
 52 58  1  0
 53 60  1  0
 53 63  1  0
 54 60  1  0
 54 59  1  0
 55 56  1  0
 55 61  1  0
 56 54  2  0
 57 56  1  0
 57 52  2  0
 58 59  2  0
 61 53  1  0
 63 64  1  0
 64 66  1  0
 65 63  2  0
 67 76  1  0
 68 64  1  0
 68 72  1  0
 69 68  1  0
 69 70  1  0
 70 71  1  0
 71 67  1  0
 72 73  1  0
 72 67  2  0
 73 74  2  0
 74 75  1  0
 76 75  2  0
 77 51  1  0
 78 81  1  0
 78 77  1  0
 79 78  1  0
 80 79  2  0
 83 79  1  0
 83 82  1  0
 84 85  1  0
 85 83  1  0
 86 85  1  0
 87 89  1  6
 87 77  1  0
 87 88  1  0
 90 87  1  0
M  ISO  4   1 100  19 100  49 101  50 101
M  END
>  <TORSDO>  (17) 
F 16

>  <SCORE>  (17) 
7.093

>  <name>  (17) 
16

>  <ligand_id>  (17) 
16

>  <original_smiles>  (17) 
[H]c1nc(N([H])C(=O)N2C([H])([H])C([H])([H])C([H])([H])C([H])(n3nc(-c4c([H])c([H])c(Oc5c([H])c([H])c(F)c([H])c5F)c([H])c4[H])c(C(=O)N([H])[H])c3N([H])[H])C2([H])[H])c([H])c2c1C([H])([H])C([H])([H])C([H])([H])C2([H])C([H])([H])Oc1c([H])c([H])c2c(c1[H])C([H])([H])N(C(=O)C([H])(N([H])C(=O)C([H])(N([H])C([H])([H])[H])C([H])([H])[H])C(C([H])([H])[H])(C([H])([H])[H])C([H])([H])[H])C([H])(C(=O)N([H])C1([H])c3c([H])c([H])c([H])c([H])c3C([H])([H])C([H])([H])C1([H])[H])C2([H])[H]

>  <smiles>  (17) 
[H]c1nc(N([H])C(=O)N2C([H])([H])C([H])([H])C([H])([H])C([H])(n3nc(-c4c([H])c([H])c(Oc5c([H])c([H])c(F)c([H])c5F)c([H])c4[H])c(C(=O)N([H])[H])c3N([H])[H])C2([H])[H])c([H])c2c1C([H])([H])C([H])([H])C([H])([H])C2([H])C([H])([H])Oc1c([H])c([H])c2c(c1[H])C([H])([H])N(C(=O)C([H])(N([H])C(=O)C([H])(N([H])C([H])([H])[H])C([H])([H])[H])C(C([H])([H])[H])(C([H])([H])[H])C([H])([H])[H])C([H])(C(=O)N([H])C1([H])c3c([H])c([H])c([H])c([H])c3C([H])([H])C([H])([H])C1([H])[H])C2([H])[H]

$$$$
17:0:0
     RDKit          3D

 90 98  0  0  1  0  0  0  0  0999 V2000
  -27.9280  -21.3260   18.7200 C   0  0  0  0  0  0  0  0  0  0  0  0
  -28.5130  -19.0360   18.7950 C   0  0  0  0  0  0  0  0  0  0  0  0
  -28.7040  -21.6590   19.8720 C   0  0  0  0  0  0  0  0  0  0  0  0
  -29.2680  -19.1740   19.9890 C   0  0  0  0  0  0  0  0  0  0  0  0
  -27.1350  -22.3390   17.9110 C   0  0  0  0  0  1  0  0  0  0  0  0
  -28.4580  -17.7310   18.0180 C   0  0  0  0  0  1  0  0  0  0  0  0
  -27.8500  -20.0660   18.2150 N   0  0  0  0  0  0  0  0  0  0  0  0
  -29.3520  -20.5250   20.4840 N   0  0  0  0  0  0  0  0  0  0  0  0
  -28.9210  -23.2610   20.3430 C   0  0  0  0  0  3  0  0  0  0  0  0
  -27.9680  -24.6530   20.0200 C   0  0  0  0  0  3  0  0  0  0  0  0
  -28.2360  -26.1830   20.3080 O   0  0  0  0  0  0  0  0  0  0  0  0
  -24.6530  -31.9430   23.3070 C   0  0  0  0  0  0  0  0  0  0  0  0
  -27.2010  -27.2000   20.2440 C   0  0  0  0  0  0  0  0  0  0  0  0
  -23.4470  -30.5590   21.6650 C   0  0  0  0  0  3  0  0  0  0  0  0
  -24.8870  -28.9800   20.2290 C   0  0  0  0  0  0  0  0  0  0  0  0
  -26.0060  -30.8030   21.5010 C   0  0  0  0  0  2  0  0  0  0  0  0
  -26.0700  -29.4100   20.8430 C   0  0  0  0  0  0  0  0  0  0  0  0
  -27.2270  -28.5350   20.8370 C   0  0  0  0  0  3  0  0  0  0  0  0
  -25.9910  -26.8830   19.5920 C   0  0  0  0  0  3  0  0  0  0  0  0
  -24.8610  -27.7330   19.5880 C   0  0  0  0  0  3  0  0  0  0  0  0
  -23.6620  -29.8840   20.2840 C   0  0  0  0  0  2  0  0  0  0  0  0
  -24.7230  -31.1250   22.2100 N   0  0  0  0  0  0  0  0  0  0  0  0
  -23.5670  -32.2250   23.8380 O   0  0  0  0  0  0  0  0  0  0  0  0
  -22.7650  -29.5490   22.6230 C   0  0  0  0  0  0  0  0  0  0  0  0
  -21.4400  -29.3650   22.4820 N   0  0  0  0  0  0  0  0  0  0  0  0
  -23.4340  -28.9310   23.4570 O   0  0  0  0  0  0  0  0  0  0  0  0
  -20.9610  -29.9130   21.7820 H   0  0  0  0  0  0  0  0  0  0  0  0
  -18.0650  -28.1270   22.9490 C   0  0  0  0  0  0  0  0  0  0  0  0
  -20.6170  -28.4230   23.2480 C   0  0  0  0  0  3  0  0  0  0  0  0
  -20.7440  -26.9880   22.6840 C   0  0  0  0  0  2  0  0  0  0  0  0
  -19.6600  -26.6450   21.6580 C   0  0  0  0  0  2  0  0  0  0  0  0
  -18.2690  -26.7760   22.2840 C   0  0  0  0  0  2  0  0  0  0  0  0
  -19.1680  -28.9070   23.3880 C   0  0  0  0  0  0  0  0  0  0  0  0
  -18.9240  -30.1690   23.9710 C   0  0  0  0  0  3  0  0  0  0  0  0
  -17.6090  -30.6510   24.1220 C   0  0  0  0  0  3  0  0  0  0  0  0
  -16.5210  -29.8670   23.7010 C   0  0  0  0  0  3  0  0  0  0  0  0
  -16.7500  -28.6080   23.1180 C   0  0  0  0  0  3  0  0  0  0  0  0
  -25.9280  -32.5770   23.9380 C   0  0  0  0  0  3  0  0  0  0  0  0
  -26.4150  -31.8240   25.2370 C   0  0  1  0  0  0  0  0  0  0  0  0
  -25.3010  -31.6130   26.2920 C   0  0  0  0  0  1  0  0  0  0  0  0
  -26.9920  -30.4340   24.8840 C   0  0  0  0  0  1  0  0  0  0  0  0
  -27.5720  -32.6120   25.8970 C   0  0  0  0  0  1  0  0  0  0  0  0
  -25.6270  -33.9840   24.2460 N   0  0  0  0  0  0  0  0  0  0  0  0
  -25.9830  -35.0270   23.4880 C   0  0  0  0  0  0  0  0  0  0  0  0
  -26.6680  -34.9080   22.4690 O   0  0  0  0  0  0  0  0  0  0  0  0
  -25.0200  -34.1500   25.0360 H   0  0  0  0  0  0  0  0  0  0  0  0
  -24.2970  -36.8530   23.0900 C   0  0  0  0  0  1  0  0  0  0  0  0
  -25.5100  -36.4270   23.9310 C   0  0  0  0  0  3  0  0  0  0  0  0
  -27.6350  -37.2830   24.8150 C   0  0  0  0  0  1  0  0  0  0  0  0
  -26.5620  -37.4630   23.8400 N   0  0  0  0  0  0  0  0  0  0  0  0
  -26.1680  -38.3910   23.9670 H   0  0  0  0  0  0  0  0  0  0  0  0
  -30.1000  -17.8540   20.5910 C   0  0  0  0  0  2  0  0  0  0  0  0
  -30.5470  -15.1080   20.4550 C   0  0  0  0  0  0  0  0  0  0  0  0
  -30.4780  -12.7420   19.5330 C   0  0  0  0  0  2  0  0  0  0  0  0
  -29.5750  -12.6790   18.2810 C   0  0  0  0  0  2  0  0  0  0  0  0
  -28.0990  -12.4730   18.6720 C   0  0  0  0  0  2  0  0  0  0  0  0
  -27.6590  -13.3730   19.8560 C   0  0  0  0  0  3  0  0  0  0  0  0
  -28.6970  -13.4080   20.9980 C   0  0  0  0  0  2  0  0  0  0  0  0
  -29.9670  -13.8410   20.4020 N   0  0  0  0  0  0  0  0  0  0  0  0
  -31.7660  -15.1710   20.2590 O   0  0  0  0  0  0  0  0  0  0  0  0
  -29.7540  -16.2960   20.5150 N   0  0  0  0  0  0  0  0  0  0  0  0
  -28.7670  -16.1030   20.5900 H   0  0  0  0  0  0  0  0  0  0  0  0
  -25.2610  -13.9060   20.5530 C   0  0  0  0  0  0  0  0  0  0  0  0
  -24.2040  -13.1120   20.9050 C   0  0  0  0  0  0  0  0  0  0  0  0
  -24.6930  -11.7700   20.8890 C   0  0  0  0  0  0  0  0  0  0  0  0
  -26.3230  -13.0450   20.3340 N   0  0  0  0  0  0  0  0  0  0  0  0
  -25.9910  -11.7560   20.6040 N   0  0  0  0  0  0  0  0  0  0  0  0
  -23.9830  -10.4980   21.0640 C   0  0  0  0  0  0  0  0  0  0  0  0
  -24.4010   -9.5430   22.0160 C   0  0  0  0  0  3  0  0  0  0  0  0
  -23.6900   -8.3350   22.1760 C   0  0  0  0  0  3  0  0  0  0  0  0
  -22.5440   -8.0740   21.3890 C   0  0  0  0  0  0  0  0  0  0  0  0
  -22.1490   -9.0170   20.4230 C   0  0  0  0  0  3  0  0  0  0  0  0
  -22.8620  -10.2150   20.2590 C   0  0  0  0  0  3  0  0  0  0  0  0
  -21.7990   -6.9220   21.4650 O   0  0  0  0  0  0  0  0  0  0  0  0
  -21.7100   -6.1970   22.6260 C   0  0  0  0  0  0  0  0  0  0  0  0
  -21.1940   -6.7550   23.8170 C   0  0  0  0  0  3  0  0  0  0  0  0
  -21.0580   -5.9530   24.9680 C   0  0  0  0  0  3  0  0  0  0  0  0
  -21.4220   -4.5940   24.9270 C   0  0  0  0  0  0  0  0  0  0  0  0
  -21.9300   -4.0350   23.7420 C   0  0  0  0  0  3  0  0  0  0  0  0
  -22.0690   -4.8340   22.5930 C   0  0  0  0  0  0  0  0  0  0  0  0
  -22.5380   -4.2860   21.4470 F   0  0  0  0  0  0  0  0  0  0  0  0
  -21.2830   -3.8210   26.0300 F   0  0  0  0  0  0  0  0  0  0  0  0
  -22.7940  -13.5650   21.1420 C   0  0  0  0  0  0  0  0  0  0  0  0
  -22.0540  -12.8480   21.9830 N   0  0  0  0  0  0  0  0  0  0  0  0
  -22.3560  -14.5870   20.6160 O   0  0  0  0  0  0  0  0  0  0  0  0
  -22.4240  -12.0230   22.4340 H   0  0  0  0  0  0  0  0  0  0  0  0
  -21.1020  -13.1220   22.1760 H   0  0  0  0  0  0  0  0  0  0  0  0
  -25.4060  -15.2790   20.3730 N   0  0  0  0  0  0  0  0  0  0  0  0
  -24.6310  -15.9270   20.4570 H   0  0  0  0  0  0  0  0  0  0  0  0
  -26.2480  -15.7210   20.0310 H   0  0  0  0  0  0  0  0  0  0  0  0
  1  3  1  0
  2  4  2  0
  3  9  1  0
  3  8  2  0
  4  8  1  0
  4 52  1  0
  5  1  1  0
  6  2  1  0
  7  1  2  0
  7  2  1  0
 10 11  1  0
 10  9  2  0
 12 23  2  0
 13 11  1  0
 13 18  1  0
 14 22  1  0
 14 24  1  0
 15 21  1  0
 15 17  1  0
 16 22  1  0
 17 16  1  0
 18 17  2  0
 19 13  2  0
 20 19  1  0
 20 15  2  0
 21 14  1  0
 22 12  1  0
 24 26  2  0
 25 24  1  0
 27 25  1  0
 28 37  2  0
 28 33  1  0
 29 25  1  0
 29 33  1  0
 30 29  1  0
 31 32  1  0
 31 30  1  0
 32 28  1  0
 33 34  2  0
 34 35  1  0
 36 35  2  0
 37 36  1  0
 38 12  1  0
 38 43  1  0
 38 39  1  0
 39 42  1  1
 39 40  1  0
 41 39  1  0
 43 46  1  0
 44 48  1  0
 44 43  1  0
 45 44  2  0
 48 47  1  0
 50 48  1  0
 50 51  1  0
 50 49  1  0
 53 61  1  0
 54 59  1  0
 55 56  1  0
 55 54  1  0
 57 56  1  0
 57 66  1  0
 57 58  1  0
 59 53  1  0
 59 58  1  0
 60 53  2  0
 61 62  1  0
 61 52  1  0
 63 64  2  0
 64 83  1  0
 65 64  1  0
 65 68  1  0
 66 63  1  0
 66 67  1  0
 67 65  2  0
 68 69  1  0
 69 70  2  0
 71 74  1  0
 71 70  1  0
 72 71  2  0
 73 72  1  0
 73 68  2  0
 74 75  1  0
 75 76  1  0
 76 77  2  0
 78 77  1  0
 78 82  1  0
 79 78  2  0
 80 75  2  0
 80 79  1  0
 81 80  1  0
 83 84  1  0
 84 87  1  0
 84 86  1  0
 85 83  2  0
 88 89  1  0
 88 63  1  0
 90 88  1  0
M  ISO  4  10 101  11 101  53 100  61 100
M  END
>  <TORSDO>  (18) 
F 19

>  <SCORE>  (18) 
-14.999

>  <name>  (18) 
17

>  <ligand_id>  (18) 
17

>  <original_smiles>  (18) 
[H]c1c([H])c([H])c2c(c1[H])C([H])([H])C([H])([H])C([H])([H])C2([H])N([H])C(=O)C1([H])N(C(=O)C([H])(N([H])C(=O)C([H])(N([H])C([H])([H])[H])C([H])([H])[H])C(C([H])([H])[H])(C([H])([H])[H])C([H])([H])[H])C([H])([H])c2c([H])c(OC([H])([H])C([H])([H])c3nc(C([H])([H])N([H])C(=O)N4C([H])([H])C([H])([H])C([H])([H])C([H])(n5nc(-c6c([H])c([H])c(Oc7c([H])c([H])c(F)c([H])c7F)c([H])c6[H])c(C(=O)N([H])[H])c5N([H])[H])C4([H])[H])c(C([H])([H])[H])nc3C([H])([H])[H])c([H])c([H])c2C1([H])[H]

>  <smiles>  (18) 
[H]c1c([H])c([H])c2c(c1[H])C([H])([H])C([H])([H])C([H])([H])C2([H])N([H])C(=O)C1([H])N(C(=O)C([H])(N([H])C(=O)C([H])(N([H])C([H])([H])[H])C([H])([H])[H])C(C([H])([H])[H])(C([H])([H])[H])C([H])([H])[H])C([H])([H])c2c([H])c(OC([H])([H])C([H])([H])c3nc(C([H])([H])N([H])C(=O)N4C([H])([H])C([H])([H])C([H])([H])C([H])(n5nc(-c6c([H])c([H])c(Oc7c([H])c([H])c(F)c([H])c7F)c([H])c6[H])c(C(=O)N([H])[H])c5N([H])[H])C4([H])[H])c(C([H])([H])[H])nc3C([H])([H])[H])c([H])c([H])c2C1([H])[H]

$$$$
18:0:0
     RDKit          3D

 95104  0  0  1  0  0  0  0  0999 V2000
  -29.3820  -22.5360   20.6340 C   0  0  0  0  0  0  0  0  0  0  0  0
  -28.5410  -23.6870   20.2920 C   0  0  0  0  0  0  0  0  0  0  0  0
  -29.1550  -21.2670   19.9610 C   0  0  0  0  0  0  0  0  0  0  0  0
  -27.4620  -22.2970   18.7950 C   0  0  0  0  0  0  0  0  0  0  0  0
  -26.3570  -22.1500   17.7700 C   0  0  0  0  0  1  0  0  0  0  0  0
  -27.5960  -23.5010   19.3480 N   0  0  0  0  0  0  0  0  0  0  0  0
  -28.1710  -21.2000   19.0550 N   0  0  0  0  0  0  0  0  0  0  0  0
  -29.9250  -20.0490   20.1450 N   0  0  0  0  0  0  0  0  0  0  0  0
  -30.6960  -20.1680   20.7890 H   0  0  0  0  0  0  0  0  0  0  0  0
  -30.8840  -14.9000   19.8800 C   0  0  0  0  0  0  0  0  0  0  0  0
  -30.6350  -12.6110   18.8740 C   0  0  0  0  0  2  0  0  0  0  0  0
  -29.6190  -12.6270   17.7110 C   0  0  0  0  0  2  0  0  0  0  0  0
  -28.1830  -12.4260   18.2330 C   0  0  0  0  0  2  0  0  0  0  0  0
  -27.8700  -13.3180   19.4630 C   0  0  0  0  0  3  0  0  0  0  0  0
  -29.0020  -13.2480   20.5120 C   0  0  0  0  0  2  0  0  0  0  0  0
  -30.2350  -13.6730   19.8360 N   0  0  0  0  0  0  0  0  0  0  0  0
  -32.0420  -14.9520   19.4500 O   0  0  0  0  0  0  0  0  0  0  0  0
  -28.8920  -17.9380   21.1200 C   0  0  0  0  0  2  0  0  0  0  0  0
  -29.0650  -16.3970   20.9710 C   0  0  0  0  0  2  0  0  0  0  0  0
  -30.6370  -17.4900   19.6070 C   0  0  0  0  0  2  0  0  0  0  0  0
  -29.5240  -18.6020   19.8950 C   0  0  0  0  0  3  0  0  0  0  0  0
  -30.1900  -16.1130   20.0670 N   0  0  0  0  0  0  0  0  0  0  0  0
  -25.5390  -13.8880   20.3730 C   0  0  0  0  0  0  0  0  0  0  0  0
  -24.5030  -13.1030   20.7970 C   0  0  0  0  0  0  0  0  0  0  0  0
  -24.9590  -11.7550   20.6870 C   0  0  0  0  0  0  0  0  0  0  0  0
  -26.5640  -13.0170   20.0380 N   0  0  0  0  0  0  0  0  0  0  0  0
  -26.2260  -11.7260   20.2900 N   0  0  0  0  0  0  0  0  0  0  0  0
  -24.2430  -10.4890   20.8820 C   0  0  0  0  0  0  0  0  0  0  0  0
  -24.6390   -9.5600   21.8690 C   0  0  0  0  0  3  0  0  0  0  0  0
  -23.9200   -8.3590   22.0500 C   0  0  0  0  0  3  0  0  0  0  0  0
  -22.7920   -8.0780   21.2440 C   0  0  0  0  0  0  0  0  0  0  0  0
  -22.4160   -8.9950   20.2470 C   0  0  0  0  0  3  0  0  0  0  0  0
  -23.1350  -10.1880   20.0640 C   0  0  0  0  0  3  0  0  0  0  0  0
  -22.0490   -6.9260   21.3310 O   0  0  0  0  0  0  0  0  0  0  0  0
  -21.8230   -6.3060   22.5340 C   0  0  0  0  0  0  0  0  0  0  0  0
  -21.1390   -6.9510   23.5870 C   0  0  0  0  0  3  0  0  0  0  0  0
  -20.8650   -6.2530   24.7800 C   0  0  0  0  0  3  0  0  0  0  0  0
  -21.2650   -4.9110   24.9190 C   0  0  0  0  0  0  0  0  0  0  0  0
  -21.9400   -4.2650   23.8690 C   0  0  0  0  0  3  0  0  0  0  0  0
  -22.2140   -4.9600   22.6780 C   0  0  0  0  0  0  0  0  0  0  0  0
  -22.8470   -4.3260   21.6610 F   0  0  0  0  0  0  0  0  0  0  0  0
  -20.9960   -4.2380   26.0630 F   0  0  0  0  0  0  0  0  0  0  0  0
  -23.1300  -13.5740   21.1820 C   0  0  0  0  0  0  0  0  0  0  0  0
  -22.4600  -12.8460   22.0670 N   0  0  0  0  0  0  0  0  0  0  0  0
  -22.6660  -14.6220   20.7350 O   0  0  0  0  0  0  0  0  0  0  0  0
  -22.8530  -12.0000   22.4500 H   0  0  0  0  0  0  0  0  0  0  0  0
  -21.5410  -13.1420   22.3650 H   0  0  0  0  0  0  0  0  0  0  0  0
  -25.6790  -15.2630   20.2190 N   0  0  0  0  0  0  0  0  0  0  0  0
  -24.9120  -15.9000   20.3990 H   0  0  0  0  0  0  0  0  0  0  0  0
  -26.4840  -15.7170   19.8060 H   0  0  0  0  0  0  0  0  0  0  0  0
  -31.8890  -22.3970   21.1640 C   0  0  0  0  0  1  0  0  0  0  0  0
  -30.1640  -21.8230   22.9660 C   0  0  0  0  0  1  0  0  0  0  0  0
  -30.4730  -22.6570   21.7120 C   0  0  0  0  0  3  0  0  0  0  0  0
  -28.4510  -25.1110   21.0440 C   0  0  0  0  0  2  0  0  0  0  0  0
  -28.5390  -26.4400   20.3480 O   0  0  0  0  0  0  0  0  0  0  0  0
  -24.6660  -31.8840   23.2760 C   0  0  0  0  0  0  0  0  0  0  0  0
  -27.4210  -27.3000   20.3490 C   0  0  0  0  0  0  0  0  0  0  0  0
  -23.5290  -30.4540   21.6160 C   0  0  0  0  0  3  0  0  0  0  0  0
  -25.0410  -28.9010   20.2520 C   0  0  0  0  0  0  0  0  0  0  0  0
  -26.0700  -30.8000   21.4990 C   0  0  0  0  0  2  0  0  0  0  0  0
  -26.1890  -29.4090   20.8740 C   0  0  0  0  0  0  0  0  0  0  0  0
  -27.3860  -28.6220   20.9060 C   0  0  0  0  0  3  0  0  0  0  0  0
  -26.2510  -26.8480   19.7090 C   0  0  0  0  0  3  0  0  0  0  0  0
  -25.0760  -27.6270   19.6590 C   0  0  0  0  0  3  0  0  0  0  0  0
  -23.7930  -29.7630   20.2520 C   0  0  0  0  0  2  0  0  0  0  0  0
  -24.7730  -31.0650   22.1870 N   0  0  0  0  0  0  0  0  0  0  0  0
  -23.5640  -32.1500   23.7780 O   0  0  0  0  0  0  0  0  0  0  0  0
  -22.8490  -29.4410   22.5680 C   0  0  0  0  0  0  0  0  0  0  0  0
  -21.5340  -29.2300   22.3950 N   0  0  0  0  0  0  0  0  0  0  0  0
  -23.5100  -28.8450   23.4240 O   0  0  0  0  0  0  0  0  0  0  0  0
  -21.0580  -29.7640   21.6800 H   0  0  0  0  0  0  0  0  0  0  0  0
  -18.1780  -27.9260   22.7570 C   0  0  0  0  0  0  0  0  0  0  0  0
  -20.7090  -28.2850   23.1500 C   0  0  0  0  0  3  0  0  0  0  0  0
  -20.8890  -26.8430   22.6200 C   0  0  0  0  0  2  0  0  0  0  0  0
  -19.8530  -26.4550   21.5600 C   0  0  0  0  0  2  0  0  0  0  0  0
  -18.4360  -26.5670   22.1280 C   0  0  0  0  0  2  0  0  0  0  0  0
  -19.2460  -28.7390   23.2220 C   0  0  0  0  0  0  0  0  0  0  0  0
  -18.9520  -30.0080   23.7670 C   0  0  0  0  0  3  0  0  0  0  0  0
  -17.6240  -30.4660   23.8520 C   0  0  0  0  0  3  0  0  0  0  0  0
  -16.5700  -29.6500   23.4050 C   0  0  0  0  0  3  0  0  0  0  0  0
  -16.8470  -28.3830   22.8630 C   0  0  0  0  0  3  0  0  0  0  0  0
  -25.9200  -32.5430   23.9280 C   0  0  0  0  0  3  0  0  0  0  0  0
  -25.5800  -33.9400   24.2400 N   0  0  0  0  0  0  0  0  0  0  0  0
  -25.8960  -34.9910   23.4720 C   0  0  0  0  0  0  0  0  0  0  0  0
  -26.5730  -34.8890   22.4440 O   0  0  0  0  0  0  0  0  0  0  0  0
  -24.9810  -34.0920   25.0380 H   0  0  0  0  0  0  0  0  0  0  0  0
  -24.1300  -36.7420   23.0970 C   0  0  0  0  0  1  0  0  0  0  0  0
  -25.3820  -36.3760   23.9100 C   0  0  0  0  0  3  0  0  0  0  0  0
  -27.4900  -37.3280   24.7340 C   0  0  0  0  0  1  0  0  0  0  0  0
  -26.3910  -37.4490   23.7790 N   0  0  0  0  0  0  0  0  0  0  0  0
  -25.9640  -38.3630   23.9040 H   0  0  0  0  0  0  0  0  0  0  0  0
  -26.4110  -31.7920   25.2270 C   0  0  1  0  0  0  0  0  0  0  0  0
  -25.2890  -31.5330   26.2590 C   0  0  0  0  0  1  0  0  0  0  0  0
  -27.0390  -30.4270   24.8640 C   0  0  0  0  0  1  0  0  0  0  0  0
  -27.5190  -32.6160   25.9230 C   0  0  0  0  0  1  0  0  0  0  0  0
  1 53  1  0
  2  1  2  0
  2 54  1  0
  3  8  1  0
  3  1  1  0
  4  7  1  0
  4  6  2  0
  5  4  1  0
  6  2  1  0
  7  3  2  0
  8  9  1  0
 10 22  1  0
 11 16  1  0
 12 13  1  0
 12 11  1  0
 14 13  1  0
 14 26  1  0
 14 15  1  0
 16 10  1  0
 16 15  1  0
 17 10  2  0
 19 18  1  0
 20 21  1  0
 20 22  1  0
 21  8  1  0
 21 18  1  0
 22 19  1  0
 23 24  2  0
 24 43  1  0
 25 24  1  0
 25 28  1  0
 26 27  1  0
 26 23  1  0
 27 25  2  0
 28 29  1  0
 29 30  2  0
 31 34  1  0
 31 30  1  0
 32 31  2  0
 33 32  1  0
 33 28  2  0
 34 35  1  0
 35 40  2  0
 35 36  1  0
 36 37  2  0
 37 38  1  0
 38 42  1  0
 39 38  2  0
 40 39  1  0
 41 40  1  0
 43 44  1  0
 44 47  1  0
 44 46  1  0
 45 43  2  0
 48 23  1  0
 48 49  1  0
 50 48  1  0
 51 53  1  0
 53 52  1  0
 55 57  1  0
 55 54  1  0
 56 67  2  0
 57 62  1  0
 58 66  1  0
 58 68  1  0
 59 61  1  0
 60 66  1  0
 61 62  2  0
 61 60  1  0
 63 57  2  0
 64 63  1  0
 64 59  2  0
 65 59  1  0
 65 58  1  0
 66 56  1  0
 68 70  2  0
 69 68  1  0
 71 69  1  0
 72 81  2  0
 72 77  1  0
 73 69  1  0
 73 77  1  0
 74 73  1  0
 75 76  1  0
 75 74  1  0
 76 72  1  0
 77 78  2  0
 78 79  1  0
 80 79  2  0
 81 80  1  0
 82 56  1  0
 82 83  1  0
 82 92  1  0
 83 86  1  0
 84 88  1  0
 84 83  1  0
 85 84  2  0
 88 87  1  0
 90 91  1  0
 90 88  1  0
 90 89  1  0
 92 95  1  1
 92 93  1  0
 94 92  1  0
M  ISO  4  10 100  22 100  54 101  55 101
M  END
>  <TORSDO>  (19) 
F 18

>  <SCORE>  (19) 
-13.996

>  <name>  (19) 
18

>  <ligand_id>  (19) 
18

>  <original_smiles>  (19) 
[H]c1c([H])c([H])c2c(c1[H])C([H])([H])C([H])([H])C([H])([H])C2([H])N([H])C(=O)C1([H])N(C(=O)C([H])(N([H])C(=O)C([H])(N([H])C([H])([H])[H])C([H])([H])[H])C(C([H])([H])[H])(C([H])([H])[H])C([H])([H])[H])C([H])([H])c2c([H])c(OC([H])([H])c3nc(C([H])([H])[H])nc(N([H])C4([H])C([H])([H])N(C(=O)N5C([H])([H])C([H])([H])C([H])([H])C([H])(n6nc(-c7c([H])c([H])c(Oc8c([H])c([H])c(F)c([H])c8F)c([H])c7[H])c(C(=O)N([H])[H])c6N([H])[H])C5([H])[H])C([H])([H])C4([H])[H])c3C([H])(C([H])([H])[H])C([H])([H])[H])c([H])c([H])c2C1([H])[H]

>  <smiles>  (19) 
[H]c1c([H])c([H])c2c(c1[H])C([H])([H])C([H])([H])C([H])([H])C2([H])N([H])C(=O)C1([H])N(C(=O)C([H])(N([H])C(=O)C([H])(N([H])C([H])([H])[H])C([H])([H])[H])C(C([H])([H])[H])(C([H])([H])[H])C([H])([H])[H])C([H])([H])c2c([H])c(OC([H])([H])c3nc(C([H])([H])[H])nc(N([H])C4([H])C([H])([H])N(C(=O)N5C([H])([H])C([H])([H])C([H])([H])C([H])(n6nc(-c7c([H])c([H])c(Oc8c([H])c([H])c(F)c([H])c8F)c([H])c7[H])c(C(=O)N([H])[H])c6N([H])[H])C5([H])[H])C([H])([H])C4([H])[H])c3C([H])(C([H])([H])[H])C([H])([H])[H])c([H])c([H])c2C1([H])[H]

$$$$
19:0:0
     RDKit          3D

 89 98  0  0  1  0  0  0  0  0999 V2000
  -28.1940  -22.1940   20.8180 C   0  0  0  0  0  2  0  0  0  0  0  0
  -29.8370  -22.7280   19.7990 C   0  0  0  0  0  2  0  0  0  0  0  0
  -28.8480  -23.6180   20.6250 C   0  0  0  0  0  3  0  0  0  0  0  0
  -29.4990  -21.5110   20.6060 N   0  0  2  0  0  4  0  0  0  0  0  0
  -30.0440  -21.5210   21.4550 H   0  0  0  0  0  0  0  0  0  0  0  0
  -29.6140  -20.1350   19.9070 C   0  0  0  0  0  2  0  0  0  0  0  0
  -30.7150  -18.2090   21.4660 C   0  0  0  0  0  2  0  0  0  0  0  0
  -29.5270  -18.7310   20.6960 C   0  0  0  0  0  3  0  0  0  0  0  0
  -30.2780  -17.3530   20.2970 C   0  0  0  0  0  3  0  0  0  0  0  0
  -30.6100  -14.7710   20.3200 C   0  0  0  0  0  0  0  0  0  0  0  0
  -30.3700  -12.4950   19.3140 C   0  0  0  0  0  2  0  0  0  0  0  0
  -29.4290  -12.5760   18.0910 C   0  0  0  0  0  2  0  0  0  0  0  0
  -27.9590  -12.4140   18.5280 C   0  0  0  0  0  2  0  0  0  0  0  0
  -27.5970  -13.3010   19.7500 C   0  0  0  0  0  3  0  0  0  0  0  0
  -28.6640  -13.2150   20.8650 C   0  0  0  0  0  2  0  0  0  0  0  0
  -29.9600  -13.5560   20.2650 N   0  0  0  0  0  0  0  0  0  0  0  0
  -31.7790  -14.8510   19.9370 O   0  0  0  0  0  0  0  0  0  0  0  0
  -29.8890  -15.9260   20.6030 N   0  0  0  0  0  0  0  0  0  0  0  0
  -28.9330  -15.7760   20.8930 H   0  0  0  0  0  0  0  0  0  0  0  0
  -25.2130  -13.8920   20.4950 C   0  0  0  0  0  0  0  0  0  0  0  0
  -24.1480  -13.1200   20.8700 C   0  0  0  0  0  0  0  0  0  0  0  0
  -24.6100  -11.7680   20.8360 C   0  0  0  0  0  0  0  0  0  0  0  0
  -26.2560  -13.0130   20.2510 N   0  0  0  0  0  0  0  0  0  0  0  0
  -25.9000  -11.7300   20.5200 N   0  0  0  0  0  0  0  0  0  0  0  0
  -23.8830  -10.5070   21.0290 C   0  0  0  0  0  0  0  0  0  0  0  0
  -24.3180   -9.5360   21.9580 C   0  0  0  0  0  3  0  0  0  0  0  0
  -23.5880   -8.3420   22.1420 C   0  0  0  0  0  3  0  0  0  0  0  0
  -22.4080   -8.1100   21.3960 C   0  0  0  0  0  0  0  0  0  0  0  0
  -21.9900   -9.0690   20.4560 C   0  0  0  0  0  3  0  0  0  0  0  0
  -22.7220  -10.2540   20.2710 C   0  0  0  0  0  3  0  0  0  0  0  0
  -21.6500   -6.9680   21.4870 O   0  0  0  0  0  0  0  0  0  0  0  0
  -21.6090   -6.2210   22.6380 C   0  0  0  0  0  0  0  0  0  0  0  0
  -21.1990   -6.7740   23.8700 C   0  0  0  0  0  3  0  0  0  0  0  0
  -21.1050   -5.9550   25.0140 C   0  0  0  0  0  3  0  0  0  0  0  0
  -21.4100   -4.5840   24.9250 C   0  0  0  0  0  0  0  0  0  0  0  0
  -21.8140   -4.0290   23.6970 C   0  0  0  0  0  3  0  0  0  0  0  0
  -21.9090   -4.8470   22.5560 C   0  0  0  0  0  0  0  0  0  0  0  0
  -22.2770   -4.3030   21.3700 F   0  0  0  0  0  0  0  0  0  0  0  0
  -21.3130   -3.7950   26.0210 F   0  0  0  0  0  0  0  0  0  0  0  0
  -22.7540  -13.6010   21.1480 C   0  0  0  0  0  0  0  0  0  0  0  0
  -22.0280  -12.9080   22.0190 N   0  0  0  0  0  0  0  0  0  0  0  0
  -22.3150  -14.6270   20.6290 O   0  0  0  0  0  0  0  0  0  0  0  0
  -22.3950  -12.0800   22.4650 H   0  0  0  0  0  0  0  0  0  0  0  0
  -21.0920  -13.2130   22.2460 H   0  0  0  0  0  0  0  0  0  0  0  0
  -25.3760  -15.2630   20.3150 N   0  0  0  0  0  0  0  0  0  0  0  0
  -24.6100  -15.9170   20.4330 H   0  0  0  0  0  0  0  0  0  0  0  0
  -26.2160  -15.7000   19.9590 H   0  0  0  0  0  0  0  0  0  0  0  0
  -27.9890  -24.8750   20.0580 C   0  0  0  0  0  2  0  0  0  0  0  0
  -28.2670  -26.3460   20.2760 O   0  0  0  0  0  0  0  0  0  0  0  0
  -24.5940  -31.8810   23.2360 C   0  0  0  0  0  0  0  0  0  0  0  0
  -27.1880  -27.2680   20.1850 C   0  0  0  0  0  0  0  0  0  0  0  0
  -23.3890  -30.4890   21.5930 C   0  0  0  0  0  3  0  0  0  0  0  0
  -24.8400  -28.9380   20.1610 C   0  0  0  0  0  0  0  0  0  0  0  0
  -25.9360  -30.7860   21.4200 C   0  0  0  0  0  2  0  0  0  0  0  0
  -26.0120  -29.4050   20.7680 C   0  0  0  0  0  0  0  0  0  0  0  0
  -27.1880  -28.5820   20.7700 C   0  0  0  0  0  3  0  0  0  0  0  0
  -25.9940  -26.8870   19.5270 C   0  0  0  0  0  3  0  0  0  0  0  0
  -24.8370  -27.6880   19.5280 C   0  0  0  0  0  3  0  0  0  0  0  0
  -23.6060  -29.8190   20.2110 C   0  0  0  0  0  2  0  0  0  0  0  0
  -24.6580  -31.0710   22.1390 N   0  0  0  0  0  0  0  0  0  0  0  0
  -23.5090  -32.1610   23.7680 O   0  0  0  0  0  0  0  0  0  0  0  0
  -22.7200  -29.4730   22.5510 C   0  0  0  0  0  0  0  0  0  0  0  0
  -21.3930  -29.2990   22.4220 N   0  0  0  0  0  0  0  0  0  0  0  0
  -23.3950  -28.8460   23.3700 O   0  0  0  0  0  0  0  0  0  0  0  0
  -20.9060  -29.8570   21.7350 H   0  0  0  0  0  0  0  0  0  0  0  0
  -18.0150  -28.0910   22.9040 C   0  0  0  0  0  0  0  0  0  0  0  0
  -20.5710  -28.3620   23.1910 C   0  0  0  0  0  3  0  0  0  0  0  0
  -20.6820  -26.9280   22.6260 C   0  0  0  0  0  2  0  0  0  0  0  0
  -19.5900  -26.5950   21.6050 C   0  0  0  0  0  2  0  0  0  0  0  0
  -18.2030  -26.7390   22.2380 C   0  0  0  0  0  2  0  0  0  0  0  0
  -19.1280  -28.8600   23.3390 C   0  0  0  0  0  0  0  0  0  0  0  0
  -18.8990  -30.1250   23.9240 C   0  0  0  0  0  3  0  0  0  0  0  0
  -17.5910  -30.6210   24.0770 C   0  0  0  0  0  3  0  0  0  0  0  0
  -16.4930  -29.8490   23.6590 C   0  0  0  0  0  3  0  0  0  0  0  0
  -16.7060  -28.5860   23.0790 C   0  0  0  0  0  3  0  0  0  0  0  0
  -25.8750  -32.5120   23.8600 C   0  0  0  0  0  3  0  0  0  0  0  0
  -26.3850  -31.7440   25.1420 C   0  0  1  0  0  0  0  0  0  0  0  0
  -25.2890  -31.5160   26.2090 C   0  0  0  0  0  1  0  0  0  0  0  0
  -26.9620  -30.3620   24.7590 C   0  0  0  0  0  1  0  0  0  0  0  0
  -27.5370  -32.5360   25.8040 C   0  0  0  0  0  1  0  0  0  0  0  0
  -25.5680  -33.9130   24.1870 N   0  0  0  0  0  0  0  0  0  0  0  0
  -25.9050  -34.9640   23.4280 C   0  0  0  0  0  0  0  0  0  0  0  0
  -26.5760  -34.8570   22.3970 O   0  0  0  0  0  0  0  0  0  0  0  0
  -24.9740  -34.0700   24.9880 H   0  0  0  0  0  0  0  0  0  0  0  0
  -24.1850  -36.7650   23.0720 C   0  0  0  0  0  1  0  0  0  0  0  0
  -25.4240  -36.3550   23.8840 C   0  0  0  0  0  3  0  0  0  0  0  0
  -27.5620  -37.2320   24.7140 C   0  0  0  0  0  1  0  0  0  0  0  0
  -26.4600  -37.4040   23.7710 N   0  0  0  0  0  0  0  0  0  0  0  0
  -26.0570  -38.3260   23.9190 H   0  0  0  0  0  0  0  0  0  0  0  0
  2  4  1  0
  2  3  1  0
  3 48  1  0
  3  1  1  0
  4  1  1  0
  4  5  1  1
  6  4  1  0
  8  6  1  0
  8  7  1  0
  9 18  1  0
  9  8  1  0
  9  7  1  0
 10 18  1  0
 11 16  1  0
 12 13  1  0
 12 11  1  0
 14 13  1  0
 14 23  1  0
 14 15  1  0
 16 10  1  0
 16 15  1  0
 17 10  2  0
 18 19  1  0
 20 21  2  0
 21 40  1  0
 22 21  1  0
 22 25  1  0
 23 20  1  0
 23 24  1  0
 24 22  2  0
 25 26  1  0
 26 27  2  0
 28 31  1  0
 28 27  1  0
 29 28  2  0
 30 29  1  0
 30 25  2  0
 31 32  1  0
 32 33  1  0
 33 34  2  0
 35 34  1  0
 35 39  1  0
 36 35  2  0
 37 32  2  0
 37 36  1  0
 38 37  1  0
 40 41  1  0
 41 44  1  0
 41 43  1  0
 42 40  2  0
 45 46  1  0
 45 20  1  0
 47 45  1  0
 48 49  1  0
 50 61  2  0
 51 49  1  0
 51 56  1  0
 52 60  1  0
 52 62  1  0
 53 59  1  0
 53 55  1  0
 54 60  1  0
 55 56  2  0
 55 54  1  0
 57 58  1  0
 57 51  2  0
 58 53  2  0
 59 52  1  0
 60 50  1  0
 62 64  2  0
 63 62  1  0
 65 63  1  0
 66 75  2  0
 66 71  1  0
 67 63  1  0
 67 71  1  0
 68 67  1  0
 69 70  1  0
 69 68  1  0
 70 66  1  0
 71 72  2  0
 72 73  1  0
 74 73  2  0
 75 74  1  0
 76 50  1  0
 76 81  1  0
 76 77  1  0
 77 80  1  1
 77 78  1  0
 79 77  1  0
 81 84  1  0
 82 86  1  0
 82 81  1  0
 83 82  2  0
 86 85  1  0
 88 86  1  0
 88 89  1  0
 88 87  1  0
M  ISO  4  10 100  18 100  48 101  49 101
M  END
>  <TORSDO>  (20) 
F 19

>  <SCORE>  (20) 
-14.148

>  <name>  (20) 
19

>  <ligand_id>  (20) 
19

>  <original_smiles>  (20) 
[H]c1c([H])c([H])c2c(c1[H])C([H])([H])C([H])([H])C([H])([H])C2([H])N([H])C(=O)C1([H])N(C(=O)C([H])(N([H])C(=O)C([H])(N([H])C([H])([H])[H])C([H])([H])[H])C(C([H])([H])[H])(C([H])([H])[H])C([H])([H])[H])C([H])([H])c2c([H])c(OC([H])([H])C3([H])C([H])([H])[N+]([H])(C([H])([H])C4([H])C([H])([H])C4([H])N([H])C(=O)N4C([H])([H])C([H])([H])C([H])([H])C([H])(n5nc(-c6c([H])c([H])c(Oc7c([H])c([H])c(F)c([H])c7F)c([H])c6[H])c(C(=O)N([H])[H])c5N([H])[H])C4([H])[H])C3([H])[H])c([H])c([H])c2C1([H])[H]

>  <smiles>  (20) 
[H]c1c([H])c([H])c2c(c1[H])C([H])([H])C([H])([H])C([H])([H])C2([H])N([H])C(=O)C1([H])N(C(=O)C([H])(N([H])C(=O)C([H])(N([H])C([H])([H])[H])C([H])([H])[H])C(C([H])([H])[H])(C([H])([H])[H])C([H])([H])[H])C([H])([H])c2c([H])c(OC([H])([H])C3([H])C([H])([H])[N+]([H])(C([H])([H])C4([H])C([H])([H])C4([H])N([H])C(=O)N4C([H])([H])C([H])([H])C([H])([H])C([H])(n5nc(-c6c([H])c([H])c(Oc7c([H])c([H])c(F)c([H])c7F)c([H])c6[H])c(C(=O)N([H])[H])c5N([H])[H])C4([H])[H])C3([H])[H])c([H])c([H])c2C1([H])[H]

$$$$
20:0:0
     RDKit          3D

 89 98  0  0  1  0  0  0  0  0999 V2000
  -28.2620  -23.4910   18.7940 C   0  0  0  0  0  2  0  0  0  0  0  0
  -28.3750  -21.8720   18.8890 C   0  0  0  0  0  2  0  0  0  0  0  0
  -28.8170  -22.8780   20.9290 C   0  0  0  0  0  2  0  0  0  0  0  0
  -28.0070  -24.2010   20.1710 C   0  0  0  0  0  3  0  0  0  0  0  0
  -28.6800  -21.3970   20.2840 N   0  0  2  0  0  4  0  0  0  0  0  0
  -27.7780  -21.0850   20.6150 H   0  0  0  0  0  0  0  0  0  0  0  0
  -30.6940  -18.8780   19.0190 C   0  0  0  0  0  2  0  0  0  0  0  0
  -30.9480  -20.2270   19.7750 C   0  0  0  0  0  2  0  0  0  0  0  0
  -30.1150  -18.3290   20.3080 C   0  0  0  0  0  3  0  0  0  0  0  0
  -29.6700  -20.0740   20.6600 C   0  0  0  0  0  3  0  0  0  0  0  0
  -30.3920  -15.4060   20.2670 C   0  0  0  0  0  0  0  0  0  0  0  0
  -30.3740  -12.9600   19.3680 C   0  0  0  0  0  2  0  0  0  0  0  0
  -29.4380  -12.7220   18.1560 C   0  0  0  0  0  2  0  0  0  0  0  0
  -28.0060  -12.4180   18.6280 C   0  0  0  0  0  2  0  0  0  0  0  0
  -27.5570  -13.3750   19.7600 C   0  0  0  0  0  3  0  0  0  0  0  0
  -28.6220  -13.5550   20.8620 C   0  0  0  0  0  2  0  0  0  0  0  0
  -29.8220  -14.0960   20.2010 N   0  0  0  0  0  0  0  0  0  0  0  0
  -31.6120  -15.3840   20.0450 O   0  0  0  0  0  0  0  0  0  0  0  0
  -29.6610  -16.7110   20.3720 N   0  0  0  0  0  0  0  0  0  0  0  0
  -28.6680  -16.5790   20.4980 H   0  0  0  0  0  0  0  0  0  0  0  0
  -25.1980  -13.8910   20.5690 C   0  0  0  0  0  0  0  0  0  0  0  0
  -24.1520  -13.0970   20.9440 C   0  0  0  0  0  0  0  0  0  0  0  0
  -24.6340  -11.7530   20.8840 C   0  0  0  0  0  0  0  0  0  0  0  0
  -26.2460  -13.0320   20.2930 N   0  0  0  0  0  0  0  0  0  0  0  0
  -25.9200  -11.7380   20.5510 N   0  0  0  0  0  0  0  0  0  0  0  0
  -23.9220  -10.4800   21.0650 C   0  0  0  0  0  0  0  0  0  0  0  0
  -24.3670   -9.5090   21.9890 C   0  0  0  0  0  3  0  0  0  0  0  0
  -23.6530   -8.3040   22.1610 C   0  0  0  0  0  3  0  0  0  0  0  0
  -22.4800   -8.0610   21.4090 C   0  0  0  0  0  0  0  0  0  0  0  0
  -22.0540   -9.0200   20.4740 C   0  0  0  0  0  3  0  0  0  0  0  0
  -22.7680  -10.2170   20.3010 C   0  0  0  0  0  3  0  0  0  0  0  0
  -21.7370   -6.9070   21.4900 O   0  0  0  0  0  0  0  0  0  0  0  0
  -21.6850   -6.1640   22.6420 C   0  0  0  0  0  0  0  0  0  0  0  0
  -21.1990   -6.7000   23.8540 C   0  0  0  0  0  3  0  0  0  0  0  0
  -21.0970   -5.8800   24.9960 C   0  0  0  0  0  3  0  0  0  0  0  0
  -21.4740   -4.5260   24.9280 C   0  0  0  0  0  0  0  0  0  0  0  0
  -21.9540   -3.9890   23.7200 C   0  0  0  0  0  3  0  0  0  0  0  0
  -22.0550   -4.8050   22.5800 C   0  0  0  0  0  0  0  0  0  0  0  0
  -22.4980   -4.2770   21.4130 F   0  0  0  0  0  0  0  0  0  0  0  0
  -21.3710   -3.7370   26.0220 F   0  0  0  0  0  0  0  0  0  0  0  0
  -22.7540  -13.5550   21.2400 C   0  0  0  0  0  0  0  0  0  0  0  0
  -22.0460  -12.8440   22.1100 N   0  0  0  0  0  0  0  0  0  0  0  0
  -22.2980  -14.5800   20.7350 O   0  0  0  0  0  0  0  0  0  0  0  0
  -22.4290  -12.0150   22.5400 H   0  0  0  0  0  0  0  0  0  0  0  0
  -21.1090  -13.1330   22.3500 H   0  0  0  0  0  0  0  0  0  0  0  0
  -25.3410  -15.2660   20.4080 N   0  0  0  0  0  0  0  0  0  0  0  0
  -24.5660  -15.9080   20.5360 H   0  0  0  0  0  0  0  0  0  0  0  0
  -26.1670  -15.7160   20.0350 H   0  0  0  0  0  0  0  0  0  0  0  0
  -28.1670  -25.8670   20.2890 O   0  0  0  0  0  0  0  0  0  0  0  0
  -24.6020  -31.8900   23.2140 C   0  0  0  0  0  0  0  0  0  0  0  0
  -27.1490  -26.9700   20.2170 C   0  0  0  0  0  0  0  0  0  0  0  0
  -23.4100  -30.4940   21.5760 C   0  0  0  0  0  3  0  0  0  0  0  0
  -24.8560  -28.8750   20.1610 C   0  0  0  0  0  0  0  0  0  0  0  0
  -25.9780  -30.6880   21.4390 C   0  0  0  0  0  2  0  0  0  0  0  0
  -26.0450  -29.2740   20.7850 C   0  0  0  0  0  0  0  0  0  0  0  0
  -27.1840  -28.3440   20.7840 C   0  0  0  0  0  3  0  0  0  0  0  0
  -25.9290  -26.7300   19.5460 C   0  0  0  0  0  3  0  0  0  0  0  0
  -24.8250  -27.6240   19.5210 C   0  0  0  0  0  3  0  0  0  0  0  0
  -23.6410  -29.8030   20.2030 C   0  0  0  0  0  2  0  0  0  0  0  0
  -24.6850  -31.0520   22.1290 N   0  0  0  0  0  0  0  0  0  0  0  0
  -23.5120  -32.1860   23.7310 O   0  0  0  0  0  0  0  0  0  0  0  0
  -22.7050  -29.5060   22.5430 C   0  0  0  0  0  0  0  0  0  0  0  0
  -21.3750  -29.3470   22.4130 N   0  0  0  0  0  0  0  0  0  0  0  0
  -23.3640  -28.8820   23.3790 O   0  0  0  0  0  0  0  0  0  0  0  0
  -20.8970  -29.8990   21.7160 H   0  0  0  0  0  0  0  0  0  0  0  0
  -17.9860  -28.1510   22.9190 C   0  0  0  0  0  0  0  0  0  0  0  0
  -20.5460  -28.4130   23.1850 C   0  0  0  0  0  3  0  0  0  0  0  0
  -20.6450  -26.9800   22.6140 C   0  0  0  0  0  2  0  0  0  0  0  0
  -19.5430  -26.6590   21.5980 C   0  0  0  0  0  2  0  0  0  0  0  0
  -18.1610  -26.8030   22.2400 C   0  0  0  0  0  2  0  0  0  0  0  0
  -19.1050  -28.9150   23.3480 C   0  0  0  0  0  0  0  0  0  0  0  0
  -18.8850  -30.1740   23.9470 C   0  0  0  0  0  3  0  0  0  0  0  0
  -17.5790  -30.6710   24.1190 C   0  0  0  0  0  3  0  0  0  0  0  0
  -16.4750  -29.9080   23.7040 C   0  0  0  0  0  3  0  0  0  0  0  0
  -16.6790  -28.6490   23.1090 C   0  0  0  0  0  3  0  0  0  0  0  0
  -25.8720  -32.5310   23.8510 C   0  0  0  0  0  3  0  0  0  0  0  0
  -25.5670  -33.9420   24.1520 N   0  0  0  0  0  0  0  0  0  0  0  0
  -25.9110  -34.9850   23.3830 C   0  0  0  0  0  0  0  0  0  0  0  0
  -26.5800  -34.8580   22.3540 O   0  0  0  0  0  0  0  0  0  0  0  0
  -24.9700  -34.1140   24.9480 H   0  0  0  0  0  0  0  0  0  0  0  0
  -24.2020  -36.7980   23.0110 C   0  0  0  0  0  1  0  0  0  0  0  0
  -25.4430  -36.3870   23.8210 C   0  0  0  0  0  3  0  0  0  0  0  0
  -27.5850  -37.2730   24.6360 C   0  0  0  0  0  1  0  0  0  0  0  0
  -26.4870  -37.4270   23.6860 N   0  0  0  0  0  0  0  0  0  0  0  0
  -26.0910  -38.3550   23.8080 H   0  0  0  0  0  0  0  0  0  0  0  0
  -26.3470  -31.7910   25.1640 C   0  0  1  0  0  0  0  0  0  0  0  0
  -25.2270  -31.5970   26.2130 C   0  0  0  0  0  1  0  0  0  0  0  0
  -26.9230  -30.3960   24.8340 C   0  0  0  0  0  1  0  0  0  0  0  0
  -27.4910  -32.5910   25.8310 C   0  0  0  0  0  1  0  0  0  0  0  0
  1  2  1  0
  1  4  1  0
  2  5  1  0
  4 49  1  0
  4  3  1  0
  5  6  1  1
  5 10  1  0
  5  3  1  0
  7  8  1  0
  7  9  1  0
  9 19  1  0
  9 10  1  0
 10  8  1  0
 11 19  1  0
 12 17  1  0
 13 14  1  0
 13 12  1  0
 15 14  1  0
 15 24  1  0
 15 16  1  0
 17 11  1  0
 17 16  1  0
 18 11  2  0
 19 20  1  0
 21 22  2  0
 22 41  1  0
 23 22  1  0
 23 26  1  0
 24 25  1  0
 24 21  1  0
 25 23  2  0
 26 27  1  0
 27 28  2  0
 29 32  1  0
 29 28  1  0
 30 29  2  0
 31 30  1  0
 31 26  2  0
 32 33  1  0
 33 34  1  0
 34 35  2  0
 36 35  1  0
 36 40  1  0
 37 36  2  0
 38 33  2  0
 38 37  1  0
 39 38  1  0
 41 42  1  0
 42 45  1  0
 42 44  1  0
 43 41  2  0
 46 47  1  0
 46 21  1  0
 48 46  1  0
 50 61  2  0
 51 49  1  0
 51 56  1  0
 52 60  1  0
 52 62  1  0
 53 59  1  0
 53 55  1  0
 54 60  1  0
 55 54  1  0
 56 55  2  0
 57 51  2  0
 58 57  1  0
 58 53  2  0
 59 52  1  0
 60 50  1  0
 62 64  2  0
 63 62  1  0
 65 63  1  0
 66 75  2  0
 66 71  1  0
 67 63  1  0
 67 71  1  0
 68 67  1  0
 69 70  1  0
 69 68  1  0
 70 66  1  0
 71 72  2  0
 72 73  1  0
 74 73  2  0
 75 74  1  0
 76 50  1  0
 76 77  1  0
 76 86  1  0
 77 80  1  0
 78 82  1  0
 78 77  1  0
 79 78  2  0
 82 81  1  0
 84 85  1  0
 84 82  1  0
 84 83  1  0
 86 89  1  1
 86 87  1  0
 88 86  1  0
M  ISO  4   4 101  11 100  19 100  49 101
M  END
>  <TORSDO>  (21) 
F 17

>  <SCORE>  (21) 
-16.697

>  <name>  (21) 
20

>  <ligand_id>  (21) 
20

>  <original_smiles>  (21) 
[H]c1c([H])c([H])c2c(c1[H])C([H])([H])C([H])([H])C([H])([H])C2([H])N([H])C(=O)C1([H])N(C(=O)C([H])(N([H])C(=O)C([H])(N([H])C([H])([H])[H])C([H])([H])[H])C(C([H])([H])[H])(C([H])([H])[H])C([H])([H])[H])C([H])([H])c2c([H])c(OC3([H])C([H])([H])C([H])([H])[N+]([H])(C4([H])C([H])([H])C([H])([H])C4([H])N([H])C(=O)N4C([H])([H])C([H])([H])C([H])([H])C([H])(n5nc(-c6c([H])c([H])c(Oc7c([H])c([H])c(F)c([H])c7F)c([H])c6[H])c(C(=O)N([H])[H])c5N([H])[H])C4([H])[H])C3([H])[H])c([H])c([H])c2C1([H])[H]

>  <smiles>  (21) 
[H]c1c([H])c([H])c2c(c1[H])C([H])([H])C([H])([H])C([H])([H])C2([H])N([H])C(=O)C1([H])N(C(=O)C([H])(N([H])C(=O)C([H])(N([H])C([H])([H])[H])C([H])([H])[H])C(C([H])([H])[H])(C([H])([H])[H])C([H])([H])[H])C([H])([H])c2c([H])c(OC3([H])C([H])([H])C([H])([H])[N+]([H])(C4([H])C([H])([H])C([H])([H])C4([H])N([H])C(=O)N4C([H])([H])C([H])([H])C([H])([H])C([H])(n5nc(-c6c([H])c([H])c(Oc7c([H])c([H])c(F)c([H])c7F)c([H])c6[H])c(C(=O)N([H])[H])c5N([H])[H])C4([H])[H])C3([H])[H])c([H])c([H])c2C1([H])[H]

$$$$
21:0:0
     RDKit          3D

 94103  0  0  1  0  0  0  0  0999 V2000
  -28.2810  -22.8520   19.2070 C   0  0  0  0  0  3  0  0  0  0  0  0
  -28.8630  -24.0090   19.7800 C   0  0  0  0  0  0  0  0  0  0  0  0
  -29.8380  -23.7220   20.7590 C   0  0  0  0  0  0  0  0  0  0  0  0
  -29.5700  -21.4340   20.4710 C   0  0  0  0  0  0  0  0  0  0  0  0
  -28.6320  -21.5790   19.5470 N   0  0  0  0  0  0  0  0  0  0  0  0
  -30.1630  -22.4440   21.0980 N   0  0  0  0  0  0  0  0  0  0  0  0
  -30.0280  -20.1600   20.8330 N   0  0  0  0  0  0  0  0  0  0  0  0
  -30.7470  -20.1920   21.5440 H   0  0  0  0  0  0  0  0  0  0  0  0
  -30.9050  -14.6150   19.9880 C   0  0  0  0  0  0  0  0  0  0  0  0
  -30.5710  -12.3900   18.9450 C   0  0  0  0  0  2  0  0  0  0  0  0
  -29.5720  -12.5320   17.7780 C   0  0  0  0  0  2  0  0  0  0  0  0
  -28.1220  -12.3960   18.2830 C   0  0  0  0  0  2  0  0  0  0  0  0
  -27.8390  -13.2630   19.5400 C   0  0  0  0  0  3  0  0  0  0  0  0
  -28.9540  -13.0960   20.5960 C   0  0  0  0  0  2  0  0  0  0  0  0
  -30.2280  -13.4230   19.9430 N   0  0  0  0  0  0  0  0  0  0  0  0
  -32.0580  -14.6920   19.5530 O   0  0  0  0  0  0  0  0  0  0  0  0
  -29.7490  -17.7740   21.5840 C   0  0  0  0  0  2  0  0  0  0  0  0
  -30.5060  -18.2070   19.2860 C   0  0  0  0  0  2  0  0  0  0  0  0
  -29.4340  -16.2830   21.2250 C   0  0  0  0  0  2  0  0  0  0  0  0
  -30.1380  -16.7380   18.9130 C   0  0  0  0  0  2  0  0  0  0  0  0
  -29.6260  -18.7900   20.4140 C   0  0  0  0  0  3  0  0  0  0  0  0
  -30.1460  -15.7660   20.0370 N   0  0  0  0  0  0  0  0  0  0  0  0
  -25.5060  -13.8860   20.4170 C   0  0  0  0  0  0  0  0  0  0  0  0
  -24.4480  -13.1220   20.8280 C   0  0  0  0  0  0  0  0  0  0  0  0
  -24.8790  -11.7640   20.7310 C   0  0  0  0  0  0  0  0  0  0  0  0
  -26.5170  -12.9920   20.0960 N   0  0  0  0  0  0  0  0  0  0  0  0
  -26.1480  -11.7090   20.3440 N   0  0  0  0  0  0  0  0  0  0  0  0
  -24.1390  -10.5100   20.9290 C   0  0  0  0  0  0  0  0  0  0  0  0
  -24.5660   -9.5390   21.8590 C   0  0  0  0  0  3  0  0  0  0  0  0
  -23.8280   -8.3500   22.0440 C   0  0  0  0  0  3  0  0  0  0  0  0
  -22.6480   -8.1240   21.2970 C   0  0  0  0  0  0  0  0  0  0  0  0
  -22.2390   -9.0850   20.3560 C   0  0  0  0  0  3  0  0  0  0  0  0
  -22.9770  -10.2650   20.1690 C   0  0  0  0  0  3  0  0  0  0  0  0
  -21.8810   -6.9890   21.3920 O   0  0  0  0  0  0  0  0  0  0  0  0
  -21.7710   -6.2900   22.5660 C   0  0  0  0  0  0  0  0  0  0  0  0
  -21.2790   -6.8880   23.7460 C   0  0  0  0  0  3  0  0  0  0  0  0
  -21.1170   -6.1150   24.9140 C   0  0  0  0  0  3  0  0  0  0  0  0
  -21.4370   -4.7450   24.9020 C   0  0  0  0  0  0  0  0  0  0  0  0
  -21.9220   -4.1460   23.7270 C   0  0  0  0  0  3  0  0  0  0  0  0
  -22.0860   -4.9150   22.5620 C   0  0  0  0  0  0  0  0  0  0  0  0
  -22.5340   -4.3290   21.4260 F   0  0  0  0  0  0  0  0  0  0  0  0
  -21.2740   -4.0000   26.0210 F   0  0  0  0  0  0  0  0  0  0  0  0
  -23.0790  -13.6180   21.1960 C   0  0  0  0  0  0  0  0  0  0  0  0
  -22.3920  -12.9140   22.0890 N   0  0  0  0  0  0  0  0  0  0  0  0
  -22.6310  -14.6630   20.7280 O   0  0  0  0  0  0  0  0  0  0  0  0
  -22.7680  -12.0670   22.4900 H   0  0  0  0  0  0  0  0  0  0  0  0
  -21.4750  -13.2280   22.3780 H   0  0  0  0  0  0  0  0  0  0  0  0
  -25.6870  -15.2570   20.2680 N   0  0  0  0  0  0  0  0  0  0  0  0
  -24.9430  -15.9230   20.4450 H   0  0  0  0  0  0  0  0  0  0  0  0
  -26.5240  -15.6870   19.8960 H   0  0  0  0  0  0  0  0  0  0  0  0
  -29.8810  -25.2190   22.7980 C   0  0  0  0  0  1  0  0  0  0  0  0
  -30.5920  -24.8100   21.5030 C   0  0  0  0  0  2  0  0  0  0  0  0
  -28.5580  -25.4250   19.1900 C   0  0  0  0  0  2  0  0  0  0  0  0
  -28.3420  -26.5640   20.0810 O   0  0  0  0  0  0  0  0  0  0  0  0
  -24.5270  -31.7910   23.1760 C   0  0  0  0  0  0  0  0  0  0  0  0
  -27.1770  -27.3340   20.0360 C   0  0  0  0  0  0  0  0  0  0  0  0
  -23.3300  -30.4090   21.5130 C   0  0  0  0  0  3  0  0  0  0  0  0
  -24.7880  -28.8950   20.0650 C   0  0  0  0  0  0  0  0  0  0  0  0
  -25.8620  -30.7580   21.3310 C   0  0  0  0  0  2  0  0  0  0  0  0
  -25.9500  -29.3930   20.6650 C   0  0  0  0  0  0  0  0  0  0  0  0
  -27.1430  -28.6200   20.6470 C   0  0  0  0  0  3  0  0  0  0  0  0
  -25.9820  -26.8640   19.4420 C   0  0  0  0  0  3  0  0  0  0  0  0
  -24.8030  -27.6330   19.4510 C   0  0  0  0  0  3  0  0  0  0  0  0
  -23.5450  -29.7560   20.1240 C   0  0  0  0  0  2  0  0  0  0  0  0
  -24.5920  -31.0020   22.0640 N   0  0  0  0  0  0  0  0  0  0  0  0
  -23.4430  -32.0520   23.7160 O   0  0  0  0  0  0  0  0  0  0  0  0
  -22.6780  -29.3730   22.4590 C   0  0  0  0  0  0  0  0  0  0  0  0
  -21.3550  -29.1790   22.3190 N   0  0  0  0  0  0  0  0  0  0  0  0
  -23.3590  -28.7460   23.2750 O   0  0  0  0  0  0  0  0  0  0  0  0
  -20.8650  -29.7360   21.6340 H   0  0  0  0  0  0  0  0  0  0  0  0
  -17.9960  -27.9150   22.7500 C   0  0  0  0  0  0  0  0  0  0  0  0
  -20.5420  -28.2240   23.0730 C   0  0  0  0  0  3  0  0  0  0  0  0
  -20.6850  -26.7960   22.4990 C   0  0  0  0  0  2  0  0  0  0  0  0
  -19.6100  -26.4520   21.4620 C   0  0  0  0  0  2  0  0  0  0  0  0
  -18.2130  -26.5690   22.0780 C   0  0  0  0  0  2  0  0  0  0  0  0
  -19.0900  -28.6990   23.2020 C   0  0  0  0  0  0  0  0  0  0  0  0
  -18.8340  -29.9580   23.7890 C   0  0  0  0  0  3  0  0  0  0  0  0
  -17.5150  -30.4330   23.9280 C   0  0  0  0  0  3  0  0  0  0  0  0
  -16.4360  -29.6450   23.4920 C   0  0  0  0  0  3  0  0  0  0  0  0
  -16.6770  -28.3890   22.9090 C   0  0  0  0  0  3  0  0  0  0  0  0
  -25.8080  -32.4200   23.8070 C   0  0  0  0  0  3  0  0  0  0  0  0
  -25.4890  -33.8100   24.1610 N   0  0  0  0  0  0  0  0  0  0  0  0
  -25.8020  -34.8770   23.4140 C   0  0  0  0  0  0  0  0  0  0  0  0
  -26.4590  -34.7950   22.3730 O   0  0  0  0  0  0  0  0  0  0  0  0
  -24.9040  -33.9480   24.9720 H   0  0  0  0  0  0  0  0  0  0  0  0
  -24.0460  -36.6530   23.1170 C   0  0  0  0  0  1  0  0  0  0  0  0
  -25.3080  -36.2540   23.8980 C   0  0  0  0  0  3  0  0  0  0  0  0
  -27.4460  -37.1580   24.7000 C   0  0  0  0  0  1  0  0  0  0  0  0
  -26.3260  -37.3200   23.7770 N   0  0  0  0  0  0  0  0  0  0  0  0
  -25.9120  -38.2340   23.9380 H   0  0  0  0  0  0  0  0  0  0  0  0
  -26.3300  -31.6300   25.0690 C   0  0  1  0  0  0  0  0  0  0  0  0
  -25.2400  -31.3650   26.1330 C   0  0  0  0  0  1  0  0  0  0  0  0
  -26.9230  -30.2640   24.6510 C   0  0  0  0  0  1  0  0  0  0  0  0
  -27.4750  -32.4210   25.7440 C   0  0  0  0  0  1  0  0  0  0  0  0
  1  5  1  0
  1  2  2  0
  2  3  1  0
  3  6  2  0
  3 52  1  0
  4  7  1  0
  4  6  1  0
  5  4  2  0
  7  8  1  0
  9 22  1  0
 10 15  1  0
 11 12  1  0
 11 10  1  0
 13 12  1  0
 13 26  1  0
 13 14  1  0
 15  9  1  0
 15 14  1  0
 16  9  2  0
 18 21  1  0
 19 17  1  0
 20 18  1  0
 20 22  1  0
 21  7  1  0
 21 17  1  0
 22 19  1  0
 23 24  2  0
 24 43  1  0
 25 24  1  0
 25 28  1  0
 26 27  1  0
 26 23  1  0
 27 25  2  0
 28 29  1  0
 29 30  2  0
 31 34  1  0
 31 30  1  0
 32 31  2  0
 33 32  1  0
 33 28  2  0
 34 35  1  0
 35 36  1  0
 36 37  2  0
 38 37  1  0
 38 42  1  0
 39 38  2  0
 40 35  2  0
 40 39  1  0
 41 40  1  0
 43 44  1  0
 44 47  1  0
 44 46  1  0
 45 43  2  0
 48 23  1  0
 48 49  1  0
 50 48  1  0
 52 51  1  0
 53  2  1  0
 53 54  1  0
 55 66  2  0
 56 54  1  0
 56 61  1  0
 57 65  1  0
 57 67  1  0
 58 64  1  0
 58 60  1  0
 59 65  1  0
 60 59  1  0
 61 60  2  0
 62 63  1  0
 62 56  2  0
 63 58  2  0
 64 57  1  0
 65 55  1  0
 67 69  2  0
 68 67  1  0
 70 68  1  0
 71 80  2  0
 71 76  1  0
 72 68  1  0
 72 76  1  0
 73 72  1  0
 74 75  1  0
 74 73  1  0
 75 71  1  0
 76 77  2  0
 77 78  1  0
 79 78  2  0
 80 79  1  0
 81 55  1  0
 81 82  1  0
 81 91  1  0
 82 85  1  0
 83 87  1  0
 83 82  1  0
 84 83  2  0
 87 86  1  0
 89 87  1  0
 89 90  1  0
 89 88  1  0
 91 94  1  1
 91 92  1  0
 93 91  1  0
M  ISO  4   9 100  22 100  53 101  54 101
M  END
>  <TORSDO>  (22) 
F 18

>  <SCORE>  (22) 
-14.291

>  <name>  (22) 
21

>  <ligand_id>  (22) 
21

>  <original_smiles>  (22) 
[H]c1nc(N([H])C2([H])C([H])([H])C([H])([H])N(C(=O)N3C([H])([H])C([H])([H])C([H])([H])C([H])(n4nc(-c5c([H])c([H])c(Oc6c([H])c([H])c(F)c([H])c6F)c([H])c5[H])c(C(=O)N([H])[H])c4N([H])[H])C3([H])[H])C([H])([H])C2([H])[H])nc(C([H])([H])C([H])([H])[H])c1C([H])([H])Oc1c([H])c([H])c2c(c1[H])C([H])([H])N(C(=O)C([H])(N([H])C(=O)C([H])(N([H])C([H])([H])[H])C([H])([H])[H])C(C([H])([H])[H])(C([H])([H])[H])C([H])([H])[H])C([H])(C(=O)N([H])C1([H])c3c([H])c([H])c([H])c([H])c3C([H])([H])C([H])([H])C1([H])[H])C2([H])[H]

>  <smiles>  (22) 
[H]c1nc(N([H])C2([H])C([H])([H])C([H])([H])N(C(=O)N3C([H])([H])C([H])([H])C([H])([H])C([H])(n4nc(-c5c([H])c([H])c(Oc6c([H])c([H])c(F)c([H])c6F)c([H])c5[H])c(C(=O)N([H])[H])c4N([H])[H])C3([H])[H])C([H])([H])C2([H])[H])nc(C([H])([H])C([H])([H])[H])c1C([H])([H])Oc1c([H])c([H])c2c(c1[H])C([H])([H])N(C(=O)C([H])(N([H])C(=O)C([H])(N([H])C([H])([H])[H])C([H])([H])[H])C(C([H])([H])[H])(C([H])([H])[H])C([H])([H])[H])C([H])(C(=O)N([H])C1([H])c3c([H])c([H])c([H])c([H])c3C([H])([H])C([H])([H])C1([H])[H])C2([H])[H]

$$$$
22:0:0
     RDKit          3D

 89 98  0  0  1  0  0  0  0  0999 V2000
  -29.4790  -20.9850   20.5300 C   0  0  0  0  0  3  0  0  0  0  0  0
  -30.0620  -19.7680   18.5730 C   0  0  0  0  0  3  0  0  0  0  0  0
  -29.5740  -21.1370   19.1270 C   0  0  0  0  0  0  0  0  0  0  0  0
  -29.8210  -19.7870   21.2240 C   0  0  0  0  0  0  0  0  0  0  0  0
  -30.4460  -18.4640   19.3250 C   0  0  0  0  0  0  0  0  0  0  0  0
  -29.6120  -19.7350   22.7330 C   0  0  0  0  0  1  0  0  0  0  0  0
  -30.2960  -18.6300   20.6650 N   0  0  0  0  0  0  0  0  0  0  0  0
  -31.5290  -15.6930   19.1650 C   0  0  0  0  0  0  0  0  0  0  0  0
  -31.4370  -13.1650   18.4910 C   0  0  0  0  0  2  0  0  0  0  0  0
  -30.3510  -12.7690   17.4620 C   0  0  0  0  0  2  0  0  0  0  0  0
  -29.0090  -12.4960   18.1640 C   0  0  0  0  0  2  0  0  0  0  0  0
  -28.6890  -13.5810   19.2190 C   0  0  0  0  0  3  0  0  0  0  0  0
  -29.8850  -13.9070   20.1340 C   0  0  0  0  0  2  0  0  0  0  0  0
  -30.9550  -14.3850   19.2440 N   0  0  0  0  0  0  0  0  0  0  0  0
  -32.7420  -15.6200   18.8970 O   0  0  0  0  0  0  0  0  0  0  0  0
  -30.8040  -16.9570   18.8140 N   0  0  0  0  0  0  0  0  0  0  0  0
  -30.7310  -16.9430   17.8020 H   0  0  0  0  0  0  0  0  0  0  0  0
  -26.6080  -14.2170   20.5380 C   0  0  0  0  0  0  0  0  0  0  0  0
  -25.5510  -13.4880   21.0040 C   0  0  0  0  0  0  0  0  0  0  0  0
  -25.8440  -12.1210   20.6980 C   0  0  0  0  0  0  0  0  0  0  0  0
  -27.4690  -13.3030   19.9600 N   0  0  0  0  0  0  0  0  0  0  0  0
  -27.0380  -12.0250   20.1220 N   0  0  0  0  0  0  0  0  0  0  0  0
  -25.0300  -10.9100   20.8720 C   0  0  0  0  0  0  0  0  0  0  0  0
  -25.3600   -9.9230   21.8260 C   0  0  0  0  0  3  0  0  0  0  0  0
  -24.5460   -8.7820   21.9880 C   0  0  0  0  0  3  0  0  0  0  0  0
  -23.3860   -8.6190   21.1930 C   0  0  0  0  0  0  0  0  0  0  0  0
  -23.0720   -9.5970   20.2330 C   0  0  0  0  0  3  0  0  0  0  0  0
  -23.8870  -10.7300   20.0690 C   0  0  0  0  0  3  0  0  0  0  0  0
  -22.5490   -7.5320   21.2600 O   0  0  0  0  0  0  0  0  0  0  0  0
  -22.1550   -6.9980   22.4610 C   0  0  0  0  0  0  0  0  0  0  0  0
  -21.4100   -7.7450   23.3990 C   0  0  0  0  0  3  0  0  0  0  0  0
  -20.9640   -7.1390   24.5910 C   0  0  0  0  0  3  0  0  0  0  0  0
  -21.2610   -5.7870   24.8450 C   0  0  0  0  0  0  0  0  0  0  0  0
  -21.9970   -5.0370   23.9110 C   0  0  0  0  0  3  0  0  0  0  0  0
  -22.4420   -5.6410   22.7210 C   0  0  0  0  0  0  0  0  0  0  0  0
  -23.1350   -4.9100   21.8160 F   0  0  0  0  0  0  0  0  0  0  0  0
  -20.8310   -5.2030   25.9880 F   0  0  0  0  0  0  0  0  0  0  0  0
  -24.2960  -14.0390   21.6170 C   0  0  0  0  0  0  0  0  0  0  0  0
  -23.6870  -13.2960   22.5350 N   0  0  0  0  0  0  0  0  0  0  0  0
  -23.8760  -15.1550   21.3180 O   0  0  0  0  0  0  0  0  0  0  0  0
  -24.0500  -12.3930   22.7980 H   0  0  0  0  0  0  0  0  0  0  0  0
  -22.8460  -13.6400   22.9770 H   0  0  0  0  0  0  0  0  0  0  0  0
  -26.9060  -15.5750   20.5350 N   0  0  0  0  0  0  0  0  0  0  0  0
  -26.3250  -16.2600   21.0070 H   0  0  0  0  0  0  0  0  0  0  0  0
  -27.7930  -15.9500   20.2230 H   0  0  0  0  0  0  0  0  0  0  0  0
  -27.7690  -23.1980   18.1310 C   0  0  0  0  0  2  0  0  0  0  0  0
  -29.1920  -22.7540   18.4690 C   0  0  0  0  0  3  0  0  0  0  0  0
  -28.4110  -24.3020   18.9510 C   0  0  0  0  0  3  0  0  0  0  0  0
  -28.2670  -25.8680   18.3840 O   0  0  0  0  0  0  0  0  0  0  0  0
  -24.7610  -31.1340   22.5820 C   0  0  0  0  0  0  0  0  0  0  0  0
  -27.1940  -26.8830   18.6380 C   0  0  0  0  0  0  0  0  0  0  0  0
  -23.4600  -29.8960   20.9040 C   0  0  0  0  0  3  0  0  0  0  0  0
  -24.8110  -28.6060   19.1120 C   0  0  0  0  0  0  0  0  0  0  0  0
  -25.9770  -30.3040   20.5040 C   0  0  0  0  0  2  0  0  0  0  0  0
  -26.0440  -29.0020   19.6440 C   0  0  0  0  0  0  0  0  0  0  0  0
  -27.2260  -28.1730   19.3730 C   0  0  0  0  0  3  0  0  0  0  0  0
  -25.9150  -26.6420   18.0870 C   0  0  0  0  0  3  0  0  0  0  0  0
  -24.7690  -27.4540   18.3080 C   0  0  0  0  0  3  0  0  0  0  0  0
  -23.5600  -29.4290   19.4280 C   0  0  0  0  0  2  0  0  0  0  0  0
  -24.7600  -30.4660   21.3840 N   0  0  0  0  0  0  0  0  0  0  0  0
  -23.7270  -31.2690   23.2560 O   0  0  0  0  0  0  0  0  0  0  0  0
  -22.9370  -28.7310   21.7840 C   0  0  0  0  0  0  0  0  0  0  0  0
  -21.6290  -28.4190   21.6960 N   0  0  0  0  0  0  0  0  0  0  0  0
  -23.7120  -28.1130   22.5200 O   0  0  0  0  0  0  0  0  0  0  0  0
  -21.0520  -28.9780   21.0820 H   0  0  0  0  0  0  0  0  0  0  0  0
  -18.4680  -26.6750   22.0990 C   0  0  0  0  0  0  0  0  0  0  0  0
  -20.9600  -27.3150   22.3920 C   0  0  0  0  0  3  0  0  0  0  0  0
  -21.2780  -25.9600   21.7160 C   0  0  0  0  0  2  0  0  0  0  0  0
  -20.2300  -25.5440   20.6780 C   0  0  0  0  0  2  0  0  0  0  0  0
  -18.8490  -25.4230   21.3280 C   0  0  0  0  0  2  0  0  0  0  0  0
  -19.4590  -27.5710   22.5870 C   0  0  0  0  0  0  0  0  0  0  0  0
  -19.0490  -28.7350   23.2740 C   0  0  0  0  0  3  0  0  0  0  0  0
  -17.6840  -29.0060   23.4790 C   0  0  0  0  0  3  0  0  0  0  0  0
  -16.7090  -28.1090   23.0050 C   0  0  0  0  0  3  0  0  0  0  0  0
  -17.1020  -26.9460   22.3210 C   0  0  0  0  0  3  0  0  0  0  0  0
  -26.0570  -31.7730   23.1630 C   0  0  0  0  0  3  0  0  0  0  0  0
  -25.6830  -33.0310   23.8360 N   0  0  0  0  0  0  0  0  0  0  0  0
  -25.9240  -34.2580   23.3570 C   0  0  0  0  0  0  0  0  0  0  0  0
  -26.5440  -34.4510   22.3090 O   0  0  0  0  0  0  0  0  0  0  0  0
  -25.1140  -32.9450   24.6640 H   0  0  0  0  0  0  0  0  0  0  0  0
  -24.1120  -36.0040   23.5230 C   0  0  0  0  0  1  0  0  0  0  0  0
  -25.4000  -35.4640   24.1680 C   0  0  0  0  0  3  0  0  0  0  0  0
  -27.5160  -36.2260   25.1540 C   0  0  0  0  0  1  0  0  0  0  0  0
  -26.3820  -36.5620   24.2960 N   0  0  0  0  0  0  0  0  0  0  0  0
  -25.9430  -37.4020   24.6660 H   0  0  0  0  0  0  0  0  0  0  0  0
  -26.8130  -30.8240   24.1740 C   0  0  1  0  0  0  0  0  0  0  0  0
  -25.9040  -30.2230   25.2740 C   0  0  0  0  0  1  0  0  0  0  0  0
  -27.4800  -29.6470   23.4270 C   0  0  0  0  0  1  0  0  0  0  0  0
  -27.9530  -31.6070   24.8660 C   0  0  0  0  0  1  0  0  0  0  0  0
  1  4  1  0
  2  3  1  0
  2  5  2  0
  3  1  2  0
  4  6  1  0
  5  7  1  0
  7  4  2  0
  8 14  1  0
  9 14  1  0
 10 11  1  0
 10  9  1  0
 12 11  1  0
 12 21  1  0
 12 13  1  0
 14 13  1  0
 15  8  2  0
 16  8  1  0
 16  5  1  0
 17 16  1  0
 18 19  2  0
 19 38  1  0
 20 23  1  0
 20 19  1  0
 21 22  1  0
 21 18  1  0
 22 20  2  0
 23 24  1  0
 24 25  2  0
 26 29  1  0
 26 25  1  0
 27 26  2  0
 28 27  1  0
 28 23  2  0
 29 30  1  0
 30 35  2  0
 30 31  1  0
 31 32  2  0
 32 33  1  0
 33 37  1  0
 34 33  2  0
 35 34  1  0
 36 35  1  0
 38 39  1  0
 39 41  1  0
 39 42  1  0
 40 38  2  0
 43 18  1  0
 43 44  1  0
 45 43  1  0
 46 47  1  0
 46 48  1  0
 47 48  1  0
 47  3  1  0
 48 49  1  0
 49 51  1  0
 50 61  2  0
 51 56  1  0
 52 60  1  0
 52 62  1  0
 53 59  1  0
 53 55  1  0
 54 60  1  0
 55 54  1  0
 56 55  2  0
 57 58  1  0
 57 51  2  0
 58 53  2  0
 59 52  1  0
 60 50  1  0
 62 64  2  0
 63 62  1  0
 65 63  1  0
 66 75  2  0
 66 71  1  0
 67 63  1  0
 67 71  1  0
 68 67  1  0
 69 70  1  0
 69 68  1  0
 70 66  1  0
 71 72  2  0
 72 73  1  0
 74 73  2  0
 75 74  1  0
 76 50  1  0
 76 77  1  0
 76 86  1  0
 77 80  1  0
 78 77  1  0
 78 82  1  0
 79 78  2  0
 82 81  1  0
 82 84  1  0
 84 85  1  0
 84 83  1  0
 86 89  1  1
 86 87  1  0
 88 86  1  0
M  ISO  4   8 100  16 100  48 101  49 101
M  END
>  <TORSDO>  (23) 
F 17

>  <SCORE>  (23) 
-8.963

>  <name>  (23) 
22

>  <ligand_id>  (23) 
22

>  <original_smiles>  (23) 
[H]c1c([H])c([H])c2c(c1[H])C([H])([H])C([H])([H])C([H])([H])C2([H])N([H])C(=O)C1([H])N(C(=O)C([H])(N([H])C(=O)C([H])(N([H])C([H])([H])[H])C([H])([H])[H])C(C([H])([H])[H])(C([H])([H])[H])C([H])([H])[H])C([H])([H])c2c([H])c(OC3([H])C([H])([H])C3([H])c3c([H])c(N([H])C(=O)N4C([H])([H])C([H])([H])C([H])([H])C([H])(n5nc(-c6c([H])c([H])c(Oc7c([H])c([H])c(F)c([H])c7F)c([H])c6[H])c(C(=O)N([H])[H])c5N([H])[H])C4([H])[H])nc(C([H])([H])[H])c3[H])c([H])c([H])c2C1([H])[H]

>  <smiles>  (23) 
[H]c1c([H])c([H])c2c(c1[H])C([H])([H])C([H])([H])C([H])([H])C2([H])N([H])C(=O)C1([H])N(C(=O)C([H])(N([H])C(=O)C([H])(N([H])C([H])([H])[H])C([H])([H])[H])C(C([H])([H])[H])(C([H])([H])[H])C([H])([H])[H])C([H])([H])c2c([H])c(OC3([H])C([H])([H])C3([H])c3c([H])c(N([H])C(=O)N4C([H])([H])C([H])([H])C([H])([H])C([H])(n5nc(-c6c([H])c([H])c(Oc7c([H])c([H])c(F)c([H])c7F)c([H])c6[H])c(C(=O)N([H])[H])c5N([H])[H])C4([H])[H])nc(C([H])([H])[H])c3[H])c([H])c([H])c2C1([H])[H]

$$$$
23:0:0
     RDKit          3D

 90 98  0  0  1  0  0  0  0  0999 V2000
  -28.4010  -21.8830   20.1560 C   0  0  0  0  0  3  0  0  0  0  0  0
  -28.8090  -23.3050   20.1610 C   0  0  0  0  0  0  0  0  0  0  0  0
  -29.3500  -20.7500   20.0940 C   0  0  0  0  0  0  0  0  0  0  0  0
  -30.9650  -22.4340   20.0500 C   0  0  0  0  0  0  0  0  0  0  0  0
  -32.4440  -22.7470   19.9850 C   0  0  0  0  0  1  0  0  0  0  0  0
  -30.1450  -23.4970   20.1030 N   0  0  0  0  0  0  0  0  0  0  0  0
  -30.6450  -21.1300   20.0470 N   0  0  0  0  0  0  0  0  0  0  0  0
  -29.0300  -19.1080   20.0930 C   0  0  0  0  0  3  0  0  0  0  0  0
  -28.2440  -18.8720   21.1460 F   0  0  0  0  0  0  0  0  0  0  0  0
  -30.1380  -17.8170   20.0570 C   0  0  0  0  0  2  0  0  0  0  0  0
  -30.5440  -15.0690   20.0060 C   0  0  0  0  0  0  0  0  0  0  0  0
  -30.3920  -12.7100   19.0800 C   0  0  0  0  0  2  0  0  0  0  0  0
  -29.3990  -12.6470   17.8970 C   0  0  0  0  0  2  0  0  0  0  0  0
  -27.9590  -12.4260   18.4000 C   0  0  0  0  0  2  0  0  0  0  0  0
  -27.6050  -13.3430   19.6000 C   0  0  0  0  0  3  0  0  0  0  0  0
  -28.7180  -13.3780   20.6690 C   0  0  0  0  0  2  0  0  0  0  0  0
  -29.9480  -13.8060   19.9900 N   0  0  0  0  0  0  0  0  0  0  0  0
  -31.7320  -15.1290   19.6730 O   0  0  0  0  0  0  0  0  0  0  0  0
  -29.7820  -16.2630   20.1840 N   0  0  0  0  0  0  0  0  0  0  0  0
  -28.8170  -16.0870   20.4160 H   0  0  0  0  0  0  0  0  0  0  0  0
  -25.2730  -13.8930   20.4910 C   0  0  0  0  0  0  0  0  0  0  0  0
  -24.2300  -13.1060   20.8940 C   0  0  0  0  0  0  0  0  0  0  0  0
  -24.6900  -11.7570   20.7920 C   0  0  0  0  0  0  0  0  0  0  0  0
  -26.3000  -13.0240   20.1660 N   0  0  0  0  0  0  0  0  0  0  0  0
  -25.9620  -11.7310   20.4110 N   0  0  0  0  0  0  0  0  0  0  0  0
  -23.9710  -10.4890   20.9790 C   0  0  0  0  0  0  0  0  0  0  0  0
  -24.4080   -9.5210   21.9100 C   0  0  0  0  0  3  0  0  0  0  0  0
  -23.6870   -8.3200   22.0860 C   0  0  0  0  0  3  0  0  0  0  0  0
  -22.5150   -8.0790   21.3290 C   0  0  0  0  0  0  0  0  0  0  0  0
  -22.0980   -9.0350   20.3870 C   0  0  0  0  0  3  0  0  0  0  0  0
  -22.8200  -10.2270   20.2090 C   0  0  0  0  0  3  0  0  0  0  0  0
  -21.7640   -6.9310   21.4140 O   0  0  0  0  0  0  0  0  0  0  0  0
  -21.6600   -6.2250   22.5860 C   0  0  0  0  0  0  0  0  0  0  0  0
  -21.1130   -6.7990   23.7560 C   0  0  0  0  0  3  0  0  0  0  0  0
  -20.9590   -6.0160   24.9180 C   0  0  0  0  0  3  0  0  0  0  0  0
  -21.3440   -4.6620   24.9110 C   0  0  0  0  0  0  0  0  0  0  0  0
  -21.8850   -4.0880   23.7470 C   0  0  0  0  0  3  0  0  0  0  0  0
  -22.0390   -4.8680   22.5880 C   0  0  0  0  0  0  0  0  0  0  0  0
  -22.5410   -4.3040   21.4620 F   0  0  0  0  0  0  0  0  0  0  0  0
  -21.1910   -3.9080   26.0250 F   0  0  0  0  0  0  0  0  0  0  0  0
  -22.8500  -13.5730   21.2540 C   0  0  0  0  0  0  0  0  0  0  0  0
  -22.1720  -12.8530   22.1400 N   0  0  0  0  0  0  0  0  0  0  0  0
  -22.3840  -14.6110   20.7850 O   0  0  0  0  0  0  0  0  0  0  0  0
  -22.5650  -12.0150   22.5380 H   0  0  0  0  0  0  0  0  0  0  0  0
  -21.2480  -13.1440   22.4250 H   0  0  0  0  0  0  0  0  0  0  0  0
  -25.4290  -15.2680   20.3480 N   0  0  0  0  0  0  0  0  0  0  0  0
  -24.6690  -15.9180   20.5220 H   0  0  0  0  0  0  0  0  0  0  0  0
  -26.2440  -15.7140   19.9470 H   0  0  0  0  0  0  0  0  0  0  0  0
  -27.8270  -24.6490   20.1360 C   0  0  0  0  0  2  0  0  0  0  0  0
  -28.1930  -26.1700   20.3070 O   0  0  0  0  0  0  0  0  0  0  0  0
  -24.6390  -31.9230   23.3290 C   0  0  0  0  0  0  0  0  0  0  0  0
  -27.1600  -27.1900   20.2540 C   0  0  0  0  0  0  0  0  0  0  0  0
  -23.4200  -30.5510   21.6840 C   0  0  0  0  0  3  0  0  0  0  0  0
  -24.8500  -28.9770   20.2410 C   0  0  0  0  0  0  0  0  0  0  0  0
  -25.9800  -30.7860   21.5150 C   0  0  0  0  0  2  0  0  0  0  0  0
  -26.0380  -29.3990   20.8500 C   0  0  0  0  0  0  0  0  0  0  0  0
  -27.1930  -28.5250   20.8380 C   0  0  0  0  0  3  0  0  0  0  0  0
  -25.9400  -26.8780   19.6090 C   0  0  0  0  0  3  0  0  0  0  0  0
  -24.8150  -27.7280   19.6050 C   0  0  0  0  0  3  0  0  0  0  0  0
  -23.6330  -29.8880   20.2980 C   0  0  0  0  0  2  0  0  0  0  0  0
  -24.7000  -31.1090   22.2300 N   0  0  0  0  0  0  0  0  0  0  0  0
  -23.5570  -32.2130   23.8630 O   0  0  0  0  0  0  0  0  0  0  0  0
  -22.7350  -29.5420   22.6400 C   0  0  0  0  0  0  0  0  0  0  0  0
  -21.4110  -29.3580   22.4940 N   0  0  0  0  0  0  0  0  0  0  0  0
  -23.3990  -28.9250   23.4770 O   0  0  0  0  0  0  0  0  0  0  0  0
  -20.9300  -29.9070   21.7940 H   0  0  0  0  0  0  0  0  0  0  0  0
  -18.0350  -28.1180   22.9440 C   0  0  0  0  0  0  0  0  0  0  0  0
  -20.5850  -28.4180   23.2590 C   0  0  0  0  0  3  0  0  0  0  0  0
  -20.7170  -26.9810   22.7020 C   0  0  0  0  0  2  0  0  0  0  0  0
  -19.6400  -26.6330   21.6700 C   0  0  0  0  0  2  0  0  0  0  0  0
  -18.2440  -26.7650   22.2850 C   0  0  0  0  0  2  0  0  0  0  0  0
  -19.1350  -28.9000   23.3860 C   0  0  0  0  0  0  0  0  0  0  0  0
  -18.8860  -30.1650   23.9650 C   0  0  0  0  0  3  0  0  0  0  0  0
  -17.5710  -30.6470   24.1040 C   0  0  0  0  0  3  0  0  0  0  0  0
  -16.4860  -29.8610   23.6760 C   0  0  0  0  0  3  0  0  0  0  0  0
  -16.7190  -28.6000   23.1010 C   0  0  0  0  0  3  0  0  0  0  0  0
  -25.9240  -32.5440   23.9550 C   0  0  0  0  0  3  0  0  0  0  0  0
  -26.4170  -31.7780   25.2450 C   0  0  1  0  0  0  0  0  0  0  0  0
  -25.3110  -31.5650   26.3060 C   0  0  0  0  0  1  0  0  0  0  0  0
  -26.9880  -30.3900   24.8790 C   0  0  0  0  0  1  0  0  0  0  0  0
  -27.5680  -32.5670   25.9130 C   0  0  0  0  0  1  0  0  0  0  0  0
  -25.6310  -33.9500   24.2770 N   0  0  0  0  0  0  0  0  0  0  0  0
  -25.9360  -34.9940   23.4960 C   0  0  0  0  0  0  0  0  0  0  0  0
  -26.5630  -34.8760   22.4390 O   0  0  0  0  0  0  0  0  0  0  0  0
  -25.0730  -34.1150   25.1010 H   0  0  0  0  0  0  0  0  0  0  0  0
  -24.1880  -36.7840   23.2210 C   0  0  0  0  0  1  0  0  0  0  0  0
  -25.4770  -36.3910   23.9590 C   0  0  0  0  0  3  0  0  0  0  0  0
  -27.6500  -37.3020   24.6520 C   0  0  0  0  0  1  0  0  0  0  0  0
  -26.4980  -37.4440   23.7650 N   0  0  0  0  0  0  0  0  0  0  0  0
  -26.0960  -38.3650   23.9120 H   0  0  0  0  0  0  0  0  0  0  0  0
  1  2  2  0
  3  1  1  0
  4  6  2  0
  5  4  1  0
  6  2  1  0
  7  4  1  0
  7  3  2  0
  8  3  1  0
  8  9  1  0
 10  8  1  0
 10 19  1  0
 11 19  1  0
 12 17  1  0
 13 14  1  0
 13 12  1  0
 15 14  1  0
 15 24  1  0
 15 16  1  0
 17 11  1  0
 17 16  1  0
 18 11  2  0
 19 20  1  0
 21 22  2  0
 22 41  1  0
 23 22  1  0
 23 26  1  0
 24 25  1  0
 24 21  1  0
 25 23  2  0
 26 27  1  0
 27 28  2  0
 29 32  1  0
 29 28  1  0
 30 29  2  0
 31 30  1  0
 31 26  2  0
 32 33  1  0
 33 38  2  0
 33 34  1  0
 34 35  2  0
 36 35  1  0
 36 40  1  0
 37 36  2  0
 38 37  1  0
 39 38  1  0
 41 42  1  0
 42 45  1  0
 42 44  1  0
 43 41  2  0
 46 21  1  0
 46 47  1  0
 48 46  1  0
 49  2  1  0
 49 50  1  0
 51 62  2  0
 52 50  1  0
 52 57  1  0
 53 61  1  0
 53 63  1  0
 54 60  1  0
 54 56  1  0
 55 61  1  0
 56 55  1  0
 57 56  2  0
 58 52  2  0
 59 58  1  0
 59 54  2  0
 60 53  1  0
 61 51  1  0
 63 65  2  0
 64 63  1  0
 66 64  1  0
 67 76  2  0
 67 72  1  0
 68 64  1  0
 68 72  1  0
 69 68  1  0
 70 71  1  0
 70 69  1  0
 71 67  1  0
 72 73  2  0
 73 74  1  0
 75 74  2  0
 76 75  1  0
 77 51  1  0
 77 82  1  0
 77 78  1  0
 78 81  1  1
 78 79  1  0
 80 78  1  0
 82 85  1  0
 83 87  1  0
 83 82  1  0
 84 83  2  0
 87 86  1  0
 89 90  1  0
 89 87  1  0
 89 88  1  0
M  ISO  4  11 100  19 100  49 101  50 101
M  END
>  <TORSDO>  (24) 
F 19

>  <SCORE>  (24) 
-14.549

>  <name>  (24) 
23

>  <ligand_id>  (24) 
23

>  <original_smiles>  (24) 
[H]c1c(C([H])([H])Oc2c([H])c([H])c3c(c2[H])C([H])([H])N(C(=O)C([H])(N([H])C(=O)C([H])(N([H])C([H])([H])[H])C([H])([H])[H])C(C([H])([H])[H])(C([H])([H])[H])C([H])([H])[H])C([H])(C(=O)N([H])C2([H])c4c([H])c([H])c([H])c([H])c4C([H])([H])C([H])([H])C2([H])[H])C3([H])[H])nc(C([H])([H])[H])nc1C([H])(F)C([H])([H])N([H])C(=O)N1C([H])([H])C([H])([H])C([H])([H])C([H])(n2nc(-c3c([H])c([H])c(Oc4c([H])c([H])c(F)c([H])c4F)c([H])c3[H])c(C(=O)N([H])[H])c2N([H])[H])C1([H])[H]

>  <smiles>  (24) 
[H]c1c(C([H])([H])Oc2c([H])c([H])c3c(c2[H])C([H])([H])N(C(=O)C([H])(N([H])C(=O)C([H])(N([H])C([H])([H])[H])C([H])([H])[H])C(C([H])([H])[H])(C([H])([H])[H])C([H])([H])[H])C([H])(C(=O)N([H])C2([H])c4c([H])c([H])c([H])c([H])c4C([H])([H])C([H])([H])C2([H])[H])C3([H])[H])nc(C([H])([H])[H])nc1C([H])(F)C([H])([H])N([H])C(=O)N1C([H])([H])C([H])([H])C([H])([H])C([H])(n2nc(-c3c([H])c([H])c(Oc4c([H])c([H])c(F)c([H])c4F)c([H])c3[H])c(C(=O)N([H])[H])c2N([H])[H])C1([H])[H]

$$$$
24:0:0
     RDKit          3D

 96100  0  0  1  0  0  0  0  0999 V2000
  -26.6220  -18.6920   19.4010 C   0  0  0  0  0  3  0  0  0  0  0  0
  -27.2830  -19.8210   18.8080 C   0  0  0  0  0  0  0  0  0  0  0  0
  -28.5680  -19.5920   19.4150 C   0  0  0  0  0  0  0  0  0  0  0  0
  -29.8130  -20.4250   19.3530 C   0  0  0  0  0  1  0  0  0  0  0  0
  -28.6440  -18.4800   20.2000 N   0  0  0  0  0  0  0  0  0  0  0  0
  -27.4490  -17.8330   20.2650 N   0  0  0  0  0  0  0  0  0  0  0  0
  -30.9290  -13.6890   18.4520 C   0  0  0  0  0  0  0  0  0  0  0  0
  -31.4020  -11.3460   18.0780 C   0  0  0  0  0  2  0  0  0  0  0  0
  -29.9270  -10.9970   17.8130 C   0  0  0  0  0  2  0  0  0  0  0  0
  -29.1630  -10.9420   19.1570 C   0  0  0  0  0  2  0  0  0  0  0  0
  -29.5750  -11.9060   20.3560 C   0  0  0  0  0  3  0  0  0  0  0  0
  -31.1000  -12.1880   20.3220 C   0  0  0  0  0  2  0  0  0  0  0  0
  -31.3760  -12.5230   18.9520 N   0  0  0  0  0  0  0  0  0  0  0  0
  -31.6320  -14.0920   17.4820 O   0  0  0  0  0  0  0  0  0  0  0  0
  -27.6460  -13.4180   18.5260 C   0  0  0  0  0 15  0  0  0  0  0  0
  -29.5580  -15.5470   20.4740 C   0  0  0  0  0  1  0  0  0  0  0  0
  -25.9990  -14.7440   19.6830 C   0  0  0  0  0  1  0  0  0  0  0  0
  -27.3860  -16.3160   20.9400 C   0  0  0  0  0  1  0  0  0  0  0  0
  -29.6110  -14.1100   19.0130 N   0  0  0  0  0  1  0  0  0  0  0  0
  -28.2770  -14.0310   21.5200 C   0  0  0  0  0  3  0  0  0  0  0  0
  -26.8890  -13.4710   21.8890 C   0  0  0  0  0  0  0  0  0  0  0  0
  -26.6110  -12.0890   21.4180 C   0  0  0  0  0  0  0  0  0  0  0  0
  -28.5160  -12.6700   20.9340 N   0  0  0  0  0  0  0  0  0  0  0  0
  -27.6360  -11.6870   20.8470 N   0  0  0  0  0  0  0  0  0  0  0  0
  -25.5130  -11.0180   21.3400 C   0  0  0  0  0  0  0  0  0  0  0  0
  -25.6010   -9.7890   22.0710 C   0  0  0  0  0  3  0  0  0  0  0  0
  -24.6160   -8.7640   21.9770 C   0  0  0  0  0  3  0  0  0  0  0  0
  -23.4990   -8.9230   21.1270 C   0  0  0  0  0  0  0  0  0  0  0  0
  -23.4270  -10.1000   20.3540 C   0  0  0  0  0  3  0  0  0  0  0  0
  -24.4120  -11.1160   20.4510 C   0  0  0  0  0  3  0  0  0  0  0  0
  -22.5000   -7.9830   20.9540 O   0  0  0  0  0  0  0  0  0  0  0  0
  -21.8610   -7.3670   22.0120 C   0  0  0  0  0  0  0  0  0  0  0  0
  -21.1730   -8.1080   22.9960 C   0  0  0  0  0  3  0  0  0  0  0  0
  -20.4810   -7.4410   24.0290 C   0  0  0  0  0  3  0  0  0  0  0  0
  -20.4590   -6.0310   24.0750 C   0  0  0  0  0  0  0  0  0  0  0  0
  -21.1270   -5.2930   23.0840 C   0  0  0  0  0  3  0  0  0  0  0  0
  -21.8200   -5.9560   22.0570 C   0  0  0  0  0  0  0  0  0  0  0  0
  -22.4400   -5.2300   21.0960 F   0  0  0  0  0  0  0  0  0  0  0  0
  -19.7980   -5.3960   25.0680 F   0  0  0  0  0  0  0  0  0  0  0  0
  -25.6090  -14.0700   22.5210 C   0  0  0  0  0  0  0  0  0  0  0  0
  -24.8410  -13.3030   23.3030 N   0  0  0  0  0  0  0  0  0  0  0  0
  -25.2320  -15.2220   22.3280 O   0  0  0  0  0  0  0  0  0  0  0  0
  -25.1150  -12.3630   23.5560 H   0  0  0  0  0  0  0  0  0  0  0  0
  -23.9860  -13.6920   23.6730 H   0  0  0  0  0  0  0  0  0  0  0  0
  -29.5770  -16.0350   21.3910 N   0  0  0  0  0  0  0  0  0  0  0  0
  -29.3590  -16.9250   21.8210 H   0  0  0  0  0  0  0  0  0  0  0  0
  -30.4940  -16.0020   20.9790 H   0  0  0  0  0  0  0  0  0  0  0  0
  -24.9300  -15.3980   18.7750 C   0  0  0  0  0  2  0  0  0  0  0  0
  -23.9800  -16.2280   19.5390 N   0  0  0  0  0  4  0  0  0  0  0  0
  -23.5360  -15.6950   20.2670 H   0  0  0  0  0  0  0  0  0  0  0  0
  -23.2600  -16.5820   18.9360 H   0  0  0  0  0  0  0  0  0  0  0  0
  -24.4340  -17.0160   19.9720 H   0  0  0  0  0  0  0  0  0  0  0  0
  -27.3090  -22.1240   17.3490 C   0  0  0  0  0  3  0  0  0  0  0  0
  -26.7720  -21.0210   17.9860 N   0  0  0  0  0  0  0  0  0  0  0  0
  -26.5310  -23.5730   16.8460 C   0  0  0  0  0  2  0  0  0  0  0  0
  -27.0320  -24.9650   16.1810 O   0  0  0  0  0  0  0  0  0  0  0  0
  -25.3880  -28.7740   22.2200 C   0  0  0  0  0  0  0  0  0  0  0  0
  -26.4530  -26.1600   16.7540 C   0  0  0  0  0  0  0  0  0  0  0  0
  -23.6950  -28.3800   20.4830 C   0  0  0  0  0  3  0  0  0  0  0  0
  -24.5660  -27.8200   18.1430 C   0  0  0  0  0  0  0  0  0  0  0  0
  -26.1650  -28.6950   19.8220 C   0  0  0  0  0  2  0  0  0  0  0  0
  -25.9020  -27.8310   18.5730 C   0  0  0  0  0  0  0  0  0  0  0  0
  -26.8680  -27.0020   17.8750 C   0  0  0  0  0  3  0  0  0  0  0  0
  -25.1860  -26.4530   16.2390 C   0  0  0  0  0  3  0  0  0  0  0  0
  -24.2260  -27.1730   16.9580 C   0  0  0  0  0  3  0  0  0  0  0  0
  -23.5140  -28.5460   18.9570 C   0  0  0  0  0  2  0  0  0  0  0  0
  -25.1160  -28.6140   20.8910 N   0  0  0  0  0  0  0  0  0  0  0  0
  -24.4910  -28.7310   23.0750 O   0  0  0  0  0  0  0  0  0  0  0  0
  -23.1560  -26.9980   20.9350 C   0  0  0  0  0  0  0  0  0  0  0  0
  -21.8200  -26.8410   20.9740 N   0  0  0  0  0  0  0  0  0  0  0  0
  -23.9350  -26.0890   21.2350 O   0  0  0  0  0  0  0  0  0  0  0  0
  -21.2410  -27.6340   20.7300 H   0  0  0  0  0  0  0  0  0  0  0  0
  -18.5380  -25.3550   21.3540 C   0  0  0  0  0  0  0  0  0  0  0  0
  -21.1110  -25.6110   21.3380 C   0  0  0  0  0  3  0  0  0  0  0  0
  -21.0990  -24.6050   20.1650 C   0  0  0  0  0  2  0  0  0  0  0  0
  -19.8490  -24.7180   19.2840 C   0  0  0  0  0  2  0  0  0  0  0  0
  -18.5860  -24.4760   20.1160 C   0  0  0  0  0  2  0  0  0  0  0  0
  -19.7220  -25.8990   21.9190 C   0  0  0  0  0  0  0  0  0  0  0  0
  -19.6180  -26.7350   23.0500 C   0  0  0  0  0  3  0  0  0  0  0  0
  -18.3630  -27.0290   23.6160 C   0  0  0  0  0  3  0  0  0  0  0  0
  -17.1950  -26.4770   23.0620 C   0  0  0  0  0  3  0  0  0  0  0  0
  -17.2840  -25.6390   21.9360 C   0  0  0  0  0  3  0  0  0  0  0  0
  -26.8380  -29.0380   22.7260 C   0  0  0  0  0  3  0  0  0  0  0  0
  -27.6680  -27.7130   22.9450 C   0  0  1  0  0  0  0  0  0  0  0  0
  -26.9440  -26.6630   23.8190 C   0  0  0  0  0  1  0  0  0  0  0  0
  -28.0110  -27.0350   21.5960 C   0  0  0  0  0  1  0  0  0  0  0  0
  -29.0190  -28.0530   23.6190 C   0  0  0  0  0  1  0  0  0  0  0  0
  -26.7350  -29.7940   23.9840 N   0  0  0  0  0  0  0  0  0  0  0  0
  -26.9580  -31.1090   24.1060 C   0  0  0  0  0  0  0  0  0  0  0  0
  -27.3380  -31.8110   23.1660 O   0  0  0  0  0  0  0  0  0  0  0  0
  -26.3680  -29.2970   24.7820 H   0  0  0  0  0  0  0  0  0  0  0  0
  -25.3800  -32.4970   25.4930 C   0  0  0  0  0  1  0  0  0  0  0  0
  -26.7220  -31.7480   25.4890 C   0  0  0  0  0  3  0  0  0  0  0  0
  -29.0550  -31.9840   26.2140 C   0  0  0  0  0  1  0  0  0  0  0  0
  -27.8020  -32.6670   25.9050 N   0  0  0  0  0  0  0  0  0  0  0  0
  -27.5240  -33.2060   26.7210 H   0  0  0  0  0  0  0  0  0  0  0  0
  1  6  1  0
  2  1  2  0
  2  3  1  0
  3  5  2  0
  4  3  1  0
  5  6  1  0
  6 18  1  0
  7 13  1  0
  7 19  1  0
  8 13  1  0
  9  8  1  0
  9 10  1  0
 11 10  1  0
 11 23  1  0
 12 11  1  0
 13 12  1  0
 14  7  2  0
 16 45  1  0
 20 21  2  0
 21 40  1  0
 22 21  1  0
 23 20  1  0
 24 23  1  0
 24 22  2  0
 25 22  1  0
 25 26  1  0
 27 26  2  0
 28 27  1  0
 29 30  1  0
 29 28  2  0
 30 25  2  0
 31 28  1  0
 31 32  1  0
 32 37  2  0
 32 33  1  0
 33 34  2  0
 34 35  1  0
 35 39  1  0
 36 35  2  0
 37 36  1  0
 38 37  1  0
 40 41  1  0
 41 43  1  0
 41 44  1  0
 42 40  2  0
 45 46  1  0
 47 45  1  0
 48 49  1  0
 48 17  1  0
 49 52  1  0
 49 50  1  0
 51 49  1  0
 53 54  2  0
 54  2  1  0
 55 53  1  0
 56 58  1  0
 56 55  1  0
 57 68  2  0
 58 63  1  0
 59 67  1  0
 59 69  1  0
 60 62  1  0
 60 66  1  0
 61 67  1  0
 62 61  1  0
 63 62  2  0
 64 58  2  0
 64 65  1  0
 65 60  2  0
 66 59  1  0
 67 57  1  0
 69 70  1  0
 69 71  2  0
 72 70  1  0
 73 78  2  0
 73 82  1  0
 74 70  1  0
 74 78  1  0
 75 74  1  0
 76 77  1  0
 76 75  1  0
 77 73  1  0
 78 79  1  0
 79 80  2  0
 81 80  1  0
 82 81  2  0
 83 57  1  0
 83 84  1  0
 83 88  1  0
 84 87  1  1
 84 85  1  0
 86 84  1  0
 88 89  1  0
 88 91  1  0
 89 93  1  0
 90 89  2  0
 93 92  1  0
 93 95  1  0
 95 94  1  0
 95 96  1  0
M  ISO  4   7 100  19 100  55 101  56 101
M  END
>  <TORSDO>  (25) 
F 20

>  <SCORE>  (25) 
2.104

>  <name>  (25) 
24

>  <ligand_id>  (25) 
24

>  <original_smiles>  (25) 
[H]C(=Nc1c(C([H])([H])[H])nn(C2([H])C([H])([H])N(C(=O)N3C([H])([H])C([H])([H])C([H])([H])C([H])(n4nc(-c5c([H])c([H])c(Oc6c([H])c([H])c(F)c([H])c6F)c([H])c5[H])c(C(=O)N([H])[H])c4N([H])[H])C3([H])[H])C([H])([H])C2([H])C([H])([H])[N+]([H])([H])[H])c1[H])C([H])([H])Oc1c([H])c([H])c2c(c1[H])C([H])([H])N(C(=O)C([H])(N([H])C(=O)C([H])(N([H])C([H])([H])[H])C([H])([H])[H])C(C([H])([H])[H])(C([H])([H])[H])C([H])([H])[H])C([H])(C(=O)N([H])C1([H])c3c([H])c([H])c([H])c([H])c3C([H])([H])C([H])([H])C1([H])[H])C2([H])[H]

>  <smiles>  (25) 
[H]C(=Nc1c(C([H])([H])[H])nn(C2([H])C([H])([H])N(C(=O)N3C([H])([H])C([H])([H])C([H])([H])C([H])(n4nc(-c5c([H])c([H])c(Oc6c([H])c([H])c(F)c([H])c6F)c([H])c5[H])c(C(=O)N([H])[H])c4N([H])[H])C3([H])[H])C([H])([H])C2([H])C([H])([H])[N+]([H])([H])[H])c1[H])C([H])([H])Oc1c([H])c([H])c2c(c1[H])C([H])([H])N(C(=O)C([H])(N([H])C(=O)C([H])(N([H])C([H])([H])[H])C([H])([H])[H])C(C([H])([H])[H])(C([H])([H])[H])C([H])([H])[H])C([H])(C(=O)N([H])C1([H])c3c([H])c([H])c([H])c([H])c3C([H])([H])C([H])([H])C1([H])[H])C2([H])[H]

$$$$
25:0:0
     RDKit          3D

 93102  0  0  1  0  0  0  0  0999 V2000
  -28.0350  -19.7410   18.8740 C   0  0  0  0  0  2  0  0  0  0  0  0
  -29.3590  -20.5510   20.6570 C   0  0  0  0  0  2  0  0  0  0  0  0
  -27.8850  -21.2850   18.9200 C   0  0  0  0  0  3  0  0  0  0  0  0
  -28.2880  -21.6700   20.3570 C   0  0  0  0  0  3  0  0  0  0  0  0
  -26.4840  -21.7440   18.4680 C   0  0  0  0  0  1  0  0  0  0  0  0
  -28.7750  -19.2920   20.0830 N   0  0  2  0  0  4  0  0  0  0  0  0
  -28.0460  -19.0220   20.7270 H   0  0  0  0  0  0  0  0  0  0  0  0
  -29.2490  -23.6600   21.6700 C   0  0  0  0  0  2  0  0  0  0  0  0
  -28.4750  -25.2570   20.6170 C   0  0  0  0  0  0  0  0  0  0  0  0
  -29.2370  -24.9970   21.7170 N   0  0  0  0  0  0  0  0  0  0  0  0
  -28.1090  -24.1830   19.8900 N   0  0  0  0  0  0  0  0  0  0  0  0
  -28.6280  -23.1150   20.6100 N   0  0  0  0  0  0  0  0  0  0  0  0
  -28.3930  -26.5770   20.1460 O   0  0  0  0  0  0  0  0  0  0  0  0
  -24.6050  -31.8820   23.2330 C   0  0  0  0  0  0  0  0  0  0  0  0
  -27.2270  -27.3370   20.2010 C   0  0  0  0  0  0  0  0  0  0  0  0
  -23.3980  -30.4770   21.5960 C   0  0  0  0  0  3  0  0  0  0  0  0
  -24.8490  -28.9090   20.1890 C   0  0  0  0  0  0  0  0  0  0  0  0
  -25.9330  -30.7990   21.4120 C   0  0  0  0  0  2  0  0  0  0  0  0
  -26.0120  -29.4150   20.7840 C   0  0  0  0  0  0  0  0  0  0  0  0
  -27.2010  -28.6360   20.7870 C   0  0  0  0  0  3  0  0  0  0  0  0
  -26.0460  -26.8660   19.5930 C   0  0  0  0  0  3  0  0  0  0  0  0
  -24.8640  -27.6360   19.5920 C   0  0  0  0  0  3  0  0  0  0  0  0
  -23.6120  -29.7840   20.2230 C   0  0  0  0  0  2  0  0  0  0  0  0
  -24.6640  -31.0700   22.1380 N   0  0  0  0  0  0  0  0  0  0  0  0
  -23.5220  -32.1610   23.7680 O   0  0  0  0  0  0  0  0  0  0  0  0
  -22.7350  -29.4670   22.5620 C   0  0  0  0  0  0  0  0  0  0  0  0
  -21.4090  -29.2960   22.4370 N   0  0  0  0  0  0  0  0  0  0  0  0
  -23.4130  -28.8380   23.3790 O   0  0  0  0  0  0  0  0  0  0  0  0
  -20.9210  -29.8550   21.7510 H   0  0  0  0  0  0  0  0  0  0  0  0
  -18.0250  -28.1290   22.9490 C   0  0  0  0  0  0  0  0  0  0  0  0
  -20.5860  -28.3670   23.2130 C   0  0  0  0  0  3  0  0  0  0  0  0
  -20.6750  -26.9340   22.6380 C   0  0  0  0  0  2  0  0  0  0  0  0
  -19.5680  -26.6200   21.6280 C   0  0  0  0  0  2  0  0  0  0  0  0
  -18.1880  -26.7780   22.2730 C   0  0  0  0  0  2  0  0  0  0  0  0
  -19.1520  -28.8820   23.3750 C   0  0  0  0  0  0  0  0  0  0  0  0
  -18.9440  -30.1470   23.9660 C   0  0  0  0  0  3  0  0  0  0  0  0
  -17.6440  -30.6590   24.1350 C   0  0  0  0  0  3  0  0  0  0  0  0
  -16.5320  -29.9030   23.7270 C   0  0  0  0  0  3  0  0  0  0  0  0
  -16.7250  -28.6390   23.1390 C   0  0  0  0  0  3  0  0  0  0  0  0
  -25.8910  -32.5140   23.8520 C   0  0  0  0  0  3  0  0  0  0  0  0
  -26.4110  -31.7430   25.1270 C   0  0  1  0  0  0  0  0  0  0  0  0
  -25.3220  -31.5040   26.1980 C   0  0  0  0  0  1  0  0  0  0  0  0
  -26.9940  -30.3670   24.7330 C   0  0  0  0  0  1  0  0  0  0  0  0
  -27.5630  -32.5380   25.7860 C   0  0  0  0  0  1  0  0  0  0  0  0
  -25.5840  -33.9120   24.1840 N   0  0  0  0  0  0  0  0  0  0  0  0
  -25.9110  -34.9650   23.4230 C   0  0  0  0  0  0  0  0  0  0  0  0
  -26.5750  -34.8640   22.3890 O   0  0  0  0  0  0  0  0  0  0  0  0
  -25.0010  -34.0670   24.9940 H   0  0  0  0  0  0  0  0  0  0  0  0
  -24.1810  -36.7560   23.0790 C   0  0  0  0  0  1  0  0  0  0  0  0
  -25.4250  -36.3520   23.8850 C   0  0  0  0  0  3  0  0  0  0  0  0
  -27.5640  -37.2360   24.7050 C   0  0  0  0  0  1  0  0  0  0  0  0
  -26.4560  -37.4070   23.7690 N   0  0  0  0  0  0  0  0  0  0  0  0
  -26.0490  -38.3260   23.9240 H   0  0  0  0  0  0  0  0  0  0  0  0
  -29.5900  -18.0280   19.8470 C   0  0  0  0  0  2  0  0  0  0  0  0
  -29.8780  -17.0790   21.0770 C   0  0  0  0  0  2  0  0  0  0  0  0
  -30.5710  -14.6010   20.4620 C   0  0  0  0  0  0  0  0  0  0  0  0
  -30.3860  -12.3890   19.3400 C   0  0  0  0  0  2  0  0  0  0  0  0
  -29.4320  -12.5300   18.1320 C   0  0  0  0  0  2  0  0  0  0  0  0
  -27.9590  -12.3680   18.5620 C   0  0  0  0  0  2  0  0  0  0  0  0
  -27.6060  -13.2180   19.8110 C   0  0  0  0  0  3  0  0  0  0  0  0
  -28.6610  -13.0220   20.9220 C   0  0  0  0  0  2  0  0  0  0  0  0
  -29.9720  -13.3760   20.3520 N   0  0  0  0  0  0  0  0  0  0  0  0
  -31.7270  -14.8090   20.0810 O   0  0  0  0  0  0  0  0  0  0  0  0
  -29.7320  -15.6030   20.8490 N   0  0  0  0  0  0  0  0  0  0  0  0
  -28.8150  -15.2500   21.0810 H   0  0  0  0  0  0  0  0  0  0  0  0
  -25.2100  -13.8350   20.5190 C   0  0  0  0  0  0  0  0  0  0  0  0
  -24.1410  -13.0670   20.8900 C   0  0  0  0  0  0  0  0  0  0  0  0
  -24.6000  -11.7150   20.8670 C   0  0  0  0  0  0  0  0  0  0  0  0
  -26.2520  -12.9500   20.2910 N   0  0  0  0  0  0  0  0  0  0  0  0
  -25.8890  -11.6700   20.5600 N   0  0  0  0  0  0  0  0  0  0  0  0
  -23.8730  -10.4550   21.0600 C   0  0  0  0  0  0  0  0  0  0  0  0
  -24.3130   -9.4830   21.9850 C   0  0  0  0  0  3  0  0  0  0  0  0
  -23.5870   -8.2860   22.1670 C   0  0  0  0  0  3  0  0  0  0  0  0
  -22.4060   -8.0540   21.4230 C   0  0  0  0  0  0  0  0  0  0  0  0
  -21.9850   -9.0140   20.4850 C   0  0  0  0  0  3  0  0  0  0  0  0
  -22.7120  -10.2020   20.3030 C   0  0  0  0  0  3  0  0  0  0  0  0
  -21.6510   -6.9100   21.5130 O   0  0  0  0  0  0  0  0  0  0  0  0
  -21.6220   -6.1560   22.6580 C   0  0  0  0  0  0  0  0  0  0  0  0
  -21.2310   -6.7010   23.9000 C   0  0  0  0  0  3  0  0  0  0  0  0
  -21.1490   -5.8740   25.0370 C   0  0  0  0  0  3  0  0  0  0  0  0
  -21.4490   -4.5020   24.9340 C   0  0  0  0  0  0  0  0  0  0  0  0
  -21.8330   -3.9560   23.6960 C   0  0  0  0  0  3  0  0  0  0  0  0
  -21.9160   -4.7810   22.5620 C   0  0  0  0  0  0  0  0  0  0  0  0
  -22.2670   -4.2470   21.3660 F   0  0  0  0  0  0  0  0  0  0  0  0
  -21.3620   -3.7040   26.0240 F   0  0  0  0  0  0  0  0  0  0  0  0
  -22.7440  -13.5470   21.1580 C   0  0  0  0  0  0  0  0  0  0  0  0
  -22.0110  -12.8530   22.0220 N   0  0  0  0  0  0  0  0  0  0  0  0
  -22.3090  -14.5720   20.6340 O   0  0  0  0  0  0  0  0  0  0  0  0
  -22.3770  -12.0240   22.4670 H   0  0  0  0  0  0  0  0  0  0  0  0
  -21.0720  -13.1530   22.2410 H   0  0  0  0  0  0  0  0  0  0  0  0
  -25.3760  -15.2060   20.3330 N   0  0  0  0  0  0  0  0  0  0  0  0
  -24.5980  -15.8500   20.4210 H   0  0  0  0  0  0  0  0  0  0  0  0
  -26.2040  -15.6360   19.9450 H   0  0  0  0  0  0  0  0  0  0  0  0
  1  3  1  0
  1  6  1  0
  3  5  1  0
  3  4  1  0
  4 12  1  0
  4  2  1  0
  6  2  1  0
  6  7  1  1
  8 10  1  0
  9 10  2  0
 11 12  1  0
 11  9  2  0
 12  8  1  0
 13 15  1  0
 13  9  1  0
 14 25  2  0
 15 20  1  0
 16 24  1  0
 16 26  1  0
 17 23  1  0
 17 19  1  0
 18 24  1  0
 19 20  2  0
 19 18  1  0
 21 15  2  0
 22 21  1  0
 22 17  2  0
 23 16  1  0
 24 14  1  0
 26 28  2  0
 27 26  1  0
 29 27  1  0
 30 39  2  0
 30 35  1  0
 31 27  1  0
 31 35  1  0
 32 31  1  0
 33 34  1  0
 33 32  1  0
 34 30  1  0
 35 36  2  0
 36 37  1  0
 38 37  2  0
 39 38  1  0
 40 14  1  0
 40 45  1  0
 40 41  1  0
 41 44  1  1
 41 42  1  0
 43 41  1  0
 45 48  1  0
 46 50  1  0
 46 45  1  0
 47 46  2  0
 50 49  1  0
 52 50  1  0
 52 53  1  0
 52 51  1  0
 54  6  1  0
 54 55  1  0
 56 64  1  0
 57 62  1  0
 58 59  1  0
 58 57  1  0
 60 59  1  0
 60 69  1  0
 60 61  1  0
 62 56  1  0
 62 61  1  0
 63 56  2  0
 64 55  1  0
 64 65  1  0
 66 67  2  0
 67 86  1  0
 68 67  1  0
 68 71  1  0
 69 66  1  0
 69 70  1  0
 70 68  2  0
 71 72  1  0
 72 73  2  0
 74 77  1  0
 74 73  1  0
 75 74  2  0
 76 75  1  0
 76 71  2  0
 77 78  1  0
 78 79  1  0
 79 80  2  0
 81 80  1  0
 81 85  1  0
 82 81  2  0
 83 78  2  0
 83 82  1  0
 84 83  1  0
 86 87  1  0
 87 90  1  0
 87 89  1  0
 88 86  2  0
 91 92  1  0
 91 66  1  0
 93 91  1  0
M  ISO  4   9 101  13 101  56 100  64 100
M  END
>  <TORSDO>  (26) 
F 19

>  <SCORE>  (26) 
-14.594

>  <name>  (26) 
25

>  <ligand_id>  (26) 
25

>  <original_smiles>  (26) 
[H]c1c([H])c([H])c2c(c1[H])C([H])([H])C([H])([H])C([H])([H])C2([H])N([H])C(=O)C1([H])N(C(=O)C([H])(N([H])C(=O)C([H])(N([H])C([H])([H])[H])C([H])([H])[H])C(C([H])([H])[H])(C([H])([H])[H])C([H])([H])[H])C([H])([H])c2c([H])c(Oc3nc([H])n(C4([H])C([H])(C([H])([H])[H])C([H])([H])[N+]([H])(C([H])([H])C([H])([H])N([H])C(=O)N5C([H])([H])C([H])([H])C([H])([H])C([H])(n6nc(-c7c([H])c([H])c(Oc8c([H])c([H])c(F)c([H])c8F)c([H])c7[H])c(C(=O)N([H])[H])c6N([H])[H])C5([H])[H])C4([H])[H])n3)c([H])c([H])c2C1([H])[H]

>  <smiles>  (26) 
[H]c1c([H])c([H])c2c(c1[H])C([H])([H])C([H])([H])C([H])([H])C2([H])N([H])C(=O)C1([H])N(C(=O)C([H])(N([H])C(=O)C([H])(N([H])C([H])([H])[H])C([H])([H])[H])C(C([H])([H])[H])(C([H])([H])[H])C([H])([H])[H])C([H])([H])c2c([H])c(Oc3nc([H])n(C4([H])C([H])(C([H])([H])[H])C([H])([H])[N+]([H])(C([H])([H])C([H])([H])N([H])C(=O)N5C([H])([H])C([H])([H])C([H])([H])C([H])(n6nc(-c7c([H])c([H])c(Oc8c([H])c([H])c(F)c([H])c8F)c([H])c7[H])c(C(=O)N([H])[H])c6N([H])[H])C5([H])[H])C4([H])[H])n3)c([H])c([H])c2C1([H])[H]

$$$$
26:0:0
     RDKit          3D

 90 99  0  0  1  0  0  0  0  0999 V2000
  -26.8380  -21.4280   20.1750 C   0  0  0  0  0  2  0  0  0  0  0  0
  -26.8570  -22.7680   19.4400 C   0  0  0  0  0  2  0  0  0  0  0  0
  -28.3110  -21.6200   20.5730 C   0  0  0  0  0  3  0  0  0  0  0  0
  -27.9370  -23.3390   20.3770 C   0  0  2  0  0  0  0  0  0  0  0  0
  -27.3650  -23.9010   21.6920 C   0  0  0  0  0  1  0  0  0  0  0  0
  -28.7650  -18.9150   20.3590 C   0  0  0  0  0  3  0  0  0  0  0  0
  -30.4940  -20.1100   20.0340 C   0  0  0  0  0  3  0  0  0  0  0  0
  -29.8240  -17.9600   20.2060 C   0  0  0  0  0  0  0  0  0  0  0  0
  -30.9270  -18.8100   19.9850 N   0  0  0  0  0  0  0  0  0  0  0  0
  -29.1710  -20.3280   20.2390 N   0  0  0  0  0  0  0  0  0  0  0  0
  -30.6330  -15.2600   20.1520 C   0  0  0  0  0  0  0  0  0  0  0  0
  -30.5890  -12.8890   19.2060 C   0  0  0  0  0  2  0  0  0  0  0  0
  -29.6320  -12.7990   17.9940 C   0  0  0  0  0  2  0  0  0  0  0  0
  -28.1790  -12.5650   18.4510 C   0  0  0  0  0  2  0  0  0  0  0  0
  -27.7760  -13.4820   19.6320 C   0  0  0  0  0  3  0  0  0  0  0  0
  -28.8480  -13.5070   20.7410 C   0  0  0  0  0  2  0  0  0  0  0  0
  -30.0930  -13.9690   20.1130 N   0  0  0  0  0  0  0  0  0  0  0  0
  -31.8410  -15.3460   19.8870 O   0  0  0  0  0  0  0  0  0  0  0  0
  -29.7680  -16.4040   20.2900 N   0  0  0  0  0  0  0  0  0  0  0  0
  -28.8260  -16.0790   20.4540 H   0  0  0  0  0  0  0  0  0  0  0  0
  -25.4090  -14.0380   20.4250 C   0  0  0  0  0  0  0  0  0  0  0  0
  -24.3580  -13.2540   20.8050 C   0  0  0  0  0  0  0  0  0  0  0  0
  -24.8310  -11.9060   20.7530 C   0  0  0  0  0  0  0  0  0  0  0  0
  -26.4520  -13.1700   20.1540 N   0  0  0  0  0  0  0  0  0  0  0  0
  -26.1160  -11.8830   20.4210 N   0  0  0  0  0  0  0  0  0  0  0  0
  -24.1180  -10.6370   20.9380 C   0  0  0  0  0  0  0  0  0  0  0  0
  -24.5220   -9.7000   21.9150 C   0  0  0  0  0  3  0  0  0  0  0  0
  -23.8070   -8.4960   22.0890 C   0  0  0  0  0  3  0  0  0  0  0  0
  -22.6730   -8.2210   21.2880 C   0  0  0  0  0  0  0  0  0  0  0  0
  -22.2890   -9.1470   20.3030 C   0  0  0  0  0  3  0  0  0  0  0  0
  -23.0030  -10.3430   20.1270 C   0  0  0  0  0  3  0  0  0  0  0  0
  -21.9350   -7.0650   21.3680 O   0  0  0  0  0  0  0  0  0  0  0  0
  -21.7810   -6.3900   22.5520 C   0  0  0  0  0  0  0  0  0  0  0  0
  -21.1720   -6.9880   23.6770 C   0  0  0  0  0  3  0  0  0  0  0  0
  -20.9720   -6.2360   24.8520 C   0  0  0  0  0  3  0  0  0  0  0  0
  -21.3700   -4.8870   24.9020 C   0  0  0  0  0  0  0  0  0  0  0  0
  -21.9710   -4.2880   23.7810 C   0  0  0  0  0  3  0  0  0  0  0  0
  -22.1720   -5.0370   22.6080 C   0  0  0  0  0  0  0  0  0  0  0  0
  -22.7330   -4.4510   21.5240 F   0  0  0  0  0  0  0  0  0  0  0  0
  -21.1700   -4.1610   26.0270 F   0  0  0  0  0  0  0  0  0  0  0  0
  -22.9620  -13.7170   21.1020 C   0  0  0  0  0  0  0  0  0  0  0  0
  -22.2450  -13.0030   21.9600 N   0  0  0  0  0  0  0  0  0  0  0  0
  -22.5150  -14.7500   20.6010 O   0  0  0  0  0  0  0  0  0  0  0  0
  -22.6190  -12.1660   22.3860 H   0  0  0  0  0  0  0  0  0  0  0  0
  -21.3080  -13.2970   22.1970 H   0  0  0  0  0  0  0  0  0  0  0  0
  -25.5590  -15.4140   20.2570 N   0  0  0  0  0  0  0  0  0  0  0  0
  -24.7810  -16.0490   20.3930 H   0  0  0  0  0  0  0  0  0  0  0  0
  -26.3630  -15.8620   19.8410 H   0  0  0  0  0  0  0  0  0  0  0  0
  -28.5530  -24.7980   19.7390 C   0  0  0  0  0  2  0  0  0  0  0  0
  -28.3850  -26.3140   20.2000 O   0  0  0  0  0  0  0  0  0  0  0  0
  -24.6170  -31.9400   23.1740 C   0  0  0  0  0  0  0  0  0  0  0  0
  -27.2980  -27.2700   20.0880 C   0  0  0  0  0  0  0  0  0  0  0  0
  -23.4440  -30.5280   21.5220 C   0  0  0  0  0  3  0  0  0  0  0  0
  -24.9280  -28.9790   20.0810 C   0  0  0  0  0  0  0  0  0  0  0  0
  -25.9970  -30.8340   21.3670 C   0  0  0  0  0  2  0  0  0  0  0  0
  -26.0970  -29.4470   20.6950 C   0  0  0  0  0  0  0  0  0  0  0  0
  -27.2750  -28.6050   20.6810 C   0  0  0  0  0  3  0  0  0  0  0  0
  -26.1070  -26.9150   19.4290 C   0  0  0  0  0  3  0  0  0  0  0  0
  -24.9490  -27.7310   19.4310 C   0  0  0  0  0  3  0  0  0  0  0  0
  -23.6780  -29.8470   20.1450 C   0  0  0  0  0  2  0  0  0  0  0  0
  -24.7050  -31.1260   22.0750 N   0  0  0  0  0  0  0  0  0  0  0  0
  -23.5250  -32.1980   23.7070 O   0  0  0  0  0  0  0  0  0  0  0  0
  -22.7840  -29.5120   22.4850 C   0  0  0  0  0  0  0  0  0  0  0  0
  -21.4550  -29.3390   22.3720 N   0  0  0  0  0  0  0  0  0  0  0  0
  -23.4710  -28.8810   23.2920 O   0  0  0  0  0  0  0  0  0  0  0  0
  -20.9560  -29.9080   21.7030 H   0  0  0  0  0  0  0  0  0  0  0  0
  -18.0930  -28.0920   22.8780 C   0  0  0  0  0  0  0  0  0  0  0  0
  -20.6510  -28.3770   23.1300 C   0  0  0  0  0  3  0  0  0  0  0  0
  -20.7690  -26.9610   22.5190 C   0  0  0  0  0  2  0  0  0  0  0  0
  -19.6620  -26.6460   21.5070 C   0  0  0  0  0  2  0  0  0  0  0  0
  -18.2810  -26.7640   22.1630 C   0  0  0  0  0  2  0  0  0  0  0  0
  -19.2060  -28.8580   23.3160 C   0  0  0  0  0  0  0  0  0  0  0  0
  -18.9770  -30.1050   23.9390 C   0  0  0  0  0  3  0  0  0  0  0  0
  -17.6660  -30.5790   24.1400 C   0  0  0  0  0  3  0  0  0  0  0  0
  -16.5690  -29.8120   23.7130 C   0  0  0  0  0  3  0  0  0  0  0  0
  -16.7830  -28.5740   23.0810 C   0  0  0  0  0  3  0  0  0  0  0  0
  -25.8810  -32.5980   23.8070 C   0  0  0  0  0  3  0  0  0  0  0  0
  -25.5460  -33.9940   24.1340 N   0  0  0  0  0  0  0  0  0  0  0  0
  -25.8770  -35.0570   23.3880 C   0  0  0  0  0  0  0  0  0  0  0  0
  -26.5590  -34.9660   22.3640 O   0  0  0  0  0  0  0  0  0  0  0  0
  -24.9360  -34.1350   24.9230 H   0  0  0  0  0  0  0  0  0  0  0  0
  -24.1430  -36.8470   23.0160 C   0  0  0  0  0  1  0  0  0  0  0  0
  -25.3700  -36.4380   23.8490 C   0  0  0  0  0  3  0  0  0  0  0  0
  -27.4690  -37.3420   24.7480 C   0  0  0  0  0  1  0  0  0  0  0  0
  -26.3960  -37.5010   23.7710 N   0  0  0  0  0  0  0  0  0  0  0  0
  -25.9760  -38.4160   23.9050 H   0  0  0  0  0  0  0  0  0  0  0  0
  -26.3900  -31.8460   25.0990 C   0  0  1  0  0  0  0  0  0  0  0  0
  -25.2860  -31.6070   26.1550 C   0  0  0  0  0  1  0  0  0  0  0  0
  -26.9970  -30.4710   24.7370 C   0  0  0  0  0  1  0  0  0  0  0  0
  -27.5170  -32.6610   25.7740 C   0  0  0  0  0  1  0  0  0  0  0  0
  2  1  1  0
  2  4  1  0
  3  1  1  0
  4  3  1  0
  4  5  1  1
  7 10  1  0
  8 19  1  0
  8  6  2  0
  9  7  2  0
  9  8  1  0
 10  6  1  0
 10  3  1  0
 11 19  1  0
 12 17  1  0
 13 14  1  0
 13 12  1  0
 15 14  1  0
 15 24  1  0
 15 16  1  0
 17 11  1  0
 17 16  1  0
 18 11  2  0
 19 20  1  0
 21 22  2  0
 22 41  1  0
 23 22  1  0
 23 26  1  0
 24 25  1  0
 24 21  1  0
 25 23  2  0
 26 27  1  0
 27 28  2  0
 29 32  1  0
 29 28  1  0
 30 29  2  0
 31 30  1  0
 31 26  2  0
 32 33  1  0
 33 38  2  0
 33 34  1  0
 34 35  2  0
 35 36  1  0
 36 40  1  0
 37 36  2  0
 38 37  1  0
 39 38  1  0
 41 42  1  0
 42 45  1  0
 42 44  1  0
 43 41  2  0
 46 47  1  0
 46 21  1  0
 48 46  1  0
 49 50  1  0
 49  4  1  0
 51 62  2  0
 52 50  1  0
 52 57  1  0
 53 61  1  0
 53 63  1  0
 54 60  1  0
 54 56  1  0
 55 61  1  0
 56 55  1  0
 57 56  2  0
 58 59  1  0
 58 52  2  0
 59 54  2  0
 60 53  1  0
 61 51  1  0
 63 65  2  0
 64 63  1  0
 66 64  1  0
 67 76  2  0
 67 72  1  0
 68 64  1  0
 68 72  1  0
 69 68  1  0
 70 71  1  0
 70 69  1  0
 71 67  1  0
 72 73  2  0
 73 74  1  0
 75 74  2  0
 76 75  1  0
 77 51  1  0
 77 78  1  0
 77 87  1  0
 78 81  1  0
 79 83  1  0
 79 78  1  0
 80 79  2  0
 83 82  1  0
 85 83  1  0
 85 86  1  0
 85 84  1  0
 87 90  1  1
 87 88  1  0
 89 87  1  0
M  ISO  4  11 100  19 100  49 101  50 101
M  END
>  <TORSDO>  (27) 
F 18

>  <SCORE>  (27) 
-14.687

>  <name>  (27) 
26

>  <ligand_id>  (27) 
26

>  <original_smiles>  (27) 
[H]c1c([H])c([H])c2c(c1[H])C([H])([H])C([H])([H])C([H])([H])C2([H])N([H])C(=O)C1([H])N(C(=O)C([H])(N([H])C(=O)C([H])(N([H])C([H])([H])[H])C([H])([H])[H])C(C([H])([H])[H])(C([H])([H])[H])C([H])([H])[H])C([H])([H])c2c([H])c(OC([H])([H])C3(C([H])([H])[H])C([H])([H])C([H])([H])C3([H])n3c([H])nc(N([H])C(=O)N4C([H])([H])C([H])([H])C([H])([H])C([H])(n5nc(-c6c([H])c([H])c(Oc7c([H])c([H])c(F)c([H])c7F)c([H])c6[H])c(C(=O)N([H])[H])c5N([H])[H])C4([H])[H])c3[H])c([H])c([H])c2C1([H])[H]

>  <smiles>  (27) 
[H]c1c([H])c([H])c2c(c1[H])C([H])([H])C([H])([H])C([H])([H])C2([H])N([H])C(=O)C1([H])N(C(=O)C([H])(N([H])C(=O)C([H])(N([H])C([H])([H])[H])C([H])([H])[H])C(C([H])([H])[H])(C([H])([H])[H])C([H])([H])[H])C([H])([H])c2c([H])c(OC([H])([H])C3(C([H])([H])[H])C([H])([H])C([H])([H])C3([H])n3c([H])nc(N([H])C(=O)N4C([H])([H])C([H])([H])C([H])([H])C([H])(n5nc(-c6c([H])c([H])c(Oc7c([H])c([H])c(F)c([H])c7F)c([H])c6[H])c(C(=O)N([H])[H])c5N([H])[H])C4([H])[H])c3[H])c([H])c([H])c2C1([H])[H]

$$$$
27:0:0
     RDKit          3D

 96105  0  0  1  0  0  0  0  0999 V2000
  -28.4690  -20.9680   21.5240 C   0  0  0  0  0  2  0  0  0  0  0  0
  -28.5660  -22.4740   19.8260 C   0  0  0  0  0  2  0  0  0  0  0  0
  -29.9440  -20.9400   21.0770 C   0  0  0  0  0  3  0  0  0  0  0  0
  -30.0500  -22.2040   20.1210 C   0  0  0  0  0  3  0  0  0  0  0  0
  -26.5150  -22.3210   21.1090 C   0  0  0  0  0  1  0  0  0  0  0  0
  -27.9750  -22.2890   21.1500 N   0  0  0  0  0  0  0  0  0  0  0  0
  -30.2020  -17.3290   19.4080 C   0  0  0  0  0  3  0  0  0  0  0  0
  -30.9870  -18.6970   21.6850 C   0  0  0  0  0  3  0  0  0  0  0  0
  -30.8590  -16.5700   20.4130 C   0  0  0  0  0  0  0  0  0  0  0  0
  -30.2990  -19.4500   20.7010 C   0  0  0  0  0  0  0  0  0  0  0  0
  -29.8950  -18.7190   19.5390 C   0  0  0  0  0  0  0  0  0  0  0  0
  -31.2630  -17.3080   21.5640 C   0  0  0  0  0  0  0  0  0  0  0  0
  -29.1080  -19.3620   18.4090 C   0  0  0  0  0  1  0  0  0  0  0  0
  -32.0500  -16.6560   22.6920 C   0  0  0  0  0  1  0  0  0  0  0  0
  -31.3620  -15.1350   20.1480 C   0  0  0  0  0  0  0  0  0  0  0  0
  -30.9060  -12.8500   19.3070 C   0  0  0  0  0  2  0  0  0  0  0  0
  -30.0140  -12.9330   18.0530 C   0  0  0  0  0  2  0  0  0  0  0  0
  -28.5330  -12.8900   18.4630 C   0  0  0  0  0  2  0  0  0  0  0  0
  -28.1970  -13.8960   19.5920 C   0  0  0  0  0  3  0  0  0  0  0  0
  -29.2310  -13.8800   20.7410 C   0  0  0  0  0  2  0  0  0  0  0  0
  -30.5690  -14.0150   20.1560 N   0  0  0  0  0  0  0  0  0  0  0  0
  -32.5300  -15.0600   19.7630 O   0  0  0  0  0  0  0  0  0  0  0  0
  -25.8930  -14.7070   20.3610 C   0  0  0  0  0  0  0  0  0  0  0  0
  -24.7490  -14.0340   20.6940 C   0  0  0  0  0  0  0  0  0  0  0  0
  -25.0640  -12.6460   20.5870 C   0  0  0  0  0  0  0  0  0  0  0  0
  -26.8330  -13.7330   20.0760 N   0  0  0  0  0  0  0  0  0  0  0  0
  -26.3430  -12.4840   20.2700 N   0  0  0  0  0  0  0  0  0  0  0  0
  -24.2080  -11.4600   20.7090 C   0  0  0  0  0  0  0  0  0  0  0  0
  -24.5430  -10.3910   21.5670 C   0  0  0  0  0  3  0  0  0  0  0  0
  -23.6920   -9.2700   21.6780 C   0  0  0  0  0  3  0  0  0  0  0  0
  -22.4910   -9.2130   20.9320 C   0  0  0  0  0  0  0  0  0  0  0  0
  -22.1740  -10.2720   20.0620 C   0  0  0  0  0  3  0  0  0  0  0  0
  -23.0250  -11.3840   19.9490 C   0  0  0  0  0  3  0  0  0  0  0  0
  -21.6150   -8.1570   20.9600 O   0  0  0  0  0  0  0  0  0  0  0  0
  -21.5140   -7.3340   22.0540 C   0  0  0  0  0  0  0  0  0  0  0  0
  -21.1800   -7.8330   23.3310 C   0  0  0  0  0  3  0  0  0  0  0  0
  -21.0190   -6.9460   24.4150 C   0  0  0  0  0  3  0  0  0  0  0  0
  -21.1840   -5.5620   24.2200 C   0  0  0  0  0  0  0  0  0  0  0  0
  -21.5090   -5.0610   22.9470 C   0  0  0  0  0  3  0  0  0  0  0  0
  -21.6720   -5.9460   21.8660 C   0  0  0  0  0  0  0  0  0  0  0  0
  -21.9670   -5.4570   20.6370 F   0  0  0  0  0  0  0  0  0  0  0  0
  -21.0190   -4.7080   25.2580 F   0  0  0  0  0  0  0  0  0  0  0  0
  -23.4130  -14.6440   21.0000 C   0  0  0  0  0  0  0  0  0  0  0  0
  -22.6260  -13.9940   21.8530 N   0  0  0  0  0  0  0  0  0  0  0  0
  -23.0800  -15.7270   20.5220 O   0  0  0  0  0  0  0  0  0  0  0  0
  -22.9050  -13.1140   22.2580 H   0  0  0  0  0  0  0  0  0  0  0  0
  -21.7270  -14.3800   22.1040 H   0  0  0  0  0  0  0  0  0  0  0  0
  -26.2060  -16.0570   20.2500 N   0  0  0  0  0  0  0  0  0  0  0  0
  -25.5100  -16.7810   20.3780 H   0  0  0  0  0  0  0  0  0  0  0  0
  -27.1170  -16.4160   19.9940 H   0  0  0  0  0  0  0  0  0  0  0  0
  -30.5370  -23.4470   20.8250 N   0  0  0  0  0  4  0  0  0  0  0  0
  -31.5060  -23.3140   21.0680 H   0  0  0  0  0  0  0  0  0  0  0  0
  -29.9990  -23.4410   21.6820 H   0  0  0  0  0  0  0  0  0  0  0  0
  -30.3890  -24.8010   20.1610 C   0  0  0  0  0  2  0  0  0  0  0  0
  -29.9410  -25.9590   21.1350 C   0  0  0  0  0  2  0  0  0  0  0  0
  -29.8860  -27.3270   20.6120 O   0  0  0  0  0  0  0  0  0  0  0  0
  -24.9470  -31.6600   23.5010 C   0  0  0  0  0  0  0  0  0  0  0  0
  -28.6290  -27.9100   20.5260 C   0  0  0  0  0  0  0  0  0  0  0  0
  -24.1750  -30.1540   21.6990 C   0  0  0  0  0  3  0  0  0  0  0  0
  -26.0100  -28.9930   20.3560 C   0  0  0  0  0  0  0  0  0  0  0  0
  -26.5990  -30.9780   21.7550 C   0  0  0  0  0  2  0  0  0  0  0  0
  -27.0000  -29.6790   21.0710 C   0  0  0  0  0  0  0  0  0  0  0  0
  -28.3170  -29.1490   21.1480 C   0  0  0  0  0  3  0  0  0  0  0  0
  -27.6190  -27.2560   19.7930 C   0  0  0  0  0  3  0  0  0  0  0  0
  -26.3180  -27.7870   19.7050 C   0  0  0  0  0  3  0  0  0  0  0  0
  -24.6270  -29.6080   20.3190 C   0  0  0  0  0  2  0  0  0  0  0  0
  -25.2500  -30.9490   22.3780 N   0  0  0  0  0  0  0  0  0  0  0  0
  -23.7940  -31.6900   23.9510 O   0  0  0  0  0  0  0  0  0  0  0  0
  -23.6530  -28.9760   22.5550 C   0  0  0  0  0  0  0  0  0  0  0  0
  -22.4140  -28.5370   22.2780 N   0  0  0  0  0  0  0  0  0  0  0  0
  -24.3620  -28.4630   23.4250 O   0  0  0  0  0  0  0  0  0  0  0  0
  -21.8940  -29.0140   21.5570 H   0  0  0  0  0  0  0  0  0  0  0  0
  -19.3460  -26.6220   22.3400 C   0  0  0  0  0  0  0  0  0  0  0  0
  -21.7350  -27.4140   22.9270 C   0  0  0  0  0  3  0  0  0  0  0  0
  -22.2150  -26.0630   22.3460 C   0  0  0  0  0  2  0  0  0  0  0  0
  -21.3360  -25.5500   21.2010 C   0  0  0  0  0  2  0  0  0  0  0  0
  -19.8900  -25.3690   21.6720 C   0  0  0  0  0  2  0  0  0  0  0  0
  -20.2130  -27.5880   22.9140 C   0  0  0  0  0  0  0  0  0  0  0  0
  -19.6550  -28.7480   23.4950 C   0  0  0  0  0  3  0  0  0  0  0  0
  -18.2620  -28.9470   23.5080 C   0  0  0  0  0  3  0  0  0  0  0  0
  -17.4090  -27.9820   22.9490 C   0  0  0  0  0  3  0  0  0  0  0  0
  -17.9490  -26.8210   22.3700 C   0  0  0  0  0  3  0  0  0  0  0  0
  -26.0280  -32.4880   24.2640 C   0  0  0  0  0  3  0  0  0  0  0  0
  -26.3950  -31.8800   25.6730 C   0  0  1  0  0  0  0  0  0  0  0  0
  -25.1640  -31.5710   26.5580 C   0  0  0  0  0  1  0  0  0  0  0  0
  -27.2000  -30.5690   25.5070 C   0  0  0  0  0  1  0  0  0  0  0  0
  -27.3060  -32.8640   26.4450 C   0  0  0  0  0  1  0  0  0  0  0  0
  -25.5180  -33.8590   24.4070 N   0  0  0  0  0  0  0  0  0  0  0  0
  -25.8500  -34.8810   23.6050 C   0  0  0  0  0  0  0  0  0  0  0  0
  -26.6810  -34.7780   22.6990 O   0  0  0  0  0  0  0  0  0  0  0  0
  -24.7950  -34.0030   25.0950 H   0  0  0  0  0  0  0  0  0  0  0  0
  -24.0010  -36.4060   22.8390 C   0  0  0  0  0  1  0  0  0  0  0  0
  -25.1470  -36.2310   23.8490 C   0  0  0  0  0  3  0  0  0  0  0  0
  -27.0330  -37.4380   24.8580 C   0  0  0  0  0  1  0  0  0  0  0  0
  -26.0590  -37.3920   23.7690 N   0  0  0  0  0  0  0  0  0  0  0  0
  -25.5350  -38.2630   23.7760 H   0  0  0  0  0  0  0  0  0  0  0  0
  2  4  1  0
  2  6  1  0
  3 10  1  0
  3  1  1  0
  4 51  1  0
  4  3  1  0
  5  6  1  0
  6  1  1  0
  7 11  2  0
  7  9  1  0
  9 12  2  0
 10  8  2  0
 11 10  1  0
 12  8  1  0
 12 14  1  0
 13 11  1  0
 15 21  1  0
 15  9  1  0
 16 21  1  0
 17 18  1  0
 17 16  1  0
 19 18  1  0
 19 26  1  0
 19 20  1  0
 21 20  1  0
 22 15  2  0
 23 24  2  0
 24 43  1  0
 25 24  1  0
 25 28  1  0
 26 27  1  0
 26 23  1  0
 27 25  2  0
 28 29  1  0
 29 30  2  0
 31 34  1  0
 31 30  1  0
 32 31  2  0
 33 32  1  0
 33 28  2  0
 34 35  1  0
 35 36  1  0
 36 37  2  0
 38 37  1  0
 38 42  1  0
 39 38  2  0
 40 35  2  0
 40 39  1  0
 41 40  1  0
 43 44  1  0
 44 47  1  0
 44 46  1  0
 45 43  2  0
 48 23  1  0
 48 49  1  0
 50 48  1  0
 51 52  1  0
 51 53  1  0
 54 51  1  0
 54 55  1  0
 56 55  1  0
 57 68  2  0
 58 56  1  0
 58 63  1  0
 59 67  1  0
 59 69  1  0
 60 62  1  0
 61 67  1  0
 62 63  2  0
 62 61  1  0
 64 58  2  0
 65 64  1  0
 65 60  2  0
 66 60  1  0
 66 59  1  0
 67 57  1  0
 69 71  2  0
 70 69  1  0
 72 70  1  0
 73 82  2  0
 73 78  1  0
 74 70  1  0
 75 74  1  0
 76 77  1  0
 76 75  1  0
 77 73  1  0
 78 74  1  0
 78 79  2  0
 79 80  1  0
 81 80  2  0
 82 81  1  0
 83 57  1  0
 83 88  1  0
 83 84  1  0
 84 87  1  1
 84 85  1  0
 86 84  1  0
 88 91  1  0
 89 93  1  0
 89 88  1  0
 90 89  2  0
 93 92  1  0
 95 96  1  0
 95 93  1  0
 95 94  1  0
M  ISO  4   9 100  15 100  55 101  56 101
M  END
>  <TORSDO>  (28) 
F 20

>  <SCORE>  (28) 
-7.650

>  <name>  (28) 
27

>  <ligand_id>  (28) 
27

>  <original_smiles>  (28) 
[H]c1c([H])c([H])c2c(c1[H])C([H])([H])C([H])([H])C([H])([H])C2([H])N([H])C(=O)C1([H])N(C(=O)C([H])(N([H])C(=O)C([H])(N([H])C([H])([H])[H])C([H])([H])[H])C(C([H])([H])[H])(C([H])([H])[H])C([H])([H])[H])C([H])([H])c2c([H])c(OC([H])([H])C([H])([H])[N+]([H])([H])C3([H])C([H])([H])N(C([H])([H])[H])C([H])([H])C3([H])c3c([H])c(C([H])([H])[H])c(C(=O)N4C([H])([H])C([H])([H])C([H])([H])C([H])(n5nc(-c6c([H])c([H])c(Oc7c([H])c([H])c(F)c([H])c7F)c([H])c6[H])c(C(=O)N([H])[H])c5N([H])[H])C4([H])[H])c([H])c3C([H])([H])[H])c([H])c([H])c2C1([H])[H]

>  <smiles>  (28) 
[H]c1c([H])c([H])c2c(c1[H])C([H])([H])C([H])([H])C([H])([H])C2([H])N([H])C(=O)C1([H])N(C(=O)C([H])(N([H])C(=O)C([H])(N([H])C([H])([H])[H])C([H])([H])[H])C(C([H])([H])[H])(C([H])([H])[H])C([H])([H])[H])C([H])([H])c2c([H])c(OC([H])([H])C([H])([H])[N+]([H])([H])C3([H])C([H])([H])N(C([H])([H])[H])C([H])([H])C3([H])c3c([H])c(C([H])([H])[H])c(C(=O)N4C([H])([H])C([H])([H])C([H])([H])C([H])(n5nc(-c6c([H])c([H])c(Oc7c([H])c([H])c(F)c([H])c7F)c([H])c6[H])c(C(=O)N([H])[H])c5N([H])[H])C4([H])[H])c([H])c3C([H])([H])[H])c([H])c([H])c2C1([H])[H]

$$$$
28:0:0
     RDKit          3D

 92101  0  0  1  0  0  0  0  0999 V2000
  -30.0110  -23.3530   20.8240 C   0  0  0  0  0  3  0  0  0  0  0  0
  -28.7010  -23.7650   20.4960 C   0  0  0  0  0  0  0  0  0  0  0  0
  -27.9040  -22.6850   20.0160 C   0  0  0  0  0  0  0  0  0  0  0  0
  -29.5980  -21.1170   20.3130 C   0  0  0  0  0  0  0  0  0  0  0  0
  -26.4600  -22.8890   19.6010 C   0  0  0  0  0  1  0  0  0  0  0  0
  -30.4430  -22.0590   20.7220 N   0  0  0  0  0  0  0  0  0  0  0  0
  -28.3520  -21.3890   19.9360 N   0  0  0  0  0  0  0  0  0  0  0  0
  -30.1160  -19.7940   20.2820 N   0  0  0  0  0  0  0  0  0  0  0  0
  -31.0940  -19.7670   20.5370 H   0  0  0  0  0  0  0  0  0  0  0  0
  -30.7080  -14.7510   20.0230 C   0  0  0  0  0  0  0  0  0  0  0  0
  -30.3940  -12.5330   18.9250 C   0  0  0  0  0  2  0  0  0  0  0  0
  -29.3820  -12.6640   17.7670 C   0  0  0  0  0  2  0  0  0  0  0  0
  -27.9380  -12.4870   18.2810 C   0  0  0  0  0  2  0  0  0  0  0  0
  -27.6540  -13.3150   19.5610 C   0  0  0  0  0  3  0  0  0  0  0  0
  -28.7830  -13.1510   20.6020 C   0  0  0  0  0  2  0  0  0  0  0  0
  -30.0350  -13.5490   19.9430 N   0  0  0  0  0  0  0  0  0  0  0  0
  -31.8580  -14.8200   19.5780 O   0  0  0  0  0  0  0  0  0  0  0  0
  -29.1070  -17.8130   21.5260 C   0  0  0  0  0  2  0  0  0  0  0  0
  -29.1040  -16.2710   21.3280 C   0  0  0  0  0  2  0  0  0  0  0  0
  -30.4010  -17.2670   19.6260 C   0  0  0  0  0  2  0  0  0  0  0  0
  -29.4870  -18.4320   20.1790 C   0  0  0  0  0  3  0  0  0  0  0  0
  -30.0050  -15.9400   20.2140 N   0  0  0  0  0  0  0  0  0  0  0  0
  -25.3100  -13.8800   20.4380 C   0  0  0  0  0  0  0  0  0  0  0  0
  -24.2690  -13.0930   20.8500 C   0  0  0  0  0  0  0  0  0  0  0  0
  -24.7320  -11.7450   20.7540 C   0  0  0  0  0  0  0  0  0  0  0  0
  -26.3410  -13.0110   20.1210 N   0  0  0  0  0  0  0  0  0  0  0  0
  -26.0030  -11.7190   20.3700 N   0  0  0  0  0  0  0  0  0  0  0  0
  -24.0180  -10.4760   20.9470 C   0  0  0  0  0  0  0  0  0  0  0  0
  -24.4610   -9.5150   21.8830 C   0  0  0  0  0  3  0  0  0  0  0  0
  -23.7460   -8.3120   22.0650 C   0  0  0  0  0  3  0  0  0  0  0  0
  -22.5750   -8.0600   21.3120 C   0  0  0  0  0  0  0  0  0  0  0  0
  -22.1530   -9.0090   20.3640 C   0  0  0  0  0  3  0  0  0  0  0  0
  -22.8680  -10.2050   20.1800 C   0  0  0  0  0  3  0  0  0  0  0  0
  -21.8310   -6.9090   21.4040 O   0  0  0  0  0  0  0  0  0  0  0  0
  -21.7240   -6.2140   22.5830 C   0  0  0  0  0  0  0  0  0  0  0  0
  -21.2150   -6.8130   23.7560 C   0  0  0  0  0  3  0  0  0  0  0  0
  -21.0560   -6.0430   24.9260 C   0  0  0  0  0  3  0  0  0  0  0  0
  -21.3950   -4.6770   24.9230 C   0  0  0  0  0  0  0  0  0  0  0  0
  -21.8970   -4.0780   23.7540 C   0  0  0  0  0  3  0  0  0  0  0  0
  -22.0580   -4.8450   22.5860 C   0  0  0  0  0  0  0  0  0  0  0  0
  -22.5220   -4.2590   21.4570 F   0  0  0  0  0  0  0  0  0  0  0  0
  -21.2360   -3.9360   26.0440 F   0  0  0  0  0  0  0  0  0  0  0  0
  -22.8900  -13.5580   21.2170 C   0  0  0  0  0  0  0  0  0  0  0  0
  -22.2200  -12.8420   22.1130 N   0  0  0  0  0  0  0  0  0  0  0  0
  -22.4180  -14.5930   20.7480 O   0  0  0  0  0  0  0  0  0  0  0  0
  -22.6160  -12.0040   22.5120 H   0  0  0  0  0  0  0  0  0  0  0  0
  -21.2980  -13.1350   22.4030 H   0  0  0  0  0  0  0  0  0  0  0  0
  -25.4550  -15.2550   20.2820 N   0  0  0  0  0  0  0  0  0  0  0  0
  -24.6810  -15.8940   20.4280 H   0  0  0  0  0  0  0  0  0  0  0  0
  -26.2710  -15.7040   19.8880 H   0  0  0  0  0  0  0  0  0  0  0  0
  -28.1190  -25.1790   20.9290 C   0  0  0  0  0  2  0  0  0  0  0  0
  -28.4160  -26.4620   20.2380 O   0  0  0  0  0  0  0  0  0  0  0  0
  -24.6260  -31.8750   23.2200 C   0  0  0  0  0  0  0  0  0  0  0  0
  -27.3310  -27.3530   20.1890 C   0  0  0  0  0  0  0  0  0  0  0  0
  -23.4600  -30.4620   21.5650 C   0  0  0  0  0  3  0  0  0  0  0  0
  -24.9500  -28.9360   20.1500 C   0  0  0  0  0  0  0  0  0  0  0  0
  -25.9990  -30.8140   21.4120 C   0  0  0  0  0  2  0  0  0  0  0  0
  -26.1070  -29.4380   20.7640 C   0  0  0  0  0  0  0  0  0  0  0  0
  -27.3050  -28.6580   20.7740 C   0  0  0  0  0  3  0  0  0  0  0  0
  -26.1590  -26.9130   19.5400 C   0  0  0  0  0  3  0  0  0  0  0  0
  -24.9790  -27.6800   19.5280 C   0  0  0  0  0  3  0  0  0  0  0  0
  -23.7010  -29.7930   20.1860 C   0  0  0  0  0  2  0  0  0  0  0  0
  -24.7130  -31.0690   22.1220 N   0  0  0  0  0  0  0  0  0  0  0  0
  -23.5330  -32.1380   23.7420 O   0  0  0  0  0  0  0  0  0  0  0  0
  -22.8010  -29.4350   22.5160 C   0  0  0  0  0  0  0  0  0  0  0  0
  -21.4770  -29.2480   22.3810 N   0  0  0  0  0  0  0  0  0  0  0  0
  -23.4800  -28.8110   23.3360 O   0  0  0  0  0  0  0  0  0  0  0  0
  -20.9870  -29.8030   21.6940 H   0  0  0  0  0  0  0  0  0  0  0  0
  -18.1060  -28.0240   22.8610 C   0  0  0  0  0  0  0  0  0  0  0  0
  -20.6610  -28.3000   23.1440 C   0  0  0  0  0  3  0  0  0  0  0  0
  -20.7750  -26.8710   22.5630 C   0  0  0  0  0  2  0  0  0  0  0  0
  -19.6820  -26.5460   21.5410 C   0  0  0  0  0  2  0  0  0  0  0  0
  -18.2960  -26.6790   22.1770 C   0  0  0  0  0  2  0  0  0  0  0  0
  -19.2170  -28.7910   23.3000 C   0  0  0  0  0  0  0  0  0  0  0  0
  -18.9860  -30.0490   23.8970 C   0  0  0  0  0  3  0  0  0  0  0  0
  -17.6770  -30.5400   24.0590 C   0  0  0  0  0  3  0  0  0  0  0  0
  -16.5800  -29.7690   23.6380 C   0  0  0  0  0  3  0  0  0  0  0  0
  -16.7950  -28.5120   23.0440 C   0  0  0  0  0  3  0  0  0  0  0  0
  -25.8930  -32.5260   23.8560 C   0  0  0  0  0  3  0  0  0  0  0  0
  -25.5620  -33.9210   24.1810 N   0  0  0  0  0  0  0  0  0  0  0  0
  -25.8980  -34.9780   23.4300 C   0  0  0  0  0  0  0  0  0  0  0  0
  -26.5910  -34.8830   22.4120 O   0  0  0  0  0  0  0  0  0  0  0  0
  -24.9520  -34.0680   24.9730 H   0  0  0  0  0  0  0  0  0  0  0  0
  -24.1700  -36.7600   23.0280 C   0  0  0  0  0  1  0  0  0  0  0  0
  -25.3870  -36.3600   23.8790 C   0  0  0  0  0  3  0  0  0  0  0  0
  -27.4860  -37.2570   24.7850 C   0  0  0  0  0  1  0  0  0  0  0  0
  -26.4160  -37.4220   23.8050 N   0  0  0  0  0  0  0  0  0  0  0  0
  -25.9980  -38.3380   23.9420 H   0  0  0  0  0  0  0  0  0  0  0  0
  -26.4030  -31.7630   25.1410 C   0  0  1  0  0  0  0  0  0  0  0  0
  -25.2990  -31.5100   26.1940 C   0  0  0  0  0  1  0  0  0  0  0  0
  -27.0100  -30.3930   24.7610 C   0  0  0  0  0  1  0  0  0  0  0  0
  -27.5330  -32.5740   25.8180 C   0  0  0  0  0  1  0  0  0  0  0  0
  2  1  2  0
  2 51  1  0
  3  2  1  0
  4  6  2  0
  5  3  1  0
  6  1  1  0
  7  3  2  0
  7  4  1  0
  8  4  1  0
  8  9  1  0
 10 22  1  0
 11 16  1  0
 12 13  1  0
 12 11  1  0
 14 13  1  0
 14 26  1  0
 14 15  1  0
 16 10  1  0
 16 15  1  0
 17 10  2  0
 19 18  1  0
 20 21  1  0
 20 22  1  0
 21  8  1  0
 21 18  1  0
 22 19  1  0
 23 24  2  0
 24 43  1  0
 25 24  1  0
 25 28  1  0
 26 27  1  0
 26 23  1  0
 27 25  2  0
 28 29  1  0
 29 30  2  0
 31 34  1  0
 31 30  1  0
 32 31  2  0
 33 32  1  0
 33 28  2  0
 34 35  1  0
 35 40  2  0
 35 36  1  0
 36 37  2  0
 38 37  1  0
 38 42  1  0
 39 38  2  0
 40 39  1  0
 41 40  1  0
 43 44  1  0
 44 47  1  0
 44 46  1  0
 45 43  2  0
 48 49  1  0
 48 23  1  0
 50 48  1  0
 52 51  1  0
 53 64  2  0
 54 52  1  0
 54 59  1  0
 55 63  1  0
 55 65  1  0
 56 62  1  0
 56 58  1  0
 57 63  1  0
 58 59  2  0
 58 57  1  0
 60 54  2  0
 61 60  1  0
 61 56  2  0
 62 55  1  0
 63 53  1  0
 65 67  2  0
 66 65  1  0
 68 66  1  0
 69 78  2  0
 69 74  1  0
 70 66  1  0
 70 74  1  0
 71 70  1  0
 72 73  1  0
 72 71  1  0
 73 69  1  0
 74 75  2  0
 75 76  1  0
 77 76  2  0
 78 77  1  0
 79 53  1  0
 79 80  1  0
 79 89  1  0
 80 83  1  0
 81 85  1  0
 81 80  1  0
 82 81  2  0
 85 84  1  0
 87 85  1  0
 87 88  1  0
 87 86  1  0
 89 92  1  1
 89 90  1  0
 91 89  1  0
M  ISO  4  10 100  22 100  51 101  52 101
M  END
>  <TORSDO>  (29) 
F 17

>  <SCORE>  (29) 
-14.309

>  <name>  (29) 
28

>  <ligand_id>  (29) 
28

>  <original_smiles>  (29) 
[H]c1nc(N([H])C2([H])C([H])([H])N(C(=O)N3C([H])([H])C([H])([H])C([H])([H])C([H])(n4nc(-c5c([H])c([H])c(Oc6c([H])c([H])c(F)c([H])c6F)c([H])c5[H])c(C(=O)N([H])[H])c4N([H])[H])C3([H])[H])C([H])([H])C2([H])[H])nc(C([H])([H])[H])c1C([H])([H])Oc1c([H])c([H])c2c(c1[H])C([H])([H])N(C(=O)C([H])(N([H])C(=O)C([H])(N([H])C([H])([H])[H])C([H])([H])[H])C(C([H])([H])[H])(C([H])([H])[H])C([H])([H])[H])C([H])(C(=O)N([H])C1([H])c3c([H])c([H])c([H])c([H])c3C([H])([H])C([H])([H])C1([H])[H])C2([H])[H]

>  <smiles>  (29) 
[H]c1nc(N([H])C2([H])C([H])([H])N(C(=O)N3C([H])([H])C([H])([H])C([H])([H])C([H])(n4nc(-c5c([H])c([H])c(Oc6c([H])c([H])c(F)c([H])c6F)c([H])c5[H])c(C(=O)N([H])[H])c4N([H])[H])C3([H])[H])C([H])([H])C2([H])[H])nc(C([H])([H])[H])c1C([H])([H])Oc1c([H])c([H])c2c(c1[H])C([H])([H])N(C(=O)C([H])(N([H])C(=O)C([H])(N([H])C([H])([H])[H])C([H])([H])[H])C(C([H])([H])[H])(C([H])([H])[H])C([H])([H])[H])C([H])(C(=O)N([H])C1([H])c3c([H])c([H])c([H])c([H])c3C([H])([H])C([H])([H])C1([H])[H])C2([H])[H]

$$$$
29:0:0
     RDKit          3D

 90 99  0  0  1  0  0  0  0  0999 V2000
  -28.9670  -18.1970   19.3030 C   0  0  0  0  0  3  0  0  0  0  0  0
  -29.7600  -17.3920   20.2650 C   0  0  0  0  0  0  0  0  0  0  0  0
  -30.1310  -18.5250   21.1460 C   0  0  0  0  0  0  0  0  0  0  0  0
  -29.0220  -20.6320   20.1460 C   0  0  0  0  0  0  0  0  0  0  0  0
  -31.6620  -19.2610   22.9660 C   0  0  0  0  0  1  0  0  0  0  0  0
  -28.6580  -19.6280   19.2430 N   0  0  0  0  0  0  0  0  0  0  0  0
  -29.7870  -19.9390   21.0860 N   0  0  0  0  0  0  0  0  0  0  0  0
  -30.9670  -18.2110   22.2270 N   0  0  0  0  0  0  0  0  0  0  0  0
  -31.3590  -17.2750   22.2530 H   0  0  0  0  0  0  0  0  0  0  0  0
  -30.3810  -15.7410   20.1910 C   0  0  0  0  0  0  0  0  0  0  0  0
  -30.4370  -13.2010   19.4160 C   0  0  0  0  0  2  0  0  0  0  0  0
  -29.5540  -12.8160   18.1980 C   0  0  0  0  0  2  0  0  0  0  0  0
  -28.1260  -12.4730   18.6480 C   0  0  0  0  0  2  0  0  0  0  0  0
  -27.6110  -13.4840   19.6990 C   0  0  0  0  0  3  0  0  0  0  0  0
  -28.6340  -13.8130   20.8080 C   0  0  0  0  0  2  0  0  0  0  0  0
  -29.8270  -14.3950   20.1540 N   0  0  0  0  0  0  0  0  0  0  0  0
  -31.6090  -15.6230   20.0250 O   0  0  0  0  0  0  0  0  0  0  0  0
  -25.2580  -13.9950   20.5010 C   0  0  0  0  0  0  0  0  0  0  0  0
  -24.2050  -13.2060   20.8620 C   0  0  0  0  0  0  0  0  0  0  0  0
  -24.6790  -11.8590   20.8060 C   0  0  0  0  0  0  0  0  0  0  0  0
  -26.3020  -13.1330   20.2290 N   0  0  0  0  0  0  0  0  0  0  0  0
  -25.9700  -11.8400   20.4830 N   0  0  0  0  0  0  0  0  0  0  0  0
  -23.9580  -10.5910   20.9800 C   0  0  0  0  0  0  0  0  0  0  0  0
  -24.3560   -9.6380   21.9440 C   0  0  0  0  0  3  0  0  0  0  0  0
  -23.6290   -8.4380   22.1080 C   0  0  0  0  0  3  0  0  0  0  0  0
  -22.4910   -8.1830   21.3070 C   0  0  0  0  0  0  0  0  0  0  0  0
  -22.1130   -9.1240   20.3340 C   0  0  0  0  0  3  0  0  0  0  0  0
  -22.8390  -10.3140   20.1690 C   0  0  0  0  0  3  0  0  0  0  0  0
  -21.7400   -7.0340   21.3780 O   0  0  0  0  0  0  0  0  0  0  0  0
  -21.5870   -6.3450   22.5550 C   0  0  0  0  0  0  0  0  0  0  0  0
  -20.9940   -6.9350   23.6920 C   0  0  0  0  0  3  0  0  0  0  0  0
  -20.7930   -6.1690   24.8580 C   0  0  0  0  0  3  0  0  0  0  0  0
  -21.1760   -4.8140   24.8870 C   0  0  0  0  0  0  0  0  0  0  0  0
  -21.7610   -4.2240   23.7530 C   0  0  0  0  0  3  0  0  0  0  0  0
  -21.9620   -4.9870   22.5900 C   0  0  0  0  0  0  0  0  0  0  0  0
  -22.5080   -4.4060   21.4940 F   0  0  0  0  0  0  0  0  0  0  0  0
  -20.9750   -4.0780   26.0050 F   0  0  0  0  0  0  0  0  0  0  0  0
  -22.8070  -13.6730   21.1430 C   0  0  0  0  0  0  0  0  0  0  0  0
  -22.0870  -12.9700   22.0090 N   0  0  0  0  0  0  0  0  0  0  0  0
  -22.3630  -14.7000   20.6290 O   0  0  0  0  0  0  0  0  0  0  0  0
  -22.4600  -12.1400   22.4460 H   0  0  0  0  0  0  0  0  0  0  0  0
  -21.1490  -13.2660   22.2390 H   0  0  0  0  0  0  0  0  0  0  0  0
  -25.4120  -15.3710   20.3460 N   0  0  0  0  0  0  0  0  0  0  0  0
  -24.6450  -16.0190   20.4830 H   0  0  0  0  0  0  0  0  0  0  0  0
  -26.2630  -15.8210   20.0350 H   0  0  0  0  0  0  0  0  0  0  0  0
  -29.9530  -22.7610   18.6810 C   0  0  0  0  0  2  0  0  0  0  0  0
  -30.5020  -22.9580   20.0460 C   0  0  0  0  0  2  0  0  0  0  0  0
  -29.0600  -22.4870   19.8860 C   0  0  2  0  0  0  0  0  0  0  0  0
  -27.9610  -23.9960   20.1000 C   0  0  0  0  0  2  0  0  0  0  0  0
  -28.1210  -25.7320   20.0050 O   0  0  0  0  0  0  0  0  0  0  0  0
  -24.6540  -31.8950   23.1320 C   0  0  0  0  0  0  0  0  0  0  0  0
  -27.1250  -26.9070   20.0150 C   0  0  0  0  0  0  0  0  0  0  0  0
  -23.4290  -30.5160   21.5060 C   0  0  0  0  0  3  0  0  0  0  0  0
  -24.8440  -28.8990   20.0380 C   0  0  0  0  0  0  0  0  0  0  0  0
  -26.0000  -30.6840   21.3170 C   0  0  0  0  0  2  0  0  0  0  0  0
  -26.0530  -29.2640   20.6420 C   0  0  0  0  0  0  0  0  0  0  0  0
  -27.1820  -28.2970   20.5970 C   0  0  0  0  0  3  0  0  0  0  0  0
  -25.8780  -26.7370   19.3640 C   0  0  0  0  0  3  0  0  0  0  0  0
  -24.7920  -27.6610   19.3750 C   0  0  0  0  0  3  0  0  0  0  0  0
  -23.6340  -29.8400   20.1210 C   0  0  0  0  0  2  0  0  0  0  0  0
  -24.7190  -31.0630   22.0380 N   0  0  0  0  0  0  0  0  0  0  0  0
  -23.5740  -32.1820   23.6750 O   0  0  0  0  0  0  0  0  0  0  0  0
  -22.7440  -29.5190   22.4810 C   0  0  0  0  0  0  0  0  0  0  0  0
  -21.4130  -29.3470   22.3750 N   0  0  0  0  0  0  0  0  0  0  0  0
  -23.4220  -28.8990   23.3030 O   0  0  0  0  0  0  0  0  0  0  0  0
  -20.9150  -29.8980   21.6890 H   0  0  0  0  0  0  0  0  0  0  0  0
  -18.0500  -28.0900   22.9300 C   0  0  0  0  0  0  0  0  0  0  0  0
  -20.6100  -28.3960   23.1530 C   0  0  0  0  0  3  0  0  0  0  0  0
  -20.7220  -26.9670   22.5710 C   0  0  0  0  0  2  0  0  0  0  0  0
  -19.6100  -26.6330   21.5720 C   0  0  0  0  0  2  0  0  0  0  0  0
  -18.2360  -26.7510   22.2370 C   0  0  0  0  0  2  0  0  0  0  0  0
  -19.1630  -28.8700   23.3450 C   0  0  0  0  0  0  0  0  0  0  0  0
  -18.9300  -30.1200   23.9580 C   0  0  0  0  0  3  0  0  0  0  0  0
  -17.6190  -30.5920   24.1560 C   0  0  0  0  0  3  0  0  0  0  0  0
  -16.5210  -29.8130   23.7530 C   0  0  0  0  0  3  0  0  0  0  0  0
  -16.7380  -28.5630   23.1450 C   0  0  0  0  0  3  0  0  0  0  0  0
  -25.9320  -32.5390   23.7490 C   0  0  0  0  0  3  0  0  0  0  0  0
  -25.6120  -33.9330   24.1140 N   0  0  0  0  0  0  0  0  0  0  0  0
  -25.9230  -35.0130   23.3840 C   0  0  0  0  0  0  0  0  0  0  0  0
  -26.5670  -34.9410   22.3350 O   0  0  0  0  0  0  0  0  0  0  0  0
  -25.0350  -34.0610   24.9330 H   0  0  0  0  0  0  0  0  0  0  0  0
  -24.1880  -36.8230   23.1310 C   0  0  0  0  0  1  0  0  0  0  0  0
  -25.4490  -36.3900   23.8970 C   0  0  0  0  0  3  0  0  0  0  0  0
  -27.5990  -37.2640   24.7050 C   0  0  0  0  0  1  0  0  0  0  0  0
  -26.4780  -37.4480   23.7860 N   0  0  0  0  0  0  0  0  0  0  0  0
  -26.0730  -38.3650   23.9580 H   0  0  0  0  0  0  0  0  0  0  0  0
  -26.4650  -31.7630   25.0170 C   0  0  1  0  0  0  0  0  0  0  0  0
  -25.3870  -31.5180   26.1000 C   0  0  0  0  0  1  0  0  0  0  0  0
  -27.0450  -30.3860   24.6210 C   0  0  0  0  0  1  0  0  0  0  0  0
  -27.6250  -32.5550   25.6670 C   0  0  0  0  0  1  0  0  0  0  0  0
  1  2  2  0
  2  3  1  0
  3  8  1  0
  4  7  1  0
  6  1  1  0
  6  4  2  0
  7  3  2  0
  8  9  1  0
  8  5  1  0
 10  2  1  0
 11 16  1  0
 12 13  1  0
 12 11  1  0
 14 13  1  0
 14 21  1  0
 14 15  1  0
 16 10  1  0
 16 15  1  0
 17 10  2  0
 18 19  2  0
 19 38  1  0
 20 19  1  0
 20 23  1  0
 21 22  1  0
 21 18  1  0
 22 20  2  0
 23 24  1  0
 24 25  2  0
 26 29  1  0
 26 25  1  0
 27 26  2  0
 28 27  1  0
 28 23  2  0
 29 30  1  0
 30 35  2  0
 30 31  1  0
 31 32  2  0
 32 33  1  0
 33 37  1  0
 34 33  2  0
 35 34  1  0
 36 35  1  0
 38 39  1  0
 39 42  1  0
 39 41  1  0
 40 38  2  0
 43 44  1  0
 43 18  1  0
 45 43  1  0
 46 48  1  0
 46 47  1  0
 48 47  1  0
 48 49  1  6
 48  4  1  0
 50 52  1  0
 50 49  1  0
 51 62  2  0
 52 57  1  0
 53 61  1  0
 53 63  1  0
 54 60  1  0
 54 56  1  0
 55 61  1  0
 56 55  1  0
 57 56  2  0
 58 59  1  0
 58 52  2  0
 59 54  2  0
 60 53  1  0
 61 51  1  0
 63 65  2  0
 64 63  1  0
 66 64  1  0
 67 76  2  0
 67 72  1  0
 68 64  1  0
 68 72  1  0
 69 68  1  0
 70 71  1  0
 70 69  1  0
 71 67  1  0
 72 73  2  0
 73 74  1  0
 75 74  2  0
 76 75  1  0
 77 51  1  0
 77 78  1  0
 77 87  1  0
 78 81  1  0
 79 83  1  0
 79 78  1  0
 80 79  2  0
 83 82  1  0
 85 83  1  0
 85 86  1  0
 85 84  1  0
 87 90  1  1
 87 88  1  0
 89 87  1  0
M  ISO  4   2 100  10 100  49 101  50 101
M  END
>  <TORSDO>  (30) 
F 18

>  <SCORE>  (30) 
-16.663

>  <name>  (30) 
29

>  <ligand_id>  (30) 
29

>  <original_smiles>  (30) 
[H]c1nc(C2(C([H])([H])Oc3c([H])c([H])c4c(c3[H])C([H])([H])N(C(=O)C([H])(N([H])C(=O)C([H])(N([H])C([H])([H])[H])C([H])([H])[H])C(C([H])([H])[H])(C([H])([H])[H])C([H])([H])[H])C([H])(C(=O)N([H])C3([H])c5c([H])c([H])c([H])c([H])c5C([H])([H])C([H])([H])C3([H])[H])C4([H])[H])C([H])([H])C2([H])[H])nc(N([H])C([H])([H])[H])c1C(=O)N1C([H])([H])C([H])([H])C([H])([H])C([H])(n2nc(-c3c([H])c([H])c(Oc4c([H])c([H])c(F)c([H])c4F)c([H])c3[H])c(C(=O)N([H])[H])c2N([H])[H])C1([H])[H]

>  <smiles>  (30) 
[H]c1nc(C2(C([H])([H])Oc3c([H])c([H])c4c(c3[H])C([H])([H])N(C(=O)C([H])(N([H])C(=O)C([H])(N([H])C([H])([H])[H])C([H])([H])[H])C(C([H])([H])[H])(C([H])([H])[H])C([H])([H])[H])C([H])(C(=O)N([H])C3([H])c5c([H])c([H])c([H])c([H])c5C([H])([H])C([H])([H])C3([H])[H])C4([H])[H])C([H])([H])C2([H])[H])nc(N([H])C([H])([H])[H])c1C(=O)N1C([H])([H])C([H])([H])C([H])([H])C([H])(n2nc(-c3c([H])c([H])c(Oc4c([H])c([H])c(F)c([H])c4F)c([H])c3[H])c(C(=O)N([H])[H])c2N([H])[H])C1([H])[H]

$$$$
31:0:0
     RDKit          3D

 93103  0  0  1  0  0  0  0  0999 V2000
  -30.5770  -14.9910   20.3480 C   0  0  0  0  0  0  0  0  0  0  0  0
  -30.4240  -12.6430   19.4050 C   0  0  0  0  0  2  0  0  0  0  0  0
  -29.5150  -12.6030   18.1570 C   0  0  0  0  0  2  0  0  0  0  0  0
  -28.0450  -12.3970   18.5670 C   0  0  0  0  0  2  0  0  0  0  0  0
  -27.6230  -13.3160   19.7440 C   0  0  0  0  0  3  0  0  0  0  0  0
  -28.6640  -13.3490   20.8820 C   0  0  0  0  0  2  0  0  0  0  0  0
  -29.9370  -13.7540   20.2740 N   0  0  0  0  0  0  0  0  0  0  0  0
  -31.7920  -14.9870   20.1120 O   0  0  0  0  0  0  0  0  0  0  0  0
  -30.7490  -22.7340   18.8740 C   0  0  0  0  0  0  0  0  0  0  0  0
  -28.9570  -23.3720   20.0490 C   0  0  0  0  0  0  0  0  0  0  0  0
  -29.6240  -21.0720   19.9050 C   0  0  0  0  0  0  0  0  0  0  0  0
  -30.5440  -18.6640   19.3690 C   0  0  0  0  0  3  0  0  0  0  0  0
  -28.8690  -18.6860   21.0420 C   0  0  0  0  0  3  0  0  0  0  0  0
  -30.0560  -17.1620   19.0810 C   0  0  0  0  0  3  0  0  0  0  0  0
  -29.4750  -17.1820   21.3670 C   0  0  0  0  0  3  0  0  0  0  0  0
  -29.9820  -23.7320   19.2890 N   0  0  0  0  0  4  0  0  0  0  0  0
  -30.6440  -21.4390   19.1460 N   0  0  0  0  0  0  0  0  0  0  0  0
  -28.7330  -22.0220   20.3900 N   0  0  0  0  0  2  0  0  0  0  0  0
  -29.5970  -19.5820   20.0850 N   0  0  0  0  0  0  0  0  0  0  0  0
  -29.8660  -16.2320   20.2460 N   0  0  0  0  0  0  0  0  0  0  0  0
  -25.2260  -13.8760   20.4350 C   0  0  0  0  0  0  0  0  0  0  0  0
  -24.1620  -13.0940   20.7940 C   0  0  0  0  0  0  0  0  0  0  0  0
  -24.6410  -11.7480   20.7920 C   0  0  0  0  0  0  0  0  0  0  0  0
  -26.2820  -13.0060   20.2270 N   0  0  0  0  0  0  0  0  0  0  0  0
  -25.9390  -11.7210   20.5090 N   0  0  0  0  0  0  0  0  0  0  0  0
  -23.9230  -10.4810   20.9850 C   0  0  0  0  0  0  0  0  0  0  0  0
  -24.3460   -9.5300   21.9410 C   0  0  0  0  0  3  0  0  0  0  0  0
  -23.6260   -8.3290   22.1220 C   0  0  0  0  0  3  0  0  0  0  0  0
  -22.4700   -8.0700   21.3480 C   0  0  0  0  0  0  0  0  0  0  0  0
  -22.0660   -9.0090   20.3830 C   0  0  0  0  0  3  0  0  0  0  0  0
  -22.7870  -10.2020   20.2000 C   0  0  0  0  0  3  0  0  0  0  0  0
  -21.7220   -6.9210   21.4380 O   0  0  0  0  0  0  0  0  0  0  0  0
  -21.6520   -6.1970   22.6010 C   0  0  0  0  0  0  0  0  0  0  0  0
  -21.1850   -6.7660   23.8060 C   0  0  0  0  0  3  0  0  0  0  0  0
  -21.0630   -5.9670   24.9620 C   0  0  0  0  0  3  0  0  0  0  0  0
  -21.3990   -4.6010   24.9110 C   0  0  0  0  0  0  0  0  0  0  0  0
  -21.8580   -4.0310   23.7100 C   0  0  0  0  0  3  0  0  0  0  0  0
  -21.9810   -4.8270   22.5580 C   0  0  0  0  0  0  0  0  0  0  0  0
  -22.4040   -4.2680   21.3990 F   0  0  0  0  0  0  0  0  0  0  0  0
  -21.2750   -3.8310   26.0180 F   0  0  0  0  0  0  0  0  0  0  0  0
  -22.7550  -13.5610   21.0280 C   0  0  0  0  0  0  0  0  0  0  0  0
  -22.0190  -12.8770   21.8960 N   0  0  0  0  0  0  0  0  0  0  0  0
  -22.3180  -14.5700   20.4750 O   0  0  0  0  0  0  0  0  0  0  0  0
  -22.3840  -12.0620   22.3650 H   0  0  0  0  0  0  0  0  0  0  0  0
  -21.0740  -13.1750   22.0940 H   0  0  0  0  0  0  0  0  0  0  0  0
  -25.3820  -15.2450   20.2410 N   0  0  0  0  0  0  0  0  0  0  0  0
  -24.6100  -15.8970   20.3310 H   0  0  0  0  0  0  0  0  0  0  0  0
  -26.2430  -15.6850   19.9440 H   0  0  0  0  0  0  0  0  0  0  0  0
  -31.6240  -23.8530   16.6720 C   0  0  0  0  0  2  0  0  0  0  0  0
  -32.1030  -22.4290   16.6380 C   0  0  0  0  0  2  0  0  0  0  0  0
  -31.8880  -23.1190   17.9740 C   0  0  0  0  0  3  0  0  0  0  0  0
  -27.9700  -24.6430   20.4270 C   0  0  0  0  0  2  0  0  0  0  0  0
  -28.2740  -26.1690   20.2030 O   0  0  0  0  0  0  0  0  0  0  0  0
  -24.6750  -31.8880   23.2470 C   0  0  0  0  0  0  0  0  0  0  0  0
  -27.2200  -27.1600   20.1920 C   0  0  0  0  0  0  0  0  0  0  0  0
  -23.4620  -30.4920   21.6220 C   0  0  0  0  0  3  0  0  0  0  0  0
  -24.8960  -28.9170   20.1860 C   0  0  0  0  0  0  0  0  0  0  0  0
  -26.0160  -30.7510   21.4360 C   0  0  0  0  0  2  0  0  0  0  0  0
  -26.0830  -29.3570   20.7840 C   0  0  0  0  0  0  0  0  0  0  0  0
  -27.2470  -28.4970   20.7680 C   0  0  0  0  0  3  0  0  0  0  0  0
  -26.0070  -26.8310   19.5470 C   0  0  0  0  0  3  0  0  0  0  0  0
  -24.8710  -27.6670   19.5530 C   0  0  0  0  0  3  0  0  0  0  0  0
  -23.6710  -29.8140   20.2420 C   0  0  0  0  0  2  0  0  0  0  0  0
  -24.7390  -31.0650   22.1560 N   0  0  0  0  0  0  0  0  0  0  0  0
  -23.5930  -32.1730   23.7840 O   0  0  0  0  0  0  0  0  0  0  0  0
  -22.7910  -29.4850   22.5890 C   0  0  0  0  0  0  0  0  0  0  0  0
  -21.4640  -29.3040   22.4640 N   0  0  0  0  0  0  0  0  0  0  0  0
  -23.4680  -28.8660   23.4140 O   0  0  0  0  0  0  0  0  0  0  0  0
  -20.9750  -29.8520   21.7710 H   0  0  0  0  0  0  0  0  0  0  0  0
  -18.0920  -28.0770   22.9720 C   0  0  0  0  0  0  0  0  0  0  0  0
  -20.6490  -28.3670   23.2420 C   0  0  0  0  0  3  0  0  0  0  0  0
  -20.7650  -26.9300   22.6810 C   0  0  0  0  0  2  0  0  0  0  0  0
  -19.6690  -26.5870   21.6670 C   0  0  0  0  0  2  0  0  0  0  0  0
  -18.2840  -26.7250   22.3060 C   0  0  0  0  0  2  0  0  0  0  0  0
  -19.2030  -28.8550   23.3950 C   0  0  0  0  0  0  0  0  0  0  0  0
  -18.9690  -30.1190   23.9790 C   0  0  0  0  0  3  0  0  0  0  0  0
  -17.6580  -30.6070   24.1410 C   0  0  0  0  0  3  0  0  0  0  0  0
  -16.5640  -29.8270   23.7320 C   0  0  0  0  0  3  0  0  0  0  0  0
  -16.7810  -28.5640   23.1530 C   0  0  0  0  0  3  0  0  0  0  0  0
  -25.9580  -32.5240   23.8620 C   0  0  0  0  0  3  0  0  0  0  0  0
  -25.6470  -33.9240   24.2000 N   0  0  0  0  0  0  0  0  0  0  0  0
  -25.9570  -34.9810   23.4390 C   0  0  0  0  0  0  0  0  0  0  0  0
  -26.6040  -34.8830   22.3940 O   0  0  0  0  0  0  0  0  0  0  0  0
  -25.0690  -34.0730   25.0140 H   0  0  0  0  0  0  0  0  0  0  0  0
  -24.2100  -36.7690   23.1400 C   0  0  0  0  0  1  0  0  0  0  0  0
  -25.4770  -36.3670   23.9130 C   0  0  0  0  0  3  0  0  0  0  0  0
  -27.6300  -37.2640   24.6830 C   0  0  0  0  0  1  0  0  0  0  0  0
  -26.5000  -37.4270   23.7730 N   0  0  0  0  0  0  0  0  0  0  0  0
  -26.0930  -38.3440   23.9360 H   0  0  0  0  0  0  0  0  0  0  0  0
  -26.4800  -31.7560   25.1380 C   0  0  1  0  0  0  0  0  0  0  0  0
  -25.3930  -31.5250   26.2140 C   0  0  0  0  0  1  0  0  0  0  0  0
  -27.0590  -30.3750   24.7520 C   0  0  0  0  0  1  0  0  0  0  0  0
  -27.6370  -32.5490   25.7920 C   0  0  0  0  0  1  0  0  0  0  0  0
  2  7  1  0
  3  4  1  0
  3  2  1  0
  5  4  1  0
  5 24  1  0
  5  6  1  0
  7  1  1  0
  7  6  1  0
  8  1  2  0
  9 17  1  0
  9 16  2  0
 10 18  1  0
 10 52  1  0
 11 19  1  0
 11 18  1  0
 12 19  1  0
 13 15  2  0
 14 12  2  0
 14 20  1  0
 16 10  2  0
 17 11  2  0
 19 13  1  0
 20  1  1  0
 20 15  1  0
 21 22  2  0
 22 41  1  0
 23 22  1  0
 23 26  1  0
 24 21  1  0
 24 25  1  0
 25 23  2  0
 26 27  1  0
 27 28  2  0
 29 32  1  0
 29 28  1  0
 30 29  2  0
 31 30  1  0
 31 26  2  0
 32 33  1  0
 33 34  1  0
 34 35  2  0
 36 35  1  0
 36 40  1  0
 37 36  2  0
 38 33  2  0
 38 37  1  0
 39 38  1  0
 41 42  1  0
 42 45  1  0
 42 44  1  0
 43 41  2  0
 46 47  1  0
 46 21  1  0
 48 46  1  0
 49 51  1  0
 50 49  1  0
 50 51  1  0
 51  9  1  0
 53 52  1  0
 54 65  2  0
 55 53  1  0
 55 60  1  0
 56 64  1  0
 56 66  1  0
 57 63  1  0
 57 59  1  0
 58 64  1  0
 59 58  1  0
 60 59  2  0
 61 62  1  0
 61 55  2  0
 62 57  2  0
 63 56  1  0
 64 54  1  0
 66 68  2  0
 67 66  1  0
 69 67  1  0
 70 79  2  0
 70 75  1  0
 71 67  1  0
 71 75  1  0
 72 71  1  0
 73 74  1  0
 73 72  1  0
 74 70  1  0
 75 76  2  0
 76 77  1  0
 78 77  2  0
 79 78  1  0
 80 54  1  0
 80 81  1  0
 80 90  1  0
 81 84  1  0
 82 86  1  0
 82 81  1  0
 83 82  2  0
 86 85  1  0
 88 86  1  0
 88 89  1  0
 88 87  1  0
 90 93  1  1
 90 91  1  0
 92 90  1  0
M  ISO  4   1 100  20 100  52 101  53 101
M  END
>  <TORSDO>  (31) 
F 17

>  <SCORE>  (31) 
-14.593

>  <name>  (31) 
31

>  <ligand_id>  (31) 
31

>  <original_smiles>  (31) 
[H]c1c([H])c([H])c2c(c1[H])C([H])([H])C([H])([H])C([H])([H])C2([H])N([H])C(=O)C1([H])N(C(=O)C([H])(N([H])C(=O)C([H])(N([H])C([H])([H])[H])C([H])([H])[H])C(C([H])([H])[H])(C([H])([H])[H])C([H])([H])[H])C([H])([H])c2c([H])c(OC([H])([H])c3nc(N4C([H])([H])C([H])([H])N(C(=O)N5C([H])([H])C([H])([H])C([H])([H])C([H])(n6nc(-c7c([H])c([H])c(Oc8c([H])c([H])c(F)c([H])c8F)c([H])c7[H])c(C(=O)N([H])[H])c6N([H])[H])C5([H])[H])C([H])([H])C4([H])[H])nc(C4([H])C([H])([H])C4([H])[H])n3)c([H])c([H])c2C1([H])[H]

>  <smiles>  (31) 
[H]c1c([H])c([H])c2c(c1[H])C([H])([H])C([H])([H])C([H])([H])C2([H])N([H])C(=O)C1([H])N(C(=O)C([H])(N([H])C(=O)C([H])(N([H])C([H])([H])[H])C([H])([H])[H])C(C([H])([H])[H])(C([H])([H])[H])C([H])([H])[H])C([H])([H])c2c([H])c(OC([H])([H])c3nc(N4C([H])([H])C([H])([H])N(C(=O)N5C([H])([H])C([H])([H])C([H])([H])C([H])(n6nc(-c7c([H])c([H])c(Oc8c([H])c([H])c(F)c([H])c8F)c([H])c7[H])c(C(=O)N([H])[H])c6N([H])[H])C5([H])[H])C([H])([H])C4([H])[H])nc(C4([H])C([H])([H])C4([H])[H])n3)c([H])c([H])c2C1([H])[H]

$$$$
32:0:0
     RDKit          3D

 88 96  0  0  1  0  0  0  0  0999 V2000
  -30.4550  -15.7540   19.9880 C   0  0  0  0  0  0  0  0  0  0  0  0
  -30.5900  -13.1310   19.3960 C   0  0  0  0  0  2  0  0  0  0  0  0
  -29.7390  -12.5900   18.2110 C   0  0  0  0  0  2  0  0  0  0  0  0
  -28.3080  -12.2590   18.6600 C   0  0  0  0  0  2  0  0  0  0  0  0
  -27.7620  -13.3470   19.6110 C   0  0  0  0  0  3  0  0  0  0  0  0
  -28.7620  -13.7710   20.7150 C   0  0  0  0  0  2  0  0  0  0  0  0
  -29.9370  -14.3740   20.0290 N   0  0  0  0  0  0  0  0  0  0  0  0
  -31.6840  -15.6580   19.7830 O   0  0  0  0  0  0  0  0  0  0  0  0
  -28.1850  -18.7290   21.2910 C   0  0  0  0  0  2  0  0  0  0  0  0
  -29.1800  -20.2700   18.8110 C   0  0  0  0  0  2  0  0  0  0  0  0
  -28.6350  -17.2510   20.9870 C   0  0  0  0  0  2  0  0  0  0  0  0
  -29.9010  -18.9130   19.7470 C   0  0  0  0  0  3  0  0  0  0  0  0
  -29.3340  -19.7040   20.9830 C   0  0  0  0  0  3  0  0  0  0  0  0
  -29.1180  -21.9390   19.4740 C   0  0  0  0  0  2  0  0  0  0  0  0
  -29.7100  -17.1560   19.9730 N   0  0  0  0  0  0  0  0  0  0  0  0
  -28.9440  -21.2420   20.8310 N   0  0  0  0  0  4  0  0  0  0  0  0
  -29.4660  -21.7650   21.5180 H   0  0  0  0  0  0  0  0  0  0  0  0
  -27.9780  -21.3310   21.1030 H   0  0  0  0  0  0  0  0  0  0  0  0
  -25.4130  -13.9380   20.3670 C   0  0  0  0  0  0  0  0  0  0  0  0
  -24.3320  -13.1860   20.7290 C   0  0  0  0  0  0  0  0  0  0  0  0
  -24.7660  -11.8250   20.6930 C   0  0  0  0  0  0  0  0  0  0  0  0
  -26.4350  -13.0410   20.1240 N   0  0  0  0  0  0  0  0  0  0  0  0
  -26.0590  -11.7610   20.3860 N   0  0  0  0  0  0  0  0  0  0  0  0
  -24.0000  -10.5830   20.8720 C   0  0  0  0  0  0  0  0  0  0  0  0
  -24.3940   -9.6000   21.8070 C   0  0  0  0  0  3  0  0  0  0  0  0
  -23.6250   -8.4280   21.9790 C   0  0  0  0  0  3  0  0  0  0  0  0
  -22.4510   -8.2300   21.2150 C   0  0  0  0  0  0  0  0  0  0  0  0
  -22.0770   -9.2000   20.2690 C   0  0  0  0  0  3  0  0  0  0  0  0
  -22.8450  -10.3640   20.0960 C   0  0  0  0  0  3  0  0  0  0  0  0
  -21.6580   -7.1100   21.2940 O   0  0  0  0  0  0  0  0  0  0  0  0
  -21.5680   -6.3730   22.4480 C   0  0  0  0  0  0  0  0  0  0  0  0
  -21.1330   -6.9430   23.6640 C   0  0  0  0  0  3  0  0  0  0  0  0
  -20.9870   -6.1350   24.8100 C   0  0  0  0  0  3  0  0  0  0  0  0
  -21.2660   -4.7570   24.7390 C   0  0  0  0  0  0  0  0  0  0  0  0
  -21.6940   -4.1860   23.5280 C   0  0  0  0  0  3  0  0  0  0  0  0
  -21.8410   -4.9920   22.3840 C   0  0  0  0  0  0  0  0  0  0  0  0
  -22.2330   -4.4320   21.2150 F   0  0  0  0  0  0  0  0  0  0  0  0
  -21.1200   -3.9780   25.8370 F   0  0  0  0  0  0  0  0  0  0  0  0
  -22.9470  -13.7030   20.9880 C   0  0  0  0  0  0  0  0  0  0  0  0
  -22.1970  -13.0340   21.8550 N   0  0  0  0  0  0  0  0  0  0  0  0
  -22.5430  -14.7370   20.4570 O   0  0  0  0  0  0  0  0  0  0  0  0
  -22.5380  -12.1980   22.3060 H   0  0  0  0  0  0  0  0  0  0  0  0
  -21.2660  -13.3630   22.0710 H   0  0  0  0  0  0  0  0  0  0  0  0
  -25.6040  -15.3040   20.1900 N   0  0  0  0  0  0  0  0  0  0  0  0
  -24.8470  -15.9700   20.2970 H   0  0  0  0  0  0  0  0  0  0  0  0
  -26.4500  -15.7210   19.8230 H   0  0  0  0  0  0  0  0  0  0  0  0
  -28.2360  -23.6740   19.0880 C   0  0  0  0  0  1  0  0  0  0  0  0
  -28.3270  -25.4530   19.2600 O   0  0  0  0  0  0  0  0  0  0  0  0
  -24.7230  -31.4460   22.7300 C   0  0  0  0  0  0  0  0  0  0  0  0
  -27.3040  -26.6400   19.3140 C   0  0  0  0  0  0  0  0  0  0  0  0
  -23.5120  -30.0960   21.0710 C   0  0  0  0  0  3  0  0  0  0  0  0
  -24.9540  -28.5930   19.4910 C   0  0  0  0  0  0  0  0  0  0  0  0
  -26.0760  -30.3490   20.8360 C   0  0  0  0  0  2  0  0  0  0  0  0
  -26.1650  -28.9580   20.0890 C   0  0  0  0  0  0  0  0  0  0  0  0
  -27.3190  -28.0130   19.9690 C   0  0  0  0  0  3  0  0  0  0  0  0
  -26.0450  -26.4980   18.6720 C   0  0  0  0  0  3  0  0  0  0  0  0
  -24.9320  -27.3930   18.7590 C   0  0  0  0  0  3  0  0  0  0  0  0
  -23.7130  -29.4890   19.6510 C   0  0  0  0  0  2  0  0  0  0  0  0
  -24.7960  -30.6620   21.5980 N   0  0  0  0  0  0  0  0  0  0  0  0
  -23.6450  -31.6680   23.3100 O   0  0  0  0  0  0  0  0  0  0  0  0
  -22.8850  -29.0360   22.0160 C   0  0  0  0  0  0  0  0  0  0  0  0
  -21.5490  -28.8620   21.9760 N   0  0  0  0  0  0  0  0  0  0  0  0
  -23.6100  -28.3680   22.7570 O   0  0  0  0  0  0  0  0  0  0  0  0
  -21.0100  -29.4520   21.3590 H   0  0  0  0  0  0  0  0  0  0  0  0
  -18.2260  -27.5680   22.6820 C   0  0  0  0  0  0  0  0  0  0  0  0
  -20.7980  -27.8520   22.7340 C   0  0  0  0  0  3  0  0  0  0  0  0
  -20.8550  -26.4750   22.0300 C   0  0  0  0  0  2  0  0  0  0  0  0
  -19.6690  -26.2270   21.0940 C   0  0  0  0  0  2  0  0  0  0  0  0
  -18.3500  -26.2900   21.8700 C   0  0  0  0  0  2  0  0  0  0  0  0
  -19.3730  -28.3100   23.0740 C   0  0  0  0  0  0  0  0  0  0  0  0
  -19.1970  -29.5040   23.8060 C   0  0  0  0  0  3  0  0  0  0  0  0
  -17.9080  -29.9610   24.1420 C   0  0  0  0  0  3  0  0  0  0  0  0
  -16.7780  -29.2180   23.7600 C   0  0  0  0  0  3  0  0  0  0  0  0
  -16.9380  -28.0220   23.0370 C   0  0  0  0  0  3  0  0  0  0  0  0
  -25.9880  -32.1150   23.3500 C   0  0  0  0  0  3  0  0  0  0  0  0
  -25.6080  -33.4530   23.8440 N   0  0  0  0  0  0  0  0  0  0  0  0
  -25.8450  -34.6100   23.2090 C   0  0  0  0  0  0  0  0  0  0  0  0
  -26.4620  -34.6650   22.1430 O   0  0  0  0  0  0  0  0  0  0  0  0
  -25.0490  -33.4770   24.6840 H   0  0  0  0  0  0  0  0  0  0  0  0
  -24.0130  -36.3410   23.1660 C   0  0  0  0  0  1  0  0  0  0  0  0
  -25.3180  -35.9090   23.8550 C   0  0  0  0  0  3  0  0  0  0  0  0
  -27.4480  -36.8220   24.6760 C   0  0  0  0  0  1  0  0  0  0  0  0
  -26.2890  -37.0270   23.8110 N   0  0  0  0  0  0  0  0  0  0  0  0
  -25.8440  -37.9010   24.0790 H   0  0  0  0  0  0  0  0  0  0  0  0
  -26.6170  -31.2710   24.5270 C   0  0  1  0  0  0  0  0  0  0  0  0
  -25.6060  -30.8940   25.6350 C   0  0  0  0  0  1  0  0  0  0  0  0
  -27.2400  -29.9590   24.0010 C   0  0  0  0  0  1  0  0  0  0  0  0
  -27.7700  -32.0680   25.1840 C   0  0  0  0  0  1  0  0  0  0  0  0
  1  7  1  0
  2  7  1  0
  3  4  1  0
  3  2  1  0
  5  4  1  0
  5 22  1  0
  5  6  1  0
  7  6  1  0
  8  1  2  0
 10 14  1  0
 11  9  1  0
 12 10  1  0
 12 15  1  0
 12 13  1  0
 13  9  1  0
 14 16  1  0
 15  1  1  0
 15 11  1  0
 16 13  1  0
 16 18  1  0
 16 17  1  0
 19 20  2  0
 20 39  1  0
 21 20  1  0
 21 24  1  0
 22 19  1  0
 22 23  1  0
 23 21  2  0
 24 25  1  0
 25 26  2  0
 27 30  1  0
 27 26  1  0
 28 27  2  0
 29 28  1  0
 29 24  2  0
 30 31  1  0
 31 32  1  0
 32 33  2  0
 34 33  1  0
 34 38  1  0
 35 34  2  0
 36 31  2  0
 36 35  1  0
 37 36  1  0
 39 40  1  0
 40 43  1  0
 40 42  1  0
 41 39  2  0
 44 45  1  0
 44 19  1  0
 46 44  1  0
 47 48  1  0
 48 50  1  0
 49 60  2  0
 50 55  1  0
 51 59  1  0
 51 61  1  0
 52 58  1  0
 52 54  1  0
 53 59  1  0
 54 53  1  0
 55 54  2  0
 56 57  1  0
 56 50  2  0
 57 52  2  0
 58 51  1  0
 59 49  1  0
 61 63  2  0
 62 61  1  0
 64 62  1  0
 65 74  2  0
 65 70  1  0
 66 62  1  0
 66 70  1  0
 67 66  1  0
 68 69  1  0
 68 67  1  0
 69 65  1  0
 70 71  2  0
 71 72  1  0
 73 72  2  0
 74 73  1  0
 75 49  1  0
 75 76  1  0
 75 85  1  0
 76 79  1  0
 77 76  1  0
 77 81  1  0
 78 77  2  0
 81 80  1  0
 83 81  1  0
 83 84  1  0
 83 82  1  0
 85 88  1  1
 85 86  1  0
 87 85  1  0
M  ISO  4   1 100  15 100  47 101  48 101
M  END
>  <TORSDO>  (32) 
F 16

>  <SCORE>  (32) 
-13.331

>  <name>  (32) 
32

>  <ligand_id>  (32) 
32

>  <original_smiles>  (32) 
[H]c1c([H])c([H])c2c(c1[H])C([H])([H])C([H])([H])C([H])([H])C2([H])N([H])C(=O)C1([H])N(C(=O)C([H])(N([H])C(=O)C([H])(N([H])C([H])([H])[H])C([H])([H])[H])C(C([H])([H])[H])(C([H])([H])[H])C([H])([H])[H])C([H])([H])c2c([H])c(OC([H])([H])C3([H])C([H])([H])C4([H])N(C(=O)N5C([H])([H])C([H])([H])C([H])([H])C([H])(n6nc(-c7c([H])c([H])c(Oc8c([H])c([H])c(F)c([H])c8F)c([H])c7[H])c(C(=O)N([H])[H])c6N([H])[H])C5([H])[H])C([H])([H])C([H])([H])C4([H])[N+]3([H])[H])c([H])c([H])c2C1([H])[H]

>  <smiles>  (32) 
[H]c1c([H])c([H])c2c(c1[H])C([H])([H])C([H])([H])C([H])([H])C2([H])N([H])C(=O)C1([H])N(C(=O)C([H])(N([H])C(=O)C([H])(N([H])C([H])([H])[H])C([H])([H])[H])C(C([H])([H])[H])(C([H])([H])[H])C([H])([H])[H])C([H])([H])c2c([H])c(OC([H])([H])C3([H])C([H])([H])C4([H])N(C(=O)N5C([H])([H])C([H])([H])C([H])([H])C([H])(n6nc(-c7c([H])c([H])c(Oc8c([H])c([H])c(F)c([H])c8F)c([H])c7[H])c(C(=O)N([H])[H])c6N([H])[H])C5([H])[H])C([H])([H])C([H])([H])C4([H])[N+]3([H])[H])c([H])c([H])c2C1([H])[H]

$$$$
33:0:0
     RDKit          3D

 91100  0  0  1  0  0  0  0  0999 V2000
  -30.9480  -14.8190   19.7440 C   0  0  0  0  0  0  0  0  0  0  0  0
  -30.7740  -12.4420   18.9600 C   0  0  0  0  0  2  0  0  0  0  0  0
  -29.8160  -12.3570   17.7550 C   0  0  0  0  0  2  0  0  0  0  0  0
  -28.3630  -12.1780   18.2390 C   0  0  0  0  0  2  0  0  0  0  0  0
  -27.9880  -13.1680   19.3740 C   0  0  0  0  0  3  0  0  0  0  0  0
  -29.0710  -13.2330   20.4690 C   0  0  0  0  0  2  0  0  0  0  0  0
  -30.3240  -13.5860   19.7950 N   0  0  0  0  0  0  0  0  0  0  0  0
  -32.1400  -14.8370   19.4140 O   0  0  0  0  0  0  0  0  0  0  0  0
  -29.2080  -22.7040   20.4530 C   0  0  0  0  0  3  0  0  0  0  0  0
  -28.6370  -21.2570   18.2850 C   0  0  0  0  0  3  0  0  0  0  0  0
  -28.6630  -23.4080   19.3270 C   0  0  0  0  0  0  0  0  0  0  0  0
  -29.1410  -20.5460   19.4360 C   0  0  0  0  0  0  0  0  0  0  0  0
  -29.6060  -18.2500   18.3490 C   0  0  0  0  0  2  0  0  0  0  0  0
  -30.6260  -17.0650   18.6250 C   0  0  0  0  0  2  0  0  0  0  0  0
  -29.2860  -16.6520   20.5910 C   0  0  0  0  0  2  0  0  0  0  0  0
  -29.3340  -18.2590   20.7800 C   0  0  0  0  0  3  0  0  0  0  0  0
  -28.1920  -18.6440   21.7440 C   0  0  0  0  0  1  0  0  0  0  0  0
  -28.3910  -22.6250   18.2320 N   0  0  0  0  0  0  0  0  0  0  0  0
  -29.4430  -21.3410   20.5070 N   0  0  0  0  0  0  0  0  0  0  0  0
  -29.3170  -19.0840   19.5300 N   0  0  0  0  0  0  0  0  0  0  0  0
  -30.2010  -16.0090   19.5970 N   0  0  0  0  0  0  0  0  0  0  0  0
  -25.6370  -13.7680   20.1960 C   0  0  0  0  0  0  0  0  0  0  0  0
  -24.5910  -12.9990   20.6240 C   0  0  0  0  0  0  0  0  0  0  0  0
  -25.0540  -11.6480   20.5950 C   0  0  0  0  0  0  0  0  0  0  0  0
  -26.6700  -12.8850   19.9290 N   0  0  0  0  0  0  0  0  0  0  0  0
  -26.3300  -11.6050   20.2340 N   0  0  0  0  0  0  0  0  0  0  0  0
  -24.3360  -10.3880   20.8310 C   0  0  0  0  0  0  0  0  0  0  0  0
  -24.7380   -9.4830   21.8380 C   0  0  0  0  0  3  0  0  0  0  0  0
  -24.0140   -8.2910   22.0590 C   0  0  0  0  0  3  0  0  0  0  0  0
  -22.8740   -7.9950   21.2730 C   0  0  0  0  0  0  0  0  0  0  0  0
  -22.4940   -8.8880   20.2550 C   0  0  0  0  0  3  0  0  0  0  0  0
  -23.2170  -10.0710   20.0330 C   0  0  0  0  0  3  0  0  0  0  0  0
  -22.1280   -6.8480   21.3990 O   0  0  0  0  0  0  0  0  0  0  0  0
  -21.9310   -6.2450   22.6160 C   0  0  0  0  0  0  0  0  0  0  0  0
  -21.2830   -6.9120   23.6790 C   0  0  0  0  0  3  0  0  0  0  0  0
  -21.0410   -6.2340   24.8910 C   0  0  0  0  0  3  0  0  0  0  0  0
  -21.4370   -4.8900   25.0380 C   0  0  0  0  0  0  0  0  0  0  0  0
  -22.0770   -4.2240   23.9780 C   0  0  0  0  0  3  0  0  0  0  0  0
  -22.3230   -4.9000   22.7700 C   0  0  0  0  0  0  0  0  0  0  0  0
  -22.9220   -4.2470   21.7450 F   0  0  0  0  0  0  0  0  0  0  0  0
  -21.1980   -4.2370   26.1990 F   0  0  0  0  0  0  0  0  0  0  0  0
  -23.2050  -13.4810   20.9410 C   0  0  0  0  0  0  0  0  0  0  0  0
  -22.5180  -12.8070   21.8570 N   0  0  0  0  0  0  0  0  0  0  0  0
  -22.7450  -14.4930   20.4140 O   0  0  0  0  0  0  0  0  0  0  0  0
  -22.9050  -11.9890   22.3020 H   0  0  0  0  0  0  0  0  0  0  0  0
  -21.5920  -13.1140   22.1170 H   0  0  0  0  0  0  0  0  0  0  0  0
  -25.7860  -15.1350   19.9870 N   0  0  0  0  0  0  0  0  0  0  0  0
  -25.0140  -15.7800   20.1140 H   0  0  0  0  0  0  0  0  0  0  0  0
  -26.6060  -15.5730   19.5860 H   0  0  0  0  0  0  0  0  0  0  0  0
  -28.0190  -24.8840   19.5020 C   0  0  0  0  0  2  0  0  0  0  0  0
  -28.1350  -26.0950   18.5860 O   0  0  0  0  0  0  0  0  0  0  0  0
  -25.0230  -31.2640   22.7190 C   0  0  0  0  0  0  0  0  0  0  0  0
  -27.1470  -27.1000   18.7760 C   0  0  0  0  0  0  0  0  0  0  0  0
  -23.6410  -30.2060   20.9730 C   0  0  0  0  0  3  0  0  0  0  0  0
  -24.9050  -28.8550   19.2010 C   0  0  0  0  0  0  0  0  0  0  0  0
  -26.1810  -30.4250   20.6540 C   0  0  0  0  0  2  0  0  0  0  0  0
  -26.1430  -29.1650   19.7820 C   0  0  0  0  0  0  0  0  0  0  0  0
  -27.2720  -28.3040   19.5570 C   0  0  0  0  0  3  0  0  0  0  0  0
  -25.8950  -26.8840   18.1620 C   0  0  0  0  0  3  0  0  0  0  0  0
  -24.7880  -27.7260   18.3770 C   0  0  0  0  0  3  0  0  0  0  0  0
  -23.7260  -29.7650   19.4900 C   0  0  0  0  0  2  0  0  0  0  0  0
  -24.9720  -30.6410   21.5050 N   0  0  0  0  0  0  0  0  0  0  0  0
  -23.9920  -31.4960   23.3700 O   0  0  0  0  0  0  0  0  0  0  0  0
  -22.9880  -29.0740   21.8020 C   0  0  0  0  0  0  0  0  0  0  0  0
  -21.6460  -28.9860   21.7640 N   0  0  0  0  0  0  0  0  0  0  0  0
  -23.6850  -28.2870   22.4470 O   0  0  0  0  0  0  0  0  0  0  0  0
  -21.1410  -29.6740   21.2240 H   0  0  0  0  0  0  0  0  0  0  0  0
  -18.2450  -27.9510   22.4560 C   0  0  0  0  0  0  0  0  0  0  0  0
  -20.8310  -27.9690   22.4350 C   0  0  0  0  0  3  0  0  0  0  0  0
  -20.7310  -26.6840   21.5820 C   0  0  0  0  0  2  0  0  0  0  0  0
  -19.4960  -26.6570   20.6760 C   0  0  0  0  0  2  0  0  0  0  0  0
  -18.2160  -26.7630   21.5100 C   0  0  0  0  0  2  0  0  0  0  0  0
  -19.4730  -28.5270   22.8770 C   0  0  0  0  0  0  0  0  0  0  0  0
  -19.4430  -29.6510   23.7310 C   0  0  0  0  0  3  0  0  0  0  0  0
  -18.2190  -30.1970   24.1600 C   0  0  0  0  0  3  0  0  0  0  0  0
  -17.0070  -29.6130   23.7530 C   0  0  0  0  0  3  0  0  0  0  0  0
  -17.0220  -28.4890   22.9070 C   0  0  0  0  0  3  0  0  0  0  0  0
  -26.3750  -31.7340   23.3380 C   0  0  0  0  0  3  0  0  0  0  0  0
  -26.1330  -33.0150   24.0170 N   0  0  0  0  0  0  0  0  0  0  0  0
  -26.4090  -34.2180   23.4960 C   0  0  0  0  0  0  0  0  0  0  0  0
  -26.9670  -34.3620   22.4060 O   0  0  0  0  0  0  0  0  0  0  0  0
  -25.6270  -32.9770   24.8890 H   0  0  0  0  0  0  0  0  0  0  0  0
  -24.7040  -36.0500   23.7550 C   0  0  0  0  0  1  0  0  0  0  0  0
  -26.0050  -35.4590   24.3180 C   0  0  0  0  0  3  0  0  0  0  0  0
  -28.2260  -36.1180   25.1340 C   0  0  0  0  0  1  0  0  0  0  0  0
  -27.0500  -36.5050   24.3580 N   0  0  0  0  0  0  0  0  0  0  0  0
  -26.6820  -37.3670   24.7520 H   0  0  0  0  0  0  0  0  0  0  0  0
  -26.9960  -30.6870   24.3420 C   0  0  1  0  0  0  0  0  0  0  0  0
  -26.0110  -30.2120   25.4350 C   0  0  0  0  0  1  0  0  0  0  0  0
  -27.4960  -29.4340   23.5870 C   0  0  0  0  0  1  0  0  0  0  0  0
  -28.2320  -31.3010   25.0410 C   0  0  0  0  0  1  0  0  0  0  0  0
  1  7  1  0
  2  7  1  0
  3  4  1  0
  3  2  1  0
  5  4  1  0
  5 25  1  0
  5  6  1  0
  7  6  1  0
  8  1  2  0
  9 19  1  0
 10 12  1  0
 11 50  1  0
 11  9  2  0
 12 20  1  0
 12 19  2  0
 13 14  1  0
 13 20  1  0
 14 21  1  0
 15 16  1  0
 16 17  1  0
 18 10  2  0
 18 11  1  0
 20 16  1  0
 21  1  1  0
 21 15  1  0
 22 23  2  0
 23 42  1  0
 24 23  1  0
 24 27  1  0
 25 22  1  0
 25 26  1  0
 26 24  2  0
 27 28  1  0
 28 29  2  0
 30 33  1  0
 30 29  1  0
 31 30  2  0
 32 31  1  0
 32 27  2  0
 33 34  1  0
 34 39  2  0
 34 35  1  0
 35 36  2  0
 36 37  1  0
 37 41  1  0
 38 37  2  0
 39 38  1  0
 40 39  1  0
 42 43  1  0
 43 46  1  0
 43 45  1  0
 44 42  2  0
 47 48  1  0
 47 22  1  0
 49 47  1  0
 51 53  1  0
 51 50  1  0
 52 63  2  0
 53 58  1  0
 54 62  1  0
 54 64  1  0
 55 61  1  0
 55 57  1  0
 56 62  1  0
 57 56  1  0
 58 57  2  0
 59 60  1  0
 59 53  2  0
 60 55  2  0
 61 54  1  0
 62 52  1  0
 64 66  2  0
 65 64  1  0
 67 65  1  0
 68 73  2  0
 68 77  1  0
 69 65  1  0
 69 73  1  0
 70 69  1  0
 71 72  1  0
 71 70  1  0
 72 68  1  0
 73 74  1  0
 74 75  2  0
 76 75  1  0
 77 76  2  0
 78 52  1  0
 78 79  1  0
 78 88  1  0
 79 82  1  0
 80 79  1  0
 80 84  1  0
 81 80  2  0
 84 83  1  0
 84 86  1  0
 86 87  1  0
 86 85  1  0
 88 91  1  1
 88 89  1  0
 90 88  1  0
M  ISO  4   1 100  21 100  50 101  51 101
M  END
>  <TORSDO>  (33) 
F 16

>  <SCORE>  (33) 
-10.046

>  <name>  (33) 
33

>  <ligand_id>  (33) 
33

>  <original_smiles>  (33) 
[H]c1nc(C([H])([H])Oc2c([H])c([H])c3c(c2[H])C([H])([H])N(C(=O)C([H])(N([H])C(=O)C([H])(N([H])C([H])([H])[H])C([H])([H])[H])C(C([H])([H])[H])(C([H])([H])[H])C([H])([H])[H])C([H])(C(=O)N([H])C2([H])c4c([H])c([H])c([H])c([H])c4C([H])([H])C([H])([H])C2([H])[H])C3([H])[H])c([H])nc1N1C([H])([H])C([H])([H])N(C(=O)N2C([H])([H])C([H])([H])C([H])([H])C([H])(n3nc(-c4c([H])c([H])c(Oc5c([H])c([H])c(F)c([H])c5F)c([H])c4[H])c(C(=O)N([H])[H])c3N([H])[H])C2([H])[H])C([H])([H])C1([H])C([H])([H])[H]

>  <smiles>  (33) 
[H]c1nc(C([H])([H])Oc2c([H])c([H])c3c(c2[H])C([H])([H])N(C(=O)C([H])(N([H])C(=O)C([H])(N([H])C([H])([H])[H])C([H])([H])[H])C(C([H])([H])[H])(C([H])([H])[H])C([H])([H])[H])C([H])(C(=O)N([H])C2([H])c4c([H])c([H])c([H])c([H])c4C([H])([H])C([H])([H])C2([H])[H])C3([H])[H])c([H])nc1N1C([H])([H])C([H])([H])N(C(=O)N2C([H])([H])C([H])([H])C([H])([H])C([H])(n3nc(-c4c([H])c([H])c(Oc5c([H])c([H])c(F)c([H])c5F)c([H])c4[H])c(C(=O)N([H])[H])c3N([H])[H])C2([H])[H])C([H])([H])C1([H])C([H])([H])[H]

$$$$
34:0:0
     RDKit          3D

 94103  0  0  1  0  0  0  0  0999 V2000
  -29.3530  -23.2870   18.4860 C   0  0  0  0  0  3  0  0  0  0  0  0
  -29.4330  -20.6590   19.6100 C   0  0  0  0  0  0  0  0  0  0  0  0
  -28.8380  -23.1520   19.7840 C   0  0  0  0  0  0  0  0  0  0  0  0
  -29.8840  -20.9910   18.2930 C   0  0  0  0  0  0  0  0  0  0  0  0
  -30.4190  -19.9790   17.2980 C   0  0  0  0  0  1  0  0  0  0  0  0
  -29.8520  -22.2480   17.7730 N   0  0  0  0  0  0  0  0  0  0  0  0
  -28.8920  -21.8010   20.3220 N   0  0  0  0  0  0  0  0  0  0  0  0
  -30.7310  -15.0660   19.9170 C   0  0  0  0  0  0  0  0  0  0  0  0
  -30.5600  -12.7010   18.9680 C   0  0  0  0  0  2  0  0  0  0  0  0
  -29.5790  -12.6230   17.7770 C   0  0  0  0  0  2  0  0  0  0  0  0
  -28.1400  -12.3860   18.2730 C   0  0  0  0  0  2  0  0  0  0  0  0
  -27.7730  -13.3020   19.4690 C   0  0  0  0  0  3  0  0  0  0  0  0
  -28.8830  -13.3330   20.5440 C   0  0  0  0  0  2  0  0  0  0  0  0
  -30.1020  -13.8070   19.8700 N   0  0  0  0  0  0  0  0  0  0  0  0
  -31.9180  -15.0610   19.5700 O   0  0  0  0  0  0  0  0  0  0  0  0
  -30.4950  -17.7920   19.6220 C   0  0  0  0  0  2  0  0  0  0  0  0
  -28.8040  -16.6960   20.7420 C   0  0  0  0  0  2  0  0  0  0  0  0
  -29.5780  -19.0670   20.2100 C   0  0  0  0  0  3  0  0  0  0  0  0
  -28.3270  -18.1630   20.3400 C   0  0  0  0  0  3  0  0  0  0  0  0
  -30.0490  -16.3470   20.0370 N   0  0  0  0  0  0  0  0  0  0  0  0
  -25.4360  -13.8560   20.3430 C   0  0  0  0  0  0  0  0  0  0  0  0
  -24.3990  -13.0730   20.7650 C   0  0  0  0  0  0  0  0  0  0  0  0
  -24.8640  -11.7250   20.6780 C   0  0  0  0  0  0  0  0  0  0  0  0
  -26.4670  -12.9860   20.0310 N   0  0  0  0  0  0  0  0  0  0  0  0
  -26.1360  -11.6970   20.2970 N   0  0  0  0  0  0  0  0  0  0  0  0
  -24.1450  -10.4590   20.8720 C   0  0  0  0  0  0  0  0  0  0  0  0
  -24.5630   -9.5120   21.8320 C   0  0  0  0  0  3  0  0  0  0  0  0
  -23.8450   -8.3100   22.0150 C   0  0  0  0  0  3  0  0  0  0  0  0
  -22.6930   -8.0460   21.2360 C   0  0  0  0  0  0  0  0  0  0  0  0
  -22.2940   -8.9820   20.2640 C   0  0  0  0  0  3  0  0  0  0  0  0
  -23.0140  -10.1740   20.0810 C   0  0  0  0  0  3  0  0  0  0  0  0
  -21.9450   -6.8980   21.3290 O   0  0  0  0  0  0  0  0  0  0  0  0
  -21.7880   -6.2350   22.5200 C   0  0  0  0  0  0  0  0  0  0  0  0
  -21.2140   -6.8570   23.6500 C   0  0  0  0  0  3  0  0  0  0  0  0
  -21.0090   -6.1160   24.8320 C   0  0  0  0  0  3  0  0  0  0  0  0
  -21.3670   -4.7560   24.8830 C   0  0  0  0  0  0  0  0  0  0  0  0
  -21.9330   -4.1330   23.7560 C   0  0  0  0  0  3  0  0  0  0  0  0
  -22.1400   -4.8710   22.5770 C   0  0  0  0  0  0  0  0  0  0  0  0
  -22.6660   -4.2620   21.4880 F   0  0  0  0  0  0  0  0  0  0  0  0
  -21.1620   -4.0420   26.0140 F   0  0  0  0  0  0  0  0  0  0  0  0
  -23.0180  -13.5440   21.1140 C   0  0  0  0  0  0  0  0  0  0  0  0
  -22.3330  -12.8360   22.0040 N   0  0  0  0  0  0  0  0  0  0  0  0
  -22.5570  -14.5760   20.6280 O   0  0  0  0  0  0  0  0  0  0  0  0
  -22.7210  -12.0050   22.4220 H   0  0  0  0  0  0  0  0  0  0  0  0
  -21.4060  -13.1320   22.2740 H   0  0  0  0  0  0  0  0  0  0  0  0
  -25.5710  -15.2290   20.1620 N   0  0  0  0  0  0  0  0  0  0  0  0
  -24.7060  -15.7610   20.1610 H   0  0  0  0  0  0  0  0  0  0  0  0
  -26.2150  -15.5450   19.4500 H   0  0  0  0  0  0  0  0  0  0  0  0
  -27.2850  -18.6990   21.2340 N   0  0  0  0  0  4  0  0  0  0  0  0
  -27.6280  -18.8290   22.1700 H   0  0  0  0  0  0  0  0  0  0  0  0
  -26.4990  -18.0740   21.2660 H   0  0  0  0  0  0  0  0  0  0  0  0
  -26.9600  -19.5880   20.8940 H   0  0  0  0  0  0  0  0  0  0  0  0
  -28.1270  -24.5230   20.4480 C   0  0  0  0  0  2  0  0  0  0  0  0
  -28.3850  -26.0510   20.0850 O   0  0  0  0  0  0  0  0  0  0  0  0
  -24.6980  -31.7880   23.0830 C   0  0  0  0  0  0  0  0  0  0  0  0
  -27.3370  -27.0660   20.0700 C   0  0  0  0  0  0  0  0  0  0  0  0
  -23.5290  -30.3930   21.4220 C   0  0  0  0  0  3  0  0  0  0  0  0
  -25.0070  -28.8310   20.0060 C   0  0  0  0  0  0  0  0  0  0  0  0
  -26.0840  -30.6720   21.2850 C   0  0  0  0  0  2  0  0  0  0  0  0
  -26.1800  -29.2770   20.6320 C   0  0  0  0  0  0  0  0  0  0  0  0
  -27.3480  -28.4120   20.6400 C   0  0  0  0  0  3  0  0  0  0  0  0
  -26.1380  -26.7400   19.4000 C   0  0  0  0  0  3  0  0  0  0  0  0
  -25.0020  -27.5800   19.3730 C   0  0  0  0  0  3  0  0  0  0  0  0
  -23.7740  -29.7240   20.0440 C   0  0  0  0  0  2  0  0  0  0  0  0
  -24.7910  -30.9730   21.9870 N   0  0  0  0  0  0  0  0  0  0  0  0
  -23.6040  -32.0600   23.6010 O   0  0  0  0  0  0  0  0  0  0  0  0
  -22.8480  -29.3760   22.3730 C   0  0  0  0  0  0  0  0  0  0  0  0
  -21.5170  -29.2240   22.2610 N   0  0  0  0  0  0  0  0  0  0  0  0
  -23.5220  -28.7220   23.1740 O   0  0  0  0  0  0  0  0  0  0  0  0
  -21.0300  -29.7930   21.5840 H   0  0  0  0  0  0  0  0  0  0  0  0
  -18.1230  -28.0870   22.8250 C   0  0  0  0  0  0  0  0  0  0  0  0
  -20.6940  -28.2810   23.0250 C   0  0  0  0  0  3  0  0  0  0  0  0
  -20.7470  -26.8690   22.3970 C   0  0  0  0  0  2  0  0  0  0  0  0
  -19.6090  -26.6080   21.4070 C   0  0  0  0  0  2  0  0  0  0  0  0
  -18.2490  -26.7620   22.0950 C   0  0  0  0  0  2  0  0  0  0  0  0
  -19.2710  -28.8100   23.2480 C   0  0  0  0  0  0  0  0  0  0  0  0
  -19.0990  -30.0520   23.8950 C   0  0  0  0  0  3  0  0  0  0  0  0
  -17.8110  -30.5740   24.1210 C   0  0  0  0  0  3  0  0  0  0  0  0
  -16.6770  -29.8490   23.7130 C   0  0  0  0  0  3  0  0  0  0  0  0
  -16.8340  -28.6090   23.0710 C   0  0  0  0  0  3  0  0  0  0  0  0
  -25.9620  -32.4350   23.7240 C   0  0  0  0  0  3  0  0  0  0  0  0
  -26.4860  -31.6450   24.9880 C   0  0  1  0  0  0  0  0  0  0  0  0
  -25.3930  -31.3650   26.0450 C   0  0  0  0  0  1  0  0  0  0  0  0
  -27.0950  -30.2860   24.5740 C   0  0  0  0  0  1  0  0  0  0  0  0
  -27.6190  -32.4450   25.6740 C   0  0  0  0  0  1  0  0  0  0  0  0
  -25.6200  -33.8180   24.0950 N   0  0  0  0  0  0  0  0  0  0  0  0
  -25.9320  -34.9030   23.3740 C   0  0  0  0  0  0  0  0  0  0  0  0
  -26.6050  -34.8480   22.3400 O   0  0  0  0  0  0  0  0  0  0  0  0
  -25.0180  -33.9320   24.8970 H   0  0  0  0  0  0  0  0  0  0  0  0
  -24.1800  -36.6850   23.0700 C   0  0  0  0  0  1  0  0  0  0  0  0
  -25.4200  -36.2680   23.8760 C   0  0  0  0  0  3  0  0  0  0  0  0
  -27.5290  -37.1650   24.7620 C   0  0  0  0  0  1  0  0  0  0  0  0
  -26.4360  -37.3420   23.8100 N   0  0  0  0  0  0  0  0  0  0  0  0
  -26.0110  -38.2510   23.9810 H   0  0  0  0  0  0  0  0  0  0  0  0
  1  3  1  0
  2  7  1  0
  3  7  2  0
  3 53  1  0
  4  2  2  0
  5  4  1  0
  6  4  1  0
  6  1  2  0
  8 20  1  0
  9 14  1  0
 10 11  1  0
 10  9  1  0
 12 11  1  0
 12 24  1  0
 12 13  1  0
 14  8  1  0
 14 13  1  0
 15  8  2  0
 16 20  1  0
 16 18  1  0
 18  2  1  0
 18 19  1  0
 19 17  1  0
 19 49  1  0
 20 17  1  0
 21 22  2  0
 22 41  1  0
 23 22  1  0
 23 26  1  0
 24 25  1  0
 24 21  1  0
 25 23  2  0
 26 27  1  0
 27 28  2  0
 29 32  1  0
 29 28  1  0
 30 29  2  0
 31 30  1  0
 31 26  2  0
 32 33  1  0
 33 38  2  0
 33 34  1  0
 34 35  2  0
 35 36  1  0
 36 40  1  0
 37 36  2  0
 38 37  1  0
 39 38  1  0
 41 42  1  0
 42 45  1  0
 42 44  1  0
 43 41  2  0
 46 21  1  0
 47 46  1  0
 48 46  1  0
 49 51  1  0
 49 50  1  0
 52 49  1  0
 54 53  1  0
 55 66  2  0
 56 54  1  0
 56 61  1  0
 57 65  1  0
 57 67  1  0
 58 64  1  0
 58 60  1  0
 59 65  1  0
 60 61  2  0
 60 59  1  0
 62 56  2  0
 63 62  1  0
 63 58  2  0
 64 57  1  0
 65 55  1  0
 67 69  2  0
 68 67  1  0
 70 68  1  0
 71 80  2  0
 71 76  1  0
 72 68  1  0
 72 76  1  0
 73 72  1  0
 74 75  1  0
 74 73  1  0
 75 71  1  0
 76 77  2  0
 77 78  1  0
 79 78  2  0
 80 79  1  0
 81 55  1  0
 81 86  1  0
 81 82  1  0
 82 85  1  1
 82 83  1  0
 84 82  1  0
 86 89  1  0
 87 91  1  0
 87 86  1  0
 88 87  2  0
 91 90  1  0
 93 91  1  0
 93 94  1  0
 93 92  1  0
M  ISO  4   8 100  20 100  53 101  54 101
M  END
>  <TORSDO>  (34) 
F 18

>  <SCORE>  (34) 
-13.996

>  <name>  (34) 
34

>  <ligand_id>  (34) 
34

>  <original_smiles>  (34) 
[H]c1nc(C([H])([H])[H])c(C2([H])C([H])([H])N(C(=O)N3C([H])([H])C([H])([H])C([H])([H])C([H])(n4nc(-c5c([H])c([H])c(Oc6c([H])c([H])c(F)c([H])c6F)c([H])c5[H])c(C(=O)N([H])[H])c4N([H])[H])C3([H])[H])C([H])([H])C2([H])[N+]([H])([H])[H])nc1C([H])([H])Oc1c([H])c([H])c2c(c1[H])C([H])([H])N(C(=O)C([H])(N([H])C(=O)C([H])(N([H])C([H])([H])[H])C([H])([H])[H])C(C([H])([H])[H])(C([H])([H])[H])C([H])([H])[H])C([H])(C(=O)N([H])C1([H])c3c([H])c([H])c([H])c([H])c3C([H])([H])C([H])([H])C1([H])[H])C2([H])[H]

>  <smiles>  (34) 
[H]c1nc(C([H])([H])[H])c(C2([H])C([H])([H])N(C(=O)N3C([H])([H])C([H])([H])C([H])([H])C([H])(n4nc(-c5c([H])c([H])c(Oc6c([H])c([H])c(F)c([H])c6F)c([H])c5[H])c(C(=O)N([H])[H])c4N([H])[H])C3([H])[H])C([H])([H])C2([H])[N+]([H])([H])[H])nc1C([H])([H])Oc1c([H])c([H])c2c(c1[H])C([H])([H])N(C(=O)C([H])(N([H])C(=O)C([H])(N([H])C([H])([H])[H])C([H])([H])[H])C(C([H])([H])[H])(C([H])([H])[H])C([H])([H])[H])C([H])(C(=O)N([H])C1([H])c3c([H])c([H])c([H])c([H])c3C([H])([H])C([H])([H])C1([H])[H])C2([H])[H]

$$$$
35:0:0
     RDKit          3D

 88 96  0  0  1  0  0  0  0  0999 V2000
  -29.6040  -20.6900   20.3360 C   0  0  0  0  0  0  0  0  0  0  0  0
  -28.7460  -21.8250   20.3050 N   0  0  0  0  0  0  0  0  0  0  0  0
  -30.8130  -20.9200   20.3860 O   0  0  0  0  0  0  0  0  0  0  0  0
  -27.7590  -21.6010   20.2820 H   0  0  0  0  0  0  0  0  0  0  0  0
  -29.6170  -18.3770   21.5680 C   0  0  0  0  0  2  0  0  0  0  0  0
  -29.1390  -19.1170   20.3490 C   0  0  0  0  0  3  0  0  0  0  0  0
  -30.0760  -17.7010   20.2960 C   0  0  0  0  0  3  0  0  0  0  0  0
  -30.5190  -15.0070   20.0160 C   0  0  0  0  0  0  0  0  0  0  0  0
  -30.3630  -12.6810   19.0130 C   0  0  0  0  0  2  0  0  0  0  0  0
  -29.3560  -12.6590   17.8390 C   0  0  0  0  0  2  0  0  0  0  0  0
  -27.9210  -12.4330   18.3500 C   0  0  0  0  0  2  0  0  0  0  0  0
  -27.5830  -13.3200   19.5760 C   0  0  0  0  0  3  0  0  0  0  0  0
  -28.7030  -13.3040   20.6380 C   0  0  0  0  0  2  0  0  0  0  0  0
  -29.9320  -13.7430   19.9660 N   0  0  0  0  0  0  0  0  0  0  0  0
  -31.7010  -15.0920   19.6610 O   0  0  0  0  0  0  0  0  0  0  0  0
  -29.7410  -16.1720   20.2740 N   0  0  0  0  0  0  0  0  0  0  0  0
  -28.7820  -15.9530   20.4990 H   0  0  0  0  0  0  0  0  0  0  0  0
  -25.2490  -13.8680   20.4690 C   0  0  0  0  0  0  0  0  0  0  0  0
  -24.2110  -13.0780   20.8760 C   0  0  0  0  0  0  0  0  0  0  0  0
  -24.6750  -11.7310   20.7760 C   0  0  0  0  0  0  0  0  0  0  0  0
  -26.2780  -13.0010   20.1430 N   0  0  0  0  0  0  0  0  0  0  0  0
  -25.9460  -11.7090   20.3920 N   0  0  0  0  0  0  0  0  0  0  0  0
  -23.9620  -10.4610   20.9650 C   0  0  0  0  0  0  0  0  0  0  0  0
  -24.4070   -9.4950   21.8950 C   0  0  0  0  0  3  0  0  0  0  0  0
  -23.6930   -8.2910   22.0720 C   0  0  0  0  0  3  0  0  0  0  0  0
  -22.5190   -8.0430   21.3210 C   0  0  0  0  0  0  0  0  0  0  0  0
  -22.0940   -8.9970   20.3780 C   0  0  0  0  0  3  0  0  0  0  0  0
  -22.8090  -10.1930   20.1990 C   0  0  0  0  0  3  0  0  0  0  0  0
  -21.7750   -6.8910   21.4080 O   0  0  0  0  0  0  0  0  0  0  0  0
  -21.6800   -6.1830   22.5790 C   0  0  0  0  0  0  0  0  0  0  0  0
  -21.1550   -6.7570   23.7580 C   0  0  0  0  0  3  0  0  0  0  0  0
  -21.0120   -5.9740   24.9200 C   0  0  0  0  0  3  0  0  0  0  0  0
  -21.3820   -4.6160   24.9040 C   0  0  0  0  0  0  0  0  0  0  0  0
  -21.9000   -4.0400   23.7310 C   0  0  0  0  0  3  0  0  0  0  0  0
  -22.0460   -4.8220   22.5710 C   0  0  0  0  0  0  0  0  0  0  0  0
  -22.5250   -4.2570   21.4360 F   0  0  0  0  0  0  0  0  0  0  0  0
  -21.2390   -3.8600   26.0180 F   0  0  0  0  0  0  0  0  0  0  0  0
  -22.8310  -13.5420   21.2400 C   0  0  0  0  0  0  0  0  0  0  0  0
  -22.1560  -12.8220   22.1300 N   0  0  0  0  0  0  0  0  0  0  0  0
  -22.3610  -14.5790   20.7730 O   0  0  0  0  0  0  0  0  0  0  0  0
  -22.5510  -11.9850   22.5310 H   0  0  0  0  0  0  0  0  0  0  0  0
  -21.2330  -13.1150   22.4150 H   0  0  0  0  0  0  0  0  0  0  0  0
  -25.3980  -15.2440   20.3190 N   0  0  0  0  0  0  0  0  0  0  0  0
  -24.6260  -15.8830   20.4740 H   0  0  0  0  0  0  0  0  0  0  0  0
  -26.2000  -15.6890   19.8930 H   0  0  0  0  0  0  0  0  0  0  0  0
  -29.0760  -23.3810   20.3850 C   0  0  0  0  0  3  0  0  0  0  0  0
  -27.9990  -24.6620   20.1360 C   0  0  0  0  0  3  0  0  0  0  0  0
  -28.2640  -26.1930   20.3100 O   0  0  0  0  0  0  0  0  0  0  0  0
  -24.6390  -31.8820   23.2930 C   0  0  0  0  0  0  0  0  0  0  0  0
  -27.2090  -27.1790   20.2400 C   0  0  0  0  0  0  0  0  0  0  0  0
  -23.4400  -30.5030   21.6390 C   0  0  0  0  0  3  0  0  0  0  0  0
  -24.8860  -28.9330   20.2080 C   0  0  0  0  0  0  0  0  0  0  0  0
  -25.9960  -30.7580   21.4880 C   0  0  0  0  0  2  0  0  0  0  0  0
  -26.0650  -29.3720   20.8230 C   0  0  0  0  0  0  0  0  0  0  0  0
  -27.2270  -28.5130   20.8190 C   0  0  0  0  0  3  0  0  0  0  0  0
  -26.0030  -26.8420   19.5840 C   0  0  0  0  0  3  0  0  0  0  0  0
  -24.8690  -27.6830   19.5710 C   0  0  0  0  0  3  0  0  0  0  0  0
  -23.6610  -29.8330   20.2580 C   0  0  0  0  0  2  0  0  0  0  0  0
  -24.7120  -31.0710   22.1940 N   0  0  0  0  0  0  0  0  0  0  0  0
  -23.5530  -32.1660   23.8200 O   0  0  0  0  0  0  0  0  0  0  0  0
  -22.7520  -29.4940   22.5930 C   0  0  0  0  0  0  0  0  0  0  0  0
  -21.4250  -29.3250   22.4560 N   0  0  0  0  0  0  0  0  0  0  0  0
  -23.4170  -28.8630   23.4200 O   0  0  0  0  0  0  0  0  0  0  0  0
  -20.9470  -29.8790   21.7590 H   0  0  0  0  0  0  0  0  0  0  0  0
  -18.0360  -28.1350   22.9390 C   0  0  0  0  0  0  0  0  0  0  0  0
  -20.5960  -28.3860   23.2170 C   0  0  0  0  0  3  0  0  0  0  0  0
  -20.6950  -26.9580   22.6330 C   0  0  0  0  0  2  0  0  0  0  0  0
  -19.5940  -26.6470   21.6130 C   0  0  0  0  0  2  0  0  0  0  0  0
  -18.2100  -26.7910   22.2520 C   0  0  0  0  0  2  0  0  0  0  0  0
  -19.1560  -28.8920   23.3770 C   0  0  0  0  0  0  0  0  0  0  0  0
  -18.9370  -30.1500   23.9790 C   0  0  0  0  0  3  0  0  0  0  0  0
  -17.6330  -30.6520   24.1480 C   0  0  0  0  0  3  0  0  0  0  0  0
  -16.5280  -29.8930   23.7240 C   0  0  0  0  0  3  0  0  0  0  0  0
  -16.7310  -28.6370   23.1250 C   0  0  0  0  0  3  0  0  0  0  0  0
  -25.9180  -32.5080   23.9300 C   0  0  0  0  0  3  0  0  0  0  0  0
  -26.4060  -31.7420   25.2200 C   0  0  1  0  0  0  0  0  0  0  0  0
  -25.2930  -31.5210   26.2730 C   0  0  0  0  0  1  0  0  0  0  0  0
  -26.9830  -30.3560   24.8530 C   0  0  0  0  0  1  0  0  0  0  0  0
  -27.5520  -32.5310   25.8940 C   0  0  0  0  0  1  0  0  0  0  0  0
  -25.6160  -33.9120   24.2520 N   0  0  0  0  0  0  0  0  0  0  0  0
  -25.9310  -34.9590   23.4790 C   0  0  0  0  0  0  0  0  0  0  0  0
  -26.5720  -34.8460   22.4310 O   0  0  0  0  0  0  0  0  0  0  0  0
  -25.0480  -34.0740   25.0710 H   0  0  0  0  0  0  0  0  0  0  0  0
  -24.1840  -36.7460   23.1810 C   0  0  0  0  0  1  0  0  0  0  0  0
  -25.4640  -36.3550   23.9390 C   0  0  0  0  0  3  0  0  0  0  0  0
  -27.6270  -37.2650   24.6610 C   0  0  0  0  0  1  0  0  0  0  0  0
  -26.4870  -37.4090   23.7600 N   0  0  0  0  0  0  0  0  0  0  0  0
  -26.0850  -38.3310   23.9020 H   0  0  0  0  0  0  0  0  0  0  0  0
  1  3  2  0
  2  1  1  0
  2 46  1  0
  4  2  1  0
  6  1  1  0
  6  5  1  0
  7 16  1  0
  7  6  1  0
  7  5  1  0
  8 16  1  0
  9 14  1  0
 10 11  1  0
 10  9  1  0
 12 11  1  0
 12 21  1  0
 12 13  1  0
 14  8  1  0
 14 13  1  0
 15  8  2  0
 16 17  1  0
 18 19  2  0
 19 38  1  0
 20 19  1  0
 20 23  1  0
 21 22  1  0
 21 18  1  0
 22 20  2  0
 23 24  1  0
 24 25  2  0
 26 29  1  0
 26 25  1  0
 27 26  2  0
 28 27  1  0
 28 23  2  0
 29 30  1  0
 30 31  1  0
 31 32  2  0
 33 32  1  0
 33 37  1  0
 34 33  2  0
 35 30  2  0
 35 34  1  0
 36 35  1  0
 38 39  1  0
 39 42  1  0
 39 41  1  0
 40 38  2  0
 43 18  1  0
 43 44  1  0
 45 43  1  0
 47 48  1  0
 47 46  2  0
 49 60  2  0
 50 48  1  0
 50 55  1  0
 51 59  1  0
 51 61  1  0
 52 58  1  0
 52 54  1  0
 53 59  1  0
 54 53  1  0
 55 54  2  0
 56 50  2  0
 57 56  1  0
 57 52  2  0
 58 51  1  0
 59 49  1  0
 61 63  2  0
 62 61  1  0
 64 62  1  0
 65 74  2  0
 65 70  1  0
 66 62  1  0
 66 70  1  0
 67 66  1  0
 68 69  1  0
 68 67  1  0
 69 65  1  0
 70 71  2  0
 71 72  1  0
 73 72  2  0
 74 73  1  0
 75 49  1  0
 75 80  1  0
 75 76  1  0
 76 79  1  1
 76 77  1  0
 78 76  1  0
 80 83  1  0
 81 85  1  0
 81 80  1  0
 82 81  2  0
 85 84  1  0
 87 88  1  0
 87 85  1  0
 87 86  1  0
M  ISO  4   8 100  16 100  47 101  48 101
M  END
>  <TORSDO>  (35) 
F 19

>  <SCORE>  (35) 
-13.569

>  <name>  (35) 
35

>  <ligand_id>  (35) 
35

>  <original_smiles>  (35) 
[H]c1c([H])c([H])c2c(c1[H])C([H])([H])C([H])([H])C([H])([H])C2([H])N([H])C(=O)C1([H])N(C(=O)C([H])(N([H])C(=O)C([H])(N([H])C([H])([H])[H])C([H])([H])[H])C(C([H])([H])[H])(C([H])([H])[H])C([H])([H])[H])C([H])([H])c2c([H])c(OC([H])([H])C([H])([H])N([H])C(=O)C3([H])C([H])([H])C3([H])N([H])C(=O)N3C([H])([H])C([H])([H])C([H])([H])C([H])(n4nc(-c5c([H])c([H])c(Oc6c([H])c([H])c(F)c([H])c6F)c([H])c5[H])c(C(=O)N([H])[H])c4N([H])[H])C3([H])[H])c([H])c([H])c2C1([H])[H]

>  <smiles>  (35) 
[H]c1c([H])c([H])c2c(c1[H])C([H])([H])C([H])([H])C([H])([H])C2([H])N([H])C(=O)C1([H])N(C(=O)C([H])(N([H])C(=O)C([H])(N([H])C([H])([H])[H])C([H])([H])[H])C(C([H])([H])[H])(C([H])([H])[H])C([H])([H])[H])C([H])([H])c2c([H])c(OC([H])([H])C([H])([H])N([H])C(=O)C3([H])C([H])([H])C3([H])N([H])C(=O)N3C([H])([H])C([H])([H])C([H])([H])C([H])(n4nc(-c5c([H])c([H])c(Oc6c([H])c([H])c(F)c([H])c6F)c([H])c5[H])c(C(=O)N([H])[H])c4N([H])[H])C3([H])[H])c([H])c([H])c2C1([H])[H]

$$$$
36:0:0
     RDKit          3D

 94103  0  0  1  0  0  0  0  0999 V2000
  -30.8240  -22.5760   22.0330 C   0  0  0  0  0  3  0  0  0  0  0  0
  -30.3280  -24.7000   21.2520 C   0  0  0  0  0  3  0  0  0  0  0  0
  -29.6060  -22.0750   21.5130 C   0  0  0  0  0  0  0  0  0  0  0  0
  -29.0950  -24.2340   20.7420 C   0  0  0  0  0  0  0  0  0  0  0  0
  -31.1940  -23.8740   21.8960 N   0  0  0  0  0  0  0  0  0  0  0  0
  -28.7430  -22.9160   20.8670 N   0  0  0  0  0  0  0  0  0  0  0  0
  -29.1600  -20.6080   21.7440 C   0  0  0  0  0  2  0  0  0  0  0  0
  -30.1750  -19.5560   21.4310 N   0  0  0  0  0  4  0  0  0  0  0  0
  -30.9490  -19.6380   22.0700 H   0  0  0  0  0  0  0  0  0  0  0  0
  -30.5170  -19.7560   20.5050 H   0  0  0  0  0  0  0  0  0  0  0  0
  -29.6860  -18.1380   21.4320 C   0  0  0  0  0  2  0  0  0  0  0  0
  -30.6840  -14.6270   20.3700 C   0  0  0  0  0  0  0  0  0  0  0  0
  -30.3650  -12.3900   19.3680 C   0  0  0  0  0  2  0  0  0  0  0  0
  -29.4520  -12.4960   18.1280 C   0  0  0  0  0  2  0  0  0  0  0  0
  -27.9670  -12.3890   18.5380 C   0  0  0  0  0  2  0  0  0  0  0  0
  -27.5950  -13.2720   19.7590 C   0  0  0  0  0  3  0  0  0  0  0  0
  -28.6500  -13.1940   20.8870 C   0  0  0  0  0  2  0  0  0  0  0  0
  -29.9680  -13.4630   20.2950 N   0  0  0  0  0  0  0  0  0  0  0  0
  -31.9010  -14.6390   20.1870 O   0  0  0  0  0  0  0  0  0  0  0  0
  -29.9410  -17.4250   18.4780 C   0  0  0  0  0  2  0  0  0  0  0  0
  -31.1350  -17.6820   19.3710 C   0  0  0  0  0  2  0  0  0  0  0  0
  -29.3150  -16.1550   19.0750 C   0  0  0  0  0  2  0  0  0  0  0  0
  -30.6550  -17.1200   20.7150 C   0  0  0  0  0  3  0  0  0  0  0  0
  -29.9960  -15.8210   20.3500 N   0  0  0  0  0  0  0  0  0  0  0  0
  -25.2010  -13.8910   20.4490 C   0  0  0  0  0  0  0  0  0  0  0  0
  -24.1290  -13.1250   20.8150 C   0  0  0  0  0  0  0  0  0  0  0  0
  -24.5930  -11.7730   20.8180 C   0  0  0  0  0  0  0  0  0  0  0  0
  -26.2470  -13.0050   20.2440 N   0  0  0  0  0  0  0  0  0  0  0  0
  -25.8880  -11.7290   20.5330 N   0  0  0  0  0  0  0  0  0  0  0  0
  -23.8680  -10.5120   21.0150 C   0  0  0  0  0  0  0  0  0  0  0  0
  -24.2910   -9.5590   21.9680 C   0  0  0  0  0  3  0  0  0  0  0  0
  -23.5630   -8.3650   22.1560 C   0  0  0  0  0  3  0  0  0  0  0  0
  -22.4020   -8.1140   21.3890 C   0  0  0  0  0  0  0  0  0  0  0  0
  -21.9980   -9.0550   20.4260 C   0  0  0  0  0  3  0  0  0  0  0  0
  -22.7260  -10.2410   20.2360 C   0  0  0  0  0  3  0  0  0  0  0  0
  -21.6490   -6.9680   21.4850 O   0  0  0  0  0  0  0  0  0  0  0  0
  -21.5910   -6.2420   22.6470 C   0  0  0  0  0  0  0  0  0  0  0  0
  -21.1550   -6.8140   23.8610 C   0  0  0  0  0  3  0  0  0  0  0  0
  -21.0430   -6.0140   25.0170 C   0  0  0  0  0  3  0  0  0  0  0  0
  -21.3570   -4.6430   24.9580 C   0  0  0  0  0  0  0  0  0  0  0  0
  -21.7870   -4.0700   23.7470 C   0  0  0  0  0  3  0  0  0  0  0  0
  -21.9020   -4.8680   22.5950 C   0  0  0  0  0  0  0  0  0  0  0  0
  -22.2950   -4.3070   21.4260 F   0  0  0  0  0  0  0  0  0  0  0  0
  -21.2420   -3.8720   26.0640 F   0  0  0  0  0  0  0  0  0  0  0  0
  -22.7260  -13.6040   21.0530 C   0  0  0  0  0  0  0  0  0  0  0  0
  -21.9850  -12.9240   21.9190 N   0  0  0  0  0  0  0  0  0  0  0  0
  -22.2970  -14.6190   20.5030 O   0  0  0  0  0  0  0  0  0  0  0  0
  -22.3460  -12.1030   22.3830 H   0  0  0  0  0  0  0  0  0  0  0  0
  -21.0440  -13.2290   22.1260 H   0  0  0  0  0  0  0  0  0  0  0  0
  -25.3690  -15.2580   20.2500 N   0  0  0  0  0  0  0  0  0  0  0  0
  -24.6050  -15.9190   20.3390 H   0  0  0  0  0  0  0  0  0  0  0  0
  -26.2330  -15.6880   19.9490 H   0  0  0  0  0  0  0  0  0  0  0  0
  -28.0850  -25.1690   20.0470 C   0  0  0  0  0  2  0  0  0  0  0  0
  -28.2960  -26.6060   20.1570 O   0  0  0  0  0  0  0  0  0  0  0  0
  -24.5320  -31.8620   23.1660 C   0  0  0  0  0  0  0  0  0  0  0  0
  -27.1590  -27.4010   20.0700 C   0  0  0  0  0  0  0  0  0  0  0  0
  -23.3250  -30.4700   21.5190 C   0  0  0  0  0  3  0  0  0  0  0  0
  -24.7740  -28.9500   20.0720 C   0  0  0  0  0  0  0  0  0  0  0  0
  -25.8530  -30.8220   21.3200 C   0  0  0  0  0  2  0  0  0  0  0  0
  -25.9360  -29.4560   20.6680 C   0  0  0  0  0  0  0  0  0  0  0  0
  -27.1300  -28.6900   20.6640 C   0  0  0  0  0  3  0  0  0  0  0  0
  -25.9800  -26.9420   19.4300 C   0  0  0  0  0  3  0  0  0  0  0  0
  -24.7960  -27.6960   19.4430 C   0  0  0  0  0  3  0  0  0  0  0  0
  -23.5310  -29.8080   20.1310 C   0  0  0  0  0  2  0  0  0  0  0  0
  -24.5890  -31.0680   22.0590 N   0  0  0  0  0  0  0  0  0  0  0  0
  -23.4520  -32.1290   23.7110 O   0  0  0  0  0  0  0  0  0  0  0  0
  -22.6760  -29.4410   22.4730 C   0  0  0  0  0  0  0  0  0  0  0  0
  -21.3480  -29.2740   22.3660 N   0  0  0  0  0  0  0  0  0  0  0  0
  -23.3650  -28.7960   23.2700 O   0  0  0  0  0  0  0  0  0  0  0  0
  -20.8510  -29.8480   21.7000 H   0  0  0  0  0  0  0  0  0  0  0  0
  -17.9680  -28.1090   22.9050 C   0  0  0  0  0  0  0  0  0  0  0  0
  -20.5340  -28.3320   23.1350 C   0  0  0  0  0  3  0  0  0  0  0  0
  -20.6090  -26.9100   22.5340 C   0  0  0  0  0  2  0  0  0  0  0  0
  -19.4850  -26.6170   21.5350 C   0  0  0  0  0  2  0  0  0  0  0  0
  -18.1160  -26.7680   22.2040 C   0  0  0  0  0  2  0  0  0  0  0  0
  -19.1040  -28.8500   23.3270 C   0  0  0  0  0  0  0  0  0  0  0  0
  -18.9100  -30.1070   23.9410 C   0  0  0  0  0  3  0  0  0  0  0  0
  -17.6130  -30.6200   24.1370 C   0  0  0  0  0  3  0  0  0  0  0  0
  -16.4940  -29.8750   23.7290 C   0  0  0  0  0  3  0  0  0  0  0  0
  -16.6720  -28.6210   23.1190 C   0  0  0  0  0  3  0  0  0  0  0  0
  -25.8180  -32.4920   23.7860 C   0  0  0  0  0  3  0  0  0  0  0  0
  -26.3530  -31.7020   25.0430 C   0  0  1  0  0  0  0  0  0  0  0  0
  -25.2740  -31.4380   26.1200 C   0  0  0  0  0  1  0  0  0  0  0  0
  -26.9380  -30.3370   24.6150 C   0  0  0  0  0  1  0  0  0  0  0  0
  -27.5060  -32.4910   25.7070 C   0  0  0  0  0  1  0  0  0  0  0  0
  -25.5050  -33.8820   24.1440 N   0  0  0  0  0  0  0  0  0  0  0  0
  -25.8260  -34.9510   23.4010 C   0  0  0  0  0  0  0  0  0  0  0  0
  -26.4870  -34.8680   22.3620 O   0  0  0  0  0  0  0  0  0  0  0  0
  -24.9180  -34.0220   24.9540 H   0  0  0  0  0  0  0  0  0  0  0  0
  -24.0850  -36.7380   23.0860 C   0  0  0  0  0  1  0  0  0  0  0  0
  -25.3320  -36.3270   23.8860 C   0  0  0  0  0  3  0  0  0  0  0  0
  -27.4660  -37.2050   24.7220 C   0  0  0  0  0  1  0  0  0  0  0  0
  -26.3570  -37.3870   23.7880 N   0  0  0  0  0  0  0  0  0  0  0  0
  -25.9460  -38.3010   23.9590 H   0  0  0  0  0  0  0  0  0  0  0  0
  2  5  2  0
  3  7  1  0
  3  1  2  0
  4  6  2  0
  4  2  1  0
  5  1  1  0
  6  3  1  0
  8 11  1  0
  8  7  1  0
  8  9  1  0
 10  8  1  0
 13 18  1  0
 14 15  1  0
 14 13  1  0
 16 15  1  0
 16 28  1  0
 16 17  1  0
 18 12  1  0
 18 17  1  0
 19 12  2  0
 20 22  1  0
 20 21  1  0
 21 23  1  0
 22 24  1  0
 23 11  1  0
 24 12  1  0
 24 23  1  0
 25 26  2  0
 26 27  1  0
 26 45  1  0
 27 30  1  0
 28 25  1  0
 28 29  1  0
 29 27  2  0
 30 31  1  0
 31 32  2  0
 33 36  1  0
 33 32  1  0
 34 33  2  0
 35 34  1  0
 35 30  2  0
 36 37  1  0
 37 38  1  0
 38 39  2  0
 40 39  1  0
 40 44  1  0
 41 40  2  0
 42 37  2  0
 42 41  1  0
 43 42  1  0
 45 46  1  0
 46 49  1  0
 46 48  1  0
 47 45  2  0
 50 51  1  0
 50 25  1  0
 52 50  1  0
 53 54  1  0
 53  4  1  0
 55 66  2  0
 56 54  1  0
 56 61  1  0
 57 65  1  0
 57 67  1  0
 58 64  1  0
 58 60  1  0
 59 65  1  0
 60 59  1  0
 61 60  2  0
 62 63  1  0
 62 56  2  0
 63 58  2  0
 64 57  1  0
 65 55  1  0
 67 69  2  0
 68 67  1  0
 70 68  1  0
 71 80  2  0
 71 76  1  0
 72 68  1  0
 72 76  1  0
 73 72  1  0
 74 75  1  0
 74 73  1  0
 75 71  1  0
 76 77  2  0
 77 78  1  0
 79 78  2  0
 80 79  1  0
 81 55  1  0
 81 86  1  0
 81 82  1  0
 82 85  1  1
 82 83  1  0
 84 82  1  0
 86 89  1  0
 87 91  1  0
 87 86  1  0
 88 87  2  0
 91 90  1  0
 93 91  1  0
 93 94  1  0
 93 92  1  0
M  ISO  4  12 100  24 100  53 101  54 101
M  END
>  <TORSDO>  (36) 
F 20

>  <SCORE>  (36) 
-12.906

>  <name>  (36) 
36

>  <ligand_id>  (36) 
36

>  <original_smiles>  (36) 
[H]c1nc([H])c(C([H])([H])[N+]([H])([H])C([H])([H])C2([H])N(C(=O)N3C([H])([H])C([H])([H])C([H])([H])C([H])(n4nc(-c5c([H])c([H])c(Oc6c([H])c([H])c(F)c([H])c6F)c([H])c5[H])c(C(=O)N([H])[H])c4N([H])[H])C3([H])[H])C([H])([H])C([H])([H])C2([H])[H])nc1C([H])([H])Oc1c([H])c([H])c2c(c1[H])C([H])([H])N(C(=O)C([H])(N([H])C(=O)C([H])(N([H])C([H])([H])[H])C([H])([H])[H])C(C([H])([H])[H])(C([H])([H])[H])C([H])([H])[H])C([H])(C(=O)N([H])C1([H])c3c([H])c([H])c([H])c([H])c3C([H])([H])C([H])([H])C1([H])[H])C2([H])[H]

>  <smiles>  (36) 
[H]c1nc([H])c(C([H])([H])[N+]([H])([H])C([H])([H])C2([H])N(C(=O)N3C([H])([H])C([H])([H])C([H])([H])C([H])(n4nc(-c5c([H])c([H])c(Oc6c([H])c([H])c(F)c([H])c6F)c([H])c5[H])c(C(=O)N([H])[H])c4N([H])[H])C3([H])[H])C([H])([H])C([H])([H])C2([H])[H])nc1C([H])([H])Oc1c([H])c([H])c2c(c1[H])C([H])([H])N(C(=O)C([H])(N([H])C(=O)C([H])(N([H])C([H])([H])[H])C([H])([H])[H])C(C([H])([H])[H])(C([H])([H])[H])C([H])([H])[H])C([H])(C(=O)N([H])C1([H])c3c([H])c([H])c([H])c([H])c3C([H])([H])C([H])([H])C1([H])[H])C2([H])[H]

$$$$
37:0:0
     RDKit          3D

 91100  0  0  1  0  0  0  0  0999 V2000
  -29.7350  -21.4590   21.2400 C   0  0  0  0  0  3  0  0  0  0  0  0
  -28.6420  -20.9860   19.2360 C   0  0  0  0  0  3  0  0  0  0  0  0
  -29.0410  -22.0380   20.1330 C   0  0  0  0  0  0  0  0  0  0  0  0
  -30.0560  -20.0450   21.3400 C   0  0  0  0  0  0  0  0  0  0  0  0
  -29.6930  -19.0940   20.3280 C   0  0  0  0  0  0  0  0  0  0  0  0
  -30.8940  -19.5870   22.5230 C   0  0  0  0  0  1  0  0  0  0  0  0
  -28.9550  -19.6300   19.3090 N   0  0  0  0  0  0  0  0  0  0  0  0
  -29.1510  -23.9660   18.2810 C   0  0  0  0  0  2  0  0  0  0  0  0
  -30.3040  -24.1700   19.2100 C   0  0  0  0  0  2  0  0  0  0  0  0
  -28.9890  -23.6430   19.7610 C   0  0  2  0  0  0  0  0  0  0  0  0
  -28.1060  -24.7830   20.5420 C   0  0  0  0  0  2  0  0  0  0  0  0
  -28.2960  -26.3050   20.3070 O   0  0  0  0  0  0  0  0  0  0  0  0
  -24.6190  -31.9290   23.2970 C   0  0  0  0  0  0  0  0  0  0  0  0
  -27.2090  -27.2390   20.2850 C   0  0  0  0  0  0  0  0  0  0  0  0
  -23.4190  -30.5180   21.6690 C   0  0  0  0  0  3  0  0  0  0  0  0
  -24.8680  -28.9440   20.2490 C   0  0  0  0  0  0  0  0  0  0  0  0
  -25.9680  -30.8050   21.4880 C   0  0  0  0  0  2  0  0  0  0  0  0
  -26.0450  -29.4100   20.8490 C   0  0  0  0  0  0  0  0  0  0  0  0
  -27.2190  -28.5740   20.8460 C   0  0  0  0  0  3  0  0  0  0  0  0
  -26.0100  -26.8630   19.6450 C   0  0  0  0  0  3  0  0  0  0  0  0
  -24.8620  -27.6840   19.6310 C   0  0  0  0  0  3  0  0  0  0  0  0
  -23.6370  -29.8330   20.2920 C   0  0  0  0  0  2  0  0  0  0  0  0
  -24.6890  -31.1060   22.2070 N   0  0  0  0  0  0  0  0  0  0  0  0
  -23.5340  -32.2110   23.8290 O   0  0  0  0  0  0  0  0  0  0  0  0
  -22.7510  -29.5120   22.6390 C   0  0  0  0  0  0  0  0  0  0  0  0
  -21.4280  -29.3110   22.4970 N   0  0  0  0  0  0  0  0  0  0  0  0
  -23.4240  -28.9140   23.4820 O   0  0  0  0  0  0  0  0  0  0  0  0
  -20.9410  -29.8460   21.7920 H   0  0  0  0  0  0  0  0  0  0  0  0
  -18.0700  -28.0380   22.9580 C   0  0  0  0  0  0  0  0  0  0  0  0
  -20.6150  -28.3710   23.2730 C   0  0  0  0  0  3  0  0  0  0  0  0
  -20.7650  -26.9300   22.7350 C   0  0  0  0  0  2  0  0  0  0  0  0
  -19.6930  -26.5560   21.7050 C   0  0  0  0  0  2  0  0  0  0  0  0
  -18.2950  -26.6800   22.3150 C   0  0  0  0  0  2  0  0  0  0  0  0
  -19.1590  -28.8390   23.3930 C   0  0  0  0  0  0  0  0  0  0  0  0
  -18.8940  -30.1070   23.9540 C   0  0  0  0  0  3  0  0  0  0  0  0
  -17.5720  -30.5770   24.0840 C   0  0  0  0  0  3  0  0  0  0  0  0
  -16.4980  -29.7730   23.6660 C   0  0  0  0  0  3  0  0  0  0  0  0
  -16.7470  -28.5060   23.1070 C   0  0  0  0  0  3  0  0  0  0  0  0
  -25.8980  -32.5730   23.9150 C   0  0  0  0  0  3  0  0  0  0  0  0
  -26.4060  -31.8230   25.2090 C   0  0  1  0  0  0  0  0  0  0  0  0
  -25.3050  -31.5990   26.2710 C   0  0  0  0  0  1  0  0  0  0  0  0
  -26.9960  -30.4410   24.8470 C   0  0  0  0  0  1  0  0  0  0  0  0
  -27.5510  -32.6300   25.8650 C   0  0  0  0  0  1  0  0  0  0  0  0
  -25.5890  -33.9780   24.2240 N   0  0  0  0  0  0  0  0  0  0  0  0
  -25.9270  -35.0210   23.4550 C   0  0  0  0  0  0  0  0  0  0  0  0
  -26.6010  -34.9020   22.4280 O   0  0  0  0  0  0  0  0  0  0  0  0
  -24.9920  -34.1440   25.0210 H   0  0  0  0  0  0  0  0  0  0  0  0
  -24.2160  -36.8240   23.0630 C   0  0  0  0  0  1  0  0  0  0  0  0
  -25.4460  -36.4180   23.8930 C   0  0  0  0  0  3  0  0  0  0  0  0
  -27.5740  -37.2990   24.7430 C   0  0  0  0  0  1  0  0  0  0  0  0
  -26.4850  -37.4640   23.7830 N   0  0  0  0  0  0  0  0  0  0  0  0
  -26.0830  -38.3880   23.9150 H   0  0  0  0  0  0  0  0  0  0  0  0
  -30.4220  -17.6280   20.1320 C   0  0  0  0  0  2  0  0  0  0  0  0
  -30.6290  -14.9810   20.1800 C   0  0  0  0  0  0  0  0  0  0  0  0
  -30.4350  -12.6620   19.2090 C   0  0  0  0  0  2  0  0  0  0  0  0
  -29.4610  -12.6560   18.0110 C   0  0  0  0  0  2  0  0  0  0  0  0
  -28.0160  -12.4400   18.4950 C   0  0  0  0  0  2  0  0  0  0  0  0
  -27.6530  -13.3480   19.6990 C   0  0  0  0  0  3  0  0  0  0  0  0
  -28.7490  -13.3430   20.7860 C   0  0  0  0  0  2  0  0  0  0  0  0
  -30.0030  -13.7410   20.1370 N   0  0  0  0  0  0  0  0  0  0  0  0
  -31.8160  -15.0330   19.8470 O   0  0  0  0  0  0  0  0  0  0  0  0
  -29.9040  -16.1770   20.3730 N   0  0  0  0  0  0  0  0  0  0  0  0
  -28.9280  -16.0880   20.6040 H   0  0  0  0  0  0  0  0  0  0  0  0
  -25.2980  -13.9000   20.5390 C   0  0  0  0  0  0  0  0  0  0  0  0
  -24.2530  -13.1110   20.9340 C   0  0  0  0  0  0  0  0  0  0  0  0
  -24.7240  -11.7650   20.8580 C   0  0  0  0  0  0  0  0  0  0  0  0
  -26.3360  -13.0340   20.2420 N   0  0  0  0  0  0  0  0  0  0  0  0
  -26.0030  -11.7430   20.5000 N   0  0  0  0  0  0  0  0  0  0  0  0
  -24.0120  -10.4950   21.0480 C   0  0  0  0  0  0  0  0  0  0  0  0
  -24.4660   -9.5240   21.9680 C   0  0  0  0  0  3  0  0  0  0  0  0
  -23.7520   -8.3200   22.1460 C   0  0  0  0  0  3  0  0  0  0  0  0
  -22.5700   -8.0780   21.4050 C   0  0  0  0  0  0  0  0  0  0  0  0
  -22.1360   -9.0380   20.4750 C   0  0  0  0  0  3  0  0  0  0  0  0
  -22.8510  -10.2330   20.2940 C   0  0  0  0  0  3  0  0  0  0  0  0
  -21.8280   -6.9250   21.4930 O   0  0  0  0  0  0  0  0  0  0  0  0
  -21.7740   -6.1890   22.6490 C   0  0  0  0  0  0  0  0  0  0  0  0
  -21.2970   -6.7360   23.8600 C   0  0  0  0  0  3  0  0  0  0  0  0
  -21.1940   -5.9240   25.0080 C   0  0  0  0  0  3  0  0  0  0  0  0
  -21.5610   -4.5660   24.9450 C   0  0  0  0  0  0  0  0  0  0  0  0
  -22.0310   -4.0180   23.7380 C   0  0  0  0  0  3  0  0  0  0  0  0
  -22.1350   -4.8270   22.5930 C   0  0  0  0  0  0  0  0  0  0  0  0
  -22.5690   -4.2890   21.4280 F   0  0  0  0  0  0  0  0  0  0  0  0
  -21.4550   -3.7840   26.0440 F   0  0  0  0  0  0  0  0  0  0  0  0
  -22.8640  -13.5760   21.2620 C   0  0  0  0  0  0  0  0  0  0  0  0
  -22.1660  -12.8540   22.1320 N   0  0  0  0  0  0  0  0  0  0  0  0
  -22.4080  -14.6140   20.7860 O   0  0  0  0  0  0  0  0  0  0  0  0
  -22.5480  -12.0140   22.5420 H   0  0  0  0  0  0  0  0  0  0  0  0
  -21.2350  -13.1480   22.3920 H   0  0  0  0  0  0  0  0  0  0  0  0
  -25.4460  -15.2760   20.3810 N   0  0  0  0  0  0  0  0  0  0  0  0
  -24.6730  -15.9160   20.5270 H   0  0  0  0  0  0  0  0  0  0  0  0
  -26.2610  -15.7300   19.9920 H   0  0  0  0  0  0  0  0  0  0  0  0
  1  4  1  0
  2  7  2  0
  2  3  1  0
  3  1  2  0
  4  6  1  0
  5  4  2  0
  7  5  1  0
  8  9  1  0
  8 10  1  0
  9 10  1  0
 10  3  1  0
 10 11  1  1
 12 11  1  0
 13 24  2  0
 14 12  1  0
 14 19  1  0
 15 23  1  0
 15 25  1  0
 16 22  1  0
 16 18  1  0
 17 23  1  0
 18 17  1  0
 19 18  2  0
 20 14  2  0
 21 20  1  0
 21 16  2  0
 22 15  1  0
 23 13  1  0
 25 27  2  0
 26 25  1  0
 28 26  1  0
 29 38  2  0
 29 34  1  0
 30 26  1  0
 30 34  1  0
 31 30  1  0
 32 33  1  0
 32 31  1  0
 33 29  1  0
 34 35  2  0
 35 36  1  0
 37 36  2  0
 38 37  1  0
 39 13  1  0
 39 44  1  0
 39 40  1  0
 40 43  1  1
 40 41  1  0
 42 40  1  0
 44 47  1  0
 45 49  1  0
 45 44  1  0
 46 45  2  0
 49 48  1  0
 51 49  1  0
 51 52  1  0
 51 50  1  0
 53  5  1  0
 53 62  1  0
 54 62  1  0
 55 60  1  0
 56 57  1  0
 56 55  1  0
 58 57  1  0
 58 67  1  0
 58 59  1  0
 60 54  1  0
 60 59  1  0
 61 54  2  0
 62 63  1  0
 64 65  2  0
 65 84  1  0
 66 65  1  0
 66 69  1  0
 67 68  1  0
 67 64  1  0
 68 66  2  0
 69 70  1  0
 70 71  2  0
 72 75  1  0
 72 71  1  0
 73 72  2  0
 74 73  1  0
 74 69  2  0
 75 76  1  0
 76 77  1  0
 77 78  2  0
 79 78  1  0
 79 83  1  0
 80 79  2  0
 81 76  2  0
 81 80  1  0
 82 81  1  0
 84 85  1  0
 85 88  1  0
 85 87  1  0
 86 84  2  0
 89 90  1  0
 89 64  1  0
 91 89  1  0
M  ISO  4  11 101  12 101  54 100  62 100
M  END
>  <TORSDO>  (37) 
F 19

>  <SCORE>  (37) 
-14.125

>  <name>  (37) 
37

>  <ligand_id>  (37) 
37

>  <original_smiles>  (37) 
[H]c1nc(C([H])([H])N([H])C(=O)N2C([H])([H])C([H])([H])C([H])([H])C([H])(n3nc(-c4c([H])c([H])c(Oc5c([H])c([H])c(F)c([H])c5F)c([H])c4[H])c(C(=O)N([H])[H])c3N([H])[H])C2([H])[H])c(C([H])([H])[H])c([H])c1C1(C([H])([H])Oc2c([H])c([H])c3c(c2[H])C([H])([H])N(C(=O)C([H])(N([H])C(=O)C([H])(N([H])C([H])([H])[H])C([H])([H])[H])C(C([H])([H])[H])(C([H])([H])[H])C([H])([H])[H])C([H])(C(=O)N([H])C2([H])c4c([H])c([H])c([H])c([H])c4C([H])([H])C([H])([H])C2([H])[H])C3([H])[H])C([H])([H])C1([H])[H]

>  <smiles>  (37) 
[H]c1nc(C([H])([H])N([H])C(=O)N2C([H])([H])C([H])([H])C([H])([H])C([H])(n3nc(-c4c([H])c([H])c(Oc5c([H])c([H])c(F)c([H])c5F)c([H])c4[H])c(C(=O)N([H])[H])c3N([H])[H])C2([H])[H])c(C([H])([H])[H])c([H])c1C1(C([H])([H])Oc2c([H])c([H])c3c(c2[H])C([H])([H])N(C(=O)C([H])(N([H])C(=O)C([H])(N([H])C([H])([H])[H])C([H])([H])[H])C(C([H])([H])[H])(C([H])([H])[H])C([H])([H])[H])C([H])(C(=O)N([H])C2([H])c4c([H])c([H])c([H])c([H])c4C([H])([H])C([H])([H])C2([H])[H])C3([H])[H])C([H])([H])C1([H])[H]

$$$$
38:0:0
     RDKit          3D

 96105  0  0  1  0  0  0  0  0999 V2000
  -30.2590  -23.3400   19.4590 C   0  0  0  0  0  3  0  0  0  0  0  0
  -28.9840  -23.9150   19.7140 C   0  0  0  0  0  0  0  0  0  0  0  0
  -28.2540  -21.7100   20.2260 C   0  0  0  0  0  0  0  0  0  0  0  0
  -29.5430  -21.1290   19.9420 C   0  0  0  0  0  0  0  0  0  0  0  0
  -29.2310  -18.4600   20.3030 C   0  0  0  0  0  2  0  0  0  0  0  0
  -31.2730  -19.3590   19.4850 C   0  0  0  0  0  2  0  0  0  0  0  0
  -30.3280  -17.3310   20.5190 C   0  0  0  0  0  3  0  0  0  0  0  0
  -31.3850  -17.8150   19.5070 C   0  0  0  0  0  3  0  0  0  0  0  0
  -27.0610  -20.8720   20.6370 C   0  0  0  0  0  1  0  0  0  0  0  0
  -30.5230  -22.0030   19.5770 N   0  0  0  0  0  0  0  0  0  0  0  0
  -27.9900  -23.0640   20.1130 N   0  0  0  0  0  0  0  0  0  0  0  0
  -29.9410  -19.7290   19.9660 N   0  0  0  0  0  0  0  0  0  0  0  0
  -30.6610  -14.7530   20.1290 C   0  0  0  0  0  0  0  0  0  0  0  0
  -30.3740  -12.5560   19.0230 C   0  0  0  0  0  2  0  0  0  0  0  0
  -29.3900  -12.7250   17.8450 C   0  0  0  0  0  2  0  0  0  0  0  0
  -27.9360  -12.5500   18.3250 C   0  0  0  0  0  2  0  0  0  0  0  0
  -27.6240  -13.3790   19.6020 C   0  0  0  0  0  3  0  0  0  0  0  0
  -28.7240  -13.2140   20.6720 C   0  0  0  0  0  2  0  0  0  0  0  0
  -30.0050  -13.5570   20.0410 N   0  0  0  0  0  0  0  0  0  0  0  0
  -31.8380  -14.8610   19.7730 O   0  0  0  0  0  0  0  0  0  0  0  0
  -29.9150  -15.8730   20.4070 N   0  0  0  0  0  0  0  0  0  0  0  0
  -28.9480  -15.6820   20.6250 H   0  0  0  0  0  0  0  0  0  0  0  0
  -25.2610  -13.9550   20.4270 C   0  0  0  0  0  0  0  0  0  0  0  0
  -24.2120  -13.1710   20.8250 C   0  0  0  0  0  0  0  0  0  0  0  0
  -24.6810  -11.8230   20.7590 C   0  0  0  0  0  0  0  0  0  0  0  0
  -26.2970  -13.0820   20.1340 N   0  0  0  0  0  0  0  0  0  0  0  0
  -25.9580  -11.7950   20.4000 N   0  0  0  0  0  0  0  0  0  0  0  0
  -23.9670  -10.5540   20.9580 C   0  0  0  0  0  0  0  0  0  0  0  0
  -24.4200   -9.5890   21.8840 C   0  0  0  0  0  3  0  0  0  0  0  0
  -23.7060   -8.3840   22.0710 C   0  0  0  0  0  3  0  0  0  0  0  0
  -22.5260   -8.1400   21.3310 C   0  0  0  0  0  0  0  0  0  0  0  0
  -22.0890   -9.0940   20.3950 C   0  0  0  0  0  3  0  0  0  0  0  0
  -22.8040  -10.2880   20.2070 C   0  0  0  0  0  3  0  0  0  0  0  0
  -21.7800   -6.9900   21.4300 O   0  0  0  0  0  0  0  0  0  0  0  0
  -21.7330   -6.2560   22.5880 C   0  0  0  0  0  0  0  0  0  0  0  0
  -21.2710   -6.8130   23.8010 C   0  0  0  0  0  3  0  0  0  0  0  0
  -21.1750   -6.0070   24.9530 C   0  0  0  0  0  3  0  0  0  0  0  0
  -21.5300   -4.6460   24.8920 C   0  0  0  0  0  0  0  0  0  0  0  0
  -21.9850   -4.0900   23.6830 C   0  0  0  0  0  3  0  0  0  0  0  0
  -22.0830   -4.8920   22.5340 C   0  0  0  0  0  0  0  0  0  0  0  0
  -22.5020   -4.3480   21.3650 F   0  0  0  0  0  0  0  0  0  0  0  0
  -21.4300   -3.8680   25.9950 F   0  0  0  0  0  0  0  0  0  0  0  0
  -22.8220  -13.6390   21.1540 C   0  0  0  0  0  0  0  0  0  0  0  0
  -22.1300  -12.9250   22.0360 N   0  0  0  0  0  0  0  0  0  0  0  0
  -22.3660  -14.6720   20.6700 O   0  0  0  0  0  0  0  0  0  0  0  0
  -22.5180  -12.0890   22.4470 H   0  0  0  0  0  0  0  0  0  0  0  0
  -21.2010  -13.2190   22.3000 H   0  0  0  0  0  0  0  0  0  0  0  0
  -25.4120  -15.3270   20.2600 N   0  0  0  0  0  0  0  0  0  0  0  0
  -24.6340  -15.9670   20.3800 H   0  0  0  0  0  0  0  0  0  0  0  0
  -26.2310  -15.7720   19.8690 H   0  0  0  0  0  0  0  0  0  0  0  0
  -32.7490  -17.3580   19.8090 N   0  0  0  0  0  4  0  0  0  0  0  0
  -33.0730  -17.7170   20.6900 H   0  0  0  0  0  0  0  0  0  0  0  0
  -33.3900  -17.6290   19.0820 H   0  0  0  0  0  0  0  0  0  0  0  0
  -32.7160  -16.3430   19.8620 H   0  0  0  0  0  0  0  0  0  0  0  0
  -28.6350  -25.3820   19.2150 C   0  0  0  0  0  2  0  0  0  0  0  0
  -28.4730  -26.5490   20.1260 O   0  0  0  0  0  0  0  0  0  0  0  0
  -24.6810  -31.8890   23.2200 C   0  0  0  0  0  0  0  0  0  0  0  0
  -27.3400  -27.3910   20.0740 C   0  0  0  0  0  0  0  0  0  0  0  0
  -23.4890  -30.5010   21.5640 C   0  0  0  0  0  3  0  0  0  0  0  0
  -24.9520  -28.9910   20.1100 C   0  0  0  0  0  0  0  0  0  0  0  0
  -26.0250  -30.8500   21.3730 C   0  0  0  0  0  2  0  0  0  0  0  0
  -26.1210  -29.4800   20.7050 C   0  0  0  0  0  0  0  0  0  0  0  0
  -27.3140  -28.6900   20.6820 C   0  0  0  0  0  3  0  0  0  0  0  0
  -26.1310  -26.9550   19.4850 C   0  0  0  0  0  3  0  0  0  0  0  0
  -24.9610  -27.7340   19.4940 C   0  0  0  0  0  3  0  0  0  0  0  0
  -23.7070  -29.8490   20.1740 C   0  0  0  0  0  2  0  0  0  0  0  0
  -24.7520  -31.0970   22.1090 N   0  0  0  0  0  0  0  0  0  0  0  0
  -23.5950  -32.1460   23.7600 O   0  0  0  0  0  0  0  0  0  0  0  0
  -22.8390  -29.4630   22.5100 C   0  0  0  0  0  0  0  0  0  0  0  0
  -21.5130  -29.2810   22.3920 N   0  0  0  0  0  0  0  0  0  0  0  0
  -23.5280  -28.8250   23.3090 O   0  0  0  0  0  0  0  0  0  0  0  0
  -21.0130  -29.8470   21.7190 H   0  0  0  0  0  0  0  0  0  0  0  0
  -18.1470  -28.0630   22.9170 C   0  0  0  0  0  0  0  0  0  0  0  0
  -20.7090  -28.3240   23.1540 C   0  0  0  0  0  3  0  0  0  0  0  0
  -20.8040  -26.9070   22.5460 C   0  0  0  0  0  2  0  0  0  0  0  0
  -19.6890  -26.6030   21.5400 C   0  0  0  0  0  2  0  0  0  0  0  0
  -18.3160  -26.7300   22.2060 C   0  0  0  0  0  2  0  0  0  0  0  0
  -19.2710  -28.8190   23.3460 C   0  0  0  0  0  0  0  0  0  0  0  0
  -19.0580  -30.0630   23.9740 C   0  0  0  0  0  3  0  0  0  0  0  0
  -17.7560  -30.5600   24.1700 C   0  0  0  0  0  3  0  0  0  0  0  0
  -16.6470  -29.8050   23.7530 C   0  0  0  0  0  3  0  0  0  0  0  0
  -16.8430  -28.5560   23.1360 C   0  0  0  0  0  3  0  0  0  0  0  0
  -25.9540  -32.5320   23.8460 C   0  0  0  0  0  3  0  0  0  0  0  0
  -26.4710  -31.7570   25.1210 C   0  0  1  0  0  0  0  0  0  0  0  0
  -25.3750  -31.4970   26.1820 C   0  0  0  0  0  1  0  0  0  0  0  0
  -27.0670  -30.3870   24.7230 C   0  0  0  0  0  1  0  0  0  0  0  0
  -27.6160  -32.5520   25.7900 C   0  0  0  0  0  1  0  0  0  0  0  0
  -25.6290  -33.9240   24.1830 N   0  0  0  0  0  0  0  0  0  0  0  0
  -25.9530  -34.9860   23.4320 C   0  0  0  0  0  0  0  0  0  0  0  0
  -26.6260  -34.8950   22.4010 O   0  0  0  0  0  0  0  0  0  0  0  0
  -25.0290  -34.0690   24.9820 H   0  0  0  0  0  0  0  0  0  0  0  0
  -24.2120  -36.7670   23.0780 C   0  0  0  0  0  1  0  0  0  0  0  0
  -25.4500  -36.3650   23.8970 C   0  0  0  0  0  3  0  0  0  0  0  0
  -27.5670  -37.2610   24.7560 C   0  0  0  0  0  1  0  0  0  0  0  0
  -26.4740  -37.4290   23.8030 N   0  0  0  0  0  0  0  0  0  0  0  0
  -26.0590  -38.3440   23.9580 H   0  0  0  0  0  0  0  0  0  0  0  0
  1 10  2  0
  1  2  1  0
  2 11  2  0
  3  9  1  0
  4 12  1  0
  4  3  2  0
  5  7  1  0
  6  8  1  0
  6 12  1  0
  7 21  1  0
  8 51  1  0
  8  7  1  0
 10  4  1  0
 11  3  1  0
 12  5  1  0
 13 21  1  0
 14 19  1  0
 15 16  1  0
 15 14  1  0
 17 16  1  0
 17 26  1  0
 17 18  1  0
 19 13  1  0
 19 18  1  0
 20 13  2  0
 21 22  1  0
 23 24  2  0
 24 43  1  0
 25 24  1  0
 25 28  1  0
 26 27  1  0
 26 23  1  0
 27 25  2  0
 28 29  1  0
 29 30  2  0
 31 34  1  0
 31 30  1  0
 32 31  2  0
 33 32  1  0
 33 28  2  0
 34 35  1  0
 35 36  1  0
 36 37  2  0
 38 37  1  0
 38 42  1  0
 39 38  2  0
 40 35  2  0
 40 39  1  0
 41 40  1  0
 43 44  1  0
 44 47  1  0
 44 46  1  0
 45 43  2  0
 48 49  1  0
 48 23  1  0
 50 48  1  0
 51 54  1  0
 51 52  1  0
 53 51  1  0
 55  2  1  0
 55 56  1  0
 57 68  2  0
 58 56  1  0
 58 63  1  0
 59 67  1  0
 59 69  1  0
 60 66  1  0
 60 62  1  0
 61 67  1  0
 62 61  1  0
 63 62  2  0
 64 65  1  0
 64 58  2  0
 65 60  2  0
 66 59  1  0
 67 57  1  0
 69 71  2  0
 70 69  1  0
 72 70  1  0
 73 82  2  0
 73 78  1  0
 74 70  1  0
 74 78  1  0
 75 74  1  0
 76 77  1  0
 76 75  1  0
 77 73  1  0
 78 79  2  0
 79 80  1  0
 81 80  2  0
 82 81  1  0
 83 57  1  0
 83 88  1  0
 83 84  1  0
 84 87  1  1
 84 85  1  0
 86 84  1  0
 88 91  1  0
 89 93  1  0
 89 88  1  0
 90 89  2  0
 93 92  1  0
 95 93  1  0
 95 96  1  0
 95 94  1  0
M  ISO  4  13 100  21 100  55 101  56 101
M  END
>  <TORSDO>  (38) 
F 18

>  <SCORE>  (38) 
-14.014

>  <name>  (38) 
38

>  <ligand_id>  (38) 
38

>  <original_smiles>  (38) 
[H]c1nc(N2C([H])([H])C([H])(N([H])C(=O)N3C([H])([H])C([H])([H])C([H])([H])C([H])(n4nc(-c5c([H])c([H])c(Oc6c([H])c([H])c(F)c([H])c6F)c([H])c5[H])c(C(=O)N([H])[H])c4N([H])[H])C3([H])[H])C([H])([N+]([H])([H])[H])C2([H])[H])c(C([H])([H])[H])nc1C([H])([H])Oc1c([H])c([H])c2c(c1[H])C([H])([H])N(C(=O)C([H])(N([H])C(=O)C([H])(N([H])C([H])([H])[H])C([H])([H])[H])C(C([H])([H])[H])(C([H])([H])[H])C([H])([H])[H])C([H])(C(=O)N([H])C1([H])c3c([H])c([H])c([H])c([H])c3C([H])([H])C([H])([H])C1([H])[H])C2([H])[H]

>  <smiles>  (38) 
[H]c1nc(N2C([H])([H])C([H])(N([H])C(=O)N3C([H])([H])C([H])([H])C([H])([H])C([H])(n4nc(-c5c([H])c([H])c(Oc6c([H])c([H])c(F)c([H])c6F)c([H])c5[H])c(C(=O)N([H])[H])c4N([H])[H])C3([H])[H])C([H])([N+]([H])([H])[H])C2([H])[H])c(C([H])([H])[H])nc1C([H])([H])Oc1c([H])c([H])c2c(c1[H])C([H])([H])N(C(=O)C([H])(N([H])C(=O)C([H])(N([H])C([H])([H])[H])C([H])([H])[H])C(C([H])([H])[H])(C([H])([H])[H])C([H])([H])[H])C([H])(C(=O)N([H])C1([H])c3c([H])c([H])c([H])c([H])c3C([H])([H])C([H])([H])C1([H])[H])C2([H])[H]

$$$$
39:0:0
     RDKit          3D

 88 98  0  0  1  0  0  0  0  0999 V2000
  -28.5790  -23.1900   19.2010 C   0  0  0  0  0  2  0  0  0  0  0  0
  -28.6990  -23.1900   21.1900 C   0  0  0  0  0  2  0  0  0  0  0  0
  -28.4650  -21.8960   20.2090 C   0  0  0  0  0  3  0  0  0  0  0  0
  -28.0010  -24.3310   20.2330 C   0  0  0  0  0  3  0  0  0  0  0  0
  -29.3260  -19.3290   21.1720 C   0  0  0  0  0  3  0  0  0  0  0  0
  -29.1160  -19.2750   19.2360 C   0  0  0  0  0  3  0  0  0  0  0  0
  -29.9230  -18.1970   20.1590 C   0  0  0  0  0  3  0  0  0  0  0  0
  -29.3860  -20.5030   20.1530 N   0  0  1  0  0  4  0  0  0  0  0  0
  -30.3530  -20.7670   20.0430 H   0  0  0  0  0  0  0  0  0  0  0  0
  -30.4390  -15.2970   20.0940 C   0  0  0  0  0  0  0  0  0  0  0  0
  -30.3860  -12.8680   19.2010 C   0  0  0  0  0  2  0  0  0  0  0  0
  -29.4210  -12.6830   18.0030 C   0  0  0  0  0  2  0  0  0  0  0  0
  -27.9870  -12.4100   18.4930 C   0  0  0  0  0  2  0  0  0  0  0  0
  -27.5790  -13.3590   19.6490 C   0  0  0  0  0  3  0  0  0  0  0  0
  -28.6680  -13.4910   20.7340 C   0  0  0  0  0  2  0  0  0  0  0  0
  -29.8740  -13.9950   20.0600 N   0  0  0  0  0  0  0  0  0  0  0  0
  -31.6460  -15.3150   19.8160 O   0  0  0  0  0  0  0  0  0  0  0  0
  -29.6670  -16.5500   20.2370 N   0  0  0  0  0  0  0  0  0  0  0  0
  -28.6990  -16.3330   20.4190 H   0  0  0  0  0  0  0  0  0  0  0  0
  -25.2410  -13.8990   20.5150 C   0  0  0  0  0  0  0  0  0  0  0  0
  -24.1940  -13.1130   20.9070 C   0  0  0  0  0  0  0  0  0  0  0  0
  -24.6580  -11.7640   20.8190 C   0  0  0  0  0  0  0  0  0  0  0  0
  -26.2720  -13.0310   20.2040 N   0  0  0  0  0  0  0  0  0  0  0  0
  -25.9360  -11.7390   20.4540 N   0  0  0  0  0  0  0  0  0  0  0  0
  -23.9370  -10.4970   21.0030 C   0  0  0  0  0  0  0  0  0  0  0  0
  -24.3740   -9.5240   21.9290 C   0  0  0  0  0  3  0  0  0  0  0  0
  -23.6510   -8.3240   22.1020 C   0  0  0  0  0  3  0  0  0  0  0  0
  -22.4750   -8.0890   21.3500 C   0  0  0  0  0  0  0  0  0  0  0  0
  -22.0570   -9.0520   20.4130 C   0  0  0  0  0  3  0  0  0  0  0  0
  -22.7820  -10.2420   20.2380 C   0  0  0  0  0  3  0  0  0  0  0  0
  -21.7240   -6.9430   21.4320 O   0  0  0  0  0  0  0  0  0  0  0  0
  -21.6380   -6.2210   22.5960 C   0  0  0  0  0  0  0  0  0  0  0  0
  -21.1360   -6.7850   23.7880 C   0  0  0  0  0  3  0  0  0  0  0  0
  -21.0010   -5.9870   24.9420 C   0  0  0  0  0  3  0  0  0  0  0  0
  -21.3570   -4.6250   24.9040 C   0  0  0  0  0  0  0  0  0  0  0  0
  -21.8530   -4.0610   23.7150 C   0  0  0  0  0  3  0  0  0  0  0  0
  -21.9890   -4.8550   22.5640 C   0  0  0  0  0  0  0  0  0  0  0  0
  -22.4470   -4.3010   21.4160 F   0  0  0  0  0  0  0  0  0  0  0  0
  -21.2210   -3.8580   26.0100 F   0  0  0  0  0  0  0  0  0  0  0  0
  -22.8100  -13.5830   21.2420 C   0  0  0  0  0  0  0  0  0  0  0  0
  -22.1180  -12.8710   22.1240 N   0  0  0  0  0  0  0  0  0  0  0  0
  -22.3530  -14.6180   20.7590 O   0  0  0  0  0  0  0  0  0  0  0  0
  -22.5020  -12.0350   22.5360 H   0  0  0  0  0  0  0  0  0  0  0  0
  -21.1890  -13.1680   22.3910 H   0  0  0  0  0  0  0  0  0  0  0  0
  -25.3940  -15.2760   20.3660 N   0  0  0  0  0  0  0  0  0  0  0  0
  -24.6230  -15.9170   20.5150 H   0  0  0  0  0  0  0  0  0  0  0  0
  -26.2050  -15.7210   19.9570 H   0  0  0  0  0  0  0  0  0  0  0  0
  -28.2360  -25.9570   20.2580 O   0  0  0  0  0  0  0  0  0  0  0  0
  -24.6860  -31.8870   23.2540 C   0  0  0  0  0  0  0  0  0  0  0  0
  -27.2160  -27.0360   20.2120 C   0  0  0  0  0  0  0  0  0  0  0  0
  -23.4850  -30.5130   21.6020 C   0  0  0  0  0  3  0  0  0  0  0  0
  -24.9250  -28.9110   20.1730 C   0  0  0  0  0  0  0  0  0  0  0  0
  -26.0510  -30.7150   21.4600 C   0  0  0  0  0  2  0  0  0  0  0  0
  -26.1130  -29.3110   20.7960 C   0  0  0  0  0  0  0  0  0  0  0  0
  -27.2550  -28.3960   20.7890 C   0  0  0  0  0  3  0  0  0  0  0  0
  -26.0000  -26.7790   19.5420 C   0  0  0  0  0  3  0  0  0  0  0  0
  -24.8920  -27.6650   19.5260 C   0  0  0  0  0  3  0  0  0  0  0  0
  -23.7120  -29.8380   20.2210 C   0  0  0  0  0  2  0  0  0  0  0  0
  -24.7620  -31.0640   22.1590 N   0  0  0  0  0  0  0  0  0  0  0  0
  -23.5980  -32.1810   23.7750 O   0  0  0  0  0  0  0  0  0  0  0  0
  -22.7820  -29.5140   22.5580 C   0  0  0  0  0  0  0  0  0  0  0  0
  -21.4520  -29.3570   22.4260 N   0  0  0  0  0  0  0  0  0  0  0  0
  -23.4410  -28.8800   23.3860 O   0  0  0  0  0  0  0  0  0  0  0  0
  -20.9750  -29.9200   21.7350 H   0  0  0  0  0  0  0  0  0  0  0  0
  -18.0590  -28.1720   22.9160 C   0  0  0  0  0  0  0  0  0  0  0  0
  -20.6200  -28.4210   23.1880 C   0  0  0  0  0  3  0  0  0  0  0  0
  -20.7140  -26.9910   22.6020 C   0  0  0  0  0  2  0  0  0  0  0  0
  -19.6120  -26.6840   21.5830 C   0  0  0  0  0  2  0  0  0  0  0  0
  -18.2290  -26.8290   22.2260 C   0  0  0  0  0  2  0  0  0  0  0  0
  -19.1810  -28.9270   23.3530 C   0  0  0  0  0  0  0  0  0  0  0  0
  -18.9650  -30.1820   23.9620 C   0  0  0  0  0  3  0  0  0  0  0  0
  -17.6620  -30.6850   24.1350 C   0  0  0  0  0  3  0  0  0  0  0  0
  -16.5560  -29.9280   23.7120 C   0  0  0  0  0  3  0  0  0  0  0  0
  -16.7540  -28.6730   23.1090 C   0  0  0  0  0  3  0  0  0  0  0  0
  -25.9600  -32.5150   23.8950 C   0  0  0  0  0  3  0  0  0  0  0  0
  -25.6550  -33.9180   24.2300 N   0  0  0  0  0  0  0  0  0  0  0  0
  -25.9640  -34.9740   23.4670 C   0  0  0  0  0  0  0  0  0  0  0  0
  -26.5970  -34.8710   22.4140 O   0  0  0  0  0  0  0  0  0  0  0  0
  -25.0870  -34.0700   25.0510 H   0  0  0  0  0  0  0  0  0  0  0  0
  -24.2090  -36.7640   23.2070 C   0  0  0  0  0  1  0  0  0  0  0  0
  -25.4980  -36.3650   23.9460 C   0  0  0  0  0  3  0  0  0  0  0  0
  -27.6680  -37.2740   24.6530 C   0  0  0  0  0  1  0  0  0  0  0  0
  -26.5170  -37.4230   23.7670 N   0  0  0  0  0  0  0  0  0  0  0  0
  -26.1130  -38.3420   23.9230 H   0  0  0  0  0  0  0  0  0  0  0  0
  -26.4500  -31.7430   25.1830 C   0  0  1  0  0  0  0  0  0  0  0  0
  -25.3390  -31.5210   26.2370 C   0  0  0  0  0  1  0  0  0  0  0  0
  -27.0240  -30.3570   24.8120 C   0  0  0  0  0  1  0  0  0  0  0  0
  -27.5990  -32.5280   25.8580 C   0  0  0  0  0  1  0  0  0  0  0  0
  1  3  1  0
  1  4  1  0
  3  2  1  0
  4 48  1  0
  4  2  1  0
  6  8  1  0
  6  7  1  0
  6  5  1  0
  7 18  1  0
  7  5  1  0
  8  3  1  0
  8  5  1  0
  8  9  1  6
 10 18  1  0
 11 16  1  0
 12 13  1  0
 12 11  1  0
 13 14  1  0
 14 23  1  0
 14 15  1  0
 16 10  1  0
 16 15  1  0
 17 10  2  0
 18 19  1  0
 20 21  2  0
 21 40  1  0
 22 21  1  0
 22 25  1  0
 23 24  1  0
 23 20  1  0
 24 22  2  0
 25 26  1  0
 26 27  2  0
 28 31  1  0
 28 27  1  0
 29 28  2  0
 30 29  1  0
 30 25  2  0
 31 32  1  0
 32 33  1  0
 33 34  2  0
 35 34  1  0
 35 39  1  0
 36 35  2  0
 37 32  2  0
 37 36  1  0
 38 37  1  0
 40 41  1  0
 41 44  1  0
 41 43  1  0
 42 40  2  0
 45 20  1  0
 45 46  1  0
 47 45  1  0
 49 60  2  0
 49 75  1  0
 50 48  1  0
 50 55  1  0
 51 59  1  0
 51 61  1  0
 52 58  1  0
 52 54  1  0
 53 59  1  0
 54 53  1  0
 55 54  2  0
 56 50  2  0
 57 56  1  0
 57 52  2  0
 58 51  1  0
 59 49  1  0
 61 63  2  0
 62 61  1  0
 62 66  1  0
 64 62  1  0
 65 74  2  0
 65 70  1  0
 66 70  1  0
 67 66  1  0
 68 69  1  0
 68 67  1  0
 69 65  1  0
 70 71  2  0
 71 72  1  0
 73 72  2  0
 74 73  1  0
 75 76  1  0
 75 85  1  0
 76 79  1  0
 77 81  1  0
 77 76  1  0
 78 77  2  0
 80 81  1  0
 83 84  1  0
 83 81  1  0
 83 82  1  0
 85 88  1  1
 85 86  1  0
 87 85  1  0
M  ISO  4   4 101  10 100  18 100  48 101
M  END
>  <TORSDO>  (39) 
F 17

>  <SCORE>  (39) 
-14.607

>  <name>  (39) 
39

>  <ligand_id>  (39) 
39

>  <original_smiles>  (39) 
[H]c1c([H])c([H])c2c(c1[H])C([H])([H])C([H])([H])C([H])([H])C2([H])N([H])C(=O)C1([H])N(C(=O)C([H])(N([H])C(=O)C([H])(N([H])C([H])([H])[H])C([H])([H])[H])C(C([H])([H])[H])(C([H])([H])[H])C([H])([H])[H])C([H])([H])c2c([H])c(OC3([H])C([H])([H])C([H])([N+]4([H])C([H])([H])C([H])(N([H])C(=O)N5C([H])([H])C([H])([H])C([H])([H])C([H])(n6nc(-c7c([H])c([H])c(Oc8c([H])c([H])c(F)c([H])c8F)c([H])c7[H])c(C(=O)N([H])[H])c6N([H])[H])C5([H])[H])C4([H])[H])C3([H])[H])c([H])c([H])c2C1([H])[H]

>  <smiles>  (39) 
[H]c1c([H])c([H])c2c(c1[H])C([H])([H])C([H])([H])C([H])([H])C2([H])N([H])C(=O)C1([H])N(C(=O)C([H])(N([H])C(=O)C([H])(N([H])C([H])([H])[H])C([H])([H])[H])C(C([H])([H])[H])(C([H])([H])[H])C([H])([H])[H])C([H])([H])c2c([H])c(OC3([H])C([H])([H])C([H])([N+]4([H])C([H])([H])C([H])(N([H])C(=O)N5C([H])([H])C([H])([H])C([H])([H])C([H])(n6nc(-c7c([H])c([H])c(Oc8c([H])c([H])c(F)c([H])c8F)c([H])c7[H])c(C(=O)N([H])[H])c6N([H])[H])C5([H])[H])C4([H])[H])C3([H])[H])c([H])c([H])c2C1([H])[H]

$$$$
40:0:0
     RDKit          3D

 96105  0  0  1  0  0  0  0  0999 V2000
  -31.1560  -14.5640   19.9760 C   0  0  0  0  0  0  0  0  0  0  0  0
  -30.9040  -12.1180   19.6710 C   0  0  0  0  0  2  0  0  0  0  0  0
  -30.0690  -11.8400   18.4040 C   0  0  0  0  0  2  0  0  0  0  0  0
  -28.5630  -11.8200   18.7380 C   0  0  0  0  0  2  0  0  0  0  0  0
  -28.1290  -13.0220   19.6230 C   0  0  0  0  0  3  0  0  0  0  0  0
  -29.1020  -13.1960   20.8040 C   0  0  0  0  0  2  0  0  0  0  0  0
  -30.4380  -13.4130   20.2320 N   0  0  0  0  0  0  0  0  0  0  0  0
  -32.3580  -14.4300   19.7370 O   0  0  0  0  0  0  0  0  0  0  0  0
  -30.2820  -18.9970   17.6140 C   0  0  0  0  0  3  0  0  0  0  0  0
  -29.2730  -17.7120   19.4000 C   0  0  0  0  0  0  0  0  0  0  0  0
  -30.2630  -17.8690   18.4730 C   0  0  0  0  0  0  0  0  0  0  0  0
  -29.2370  -19.9510   17.7430 C   0  0  0  0  0  0  0  0  0  0  0  0
  -28.2610  -18.6980   19.4950 C   0  0  0  0  0  0  0  0  0  0  0  0
  -29.5000  -16.4450   20.1740 C   0  0  0  0  0  0  0  0  0  0  0  0
  -31.1960  -16.6780   18.5670 C   0  0  2  0  0  0  0  0  0  0  0  0
  -27.0960  -18.5960   20.4620 C   0  0  0  0  0  1  0  0  0  0  0  0
  -32.6010  -17.2170   18.9470 C   0  0  0  0  0  1  0  0  0  0  0  0
  -31.2150  -15.9710   17.1940 C   0  0  0  0  0  1  0  0  0  0  0  0
  -28.2640  -19.8020   18.6860 N   0  0  0  0  0  0  0  0  0  0  0  0
  -30.5770  -15.7840   19.6340 N   0  0  0  0  0  0  0  0  0  0  0  0
  -28.8330  -16.1720   21.1690 O   0  0  0  0  0  0  0  0  0  0  0  0
  -25.7930  -13.8780   20.2560 C   0  0  0  0  0  0  0  0  0  0  0  0
  -24.6450  -13.2270   20.6140 C   0  0  0  0  0  0  0  0  0  0  0  0
  -24.9660  -11.8350   20.6190 C   0  0  0  0  0  0  0  0  0  0  0  0
  -26.7470  -12.8910   20.0720 N   0  0  0  0  0  0  0  0  0  0  0  0
  -26.2520  -11.6570   20.3440 N   0  0  0  0  0  0  0  0  0  0  0  0
  -24.1070  -10.6580   20.8100 C   0  0  0  0  0  0  0  0  0  0  0  0
  -24.4720   -9.6140   21.6890 C   0  0  0  0  0  3  0  0  0  0  0  0
  -23.6220   -8.5020   21.8720 C   0  0  0  0  0  3  0  0  0  0  0  0
  -22.3920   -8.4270   21.1770 C   0  0  0  0  0  0  0  0  0  0  0  0
  -22.0450   -9.4570   20.2860 C   0  0  0  0  0  3  0  0  0  0  0  0
  -22.8930  -10.5610   20.1030 C   0  0  0  0  0  3  0  0  0  0  0  0
  -21.5160   -7.3730   21.2710 O   0  0  0  0  0  0  0  0  0  0  0  0
  -21.5000   -6.5450   22.3640 C   0  0  0  0  0  0  0  0  0  0  0  0
  -21.2850   -7.0390   23.6700 C   0  0  0  0  0  3  0  0  0  0  0  0
  -21.2090   -6.1430   24.7560 C   0  0  0  0  0  3  0  0  0  0  0  0
  -21.3380   -4.7590   24.5400 C   0  0  0  0  0  0  0  0  0  0  0  0
  -21.5460   -4.2670   23.2400 C   0  0  0  0  0  3  0  0  0  0  0  0
  -21.6230   -5.1570   22.1550 C   0  0  0  0  0  0  0  0  0  0  0  0
  -21.8030   -4.6760   20.9010 F   0  0  0  0  0  0  0  0  0  0  0  0
  -21.2560   -3.8980   25.5810 F   0  0  0  0  0  0  0  0  0  0  0  0
  -23.2970  -13.8490   20.8370 C   0  0  0  0  0  0  0  0  0  0  0  0
  -22.5000  -13.2800   21.7330 N   0  0  0  0  0  0  0  0  0  0  0  0
  -22.9630  -14.8780   20.2490 O   0  0  0  0  0  0  0  0  0  0  0  0
  -22.7820  -12.4480   22.2290 H   0  0  0  0  0  0  0  0  0  0  0  0
  -21.5930  -13.6810   21.9280 H   0  0  0  0  0  0  0  0  0  0  0  0
  -26.0960  -15.2200   20.0440 N   0  0  0  0  0  0  0  0  0  0  0  0
  -25.3870  -15.9430   20.1090 H   0  0  0  0  0  0  0  0  0  0  0  0
  -26.9660  -15.5530   19.6510 H   0  0  0  0  0  0  0  0  0  0  0  0
  -29.0930  -21.1650   16.7880 C   0  0  0  0  0  2  0  0  0  0  0  0
  -29.0870  -22.4770   17.4900 N   0  0  0  0  0  4  0  0  0  0  0  0
  -30.0170  -22.8620   17.4550 H   0  0  0  0  0  0  0  0  0  0  0  0
  -28.9260  -22.2130   18.4520 H   0  0  0  0  0  0  0  0  0  0  0  0
  -28.0500  -23.5150   17.1290 C   0  0  0  0  0  2  0  0  0  0  0  0
  -28.4930  -24.6930   16.1930 C   0  0  0  0  0  2  0  0  0  0  0  0
  -28.6600  -25.9960   16.8270 O   0  0  0  0  0  0  0  0  0  0  0  0
  -25.6790  -28.7590   22.7090 C   0  0  0  0  0  0  0  0  0  0  0  0
  -27.5910  -26.7170   17.3470 C   0  0  0  0  0  0  0  0  0  0  0  0
  -24.2450  -28.6900   20.6980 C   0  0  0  0  0  3  0  0  0  0  0  0
  -25.4310  -28.1620   18.5000 C   0  0  0  0  0  0  0  0  0  0  0  0
  -26.7900  -28.8690   20.4740 C   0  0  0  0  0  2  0  0  0  0  0  0
  -26.6700  -28.1330   19.1500 C   0  0  0  0  0  0  0  0  0  0  0  0
  -27.7510  -27.4200   18.5720 C   0  0  0  0  0  3  0  0  0  0  0  0
  -26.3320  -26.7760   16.7090 C   0  0  0  0  0  3  0  0  0  0  0  0
  -25.2610  -27.4910   17.2780 C   0  0  0  0  0  3  0  0  0  0  0  0
  -24.3150  -28.9350   19.1680 C   0  0  0  0  0  2  0  0  0  0  0  0
  -25.5950  -28.7490   21.3480 N   0  0  0  0  0  0  0  0  0  0  0  0
  -24.6610  -28.7530   23.4150 O   0  0  0  0  0  0  0  0  0  0  0  0
  -23.4990  -27.3580   20.9550 C   0  0  0  0  0  0  0  0  0  0  0  0
  -22.1580  -27.3990   20.8940 N   0  0  0  0  0  0  0  0  0  0  0  0
  -24.1240  -26.3180   21.1740 O   0  0  0  0  0  0  0  0  0  0  0  0
  -21.7200  -28.2930   20.7190 H   0  0  0  0  0  0  0  0  0  0  0  0
  -18.6810  -26.4140   20.8960 C   0  0  0  0  0  0  0  0  0  0  0  0
  -21.2560  -26.2600   21.0630 C   0  0  0  0  0  3  0  0  0  0  0  0
  -21.1860  -25.4090   19.7750 C   0  0  0  0  0  2  0  0  0  0  0  0
  -20.0380  -25.8140   18.8460 C   0  0  0  0  0  2  0  0  0  0  0  0
  -18.6920  -25.6800   19.5650 C   0  0  0  0  0  2  0  0  0  0  0  0
  -19.8860  -26.7000   21.5920 C   0  0  0  0  0  0  0  0  0  0  0  0
  -19.8200  -27.4140   22.8090 C   0  0  0  0  0  3  0  0  0  0  0  0
  -18.5850  -27.8400   23.3290 C   0  0  0  0  0  3  0  0  0  0  0  0
  -17.3940  -27.5410   22.6450 C   0  0  0  0  0  3  0  0  0  0  0  0
  -17.4430  -26.8240   21.4350 C   0  0  0  0  0  3  0  0  0  0  0  0
  -27.0550  -28.7990   23.4420 C   0  0  0  0  0  3  0  0  0  0  0  0
  -27.5760  -27.3690   23.8630 C   0  0  1  0  0  0  0  0  0  0  0  0
  -26.5390  -26.5400   24.6550 C   0  0  0  0  0  1  0  0  0  0  0  0
  -27.9840  -26.5490   22.6170 C   0  0  0  0  0  1  0  0  0  0  0  0
  -28.8450  -27.5100   24.7350 C   0  0  0  0  0  1  0  0  0  0  0  0
  -26.9040  -29.6640   24.6200 N   0  0  0  0  0  0  0  0  0  0  0  0
  -27.4270  -30.8940   24.7320 C   0  0  0  0  0  0  0  0  0  0  0  0
  -28.1520  -31.3950   23.8690 O   0  0  0  0  0  0  0  0  0  0  0  0
  -26.2740  -29.3440   25.3390 H   0  0  0  0  0  0  0  0  0  0  0  0
  -26.0300  -32.7610   25.6820 C   0  0  0  0  0  1  0  0  0  0  0  0
  -27.0890  -31.6940   26.0040 C   0  0  0  0  0  3  0  0  0  0  0  0
  -29.2010  -31.3840   27.2180 C   0  0  0  0  0  1  0  0  0  0  0  0
  -28.2680  -32.3380   26.6250 N   0  0  0  0  0  0  0  0  0  0  0  0
  -27.9810  -32.9910   27.3500 H   0  0  0  0  0  0  0  0  0  0  0  0
  1  7  1  0
  2  7  1  0
  3  4  1  0
  3  2  1  0
  5  4  1  0
  5 25  1  0
  5  6  1  0
  7  6  1  0
  8  1  2  0
  9 12  2  0
  9 11  1  0
 10 13  1  0
 10 14  1  0
 11 15  1  0
 11 10  2  0
 12 19  1  0
 13 16  1  0
 14 21  2  0
 15 17  1  1
 15 20  1  0
 18 15  1  0
 19 13  2  0
 20  1  1  0
 20 14  1  0
 22 23  2  0
 23 24  1  0
 23 42  1  0
 24 27  1  0
 25 22  1  0
 25 26  1  0
 26 24  2  0
 27 28  1  0
 28 29  2  0
 30 33  1  0
 30 29  1  0
 31 30  2  0
 32 31  1  0
 32 27  2  0
 33 34  1  0
 34 35  1  0
 35 36  2  0
 37 36  1  0
 37 41  1  0
 38 37  2  0
 39 34  2  0
 39 38  1  0
 40 39  1  0
 42 43  1  0
 43 46  1  0
 43 45  1  0
 44 42  2  0
 47 48  1  0
 47 22  1  0
 49 47  1  0
 50 51  1  0
 50 12  1  0
 51 53  1  0
 52 51  1  0
 54 51  1  0
 55 56  1  0
 55 54  1  0
 56 58  1  0
 57 68  2  0
 58 63  1  0
 59 69  1  0
 59 67  1  0
 60 62  1  0
 60 66  1  0
 61 67  1  0
 62 61  1  0
 63 62  2  0
 64 65  1  0
 64 58  2  0
 65 60  2  0
 66 59  1  0
 67 57  1  0
 69 71  2  0
 70 69  1  0
 72 70  1  0
 73 82  2  0
 73 78  1  0
 74 70  1  0
 74 78  1  0
 75 74  1  0
 76 77  1  0
 76 75  1  0
 77 73  1  0
 78 79  2  0
 79 80  1  0
 81 80  2  0
 82 81  1  0
 83 57  1  0
 83 84  1  0
 83 88  1  0
 84 85  1  1
 84 87  1  0
 86 84  1  0
 88 89  1  0
 88 91  1  0
 89 93  1  0
 90 89  2  0
 93 92  1  0
 93 95  1  0
 95 94  1  0
 95 96  1  0
M  ISO  4   1 100  20 100  55 101  56 101
M  END
>  <TORSDO>  (40) 
F 19

>  <SCORE>  (40) 
-9.765

>  <name>  (40) 
40

>  <ligand_id>  (40) 
40

>  <original_smiles>  (40) 
[H]c1c([H])c([H])c2c(c1[H])C([H])([H])C([H])([H])C([H])([H])C2([H])N([H])C(=O)C1([H])N(C(=O)C([H])(N([H])C(=O)C([H])(N([H])C([H])([H])[H])C([H])([H])[H])C(C([H])([H])[H])(C([H])([H])[H])C([H])([H])[H])C([H])([H])c2c([H])c(OC([H])([H])C([H])([H])[N+]([H])([H])C([H])([H])c3nc(C([H])([H])[H])c4c(c3[H])C(C([H])([H])[H])(C([H])([H])[H])N(C(=O)N3C([H])([H])C([H])([H])C([H])([H])C([H])(n5nc(-c6c([H])c([H])c(Oc7c([H])c([H])c(F)c([H])c7F)c([H])c6[H])c(C(=O)N([H])[H])c5N([H])[H])C3([H])[H])C4=O)c([H])c([H])c2C1([H])[H]

>  <smiles>  (40) 
[H]c1c([H])c([H])c2c(c1[H])C([H])([H])C([H])([H])C([H])([H])C2([H])N([H])C(=O)C1([H])N(C(=O)C([H])(N([H])C(=O)C([H])(N([H])C([H])([H])[H])C([H])([H])[H])C(C([H])([H])[H])(C([H])([H])[H])C([H])([H])[H])C([H])([H])c2c([H])c(OC([H])([H])C([H])([H])[N+]([H])([H])C([H])([H])c3nc(C([H])([H])[H])c4c(c3[H])C(C([H])([H])[H])(C([H])([H])[H])N(C(=O)N3C([H])([H])C([H])([H])C([H])([H])C([H])(n5nc(-c6c([H])c([H])c(Oc7c([H])c([H])c(F)c([H])c7F)c([H])c6[H])c(C(=O)N([H])[H])c5N([H])[H])C3([H])[H])C4=O)c([H])c([H])c2C1([H])[H]

$$$$
41:0:0
     RDKit          3D

 89 98  0  0  1  0  0  0  0  0999 V2000
  -30.5980  -15.0030   20.3600 C   0  0  0  0  0  0  0  0  0  0  0  0
  -30.3830  -12.6590   19.4260 C   0  0  0  0  0  2  0  0  0  0  0  0
  -29.4560  -12.5960   18.1960 C   0  0  0  0  0  2  0  0  0  0  0  0
  -27.9950  -12.3900   18.6360 C   0  0  0  0  0  2  0  0  0  0  0  0
  -27.5840  -13.3260   19.8010 C   0  0  0  0  0  3  0  0  0  0  0  0
  -28.6470  -13.3940   20.9170 C   0  0  0  0  0  2  0  0  0  0  0  0
  -29.9110  -13.7880   20.2780 N   0  0  0  0  0  0  0  0  0  0  0  0
  -31.8230  -14.9340   20.2250 O   0  0  0  0  0  0  0  0  0  0  0  0
  -30.6890  -20.1610   21.5680 C   0  0  0  0  0  3  0  0  0  0  0  0
  -30.2700  -21.5150   21.3320 C   0  0  0  0  0  3  0  0  0  0  0  0
  -30.1390  -19.0530   20.8590 C   0  0  0  0  0  0  0  0  0  0  0  0
  -29.1400  -19.4210   19.9460 C   0  0  0  0  0  3  0  0  0  0  0  0
  -29.2730  -21.8600   20.3780 C   0  0  0  0  0  0  0  0  0  0  0  0
  -30.6850  -17.5460   21.0090 C   0  0  0  0  0  3  0  0  0  0  0  0
  -28.6160  -18.2310   19.1150 C   0  0  0  0  0  3  0  0  0  0  0  0
  -28.7570  -16.7360   19.6930 C   0  0  0  0  0  3  0  0  0  0  0  0
  -28.7320  -20.7540   19.7080 N   0  0  0  0  0  0  0  0  0  0  0  0
  -29.9780  -16.3020   20.4470 N   0  0  0  0  0  0  0  0  0  0  0  0
  -25.2080  -13.9200   20.5370 C   0  0  0  0  0  0  0  0  0  0  0  0
  -24.1380  -13.1510   20.9000 C   0  0  0  0  0  0  0  0  0  0  0  0
  -24.5990  -11.8000   20.8800 C   0  0  0  0  0  0  0  0  0  0  0  0
  -26.2490  -13.0350   20.3090 N   0  0  0  0  0  0  0  0  0  0  0  0
  -25.8920  -11.7550   20.5810 N   0  0  0  0  0  0  0  0  0  0  0  0
  -23.8660  -10.5420   21.0670 C   0  0  0  0  0  0  0  0  0  0  0  0
  -24.2950   -9.5690   21.9950 C   0  0  0  0  0  3  0  0  0  0  0  0
  -23.5600   -8.3760   22.1730 C   0  0  0  0  0  3  0  0  0  0  0  0
  -22.3830   -8.1490   21.4210 C   0  0  0  0  0  0  0  0  0  0  0  0
  -21.9730   -9.1120   20.4820 C   0  0  0  0  0  3  0  0  0  0  0  0
  -22.7080  -10.2960   20.3030 C   0  0  0  0  0  3  0  0  0  0  0  0
  -21.6200   -7.0100   21.5070 O   0  0  0  0  0  0  0  0  0  0  0  0
  -21.5780   -6.2580   22.6540 C   0  0  0  0  0  0  0  0  0  0  0  0
  -21.1820   -6.8100   23.8920 C   0  0  0  0  0  3  0  0  0  0  0  0
  -21.0840   -5.9850   25.0310 C   0  0  0  0  0  3  0  0  0  0  0  0
  -21.3740   -4.6110   24.9330 C   0  0  0  0  0  0  0  0  0  0  0  0
  -21.7660   -4.0610   23.7010 C   0  0  0  0  0  3  0  0  0  0  0  0
  -21.8640   -4.8810   22.5630 C   0  0  0  0  0  0  0  0  0  0  0  0
  -22.2210   -4.3410   21.3730 F   0  0  0  0  0  0  0  0  0  0  0  0
  -21.2750   -3.8190   26.0240 F   0  0  0  0  0  0  0  0  0  0  0  0
  -22.7410  -13.6380   21.1510 C   0  0  0  0  0  0  0  0  0  0  0  0
  -22.0000  -12.9520   22.0130 N   0  0  0  0  0  0  0  0  0  0  0  0
  -22.3170  -14.6630   20.6200 O   0  0  0  0  0  0  0  0  0  0  0  0
  -22.3540  -12.1250   22.4680 H   0  0  0  0  0  0  0  0  0  0  0  0
  -21.0630  -13.2660   22.2260 H   0  0  0  0  0  0  0  0  0  0  0  0
  -25.3710  -15.2890   20.3570 N   0  0  0  0  0  0  0  0  0  0  0  0
  -24.5980  -15.9380   20.4710 H   0  0  0  0  0  0  0  0  0  0  0  0
  -26.2170  -15.7380   20.0380 H   0  0  0  0  0  0  0  0  0  0  0  0
  -29.0600  -23.4360   19.8890 C   0  0  0  0  0  3  0  0  0  0  0  0
  -28.2560  -24.7240   20.6210 C   0  0  0  0  0  3  0  0  0  0  0  0
  -28.4050  -26.2430   20.2800 O   0  0  0  0  0  0  0  0  0  0  0  0
  -24.6650  -31.8920   23.2350 C   0  0  0  0  0  0  0  0  0  0  0  0
  -27.3120  -27.1800   20.2690 C   0  0  0  0  0  0  0  0  0  0  0  0
  -23.4870  -30.4700   21.6030 C   0  0  0  0  0  3  0  0  0  0  0  0
  -24.9590  -28.8870   20.2080 C   0  0  0  0  0  0  0  0  0  0  0  0
  -26.0390  -30.7620   21.4460 C   0  0  0  0  0  2  0  0  0  0  0  0
  -26.1310  -29.3610   20.8120 C   0  0  0  0  0  0  0  0  0  0  0  0
  -27.3090  -28.5260   20.8190 C   0  0  0  0  0  3  0  0  0  0  0  0
  -26.1100  -26.7990   19.6370 C   0  0  0  0  0  3  0  0  0  0  0  0
  -24.9600  -27.6190   19.6070 C   0  0  0  0  0  3  0  0  0  0  0  0
  -23.7230  -29.7740   20.2350 C   0  0  0  0  0  2  0  0  0  0  0  0
  -24.7500  -31.0640   22.1500 N   0  0  0  0  0  0  0  0  0  0  0  0
  -23.5750  -32.1710   23.7560 O   0  0  0  0  0  0  0  0  0  0  0  0
  -22.8100  -29.4700   22.5720 C   0  0  0  0  0  0  0  0  0  0  0  0
  -21.4830  -29.2910   22.4410 N   0  0  0  0  0  0  0  0  0  0  0  0
  -23.4810  -28.8540   23.4040 O   0  0  0  0  0  0  0  0  0  0  0  0
  -20.9980  -29.8320   21.7390 H   0  0  0  0  0  0  0  0  0  0  0  0
  -18.1060  -28.0820   22.9470 C   0  0  0  0  0  0  0  0  0  0  0  0
  -20.6640  -28.3570   23.2180 C   0  0  0  0  0  3  0  0  0  0  0  0
  -20.7740  -26.9210   22.6530 C   0  0  0  0  0  2  0  0  0  0  0  0
  -19.6750  -26.5880   21.6390 C   0  0  0  0  0  2  0  0  0  0  0  0
  -18.2910  -26.7310   22.2790 C   0  0  0  0  0  2  0  0  0  0  0  0
  -19.2210  -28.8530   23.3740 C   0  0  0  0  0  0  0  0  0  0  0  0
  -18.9930  -30.1170   23.9620 C   0  0  0  0  0  3  0  0  0  0  0  0
  -17.6860  -30.6110   24.1230 C   0  0  0  0  0  3  0  0  0  0  0  0
  -16.5860  -29.8400   23.7100 C   0  0  0  0  0  3  0  0  0  0  0  0
  -16.7980  -28.5760   23.1290 C   0  0  0  0  0  3  0  0  0  0  0  0
  -25.9340  -32.5440   23.8640 C   0  0  0  0  0  3  0  0  0  0  0  0
  -25.6060  -33.9410   24.1900 N   0  0  0  0  0  0  0  0  0  0  0  0
  -25.9300  -34.9980   23.4320 C   0  0  0  0  0  0  0  0  0  0  0  0
  -26.6020  -34.8990   22.4030 O   0  0  0  0  0  0  0  0  0  0  0  0
  -25.0090  -34.0890   24.9890 H   0  0  0  0  0  0  0  0  0  0  0  0
  -24.1850  -36.7760   23.0800 C   0  0  0  0  0  1  0  0  0  0  0  0
  -25.4320  -36.3840   23.8900 C   0  0  0  0  0  3  0  0  0  0  0  0
  -27.5610  -37.2910   24.7130 C   0  0  0  0  0  1  0  0  0  0  0  0
  -26.4550  -37.4470   23.7710 N   0  0  0  0  0  0  0  0  0  0  0  0
  -26.0410  -38.3640   23.9190 H   0  0  0  0  0  0  0  0  0  0  0  0
  -26.4460  -31.7880   25.1520 C   0  0  1  0  0  0  0  0  0  0  0  0
  -25.3460  -31.5540   26.2130 C   0  0  0  0  0  1  0  0  0  0  0  0
  -27.0420  -30.4110   24.7810 C   0  0  0  0  0  1  0  0  0  0  0  0
  -27.5870  -32.5960   25.8160 C   0  0  0  0  0  1  0  0  0  0  0  0
  1 18  1  0
  2  7  1  0
  3  4  1  0
  3  2  1  0
  5  4  1  0
  5 22  1  0
  5  6  1  0
  7  1  1  0
  7  6  1  0
  8  1  2  0
 10  9  2  0
 11 14  2  0
 11  9  1  0
 12 15  1  0
 12 11  1  0
 13 10  1  0
 15 16  2  0
 16 18  1  0
 17 12  1  0
 17 13  2  0
 18 14  1  0
 19 20  2  0
 20 39  1  0
 21 20  1  0
 21 24  1  0
 22 19  1  0
 22 23  1  0
 23 21  2  0
 24 25  1  0
 25 26  2  0
 27 30  1  0
 27 26  1  0
 28 27  2  0
 29 28  1  0
 29 24  2  0
 30 31  1  0
 31 32  1  0
 32 33  2  0
 34 33  1  0
 34 38  1  0
 35 34  2  0
 36 31  2  0
 36 35  1  0
 37 36  1  0
 39 40  1  0
 40 43  1  0
 40 42  1  0
 41 39  2  0
 44 45  1  0
 44 19  1  0
 46 44  1  0
 47 13  1  0
 47 48  2  0
 49 48  1  0
 50 61  2  0
 51 49  1  0
 51 56  1  0
 52 60  1  0
 52 62  1  0
 53 59  1  0
 53 55  1  0
 54 60  1  0
 55 56  2  0
 55 54  1  0
 57 51  2  0
 58 57  1  0
 58 53  2  0
 59 52  1  0
 60 50  1  0
 62 64  2  0
 63 62  1  0
 65 63  1  0
 66 75  2  0
 66 71  1  0
 67 63  1  0
 67 71  1  0
 68 67  1  0
 69 70  1  0
 69 68  1  0
 70 66  1  0
 71 72  2  0
 72 73  1  0
 74 73  2  0
 75 74  1  0
 76 50  1  0
 76 77  1  0
 76 86  1  0
 77 80  1  0
 78 82  1  0
 78 77  1  0
 79 78  2  0
 82 81  1  0
 84 82  1  0
 84 85  1  0
 84 83  1  0
 86 89  1  1
 86 87  1  0
 88 86  1  0
M  ISO  4   1 100  18 100  48 101  49 101
M  END
>  <TORSDO>  (41) 
F 17

>  <SCORE>  (41) 
-15.262

>  <name>  (41) 
41

>  <ligand_id>  (41) 
41

>  <original_smiles>  (41) 
[H]c1c(C([H])([H])C([H])([H])Oc2c([H])c([H])c3c(c2[H])C([H])([H])N(C(=O)C([H])(N([H])C(=O)C([H])(N([H])C([H])([H])[H])C([H])([H])[H])C(C([H])([H])[H])(C([H])([H])[H])C([H])([H])[H])C([H])(C(=O)N([H])C2([H])c4c([H])c([H])c([H])c([H])c4C([H])([H])C([H])([H])C2([H])[H])C3([H])[H])nc2c(c1[H])C([H])([H])N(C(=O)N1C([H])([H])C([H])([H])C([H])([H])C([H])(n3nc(-c4c([H])c([H])c(Oc5c([H])c([H])c(F)c([H])c5F)c([H])c4[H])c(C(=O)N([H])[H])c3N([H])[H])C1([H])[H])C([H])([H])C2([H])[H]

>  <smiles>  (41) 
[H]c1c(C([H])([H])C([H])([H])Oc2c([H])c([H])c3c(c2[H])C([H])([H])N(C(=O)C([H])(N([H])C(=O)C([H])(N([H])C([H])([H])[H])C([H])([H])[H])C(C([H])([H])[H])(C([H])([H])[H])C([H])([H])[H])C([H])(C(=O)N([H])C2([H])c4c([H])c([H])c([H])c([H])c4C([H])([H])C([H])([H])C2([H])[H])C3([H])[H])nc2c(c1[H])C([H])([H])N(C(=O)N1C([H])([H])C([H])([H])C([H])([H])C([H])(n3nc(-c4c([H])c([H])c(Oc5c([H])c([H])c(F)c([H])c5F)c([H])c4[H])c(C(=O)N([H])[H])c3N([H])[H])C1([H])[H])C([H])([H])C2([H])[H]

$$$$
42:0:0
     RDKit          3D

 89 98  0  0  1  0  0  0  0  0999 V2000
  -28.8990  -20.6770   20.1900 C   0  0  0  0  0  0  0  0  0  0  0  0
  -29.6490  -21.7670   20.7660 C   0  0  0  0  0  0  0  0  0  0  0  0
  -27.7710  -21.4990   19.6460 C   0  0  0  0  0  3  0  0  0  0  0  0
  -28.3160  -23.9530   20.3160 C   0  0  0  0  0  0  0  0  0  0  0  0
  -30.9080  -21.0910   21.3110 C   0  0  0  0  0  2  0  0  0  0  0  0
  -30.7970  -19.4940   21.2060 C   0  0  0  0  0  2  0  0  0  0  0  0
  -29.7090  -19.0030   20.1920 C   0  0  0  0  0  3  0  0  0  0  0  0
  -26.7120  -20.7640   18.8540 C   0  0  0  0  0  1  0  0  0  0  0  0
  -29.4140  -23.2170   20.8230 N   0  0  0  0  0  0  0  0  0  0  0  0
  -27.5210  -22.9580   19.7140 N   0  0  0  0  0  0  0  0  0  0  0  0
  -30.2500  -15.8110   20.1220 C   0  0  0  0  0  0  0  0  0  0  0  0
  -30.3420  -13.2700   19.2410 C   0  0  0  0  0  2  0  0  0  0  0  0
  -29.4240  -12.8620   18.0520 C   0  0  0  0  0  2  0  0  0  0  0  0
  -28.0220  -12.4760   18.5440 C   0  0  0  0  0  2  0  0  0  0  0  0
  -27.5330  -13.4510   19.6380 C   0  0  0  0  0  3  0  0  0  0  0  0
  -28.5920  -13.7700   20.7230 C   0  0  0  0  0  2  0  0  0  0  0  0
  -29.7290  -14.4360   20.0380 N   0  0  0  0  0  0  0  0  0  0  0  0
  -31.4760  -15.7340   19.9040 O   0  0  0  0  0  0  0  0  0  0  0  0
  -29.5080  -17.2030   20.2600 N   0  0  0  0  0  0  0  0  0  0  0  0
  -28.5310  -16.9920   20.4050 H   0  0  0  0  0  0  0  0  0  0  0  0
  -25.1910  -13.9380   20.4810 C   0  0  0  0  0  0  0  0  0  0  0  0
  -24.1530  -13.1400   20.8670 C   0  0  0  0  0  0  0  0  0  0  0  0
  -24.6400  -11.7980   20.8020 C   0  0  0  0  0  0  0  0  0  0  0  0
  -26.2380  -13.0850   20.1940 N   0  0  0  0  0  0  0  0  0  0  0  0
  -25.9240  -11.7880   20.4540 N   0  0  0  0  0  0  0  0  0  0  0  0
  -23.9320  -10.5230   20.9930 C   0  0  0  0  0  0  0  0  0  0  0  0
  -24.3790   -9.5600   21.9230 C   0  0  0  0  0  3  0  0  0  0  0  0
  -23.6660   -8.3540   22.1050 C   0  0  0  0  0  3  0  0  0  0  0  0
  -22.4910   -8.1050   21.3560 C   0  0  0  0  0  0  0  0  0  0  0  0
  -22.0630   -9.0570   20.4160 C   0  0  0  0  0  3  0  0  0  0  0  0
  -22.7760  -10.2530   20.2330 C   0  0  0  0  0  3  0  0  0  0  0  0
  -21.7490   -6.9520   21.4480 O   0  0  0  0  0  0  0  0  0  0  0  0
  -21.6910   -6.2220   22.6090 C   0  0  0  0  0  0  0  0  0  0  0  0
  -21.2010   -6.7750   23.8120 C   0  0  0  0  0  3  0  0  0  0  0  0
  -21.0930   -5.9710   24.9640 C   0  0  0  0  0  3  0  0  0  0  0  0
  -21.4650   -4.6150   24.9140 C   0  0  0  0  0  0  0  0  0  0  0  0
  -21.9490   -4.0610   23.7150 C   0  0  0  0  0  3  0  0  0  0  0  0
  -22.0570   -4.8620   22.5650 C   0  0  0  0  0  0  0  0  0  0  0  0
  -22.5040   -4.3180   21.4080 F   0  0  0  0  0  0  0  0  0  0  0  0
  -21.3550   -3.8390   26.0180 F   0  0  0  0  0  0  0  0  0  0  0  0
  -22.7580  -13.5960   21.1750 C   0  0  0  0  0  0  0  0  0  0  0  0
  -22.0630  -12.8890   22.0580 N   0  0  0  0  0  0  0  0  0  0  0  0
  -22.2940  -14.6170   20.6670 O   0  0  0  0  0  0  0  0  0  0  0  0
  -22.4530  -12.0650   22.4910 H   0  0  0  0  0  0  0  0  0  0  0  0
  -21.1270  -13.1770   22.3070 H   0  0  0  0  0  0  0  0  0  0  0  0
  -25.3270  -15.3140   20.3160 N   0  0  0  0  0  0  0  0  0  0  0  0
  -24.5500  -15.9520   20.4540 H   0  0  0  0  0  0  0  0  0  0  0  0
  -26.1480  -15.7660   19.9390 H   0  0  0  0  0  0  0  0  0  0  0  0
  -28.2310  -25.5530   20.3240 O   0  0  0  0  0  0  0  0  0  0  0  0
  -24.6840  -31.8980   23.2140 C   0  0  0  0  0  0  0  0  0  0  0  0
  -27.2050  -26.7400   20.2820 C   0  0  0  0  0  0  0  0  0  0  0  0
  -23.5020  -30.4950   21.5760 C   0  0  0  0  0  3  0  0  0  0  0  0
  -24.9490  -28.8160   20.1890 C   0  0  0  0  0  0  0  0  0  0  0  0
  -26.0830  -30.6070   21.4800 C   0  0  0  0  0  2  0  0  0  0  0  0
  -26.1390  -29.1620   20.8370 C   0  0  0  0  0  0  0  0  0  0  0  0
  -27.2440  -28.1530   20.8500 C   0  0  0  0  0  3  0  0  0  0  0  0
  -25.9820  -26.6190   19.5680 C   0  0  0  0  0  3  0  0  0  0  0  0
  -24.9120  -27.5710   19.5320 C   0  0  0  0  0  3  0  0  0  0  0  0
  -23.7510  -29.7830   20.2140 C   0  0  0  0  0  2  0  0  0  0  0  0
  -24.7810  -31.0360   22.1420 N   0  0  0  0  0  0  0  0  0  0  0  0
  -23.5880  -32.2080   23.7130 O   0  0  0  0  0  0  0  0  0  0  0  0
  -22.7690  -29.5320   22.5500 C   0  0  0  0  0  0  0  0  0  0  0  0
  -21.4360  -29.3920   22.4200 N   0  0  0  0  0  0  0  0  0  0  0  0
  -23.4140  -28.9080   23.3950 O   0  0  0  0  0  0  0  0  0  0  0  0
  -20.9640  -29.9450   21.7170 H   0  0  0  0  0  0  0  0  0  0  0  0
  -18.0330  -28.2210   22.9340 C   0  0  0  0  0  0  0  0  0  0  0  0
  -20.5970  -28.4660   23.1910 C   0  0  0  0  0  3  0  0  0  0  0  0
  -20.6820  -27.0320   22.6200 C   0  0  0  0  0  2  0  0  0  0  0  0
  -19.5770  -26.7200   21.6050 C   0  0  0  0  0  2  0  0  0  0  0  0
  -18.1970  -26.8740   22.2510 C   0  0  0  0  0  2  0  0  0  0  0  0
  -19.1590  -28.9760   23.3610 C   0  0  0  0  0  0  0  0  0  0  0  0
  -18.9470  -30.2330   23.9660 C   0  0  0  0  0  3  0  0  0  0  0  0
  -17.6450  -30.7380   24.1440 C   0  0  0  0  0  3  0  0  0  0  0  0
  -16.5350  -29.9830   23.7290 C   0  0  0  0  0  3  0  0  0  0  0  0
  -16.7300  -28.7250   23.1310 C   0  0  0  0  0  3  0  0  0  0  0  0
  -25.9440  -32.5470   23.8630 C   0  0  0  0  0  3  0  0  0  0  0  0
  -25.6240  -33.9530   24.1880 N   0  0  0  0  0  0  0  0  0  0  0  0
  -25.9520  -35.0150   23.4390 C   0  0  0  0  0  0  0  0  0  0  0  0
  -26.6110  -34.9140   22.4010 O   0  0  0  0  0  0  0  0  0  0  0  0
  -25.0350  -34.1030   24.9940 H   0  0  0  0  0  0  0  0  0  0  0  0
  -24.2190  -36.8190   23.1340 C   0  0  0  0  0  1  0  0  0  0  0  0
  -25.4800  -36.4070   23.9120 C   0  0  0  0  0  3  0  0  0  0  0  0
  -27.6290  -37.3020   24.6950 C   0  0  0  0  0  1  0  0  0  0  0  0
  -26.5090  -37.4600   23.7720 N   0  0  0  0  0  0  0  0  0  0  0  0
  -26.1050  -38.3820   23.9200 H   0  0  0  0  0  0  0  0  0  0  0  0
  -26.4230  -31.7960   25.1680 C   0  0  1  0  0  0  0  0  0  0  0  0
  -25.3060  -31.5880   26.2160 C   0  0  0  0  0  1  0  0  0  0  0  0
  -27.0040  -30.4050   24.8270 C   0  0  0  0  0  1  0  0  0  0  0  0
  -27.5670  -32.5930   25.8410 C   0  0  0  0  0  1  0  0  0  0  0  0
  1  7  1  0
  1  2  2  0
  2  9  1  0
  2  5  1  0
  3  8  1  0
  3 10  1  0
  3  1  1  0
  4 49  1  0
  4  9  2  0
  6  5  1  0
  7 19  1  0
  7  6  1  0
 10  4  2  0
 11 19  1  0
 12 17  1  0
 13 14  1  0
 13 12  1  0
 15 14  1  0
 15 24  1  0
 15 16  1  0
 17 11  1  0
 17 16  1  0
 18 11  2  0
 19 20  1  0
 21 22  2  0
 22 41  1  0
 23 22  1  0
 23 26  1  0
 24 25  1  0
 24 21  1  0
 25 23  2  0
 26 27  1  0
 27 28  2  0
 29 32  1  0
 29 28  1  0
 30 29  2  0
 31 30  1  0
 31 26  2  0
 32 33  1  0
 33 34  1  0
 34 35  2  0
 36 35  1  0
 36 40  1  0
 37 36  2  0
 38 33  2  0
 38 37  1  0
 39 38  1  0
 41 42  1  0
 42 45  1  0
 42 44  1  0
 43 41  2  0
 46 47  1  0
 46 21  1  0
 48 46  1  0
 50 61  2  0
 51 49  1  0
 51 56  1  0
 52 60  1  0
 52 62  1  0
 53 59  1  0
 53 55  1  0
 54 60  1  0
 55 56  2  0
 55 54  1  0
 57 51  2  0
 58 57  1  0
 58 53  2  0
 59 52  1  0
 60 50  1  0
 62 64  2  0
 63 62  1  0
 65 63  1  0
 66 75  2  0
 66 71  1  0
 67 63  1  0
 67 71  1  0
 68 67  1  0
 69 70  1  0
 69 68  1  0
 70 66  1  0
 71 72  2  0
 72 73  1  0
 74 73  2  0
 75 74  1  0
 76 50  1  0
 76 77  1  0
 76 86  1  0
 77 80  1  0
 78 82  1  0
 78 77  1  0
 79 78  2  0
 82 81  1  0
 84 82  1  0
 84 85  1  0
 84 83  1  0
 86 89  1  1
 86 87  1  0
 88 86  1  0
M  ISO  4   4 101  11 100  19 100  49 101
M  END
>  <TORSDO>  (42) 
F 16

>  <SCORE>  (42) 
-15.954

>  <name>  (42) 
42

>  <ligand_id>  (42) 
42

>  <original_smiles>  (42) 
[H]c1c([H])c([H])c2c(c1[H])C([H])([H])C([H])([H])C([H])([H])C2([H])N([H])C(=O)C1([H])N(C(=O)C([H])(N([H])C(=O)C([H])(N([H])C([H])([H])[H])C([H])([H])[H])C(C([H])([H])[H])(C([H])([H])[H])C([H])([H])[H])C([H])([H])c2c([H])c(Oc3nc(C([H])([H])[H])c4c(n3)C([H])([H])C([H])([H])C4([H])N([H])C(=O)N3C([H])([H])C([H])([H])C([H])([H])C([H])(n4nc(-c5c([H])c([H])c(Oc6c([H])c([H])c(F)c([H])c6F)c([H])c5[H])c(C(=O)N([H])[H])c4N([H])[H])C3([H])[H])c([H])c([H])c2C1([H])[H]

>  <smiles>  (42) 
[H]c1c([H])c([H])c2c(c1[H])C([H])([H])C([H])([H])C([H])([H])C2([H])N([H])C(=O)C1([H])N(C(=O)C([H])(N([H])C(=O)C([H])(N([H])C([H])([H])[H])C([H])([H])[H])C(C([H])([H])[H])(C([H])([H])[H])C([H])([H])[H])C([H])([H])c2c([H])c(Oc3nc(C([H])([H])[H])c4c(n3)C([H])([H])C([H])([H])C4([H])N([H])C(=O)N3C([H])([H])C([H])([H])C([H])([H])C([H])(n4nc(-c5c([H])c([H])c(Oc6c([H])c([H])c(F)c([H])c6F)c([H])c5[H])c(C(=O)N([H])[H])c4N([H])[H])C3([H])[H])c([H])c([H])c2C1([H])[H]

$$$$
43:0:0
     RDKit          3D

 93102  0  0  1  0  0  0  0  0999 V2000
  -29.8450  -23.4720   21.0830 C   0  0  0  0  0  3  0  0  0  0  0  0
  -29.1840  -22.4660   20.3410 C   0  0  0  0  0  0  0  0  0  0  0  0
  -28.0710  -22.9780   19.6180 C   0  0  0  0  0  3  0  0  0  0  0  0
  -28.4420  -25.1730   20.3360 C   0  0  0  0  0  0  0  0  0  0  0  0
  -27.2230  -22.0840   18.7350 C   0  0  0  0  0  1  0  0  0  0  0  0
  -29.4900  -24.7870   21.0680 N   0  0  0  0  0  0  0  0  0  0  0  0
  -27.7270  -24.3020   19.6130 N   0  0  0  0  0  0  0  0  0  0  0  0
  -28.3400  -26.5460   20.1210 O   0  0  0  0  0  0  0  0  0  0  0  0
  -24.5390  -31.8410   23.2300 C   0  0  0  0  0  0  0  0  0  0  0  0
  -27.1480  -27.2920   20.1500 C   0  0  0  0  0  0  0  0  0  0  0  0
  -23.3210  -30.4350   21.6030 C   0  0  0  0  0  3  0  0  0  0  0  0
  -24.7630  -28.8840   20.1670 C   0  0  0  0  0  0  0  0  0  0  0  0
  -25.8550  -30.7650   21.3920 C   0  0  0  0  0  2  0  0  0  0  0  0
  -25.9310  -29.3830   20.7530 C   0  0  0  0  0  0  0  0  0  0  0  0
  -27.1200  -28.5970   20.7380 C   0  0  0  0  0  3  0  0  0  0  0  0
  -25.9550  -26.8470   19.5360 C   0  0  0  0  0  3  0  0  0  0  0  0
  -24.7750  -27.6200   19.5540 C   0  0  0  0  0  3  0  0  0  0  0  0
  -23.5230  -29.7540   20.2230 C   0  0  0  0  0  2  0  0  0  0  0  0
  -24.5910  -31.0330   22.1310 N   0  0  0  0  0  0  0  0  0  0  0  0
  -23.4600  -32.1140   23.7780 O   0  0  0  0  0  0  0  0  0  0  0  0
  -22.6760  -29.4180   22.5730 C   0  0  0  0  0  0  0  0  0  0  0  0
  -21.3530  -29.2180   22.4460 N   0  0  0  0  0  0  0  0  0  0  0  0
  -23.3630  -28.8100   23.3970 O   0  0  0  0  0  0  0  0  0  0  0  0
  -20.8580  -29.7600   21.7510 H   0  0  0  0  0  0  0  0  0  0  0  0
  -17.9990  -27.9580   22.9340 C   0  0  0  0  0  0  0  0  0  0  0  0
  -20.5480  -28.2740   23.2220 C   0  0  0  0  0  3  0  0  0  0  0  0
  -20.6860  -26.8370   22.6680 C   0  0  0  0  0  2  0  0  0  0  0  0
  -19.5990  -26.4780   21.6480 C   0  0  0  0  0  2  0  0  0  0  0  0
  -18.2090  -26.6030   22.2780 C   0  0  0  0  0  2  0  0  0  0  0  0
  -19.0970  -28.7480   23.3620 C   0  0  0  0  0  0  0  0  0  0  0  0
  -18.8460  -30.0140   23.9340 C   0  0  0  0  0  3  0  0  0  0  0  0
  -17.5300  -30.4910   24.0820 C   0  0  0  0  0  3  0  0  0  0  0  0
  -16.4460  -29.6960   23.6690 C   0  0  0  0  0  3  0  0  0  0  0  0
  -16.6810  -28.4330   23.1010 C   0  0  0  0  0  3  0  0  0  0  0  0
  -25.8260  -32.4790   23.8370 C   0  0  0  0  0  3  0  0  0  0  0  0
  -26.3610  -31.7090   25.1070 C   0  0  1  0  0  0  0  0  0  0  0  0
  -25.2820  -31.4670   26.1890 C   0  0  0  0  0  1  0  0  0  0  0  0
  -26.9470  -30.3330   24.7080 C   0  0  0  0  0  1  0  0  0  0  0  0
  -27.5160  -32.5080   25.7550 C   0  0  0  0  0  1  0  0  0  0  0  0
  -25.5150  -33.8750   24.1730 N   0  0  0  0  0  0  0  0  0  0  0  0
  -25.8300  -34.9310   23.4110 C   0  0  0  0  0  0  0  0  0  0  0  0
  -26.4840  -34.8320   22.3690 O   0  0  0  0  0  0  0  0  0  0  0  0
  -24.9320  -34.0250   24.9840 H   0  0  0  0  0  0  0  0  0  0  0  0
  -24.0910  -36.7190   23.0820 C   0  0  0  0  0  1  0  0  0  0  0  0
  -25.3430  -36.3170   23.8780 C   0  0  0  0  0  3  0  0  0  0  0  0
  -27.4810  -37.2100   24.6900 C   0  0  0  0  0  1  0  0  0  0  0  0
  -26.3700  -37.3730   23.7560 N   0  0  0  0  0  0  0  0  0  0  0  0
  -25.9620  -38.2920   23.9060 H   0  0  0  0  0  0  0  0  0  0  0  0
  -29.8280  -21.0190   20.1460 C   0  0  0  0  0  2  0  0  0  0  0  0
  -29.3590  -19.7740   20.8910 N   0  0  0  0  0  4  0  0  0  0  0  0
  -28.4030  -19.6000   20.6320 H   0  0  0  0  0  0  0  0  0  0  0  0
  -29.3630  -19.9580   21.8810 H   0  0  0  0  0  0  0  0  0  0  0  0
  -30.1360  -18.4710   20.6690 C   0  0  0  0  0  2  0  0  0  0  0  0
  -30.5580  -14.7440   20.4930 C   0  0  0  0  0  0  0  0  0  0  0  0
  -30.3990  -12.4570   19.5190 C   0  0  0  0  0  2  0  0  0  0  0  0
  -29.4790  -12.5110   18.2800 C   0  0  0  0  0  2  0  0  0  0  0  0
  -27.9920  -12.3890   18.6800 C   0  0  0  0  0  2  0  0  0  0  0  0
  -27.5970  -13.2740   19.8940 C   0  0  0  0  0  3  0  0  0  0  0  0
  -28.6430  -13.1850   21.0280 C   0  0  0  0  0  2  0  0  0  0  0  0
  -29.9520  -13.5130   20.4480 N   0  0  0  0  0  0  0  0  0  0  0  0
  -31.7760  -14.8600   20.3400 O   0  0  0  0  0  0  0  0  0  0  0  0
  -28.3540  -17.0920   19.3850 C   0  0  0  0  0  2  0  0  0  0  0  0
  -29.4370  -16.2040   18.7840 C   0  0  0  0  0  2  0  0  0  0  0  0
  -29.2270  -17.1670   20.6350 C   0  0  0  0  0  3  0  0  0  0  0  0
  -29.7240  -15.7980   20.1620 N   0  0  0  0  0  0  0  0  0  0  0  0
  -25.1930  -13.8770   20.5770 C   0  0  0  0  0  0  0  0  0  0  0  0
  -24.1200  -13.1050   20.9200 C   0  0  0  0  0  0  0  0  0  0  0  0
  -24.5850  -11.7550   20.9040 C   0  0  0  0  0  0  0  0  0  0  0  0
  -26.2440  -12.9960   20.3640 N   0  0  0  0  0  0  0  0  0  0  0  0
  -25.8820  -11.7160   20.6270 N   0  0  0  0  0  0  0  0  0  0  0  0
  -23.8550  -10.4940   21.0780 C   0  0  0  0  0  0  0  0  0  0  0  0
  -24.2720   -9.5280   22.0200 C   0  0  0  0  0  3  0  0  0  0  0  0
  -23.5440   -8.3300   22.1840 C   0  0  0  0  0  3  0  0  0  0  0  0
  -22.3850   -8.0930   21.4060 C   0  0  0  0  0  0  0  0  0  0  0  0
  -21.9900   -9.0490   20.4540 C   0  0  0  0  0  3  0  0  0  0  0  0
  -22.7180  -10.2370   20.2870 C   0  0  0  0  0  3  0  0  0  0  0  0
  -21.6300   -6.9480   21.4780 O   0  0  0  0  0  0  0  0  0  0  0  0
  -21.5620   -6.2020   22.6270 C   0  0  0  0  0  0  0  0  0  0  0  0
  -21.1000   -6.7490   23.8440 C   0  0  0  0  0  3  0  0  0  0  0  0
  -20.9810   -5.9300   24.9830 C   0  0  0  0  0  3  0  0  0  0  0  0
  -21.3150   -4.5640   24.9070 C   0  0  0  0  0  0  0  0  0  0  0  0
  -21.7710   -4.0170   23.6950 C   0  0  0  0  0  3  0  0  0  0  0  0
  -21.8910   -4.8330   22.5580 C   0  0  0  0  0  0  0  0  0  0  0  0
  -22.3110   -4.2970   21.3860 F   0  0  0  0  0  0  0  0  0  0  0  0
  -21.1930   -3.7750   25.9990 F   0  0  0  0  0  0  0  0  0  0  0  0
  -22.7160  -13.5840   21.1580 C   0  0  0  0  0  0  0  0  0  0  0  0
  -21.9670  -12.8900   22.0060 N   0  0  0  0  0  0  0  0  0  0  0  0
  -22.2910  -14.6080   20.6220 O   0  0  0  0  0  0  0  0  0  0  0  0
  -22.3230  -12.0630   22.4620 H   0  0  0  0  0  0  0  0  0  0  0  0
  -21.0250  -13.1940   22.2070 H   0  0  0  0  0  0  0  0  0  0  0  0
  -25.3530  -15.2460   20.4070 N   0  0  0  0  0  0  0  0  0  0  0  0
  -24.5800  -15.8970   20.4990 H   0  0  0  0  0  0  0  0  0  0  0  0
  -26.2140  -15.6870   20.1170 H   0  0  0  0  0  0  0  0  0  0  0  0
  2  1  2  0
  3  5  1  0
  3  2  1  0
  4  6  2  0
  6  1  1  0
  7  3  1  0
  7  4  2  0
  8 10  1  0
  8  4  1  0
  9 20  2  0
 10 15  1  0
 11 19  1  0
 11 21  1  0
 12 18  1  0
 12 14  1  0
 13 19  1  0
 14 13  1  0
 15 14  2  0
 16 17  1  0
 16 10  2  0
 17 12  2  0
 18 11  1  0
 19  9  1  0
 21 23  2  0
 22 21  1  0
 24 22  1  0
 25 34  2  0
 25 30  1  0
 26 22  1  0
 26 30  1  0
 27 26  1  0
 28 29  1  0
 28 27  1  0
 29 25  1  0
 30 31  2  0
 31 32  1  0
 33 32  2  0
 34 33  1  0
 35  9  1  0
 35 40  1  0
 35 36  1  0
 36 39  1  1
 36 37  1  0
 38 36  1  0
 40 43  1  0
 41 45  1  0
 41 40  1  0
 42 41  2  0
 45 44  1  0
 47 45  1  0
 47 48  1  0
 47 46  1  0
 49  2  1  0
 49 50  1  0
 50 52  1  0
 51 50  1  0
 53 50  1  0
 55 60  1  0
 56 57  1  0
 56 55  1  0
 58 57  1  0
 58 69  1  0
 58 59  1  0
 60 54  1  0
 60 59  1  0
 61 54  2  0
 62 64  1  0
 63 62  1  0
 63 65  1  0
 64 53  1  0
 65 54  1  0
 65 64  1  0
 66 67  2  0
 67 86  1  0
 68 67  1  0
 68 71  1  0
 69 66  1  0
 69 70  1  0
 70 68  2  0
 71 72  1  0
 72 73  2  0
 74 77  1  0
 74 73  1  0
 75 74  2  0
 76 75  1  0
 76 71  2  0
 77 78  1  0
 78 79  1  0
 79 80  2  0
 81 80  1  0
 81 85  1  0
 82 81  2  0
 83 78  2  0
 83 82  1  0
 84 83  1  0
 86 87  1  0
 87 90  1  0
 87 89  1  0
 88 86  2  0
 91 92  1  0
 91 66  1  0
 93 91  1  0
M  ISO  4   4 101   8 101  54 100  65 100
M  END
>  <TORSDO>  (43) 
F 19

>  <SCORE>  (43) 
-14.272

>  <name>  (43) 
43

>  <ligand_id>  (43) 
43

>  <original_smiles>  (43) 
[H]c1nc(Oc2c([H])c([H])c3c(c2[H])C([H])([H])N(C(=O)C([H])(N([H])C(=O)C([H])(N([H])C([H])([H])[H])C([H])([H])[H])C(C([H])([H])[H])(C([H])([H])[H])C([H])([H])[H])C([H])(C(=O)N([H])C2([H])c4c([H])c([H])c([H])c([H])c4C([H])([H])C([H])([H])C2([H])[H])C3([H])[H])nc(C([H])([H])[H])c1C([H])([H])[N+]([H])([H])C([H])([H])C1([H])N(C(=O)N2C([H])([H])C([H])([H])C([H])([H])C([H])(n3nc(-c4c([H])c([H])c(Oc5c([H])c([H])c(F)c([H])c5F)c([H])c4[H])c(C(=O)N([H])[H])c3N([H])[H])C2([H])[H])C([H])([H])C1([H])[H]

>  <smiles>  (43) 
[H]c1nc(Oc2c([H])c([H])c3c(c2[H])C([H])([H])N(C(=O)C([H])(N([H])C(=O)C([H])(N([H])C([H])([H])[H])C([H])([H])[H])C(C([H])([H])[H])(C([H])([H])[H])C([H])([H])[H])C([H])(C(=O)N([H])C2([H])c4c([H])c([H])c([H])c([H])c4C([H])([H])C([H])([H])C2([H])[H])C3([H])[H])nc(C([H])([H])[H])c1C([H])([H])[N+]([H])([H])C([H])([H])C1([H])N(C(=O)N2C([H])([H])C([H])([H])C([H])([H])C([H])(n3nc(-c4c([H])c([H])c(Oc5c([H])c([H])c(F)c([H])c5F)c([H])c4[H])c(C(=O)N([H])[H])c3N([H])[H])C2([H])[H])C([H])([H])C1([H])[H]

$$$$
44:0:0
     RDKit          3D

 95105  0  0  1  0  0  0  0  0999 V2000
  -27.6950  -23.5940   19.8630 C   0  0  0  0  0  3  0  0  0  0  0  0
  -28.4300  -24.2160   20.8480 C   0  0  0  0  0  0  0  0  0  0  0  0
  -29.2010  -22.0710   20.5500 C   0  0  0  0  0  3  0  0  0  0  0  0
  -28.1740  -22.3020   19.7080 N   0  0  0  0  0  0  0  0  0  0  0  0
  -29.3540  -23.2410   21.2230 N   0  0  0  0  0  0  0  0  0  0  0  0
  -30.0440  -23.3720   21.9520 H   0  0  0  0  0  0  0  0  0  0  0  0
  -29.6150  -19.3680   21.3500 C   0  0  0  0  0  2  0  0  0  0  0  0
  -30.0310  -20.7630   20.7790 C   0  0  0  0  0  3  0  0  0  0  0  0
  -30.8020  -18.7990   20.5240 C   0  0  0  0  0  3  0  0  0  0  0  0
  -31.5500  -20.4910   18.8730 C   0  0  0  0  0  1  0  0  0  0  0  0
  -30.4390  -19.9330   19.6260 N   0  0  0  0  0  0  0  0  0  0  0  0
  -30.8620  -17.4040   19.7750 C   0  0  0  0  0  2  0  0  0  0  0  0
  -31.6380  -15.0050   20.2680 C   0  0  0  0  0  0  0  0  0  0  0  0
  -31.4280  -12.7060   19.3420 C   0  0  0  0  0  2  0  0  0  0  0  0
  -30.5290  -12.7950   18.0890 C   0  0  0  0  0  2  0  0  0  0  0  0
  -29.0410  -12.6960   18.4770 C   0  0  0  0  0  2  0  0  0  0  0  0
  -28.6650  -13.6220   19.6660 C   0  0  0  0  0  3  0  0  0  0  0  0
  -29.6860  -13.5020   20.8190 C   0  0  0  0  0  2  0  0  0  0  0  0
  -31.0170  -13.7870   20.2660 N   0  0  0  0  0  0  0  0  0  0  0  0
  -32.7910  -15.1240   19.8410 O   0  0  0  0  0  0  0  0  0  0  0  0
  -30.8530  -16.1020   20.5350 N   0  0  0  0  0  0  0  0  0  0  0  0
  -29.9730  -15.8790   20.9770 H   0  0  0  0  0  0  0  0  0  0  0  0
  -26.2770  -14.3010   20.3200 C   0  0  0  0  0  0  0  0  0  0  0  0
  -25.1810  -13.5630   20.6840 C   0  0  0  0  0  0  0  0  0  0  0  0
  -25.6040  -12.2000   20.6810 C   0  0  0  0  0  0  0  0  0  0  0  0
  -27.3010  -13.3870   20.1230 N   0  0  0  0  0  0  0  0  0  0  0  0
  -26.8980  -12.1190   20.3980 N   0  0  0  0  0  0  0  0  0  0  0  0
  -24.8370  -10.9620   20.8760 C   0  0  0  0  0  0  0  0  0  0  0  0
  -25.1360  -10.0620   21.9250 C   0  0  0  0  0  3  0  0  0  0  0  0
  -24.3680   -8.8920   22.1040 C   0  0  0  0  0  3  0  0  0  0  0  0
  -23.2860   -8.6110   21.2340 C   0  0  0  0  0  0  0  0  0  0  0  0
  -23.0100   -9.4960   20.1770 C   0  0  0  0  0  3  0  0  0  0  0  0
  -23.7790  -10.6570   19.9990 C   0  0  0  0  0  3  0  0  0  0  0  0
  -22.5040   -7.4860   21.3160 O   0  0  0  0  0  0  0  0  0  0  0  0
  -22.1650   -6.9300   22.5250 C   0  0  0  0  0  0  0  0  0  0  0  0
  -21.4800   -7.6650   23.5150 C   0  0  0  0  0  3  0  0  0  0  0  0
  -21.0920   -7.0360   24.7150 C   0  0  0  0  0  3  0  0  0  0  0  0
  -21.3770   -5.6720   24.9210 C   0  0  0  0  0  0  0  0  0  0  0  0
  -22.0500   -4.9380   23.9300 C   0  0  0  0  0  3  0  0  0  0  0  0
  -22.4400   -5.5650   22.7340 C   0  0  0  0  0  0  0  0  0  0  0  0
  -23.0730   -4.8460   21.7760 F   0  0  0  0  0  0  0  0  0  0  0  0
  -20.9950   -5.0660   26.0690 F   0  0  0  0  0  0  0  0  0  0  0  0
  -23.7950  -14.0850   20.9270 C   0  0  0  0  0  0  0  0  0  0  0  0
  -23.0530  -13.4570   21.8310 N   0  0  0  0  0  0  0  0  0  0  0  0
  -23.3790  -15.0860   20.3420 O   0  0  0  0  0  0  0  0  0  0  0  0
  -23.3970  -12.6400   22.3150 H   0  0  0  0  0  0  0  0  0  0  0  0
  -22.1250  -13.7970   22.0450 H   0  0  0  0  0  0  0  0  0  0  0  0
  -26.4860  -15.6650   20.1260 N   0  0  0  0  0  0  0  0  0  0  0  0
  -25.7330  -16.3410   20.2070 H   0  0  0  0  0  0  0  0  0  0  0  0
  -27.3410  -16.0670   19.7710 H   0  0  0  0  0  0  0  0  0  0  0  0
  -26.2870  -21.4690   18.1870 C   0  0  0  0  0  2  0  0  0  0  0  0
  -26.5760  -20.4340   19.2520 C   0  0  0  0  0  2  0  0  0  0  0  0
  -27.7000  -21.3050   18.7360 C   0  0  0  0  0  3  0  0  0  0  0  0
  -28.2450  -25.5830   21.5560 C   0  0  0  0  0  2  0  0  0  0  0  0
  -28.4500  -26.8360   20.8190 O   0  0  0  0  0  0  0  0  0  0  0  0
  -24.6730  -32.1720   23.7840 C   0  0  0  0  0  0  0  0  0  0  0  0
  -27.3680  -27.7010   20.7550 C   0  0  0  0  0  0  0  0  0  0  0  0
  -23.5360  -30.8410   22.0390 C   0  0  0  0  0  3  0  0  0  0  0  0
  -25.0390  -29.3220   20.6390 C   0  0  0  0  0  0  0  0  0  0  0  0
  -26.0780  -31.1430   21.9910 C   0  0  0  0  0  2  0  0  0  0  0  0
  -26.1750  -29.7850   21.3160 C   0  0  0  0  0  0  0  0  0  0  0  0
  -27.3460  -28.9860   21.3680 C   0  0  0  0  0  3  0  0  0  0  0  0
  -26.2260  -27.2800   20.0470 C   0  0  0  0  0  3  0  0  0  0  0  0
  -25.0690  -28.0760   19.9920 C   0  0  0  0  0  3  0  0  0  0  0  0
  -23.8090  -30.2020   20.6480 C   0  0  0  0  0  2  0  0  0  0  0  0
  -24.7790  -31.3970   22.6630 N   0  0  0  0  0  0  0  0  0  0  0  0
  -23.5700  -32.4440   24.2770 O   0  0  0  0  0  0  0  0  0  0  0  0
  -22.8190  -29.8020   22.9340 C   0  0  0  0  0  0  0  0  0  0  0  0
  -21.5120  -29.6070   22.6990 N   0  0  0  0  0  0  0  0  0  0  0  0
  -23.4400  -29.1810   23.8000 O   0  0  0  0  0  0  0  0  0  0  0  0
  -21.0830  -30.1610   21.9710 H   0  0  0  0  0  0  0  0  0  0  0  0
  -18.1210  -28.3690   22.8940 C   0  0  0  0  0  0  0  0  0  0  0  0
  -20.6440  -28.6500   23.3840 C   0  0  0  0  0  3  0  0  0  0  0  0
  -20.8120  -27.2270   22.8010 C   0  0  0  0  0  2  0  0  0  0  0  0
  -19.8020  -26.9050   21.6980 C   0  0  0  0  0  2  0  0  0  0  0  0
  -18.3660  -27.0290   22.2220 C   0  0  0  0  0  2  0  0  0  0  0  0
  -19.1910  -29.1380   23.4250 C   0  0  0  0  0  0  0  0  0  0  0  0
  -18.9090  -30.3900   24.0100 C   0  0  0  0  0  3  0  0  0  0  0  0
  -17.5900  -30.8750   24.0780 C   0  0  0  0  0  3  0  0  0  0  0  0
  -16.5330  -30.1010   23.5680 C   0  0  0  0  0  3  0  0  0  0  0  0
  -16.7990  -28.8520   22.9770 C   0  0  0  0  0  3  0  0  0  0  0  0
  -25.9330  -32.7640   24.4900 C   0  0  0  0  0  3  0  0  0  0  0  0
  -26.2930  -32.0220   25.8380 C   0  0  1  0  0  0  0  0  0  0  0  0
  -25.0820  -31.8200   26.7790 C   0  0  0  0  0  1  0  0  0  0  0  0
  -26.9080  -30.6340   25.5460 C   0  0  0  0  0  1  0  0  0  0  0  0
  -27.3690  -32.8280   26.6020 C   0  0  0  0  0  1  0  0  0  0  0  0
  -25.6720  -34.1890   24.7400 N   0  0  0  0  0  0  0  0  0  0  0  0
  -26.1200  -35.1900   23.9670 C   0  0  0  0  0  0  0  0  0  0  0  0
  -26.8570  -35.0040   22.9960 O   0  0  0  0  0  0  0  0  0  0  0  0
  -25.0320  -34.4090   25.4880 H   0  0  0  0  0  0  0  0  0  0  0  0
  -24.5240  -37.0470   23.4000 C   0  0  0  0  0  1  0  0  0  0  0  0
  -25.6720  -36.6180   24.3290 C   0  0  0  0  0  3  0  0  0  0  0  0
  -27.7870  -37.4200   25.2810 C   0  0  0  0  0  1  0  0  0  0  0  0
  -26.7650  -37.6120   24.2550 N   0  0  0  0  0  0  0  0  0  0  0  0
  -26.4030  -38.5560   24.3390 H   0  0  0  0  0  0  0  0  0  0  0  0
  1  2  2  0
  2  5  1  0
  2 54  1  0
  3  4  1  0
  3  8  1  0
  3  5  1  0
  4  1  1  0
  5  6  1  0
  8  7  1  0
  9 12  1  0
  9  7  1  0
 10 11  1  0
 11  9  1  0
 11  8  1  0
 12 21  1  0
 13 21  1  0
 14 19  1  0
 15 16  1  0
 15 14  1  0
 17 16  1  0
 17 26  1  0
 17 18  1  0
 19 13  1  0
 19 18  1  0
 20 13  2  0
 21 22  1  0
 23 24  2  0
 24 43  1  0
 25 24  1  0
 25 28  1  0
 26 23  1  0
 26 27  1  0
 27 25  2  0
 28 29  1  0
 29 30  2  0
 31 34  1  0
 31 30  1  0
 32 31  2  0
 33 32  1  0
 33 28  2  0
 34 35  1  0
 35 40  2  0
 35 36  1  0
 36 37  2  0
 37 38  1  0
 38 42  1  0
 39 38  2  0
 40 39  1  0
 41 40  1  0
 43 44  1  0
 44 47  1  0
 44 46  1  0
 45 43  2  0
 48 49  1  0
 48 23  1  0
 50 48  1  0
 51 53  1  0
 51 52  1  0
 53 52  1  0
 53  4  1  0
 55 54  1  0
 56 67  2  0
 57 55  1  0
 57 62  1  0
 58 66  1  0
 58 68  1  0
 59 65  1  0
 59 61  1  0
 60 66  1  0
 61 62  2  0
 61 60  1  0
 63 57  2  0
 64 63  1  0
 64 59  2  0
 65 58  1  0
 66 56  1  0
 68 70  2  0
 69 68  1  0
 71 69  1  0
 72 81  2  0
 72 77  1  0
 73 69  1  0
 73 77  1  0
 74 73  1  0
 75 76  1  0
 75 74  1  0
 76 72  1  0
 77 78  2  0
 78 79  1  0
 80 79  2  0
 81 80  1  0
 82 56  1  0
 82 87  1  0
 82 83  1  0
 83 86  1  1
 83 84  1  0
 85 83  1  0
 87 90  1  0
 88 92  1  0
 88 87  1  0
 89 88  2  0
 92 91  1  0
 94 92  1  0
 94 95  1  0
 94 93  1  0
M  ISO  4  13 100  21 100  54 101  55 101
M  END
>  <TORSDO>  (44) 
F 20

>  <SCORE>  (44) 
-11.070

>  <name>  (44) 
44

>  <ligand_id>  (44) 
44

>  <original_smiles>  (44) 
[H]c1c([H])c([H])c2c(c1[H])C([H])([H])C([H])([H])C([H])([H])C2([H])N([H])C(=O)C1([H])N(C(=O)C([H])(N([H])C(=O)C([H])(N([H])C([H])([H])[H])C([H])([H])[H])C(C([H])([H])[H])(C([H])([H])[H])C([H])([H])[H])C([H])([H])c2c([H])c(OC([H])([H])c3c([H])n(C4([H])C([H])([H])C4([H])[H])c(C4([H])N(C([H])([H])[H])C([H])(C([H])([H])N([H])C(=O)N5C([H])([H])C([H])([H])C([H])([H])C([H])(n6nc(-c7c([H])c([H])c(Oc8c([H])c([H])c(F)c([H])c8F)c([H])c7[H])c(C(=O)N([H])[H])c6N([H])[H])C5([H])[H])C4([H])[H])[n+]3[H])c([H])c([H])c2C1([H])[H]

>  <smiles>  (44) 
[H]c1c([H])c([H])c2c(c1[H])C([H])([H])C([H])([H])C([H])([H])C2([H])N([H])C(=O)C1([H])N(C(=O)C([H])(N([H])C(=O)C([H])(N([H])C([H])([H])[H])C([H])([H])[H])C(C([H])([H])[H])(C([H])([H])[H])C([H])([H])[H])C([H])([H])c2c([H])c(OC([H])([H])c3c([H])n(C4([H])C([H])([H])C4([H])[H])c(C4([H])N(C([H])([H])[H])C([H])(C([H])([H])N([H])C(=O)N5C([H])([H])C([H])([H])C([H])([H])C([H])(n6nc(-c7c([H])c([H])c(Oc8c([H])c([H])c(F)c([H])c8F)c([H])c7[H])c(C(=O)N([H])[H])c6N([H])[H])C5([H])[H])C4([H])[H])[n+]3[H])c([H])c([H])c2C1([H])[H]

$$$$
45:0:0
     RDKit          3D

 89 97  0  0  1  0  0  0  0  0999 V2000
  -28.9500  -21.7830   20.5880 C   0  0  0  0  0  0  0  0  0  0  0  0
  -29.0450  -20.4970   19.9690 N   0  0  0  0  0  0  0  0  0  0  0  0
  -29.2080  -21.8390   21.7920 O   0  0  0  0  0  0  0  0  0  0  0  0
  -28.7580  -20.4900   18.9980 H   0  0  0  0  0  0  0  0  0  0  0  0
  -30.7270  -15.0930   20.0040 C   0  0  0  0  0  0  0  0  0  0  0  0
  -30.3840  -12.7680   19.0460 C   0  0  0  0  0  2  0  0  0  0  0  0
  -29.4080  -12.6890   17.8580 C   0  0  0  0  0  2  0  0  0  0  0  0
  -27.9770  -12.4690   18.3700 C   0  0  0  0  0  2  0  0  0  0  0  0
  -27.6250  -13.3930   19.5670 C   0  0  0  0  0  3  0  0  0  0  0  0
  -28.7480  -13.4770   20.6290 C   0  0  0  0  0  2  0  0  0  0  0  0
  -29.9570  -13.9180   19.9160 N   0  0  0  0  0  0  0  0  0  0  0  0
  -31.9230  -14.8840   19.7660 O   0  0  0  0  0  0  0  0  0  0  0  0
  -31.0990  -18.9430   20.0810 C   0  0  0  0  0  2  0  0  0  0  0  0
  -31.4990  -17.4550   20.3080 C   0  0  0  0  0  2  0  0  0  0  0  0
  -29.6430  -19.1080   20.4770 C   0  0  0  0  0  3  0  0  0  0  0  0
  -29.2000  -17.5490   20.0630 C   0  0  0  0  0  3  0  0  0  0  0  0
  -27.9650  -17.1390   20.8520 C   0  0  0  0  0  1  0  0  0  0  0  0
  -30.3570  -16.4970   20.1980 N   0  0  0  0  0  0  0  0  0  0  0  0
  -25.2740  -13.9240   20.4140 C   0  0  0  0  0  0  0  0  0  0  0  0
  -24.2380  -13.1390   20.8280 C   0  0  0  0  0  0  0  0  0  0  0  0
  -24.7130  -11.7940   20.7590 C   0  0  0  0  0  0  0  0  0  0  0  0
  -26.3220  -13.0670   20.1340 N   0  0  0  0  0  0  0  0  0  0  0  0
  -25.9930  -11.7740   20.4030 N   0  0  0  0  0  0  0  0  0  0  0  0
  -23.9980  -10.5270   20.9560 C   0  0  0  0  0  0  0  0  0  0  0  0
  -24.4480   -9.5590   21.8790 C   0  0  0  0  0  3  0  0  0  0  0  0
  -23.7280   -8.3600   22.0670 C   0  0  0  0  0  3  0  0  0  0  0  0
  -22.5430   -8.1210   21.3300 C   0  0  0  0  0  0  0  0  0  0  0  0
  -22.1120   -9.0790   20.3940 C   0  0  0  0  0  3  0  0  0  0  0  0
  -22.8330  -10.2690   20.2050 C   0  0  0  0  0  3  0  0  0  0  0  0
  -21.7920   -6.9740   21.4280 O   0  0  0  0  0  0  0  0  0  0  0  0
  -21.7390   -6.2470   22.5900 C   0  0  0  0  0  0  0  0  0  0  0  0
  -21.2780   -6.8080   23.8010 C   0  0  0  0  0  3  0  0  0  0  0  0
  -21.1750   -6.0070   24.9540 C   0  0  0  0  0  3  0  0  0  0  0  0
  -21.5210   -4.6430   24.8990 C   0  0  0  0  0  0  0  0  0  0  0  0
  -21.9740   -4.0800   23.6930 C   0  0  0  0  0  3  0  0  0  0  0  0
  -22.0790   -4.8800   22.5410 C   0  0  0  0  0  0  0  0  0  0  0  0
  -22.4960   -4.3290   21.3760 F   0  0  0  0  0  0  0  0  0  0  0  0
  -21.4140   -3.8690   26.0040 F   0  0  0  0  0  0  0  0  0  0  0  0
  -22.8530  -13.6090   21.1590 C   0  0  0  0  0  0  0  0  0  0  0  0
  -22.1640  -12.8980   22.0450 N   0  0  0  0  0  0  0  0  0  0  0  0
  -22.3950  -14.6420   20.6740 O   0  0  0  0  0  0  0  0  0  0  0  0
  -22.5510  -12.0620   22.4560 H   0  0  0  0  0  0  0  0  0  0  0  0
  -21.2360  -13.1930   22.3140 H   0  0  0  0  0  0  0  0  0  0  0  0
  -25.3860  -15.2940   20.2170 N   0  0  0  0  0  0  0  0  0  0  0  0
  -24.6010  -15.9200   20.3580 H   0  0  0  0  0  0  0  0  0  0  0  0
  -26.1970  -15.7550   19.8300 H   0  0  0  0  0  0  0  0  0  0  0  0
  -28.5860  -23.2510   19.8740 C   0  0  0  0  0  2  0  0  0  0  0  0
  -28.1140  -24.6870   20.6670 C   0  0  0  0  0  2  0  0  0  0  0  0
  -28.3080  -26.2000   20.2860 O   0  0  0  0  0  0  0  0  0  0  0  0
  -24.6190  -31.9070   23.2520 C   0  0  0  0  0  0  0  0  0  0  0  0
  -27.2380  -27.1710   20.2820 C   0  0  0  0  0  0  0  0  0  0  0  0
  -23.4370  -30.4900   21.6190 C   0  0  0  0  0  3  0  0  0  0  0  0
  -24.9020  -28.9080   20.2170 C   0  0  0  0  0  0  0  0  0  0  0  0
  -25.9900  -30.7710   21.4590 C   0  0  0  0  0  2  0  0  0  0  0  0
  -26.0780  -29.3700   20.8240 C   0  0  0  0  0  0  0  0  0  0  0  0
  -27.2500  -28.5200   20.8330 C   0  0  0  0  0  3  0  0  0  0  0  0
  -26.0350  -26.8080   19.6450 C   0  0  0  0  0  3  0  0  0  0  0  0
  -24.8950  -27.6400   19.6110 C   0  0  0  0  0  3  0  0  0  0  0  0
  -23.6710  -29.8030   20.2470 C   0  0  0  0  0  2  0  0  0  0  0  0
  -24.7020  -31.0800   22.1640 N   0  0  0  0  0  0  0  0  0  0  0  0
  -23.5290  -32.1850   23.7730 O   0  0  0  0  0  0  0  0  0  0  0  0
  -22.7610  -29.4850   22.5860 C   0  0  0  0  0  0  0  0  0  0  0  0
  -21.4350  -29.3010   22.4550 N   0  0  0  0  0  0  0  0  0  0  0  0
  -23.4340  -28.8710   23.4200 O   0  0  0  0  0  0  0  0  0  0  0  0
  -20.9470  -29.8520   21.7620 H   0  0  0  0  0  0  0  0  0  0  0  0
  -18.0610  -28.0810   22.9560 C   0  0  0  0  0  0  0  0  0  0  0  0
  -20.6190  -28.3630   23.2310 C   0  0  0  0  0  3  0  0  0  0  0  0
  -20.7300  -26.9250   22.6700 C   0  0  0  0  0  2  0  0  0  0  0  0
  -19.6370  -26.5930   21.6480 C   0  0  0  0  0  2  0  0  0  0  0  0
  -18.2500  -26.7330   22.2800 C   0  0  0  0  0  2  0  0  0  0  0  0
  -19.1740  -28.8540   23.3870 C   0  0  0  0  0  0  0  0  0  0  0  0
  -18.9440  -30.1160   23.9740 C   0  0  0  0  0  3  0  0  0  0  0  0
  -17.6340  -30.6070   24.1360 C   0  0  0  0  0  3  0  0  0  0  0  0
  -16.5370  -29.8310   23.7220 C   0  0  0  0  0  3  0  0  0  0  0  0
  -16.7510  -28.5710   23.1380 C   0  0  0  0  0  3  0  0  0  0  0  0
  -25.8880  -32.5610   23.8800 C   0  0  0  0  0  3  0  0  0  0  0  0
  -25.5660  -33.9670   24.1750 N   0  0  0  0  0  0  0  0  0  0  0  0
  -25.9140  -35.0090   23.4060 C   0  0  0  0  0  0  0  0  0  0  0  0
  -26.6010  -34.8860   22.3880 O   0  0  0  0  0  0  0  0  0  0  0  0
  -24.9560  -34.1360   24.9620 H   0  0  0  0  0  0  0  0  0  0  0  0
  -24.2020  -36.8080   22.9890 C   0  0  0  0  0  1  0  0  0  0  0  0
  -25.4220  -36.4070   23.8330 C   0  0  0  0  0  3  0  0  0  0  0  0
  -27.5380  -37.3020   24.7030 C   0  0  0  0  0  1  0  0  0  0  0  0
  -26.4620  -37.4550   23.7280 N   0  0  0  0  0  0  0  0  0  0  0  0
  -26.0550  -38.3780   23.8450 H   0  0  0  0  0  0  0  0  0  0  0  0
  -26.3800  -31.8250   25.1870 C   0  0  1  0  0  0  0  0  0  0  0  0
  -25.2700  -31.6120   26.2410 C   0  0  0  0  0  1  0  0  0  0  0  0
  -26.9720  -30.4390   24.8440 C   0  0  0  0  0  1  0  0  0  0  0  0
  -27.5170  -32.6400   25.8490 C   0  0  0  0  0  1  0  0  0  0  0  0
  1  3  2  0
  2  1  1  0
  4  2  1  0
  5 18  1  0
  6 11  1  0
  7  8  1  0
  7  6  1  0
  9  8  1  0
  9 22  1  0
  9 10  1  0
 11  5  1  0
 11 10  1  0
 12  5  2  0
 13 14  1  0
 13 15  1  0
 15  2  1  0
 16 18  1  0
 16 15  1  0
 16 17  1  0
 18 14  1  0
 19 20  2  0
 20 39  1  0
 21 20  1  0
 21 24  1  0
 22 23  1  0
 22 19  1  0
 23 21  2  0
 24 25  1  0
 25 26  2  0
 27 30  1  0
 27 26  1  0
 28 27  2  0
 29 28  1  0
 29 24  2  0
 30 31  1  0
 31 32  1  0
 32 33  2  0
 34 33  1  0
 34 38  1  0
 35 34  2  0
 36 31  2  0
 36 35  1  0
 37 36  1  0
 39 40  1  0
 40 43  1  0
 40 42  1  0
 41 39  2  0
 44 45  1  0
 44 19  1  0
 46 44  1  0
 47  1  1  0
 47 48  1  0
 49 48  1  0
 50 61  2  0
 51 49  1  0
 51 56  1  0
 52 60  1  0
 52 62  1  0
 53 59  1  0
 53 55  1  0
 54 60  1  0
 55 56  2  0
 55 54  1  0
 57 51  2  0
 58 57  1  0
 58 53  2  0
 59 52  1  0
 60 50  1  0
 62 64  2  0
 63 62  1  0
 65 63  1  0
 66 75  2  0
 66 71  1  0
 67 63  1  0
 67 71  1  0
 68 67  1  0
 69 70  1  0
 69 68  1  0
 70 66  1  0
 71 72  2  0
 72 73  1  0
 74 73  2  0
 75 74  1  0
 76 50  1  0
 76 77  1  0
 76 86  1  0
 77 80  1  0
 78 82  1  0
 78 77  1  0
 79 78  2  0
 82 81  1  0
 84 82  1  0
 84 85  1  0
 84 83  1  0
 86 89  1  1
 86 87  1  0
 88 86  1  0
M  ISO  4   5 100  18 100  48 101  49 101
M  END
>  <TORSDO>  (45) 
F 18

>  <SCORE>  (45) 
-15.157

>  <name>  (45) 
45

>  <ligand_id>  (45) 
45

>  <original_smiles>  (45) 
[H]c1c([H])c([H])c2c(c1[H])C([H])([H])C([H])([H])C([H])([H])C2([H])N([H])C(=O)C1([H])N(C(=O)C([H])(N([H])C(=O)C([H])(N([H])C([H])([H])[H])C([H])([H])[H])C(C([H])([H])[H])(C([H])([H])[H])C([H])([H])[H])C([H])([H])c2c([H])c(OC([H])([H])C([H])([H])C(=O)N([H])C3([H])C([H])([H])C([H])([H])N(C(=O)N4C([H])([H])C([H])([H])C([H])([H])C([H])(n5nc(-c6c([H])c([H])c(Oc7c([H])c([H])c(F)c([H])c7F)c([H])c6[H])c(C(=O)N([H])[H])c5N([H])[H])C4([H])[H])C3([H])C([H])([H])[H])c([H])c([H])c2C1([H])[H]

>  <smiles>  (45) 
[H]c1c([H])c([H])c2c(c1[H])C([H])([H])C([H])([H])C([H])([H])C2([H])N([H])C(=O)C1([H])N(C(=O)C([H])(N([H])C(=O)C([H])(N([H])C([H])([H])[H])C([H])([H])[H])C(C([H])([H])[H])(C([H])([H])[H])C([H])([H])[H])C([H])([H])c2c([H])c(OC([H])([H])C([H])([H])C(=O)N([H])C3([H])C([H])([H])C([H])([H])N(C(=O)N4C([H])([H])C([H])([H])C([H])([H])C([H])(n5nc(-c6c([H])c([H])c(Oc7c([H])c([H])c(F)c([H])c7F)c([H])c6[H])c(C(=O)N([H])[H])c5N([H])[H])C4([H])[H])C3([H])C([H])([H])[H])c([H])c([H])c2C1([H])[H]

$$$$
46:0:0
     RDKit          3D

 90 99  0  0  1  0  0  0  0  0999 V2000
  -29.2170  -21.0140   18.9650 C   0  0  0  0  0  3  0  0  0  0  0  0
  -29.3920  -20.2820   20.1950 C   0  0  0  0  0  0  0  0  0  0  0  0
  -28.9090  -22.4750   21.1910 C   0  0  0  0  0  0  0  0  0  0  0  0
  -28.7240  -23.2080   19.9530 C   0  0  0  0  0  0  0  0  0  0  0  0
  -28.8940  -22.3770   18.8550 N   0  0  0  0  0  0  0  0  0  0  0  0
  -29.2420  -21.1100   21.2960 N   0  0  0  0  0  0  0  0  0  0  0  0
  -30.7540  -15.1510   20.2050 C   0  0  0  0  0  0  0  0  0  0  0  0
  -30.5800  -12.7740   19.3160 C   0  0  0  0  0  2  0  0  0  0  0  0
  -29.6420  -12.6650   18.0940 C   0  0  0  0  0  2  0  0  0  0  0  0
  -28.1900  -12.4480   18.5550 C   0  0  0  0  0  2  0  0  0  0  0  0
  -27.7840  -13.4090   19.7050 C   0  0  0  0  0  3  0  0  0  0  0  0
  -28.8540  -13.5070   20.8130 C   0  0  0  0  0  2  0  0  0  0  0  0
  -30.1000  -13.9160   20.1560 N   0  0  0  0  0  0  0  0  0  0  0  0
  -31.9590  -15.1180   19.9370 O   0  0  0  0  0  0  0  0  0  0  0  0
  -29.1220  -17.3230   20.8170 C   0  0  0  0  0  2  0  0  0  0  0  0
  -30.5290  -17.6770   19.3260 C   0  0  0  0  0  2  0  0  0  0  0  0
  -29.8630  -18.6740   20.3620 C   0  0  0  0  0  3  0  0  0  0  0  0
  -30.0900  -16.4240   20.0660 N   0  0  0  0  0  0  0  0  0  0  0  0
  -25.4290  -13.9770   20.5120 C   0  0  0  0  0  0  0  0  0  0  0  0
  -24.3690  -13.1990   20.8880 C   0  0  0  0  0  0  0  0  0  0  0  0
  -24.8270  -11.8470   20.8240 C   0  0  0  0  0  0  0  0  0  0  0  0
  -26.4610  -13.0990   20.2340 N   0  0  0  0  0  0  0  0  0  0  0  0
  -26.1120  -11.8120   20.4890 N   0  0  0  0  0  0  0  0  0  0  0  0
  -24.0970  -10.5850   21.0050 C   0  0  0  0  0  0  0  0  0  0  0  0
  -24.5080   -9.6210   21.9520 C   0  0  0  0  0  3  0  0  0  0  0  0
  -23.7760   -8.4260   22.1220 C   0  0  0  0  0  3  0  0  0  0  0  0
  -22.6190   -8.1850   21.3430 C   0  0  0  0  0  0  0  0  0  0  0  0
  -22.2280   -9.1370   20.3850 C   0  0  0  0  0  3  0  0  0  0  0  0
  -22.9600  -10.3240   20.2150 C   0  0  0  0  0  3  0  0  0  0  0  0
  -21.8600   -7.0420   21.4220 O   0  0  0  0  0  0  0  0  0  0  0  0
  -21.7380   -6.3380   22.5930 C   0  0  0  0  0  0  0  0  0  0  0  0
  -21.1790   -6.9140   23.7540 C   0  0  0  0  0  3  0  0  0  0  0  0
  -21.0090   -6.1330   24.9150 C   0  0  0  0  0  3  0  0  0  0  0  0
  -21.3880   -4.7780   24.9140 C   0  0  0  0  0  0  0  0  0  0  0  0
  -21.9380   -4.2010   23.7570 C   0  0  0  0  0  3  0  0  0  0  0  0
  -22.1100   -4.9790   22.5980 C   0  0  0  0  0  0  0  0  0  0  0  0
  -22.6220   -4.4130   21.4790 F   0  0  0  0  0  0  0  0  0  0  0  0
  -21.2170   -4.0250   26.0260 F   0  0  0  0  0  0  0  0  0  0  0  0
  -22.9800  -13.6790   21.1920 C   0  0  0  0  0  0  0  0  0  0  0  0
  -22.2690  -12.9800   22.0690 N   0  0  0  0  0  0  0  0  0  0  0  0
  -22.5350  -14.7080   20.6860 O   0  0  0  0  0  0  0  0  0  0  0  0
  -22.6430  -12.1470   22.4990 H   0  0  0  0  0  0  0  0  0  0  0  0
  -21.3370  -13.2820   22.3160 H   0  0  0  0  0  0  0  0  0  0  0  0
  -25.5970  -15.3490   20.3560 N   0  0  0  0  0  0  0  0  0  0  0  0
  -24.8370  -16.0080   20.4910 H   0  0  0  0  0  0  0  0  0  0  0  0
  -26.4420  -15.7820   20.0080 H   0  0  0  0  0  0  0  0  0  0  0  0
  -30.0520  -23.6160   23.1420 C   0  0  0  0  0  1  0  0  0  0  0  0
  -28.7190  -23.1770   22.5250 C   0  0  0  0  0  2  0  0  0  0  0  0
  -27.9480  -24.6850   19.7480 C   0  0  0  0  0  2  0  0  0  0  0  0
  -28.3360  -26.1810   20.0590 O   0  0  0  0  0  0  0  0  0  0  0  0
  -24.6820  -31.8210   23.2100 C   0  0  0  0  0  0  0  0  0  0  0  0
  -27.3150  -27.2190   20.0070 C   0  0  0  0  0  0  0  0  0  0  0  0
  -23.5110  -30.4870   21.5030 C   0  0  0  0  0  3  0  0  0  0  0  0
  -24.9870  -28.9880   20.0250 C   0  0  0  0  0  0  0  0  0  0  0  0
  -26.0700  -30.7640   21.3820 C   0  0  0  0  0  2  0  0  0  0  0  0
  -26.1600  -29.4000   20.6700 C   0  0  0  0  0  0  0  0  0  0  0  0
  -27.3250  -28.5320   20.6470 C   0  0  0  0  0  3  0  0  0  0  0  0
  -26.1140  -26.9370   19.3140 C   0  0  0  0  0  3  0  0  0  0  0  0
  -24.9790  -27.7730   19.3310 C   0  0  0  0  0  3  0  0  0  0  0  0
  -23.7530  -29.8760   20.0990 C   0  0  0  0  0  2  0  0  0  0  0  0
  -24.7730  -31.0440   22.0860 N   0  0  0  0  0  0  0  0  0  0  0  0
  -23.5860  -32.0760   23.7360 O   0  0  0  0  0  0  0  0  0  0  0  0
  -22.8300  -29.4330   22.4140 C   0  0  0  0  0  0  0  0  0  0  0  0
  -21.4990  -29.2760   22.2840 N   0  0  0  0  0  0  0  0  0  0  0  0
  -23.5000  -28.7640   23.2030 O   0  0  0  0  0  0  0  0  0  0  0  0
  -21.0150  -29.8690   21.6250 H   0  0  0  0  0  0  0  0  0  0  0  0
  -18.1070  -28.1020   22.7810 C   0  0  0  0  0  0  0  0  0  0  0  0
  -20.6750  -28.3050   23.0100 C   0  0  0  0  0  3  0  0  0  0  0  0
  -20.7400  -26.9110   22.3440 C   0  0  0  0  0  2  0  0  0  0  0  0
  -19.6120  -26.6720   21.3350 C   0  0  0  0  0  2  0  0  0  0  0  0
  -18.2470  -26.7970   22.0160 C   0  0  0  0  0  2  0  0  0  0  0  0
  -19.2470  -28.8180   23.2340 C   0  0  0  0  0  0  0  0  0  0  0  0
  -19.0590  -30.0410   23.9140 C   0  0  0  0  0  3  0  0  0  0  0  0
  -17.7660  -30.5490   24.1420 C   0  0  0  0  0  3  0  0  0  0  0  0
  -16.6420  -29.8290   23.7020 C   0  0  0  0  0  3  0  0  0  0  0  0
  -16.8120  -28.6070   23.0280 C   0  0  0  0  0  3  0  0  0  0  0  0
  -25.9460  -32.4420   23.8760 C   0  0  0  0  0  3  0  0  0  0  0  0
  -25.6340  -33.8410   24.2130 N   0  0  0  0  0  0  0  0  0  0  0  0
  -25.9520  -34.9000   23.4560 C   0  0  0  0  0  0  0  0  0  0  0  0
  -26.6060  -34.8020   22.4140 O   0  0  0  0  0  0  0  0  0  0  0  0
  -25.0510  -33.9900   25.0240 H   0  0  0  0  0  0  0  0  0  0  0  0
  -24.1960  -36.6790   23.1680 C   0  0  0  0  0  1  0  0  0  0  0  0
  -25.4720  -36.2860   23.9290 C   0  0  0  0  0  3  0  0  0  0  0  0
  -27.6220  -37.2030   24.6850 C   0  0  0  0  0  1  0  0  0  0  0  0
  -26.4910  -37.3480   23.7720 N   0  0  0  0  0  0  0  0  0  0  0  0
  -26.0800  -38.2660   23.9190 H   0  0  0  0  0  0  0  0  0  0  0  0
  -26.4140  -31.6590   25.1650 C   0  0  1  0  0  0  0  0  0  0  0  0
  -25.2850  -31.4240   26.1950 C   0  0  0  0  0  1  0  0  0  0  0  0
  -26.9990  -30.2790   24.7890 C   0  0  0  0  0  1  0  0  0  0  0  0
  -27.5490  -32.4410   25.8680 C   0  0  0  0  0  1  0  0  0  0  0  0
  1  2  1  0
  2  6  2  0
  3  6  1  0
  3 48  1  0
  4  3  2  0
  5  1  2  0
  5  4  1  0
  8 13  1  0
  9 10  1  0
  9  8  1  0
 11 10  1  0
 11 22  1  0
 11 12  1  0
 13  7  1  0
 13 12  1  0
 14  7  2  0
 16 18  1  0
 16 17  1  0
 17  2  1  0
 17 15  1  0
 18  7  1  0
 18 15  1  0
 19 20  2  0
 20 39  1  0
 21 20  1  0
 21 24  1  0
 22 23  1  0
 22 19  1  0
 23 21  2  0
 24 25  1  0
 25 26  2  0
 27 30  1  0
 27 26  1  0
 28 27  2  0
 29 28  1  0
 29 24  2  0
 30 31  1  0
 31 36  2  0
 31 32  1  0
 32 33  2  0
 34 33  1  0
 34 38  1  0
 35 34  2  0
 36 35  1  0
 37 36  1  0
 39 40  1  0
 40 43  1  0
 40 42  1  0
 41 39  2  0
 44 45  1  0
 44 19  1  0
 46 44  1  0
 48 47  1  0
 49  4  1  0
 49 50  1  0
 51 62  2  0
 52 50  1  0
 52 57  1  0
 53 61  1  0
 53 63  1  0
 54 60  1  0
 54 56  1  0
 55 61  1  0
 56 55  1  0
 57 56  2  0
 58 59  1  0
 58 52  2  0
 59 54  2  0
 60 53  1  0
 61 51  1  0
 63 65  2  0
 64 63  1  0
 66 64  1  0
 67 76  2  0
 67 72  1  0
 68 64  1  0
 68 72  1  0
 69 68  1  0
 70 71  1  0
 70 69  1  0
 71 67  1  0
 72 73  2  0
 73 74  1  0
 75 74  2  0
 76 75  1  0
 77 51  1  0
 77 78  1  0
 77 87  1  0
 78 81  1  0
 79 83  1  0
 79 78  1  0
 80 79  2  0
 83 82  1  0
 85 86  1  0
 85 83  1  0
 85 84  1  0
 87 90  1  1
 87 88  1  0
 89 87  1  0
M  ISO  4   7 100  18 100  49 101  50 101
M  END
>  <TORSDO>  (46) 
F 18

>  <SCORE>  (46) 
-14.419

>  <name>  (46) 
46

>  <ligand_id>  (46) 
46

>  <original_smiles>  (46) 
[H]c1nc(C([H])([H])Oc2c([H])c([H])c3c(c2[H])C([H])([H])N(C(=O)C([H])(N([H])C(=O)C([H])(N([H])C([H])([H])[H])C([H])([H])[H])C(C([H])([H])[H])(C([H])([H])[H])C([H])([H])[H])C([H])(C(=O)N([H])C2([H])c4c([H])c([H])c([H])c([H])c4C([H])([H])C([H])([H])C2([H])[H])C3([H])[H])c(C([H])([H])C([H])([H])[H])nc1C1([H])C([H])([H])N(C(=O)N2C([H])([H])C([H])([H])C([H])([H])C([H])(n3nc(-c4c([H])c([H])c(Oc5c([H])c([H])c(F)c([H])c5F)c([H])c4[H])c(C(=O)N([H])[H])c3N([H])[H])C2([H])[H])C1([H])[H]

>  <smiles>  (46) 
[H]c1nc(C([H])([H])Oc2c([H])c([H])c3c(c2[H])C([H])([H])N(C(=O)C([H])(N([H])C(=O)C([H])(N([H])C([H])([H])[H])C([H])([H])[H])C(C([H])([H])[H])(C([H])([H])[H])C([H])([H])[H])C([H])(C(=O)N([H])C2([H])c4c([H])c([H])c([H])c([H])c4C([H])([H])C([H])([H])C2([H])[H])C3([H])[H])c(C([H])([H])C([H])([H])[H])nc1C1([H])C([H])([H])N(C(=O)N2C([H])([H])C([H])([H])C([H])([H])C([H])(n3nc(-c4c([H])c([H])c(Oc5c([H])c([H])c(F)c([H])c5F)c([H])c4[H])c(C(=O)N([H])[H])c3N([H])[H])C2([H])[H])C1([H])[H]

$$$$
47:0:0
     RDKit          3D

 91101  0  0  1  0  0  0  0  0999 V2000
  -30.8110  -20.9610   20.5890 C   0  0  0  0  0  3  0  0  0  0  0  0
  -31.0990  -22.3340   20.7430 C   0  0  0  0  0  3  0  0  0  0  0  0
  -29.5140  -20.5370   20.2770 C   0  0  0  0  0  0  0  0  0  0  0  0
  -28.9360  -23.0520   20.3210 C   0  0  0  0  0  0  0  0  0  0  0  0
  -30.2010  -23.3390   20.6070 N   0  0  0  0  0  0  0  0  0  0  0  0
  -28.5960  -21.6640   20.1770 N   0  0  0  0  0  0  0  0  0  0  0  0
  -30.5210  -15.2350   20.2590 C   0  0  0  0  0  0  0  0  0  0  0  0
  -30.4090  -12.8270   19.3520 C   0  0  0  0  0  2  0  0  0  0  0  0
  -29.4690  -12.6490   18.1370 C   0  0  0  0  0  2  0  0  0  0  0  0
  -28.0300  -12.3850   18.6090 C   0  0  0  0  0  2  0  0  0  0  0  0
  -27.5980  -13.3450   19.7460 C   0  0  0  0  0  3  0  0  0  0  0  0
  -28.6690  -13.4990   20.8480 C   0  0  0  0  0  2  0  0  0  0  0  0
  -29.8910  -13.9710   20.1790 N   0  0  0  0  0  0  0  0  0  0  0  0
  -31.7420  -15.1890   20.0600 O   0  0  0  0  0  0  0  0  0  0  0  0
  -29.3780  -17.6310   21.1250 C   0  0  0  0  0  3  0  0  0  0  0  0
  -30.3960  -17.8020   19.4640 C   0  0  0  0  0  3  0  0  0  0  0  0
  -29.2680  -18.8390   20.0170 C   0  0  2  0  0  0  0  0  0  0  0  0
  -29.8390  -16.5350   20.1390 N   0  0  0  0  0  0  0  0  0  0  0  0
  -25.2330  -13.8680   20.5530 C   0  0  0  0  0  0  0  0  0  0  0  0
  -24.1820  -13.0810   20.9220 C   0  0  0  0  0  0  0  0  0  0  0  0
  -24.6590  -11.7370   20.8600 C   0  0  0  0  0  0  0  0  0  0  0  0
  -26.2800  -13.0110   20.2770 N   0  0  0  0  0  0  0  0  0  0  0  0
  -25.9470  -11.7180   20.5320 N   0  0  0  0  0  0  0  0  0  0  0  0
  -23.9420  -10.4700   21.0330 C   0  0  0  0  0  0  0  0  0  0  0  0
  -24.3640   -9.5050   21.9750 C   0  0  0  0  0  3  0  0  0  0  0  0
  -23.6410   -8.3050   22.1400 C   0  0  0  0  0  3  0  0  0  0  0  0
  -22.4830   -8.0600   21.3640 C   0  0  0  0  0  0  0  0  0  0  0  0
  -22.0800   -9.0140   20.4140 C   0  0  0  0  0  3  0  0  0  0  0  0
  -22.8040  -10.2060   20.2460 C   0  0  0  0  0  3  0  0  0  0  0  0
  -21.7330   -6.9110   21.4400 O   0  0  0  0  0  0  0  0  0  0  0  0
  -21.6340   -6.1920   22.6040 C   0  0  0  0  0  0  0  0  0  0  0  0
  -21.1150   -6.7600   23.7890 C   0  0  0  0  0  3  0  0  0  0  0  0
  -20.9660   -5.9660   24.9430 C   0  0  0  0  0  3  0  0  0  0  0  0
  -21.3240   -4.6060   24.9140 C   0  0  0  0  0  0  0  0  0  0  0  0
  -21.8350   -4.0360   23.7340 C   0  0  0  0  0  3  0  0  0  0  0  0
  -21.9860   -4.8280   22.5820 C   0  0  0  0  0  0  0  0  0  0  0  0
  -22.4600   -4.2700   21.4420 F   0  0  0  0  0  0  0  0  0  0  0  0
  -21.1740   -3.8400   26.0210 F   0  0  0  0  0  0  0  0  0  0  0  0
  -22.7860  -13.5480   21.2150 C   0  0  0  0  0  0  0  0  0  0  0  0
  -22.0750  -12.8400   22.0850 N   0  0  0  0  0  0  0  0  0  0  0  0
  -22.3370  -14.5770   20.7100 O   0  0  0  0  0  0  0  0  0  0  0  0
  -22.4520  -12.0080   22.5130 H   0  0  0  0  0  0  0  0  0  0  0  0
  -21.1390  -13.1340   22.3270 H   0  0  0  0  0  0  0  0  0  0  0  0
  -25.3700  -15.2400   20.3990 N   0  0  0  0  0  0  0  0  0  0  0  0
  -24.5900  -15.8770   20.5150 H   0  0  0  0  0  0  0  0  0  0  0  0
  -26.2020  -15.6870   20.0370 H   0  0  0  0  0  0  0  0  0  0  0  0
  -28.2710  -19.2760   17.6500 C   0  0  0  0  0  1  0  0  0  0  0  0
  -27.1490  -17.5750   19.0980 C   0  0  0  0  0  1  0  0  0  0  0  0
  -27.9890  -18.8580   19.1110 C   0  0  0  0  0  3  0  0  0  0  0  0
  -27.9230  -24.4260   20.1440 C   0  0  0  0  0  2  0  0  0  0  0  0
  -28.2280  -26.0050   20.3360 O   0  0  0  0  0  0  0  0  0  0  0  0
  -24.6520  -31.9080   23.2660 C   0  0  0  0  0  0  0  0  0  0  0  0
  -27.2100  -27.0720   20.2660 C   0  0  0  0  0  0  0  0  0  0  0  0
  -23.4590  -30.5210   21.6180 C   0  0  0  0  0  3  0  0  0  0  0  0
  -24.9090  -28.9160   20.2080 C   0  0  0  0  0  0  0  0  0  0  0  0
  -26.0240  -30.7350   21.4870 C   0  0  0  0  0  2  0  0  0  0  0  0
  -26.0920  -29.3300   20.8320 C   0  0  0  0  0  0  0  0  0  0  0  0
  -27.2400  -28.4270   20.8390 C   0  0  0  0  0  3  0  0  0  0  0  0
  -25.9960  -26.7930   19.5990 C   0  0  0  0  0  3  0  0  0  0  0  0
  -24.8810  -27.6640   19.5740 C   0  0  0  0  0  3  0  0  0  0  0  0
  -23.6920  -29.8340   20.2440 C   0  0  0  0  0  2  0  0  0  0  0  0
  -24.7320  -31.0810   22.1760 N   0  0  0  0  0  0  0  0  0  0  0  0
  -23.5620  -32.2050   23.7790 O   0  0  0  0  0  0  0  0  0  0  0  0
  -22.7520  -29.5290   22.5780 C   0  0  0  0  0  0  0  0  0  0  0  0
  -21.4230  -29.3710   22.4390 N   0  0  0  0  0  0  0  0  0  0  0  0
  -23.4070  -28.9010   23.4140 O   0  0  0  0  0  0  0  0  0  0  0  0
  -20.9490  -29.9300   21.7450 H   0  0  0  0  0  0  0  0  0  0  0  0
  -18.0260  -28.2010   22.9290 C   0  0  0  0  0  0  0  0  0  0  0  0
  -20.5870  -28.4400   23.2040 C   0  0  0  0  0  3  0  0  0  0  0  0
  -20.6750  -27.0080   22.6280 C   0  0  0  0  0  2  0  0  0  0  0  0
  -19.5750  -26.6990   21.6070 C   0  0  0  0  0  2  0  0  0  0  0  0
  -18.1920  -26.8540   22.2460 C   0  0  0  0  0  2  0  0  0  0  0  0
  -19.1500  -28.9540   23.3640 C   0  0  0  0  0  0  0  0  0  0  0  0
  -18.9380  -30.2140   23.9640 C   0  0  0  0  0  3  0  0  0  0  0  0
  -17.6360  -30.7220   24.1310 C   0  0  0  0  0  3  0  0  0  0  0  0
  -16.5270  -29.9680   23.7100 C   0  0  0  0  0  3  0  0  0  0  0  0
  -16.7240  -28.7100   23.1150 C   0  0  0  0  0  3  0  0  0  0  0  0
  -25.9240  -32.5390   23.9090 C   0  0  0  0  0  3  0  0  0  0  0  0
  -25.6170  -33.9420   24.2350 N   0  0  0  0  0  0  0  0  0  0  0  0
  -25.9310  -34.9950   23.4660 C   0  0  0  0  0  0  0  0  0  0  0  0
  -26.5720  -34.8860   22.4180 O   0  0  0  0  0  0  0  0  0  0  0  0
  -25.0470  -34.1000   25.0520 H   0  0  0  0  0  0  0  0  0  0  0  0
  -24.1810  -36.7820   23.1790 C   0  0  0  0  0  1  0  0  0  0  0  0
  -25.4610  -36.3870   23.9330 C   0  0  0  0  0  3  0  0  0  0  0  0
  -27.6250  -37.3000   24.6560 C   0  0  0  0  0  1  0  0  0  0  0  0
  -26.4820  -37.4430   23.7570 N   0  0  0  0  0  0  0  0  0  0  0  0
  -26.0770  -38.3630   23.9050 H   0  0  0  0  0  0  0  0  0  0  0  0
  -26.4110  -31.7720   25.2010 C   0  0  1  0  0  0  0  0  0  0  0  0
  -25.2970  -31.5530   26.2510 C   0  0  0  0  0  1  0  0  0  0  0  0
  -26.9900  -30.3860   24.8380 C   0  0  0  0  0  1  0  0  0  0  0  0
  -27.5570  -32.5620   25.8770 C   0  0  0  0  0  1  0  0  0  0  0  0
  1  2  2  0
  3  1  1  0
  4  5  2  0
  5  2  1  0
  6  3  2  0
  6  4  1  0
  8 13  1  0
  9 10  1  0
  9  8  1  0
 11 10  1  0
 11 22  1  0
 11 12  1  0
 13  7  1  0
 13 12  1  0
 14  7  2  0
 15 18  1  0
 16 17  1  0
 16 18  1  0
 16 15  1  0
 17 49  1  6
 17  3  1  0
 17 15  1  0
 18  7  1  0
 19 20  2  0
 20 39  1  0
 21 20  1  0
 21 24  1  0
 22 23  1  0
 22 19  1  0
 23 21  2  0
 24 25  1  0
 25 26  2  0
 27 30  1  0
 27 26  1  0
 28 27  2  0
 29 28  1  0
 29 24  2  0
 30 31  1  0
 31 32  1  0
 32 33  2  0
 34 33  1  0
 34 38  1  0
 35 34  2  0
 36 31  2  0
 36 35  1  0
 37 36  1  0
 39 40  1  0
 40 43  1  0
 40 42  1  0
 41 39  2  0
 44 45  1  0
 44 19  1  0
 46 44  1  0
 47 49  1  0
 48 49  1  0
 50  4  1  0
 50 51  1  0
 52 63  2  0
 53 51  1  0
 53 58  1  0
 54 62  1  0
 54 64  1  0
 55 61  1  0
 55 57  1  0
 56 62  1  0
 57 58  2  0
 57 56  1  0
 59 53  2  0
 60 59  1  0
 60 55  2  0
 61 54  1  0
 62 52  1  0
 64 66  2  0
 65 64  1  0
 67 65  1  0
 68 77  2  0
 68 73  1  0
 69 65  1  0
 69 73  1  0
 70 69  1  0
 71 72  1  0
 71 70  1  0
 72 68  1  0
 73 74  2  0
 74 75  1  0
 76 75  2  0
 77 76  1  0
 78 52  1  0
 78 79  1  0
 78 88  1  0
 79 82  1  0
 80 84  1  0
 80 79  1  0
 81 80  2  0
 84 83  1  0
 86 87  1  0
 86 84  1  0
 86 85  1  0
 88 91  1  1
 88 89  1  0
 90 88  1  0
M  ISO  4   7 100  18 100  50 101  51 101
M  END
>  <TORSDO>  (47) 
F 18

>  <SCORE>  (47) 
-16.033

>  <name>  (47) 
47

>  <ligand_id>  (47) 
47

>  <original_smiles>  (47) 
[H]c1nc(C([H])([H])Oc2c([H])c([H])c3c(c2[H])C([H])([H])N(C(=O)C([H])(N([H])C(=O)C([H])(N([H])C([H])([H])[H])C([H])([H])[H])C(C([H])([H])[H])(C([H])([H])[H])C([H])([H])[H])C([H])(C(=O)N([H])C2([H])c4c([H])c([H])c([H])c([H])c4C([H])([H])C([H])([H])C2([H])[H])C3([H])[H])nc(C2(C([H])(C([H])([H])[H])C([H])([H])[H])C([H])([H])N(C(=O)N3C([H])([H])C([H])([H])C([H])([H])C([H])(n4nc(-c5c([H])c([H])c(Oc6c([H])c([H])c(F)c([H])c6F)c([H])c5[H])c(C(=O)N([H])[H])c4N([H])[H])C3([H])[H])C2([H])[H])c1[H]

>  <smiles>  (47) 
[H]c1nc(C([H])([H])Oc2c([H])c([H])c3c(c2[H])C([H])([H])N(C(=O)C([H])(N([H])C(=O)C([H])(N([H])C([H])([H])[H])C([H])([H])[H])C(C([H])([H])[H])(C([H])([H])[H])C([H])([H])[H])C([H])(C(=O)N([H])C2([H])c4c([H])c([H])c([H])c([H])c4C([H])([H])C([H])([H])C2([H])[H])C3([H])[H])nc(C2(C([H])(C([H])([H])[H])C([H])([H])[H])C([H])([H])N(C(=O)N3C([H])([H])C([H])([H])C([H])([H])C([H])(n4nc(-c5c([H])c([H])c(Oc6c([H])c([H])c(F)c([H])c6F)c([H])c5[H])c(C(=O)N([H])[H])c4N([H])[H])C3([H])[H])C2([H])[H])c1[H]

$$$$
48:0:0
     RDKit          3D

 92101  0  0  1  0  0  0  0  0999 V2000
  -28.1160  -22.3070   18.2920 C   0  0  0  0  0  0  0  0  0  0  0  0
  -28.8260  -23.5700   20.0000 C   0  0  0  0  0  0  0  0  0  0  0  0
  -29.3430  -21.2910   19.8510 C   0  0  0  0  0  0  0  0  0  0  0  0
  -27.3330  -22.2030   17.0000 C   0  0  0  0  0  1  0  0  0  0  0  0
  -28.1560  -23.5140   18.8540 N   0  0  0  0  0  4  0  0  0  0  0  0
  -28.6640  -21.1730   18.7270 N   0  0  0  0  0  0  0  0  0  0  0  0
  -29.4600  -22.4660   20.5380 N   0  0  0  0  0  2  0  0  0  0  0  0
  -29.9900  -20.0770   20.2970 N   0  0  0  0  0  0  0  0  0  0  0  0
  -30.5540  -20.2230   21.1250 H   0  0  0  0  0  0  0  0  0  0  0  0
  -30.9840  -14.8470   19.9630 C   0  0  0  0  0  0  0  0  0  0  0  0
  -30.7040  -12.5540   18.9510 C   0  0  0  0  0  2  0  0  0  0  0  0
  -29.7030  -12.5830   17.7730 C   0  0  0  0  0  2  0  0  0  0  0  0
  -28.2570  -12.4030   18.2780 C   0  0  0  0  0  2  0  0  0  0  0  0
  -27.9450  -13.2990   19.5050 C   0  0  0  0  0  3  0  0  0  0  0  0
  -29.0650  -13.2140   20.5660 C   0  0  0  0  0  2  0  0  0  0  0  0
  -30.3120  -13.6290   19.9060 N   0  0  0  0  0  0  0  0  0  0  0  0
  -32.1480  -14.8680   19.5460 O   0  0  0  0  0  0  0  0  0  0  0  0
  -28.9600  -17.9020   21.1750 C   0  0  0  0  0  2  0  0  0  0  0  0
  -29.1440  -16.3640   21.0030 C   0  0  0  0  0  2  0  0  0  0  0  0
  -30.8110  -17.4840   19.7890 C   0  0  0  0  0  2  0  0  0  0  0  0
  -29.6710  -18.6000   20.0110 C   0  0  0  0  0  3  0  0  0  0  0  0
  -30.3250  -16.0850   20.1720 N   0  0  0  0  0  0  0  0  0  0  0  0
  -25.6180  -13.9150   20.3920 C   0  0  0  0  0  0  0  0  0  0  0  0
  -24.5620  -13.1520   20.8060 C   0  0  0  0  0  0  0  0  0  0  0  0
  -24.9930  -11.7940   20.7050 C   0  0  0  0  0  0  0  0  0  0  0  0
  -26.6280  -13.0230   20.0680 N   0  0  0  0  0  0  0  0  0  0  0  0
  -26.2630  -11.7400   20.3180 N   0  0  0  0  0  0  0  0  0  0  0  0
  -24.2500  -10.5430   20.8950 C   0  0  0  0  0  0  0  0  0  0  0  0
  -24.6550   -9.5810   21.8470 C   0  0  0  0  0  3  0  0  0  0  0  0
  -23.9110   -8.3940   22.0240 C   0  0  0  0  0  3  0  0  0  0  0  0
  -22.7490   -8.1630   21.2510 C   0  0  0  0  0  0  0  0  0  0  0  0
  -22.3630   -9.1140   20.2890 C   0  0  0  0  0  3  0  0  0  0  0  0
  -23.1090  -10.2910   20.1090 C   0  0  0  0  0  3  0  0  0  0  0  0
  -21.9780   -7.0280   21.3370 O   0  0  0  0  0  0  0  0  0  0  0  0
  -21.8130   -6.3600   22.5240 C   0  0  0  0  0  0  0  0  0  0  0  0
  -21.2410   -6.9820   23.6550 C   0  0  0  0  0  3  0  0  0  0  0  0
  -21.0250   -6.2380   24.8330 C   0  0  0  0  0  3  0  0  0  0  0  0
  -21.3710   -4.8740   24.8790 C   0  0  0  0  0  0  0  0  0  0  0  0
  -21.9360   -4.2530   23.7510 C   0  0  0  0  0  3  0  0  0  0  0  0
  -22.1530   -4.9940   22.5760 C   0  0  0  0  0  0  0  0  0  0  0  0
  -22.6780   -4.3850   21.4850 F   0  0  0  0  0  0  0  0  0  0  0  0
  -21.1570   -4.1580   26.0070 F   0  0  0  0  0  0  0  0  0  0  0  0
  -23.1950  -13.6500   21.1730 C   0  0  0  0  0  0  0  0  0  0  0  0
  -22.5020  -12.9450   22.0590 N   0  0  0  0  0  0  0  0  0  0  0  0
  -22.7520  -14.7020   20.7110 O   0  0  0  0  0  0  0  0  0  0  0  0
  -22.8750  -12.0950   22.4570 H   0  0  0  0  0  0  0  0  0  0  0  0
  -21.5870  -13.2610   22.3490 H   0  0  0  0  0  0  0  0  0  0  0  0
  -25.7850  -15.2870   20.2360 N   0  0  0  0  0  0  0  0  0  0  0  0
  -25.0270  -15.9400   20.4060 H   0  0  0  0  0  0  0  0  0  0  0  0
  -26.6000  -15.7230   19.8270 H   0  0  0  0  0  0  0  0  0  0  0  0
  -28.6700  -24.9610   20.8120 C   0  0  0  0  0  2  0  0  0  0  0  0
  -28.7700  -26.3490   20.1980 O   0  0  0  0  0  0  0  0  0  0  0  0
  -24.6630  -31.6580   23.1090 C   0  0  0  0  0  0  0  0  0  0  0  0
  -27.6330  -27.1980   20.1670 C   0  0  0  0  0  0  0  0  0  0  0  0
  -23.6120  -30.2210   21.4010 C   0  0  0  0  0  3  0  0  0  0  0  0
  -25.2050  -28.7430   20.0390 C   0  0  0  0  0  0  0  0  0  0  0  0
  -26.1440  -30.6470   21.3470 C   0  0  0  0  0  2  0  0  0  0  0  0
  -26.3250  -29.2730   20.6970 C   0  0  0  0  0  0  0  0  0  0  0  0
  -27.5440  -28.5160   20.7410 C   0  0  0  0  0  3  0  0  0  0  0  0
  -26.4890  -26.7360   19.4860 C   0  0  0  0  0  3  0  0  0  0  0  0
  -25.2950  -27.4860   19.4210 C   0  0  0  0  0  3  0  0  0  0  0  0
  -23.9290  -29.5650   20.0290 C   0  0  0  0  0  2  0  0  0  0  0  0
  -24.8230  -30.8620   22.0090 N   0  0  0  0  0  0  0  0  0  0  0  0
  -23.5430  -31.8780   23.5920 O   0  0  0  0  0  0  0  0  0  0  0  0
  -22.9490  -29.1680   22.3210 C   0  0  0  0  0  0  0  0  0  0  0  0
  -21.6250  -28.9780   22.1750 N   0  0  0  0  0  0  0  0  0  0  0  0
  -23.6250  -28.5240   23.1270 O   0  0  0  0  0  0  0  0  0  0  0  0
  -21.1370  -29.5500   21.5000 H   0  0  0  0  0  0  0  0  0  0  0  0
  -18.2490  -27.7660   22.6590 C   0  0  0  0  0  0  0  0  0  0  0  0
  -20.8130  -28.0040   22.9060 C   0  0  0  0  0  3  0  0  0  0  0  0
  -20.9000  -26.6040   22.2530 C   0  0  0  0  0  2  0  0  0  0  0  0
  -19.7840  -26.3410   21.2380 C   0  0  0  0  0  2  0  0  0  0  0  0
  -18.4110  -26.4550   21.9080 C   0  0  0  0  0  2  0  0  0  0  0  0
  -19.3760  -28.5010   23.1140 C   0  0  0  0  0  0  0  0  0  0  0  0
  -19.1690  -29.7300   23.7770 C   0  0  0  0  0  3  0  0  0  0  0  0
  -17.8690  -30.2240   23.9880 C   0  0  0  0  0  3  0  0  0  0  0  0
  -16.7560  -29.4850   23.5480 C   0  0  0  0  0  3  0  0  0  0  0  0
  -16.9480  -28.2580   22.8890 C   0  0  0  0  0  3  0  0  0  0  0  0
  -25.8790  -32.3470   23.7990 C   0  0  0  0  0  3  0  0  0  0  0  0
  -25.4820  -33.7240   24.1340 N   0  0  0  0  0  0  0  0  0  0  0  0
  -25.7780  -34.8040   23.3980 C   0  0  0  0  0  0  0  0  0  0  0  0
  -26.4840  -34.7500   22.3870 O   0  0  0  0  0  0  0  0  0  0  0  0
  -24.8560  -33.8350   24.9180 H   0  0  0  0  0  0  0  0  0  0  0  0
  -23.9600  -36.5020   23.0200 C   0  0  0  0  0  1  0  0  0  0  0  0
  -25.2030  -36.1590   23.8560 C   0  0  0  0  0  3  0  0  0  0  0  0
  -27.2580  -37.1610   24.7530 C   0  0  0  0  0  1  0  0  0  0  0  0
  -26.1770  -37.2690   23.7760 N   0  0  0  0  0  0  0  0  0  0  0  0
  -25.7140  -38.1640   23.9130 H   0  0  0  0  0  0  0  0  0  0  0  0
  -26.3730  -31.5860   25.0910 C   0  0  1  0  0  0  0  0  0  0  0  0
  -25.2440  -31.2800   26.1020 C   0  0  0  0  0  1  0  0  0  0  0  0
  -27.0430  -30.2440   24.7150 C   0  0  0  0  0  1  0  0  0  0  0  0
  -27.4490  -32.4270   25.8180 C   0  0  0  0  0  1  0  0  0  0  0  0
  1  6  1  0
  1  5  2  0
  2  7  1  0
  2 51  1  0
  3  8  1  0
  3  7  1  0
  4  1  1  0
  5  2  2  0
  6  3  2  0
  8  9  1  0
 10 22  1  0
 11 16  1  0
 12 13  1  0
 12 11  1  0
 14 13  1  0
 14 26  1  0
 14 15  1  0
 16 10  1  0
 16 15  1  0
 17 10  2  0
 19 18  1  0
 20 21  1  0
 20 22  1  0
 21  8  1  0
 21 18  1  0
 22 19  1  0
 23 24  2  0
 24 43  1  0
 25 24  1  0
 25 28  1  0
 26 27  1  0
 26 23  1  0
 27 25  2  0
 28 29  1  0
 29 30  2  0
 31 34  1  0
 31 30  1  0
 32 31  2  0
 33 32  1  0
 33 28  2  0
 34 35  1  0
 35 40  2  0
 35 36  1  0
 36 37  2  0
 37 38  1  0
 38 42  1  0
 39 38  2  0
 40 39  1  0
 41 40  1  0
 43 44  1  0
 44 47  1  0
 44 46  1  0
 45 43  2  0
 48 23  1  0
 48 49  1  0
 50 48  1  0
 52 51  1  0
 53 64  2  0
 54 52  1  0
 54 59  1  0
 55 63  1  0
 55 65  1  0
 56 58  1  0
 57 63  1  0
 58 59  2  0
 58 57  1  0
 60 54  2  0
 61 60  1  0
 61 56  2  0
 62 56  1  0
 62 55  1  0
 63 53  1  0
 65 67  2  0
 66 65  1  0
 68 66  1  0
 69 78  2  0
 69 74  1  0
 70 66  1  0
 70 74  1  0
 71 70  1  0
 72 73  1  0
 72 71  1  0
 73 69  1  0
 74 75  2  0
 75 76  1  0
 77 76  2  0
 78 77  1  0
 79 53  1  0
 79 80  1  0
 79 89  1  0
 80 83  1  0
 81 85  1  0
 81 80  1  0
 82 81  2  0
 85 84  1  0
 87 85  1  0
 87 88  1  0
 87 86  1  0
 89 92  1  1
 89 90  1  0
 91 89  1  0
M  ISO  4  10 100  22 100  51 101  52 101
M  END
>  <TORSDO>  (48) 
F 17

>  <SCORE>  (48) 
-13.416

>  <name>  (48) 
48

>  <ligand_id>  (48) 
48

>  <original_smiles>  (48) 
[H]c1c([H])c([H])c2c(c1[H])C([H])([H])C([H])([H])C([H])([H])C2([H])N([H])C(=O)C1([H])N(C(=O)C([H])(N([H])C(=O)C([H])(N([H])C([H])([H])[H])C([H])([H])[H])C(C([H])([H])[H])(C([H])([H])[H])C([H])([H])[H])C([H])([H])c2c([H])c(OC([H])([H])c3nc(N([H])C4([H])C([H])([H])N(C(=O)N5C([H])([H])C([H])([H])C([H])([H])C([H])(n6nc(-c7c([H])c([H])c(Oc8c([H])c([H])c(F)c([H])c8F)c([H])c7[H])c(C(=O)N([H])[H])c6N([H])[H])C5([H])[H])C([H])([H])C4([H])[H])nc(C([H])([H])[H])n3)c([H])c([H])c2C1([H])[H]

>  <smiles>  (48) 
[H]c1c([H])c([H])c2c(c1[H])C([H])([H])C([H])([H])C([H])([H])C2([H])N([H])C(=O)C1([H])N(C(=O)C([H])(N([H])C(=O)C([H])(N([H])C([H])([H])[H])C([H])([H])[H])C(C([H])([H])[H])(C([H])([H])[H])C([H])([H])[H])C([H])([H])c2c([H])c(OC([H])([H])c3nc(N([H])C4([H])C([H])([H])N(C(=O)N5C([H])([H])C([H])([H])C([H])([H])C([H])(n6nc(-c7c([H])c([H])c(Oc8c([H])c([H])c(F)c([H])c8F)c([H])c7[H])c(C(=O)N([H])[H])c6N([H])[H])C5([H])[H])C([H])([H])C4([H])[H])nc(C([H])([H])[H])n3)c([H])c([H])c2C1([H])[H]

$$$$
49:0:0
     RDKit          3D

 89 98  0  0  1  0  0  0  0  0999 V2000
  -29.6980  -21.3070   21.3920 C   0  0  0  0  0  3  0  0  0  0  0  0
  -29.4390  -22.7330   21.4370 C   0  0  0  0  0  3  0  0  0  0  0  0
  -29.0960  -20.4770   20.3960 C   0  0  0  0  0  0  0  0  0  0  0  0
  -28.5800  -23.3760   20.4890 C   0  0  0  0  0  0  0  0  0  0  0  0
  -28.3250  -21.1710   19.4860 N   0  0  0  0  0  0  0  0  0  0  0  0
  -28.0750  -22.5220   19.5310 N   0  0  0  0  0  0  0  0  0  0  0  0
  -29.6150  -18.1990   19.1040 C   0  0  0  0  0  2  0  0  0  0  0  0
  -29.0390  -18.8410   20.3420 C   0  0  0  0  0  3  0  0  0  0  0  0
  -30.0750  -17.5520   20.3840 C   0  0  0  0  0  3  0  0  0  0  0  0
  -30.5220  -14.8990   20.3650 C   0  0  0  0  0  0  0  0  0  0  0  0
  -30.3690  -12.5850   19.3800 C   0  0  0  0  0  2  0  0  0  0  0  0
  -29.4380  -12.6040   18.1450 C   0  0  0  0  0  2  0  0  0  0  0  0
  -27.9690  -12.4120   18.5680 C   0  0  0  0  0  2  0  0  0  0  0  0
  -27.5720  -13.3100   19.7670 C   0  0  0  0  0  3  0  0  0  0  0  0
  -28.6250  -13.2700   20.8960 C   0  0  0  0  0  2  0  0  0  0  0  0
  -29.9110  -13.6560   20.3040 N   0  0  0  0  0  0  0  0  0  0  0  0
  -31.7210  -14.9790   20.0830 O   0  0  0  0  0  0  0  0  0  0  0  0
  -29.7360  -16.0560   20.5100 N   0  0  0  0  0  0  0  0  0  0  0  0
  -28.7660  -15.8610   20.7050 H   0  0  0  0  0  0  0  0  0  0  0  0
  -25.1780  -13.8880   20.4790 C   0  0  0  0  0  0  0  0  0  0  0  0
  -24.1140  -13.1100   20.8450 C   0  0  0  0  0  0  0  0  0  0  0  0
  -24.5850  -11.7610   20.8260 C   0  0  0  0  0  0  0  0  0  0  0  0
  -26.2280  -13.0120   20.2530 N   0  0  0  0  0  0  0  0  0  0  0  0
  -25.8790  -11.7280   20.5280 N   0  0  0  0  0  0  0  0  0  0  0  0
  -23.8610  -10.4960   21.0150 C   0  0  0  0  0  0  0  0  0  0  0  0
  -24.2840   -9.5390   21.9630 C   0  0  0  0  0  3  0  0  0  0  0  0
  -23.5590   -8.3390   22.1420 C   0  0  0  0  0  3  0  0  0  0  0  0
  -22.3980   -8.0910   21.3720 C   0  0  0  0  0  0  0  0  0  0  0  0
  -21.9950   -9.0380   20.4130 C   0  0  0  0  0  3  0  0  0  0  0  0
  -22.7200  -10.2270   20.2330 C   0  0  0  0  0  3  0  0  0  0  0  0
  -21.6460   -6.9440   21.4580 O   0  0  0  0  0  0  0  0  0  0  0  0
  -21.5790   -6.2130   22.6170 C   0  0  0  0  0  0  0  0  0  0  0  0
  -21.1160   -6.7750   23.8260 C   0  0  0  0  0  3  0  0  0  0  0  0
  -20.9960   -5.9690   24.9780 C   0  0  0  0  0  3  0  0  0  0  0  0
  -21.3320   -4.6040   24.9190 C   0  0  0  0  0  0  0  0  0  0  0  0
  -21.7890   -4.0420   23.7150 C   0  0  0  0  0  3  0  0  0  0  0  0
  -21.9090   -4.8440   22.5660 C   0  0  0  0  0  0  0  0  0  0  0  0
  -22.3310   -4.2920   21.4020 F   0  0  0  0  0  0  0  0  0  0  0  0
  -21.2110   -3.8280   26.0220 F   0  0  0  0  0  0  0  0  0  0  0  0
  -22.7130  -13.5820   21.0990 C   0  0  0  0  0  0  0  0  0  0  0  0
  -21.9780  -12.8860   21.9590 N   0  0  0  0  0  0  0  0  0  0  0  0
  -22.2770  -14.6050   20.5700 O   0  0  0  0  0  0  0  0  0  0  0  0
  -22.3410  -12.0590   22.4070 H   0  0  0  0  0  0  0  0  0  0  0  0
  -21.0360  -13.1860   22.1720 H   0  0  0  0  0  0  0  0  0  0  0  0
  -25.3350  -15.2570   20.2930 N   0  0  0  0  0  0  0  0  0  0  0  0
  -24.5560  -15.9010   20.3840 H   0  0  0  0  0  0  0  0  0  0  0  0
  -26.1670  -15.6970   19.9200 H   0  0  0  0  0  0  0  0  0  0  0  0
  -27.8460  -24.8210   20.7470 C   0  0  0  0  0  2  0  0  0  0  0  0
  -28.2430  -26.2400   20.2940 O   0  0  0  0  0  0  0  0  0  0  0  0
  -24.6130  -31.9120   23.2540 C   0  0  0  0  0  0  0  0  0  0  0  0
  -27.2010  -27.2260   20.2440 C   0  0  0  0  0  0  0  0  0  0  0  0
  -23.4160  -30.5100   21.6180 C   0  0  0  0  0  3  0  0  0  0  0  0
  -24.8690  -28.9420   20.2000 C   0  0  0  0  0  0  0  0  0  0  0  0
  -25.9670  -30.7880   21.4560 C   0  0  0  0  0  2  0  0  0  0  0  0
  -26.0450  -29.3970   20.8110 C   0  0  0  0  0  0  0  0  0  0  0  0
  -27.2160  -28.5530   20.8200 C   0  0  0  0  0  3  0  0  0  0  0  0
  -26.0080  -26.8760   19.5740 C   0  0  0  0  0  3  0  0  0  0  0  0
  -24.8610  -27.6930   19.5650 C   0  0  0  0  0  3  0  0  0  0  0  0
  -23.6380  -29.8300   20.2410 C   0  0  0  0  0  2  0  0  0  0  0  0
  -24.6840  -31.0900   22.1640 N   0  0  0  0  0  0  0  0  0  0  0  0
  -23.5260  -32.1960   23.7810 O   0  0  0  0  0  0  0  0  0  0  0  0
  -22.7400  -29.5020   22.5800 C   0  0  0  0  0  0  0  0  0  0  0  0
  -21.4130  -29.3260   22.4480 N   0  0  0  0  0  0  0  0  0  0  0  0
  -23.4110  -28.8810   23.4090 O   0  0  0  0  0  0  0  0  0  0  0  0
  -20.9290  -29.8760   21.7540 H   0  0  0  0  0  0  0  0  0  0  0  0
  -18.0320  -28.1270   22.9450 C   0  0  0  0  0  0  0  0  0  0  0  0
  -20.5890  -28.3930   23.2220 C   0  0  0  0  0  3  0  0  0  0  0  0
  -20.6950  -26.9570   22.6540 C   0  0  0  0  0  2  0  0  0  0  0  0
  -19.5970  -26.6270   21.6380 C   0  0  0  0  0  2  0  0  0  0  0  0
  -18.2120  -26.7740   22.2760 C   0  0  0  0  0  2  0  0  0  0  0  0
  -19.1480  -28.8930   23.3740 C   0  0  0  0  0  0  0  0  0  0  0  0
  -18.9240  -30.1570   23.9610 C   0  0  0  0  0  3  0  0  0  0  0  0
  -17.6180  -30.6560   24.1220 C   0  0  0  0  0  3  0  0  0  0  0  0
  -16.5160  -29.8870   23.7080 C   0  0  0  0  0  3  0  0  0  0  0  0
  -16.7230  -28.6250   23.1250 C   0  0  0  0  0  3  0  0  0  0  0  0
  -25.8900  -32.5490   23.8800 C   0  0  0  0  0  3  0  0  0  0  0  0
  -25.5800  -33.9500   24.2010 N   0  0  0  0  0  0  0  0  0  0  0  0
  -25.9140  -35.0010   23.4390 C   0  0  0  0  0  0  0  0  0  0  0  0
  -26.5840  -34.8920   22.4090 O   0  0  0  0  0  0  0  0  0  0  0  0
  -24.9830  -34.1090   24.9990 H   0  0  0  0  0  0  0  0  0  0  0  0
  -24.1920  -36.8010   23.0740 C   0  0  0  0  0  1  0  0  0  0  0  0
  -25.4290  -36.3920   23.8910 C   0  0  0  0  0  3  0  0  0  0  0  0
  -27.5600  -37.2760   24.7300 C   0  0  0  0  0  1  0  0  0  0  0  0
  -26.4660  -37.4420   23.7790 N   0  0  0  0  0  0  0  0  0  0  0  0
  -26.0600  -38.3640   23.9190 H   0  0  0  0  0  0  0  0  0  0  0  0
  -26.3950  -31.7880   25.1680 C   0  0  1  0  0  0  0  0  0  0  0  0
  -25.2940  -31.5630   26.2290 C   0  0  0  0  0  1  0  0  0  0  0  0
  -26.9790  -30.4060   24.7960 C   0  0  0  0  0  1  0  0  0  0  0  0
  -27.5420  -32.5880   25.8320 C   0  0  0  0  0  1  0  0  0  0  0  0
  1  2  1  0
  3  1  2  0
  4 48  1  0
  4  2  2  0
  5  6  2  0
  5  3  1  0
  6  4  1  0
  7  8  1  0
  7  9  1  0
  8  9  1  0
  8  3  1  0
  9 18  1  0
 10 18  1  0
 11 16  1  0
 12 13  1  0
 12 11  1  0
 14 13  1  0
 14 23  1  0
 14 15  1  0
 16 10  1  0
 16 15  1  0
 17 10  2  0
 18 19  1  0
 20 21  2  0
 21 40  1  0
 22 21  1  0
 22 25  1  0
 23 20  1  0
 23 24  1  0
 24 22  2  0
 25 26  1  0
 26 27  2  0
 28 31  1  0
 28 27  1  0
 29 28  2  0
 30 29  1  0
 30 25  2  0
 31 32  1  0
 32 33  1  0
 33 34  2  0
 35 34  1  0
 35 39  1  0
 36 35  2  0
 37 32  2  0
 37 36  1  0
 38 37  1  0
 40 41  1  0
 41 44  1  0
 41 43  1  0
 42 40  2  0
 45 46  1  0
 45 20  1  0
 47 45  1  0
 49 48  1  0
 50 61  2  0
 51 49  1  0
 51 56  1  0
 52 60  1  0
 52 62  1  0
 53 59  1  0
 53 55  1  0
 54 60  1  0
 55 56  2  0
 55 54  1  0
 57 51  2  0
 58 57  1  0
 58 53  2  0
 59 52  1  0
 60 50  1  0
 62 64  2  0
 63 62  1  0
 65 63  1  0
 66 75  2  0
 66 71  1  0
 67 63  1  0
 67 71  1  0
 68 67  1  0
 69 70  1  0
 69 68  1  0
 70 66  1  0
 71 72  2  0
 72 73  1  0
 74 73  2  0
 75 74  1  0
 76 50  1  0
 76 77  1  0
 76 86  1  0
 77 80  1  0
 78 82  1  0
 78 77  1  0
 79 78  2  0
 82 81  1  0
 84 82  1  0
 84 85  1  0
 84 83  1  0
 86 89  1  1
 86 87  1  0
 88 86  1  0
M  ISO  4  10 100  18 100  48 101  49 101
M  END
>  <TORSDO>  (49) 
F 18

>  <SCORE>  (49) 
-14.679

>  <name>  (49) 
49

>  <ligand_id>  (49) 
49

>  <original_smiles>  (49) 
[H]c1c(C([H])([H])Oc2c([H])c([H])c3c(c2[H])C([H])([H])N(C(=O)C([H])(N([H])C(=O)C([H])(N([H])C([H])([H])[H])C([H])([H])[H])C(C([H])([H])[H])(C([H])([H])[H])C([H])([H])[H])C([H])(C(=O)N([H])C2([H])c4c([H])c([H])c([H])c([H])c4C([H])([H])C([H])([H])C2([H])[H])C3([H])[H])nnc(C2([H])C([H])([H])C2([H])N([H])C(=O)N2C([H])([H])C([H])([H])C([H])([H])C([H])(n3nc(-c4c([H])c([H])c(Oc5c([H])c([H])c(F)c([H])c5F)c([H])c4[H])c(C(=O)N([H])[H])c3N([H])[H])C2([H])[H])c1[H]

>  <smiles>  (49) 
[H]c1c(C([H])([H])Oc2c([H])c([H])c3c(c2[H])C([H])([H])N(C(=O)C([H])(N([H])C(=O)C([H])(N([H])C([H])([H])[H])C([H])([H])[H])C(C([H])([H])[H])(C([H])([H])[H])C([H])([H])[H])C([H])(C(=O)N([H])C2([H])c4c([H])c([H])c([H])c([H])c4C([H])([H])C([H])([H])C2([H])[H])C3([H])[H])nnc(C2([H])C([H])([H])C2([H])N([H])C(=O)N2C([H])([H])C([H])([H])C([H])([H])C([H])(n3nc(-c4c([H])c([H])c(Oc5c([H])c([H])c(F)c([H])c5F)c([H])c4[H])c(C(=O)N([H])[H])c3N([H])[H])C2([H])[H])c1[H]

$$$$
50:0:0
     RDKit          3D

 93102  0  0  1  0  0  0  0  0999 V2000
  -29.9340  -22.5400   19.2670 C   0  0  0  0  0  3  0  0  0  0  0  0
  -29.9540  -21.5400   20.2830 C   0  0  0  0  0  0  0  0  0  0  0  0
  -28.8740  -23.0580   21.6820 C   0  0  0  0  0  0  0  0  0  0  0  0
  -28.8900  -24.0750   20.6750 C   0  0  0  0  0  0  0  0  0  0  0  0
  -28.2790  -23.3210   23.0530 C   0  0  0  0  0  1  0  0  0  0  0  0
  -29.4080  -23.7900   19.4510 N   0  0  0  0  0  0  0  0  0  0  0  0
  -29.4010  -21.8100   21.4940 N   0  0  0  0  0  0  0  0  0  0  0  0
  -30.7700  -20.2230   20.1100 C   0  0  0  0  0  2  0  0  0  0  0  0
  -30.7970  -14.7000   20.1850 C   0  0  0  0  0  0  0  0  0  0  0  0
  -30.5000  -12.4980   19.0810 C   0  0  0  0  0  2  0  0  0  0  0  0
  -29.5150  -12.6570   17.9020 C   0  0  0  0  0  2  0  0  0  0  0  0
  -28.0580  -12.5010   18.3800 C   0  0  0  0  0  2  0  0  0  0  0  0
  -27.7460  -13.3430   19.6460 C   0  0  0  0  0  3  0  0  0  0  0  0
  -28.8440  -13.1780   20.7200 C   0  0  0  0  0  2  0  0  0  0  0  0
  -30.1330  -13.5070   20.0930 N   0  0  0  0  0  0  0  0  0  0  0  0
  -31.9600  -14.8280   19.7970 O   0  0  0  0  0  0  0  0  0  0  0  0
  -30.1570  -16.6390   21.6550 C   0  0  0  0  0  2  0  0  0  0  0  0
  -29.4590  -16.6090   19.3190 C   0  0  0  0  0  2  0  0  0  0  0  0
  -30.7410  -18.0850   21.4510 C   0  0  0  0  0  2  0  0  0  0  0  0
  -30.0820  -18.0250   19.1150 C   0  0  0  0  0  2  0  0  0  0  0  0
  -30.0350  -15.8170   20.4310 N   0  0  0  0  0  0  0  0  0  0  0  0
  -30.1140  -18.8740   20.3450 N   0  0  2  0  0  4  0  0  0  0  0  0
  -29.1600  -19.0770   20.6100 H   0  0  0  0  0  0  0  0  0  0  0  0
  -25.3800  -13.9400   20.4480 C   0  0  0  0  0  0  0  0  0  0  0  0
  -24.3240  -13.1640   20.8460 C   0  0  0  0  0  0  0  0  0  0  0  0
  -24.7830  -11.8120   20.7870 C   0  0  0  0  0  0  0  0  0  0  0  0
  -26.4130  -13.0600   20.1720 N   0  0  0  0  0  0  0  0  0  0  0  0
  -26.0620  -11.7750   20.4360 N   0  0  0  0  0  0  0  0  0  0  0  0
  -24.0610  -10.5490   20.9880 C   0  0  0  0  0  0  0  0  0  0  0  0
  -24.5000   -9.5900   21.9260 C   0  0  0  0  0  3  0  0  0  0  0  0
  -23.7790   -8.3900   22.1150 C   0  0  0  0  0  3  0  0  0  0  0  0
  -22.6060   -8.1430   21.3650 C   0  0  0  0  0  0  0  0  0  0  0  0
  -22.1860   -9.0900   20.4150 C   0  0  0  0  0  3  0  0  0  0  0  0
  -22.9080  -10.2800   20.2250 C   0  0  0  0  0  3  0  0  0  0  0  0
  -21.8540   -6.9960   21.4640 O   0  0  0  0  0  0  0  0  0  0  0  0
  -21.7830   -6.2790   22.6320 C   0  0  0  0  0  0  0  0  0  0  0  0
  -21.3020   -6.8530   23.8290 C   0  0  0  0  0  3  0  0  0  0  0  0
  -21.1830   -6.0620   24.9890 C   0  0  0  0  0  3  0  0  0  0  0  0
  -21.5300   -4.6980   24.9520 C   0  0  0  0  0  0  0  0  0  0  0  0
  -22.0000   -4.1240   23.7580 C   0  0  0  0  0  3  0  0  0  0  0  0
  -22.1240   -4.9120   22.6010 C   0  0  0  0  0  0  0  0  0  0  0  0
  -22.5590   -4.3480   21.4490 F   0  0  0  0  0  0  0  0  0  0  0  0
  -21.4070   -3.9380   26.0630 F   0  0  0  0  0  0  0  0  0  0  0  0
  -22.9370  -13.6410   21.1640 C   0  0  0  0  0  0  0  0  0  0  0  0
  -22.2320  -12.9360   22.0410 N   0  0  0  0  0  0  0  0  0  0  0  0
  -22.4870  -14.6710   20.6670 O   0  0  0  0  0  0  0  0  0  0  0  0
  -22.6090  -12.1010   22.4650 H   0  0  0  0  0  0  0  0  0  0  0  0
  -21.3000  -13.2360   22.2940 H   0  0  0  0  0  0  0  0  0  0  0  0
  -25.5430  -15.3100   20.2800 N   0  0  0  0  0  0  0  0  0  0  0  0
  -24.7860  -15.9710   20.4240 H   0  0  0  0  0  0  0  0  0  0  0  0
  -26.3930  -15.7440   19.9470 H   0  0  0  0  0  0  0  0  0  0  0  0
  -28.2830  -25.4820   20.9700 C   0  0  0  0  0  2  0  0  0  0  0  0
  -28.4870  -26.6010   20.0540 O   0  0  0  0  0  0  0  0  0  0  0  0
  -24.6640  -31.8280   23.1600 C   0  0  0  0  0  0  0  0  0  0  0  0
  -27.3860  -27.4440   20.0140 C   0  0  0  0  0  0  0  0  0  0  0  0
  -23.4980  -30.4430   21.4770 C   0  0  0  0  0  3  0  0  0  0  0  0
  -24.9910  -28.9630   20.0260 C   0  0  0  0  0  0  0  0  0  0  0  0
  -26.0260  -30.8340   21.3150 C   0  0  0  0  0  2  0  0  0  0  0  0
  -26.1410  -29.4750   20.6420 C   0  0  0  0  0  0  0  0  0  0  0  0
  -27.3500  -28.7240   20.6320 C   0  0  0  0  0  3  0  0  0  0  0  0
  -26.2230  -26.9740   19.3730 C   0  0  0  0  0  3  0  0  0  0  0  0
  -25.0300  -27.7170   19.3840 C   0  0  0  0  0  3  0  0  0  0  0  0
  -23.7320  -29.8020   20.0830 C   0  0  0  0  0  2  0  0  0  0  0  0
  -24.7470  -31.0490   22.0430 N   0  0  0  0  0  0  0  0  0  0  0  0
  -23.5720  -32.0720   23.6920 O   0  0  0  0  0  0  0  0  0  0  0  0
  -22.8500  -29.3920   22.4090 C   0  0  0  0  0  0  0  0  0  0  0  0
  -21.5290  -29.1950   22.2700 N   0  0  0  0  0  0  0  0  0  0  0  0
  -23.5360  -28.7570   23.2150 O   0  0  0  0  0  0  0  0  0  0  0  0
  -21.0360  -29.7600   21.5910 H   0  0  0  0  0  0  0  0  0  0  0  0
  -18.1640  -27.9430   22.7110 C   0  0  0  0  0  0  0  0  0  0  0  0
  -20.7180  -28.2290   23.0110 C   0  0  0  0  0  3  0  0  0  0  0  0
  -20.8440  -26.8140   22.4000 C   0  0  0  0  0  2  0  0  0  0  0  0
  -19.7540  -26.5010   21.3690 C   0  0  0  0  0  2  0  0  0  0  0  0
  -18.3650  -26.6140   22.0040 C   0  0  0  0  0  2  0  0  0  0  0  0
  -19.2700  -28.7090   23.1690 C   0  0  0  0  0  0  0  0  0  0  0  0
  -19.0300  -29.9560   23.7880 C   0  0  0  0  0  3  0  0  0  0  0  0
  -17.7180  -30.4370   23.9520 C   0  0  0  0  0  3  0  0  0  0  0  0
  -16.6270  -29.6670   23.5140 C   0  0  0  0  0  3  0  0  0  0  0  0
  -16.8520  -28.4210   22.9000 C   0  0  0  0  0  3  0  0  0  0  0  0
  -25.9320  -32.4680   23.8060 C   0  0  0  0  0  3  0  0  0  0  0  0
  -25.5980  -33.8510   24.1660 N   0  0  0  0  0  0  0  0  0  0  0  0
  -25.9150  -34.9280   23.4320 C   0  0  0  0  0  0  0  0  0  0  0  0
  -26.5900  -34.8600   22.4020 O   0  0  0  0  0  0  0  0  0  0  0  0
  -24.9980  -33.9780   24.9680 H   0  0  0  0  0  0  0  0  0  0  0  0
  -24.1630  -36.7010   23.0990 C   0  0  0  0  0  1  0  0  0  0  0  0
  -25.3980  -36.2950   23.9180 C   0  0  0  0  0  3  0  0  0  0  0  0
  -27.5070  -37.1920   24.8010 C   0  0  0  0  0  1  0  0  0  0  0  0
  -26.4130  -37.3700   23.8510 N   0  0  0  0  0  0  0  0  0  0  0  0
  -25.9880  -38.2750   24.0250 H   0  0  0  0  0  0  0  0  0  0  0  0
  -26.4530  -31.6760   25.0680 C   0  0  1  0  0  0  0  0  0  0  0  0
  -25.3570  -31.3940   26.1220 C   0  0  0  0  0  1  0  0  0  0  0  0
  -27.0620  -30.3170   24.6470 C   0  0  0  0  0  1  0  0  0  0  0  0
  -27.5860  -32.4730   25.7600 C   0  0  0  0  0  1  0  0  0  0  0  0
  1  6  2  0
  1  2  1  0
  2  7  2  0
  3  5  1  0
  4 52  1  0
  4  3  2  0
  6  4  1  0
  7  3  1  0
  8  2  1  0
  8 22  1  0
  9 21  1  0
 10 15  1  0
 11 12  1  0
 11 10  1  0
 13 12  1  0
 13 27  1  0
 13 14  1  0
 15  9  1  0
 15 14  1  0
 16  9  2  0
 18 21  1  0
 19 17  1  0
 20 18  1  0
 20 22  1  0
 21 17  1  0
 22 23  1  1
 22 19  1  0
 24 25  2  0
 25 44  1  0
 26 25  1  0
 26 29  1  0
 27 28  1  0
 27 24  1  0
 28 26  2  0
 29 30  1  0
 30 31  2  0
 32 35  1  0
 32 31  1  0
 33 32  2  0
 34 33  1  0
 34 29  2  0
 35 36  1  0
 36 37  1  0
 37 38  2  0
 39 38  1  0
 39 43  1  0
 40 39  2  0
 41 36  2  0
 41 40  1  0
 42 41  1  0
 44 45  1  0
 45 48  1  0
 45 47  1  0
 46 44  2  0
 49 50  1  0
 49 24  1  0
 51 49  1  0
 53 52  1  0
 54 65  2  0
 55 53  1  0
 55 60  1  0
 56 64  1  0
 56 66  1  0
 57 63  1  0
 57 59  1  0
 58 64  1  0
 59 58  1  0
 60 59  2  0
 61 62  1  0
 61 55  2  0
 62 57  2  0
 63 56  1  0
 64 54  1  0
 66 68  2  0
 67 66  1  0
 69 67  1  0
 70 79  2  0
 70 75  1  0
 71 67  1  0
 71 75  1  0
 72 71  1  0
 73 74  1  0
 73 72  1  0
 74 70  1  0
 75 76  2  0
 76 77  1  0
 78 77  2  0
 79 78  1  0
 80 54  1  0
 80 81  1  0
 80 90  1  0
 81 84  1  0
 82 86  1  0
 82 81  1  0
 83 82  2  0
 86 85  1  0
 88 86  1  0
 88 89  1  0
 88 87  1  0
 90 93  1  1
 90 91  1  0
 92 90  1  0
M  ISO  4   9 100  21 100  52 101  53 101
M  END
>  <TORSDO>  (50) 
F 18

>  <SCORE>  (50) 
-13.900

>  <name>  (50) 
50

>  <ligand_id>  (50) 
50

>  <original_smiles>  (50) 
[H]c1nc(C([H])([H])Oc2c([H])c([H])c3c(c2[H])C([H])([H])N(C(=O)C([H])(N([H])C(=O)C([H])(N([H])C([H])([H])[H])C([H])([H])[H])C(C([H])([H])[H])(C([H])([H])[H])C([H])([H])[H])C([H])(C(=O)N([H])C2([H])c4c([H])c([H])c([H])c([H])c4C([H])([H])C([H])([H])C2([H])[H])C3([H])[H])c(C([H])([H])[H])nc1C([H])([H])[N+]1([H])C([H])([H])C([H])([H])N(C(=O)N2C([H])([H])C([H])([H])C([H])([H])C([H])(n3nc(-c4c([H])c([H])c(Oc5c([H])c([H])c(F)c([H])c5F)c([H])c4[H])c(C(=O)N([H])[H])c3N([H])[H])C2([H])[H])C([H])([H])C1([H])[H]

>  <smiles>  (50) 
[H]c1nc(C([H])([H])Oc2c([H])c([H])c3c(c2[H])C([H])([H])N(C(=O)C([H])(N([H])C(=O)C([H])(N([H])C([H])([H])[H])C([H])([H])[H])C(C([H])([H])[H])(C([H])([H])[H])C([H])([H])[H])C([H])(C(=O)N([H])C2([H])c4c([H])c([H])c([H])c([H])c4C([H])([H])C([H])([H])C2([H])[H])C3([H])[H])c(C([H])([H])[H])nc1C([H])([H])[N+]1([H])C([H])([H])C([H])([H])N(C(=O)N2C([H])([H])C([H])([H])C([H])([H])C([H])(n3nc(-c4c([H])c([H])c(Oc5c([H])c([H])c(F)c([H])c5F)c([H])c4[H])c(C(=O)N([H])[H])c3N([H])[H])C2([H])[H])C([H])([H])C1([H])[H]

$$$$
51:0:0
     RDKit          3D

 93102  0  0  1  0  0  0  0  0999 V2000
  -28.5100  -18.0830   20.6590 C   0  0  0  0  0  3  0  0  0  0  0  0
  -28.8390  -19.2160   19.8900 C   0  0  0  0  0  0  0  0  0  0  0  0
  -29.2120  -16.8320   20.5150 C   0  0  0  0  0  0  0  0  0  0  0  0
  -30.0980  -16.5730   19.3850 C   0  0  0  0  0  0  0  0  0  0  0  0
  -29.8700  -19.0580   18.9980 C   0  0  0  0  0  0  0  0  0  0  0  0
  -28.2800  -20.6800   19.9630 C   0  0  0  0  0  2  0  0  0  0  0  0
  -30.2160  -20.5340   18.5090 C   0  0  0  0  0  2  0  0  0  0  0  0
  -29.3430  -21.6780   19.3390 C   0  0  0  0  0  3  0  0  0  0  0  0
  -30.4410  -17.7890   18.7050 N   0  0  0  0  0  0  0  0  0  0  0  0
  -30.7750  -15.1110   18.9890 C   0  0  0  0  0  0  0  0  0  0  0  0
  -30.5150  -12.7690   17.9750 C   0  0  0  0  0  2  0  0  0  0  0  0
  -29.3260  -12.7070   16.9790 C   0  0  0  0  0  2  0  0  0  0  0  0
  -27.9860  -12.4470   17.6970 C   0  0  0  0  0  2  0  0  0  0  0  0
  -27.8470  -13.3000   18.9850 C   0  0  0  0  0  3  0  0  0  0  0  0
  -29.1290  -13.2310   19.8300 C   0  0  0  0  0  2  0  0  0  0  0  0
  -30.2130  -13.8110   19.0190 N   0  0  0  0  0  0  0  0  0  0  0  0
  -31.8780  -15.1450   18.4170 O   0  0  0  0  0  0  0  0  0  0  0  0
  -25.7420  -13.8270   20.3370 C   0  0  0  0  0  0  0  0  0  0  0  0
  -24.7630  -13.0350   20.8640 C   0  0  0  0  0  0  0  0  0  0  0  0
  -25.1380  -11.6890   20.5660 C   0  0  0  0  0  0  0  0  0  0  0  0
  -26.6560  -12.9630   19.7550 N   0  0  0  0  0  0  0  0  0  0  0  0
  -26.3150  -11.6610   19.9490 N   0  0  0  0  0  0  0  0  0  0  0  0
  -24.4140  -10.4280   20.7840 C   0  0  0  0  0  0  0  0  0  0  0  0
  -24.9080   -9.4310   21.6540 C   0  0  0  0  0  3  0  0  0  0  0  0
  -24.1830   -8.2360   21.8600 C   0  0  0  0  0  3  0  0  0  0  0  0
  -22.9480   -8.0320   21.1970 C   0  0  0  0  0  0  0  0  0  0  0  0
  -22.4710   -9.0190   20.3160 C   0  0  0  0  0  3  0  0  0  0  0  0
  -23.1980  -10.2030   20.1080 C   0  0  0  0  0  3  0  0  0  0  0  0
  -22.1820   -6.8990   21.3240 O   0  0  0  0  0  0  0  0  0  0  0  0
  -22.0540   -6.2420   22.5230 C   0  0  0  0  0  0  0  0  0  0  0  0
  -21.5200   -6.8750   23.6670 C   0  0  0  0  0  3  0  0  0  0  0  0
  -21.3430   -6.1430   24.8590 C   0  0  0  0  0  3  0  0  0  0  0  0
  -21.6920   -4.7800   24.9040 C   0  0  0  0  0  0  0  0  0  0  0  0
  -22.2170   -4.1450   23.7670 C   0  0  0  0  0  3  0  0  0  0  0  0
  -22.3960   -4.8760   22.5780 C   0  0  0  0  0  0  0  0  0  0  0  0
  -22.8860   -4.2570   21.4780 F   0  0  0  0  0  0  0  0  0  0  0  0
  -21.5150   -4.0740   26.0460 F   0  0  0  0  0  0  0  0  0  0  0  0
  -23.5010  -13.5050   21.5270 C   0  0  0  0  0  0  0  0  0  0  0  0
  -22.9900  -12.7420   22.4860 N   0  0  0  0  0  0  0  0  0  0  0  0
  -22.9880  -14.5820   21.2300 O   0  0  0  0  0  0  0  0  0  0  0  0
  -23.4240  -11.8730   22.7540 H   0  0  0  0  0  0  0  0  0  0  0  0
  -22.1500  -13.0340   22.9630 H   0  0  0  0  0  0  0  0  0  0  0  0
  -25.9280  -15.2040   20.2810 N   0  0  0  0  0  0  0  0  0  0  0  0
  -25.2920  -15.8510   20.7360 H   0  0  0  0  0  0  0  0  0  0  0  0
  -26.8370  -15.6080   20.0890 H   0  0  0  0  0  0  0  0  0  0  0  0
  -28.1210  -23.0020   17.4550 C   0  0  0  0  0  1  0  0  0  0  0  0
  -30.2930  -23.8760   18.3280 C   0  0  0  0  0  1  0  0  0  0  0  0
  -28.9450  -23.2500   18.7310 C   0  0  2  0  0  0  0  0  0  0  0  0
  -28.1760  -24.5500   19.5400 C   0  0  0  0  0  2  0  0  0  0  0  0
  -28.3490  -26.1030   19.2950 O   0  0  0  0  0  0  0  0  0  0  0  0
  -24.9440  -31.5700   23.0040 C   0  0  0  0  0  0  0  0  0  0  0  0
  -27.2930  -27.0880   19.4360 C   0  0  0  0  0  0  0  0  0  0  0  0
  -23.6410  -30.3420   21.3120 C   0  0  0  0  0  3  0  0  0  0  0  0
  -24.9900  -28.8730   19.6820 C   0  0  0  0  0  0  0  0  0  0  0  0
  -26.1900  -30.5830   21.0390 C   0  0  0  0  0  2  0  0  0  0  0  0
  -26.2070  -29.2480   20.2640 C   0  0  0  0  0  0  0  0  0  0  0  0
  -27.3580  -28.3750   20.1200 C   0  0  0  0  0  3  0  0  0  0  0  0
  -26.0460  -26.8240   18.8320 C   0  0  0  0  0  3  0  0  0  0  0  0
  -24.9220  -27.6780   18.9480 C   0  0  0  0  0  3  0  0  0  0  0  0
  -23.7820  -29.7820   19.8700 C   0  0  0  0  0  2  0  0  0  0  0  0
  -24.9490  -30.8480   21.8410 N   0  0  0  0  0  0  0  0  0  0  0  0
  -23.8910  -31.8240   23.6080 O   0  0  0  0  0  0  0  0  0  0  0  0
  -22.9910  -29.2650   22.2170 C   0  0  0  0  0  0  0  0  0  0  0  0
  -21.6550  -29.1270   22.1470 N   0  0  0  0  0  0  0  0  0  0  0  0
  -23.6920  -28.5550   22.9430 O   0  0  0  0  0  0  0  0  0  0  0  0
  -21.1460  -29.7460   21.5330 H   0  0  0  0  0  0  0  0  0  0  0  0
  -18.2790  -27.9340   22.7230 C   0  0  0  0  0  0  0  0  0  0  0  0
  -20.8550  -28.1370   22.8740 C   0  0  0  0  0  3  0  0  0  0  0  0
  -20.9010  -26.7610   22.1700 C   0  0  0  0  0  2  0  0  0  0  0  0
  -19.7410  -26.5460   21.1900 C   0  0  0  0  0  2  0  0  0  0  0  0
  -18.3960  -26.6510   21.9160 C   0  0  0  0  0  2  0  0  0  0  0  0
  -19.4340  -28.6400   23.1580 C   0  0  0  0  0  0  0  0  0  0  0  0
  -19.2670  -29.8430   23.8770 C   0  0  0  0  0  3  0  0  0  0  0  0
  -17.9820  -30.3430   24.1570 C   0  0  0  0  0  3  0  0  0  0  0  0
  -16.8440  -29.6350   23.7350 C   0  0  0  0  0  3  0  0  0  0  0  0
  -16.9950  -28.4310   23.0250 C   0  0  0  0  0  3  0  0  0  0  0  0
  -26.2640  -32.1320   23.6190 C   0  0  0  0  0  3  0  0  0  0  0  0
  -26.8330  -31.2340   24.7860 C   0  0  1  0  0  0  0  0  0  0  0  0
  -25.7920  -30.9050   25.8820 C   0  0  0  0  0  1  0  0  0  0  0  0
  -27.3730  -29.8940   24.2370 C   0  0  0  0  0  1  0  0  0  0  0  0
  -28.0290  -31.9460   25.4600 C   0  0  0  0  0  1  0  0  0  0  0  0
  -25.9860  -33.4900   24.1110 N   0  0  0  0  0  0  0  0  0  0  0  0
  -26.3110  -34.6210   23.4680 C   0  0  0  0  0  0  0  0  0  0  0  0
  -26.9410  -34.6250   22.4060 O   0  0  0  0  0  0  0  0  0  0  0  0
  -25.4170  -33.5620   24.9420 H   0  0  0  0  0  0  0  0  0  0  0  0
  -24.6070  -36.4710   23.3830 C   0  0  0  0  0  1  0  0  0  0  0  0
  -25.8670  -35.9560   24.0970 C   0  0  0  0  0  3  0  0  0  0  0  0
  -28.0440  -36.7090   24.9490 C   0  0  0  0  0  1  0  0  0  0  0  0
  -26.9140  -37.0020   24.0720 N   0  0  0  0  0  0  0  0  0  0  0  0
  -26.5290  -37.9030   24.3410 H   0  0  0  0  0  0  0  0  0  0  0  0
  -29.7050  -16.4480   22.8650 C   0  0  0  0  0  1  0  0  0  0  0  0
  -29.0940  -15.9700   21.6190 N   0  0  0  0  0  0  0  0  0  0  0  0
  -29.3060  -14.9940   21.4450 H   0  0  0  0  0  0  0  0  0  0  0  0
  2  6  1  0
  2  1  2  0
  3  1  1  0
  3 92  1  0
  4  3  2  0
  5  2  1  0
  7  5  1  0
  7  8  1  0
  8 48  1  0
  8  6  1  0
  9  5  2  0
  9  4  1  0
 10 16  1  0
 10  4  1  0
 11 16  1  0
 12 13  1  0
 12 11  1  0
 14 13  1  0
 14 21  1  0
 14 15  1  0
 16 15  1  0
 17 10  2  0
 18 19  2  0
 19 38  1  0
 20 23  1  0
 20 19  1  0
 21 22  1  0
 21 18  1  0
 22 20  2  0
 23 24  1  0
 24 25  2  0
 26 29  1  0
 26 25  1  0
 27 26  2  0
 28 27  1  0
 28 23  2  0
 29 30  1  0
 30 35  2  0
 30 31  1  0
 31 32  2  0
 32 33  1  0
 33 37  1  0
 34 33  2  0
 35 34  1  0
 36 35  1  0
 38 39  1  0
 39 41  1  0
 39 42  1  0
 40 38  2  0
 43 18  1  0
 43 44  1  0
 45 43  1  0
 48 46  1  6
 47 48  1  0
 48 49  1  0
 50 52  1  0
 50 49  1  0
 51 62  2  0
 52 57  1  0
 53 61  1  0
 53 63  1  0
 54 60  1  0
 54 56  1  0
 55 61  1  0
 56 55  1  0
 57 56  2  0
 58 59  1  0
 58 52  2  0
 59 54  2  0
 60 53  1  0
 61 51  1  0
 63 65  2  0
 64 63  1  0
 66 64  1  0
 67 76  2  0
 67 72  1  0
 68 64  1  0
 68 72  1  0
 69 68  1  0
 70 71  1  0
 70 69  1  0
 71 67  1  0
 72 73  2  0
 73 74  1  0
 75 74  2  0
 76 75  1  0
 77 51  1  0
 77 82  1  0
 77 78  1  0
 78 81  1  1
 78 79  1  0
 80 78  1  0
 82 85  1  0
 83 87  1  0
 83 82  1  0
 84 83  2  0
 87 86  1  0
 89 87  1  0
 89 90  1  0
 89 88  1  0
 92 91  1  0
 93 92  1  0
M  ISO  4   4 100  10 100  49 101  50 101
M  END
>  <TORSDO>  (51) 
F 19

>  <SCORE>  (51) 
-8.971

>  <name>  (51) 
51

>  <ligand_id>  (51) 
51

>  <original_smiles>  (51) 
[H]c1c([H])c([H])c2c(c1[H])C([H])([H])C([H])([H])C([H])([H])C2([H])N([H])C(=O)C1([H])N(C(=O)C([H])(N([H])C(=O)C([H])(N([H])C([H])([H])[H])C([H])([H])[H])C(C([H])([H])[H])(C([H])([H])[H])C([H])([H])[H])C([H])([H])c2c([H])c(OC([H])([H])C(C([H])([H])[H])(C([H])([H])[H])C3([H])C([H])([H])c4nc(C(=O)N5C([H])([H])C([H])([H])C([H])([H])C([H])(n6nc(-c7c([H])c([H])c(Oc8c([H])c([H])c(F)c([H])c8F)c([H])c7[H])c(C(=O)N([H])[H])c6N([H])[H])C5([H])[H])c(N([H])C([H])([H])[H])c([H])c4C3([H])[H])c([H])c([H])c2C1([H])[H]

>  <smiles>  (51) 
[H]c1c([H])c([H])c2c(c1[H])C([H])([H])C([H])([H])C([H])([H])C2([H])N([H])C(=O)C1([H])N(C(=O)C([H])(N([H])C(=O)C([H])(N([H])C([H])([H])[H])C([H])([H])[H])C(C([H])([H])[H])(C([H])([H])[H])C([H])([H])[H])C([H])([H])c2c([H])c(OC([H])([H])C(C([H])([H])[H])(C([H])([H])[H])C3([H])C([H])([H])c4nc(C(=O)N5C([H])([H])C([H])([H])C([H])([H])C([H])(n6nc(-c7c([H])c([H])c(Oc8c([H])c([H])c(F)c([H])c8F)c([H])c7[H])c(C(=O)N([H])[H])c6N([H])[H])C5([H])[H])c(N([H])C([H])([H])[H])c([H])c4C3([H])[H])c([H])c([H])c2C1([H])[H]

$$$$
52:0:0
     RDKit          3D

 89 98  0  0  1  0  0  0  0  0999 V2000
  -29.4800  -22.8130   21.4830 C   0  0  0  0  0  3  0  0  0  0  0  0
  -29.7310  -20.4540   21.1700 C   0  0  0  0  0  0  0  0  0  0  0  0
  -28.9470  -20.5410   20.0370 C   0  0  0  0  0  0  0  0  0  0  0  0
  -28.6480  -23.0220   20.3330 C   0  0  0  0  0  0  0  0  0  0  0  0
  -30.1580  -18.9640   21.5050 C   0  0  0  0  0  2  0  0  0  0  0  0
  -28.8160  -19.0320   19.4880 C   0  0  0  0  0  2  0  0  0  0  0  0
  -29.8740  -17.9980   20.2480 C   0  0  0  0  0  3  0  0  0  0  0  0
  -30.0050  -21.5880   21.8930 N   0  0  0  0  0  0  0  0  0  0  0  0
  -28.4000  -21.7980   19.6180 N   0  0  0  0  0  0  0  0  0  0  0  0
  -30.4780  -15.1740   20.2250 C   0  0  0  0  0  0  0  0  0  0  0  0
  -30.4140  -12.7790   19.3070 C   0  0  0  0  0  2  0  0  0  0  0  0
  -29.4610  -12.6590   18.0920 C   0  0  0  0  0  2  0  0  0  0  0  0
  -28.0160  -12.4030   18.5560 C   0  0  0  0  0  2  0  0  0  0  0  0
  -27.6040  -13.3420   19.7190 C   0  0  0  0  0  3  0  0  0  0  0  0
  -28.6760  -13.4140   20.8280 C   0  0  0  0  0  2  0  0  0  0  0  0
  -29.9120  -13.8840   20.1900 N   0  0  0  0  0  0  0  0  0  0  0  0
  -31.6740  -15.2300   19.9170 O   0  0  0  0  0  0  0  0  0  0  0  0
  -29.6870  -16.3790   20.4060 N   0  0  0  0  0  0  0  0  0  0  0  0
  -28.7410  -16.1370   20.6600 H   0  0  0  0  0  0  0  0  0  0  0  0
  -25.2380  -13.8940   20.5070 C   0  0  0  0  0  0  0  0  0  0  0  0
  -24.1840  -13.1100   20.8850 C   0  0  0  0  0  0  0  0  0  0  0  0
  -24.6540  -11.7610   20.8300 C   0  0  0  0  0  0  0  0  0  0  0  0
  -26.2810  -13.0240   20.2380 N   0  0  0  0  0  0  0  0  0  0  0  0
  -25.9410  -11.7350   20.4990 N   0  0  0  0  0  0  0  0  0  0  0  0
  -23.9360  -10.4940   21.0140 C   0  0  0  0  0  0  0  0  0  0  0  0
  -24.3630   -9.5310   21.9550 C   0  0  0  0  0  3  0  0  0  0  0  0
  -23.6410   -8.3300   22.1290 C   0  0  0  0  0  3  0  0  0  0  0  0
  -22.4790   -8.0830   21.3600 C   0  0  0  0  0  0  0  0  0  0  0  0
  -22.0710   -9.0350   20.4090 C   0  0  0  0  0  3  0  0  0  0  0  0
  -22.7930  -10.2270   20.2340 C   0  0  0  0  0  3  0  0  0  0  0  0
  -21.7310   -6.9340   21.4420 O   0  0  0  0  0  0  0  0  0  0  0  0
  -21.6400   -6.2150   22.6080 C   0  0  0  0  0  0  0  0  0  0  0  0
  -21.1390   -6.7870   23.7980 C   0  0  0  0  0  3  0  0  0  0  0  0
  -20.9960   -5.9940   24.9540 C   0  0  0  0  0  3  0  0  0  0  0  0
  -21.3460   -4.6310   24.9210 C   0  0  0  0  0  0  0  0  0  0  0  0
  -21.8410   -4.0590   23.7360 C   0  0  0  0  0  3  0  0  0  0  0  0
  -21.9830   -4.8480   22.5820 C   0  0  0  0  0  0  0  0  0  0  0  0
  -22.4400   -4.2870   21.4370 F   0  0  0  0  0  0  0  0  0  0  0  0
  -21.2030   -3.8670   26.0300 F   0  0  0  0  0  0  0  0  0  0  0  0
  -22.7900  -13.5780   21.1820 C   0  0  0  0  0  0  0  0  0  0  0  0
  -22.0780  -12.8710   22.0500 N   0  0  0  0  0  0  0  0  0  0  0  0
  -22.3420  -14.6090   20.6790 O   0  0  0  0  0  0  0  0  0  0  0  0
  -22.4540  -12.0390   22.4790 H   0  0  0  0  0  0  0  0  0  0  0  0
  -21.1440  -13.1690   22.2930 H   0  0  0  0  0  0  0  0  0  0  0  0
  -25.3910  -15.2680   20.3380 N   0  0  0  0  0  0  0  0  0  0  0  0
  -24.6170  -15.9130   20.4560 H   0  0  0  0  0  0  0  0  0  0  0  0
  -26.2120  -15.7070   19.9430 H   0  0  0  0  0  0  0  0  0  0  0  0
  -27.8640  -24.4950   19.9760 C   0  0  0  0  0  2  0  0  0  0  0  0
  -28.1750  -26.0310   20.3230 O   0  0  0  0  0  0  0  0  0  0  0  0
  -24.6270  -31.9060   23.2540 C   0  0  0  0  0  0  0  0  0  0  0  0
  -27.1680  -27.0980   20.2280 C   0  0  0  0  0  0  0  0  0  0  0  0
  -23.4210  -30.5150   21.6190 C   0  0  0  0  0  3  0  0  0  0  0  0
  -24.8620  -28.9250   20.1870 C   0  0  0  0  0  0  0  0  0  0  0  0
  -25.9840  -30.7420   21.4620 C   0  0  0  0  0  2  0  0  0  0  0  0
  -26.0490  -29.3430   20.8040 C   0  0  0  0  0  0  0  0  0  0  0  0
  -27.1980  -28.4460   20.8090 C   0  0  0  0  0  3  0  0  0  0  0  0
  -25.9580  -26.8180   19.5550 C   0  0  0  0  0  3  0  0  0  0  0  0
  -24.8370  -27.6790   19.5430 C   0  0  0  0  0  3  0  0  0  0  0  0
  -23.6400  -29.8350   20.2420 C   0  0  0  0  0  2  0  0  0  0  0  0
  -24.6990  -31.0780   22.1650 N   0  0  0  0  0  0  0  0  0  0  0  0
  -23.5410  -32.2000   23.7790 O   0  0  0  0  0  0  0  0  0  0  0  0
  -22.7360  -29.5140   22.5850 C   0  0  0  0  0  0  0  0  0  0  0  0
  -21.4080  -29.3430   22.4570 N   0  0  0  0  0  0  0  0  0  0  0  0
  -23.4040  -28.8940   23.4170 O   0  0  0  0  0  0  0  0  0  0  0  0
  -20.9260  -29.8890   21.7560 H   0  0  0  0  0  0  0  0  0  0  0  0
  -18.0260  -28.1390   22.9560 C   0  0  0  0  0  0  0  0  0  0  0  0
  -20.5840  -28.4090   23.2290 C   0  0  0  0  0  3  0  0  0  0  0  0
  -20.6910  -26.9740   22.6610 C   0  0  0  0  0  2  0  0  0  0  0  0
  -19.5920  -26.6460   21.6470 C   0  0  0  0  0  2  0  0  0  0  0  0
  -18.2080  -26.7880   22.2840 C   0  0  0  0  0  2  0  0  0  0  0  0
  -19.1410  -28.9060   23.3840 C   0  0  0  0  0  0  0  0  0  0  0  0
  -18.9150  -30.1690   23.9740 C   0  0  0  0  0  3  0  0  0  0  0  0
  -17.6070  -30.6640   24.1390 C   0  0  0  0  0  3  0  0  0  0  0  0
  -16.5060  -29.8910   23.7270 C   0  0  0  0  0  3  0  0  0  0  0  0
  -16.7170  -28.6310   23.1390 C   0  0  0  0  0  3  0  0  0  0  0  0
  -25.9050  -32.5400   23.8800 C   0  0  0  0  0  3  0  0  0  0  0  0
  -25.5960  -33.9400   24.2170 N   0  0  0  0  0  0  0  0  0  0  0  0
  -25.9000  -34.9980   23.4540 C   0  0  0  0  0  0  0  0  0  0  0  0
  -26.5380  -34.8980   22.4020 O   0  0  0  0  0  0  0  0  0  0  0  0
  -25.0290  -34.0920   25.0380 H   0  0  0  0  0  0  0  0  0  0  0  0
  -24.1450  -36.7800   23.1750 C   0  0  0  0  0  1  0  0  0  0  0  0
  -25.4250  -36.3860   23.9300 C   0  0  0  0  0  3  0  0  0  0  0  0
  -27.5880  -37.2960   24.6570 C   0  0  0  0  0  1  0  0  0  0  0  0
  -26.4440  -37.4470   23.7620 N   0  0  0  0  0  0  0  0  0  0  0  0
  -26.0380  -38.3660   23.9170 H   0  0  0  0  0  0  0  0  0  0  0  0
  -26.4130  -31.7710   25.1620 C   0  0  1  0  0  0  0  0  0  0  0  0
  -25.3140  -31.5410   26.2270 C   0  0  0  0  0  1  0  0  0  0  0  0
  -26.9970  -30.3890   24.7850 C   0  0  0  0  0  1  0  0  0  0  0  0
  -27.5620  -32.5660   25.8240 C   0  0  0  0  0  1  0  0  0  0  0  0
  1  8  1  0
  2  5  1  0
  2  8  2  0
  3  2  1  0
  4  1  2  0
  6  3  1  0
  6  7  1  0
  7 18  1  0
  7  5  1  0
  9  3  2  0
  9  4  1  0
 10 18  1  0
 11 16  1  0
 12 13  1  0
 12 11  1  0
 14 13  1  0
 14 23  1  0
 14 15  1  0
 16 10  1  0
 16 15  1  0
 17 10  2  0
 18 19  1  0
 20 21  2  0
 21 40  1  0
 22 21  1  0
 22 25  1  0
 23 24  1  0
 23 20  1  0
 24 22  2  0
 25 26  1  0
 26 27  2  0
 28 31  1  0
 28 27  1  0
 29 28  2  0
 30 29  1  0
 30 25  2  0
 31 32  1  0
 32 33  1  0
 33 34  2  0
 35 34  1  0
 35 39  1  0
 36 35  2  0
 37 32  2  0
 37 36  1  0
 38 37  1  0
 40 41  1  0
 41 44  1  0
 41 43  1  0
 42 40  2  0
 45 46  1  0
 45 20  1  0
 47 45  1  0
 48 49  1  0
 48  4  1  0
 50 61  2  0
 51 49  1  0
 51 56  1  0
 52 60  1  0
 52 62  1  0
 53 59  1  0
 53 55  1  0
 54 60  1  0
 55 56  2  0
 55 54  1  0
 57 51  2  0
 58 57  1  0
 58 53  2  0
 59 52  1  0
 60 50  1  0
 62 64  2  0
 63 62  1  0
 65 63  1  0
 66 75  2  0
 66 71  1  0
 67 63  1  0
 67 71  1  0
 68 67  1  0
 69 70  1  0
 69 68  1  0
 70 66  1  0
 71 72  2  0
 72 73  1  0
 74 73  2  0
 75 74  1  0
 76 50  1  0
 76 77  1  0
 76 86  1  0
 77 80  1  0
 78 82  1  0
 78 77  1  0
 79 78  2  0
 82 81  1  0
 84 85  1  0
 84 82  1  0
 84 83  1  0
 86 89  1  1
 86 87  1  0
 88 86  1  0
M  ISO  4  10 100  18 100  48 101  49 101
M  END
>  <TORSDO>  (52) 
F 17

>  <SCORE>  (52) 
-15.660

>  <name>  (52) 
52

>  <ligand_id>  (52) 
52

>  <original_smiles>  (52) 
[H]c1nc2c(nc1C([H])([H])Oc1c([H])c([H])c3c(c1[H])C([H])([H])N(C(=O)C([H])(N([H])C(=O)C([H])(N([H])C([H])([H])[H])C([H])([H])[H])C(C([H])([H])[H])(C([H])([H])[H])C([H])([H])[H])C([H])(C(=O)N([H])C1([H])c4c([H])c([H])c([H])c([H])c4C([H])([H])C([H])([H])C1([H])[H])C3([H])[H])C([H])([H])C([H])(N([H])C(=O)N1C([H])([H])C([H])([H])C([H])([H])C([H])(n3nc(-c4c([H])c([H])c(Oc5c([H])c([H])c(F)c([H])c5F)c([H])c4[H])c(C(=O)N([H])[H])c3N([H])[H])C1([H])[H])C2([H])[H]

>  <smiles>  (52) 
[H]c1nc2c(nc1C([H])([H])Oc1c([H])c([H])c3c(c1[H])C([H])([H])N(C(=O)C([H])(N([H])C(=O)C([H])(N([H])C([H])([H])[H])C([H])([H])[H])C(C([H])([H])[H])(C([H])([H])[H])C([H])([H])[H])C([H])(C(=O)N([H])C1([H])c4c([H])c([H])c([H])c([H])c4C([H])([H])C([H])([H])C1([H])[H])C3([H])[H])C([H])([H])C([H])(N([H])C(=O)N1C([H])([H])C([H])([H])C([H])([H])C([H])(n3nc(-c4c([H])c([H])c(Oc5c([H])c([H])c(F)c([H])c5F)c([H])c4[H])c(C(=O)N([H])[H])c3N([H])[H])C1([H])[H])C2([H])[H]

$$$$
53:0:0
     RDKit          3D

 90 99  0  0  1  0  0  0  0  0999 V2000
  -27.2980  -23.7590   21.0240 C   0  0  0  0  0  0  0  0  0  0  0  0
  -28.1820  -24.5890   20.2450 C   0  0  0  0  0  0  0  0  0  0  0  0
  -26.1690  -24.2590   21.8740 C   0  0  0  0  0  1  0  0  0  0  0  0
  -27.5690  -22.4450   20.9350 N   0  0  0  0  0  0  0  0  0  0  0  0
  -29.0280  -23.6530   19.6980 N   0  0  0  0  0  0  0  0  0  0  0  0
  -28.6690  -22.3060   20.1280 N   0  0  0  0  0  0  0  0  0  0  0  0
  -30.3460  -21.1720   18.5690 C   0  0  0  0  0  1  0  0  0  0  0  0
  -29.1700  -20.8640   19.5120 C   0  0  0  0  0  3  0  0  0  0  0  0
  -30.5590  -15.2060   19.8900 C   0  0  0  0  0  0  0  0  0  0  0  0
  -30.4010  -12.8160   18.9540 C   0  0  0  0  0  2  0  0  0  0  0  0
  -29.4090  -12.7030   17.7730 C   0  0  0  0  0  2  0  0  0  0  0  0
  -27.9780  -12.4610   18.2870 C   0  0  0  0  0  2  0  0  0  0  0  0
  -27.6250  -13.3780   19.4880 C   0  0  0  0  0  3  0  0  0  0  0  0
  -28.7460  -13.4370   20.5470 C   0  0  0  0  0  2  0  0  0  0  0  0
  -29.9440  -13.9310   19.8550 N   0  0  0  0  0  0  0  0  0  0  0  0
  -31.7350  -15.1900   19.5000 O   0  0  0  0  0  0  0  0  0  0  0  0
  -28.4250  -18.4400   20.9010 C   0  0  0  0  0  2  0  0  0  0  0  0
  -28.9010  -16.9210   21.0720 C   0  0  0  0  0  2  0  0  0  0  0  0
  -30.1810  -17.9460   19.4610 C   0  0  0  0  0  2  0  0  0  0  0  0
  -29.5250  -19.2980   20.2340 C   0  0  0  0  0  3  0  0  0  0  0  0
  -29.8680  -16.5030   20.0270 N   0  0  0  0  0  0  0  0  0  0  0  0
  -25.3010  -13.9280   20.3960 C   0  0  0  0  0  0  0  0  0  0  0  0
  -24.2620  -13.1440   20.8170 C   0  0  0  0  0  0  0  0  0  0  0  0
  -24.7230  -11.7940   20.7240 C   0  0  0  0  0  0  0  0  0  0  0  0
  -26.3250  -13.0560   20.0700 N   0  0  0  0  0  0  0  0  0  0  0  0
  -25.9930  -11.7660   20.3330 N   0  0  0  0  0  0  0  0  0  0  0  0
  -24.0050  -10.5270   20.9280 C   0  0  0  0  0  0  0  0  0  0  0  0
  -24.4590   -9.5600   21.8520 C   0  0  0  0  0  3  0  0  0  0  0  0
  -23.7380   -8.3610   22.0480 C   0  0  0  0  0  3  0  0  0  0  0  0
  -22.5500   -8.1210   21.3160 C   0  0  0  0  0  0  0  0  0  0  0  0
  -22.1150   -9.0770   20.3810 C   0  0  0  0  0  3  0  0  0  0  0  0
  -22.8380  -10.2660   20.1840 C   0  0  0  0  0  3  0  0  0  0  0  0
  -21.7990   -6.9750   21.4180 O   0  0  0  0  0  0  0  0  0  0  0  0
  -21.7290   -6.2600   22.5860 C   0  0  0  0  0  0  0  0  0  0  0  0
  -21.2900   -6.8460   23.7940 C   0  0  0  0  0  3  0  0  0  0  0  0
  -21.1690   -6.0570   24.9560 C   0  0  0  0  0  3  0  0  0  0  0  0
  -21.4770   -4.6860   24.9120 C   0  0  0  0  0  0  0  0  0  0  0  0
  -21.9120   -4.0990   23.7090 C   0  0  0  0  0  3  0  0  0  0  0  0
  -22.0340   -4.8830   22.5490 C   0  0  0  0  0  0  0  0  0  0  0  0
  -22.4290   -4.3090   21.3890 F   0  0  0  0  0  0  0  0  0  0  0  0
  -21.3550   -3.9280   26.0260 F   0  0  0  0  0  0  0  0  0  0  0  0
  -22.8850  -13.6170   21.1820 C   0  0  0  0  0  0  0  0  0  0  0  0
  -22.2080  -12.9060   22.0770 N   0  0  0  0  0  0  0  0  0  0  0  0
  -22.4190  -14.6550   20.7120 O   0  0  0  0  0  0  0  0  0  0  0  0
  -22.5970  -12.0710   22.4860 H   0  0  0  0  0  0  0  0  0  0  0  0
  -21.2890  -13.2110   22.3640 H   0  0  0  0  0  0  0  0  0  0  0  0
  -25.4510  -15.3010   20.2330 N   0  0  0  0  0  0  0  0  0  0  0  0
  -24.6920  -15.9540   20.3960 H   0  0  0  0  0  0  0  0  0  0  0  0
  -26.2650  -15.7410   19.8260 H   0  0  0  0  0  0  0  0  0  0  0  0
  -28.2770  -26.0630   20.1230 O   0  0  0  0  0  0  0  0  0  0  0  0
  -24.6240  -31.8550   23.1780 C   0  0  0  0  0  0  0  0  0  0  0  0
  -27.2150  -27.0770   20.1450 C   0  0  0  0  0  0  0  0  0  0  0  0
  -23.4300  -30.4480   21.5490 C   0  0  0  0  0  3  0  0  0  0  0  0
  -24.8830  -28.8700   20.1160 C   0  0  0  0  0  0  0  0  0  0  0  0
  -25.9850  -30.7100   21.3740 C   0  0  0  0  0  2  0  0  0  0  0  0
  -26.0660  -29.3060   20.7260 C   0  0  0  0  0  0  0  0  0  0  0  0
  -27.2270  -28.4260   20.7230 C   0  0  0  0  0  3  0  0  0  0  0  0
  -26.0070  -26.7720   19.4830 C   0  0  0  0  0  3  0  0  0  0  0  0
  -24.8710  -27.6200   19.4770 C   0  0  0  0  0  3  0  0  0  0  0  0
  -23.6510  -29.7690   20.1690 C   0  0  0  0  0  2  0  0  0  0  0  0
  -24.7010  -31.0290   22.0880 N   0  0  0  0  0  0  0  0  0  0  0  0
  -23.5370  -32.1320   23.7110 O   0  0  0  0  0  0  0  0  0  0  0  0
  -22.7590  -29.4410   22.5170 C   0  0  0  0  0  0  0  0  0  0  0  0
  -21.4310  -29.2550   22.3950 N   0  0  0  0  0  0  0  0  0  0  0  0
  -23.4380  -28.8240   23.3420 O   0  0  0  0  0  0  0  0  0  0  0  0
  -20.9370  -29.7990   21.7030 H   0  0  0  0  0  0  0  0  0  0  0  0
  -18.0700  -27.9900   22.8950 C   0  0  0  0  0  0  0  0  0  0  0  0
  -20.6230  -28.3100   23.1730 C   0  0  0  0  0  3  0  0  0  0  0  0
  -20.7580  -26.8750   22.6160 C   0  0  0  0  0  2  0  0  0  0  0  0
  -19.6700  -26.5170   21.5980 C   0  0  0  0  0  2  0  0  0  0  0  0
  -18.2810  -26.6380   22.2330 C   0  0  0  0  0  2  0  0  0  0  0  0
  -19.1710  -28.7820   23.3230 C   0  0  0  0  0  0  0  0  0  0  0  0
  -18.9200  -30.0430   23.9040 C   0  0  0  0  0  3  0  0  0  0  0  0
  -17.6030  -30.5140   24.0630 C   0  0  0  0  0  3  0  0  0  0  0  0
  -16.5180  -29.7200   23.6520 C   0  0  0  0  0  3  0  0  0  0  0  0
  -16.7530  -28.4610   23.0730 C   0  0  0  0  0  3  0  0  0  0  0  0
  -25.8970  -32.5070   23.7990 C   0  0  0  0  0  3  0  0  0  0  0  0
  -25.5690  -33.9010   24.1400 N   0  0  0  0  0  0  0  0  0  0  0  0
  -25.8920  -34.9690   23.3970 C   0  0  0  0  0  0  0  0  0  0  0  0
  -26.5620  -34.8820   22.3650 O   0  0  0  0  0  0  0  0  0  0  0  0
  -24.9680  -34.0380   24.9410 H   0  0  0  0  0  0  0  0  0  0  0  0
  -24.1500  -36.7570   23.0710 C   0  0  0  0  0  1  0  0  0  0  0  0
  -25.3970  -36.3490   23.8730 C   0  0  0  0  0  3  0  0  0  0  0  0
  -27.5270  -37.2400   24.7090 C   0  0  0  0  0  1  0  0  0  0  0  0
  -26.4220  -37.4110   23.7680 N   0  0  0  0  0  0  0  0  0  0  0  0
  -26.0100  -38.3270   23.9260 H   0  0  0  0  0  0  0  0  0  0  0  0
  -26.4220  -31.7400   25.0750 C   0  0  1  0  0  0  0  0  0  0  0  0
  -25.3340  -31.4950   26.1480 C   0  0  0  0  0  1  0  0  0  0  0  0
  -27.0170  -30.3670   24.6900 C   0  0  0  0  0  1  0  0  0  0  0  0
  -27.5700  -32.5430   25.7310 C   0  0  0  0  0  1  0  0  0  0  0  0
  1  3  1  0
  2  1  1  0
  4  1  2  0
  5  6  1  0
  5  2  2  0
  6  4  1  0
  8  7  1  0
  8  6  1  0
  9 21  1  0
 10 15  1  0
 11 12  1  0
 11 10  1  0
 13 12  1  0
 13 25  1  0
 13 14  1  0
 15  9  1  0
 15 14  1  0
 16  9  2  0
 17 18  1  0
 19 21  1  0
 19 20  1  0
 20  8  1  0
 20 17  1  0
 21 18  1  0
 22 23  2  0
 23 42  1  0
 24 23  1  0
 24 27  1  0
 25 26  1  0
 25 22  1  0
 26 24  2  0
 27 28  1  0
 28 29  2  0
 30 33  1  0
 30 29  1  0
 31 30  2  0
 32 31  1  0
 32 27  2  0
 33 34  1  0
 34 35  1  0
 35 36  2  0
 37 36  1  0
 37 41  1  0
 38 37  2  0
 39 34  2  0
 39 38  1  0
 40 39  1  0
 42 43  1  0
 43 46  1  0
 43 45  1  0
 44 42  2  0
 47 48  1  0
 47 22  1  0
 49 47  1  0
 50 52  1  0
 50  2  1  0
 51 62  2  0
 52 57  1  0
 53 61  1  0
 53 63  1  0
 54 60  1  0
 54 56  1  0
 55 61  1  0
 56 55  1  0
 57 56  2  0
 58 52  2  0
 59 58  1  0
 59 54  2  0
 60 53  1  0
 61 51  1  0
 63 65  2  0
 64 63  1  0
 66 64  1  0
 67 76  2  0
 67 72  1  0
 68 64  1  0
 68 72  1  0
 69 68  1  0
 70 71  1  0
 70 69  1  0
 71 67  1  0
 72 73  2  0
 73 74  1  0
 75 74  2  0
 76 75  1  0
 77 51  1  0
 77 78  1  0
 77 87  1  0
 78 81  1  0
 79 83  1  0
 79 78  1  0
 80 79  2  0
 83 82  1  0
 85 83  1  0
 85 86  1  0
 85 84  1  0
 87 90  1  1
 87 88  1  0
 89 87  1  0
M  ISO  4   2 101   9 100  21 100  50 101
M  END
>  <TORSDO>  (53) 
F 17

>  <SCORE>  (53) 
-15.112

>  <name>  (53) 
53

>  <ligand_id>  (53) 
53

>  <original_smiles>  (53) 
[H]c1c([H])c([H])c2c(c1[H])C([H])([H])C([H])([H])C([H])([H])C2([H])N([H])C(=O)C1([H])N(C(=O)C([H])(N([H])C(=O)C([H])(N([H])C([H])([H])[H])C([H])([H])[H])C(C([H])([H])[H])(C([H])([H])[H])C([H])([H])[H])C([H])([H])c2c([H])c(Oc3nn(C([H])(C([H])([H])[H])C4([H])C([H])([H])N(C(=O)N5C([H])([H])C([H])([H])C([H])([H])C([H])(n6nc(-c7c([H])c([H])c(Oc8c([H])c([H])c(F)c([H])c8F)c([H])c7[H])c(C(=O)N([H])[H])c6N([H])[H])C5([H])[H])C([H])([H])C4([H])[H])nc3C([H])([H])[H])c([H])c([H])c2C1([H])[H]

>  <smiles>  (53) 
[H]c1c([H])c([H])c2c(c1[H])C([H])([H])C([H])([H])C([H])([H])C2([H])N([H])C(=O)C1([H])N(C(=O)C([H])(N([H])C(=O)C([H])(N([H])C([H])([H])[H])C([H])([H])[H])C(C([H])([H])[H])(C([H])([H])[H])C([H])([H])[H])C([H])([H])c2c([H])c(Oc3nn(C([H])(C([H])([H])[H])C4([H])C([H])([H])N(C(=O)N5C([H])([H])C([H])([H])C([H])([H])C([H])(n6nc(-c7c([H])c([H])c(Oc8c([H])c([H])c(F)c([H])c8F)c([H])c7[H])c(C(=O)N([H])[H])c6N([H])[H])C5([H])[H])C([H])([H])C4([H])[H])nc3C([H])([H])[H])c([H])c([H])c2C1([H])[H]

$$$$
54:0:0
     RDKit          3D

 90 99  0  0  1  0  0  0  0  0999 V2000
  -30.4630  -21.1740   19.4290 C   0  0  0  0  0  3  0  0  0  0  0  0
  -29.3530  -20.8190   20.2080 C   0  0  0  0  0  0  0  0  0  0  0  0
  -30.6810  -22.5210   19.0740 C   0  0  0  0  0  0  0  0  0  0  0  0
  -28.7960  -23.2630   20.1880 C   0  0  0  0  0  0  0  0  0  0  0  0
  -31.8480  -22.9190   18.1950 C   0  0  0  0  0  1  0  0  0  0  0  0
  -28.5200  -21.9260   20.5550 N   0  0  0  0  0  0  0  0  0  0  0  0
  -29.8680  -23.5300   19.4510 N   0  0  0  0  0  0  0  0  0  0  0  0
  -28.7400  -18.3280   19.3920 C   0  0  0  0  0  2  0  0  0  0  0  0
  -29.0960  -19.2030   20.5520 C   0  0  0  0  0  3  0  0  0  0  0  0
  -29.8990  -17.7380   20.1810 C   0  0  0  0  0  3  0  0  0  0  0  0
  -30.4730  -15.0300   20.3220 C   0  0  0  0  0  0  0  0  0  0  0  0
  -30.3930  -12.6680   19.3800 C   0  0  0  0  0  2  0  0  0  0  0  0
  -29.4610  -12.6020   18.1460 C   0  0  0  0  0  2  0  0  0  0  0  0
  -27.9990  -12.3750   18.5790 C   0  0  0  0  0  2  0  0  0  0  0  0
  -27.5840  -13.2930   19.7570 C   0  0  0  0  0  3  0  0  0  0  0  0
  -28.6370  -13.3230   20.8870 C   0  0  0  0  0  2  0  0  0  0  0  0
  -29.8990  -13.7550   20.2780 N   0  0  0  0  0  0  0  0  0  0  0  0
  -31.6690  -15.1020   20.0150 O   0  0  0  0  0  0  0  0  0  0  0  0
  -29.6700  -16.2060   20.4870 N   0  0  0  0  0  0  0  0  0  0  0  0
  -28.7190  -15.9920   20.7540 H   0  0  0  0  0  0  0  0  0  0  0  0
  -25.2040  -13.8600   20.5000 C   0  0  0  0  0  0  0  0  0  0  0  0
  -24.1440  -13.0800   20.8700 C   0  0  0  0  0  0  0  0  0  0  0  0
  -24.6140  -11.7300   20.8400 C   0  0  0  0  0  0  0  0  0  0  0  0
  -26.2490  -12.9860   20.2560 N   0  0  0  0  0  0  0  0  0  0  0  0
  -25.9040  -11.7010   20.5270 N   0  0  0  0  0  0  0  0  0  0  0  0
  -23.8940  -10.4650   21.0280 C   0  0  0  0  0  0  0  0  0  0  0  0
  -24.3200   -9.5020   21.9690 C   0  0  0  0  0  3  0  0  0  0  0  0
  -23.5950   -8.3040   22.1470 C   0  0  0  0  0  3  0  0  0  0  0  0
  -22.4280   -8.0600   21.3840 C   0  0  0  0  0  0  0  0  0  0  0  0
  -22.0210   -9.0120   20.4320 C   0  0  0  0  0  3  0  0  0  0  0  0
  -22.7470  -10.2010   20.2530 C   0  0  0  0  0  3  0  0  0  0  0  0
  -21.6770   -6.9130   21.4680 O   0  0  0  0  0  0  0  0  0  0  0  0
  -21.6130   -6.1780   22.6260 C   0  0  0  0  0  0  0  0  0  0  0  0
  -21.1600   -6.7380   23.8400 C   0  0  0  0  0  3  0  0  0  0  0  0
  -21.0430   -5.9300   24.9880 C   0  0  0  0  0  3  0  0  0  0  0  0
  -21.3700   -4.5620   24.9220 C   0  0  0  0  0  0  0  0  0  0  0  0
  -21.8180   -4.0020   23.7130 C   0  0  0  0  0  3  0  0  0  0  0  0
  -21.9350   -4.8080   22.5660 C   0  0  0  0  0  0  0  0  0  0  0  0
  -22.3470   -4.2580   21.3980 F   0  0  0  0  0  0  0  0  0  0  0  0
  -21.2530   -3.7850   26.0240 F   0  0  0  0  0  0  0  0  0  0  0  0
  -22.7440  -13.5520   21.1370 C   0  0  0  0  0  0  0  0  0  0  0  0
  -22.0150  -12.8540   21.9990 N   0  0  0  0  0  0  0  0  0  0  0  0
  -22.3070  -14.5750   20.6140 O   0  0  0  0  0  0  0  0  0  0  0  0
  -22.3810  -12.0260   22.4430 H   0  0  0  0  0  0  0  0  0  0  0  0
  -21.0760  -13.1580   22.2200 H   0  0  0  0  0  0  0  0  0  0  0  0
  -25.3620  -15.2310   20.3210 N   0  0  0  0  0  0  0  0  0  0  0  0
  -24.5900  -15.8790   20.4400 H   0  0  0  0  0  0  0  0  0  0  0  0
  -26.1800  -15.6600   19.9080 H   0  0  0  0  0  0  0  0  0  0  0  0
  -27.8430  -24.5910   20.4970 C   0  0  0  0  0  2  0  0  0  0  0  0
  -28.2070  -26.1080   20.2640 O   0  0  0  0  0  0  0  0  0  0  0  0
  -24.6490  -31.8790   23.2490 C   0  0  0  0  0  0  0  0  0  0  0  0
  -27.1800  -27.1280   20.2220 C   0  0  0  0  0  0  0  0  0  0  0  0
  -23.4380  -30.4830   21.6220 C   0  0  0  0  0  3  0  0  0  0  0  0
  -24.8730  -28.9040   20.1870 C   0  0  0  0  0  0  0  0  0  0  0  0
  -25.9930  -30.7350   21.4410 C   0  0  0  0  0  2  0  0  0  0  0  0
  -26.0560  -29.3380   20.7950 C   0  0  0  0  0  0  0  0  0  0  0  0
  -27.2150  -28.4670   20.7950 C   0  0  0  0  0  3  0  0  0  0  0  0
  -25.9770  -26.8170   19.5530 C   0  0  0  0  0  3  0  0  0  0  0  0
  -24.8480  -27.6600   19.5460 C   0  0  0  0  0  3  0  0  0  0  0  0
  -23.6480  -29.8050   20.2420 C   0  0  0  0  0  2  0  0  0  0  0  0
  -24.7150  -31.0550   22.1580 N   0  0  0  0  0  0  0  0  0  0  0  0
  -23.5670  -32.1680   23.7800 O   0  0  0  0  0  0  0  0  0  0  0  0
  -22.7630  -29.4770   22.5890 C   0  0  0  0  0  0  0  0  0  0  0  0
  -21.4350  -29.3030   22.4650 N   0  0  0  0  0  0  0  0  0  0  0  0
  -23.4370  -28.8540   23.4130 O   0  0  0  0  0  0  0  0  0  0  0  0
  -20.9480  -29.8580   21.7760 H   0  0  0  0  0  0  0  0  0  0  0  0
  -18.0560  -28.1000   22.9730 C   0  0  0  0  0  0  0  0  0  0  0  0
  -20.6140  -28.3700   23.2410 C   0  0  0  0  0  3  0  0  0  0  0  0
  -20.7190  -26.9350   22.6760 C   0  0  0  0  0  2  0  0  0  0  0  0
  -19.6200  -26.6010   21.6630 C   0  0  0  0  0  2  0  0  0  0  0  0
  -18.2370  -26.7470   22.3060 C   0  0  0  0  0  2  0  0  0  0  0  0
  -19.1710  -28.8690   23.3970 C   0  0  0  0  0  0  0  0  0  0  0  0
  -18.9470  -30.1350   23.9820 C   0  0  0  0  0  3  0  0  0  0  0  0
  -17.6390  -30.6300   24.1460 C   0  0  0  0  0  3  0  0  0  0  0  0
  -16.5380  -29.8570   23.7370 C   0  0  0  0  0  3  0  0  0  0  0  0
  -16.7480  -28.5930   23.1560 C   0  0  0  0  0  3  0  0  0  0  0  0
  -25.9320  -32.5140   23.8670 C   0  0  0  0  0  3  0  0  0  0  0  0
  -25.6230  -33.9130   24.2030 N   0  0  0  0  0  0  0  0  0  0  0  0
  -25.9390  -34.9710   23.4440 C   0  0  0  0  0  0  0  0  0  0  0  0
  -26.5900  -34.8730   22.4010 O   0  0  0  0  0  0  0  0  0  0  0  0
  -25.0460  -34.0630   25.0180 H   0  0  0  0  0  0  0  0  0  0  0  0
  -24.2000  -36.7660   23.1360 C   0  0  0  0  0  1  0  0  0  0  0  0
  -25.4600  -36.3580   23.9180 C   0  0  0  0  0  3  0  0  0  0  0  0
  -27.6100  -37.2480   24.7060 C   0  0  0  0  0  1  0  0  0  0  0  0
  -26.4880  -37.4130   23.7850 N   0  0  0  0  0  0  0  0  0  0  0  0
  -26.0830  -38.3330   23.9390 H   0  0  0  0  0  0  0  0  0  0  0  0
  -26.4510  -31.7440   25.1440 C   0  0  1  0  0  0  0  0  0  0  0  0
  -25.3630  -31.5120   26.2170 C   0  0  0  0  0  1  0  0  0  0  0  0
  -27.0280  -30.3640   24.7550 C   0  0  0  0  0  1  0  0  0  0  0  0
  -27.6070  -32.5360   25.7990 C   0  0  0  0  0  1  0  0  0  0  0  0
  1  2  2  0
  2  6  1  0
  3  1  1  0
  3  7  2  0
  4 49  1  0
  4  6  2  0
  5  3  1  0
  7  4  1  0
  8 10  1  0
  8  9  1  0
  9  2  1  0
 10 19  1  0
 10  9  1  0
 11 19  1  0
 12 17  1  0
 13 14  1  0
 13 12  1  0
 15 14  1  0
 15 24  1  0
 15 16  1  0
 17 11  1  0
 17 16  1  0
 18 11  2  0
 19 20  1  0
 21 22  2  0
 22 41  1  0
 23 22  1  0
 23 26  1  0
 24 21  1  0
 24 25  1  0
 25 23  2  0
 26 27  1  0
 27 28  2  0
 29 32  1  0
 29 28  1  0
 30 29  2  0
 31 30  1  0
 31 26  2  0
 32 33  1  0
 33 34  1  0
 34 35  2  0
 36 35  1  0
 36 40  1  0
 37 36  2  0
 38 33  2  0
 38 37  1  0
 39 38  1  0
 41 42  1  0
 42 45  1  0
 42 44  1  0
 43 41  2  0
 46 47  1  0
 46 21  1  0
 48 46  1  0
 50 49  1  0
 51 62  2  0
 52 50  1  0
 52 57  1  0
 53 61  1  0
 53 63  1  0
 54 60  1  0
 54 56  1  0
 55 61  1  0
 56 57  2  0
 56 55  1  0
 58 52  2  0
 59 58  1  0
 59 54  2  0
 60 53  1  0
 61 51  1  0
 63 65  2  0
 64 63  1  0
 66 64  1  0
 67 76  2  0
 67 72  1  0
 68 64  1  0
 68 72  1  0
 69 68  1  0
 70 71  1  0
 70 69  1  0
 71 67  1  0
 72 73  2  0
 73 74  1  0
 75 74  2  0
 76 75  1  0
 77 51  1  0
 77 78  1  0
 77 87  1  0
 78 81  1  0
 79 83  1  0
 79 78  1  0
 80 79  2  0
 83 82  1  0
 85 83  1  0
 85 86  1  0
 85 84  1  0
 87 90  1  1
 87 88  1  0
 89 87  1  0
M  ISO  4  11 100  19 100  49 101  50 101
M  END
>  <TORSDO>  (54) 
F 18

>  <SCORE>  (54) 
-14.494

>  <name>  (54) 
54

>  <ligand_id>  (54) 
54

>  <original_smiles>  (54) 
[H]c1c(C([H])([H])[H])nc(C([H])([H])Oc2c([H])c([H])c3c(c2[H])C([H])([H])N(C(=O)C([H])(N([H])C(=O)C([H])(N([H])C([H])([H])[H])C([H])([H])[H])C(C([H])([H])[H])(C([H])([H])[H])C([H])([H])[H])C([H])(C(=O)N([H])C2([H])c4c([H])c([H])c([H])c([H])c4C([H])([H])C([H])([H])C2([H])[H])C3([H])[H])nc1C1([H])C([H])([H])C1([H])N([H])C(=O)N1C([H])([H])C([H])([H])C([H])([H])C([H])(n2nc(-c3c([H])c([H])c(Oc4c([H])c([H])c(F)c([H])c4F)c([H])c3[H])c(C(=O)N([H])[H])c2N([H])[H])C1([H])[H]

>  <smiles>  (54) 
[H]c1c(C([H])([H])[H])nc(C([H])([H])Oc2c([H])c([H])c3c(c2[H])C([H])([H])N(C(=O)C([H])(N([H])C(=O)C([H])(N([H])C([H])([H])[H])C([H])([H])[H])C(C([H])([H])[H])(C([H])([H])[H])C([H])([H])[H])C([H])(C(=O)N([H])C2([H])c4c([H])c([H])c([H])c([H])c4C([H])([H])C([H])([H])C2([H])[H])C3([H])[H])nc1C1([H])C([H])([H])C1([H])N([H])C(=O)N1C([H])([H])C([H])([H])C([H])([H])C([H])(n2nc(-c3c([H])c([H])c(Oc4c([H])c([H])c(F)c([H])c4F)c([H])c3[H])c(C(=O)N([H])[H])c2N([H])[H])C1([H])[H]

$$$$
55:0:0
     RDKit          3D

 96105  0  0  1  0  0  0  0  0999 V2000
  -28.2460  -23.8320   21.3880 C   0  0  0  0  0  3  0  0  0  0  0  0
  -29.3940  -21.8530   20.4840 C   0  0  0  0  0  3  0  0  0  0  0  0
  -29.6930  -22.7920   19.4120 C   0  0  0  0  0  3  0  0  0  0  0  0
  -28.5360  -24.7470   20.2990 C   0  0  0  0  0  0  0  0  0  0  0  0
  -28.6550  -22.4810   21.4760 N   0  0  0  0  0  0  0  0  0  0  0  0
  -29.2650  -24.1230   19.3160 N   0  0  0  0  0  0  0  0  0  0  0  0
  -30.5390  -19.0950   20.6960 C   0  0  0  0  0  0  0  0  0  0  0  0
  -30.3040  -20.5230   20.7100 C   0  0  0  0  0  3  0  0  0  0  0  0
  -32.0020  -18.6810   20.7200 C   0  0  0  0  0  2  0  0  0  0  0  0
  -32.4510  -18.1180   19.3380 C   0  0  0  0  0  2  0  0  0  0  0  0
  -29.9350  -17.4650   18.8570 C   0  0  0  0  0  2  0  0  0  0  0  0
  -29.8080  -17.6650   20.3740 C   0  0  0  0  0  3  0  0  0  0  0  0
  -31.3490  -17.7720   18.2670 C   0  0  1  0  0  0  0  0  0  0  0  0
  -31.1930  -18.9440   17.2820 C   0  0  0  0  0  1  0  0  0  0  0  0
  -31.8200  -16.5570   17.4390 C   0  0  0  0  0  1  0  0  0  0  0  0
  -30.8930  -15.0480   20.8200 C   0  0  0  0  0  0  0  0  0  0  0  0
  -30.8240  -12.6600   19.9540 C   0  0  0  0  0  2  0  0  0  0  0  0
  -30.0020  -12.6190   18.6430 C   0  0  0  0  0  2  0  0  0  0  0  0
  -28.5010  -12.4570   18.9480 C   0  0  0  0  0  2  0  0  0  0  0  0
  -28.0200  -13.4120   20.0720 C   0  0  0  0  0  3  0  0  0  0  0  0
  -28.9730  -13.4120   21.2870 C   0  0  0  0  0  2  0  0  0  0  0  0
  -30.3070  -13.7830   20.7970 N   0  0  0  0  0  0  0  0  0  0  0  0
  -32.0960  -15.1010   20.5430 O   0  0  0  0  0  0  0  0  0  0  0  0
  -30.0850  -16.2120   21.0090 N   0  0  0  0  0  0  0  0  0  0  0  0
  -29.2420  -15.9100   21.4750 H   0  0  0  0  0  0  0  0  0  0  0  0
  -25.5920  -14.0460   20.5780 C   0  0  0  0  0  0  0  0  0  0  0  0
  -24.4890  -13.2970   20.8790 C   0  0  0  0  0  0  0  0  0  0  0  0
  -24.9320  -11.9400   20.9330 C   0  0  0  0  0  0  0  0  0  0  0  0
  -26.6390  -13.1480   20.4570 N   0  0  0  0  0  0  0  0  0  0  0  0
  -26.2450  -11.8770   20.7360 N   0  0  0  0  0  0  0  0  0  0  0  0
  -24.1710  -10.6950   21.0960 C   0  0  0  0  0  0  0  0  0  0  0  0
  -24.5270   -9.7280   22.0630 C   0  0  0  0  0  3  0  0  0  0  0  0
  -23.7640   -8.5500   22.2130 C   0  0  0  0  0  3  0  0  0  0  0  0
  -22.6290   -8.3310   21.3970 C   0  0  0  0  0  0  0  0  0  0  0  0
  -22.2930   -9.2840   20.4190 C   0  0  0  0  0  3  0  0  0  0  0  0
  -23.0580  -10.4520   20.2670 C   0  0  0  0  0  3  0  0  0  0  0  0
  -21.8420   -7.2060   21.4570 O   0  0  0  0  0  0  0  0  0  0  0  0
  -21.7210   -6.4730   22.6110 C   0  0  0  0  0  0  0  0  0  0  0  0
  -21.2560   -7.0490   23.8130 C   0  0  0  0  0  3  0  0  0  0  0  0
  -21.0780   -6.2440   24.9570 C   0  0  0  0  0  3  0  0  0  0  0  0
  -21.3570   -4.8650   24.8980 C   0  0  0  0  0  0  0  0  0  0  0  0
  -21.8160   -4.2900   23.7010 C   0  0  0  0  0  3  0  0  0  0  0  0
  -21.9960   -5.0920   22.5600 C   0  0  0  0  0  0  0  0  0  0  0  0
  -22.4190   -4.5270   21.4030 F   0  0  0  0  0  0  0  0  0  0  0  0
  -21.1810   -4.0900   25.9940 F   0  0  0  0  0  0  0  0  0  0  0  0
  -23.0820  -13.8030   21.0110 C   0  0  0  0  0  0  0  0  0  0  0  0
  -22.2770  -13.1720   21.8580 N   0  0  0  0  0  0  0  0  0  0  0  0
  -22.7030  -14.7980   20.3950 O   0  0  0  0  0  0  0  0  0  0  0  0
  -22.5940  -12.3700   22.3820 H   0  0  0  0  0  0  0  0  0  0  0  0
  -21.3300  -13.4980   21.9860 H   0  0  0  0  0  0  0  0  0  0  0  0
  -25.7830  -15.4110   20.3790 N   0  0  0  0  0  0  0  0  0  0  0  0
  -25.0020  -16.0590   20.4060 H   0  0  0  0  0  0  0  0  0  0  0  0
  -26.6480  -15.8480   20.0890 H   0  0  0  0  0  0  0  0  0  0  0  0
  -31.6840  -23.4250   17.9170 C   0  0  0  0  0  1  0  0  0  0  0  0
  -30.6100  -22.3850   18.2620 C   0  0  0  0  0  2  0  0  0  0  0  0
  -28.4670  -26.2290   20.2760 O   0  0  0  0  0  0  0  0  0  0  0  0
  -24.5550  -31.8520   23.0700 C   0  0  0  0  0  0  0  0  0  0  0  0
  -27.3400  -27.1340   20.2150 C   0  0  0  0  0  0  0  0  0  0  0  0
  -23.4340  -30.3910   21.4300 C   0  0  0  0  0  3  0  0  0  0  0  0
  -24.9600  -28.8170   20.0780 C   0  0  0  0  0  0  0  0  0  0  0  0
  -25.9820  -30.7180   21.3230 C   0  0  0  0  0  2  0  0  0  0  0  0
  -26.1080  -29.3100   20.7100 C   0  0  0  0  0  0  0  0  0  0  0  0
  -27.2940  -28.4840   20.7600 C   0  0  0  0  0  3  0  0  0  0  0  0
  -26.1660  -26.7400   19.5400 C   0  0  0  0  0  3  0  0  0  0  0  0
  -25.0030  -27.5450   19.4790 C   0  0  0  0  0  3  0  0  0  0  0  0
  -23.7070  -29.6850   20.0730 C   0  0  0  0  0  2  0  0  0  0  0  0
  -24.6750  -31.0130   21.9960 N   0  0  0  0  0  0  0  0  0  0  0  0
  -23.4500  -32.1170   23.5690 O   0  0  0  0  0  0  0  0  0  0  0  0
  -22.7600  -29.3860   22.3980 C   0  0  0  0  0  0  0  0  0  0  0  0
  -21.4290  -29.2240   22.2860 N   0  0  0  0  0  0  0  0  0  0  0  0
  -23.4370  -28.7550   23.2130 O   0  0  0  0  0  0  0  0  0  0  0  0
  -20.9360  -29.7840   21.6040 H   0  0  0  0  0  0  0  0  0  0  0  0
  -18.0400  -28.0900   22.8800 C   0  0  0  0  0  0  0  0  0  0  0  0
  -20.6130  -28.2880   23.0650 C   0  0  0  0  0  3  0  0  0  0  0  0
  -20.6600  -26.8670   22.4580 C   0  0  0  0  0  2  0  0  0  0  0  0
  -19.5190  -26.5920   21.4730 C   0  0  0  0  0  2  0  0  0  0  0  0
  -18.1630  -26.7530   22.1660 C   0  0  0  0  0  2  0  0  0  0  0  0
  -19.1910  -28.8160   23.2880 C   0  0  0  0  0  0  0  0  0  0  0  0
  -19.0200  -30.0680   23.9200 C   0  0  0  0  0  3  0  0  0  0  0  0
  -17.7340  -30.5920   24.1440 C   0  0  0  0  0  3  0  0  0  0  0  0
  -16.5980  -29.8630   23.7490 C   0  0  0  0  0  3  0  0  0  0  0  0
  -16.7540  -28.6120   23.1230 C   0  0  0  0  0  3  0  0  0  0  0  0
  -25.8000  -32.5370   23.7140 C   0  0  0  0  0  3  0  0  0  0  0  0
  -25.4260  -33.9180   24.0540 N   0  0  0  0  0  0  0  0  0  0  0  0
  -25.7550  -35.0000   23.3350 C   0  0  0  0  0  0  0  0  0  0  0  0
  -26.4710  -34.9420   22.3320 O   0  0  0  0  0  0  0  0  0  0  0  0
  -24.7910  -34.0350   24.8300 H   0  0  0  0  0  0  0  0  0  0  0  0
  -23.9990  -36.7590   22.9350 C   0  0  0  0  0  1  0  0  0  0  0  0
  -25.2040  -36.3630   23.8020 C   0  0  0  0  0  3  0  0  0  0  0  0
  -27.2650  -37.2810   24.7700 C   0  0  0  0  0  1  0  0  0  0  0  0
  -26.2120  -37.4460   23.7730 N   0  0  0  0  0  0  0  0  0  0  0  0
  -25.7720  -38.3500   23.9240 H   0  0  0  0  0  0  0  0  0  0  0  0
  -26.3280  -31.7820   24.9960 C   0  0  1  0  0  0  0  0  0  0  0  0
  -25.2310  -31.4990   26.0490 C   0  0  0  0  0  1  0  0  0  0  0  0
  -26.9710  -30.4290   24.6140 C   0  0  0  0  0  1  0  0  0  0  0  0
  -27.4350  -32.6200   25.6780 C   0  0  0  0  0  1  0  0  0  0  0  0
  1  5  2  0
  2  8  1  0
  2  5  1  0
  3 55  1  0
  3  2  1  0
  4  1  1  0
  6  3  1  0
  6  4  2  0
  7  8  2  0
  7  9  1  0
 10  9  1  0
 11 12  1  0
 12  7  1  0
 12 24  1  0
 13 11  1  0
 13 10  1  0
 13 14  1  6
 15 13  1  0
 16 24  1  0
 17 22  1  0
 18 19  1  0
 18 17  1  0
 20 19  1  0
 20 29  1  0
 20 21  1  0
 22 16  1  0
 22 21  1  0
 23 16  2  0
 24 25  1  0
 26 27  2  0
 27 28  1  0
 27 46  1  0
 28 31  1  0
 29 26  1  0
 29 30  1  0
 30 28  2  0
 31 32  1  0
 32 33  2  0
 34 37  1  0
 34 33  1  0
 35 34  2  0
 36 35  1  0
 36 31  2  0
 37 38  1  0
 38 39  1  0
 39 40  2  0
 41 40  1  0
 41 45  1  0
 42 41  2  0
 43 38  2  0
 43 42  1  0
 44 43  1  0
 46 47  1  0
 47 50  1  0
 47 49  1  0
 48 46  2  0
 51 52  1  0
 51 26  1  0
 53 51  1  0
 54 55  1  0
 56  4  1  0
 57 68  2  0
 58 56  1  0
 58 63  1  0
 59 67  1  0
 59 69  1  0
 60 62  1  0
 61 67  1  0
 62 63  2  0
 62 61  1  0
 64 58  2  0
 65 64  1  0
 65 60  2  0
 66 60  1  0
 66 59  1  0
 67 57  1  0
 69 71  2  0
 70 69  1  0
 72 70  1  0
 73 82  2  0
 73 78  1  0
 74 70  1  0
 74 78  1  0
 75 74  1  0
 76 77  1  0
 76 75  1  0
 77 73  1  0
 78 79  2  0
 79 80  1  0
 81 80  2  0
 82 81  1  0
 83 57  1  0
 83 84  1  0
 83 93  1  0
 84 87  1  0
 85 89  1  0
 85 84  1  0
 86 85  2  0
 89 88  1  0
 91 89  1  0
 91 92  1  0
 91 90  1  0
 93 96  1  1
 93 94  1  0
 95 93  1  0
M  ISO  4   4 101  16 100  24 100  56 101
M  END
>  <TORSDO>  (55) 
F 18

>  <SCORE>  (55) 
-14.666

>  <name>  (55) 
55

>  <ligand_id>  (55) 
55

>  <original_smiles>  (55) 
[H]C(=C1C([H])([H])C([H])([H])C(C([H])([H])[H])(C([H])([H])[H])C([H])([H])C1([H])N([H])C(=O)N1C([H])([H])C([H])([H])C([H])([H])C([H])(n2nc(-c3c([H])c([H])c(Oc4c([H])c([H])c(F)c([H])c4F)c([H])c3[H])c(C(=O)N([H])[H])c2N([H])[H])C1([H])[H])c1nc([H])c(Oc2c([H])c([H])c3c(c2[H])C([H])([H])N(C(=O)C([H])(N([H])C(=O)C([H])(N([H])C([H])([H])[H])C([H])([H])[H])C(C([H])([H])[H])(C([H])([H])[H])C([H])([H])[H])C([H])(C(=O)N([H])C2([H])c4c([H])c([H])c([H])c([H])c4C([H])([H])C([H])([H])C2([H])[H])C3([H])[H])nc1C([H])([H])C([H])([H])[H]

>  <smiles>  (55) 
[H]C(=C1C([H])([H])C([H])([H])C(C([H])([H])[H])(C([H])([H])[H])C([H])([H])C1([H])N([H])C(=O)N1C([H])([H])C([H])([H])C([H])([H])C([H])(n2nc(-c3c([H])c([H])c(Oc4c([H])c([H])c(F)c([H])c4F)c([H])c3[H])c(C(=O)N([H])[H])c2N([H])[H])C1([H])[H])c1nc([H])c(Oc2c([H])c([H])c3c(c2[H])C([H])([H])N(C(=O)C([H])(N([H])C(=O)C([H])(N([H])C([H])([H])[H])C([H])([H])[H])C(C([H])([H])[H])(C([H])([H])[H])C([H])([H])[H])C([H])(C(=O)N([H])C2([H])c4c([H])c([H])c([H])c([H])c4C([H])([H])C([H])([H])C2([H])[H])C3([H])[H])nc1C([H])([H])C([H])([H])[H]

$$$$
56:0:0
     RDKit          3D

 97106  0  0  1  0  0  0  0  0999 V2000
  -27.5260  -23.3880   19.3600 C   0  0  0  0  0  3  0  0  0  0  0  0
  -28.5730  -24.2360   19.7580 C   0  0  0  0  0  0  0  0  0  0  0  0
  -29.6070  -23.6060   20.4800 C   0  0  0  0  0  0  0  0  0  0  0  0
  -28.5780  -21.5670   20.2560 C   0  0  0  0  0  0  0  0  0  0  0  0
  -29.8130  -19.4230   20.8400 C   0  0  0  0  0  2  0  0  0  0  0  0
  -27.6750  -19.2730   19.7850 C   0  0  0  0  0  2  0  0  0  0  0  0
  -29.6370  -17.9580   20.3590 C   0  0  0  0  0  3  0  0  0  0  0  0
  -28.1100  -17.8530   20.1790 C   0  0  0  0  0  3  0  0  0  0  0  0
  -30.8220  -24.3610   20.9800 C   0  0  0  0  0  1  0  0  0  0  0  0
  -27.5350  -22.0610   19.6060 N   0  0  0  0  0  0  0  0  0  0  0  0
  -29.5960  -22.2740   20.7220 N   0  0  0  0  0  0  0  0  0  0  0  0
  -28.6380  -20.1790   20.3980 N   0  0  0  0  0  0  0  0  0  0  0  0
  -27.7030  -16.8660   19.1650 N   0  0  0  0  0  4  0  0  0  0  0  0
  -28.3540  -16.1050   19.1440 H   0  0  0  0  0  0  0  0  0  0  0  0
  -27.6670  -17.2780   18.2490 H   0  0  0  0  0  0  0  0  0  0  0  0
  -26.7900  -16.4750   19.3860 H   0  0  0  0  0  0  0  0  0  0  0  0
  -28.6440  -25.6950   19.2740 C   0  0  0  0  0  2  0  0  0  0  0  0
  -28.3940  -26.7120   20.2630 O   0  0  0  0  0  0  0  0  0  0  0  0
  -24.5500  -31.9200   23.2580 C   0  0  0  0  0  0  0  0  0  0  0  0
  -27.2090  -27.4290   20.2330 C   0  0  0  0  0  0  0  0  0  0  0  0
  -23.3550  -30.5060   21.6180 C   0  0  0  0  0  3  0  0  0  0  0  0
  -24.8150  -28.9530   20.2190 C   0  0  0  0  0  0  0  0  0  0  0  0
  -25.8850  -30.8530   21.4410 C   0  0  0  0  0  2  0  0  0  0  0  0
  -25.9700  -29.4720   20.8160 C   0  0  0  0  0  0  0  0  0  0  0  0
  -27.1640  -28.7140   20.8280 C   0  0  0  0  0  3  0  0  0  0  0  0
  -26.0250  -26.9210   19.6480 C   0  0  0  0  0  3  0  0  0  0  0  0
  -24.8380  -27.6760   19.6350 C   0  0  0  0  0  3  0  0  0  0  0  0
  -23.5740  -29.8170   20.2450 C   0  0  0  0  0  2  0  0  0  0  0  0
  -24.6140  -31.1100   22.1640 N   0  0  0  0  0  0  0  0  0  0  0  0
  -23.4640  -32.1980   23.7860 O   0  0  0  0  0  0  0  0  0  0  0  0
  -22.6950  -29.4940   22.5830 C   0  0  0  0  0  0  0  0  0  0  0  0
  -21.3700  -29.3160   22.4500 N   0  0  0  0  0  0  0  0  0  0  0  0
  -23.3720  -28.8720   23.4050 O   0  0  0  0  0  0  0  0  0  0  0  0
  -20.8860  -29.8690   21.7580 H   0  0  0  0  0  0  0  0  0  0  0  0
  -17.9830  -28.1640   22.9640 C   0  0  0  0  0  0  0  0  0  0  0  0
  -20.5460  -28.3860   23.2240 C   0  0  0  0  0  3  0  0  0  0  0  0
  -20.6240  -26.9550   22.6430 C   0  0  0  0  0  2  0  0  0  0  0  0
  -19.5140  -26.6510   21.6330 C   0  0  0  0  0  2  0  0  0  0  0  0
  -18.1360  -26.8140   22.2840 C   0  0  0  0  0  2  0  0  0  0  0  0
  -19.1150  -28.9080   23.3910 C   0  0  0  0  0  0  0  0  0  0  0  0
  -18.9160  -30.1740   23.9850 C   0  0  0  0  0  3  0  0  0  0  0  0
  -17.6200  -30.6930   24.1570 C   0  0  0  0  0  3  0  0  0  0  0  0
  -16.5030  -29.9450   23.7470 C   0  0  0  0  0  3  0  0  0  0  0  0
  -16.6860  -28.6820   23.1570 C   0  0  0  0  0  3  0  0  0  0  0  0
  -25.8310  -32.5550   23.8830 C   0  0  0  0  0  3  0  0  0  0  0  0
  -26.3360  -31.7980   25.1710 C   0  0  1  0  0  0  0  0  0  0  0  0
  -25.2330  -31.5710   26.2330 C   0  0  0  0  0  1  0  0  0  0  0  0
  -26.9230  -30.4170   24.7980 C   0  0  0  0  0  1  0  0  0  0  0  0
  -27.4810  -32.5980   25.8350 C   0  0  0  0  0  1  0  0  0  0  0  0
  -25.5220  -33.9570   24.1930 N   0  0  0  0  0  0  0  0  0  0  0  0
  -25.8820  -35.0010   23.4320 C   0  0  0  0  0  0  0  0  0  0  0  0
  -26.5770  -34.8830   22.4190 O   0  0  0  0  0  0  0  0  0  0  0  0
  -24.9080  -34.1230   24.9760 H   0  0  0  0  0  0  0  0  0  0  0  0
  -24.1900  -36.8100   22.9970 C   0  0  0  0  0  1  0  0  0  0  0  0
  -25.3910  -36.3960   23.8630 C   0  0  0  0  0  3  0  0  0  0  0  0
  -27.4960  -37.2620   24.7830 C   0  0  0  0  0  1  0  0  0  0  0  0
  -26.4390  -37.4370   23.7910 N   0  0  0  0  0  0  0  0  0  0  0  0
  -26.0360  -38.3620   23.9170 H   0  0  0  0  0  0  0  0  0  0  0  0
  -30.3090  -16.9180   21.3190 C   0  0  0  0  0  2  0  0  0  0  0  0
  -30.7060  -14.5270   20.5340 C   0  0  0  0  0  0  0  0  0  0  0  0
  -30.4490  -12.3840   19.3340 C   0  0  0  0  0  2  0  0  0  0  0  0
  -29.4990  -12.6120   18.1380 C   0  0  0  0  0  2  0  0  0  0  0  0
  -28.0280  -12.4410   18.5670 C   0  0  0  0  0  2  0  0  0  0  0  0
  -27.6860  -13.2390   19.8550 C   0  0  0  0  0  3  0  0  0  0  0  0
  -28.7480  -12.9960   20.9510 C   0  0  0  0  0  2  0  0  0  0  0  0
  -30.0660  -13.3360   20.3870 N   0  0  0  0  0  0  0  0  0  0  0  0
  -31.8220  -14.7570   20.0600 O   0  0  0  0  0  0  0  0  0  0  0  0
  -29.9570  -15.4990   21.0940 N   0  0  0  0  0  0  0  0  0  0  0  0
  -29.0960  -15.1740   21.5110 H   0  0  0  0  0  0  0  0  0  0  0  0
  -25.2860  -13.8330   20.5640 C   0  0  0  0  0  0  0  0  0  0  0  0
  -24.2230  -13.0480   20.9240 C   0  0  0  0  0  0  0  0  0  0  0  0
  -24.6960  -11.7000   20.8840 C   0  0  0  0  0  0  0  0  0  0  0  0
  -26.3380  -12.9580   20.3300 N   0  0  0  0  0  0  0  0  0  0  0  0
  -25.9860  -11.6720   20.5770 N   0  0  0  0  0  0  0  0  0  0  0  0
  -23.9820  -10.4300   21.0630 C   0  0  0  0  0  0  0  0  0  0  0  0
  -24.4160   -9.4660   22.0000 C   0  0  0  0  0  3  0  0  0  0  0  0
  -23.7020   -8.2610   22.1670 C   0  0  0  0  0  3  0  0  0  0  0  0
  -22.5410   -8.0100   21.4000 C   0  0  0  0  0  0  0  0  0  0  0  0
  -22.1270   -8.9640   20.4520 C   0  0  0  0  0  3  0  0  0  0  0  0
  -22.8410  -10.1610   20.2830 C   0  0  0  0  0  3  0  0  0  0  0  0
  -21.7990   -6.8560   21.4740 O   0  0  0  0  0  0  0  0  0  0  0  0
  -21.7340   -6.1180   22.6290 C   0  0  0  0  0  0  0  0  0  0  0  0
  -21.2390   -6.6610   23.8340 C   0  0  0  0  0  3  0  0  0  0  0  0
  -21.1230   -5.8460   24.9780 C   0  0  0  0  0  3  0  0  0  0  0  0
  -21.4960   -4.4900   24.9180 C   0  0  0  0  0  0  0  0  0  0  0  0
  -21.9850   -3.9470   23.7170 C   0  0  0  0  0  3  0  0  0  0  0  0
  -22.1010   -4.7580   22.5740 C   0  0  0  0  0  0  0  0  0  0  0  0
  -22.5520   -4.2260   21.4140 F   0  0  0  0  0  0  0  0  0  0  0  0
  -21.3790   -3.7040   26.0140 F   0  0  0  0  0  0  0  0  0  0  0  0
  -22.8230  -13.5130   21.2060 C   0  0  0  0  0  0  0  0  0  0  0  0
  -22.0980  -12.8010   22.0630 N   0  0  0  0  0  0  0  0  0  0  0  0
  -22.3890  -14.5460   20.7030 O   0  0  0  0  0  0  0  0  0  0  0  0
  -22.4650  -11.9660   22.4950 H   0  0  0  0  0  0  0  0  0  0  0  0
  -21.1580  -13.0950   22.2880 H   0  0  0  0  0  0  0  0  0  0  0  0
  -25.4400  -15.2130   20.4080 N   0  0  0  0  0  0  0  0  0  0  0  0
  -25.4920  -15.5680   21.3590 H   0  0  0  0  0  0  0  0  0  0  0  0
  -24.5150  -15.5260   20.1200 H   0  0  0  0  0  0  0  0  0  0  0  0
  1 10  1  0
  1  2  2  0
  2  3  1  0
  3 11  2  0
  3  9  1  0
  4 12  1  0
  4 11  1  0
  6  8  1  0
  6 12  1  0
  7  5  1  0
  7 59  1  0
  8 13  1  0
  8  7  1  0
 10  4  2  0
 12  5  1  0
 13 16  1  0
 14 13  1  0
 15 13  1  0
 17  2  1  0
 17 18  1  0
 19 30  2  0
 20 18  1  0
 20 25  1  0
 21 29  1  0
 21 31  1  0
 22 28  1  0
 22 24  1  0
 23 29  1  0
 24 25  2  0
 24 23  1  0
 26 20  2  0
 27 26  1  0
 27 22  2  0
 28 21  1  0
 29 19  1  0
 31 33  2  0
 32 31  1  0
 34 32  1  0
 35 44  2  0
 35 40  1  0
 36 32  1  0
 36 40  1  0
 37 36  1  0
 38 39  1  0
 38 37  1  0
 39 35  1  0
 40 41  2  0
 41 42  1  0
 43 42  2  0
 44 43  1  0
 45 19  1  0
 45 50  1  0
 45 46  1  0
 46 49  1  1
 46 47  1  0
 48 46  1  0
 50 53  1  0
 51 55  1  0
 51 50  1  0
 52 51  2  0
 55 54  1  0
 57 55  1  0
 57 58  1  0
 57 56  1  0
 60 68  1  0
 61 66  1  0
 62 63  1  0
 62 61  1  0
 64 63  1  0
 64 73  1  0
 64 65  1  0
 66 60  1  0
 66 65  1  0
 67 60  2  0
 68 59  1  0
 68 69  1  0
 70 71  2  0
 71 90  1  0
 72 71  1  0
 72 75  1  0
 73 70  1  0
 73 74  1  0
 74 72  2  0
 75 76  1  0
 76 77  2  0
 78 81  1  0
 78 77  1  0
 79 78  2  0
 80 79  1  0
 80 75  2  0
 81 82  1  0
 82 83  1  0
 83 84  2  0
 85 84  1  0
 85 89  1  0
 86 85  2  0
 87 82  2  0
 87 86  1  0
 88 87  1  0
 90 91  1  0
 91 94  1  0
 91 93  1  0
 92 90  2  0
 95 70  1  0
 95 96  1  0
 97 95  1  0
M  ISO  4  17 101  18 101  60 100  68 100
M  END
>  <TORSDO>  (56) 
F 19

>  <SCORE>  (56) 
-15.038

>  <name>  (56) 
56

>  <ligand_id>  (56) 
56

>  <original_smiles>  (56) 
[H]c1nc(N2C([H])([H])C([H])(C([H])([H])N([H])C(=O)N3C([H])([H])C([H])([H])C([H])([H])C([H])(n4nc(-c5c([H])c([H])c(Oc6c([H])c([H])c(F)c([H])c6F)c([H])c5[H])c(C(=O)N([H])[H])c4N([H])[H])C3([H])[H])C([H])([N+]([H])([H])[H])C2([H])[H])nc(C([H])([H])[H])c1C([H])([H])Oc1c([H])c([H])c2c(c1[H])C([H])([H])N(C(=O)C([H])(N([H])C(=O)C([H])(N([H])C([H])([H])[H])C([H])([H])[H])C(C([H])([H])[H])(C([H])([H])[H])C([H])([H])[H])C([H])(C(=O)N([H])C1([H])c3c([H])c([H])c([H])c([H])c3C([H])([H])C([H])([H])C1([H])[H])C2([H])[H]

>  <smiles>  (56) 
[H]c1nc(N2C([H])([H])C([H])(C([H])([H])N([H])C(=O)N3C([H])([H])C([H])([H])C([H])([H])C([H])(n4nc(-c5c([H])c([H])c(Oc6c([H])c([H])c(F)c([H])c6F)c([H])c5[H])c(C(=O)N([H])[H])c4N([H])[H])C3([H])[H])C([H])([N+]([H])([H])[H])C2([H])[H])nc(C([H])([H])[H])c1C([H])([H])Oc1c([H])c([H])c2c(c1[H])C([H])([H])N(C(=O)C([H])(N([H])C(=O)C([H])(N([H])C([H])([H])[H])C([H])([H])[H])C(C([H])([H])[H])(C([H])([H])[H])C([H])([H])[H])C([H])(C(=O)N([H])C1([H])c3c([H])c([H])c([H])c([H])c3C([H])([H])C([H])([H])C1([H])[H])C2([H])[H]

$$$$
57:0:0
     RDKit          3D

 93102  0  0  1  0  0  0  0  0999 V2000
  -29.5250  -18.9320   18.6750 C   0  0  0  0  0  2  0  0  0  0  0  0
  -29.8700  -19.5980   20.8470 C   0  0  0  0  0  3  0  0  0  0  0  0
  -30.2880  -18.2560   19.8870 C   0  0  0  0  0  3  0  0  0  0  0  0
  -29.8450  -21.0980   20.0260 C   0  0  0  0  0  3  0  0  0  0  0  0
  -29.4410  -20.4840   18.7050 N   0  0  1  0  0  4  0  0  0  0  0  0
  -28.4600  -20.6850   18.5860 H   0  0  0  0  0  0  0  0  0  0  0  0
  -30.8520  -15.3200   20.0950 C   0  0  0  0  0  0  0  0  0  0  0  0
  -30.8040  -12.8300   19.3520 C   0  0  0  0  0  2  0  0  0  0  0  0
  -29.8750  -12.5740   18.1370 C   0  0  0  0  0  2  0  0  0  0  0  0
  -28.4300  -12.3240   18.6020 C   0  0  0  0  0  2  0  0  0  0  0  0
  -27.9890  -13.3480   19.6780 C   0  0  0  0  0  3  0  0  0  0  0  0
  -29.0440  -13.5550   20.7860 C   0  0  0  0  0  2  0  0  0  0  0  0
  -30.2750  -14.0170   20.1230 N   0  0  0  0  0  0  0  0  0  0  0  0
  -32.0680  -15.2980   19.8550 O   0  0  0  0  0  0  0  0  0  0  0  0
  -30.0920  -16.5990   20.1390 N   0  0  0  0  0  0  0  0  0  0  0  0
  -29.1220  -16.3890   20.3260 H   0  0  0  0  0  0  0  0  0  0  0  0
  -25.6540  -13.9660   20.4920 C   0  0  0  0  0  0  0  0  0  0  0  0
  -24.5760  -13.2160   20.8710 C   0  0  0  0  0  0  0  0  0  0  0  0
  -25.0000  -11.8530   20.8090 C   0  0  0  0  0  0  0  0  0  0  0  0
  -26.6630  -13.0640   20.2120 N   0  0  0  0  0  0  0  0  0  0  0  0
  -26.2840  -11.7840   20.4720 N   0  0  0  0  0  0  0  0  0  0  0  0
  -24.2370  -10.6090   20.9890 C   0  0  0  0  0  0  0  0  0  0  0  0
  -24.6300   -9.6300   21.9270 C   0  0  0  0  0  3  0  0  0  0  0  0
  -23.8640   -8.4560   22.0970 C   0  0  0  0  0  3  0  0  0  0  0  0
  -22.6930   -8.2530   21.3300 C   0  0  0  0  0  0  0  0  0  0  0  0
  -22.3200   -9.2210   20.3800 C   0  0  0  0  0  3  0  0  0  0  0  0
  -23.0850  -10.3860   20.2080 C   0  0  0  0  0  3  0  0  0  0  0  0
  -21.9010   -7.1330   21.4100 O   0  0  0  0  0  0  0  0  0  0  0  0
  -21.7670   -6.4280   22.5800 C   0  0  0  0  0  0  0  0  0  0  0  0
  -21.2850   -7.0310   23.7620 C   0  0  0  0  0  3  0  0  0  0  0  0
  -21.0980   -6.2550   24.9230 C   0  0  0  0  0  3  0  0  0  0  0  0
  -21.3800   -4.8760   24.9030 C   0  0  0  0  0  0  0  0  0  0  0  0
  -21.8560   -4.2720   23.7240 C   0  0  0  0  0  3  0  0  0  0  0  0
  -22.0440   -5.0460   22.5670 C   0  0  0  0  0  0  0  0  0  0  0  0
  -22.4810   -4.4560   21.4280 F   0  0  0  0  0  0  0  0  0  0  0  0
  -21.1940   -4.1280   26.0140 F   0  0  0  0  0  0  0  0  0  0  0  0
  -23.1990  -13.7310   21.1720 C   0  0  0  0  0  0  0  0  0  0  0  0
  -22.4700  -13.0560   22.0530 N   0  0  0  0  0  0  0  0  0  0  0  0
  -22.7810  -14.7680   20.6590 O   0  0  0  0  0  0  0  0  0  0  0  0
  -22.8230  -12.2200   22.4900 H   0  0  0  0  0  0  0  0  0  0  0  0
  -21.5450  -13.3830   22.2960 H   0  0  0  0  0  0  0  0  0  0  0  0
  -25.8530  -15.3350   20.3340 N   0  0  0  0  0  0  0  0  0  0  0  0
  -25.0970  -16.0010   20.4530 H   0  0  0  0  0  0  0  0  0  0  0  0
  -26.6890  -15.7500   19.9470 H   0  0  0  0  0  0  0  0  0  0  0  0
  -29.4160  -20.9590   16.2330 C   0  0  0  0  0  2  0  0  0  0  0  0
  -29.4140  -22.2910   16.9510 C   0  0  0  0  0  2  0  0  0  0  0  0
  -30.1380  -21.1060   17.5540 C   0  0  0  0  0  3  0  0  0  0  0  0
  -30.6760  -18.3440   22.9400 C   0  0  0  0  0  1  0  0  0  0  0  0
  -30.6930  -19.6610   22.1470 C   0  0  0  0  0  2  0  0  0  0  0  0
  -27.7850  -22.4600   21.0840 C   0  0  0  0  0  1  0  0  0  0  0  0
  -29.1930  -22.7280   20.5340 C   0  0  0  0  0  3  0  0  0  0  0  0
  -29.0830  -24.3930   19.8320 C   0  0  0  0  0  2  0  0  0  0  0  0
  -28.8610  -25.9510   20.3430 O   0  0  0  0  0  0  0  0  0  0  0  0
  -24.8290  -31.6370   23.1730 C   0  0  0  0  0  0  0  0  0  0  0  0
  -27.7860  -26.9710   20.1840 C   0  0  0  0  0  0  0  0  0  0  0  0
  -23.7890  -30.2150   21.4520 C   0  0  0  0  0  3  0  0  0  0  0  0
  -25.3880  -28.7210   20.0640 C   0  0  0  0  0  0  0  0  0  0  0  0
  -26.3420  -30.5610   21.4390 C   0  0  0  0  0  2  0  0  0  0  0  0
  -26.5170  -29.1740   20.7550 C   0  0  0  0  0  0  0  0  0  0  0  0
  -27.7020  -28.3170   20.8000 C   0  0  0  0  0  3  0  0  0  0  0  0
  -26.6260  -26.6660   19.4380 C   0  0  0  0  0  3  0  0  0  0  0  0
  -25.4650  -27.4890   19.3920 C   0  0  0  0  0  3  0  0  0  0  0  0
  -24.1180  -29.5720   20.0740 C   0  0  0  0  0  2  0  0  0  0  0  0
  -25.0030  -30.8310   22.0760 N   0  0  0  0  0  0  0  0  0  0  0  0
  -23.7050  -31.8600   23.6470 O   0  0  0  0  0  0  0  0  0  0  0  0
  -23.1020  -29.1670   22.3640 C   0  0  0  0  0  0  0  0  0  0  0  0
  -21.7840  -28.9610   22.1950 N   0  0  0  0  0  0  0  0  0  0  0  0
  -23.7650  -28.5390   23.1930 O   0  0  0  0  0  0  0  0  0  0  0  0
  -21.3010  -29.5190   21.5050 H   0  0  0  0  0  0  0  0  0  0  0  0
  -18.4270  -27.6460   22.5910 C   0  0  0  0  0  0  0  0  0  0  0  0
  -20.9730  -27.9730   22.9150 C   0  0  0  0  0  3  0  0  0  0  0  0
  -21.1270  -26.5700   22.2870 C   0  0  0  0  0  2  0  0  0  0  0  0
  -20.0530  -26.2570   21.2390 C   0  0  0  0  0  2  0  0  0  0  0  0
  -18.6560  -26.3330   21.8610 C   0  0  0  0  0  2  0  0  0  0  0  0
  -19.5140  -28.4240   23.0710 C   0  0  0  0  0  0  0  0  0  0  0  0
  -19.2440  -29.6500   23.7190 C   0  0  0  0  0  3  0  0  0  0  0  0
  -17.9220  -30.1000   23.8860 C   0  0  0  0  0  3  0  0  0  0  0  0
  -16.8490  -29.3200   23.4230 C   0  0  0  0  0  3  0  0  0  0  0  0
  -17.1020  -28.0940   22.7810 C   0  0  0  0  0  3  0  0  0  0  0  0
  -26.0360  -32.3310   23.8760 C   0  0  0  0  0  3  0  0  0  0  0  0
  -26.5040  -31.5850   25.1880 C   0  0  1  0  0  0  0  0  0  0  0  0
  -25.3540  -31.3080   26.1830 C   0  0  0  0  0  1  0  0  0  0  0  0
  -27.1650  -30.2300   24.8510 C   0  0  0  0  0  1  0  0  0  0  0  0
  -27.5790  -32.4260   25.9150 C   0  0  0  0  0  1  0  0  0  0  0  0
  -25.6410  -33.7160   24.1960 N   0  0  0  0  0  0  0  0  0  0  0  0
  -25.9550  -34.7930   23.4630 C   0  0  0  0  0  0  0  0  0  0  0  0
  -26.6650  -34.7280   22.4560 O   0  0  0  0  0  0  0  0  0  0  0  0
  -25.0150  -33.8380   24.9780 H   0  0  0  0  0  0  0  0  0  0  0  0
  -24.1500  -36.5050   23.0750 C   0  0  0  0  0  1  0  0  0  0  0  0
  -25.3900  -36.1560   23.9130 C   0  0  0  0  0  3  0  0  0  0  0  0
  -27.4560  -37.1450   24.8010 C   0  0  0  0  0  1  0  0  0  0  0  0
  -26.3720  -37.2600   23.8280 N   0  0  0  0  0  0  0  0  0  0  0  0
  -25.9160  -38.1590   23.9650 H   0  0  0  0  0  0  0  0  0  0  0  0
  1  5  1  0
  1  3  1  0
  2 49  1  0
  3 15  1  0
  3  2  1  0
  4 51  1  0
  4  2  1  0
  5  6  1  6
  5  4  1  0
  7 13  1  0
  7 15  1  0
  8 13  1  0
  9 10  1  0
  9  8  1  0
 11 10  1  0
 11 20  1  0
 11 12  1  0
 13 12  1  0
 14  7  2  0
 15 16  1  0
 17 18  2  0
 18 37  1  0
 19 18  1  0
 19 22  1  0
 20 21  1  0
 20 17  1  0
 21 19  2  0
 22 23  1  0
 23 24  2  0
 25 28  1  0
 25 24  1  0
 26 25  2  0
 27 26  1  0
 27 22  2  0
 28 29  1  0
 29 30  1  0
 30 31  2  0
 32 31  1  0
 32 36  1  0
 33 32  2  0
 34 29  2  0
 34 33  1  0
 35 34  1  0
 37 38  1  0
 38 41  1  0
 38 40  1  0
 39 37  2  0
 42 43  1  0
 42 17  1  0
 44 42  1  0
 45 46  1  0
 45 47  1  0
 46 47  1  0
 47  5  1  0
 49 48  1  0
 51 50  1  0
 52 53  1  0
 52 51  1  0
 54 65  2  0
 55 53  1  0
 55 60  1  0
 56 64  1  0
 56 66  1  0
 57 63  1  0
 57 59  1  0
 58 64  1  0
 59 60  2  0
 59 58  1  0
 61 55  2  0
 62 61  1  0
 62 57  2  0
 63 56  1  0
 64 54  1  0
 66 68  2  0
 67 66  1  0
 69 67  1  0
 70 79  2  0
 70 75  1  0
 71 67  1  0
 71 75  1  0
 72 71  1  0
 73 74  1  0
 73 72  1  0
 74 70  1  0
 75 76  2  0
 76 77  1  0
 78 77  2  0
 79 78  1  0
 80 54  1  0
 80 85  1  0
 80 81  1  0
 81 84  1  1
 81 82  1  0
 83 81  1  0
 85 88  1  0
 86 90  1  0
 86 85  1  0
 87 86  2  0
 90 89  1  0
 92 90  1  0
 92 93  1  0
 92 91  1  0
M  ISO  4   7 100  15 100  52 101  53 101
M  END
>  <TORSDO>  (57) 
F 20

>  <SCORE>  (57) 
-14.834

>  <name>  (57) 
57

>  <ligand_id>  (57) 
57

>  <original_smiles>  (57) 
[H]c1c([H])c([H])c2c(c1[H])C([H])([H])C([H])([H])C([H])([H])C2([H])N([H])C(=O)C1([H])N(C(=O)C([H])(N([H])C(=O)C([H])(N([H])C([H])([H])[H])C([H])([H])[H])C(C([H])([H])[H])(C([H])([H])[H])C([H])([H])[H])C([H])([H])c2c([H])c(OC([H])([H])C([H])(C([H])([H])[H])C3([H])C([H])(C([H])([H])C([H])([H])[H])C([H])(N([H])C(=O)N4C([H])([H])C([H])([H])C([H])([H])C([H])(n5nc(-c6c([H])c([H])c(Oc7c([H])c([H])c(F)c([H])c7F)c([H])c6[H])c(C(=O)N([H])[H])c5N([H])[H])C4([H])[H])C([H])([H])[N+]3([H])C3([H])C([H])([H])C3([H])[H])c([H])c([H])c2C1([H])[H]

>  <smiles>  (57) 
[H]c1c([H])c([H])c2c(c1[H])C([H])([H])C([H])([H])C([H])([H])C2([H])N([H])C(=O)C1([H])N(C(=O)C([H])(N([H])C(=O)C([H])(N([H])C([H])([H])[H])C([H])([H])[H])C(C([H])([H])[H])(C([H])([H])[H])C([H])([H])[H])C([H])([H])c2c([H])c(OC([H])([H])C([H])(C([H])([H])[H])C3([H])C([H])(C([H])([H])C([H])([H])[H])C([H])(N([H])C(=O)N4C([H])([H])C([H])([H])C([H])([H])C([H])(n5nc(-c6c([H])c([H])c(Oc7c([H])c([H])c(F)c([H])c7F)c([H])c6[H])c(C(=O)N([H])[H])c5N([H])[H])C4([H])[H])C([H])([H])[N+]3([H])C3([H])C([H])([H])C3([H])[H])c([H])c([H])c2C1([H])[H]

$$$$
58:0:0
     RDKit          3D

 92101  0  0  1  0  0  0  0  0999 V2000
  -29.6230  -22.7860   19.6440 C   0  0  0  0  0  3  0  0  0  0  0  0
  -28.7160  -23.9180   19.7720 C   0  0  0  0  0  0  0  0  0  0  0  0
  -29.2070  -21.4500   19.9990 C   0  0  0  0  0  0  0  0  0  0  0  0
  -27.1700  -22.3790   20.5510 C   0  0  0  0  0  0  0  0  0  0  0  0
  -25.7520  -22.1100   21.0140 C   0  0  0  0  0  1  0  0  0  0  0  0
  -27.4800  -23.6460   20.2470 N   0  0  0  0  0  0  0  0  0  0  0  0
  -27.9540  -21.3010   20.4460 N   0  0  0  0  0  0  0  0  0  0  0  0
  -30.0080  -20.2380   19.9020 N   0  0  0  0  0  0  0  0  0  0  0  0
  -30.9610  -20.3690   19.5850 H   0  0  0  0  0  0  0  0  0  0  0  0
  -30.9560  -15.1060   19.9950 C   0  0  0  0  0  0  0  0  0  0  0  0
  -30.7010  -12.8380   18.9670 C   0  0  0  0  0  2  0  0  0  0  0  0
  -29.7090  -12.9170   17.7850 C   0  0  0  0  0  2  0  0  0  0  0  0
  -28.2550  -12.7550   18.2720 C   0  0  0  0  0  2  0  0  0  0  0  0
  -27.9410  -13.6250   19.5190 C   0  0  0  0  0  3  0  0  0  0  0  0
  -29.0480  -13.4960   20.5870 C   0  0  0  0  0  2  0  0  0  0  0  0
  -30.3100  -13.8840   19.9430 N   0  0  0  0  0  0  0  0  0  0  0  0
  -32.1170  -15.1770   19.5750 O   0  0  0  0  0  0  0  0  0  0  0  0
  -29.5970  -18.2440   21.5170 C   0  0  0  0  0  2  0  0  0  0  0  0
  -29.5500  -16.6890   21.3970 C   0  0  0  0  0  2  0  0  0  0  0  0
  -30.4090  -17.5990   19.4100 C   0  0  0  0  0  2  0  0  0  0  0  0
  -29.5710  -18.7830   20.0840 C   0  0  0  0  0  3  0  0  0  0  0  0
  -30.2140  -16.2850   20.1480 N   0  0  0  0  0  0  0  0  0  0  0  0
  -25.5980  -14.2280   20.3750 C   0  0  0  0  0  0  0  0  0  0  0  0
  -24.5340  -13.4580   20.7570 C   0  0  0  0  0  0  0  0  0  0  0  0
  -24.9750  -12.1020   20.6620 C   0  0  0  0  0  0  0  0  0  0  0  0
  -26.6170  -13.3420   20.0620 N   0  0  0  0  0  0  0  0  0  0  0  0
  -26.2510  -12.0550   20.2970 N   0  0  0  0  0  0  0  0  0  0  0  0
  -24.2370  -10.8450   20.8440 C   0  0  0  0  0  0  0  0  0  0  0  0
  -24.6360   -9.8830   21.7970 C   0  0  0  0  0  3  0  0  0  0  0  0
  -23.8980   -8.6930   21.9650 C   0  0  0  0  0  3  0  0  0  0  0  0
  -22.7460   -8.4540   21.1790 C   0  0  0  0  0  0  0  0  0  0  0  0
  -22.3660   -9.4050   20.2150 C   0  0  0  0  0  3  0  0  0  0  0  0
  -23.1050  -10.5880   20.0460 C   0  0  0  0  0  3  0  0  0  0  0  0
  -21.9820   -7.3130   21.2560 O   0  0  0  0  0  0  0  0  0  0  0  0
  -21.8260   -6.6330   22.4350 C   0  0  0  0  0  0  0  0  0  0  0  0
  -21.2680   -7.2420   23.5800 C   0  0  0  0  0  3  0  0  0  0  0  0
  -21.0620   -6.4850   24.7510 C   0  0  0  0  0  3  0  0  0  0  0  0
  -21.3990   -5.1180   24.7730 C   0  0  0  0  0  0  0  0  0  0  0  0
  -21.9460   -4.5070   23.6310 C   0  0  0  0  0  3  0  0  0  0  0  0
  -22.1550   -5.2620   22.4640 C   0  0  0  0  0  0  0  0  0  0  0  0
  -22.6630   -4.6640   21.3590 F   0  0  0  0  0  0  0  0  0  0  0  0
  -21.1930   -4.3870   25.8940 F   0  0  0  0  0  0  0  0  0  0  0  0
  -23.1580  -13.9480   21.0990 C   0  0  0  0  0  0  0  0  0  0  0  0
  -22.4630  -13.2540   21.9920 N   0  0  0  0  0  0  0  0  0  0  0  0
  -22.7110  -14.9860   20.6110 O   0  0  0  0  0  0  0  0  0  0  0  0
  -22.8310  -12.4120   22.4090 H   0  0  0  0  0  0  0  0  0  0  0  0
  -21.5450  -13.5740   22.2650 H   0  0  0  0  0  0  0  0  0  0  0  0
  -25.7700  -15.6020   20.2510 N   0  0  0  0  0  0  0  0  0  0  0  0
  -25.0210  -16.2470   20.4780 H   0  0  0  0  0  0  0  0  0  0  0  0
  -26.6380  -16.0640   20.0160 H   0  0  0  0  0  0  0  0  0  0  0  0
  -28.9620  -25.3970   19.1670 C   0  0  0  0  0  2  0  0  0  0  0  0
  -28.7230  -26.7070   19.8880 O   0  0  0  0  0  0  0  0  0  0  0  0
  -24.6700  -31.8370   23.0370 C   0  0  0  0  0  0  0  0  0  0  0  0
  -27.5580  -27.5140   19.8110 C   0  0  0  0  0  0  0  0  0  0  0  0
  -23.5560  -30.4310   21.3420 C   0  0  0  0  0  3  0  0  0  0  0  0
  -25.1000  -29.0250   19.8510 C   0  0  0  0  0  0  0  0  0  0  0  0
  -26.0760  -30.8970   21.1810 C   0  0  0  0  0  2  0  0  0  0  0  0
  -26.2380  -29.5480   20.4740 C   0  0  0  0  0  0  0  0  0  0  0  0
  -27.4620  -28.8030   20.4460 C   0  0  0  0  0  3  0  0  0  0  0  0
  -26.3930  -27.0570   19.1600 C   0  0  0  0  0  3  0  0  0  0  0  0
  -25.1870  -27.7910   19.1810 C   0  0  0  0  0  3  0  0  0  0  0  0
  -23.8100  -29.8210   19.9370 C   0  0  0  0  0  2  0  0  0  0  0  0
  -24.7860  -31.0750   21.9100 N   0  0  0  0  0  0  0  0  0  0  0  0
  -23.5720  -32.0270   23.5800 O   0  0  0  0  0  0  0  0  0  0  0  0
  -22.9570  -29.3430   22.2670 C   0  0  0  0  0  0  0  0  0  0  0  0
  -21.6400  -29.1030   22.1480 N   0  0  0  0  0  0  0  0  0  0  0  0
  -23.6770  -28.7190   23.0520 O   0  0  0  0  0  0  0  0  0  0  0  0
  -21.1150  -29.6640   21.4930 H   0  0  0  0  0  0  0  0  0  0  0  0
  -18.3310  -27.7270   22.6580 C   0  0  0  0  0  0  0  0  0  0  0  0
  -20.8810  -28.0900   22.8850 C   0  0  0  0  0  3  0  0  0  0  0  0
  -21.0320  -26.6980   22.2300 C   0  0  0  0  0  2  0  0  0  0  0  0
  -19.9220  -26.3790   21.2230 C   0  0  0  0  0  2  0  0  0  0  0  0
  -18.5510  -26.4260   21.9030 C   0  0  0  0  0  2  0  0  0  0  0  0
  -19.4250  -28.5160   23.1030 C   0  0  0  0  0  0  0  0  0  0  0  0
  -19.1630  -29.7330   23.7690 C   0  0  0  0  0  3  0  0  0  0  0  0
  -17.8410  -30.1610   23.9940 C   0  0  0  0  0  3  0  0  0  0  0  0
  -16.7630  -29.3710   23.5630 C   0  0  0  0  0  3  0  0  0  0  0  0
  -17.0090  -28.1540   22.8990 C   0  0  0  0  0  3  0  0  0  0  0  0
  -25.9110  -32.5290   23.6850 C   0  0  0  0  0  3  0  0  0  0  0  0
  -25.5220  -33.8980   24.0510 N   0  0  0  0  0  0  0  0  0  0  0  0
  -25.8050  -34.9930   23.3330 C   0  0  0  0  0  0  0  0  0  0  0  0
  -26.4930  -34.9620   22.3110 O   0  0  0  0  0  0  0  0  0  0  0  0
  -24.9190  -33.9980   24.8550 H   0  0  0  0  0  0  0  0  0  0  0  0
  -23.9920  -36.7020   23.0050 C   0  0  0  0  0  1  0  0  0  0  0  0
  -25.2340  -36.3350   23.8310 C   0  0  0  0  0  3  0  0  0  0  0  0
  -27.2970  -37.3050   24.7440 C   0  0  0  0  0  1  0  0  0  0  0  0
  -26.2100  -37.4460   23.7790 N   0  0  0  0  0  0  0  0  0  0  0  0
  -25.7490  -38.3370   23.9460 H   0  0  0  0  0  0  0  0  0  0  0  0
  -26.4610  -31.7590   24.9490 C   0  0  1  0  0  0  0  0  0  0  0  0
  -25.3720  -31.4410   25.9990 C   0  0  0  0  0  1  0  0  0  0  0  0
  -27.1200  -30.4240   24.5330 C   0  0  0  0  0  1  0  0  0  0  0  0
  -27.5600  -32.6020   25.6380 C   0  0  0  0  0  1  0  0  0  0  0  0
  1  2  2  0
  1  3  1  0
  2  6  1  0
  3  7  2  0
  4  5  1  0
  6  4  2  0
  7  4  1  0
  8  3  1  0
  9  8  1  0
 10 22  1  0
 11 16  1  0
 12 13  1  0
 12 11  1  0
 14 13  1  0
 14 26  1  0
 14 15  1  0
 16 10  1  0
 16 15  1  0
 17 10  2  0
 19 18  1  0
 20 21  1  0
 20 22  1  0
 21  8  1  0
 21 18  1  0
 22 19  1  0
 23 24  2  0
 24 43  1  0
 25 24  1  0
 25 28  1  0
 26 27  1  0
 26 23  1  0
 27 25  2  0
 28 29  1  0
 29 30  2  0
 31 34  1  0
 31 30  1  0
 32 31  2  0
 33 32  1  0
 33 28  2  0
 34 35  1  0
 35 40  2  0
 35 36  1  0
 36 37  2  0
 37 38  1  0
 38 42  1  0
 39 38  2  0
 40 39  1  0
 41 40  1  0
 43 44  1  0
 44 47  1  0
 44 46  1  0
 45 43  2  0
 48 23  1  0
 48 49  1  0
 50 48  1  0
 51  2  1  0
 51 52  1  0
 53 64  2  0
 54 52  1  0
 54 59  1  0
 55 63  1  0
 55 65  1  0
 56 62  1  0
 56 58  1  0
 57 63  1  0
 58 57  1  0
 59 58  2  0
 60 61  1  0
 60 54  2  0
 61 56  2  0
 62 55  1  0
 63 53  1  0
 65 67  2  0
 66 65  1  0
 68 66  1  0
 69 78  2  0
 69 74  1  0
 70 66  1  0
 70 74  1  0
 71 70  1  0
 72 73  1  0
 72 71  1  0
 73 69  1  0
 74 75  2  0
 75 76  1  0
 77 76  2  0
 78 77  1  0
 79 53  1  0
 79 80  1  0
 79 89  1  0
 80 83  1  0
 81 85  1  0
 81 80  1  0
 82 81  2  0
 85 84  1  0
 87 85  1  0
 87 88  1  0
 87 86  1  0
 89 92  1  1
 89 90  1  0
 91 89  1  0
M  ISO  4  10 100  22 100  51 101  52 101
M  END
>  <TORSDO>  (58) 
F 17

>  <SCORE>  (58) 
-12.179

>  <name>  (58) 
58

>  <ligand_id>  (58) 
58

>  <original_smiles>  (58) 
[H]c1c(N([H])C2([H])C([H])([H])N(C(=O)N3C([H])([H])C([H])([H])C([H])([H])C([H])(n4nc(-c5c([H])c([H])c(Oc6c([H])c([H])c(F)c([H])c6F)c([H])c5[H])c(C(=O)N([H])[H])c4N([H])[H])C3([H])[H])C([H])([H])C2([H])[H])nc(C([H])([H])[H])nc1C([H])([H])Oc1c([H])c([H])c2c(c1[H])C([H])([H])N(C(=O)C([H])(N([H])C(=O)C([H])(N([H])C([H])([H])[H])C([H])([H])[H])C(C([H])([H])[H])(C([H])([H])[H])C([H])([H])[H])C([H])(C(=O)N([H])C1([H])c3c([H])c([H])c([H])c([H])c3C([H])([H])C([H])([H])C1([H])[H])C2([H])[H]

>  <smiles>  (58) 
[H]c1c(N([H])C2([H])C([H])([H])N(C(=O)N3C([H])([H])C([H])([H])C([H])([H])C([H])(n4nc(-c5c([H])c([H])c(Oc6c([H])c([H])c(F)c([H])c6F)c([H])c5[H])c(C(=O)N([H])[H])c4N([H])[H])C3([H])[H])C([H])([H])C2([H])[H])nc(C([H])([H])[H])nc1C([H])([H])Oc1c([H])c([H])c2c(c1[H])C([H])([H])N(C(=O)C([H])(N([H])C(=O)C([H])(N([H])C([H])([H])[H])C([H])([H])[H])C(C([H])([H])[H])(C([H])([H])[H])C([H])([H])[H])C([H])(C(=O)N([H])C1([H])c3c([H])c([H])c([H])c([H])c3C([H])([H])C([H])([H])C1([H])[H])C2([H])[H]

$$$$
59:0:0
     RDKit          3D

 95104  0  0  1  0  0  0  0  0999 V2000
  -28.9940  -20.8770   20.9620 C   0  0  0  0  0  2  0  0  0  0  0  0
  -27.5470  -23.0730   20.8800 C   0  0  0  0  0  2  0  0  0  0  0  0
  -28.7560  -22.3990   20.5340 C   0  0  0  0  0  0  0  0  0  0  0  0
  -28.4140  -25.1370   20.2830 C   0  0  0  0  0  0  0  0  0  0  0  0
  -27.3780  -24.4300   20.7670 N   0  0  0  0  0  0  0  0  0  0  0  0
  -29.7610  -23.1900   20.0510 N   0  0  0  0  0  0  0  0  0  0  0  0
  -29.5840  -24.5400   19.9200 N   0  0  0  0  0  0  0  0  0  0  0  0
  -28.3800  -26.5400   20.2110 O   0  0  0  0  0  0  0  0  0  0  0  0
  -24.5960  -31.9440   23.2500 C   0  0  0  0  0  0  0  0  0  0  0  0
  -27.2100  -27.3330   20.2430 C   0  0  0  0  0  0  0  0  0  0  0  0
  -23.3930  -30.5410   21.6110 C   0  0  0  0  0  3  0  0  0  0  0  0
  -24.8440  -28.9650   20.2040 C   0  0  0  0  0  0  0  0  0  0  0  0
  -25.9330  -30.8390   21.4430 C   0  0  0  0  0  2  0  0  0  0  0  0
  -26.0070  -29.4510   20.8110 C   0  0  0  0  0  0  0  0  0  0  0  0
  -27.1870  -28.6460   20.8220 C   0  0  0  0  0  3  0  0  0  0  0  0
  -26.0230  -26.9090   19.6040 C   0  0  0  0  0  3  0  0  0  0  0  0
  -24.8540  -27.6990   19.5930 C   0  0  0  0  0  3  0  0  0  0  0  0
  -23.6080  -29.8440   20.2400 C   0  0  0  0  0  2  0  0  0  0  0  0
  -24.6590  -31.1300   22.1560 N   0  0  0  0  0  0  0  0  0  0  0  0
  -23.5130  -32.2290   23.7800 O   0  0  0  0  0  0  0  0  0  0  0  0
  -22.7210  -29.5340   22.5780 C   0  0  0  0  0  0  0  0  0  0  0  0
  -21.3950  -29.3630   22.4510 N   0  0  0  0  0  0  0  0  0  0  0  0
  -23.3950  -28.9110   23.4030 O   0  0  0  0  0  0  0  0  0  0  0  0
  -20.9120  -29.9150   21.7540 H   0  0  0  0  0  0  0  0  0  0  0  0
  -18.0100  -28.1920   22.9540 C   0  0  0  0  0  0  0  0  0  0  0  0
  -20.5690  -28.4340   23.2250 C   0  0  0  0  0  3  0  0  0  0  0  0
  -20.6620  -27.0010   22.6520 C   0  0  0  0  0  2  0  0  0  0  0  0
  -19.5580  -26.6830   21.6390 C   0  0  0  0  0  2  0  0  0  0  0  0
  -18.1770  -26.8400   22.2820 C   0  0  0  0  0  2  0  0  0  0  0  0
  -19.1340  -28.9470   23.3820 C   0  0  0  0  0  0  0  0  0  0  0  0
  -18.9230  -30.2140   23.9710 C   0  0  0  0  0  3  0  0  0  0  0  0
  -17.6220  -30.7250   24.1350 C   0  0  0  0  0  3  0  0  0  0  0  0
  -16.5120  -29.9660   23.7240 C   0  0  0  0  0  3  0  0  0  0  0  0
  -16.7070  -28.7020   23.1400 C   0  0  0  0  0  3  0  0  0  0  0  0
  -25.8800  -32.5740   23.8720 C   0  0  0  0  0  3  0  0  0  0  0  0
  -26.3850  -31.8100   25.1600 C   0  0  1  0  0  0  0  0  0  0  0  0
  -25.2820  -31.5940   26.2220 C   0  0  0  0  0  1  0  0  0  0  0  0
  -26.9570  -30.4230   24.7890 C   0  0  0  0  0  1  0  0  0  0  0  0
  -27.5400  -32.6020   25.8160 C   0  0  0  0  0  1  0  0  0  0  0  0
  -25.5740  -33.9760   24.1920 N   0  0  0  0  0  0  0  0  0  0  0  0
  -25.9210  -35.0230   23.4300 C   0  0  0  0  0  0  0  0  0  0  0  0
  -26.5980  -34.9100   22.4050 O   0  0  0  0  0  0  0  0  0  0  0  0
  -24.9710  -34.1370   24.9840 H   0  0  0  0  0  0  0  0  0  0  0  0
  -24.2080  -36.8260   23.0570 C   0  0  0  0  0  1  0  0  0  0  0  0
  -25.4420  -36.4180   23.8780 C   0  0  0  0  0  3  0  0  0  0  0  0
  -27.5800  -37.2930   24.7140 C   0  0  0  0  0  1  0  0  0  0  0  0
  -26.4830  -37.4630   23.7650 N   0  0  0  0  0  0  0  0  0  0  0  0
  -26.0840  -38.3880   23.9000 H   0  0  0  0  0  0  0  0  0  0  0  0
  -29.0150  -18.3790   20.5670 C   0  0  0  0  0  2  0  0  0  0  0  0
  -30.9080  -19.5500   19.9240 C   0  0  0  0  0  2  0  0  0  0  0  0
  -29.9190  -17.2650   19.9050 C   0  0  0  0  0  3  0  0  0  0  0  0
  -31.2650  -18.0170   19.9240 C   0  0  0  0  0  3  0  0  0  0  0  0
  -29.4470  -19.7250   20.0810 N   0  0  0  0  0  0  0  0  0  0  0  0
  -30.6000  -14.7400   20.2000 C   0  0  0  0  0  0  0  0  0  0  0  0
  -30.3560  -12.4960   19.1710 C   0  0  0  0  0  2  0  0  0  0  0  0
  -29.3830  -12.6230   17.9740 C   0  0  0  0  0  2  0  0  0  0  0  0
  -27.9240  -12.4440   18.4420 C   0  0  0  0  0  2  0  0  0  0  0  0
  -27.5860  -13.3000   19.6910 C   0  0  0  0  0  3  0  0  0  0  0  0
  -28.6780  -13.1760   20.7780 C   0  0  0  0  0  2  0  0  0  0  0  0
  -29.9690  -13.5190   20.1630 N   0  0  0  0  0  0  0  0  0  0  0  0
  -31.7590  -14.8780   19.8010 O   0  0  0  0  0  0  0  0  0  0  0  0
  -29.8290  -15.8470   20.4720 N   0  0  0  0  0  0  0  0  0  0  0  0
  -28.9120  -15.6020   20.8140 H   0  0  0  0  0  0  0  0  0  0  0  0
  -25.2060  -13.8690   20.4740 C   0  0  0  0  0  0  0  0  0  0  0  0
  -24.1520  -13.0880   20.8560 C   0  0  0  0  0  0  0  0  0  0  0  0
  -24.6210  -11.7410   20.8050 C   0  0  0  0  0  0  0  0  0  0  0  0
  -26.2490  -13.0000   20.2040 N   0  0  0  0  0  0  0  0  0  0  0  0
  -25.9050  -11.7130   20.4680 N   0  0  0  0  0  0  0  0  0  0  0  0
  -23.9040  -10.4700   21.0070 C   0  0  0  0  0  0  0  0  0  0  0  0
  -24.3590   -9.5070   21.9330 C   0  0  0  0  0  3  0  0  0  0  0  0
  -23.6450   -8.3030   22.1220 C   0  0  0  0  0  3  0  0  0  0  0  0
  -22.4580   -8.0570   21.3890 C   0  0  0  0  0  0  0  0  0  0  0  0
  -22.0220   -9.0110   20.4550 C   0  0  0  0  0  3  0  0  0  0  0  0
  -22.7380  -10.2060   20.2620 C   0  0  0  0  0  3  0  0  0  0  0  0
  -21.7170   -6.9070   21.4850 O   0  0  0  0  0  0  0  0  0  0  0  0
  -21.6930   -6.1610   22.6360 C   0  0  0  0  0  0  0  0  0  0  0  0
  -21.2830   -6.7110   23.8710 C   0  0  0  0  0  3  0  0  0  0  0  0
  -21.2100   -5.8940   25.0150 C   0  0  0  0  0  3  0  0  0  0  0  0
  -21.5330   -4.5240   24.9240 C   0  0  0  0  0  0  0  0  0  0  0  0
  -21.9350   -3.9740   23.6950 C   0  0  0  0  0  3  0  0  0  0  0  0
  -22.0110   -4.7910   22.5520 C   0  0  0  0  0  0  0  0  0  0  0  0
  -22.3800   -4.2540   21.3650 F   0  0  0  0  0  0  0  0  0  0  0  0
  -21.4540   -3.7350   26.0200 F   0  0  0  0  0  0  0  0  0  0  0  0
  -22.7570  -13.5600   21.1580 C   0  0  0  0  0  0  0  0  0  0  0  0
  -22.0450  -12.8560   22.0310 N   0  0  0  0  0  0  0  0  0  0  0  0
  -22.3080  -14.5890   20.6580 O   0  0  0  0  0  0  0  0  0  0  0  0
  -22.4140  -12.0240   22.4690 H   0  0  0  0  0  0  0  0  0  0  0  0
  -21.1160  -13.1710   22.2760 H   0  0  0  0  0  0  0  0  0  0  0  0
  -25.3640  -15.2420   20.3220 N   0  0  0  0  0  0  0  0  0  0  0  0
  -24.6220  -15.8950   20.5460 H   0  0  0  0  0  0  0  0  0  0  0  0
  -26.2300  -15.6960   20.0590 H   0  0  0  0  0  0  0  0  0  0  0  0
  -32.0900  -17.6210   21.0770 N   0  0  0  0  0  4  0  0  0  0  0  0
  -31.5380  -17.5820   21.9150 H   0  0  0  0  0  0  0  0  0  0  0  0
  -32.8590  -18.2560   21.2070 H   0  0  0  0  0  0  0  0  0  0  0  0
  -32.4620  -16.7010   20.8910 H   0  0  0  0  0  0  0  0  0  0  0  0
  3  2  1  0
  3  1  1  0
  4  5  2  0
  5  2  1  0
  6  3  2  0
  7  6  1  0
  7  4  2  0
  8 10  1  0
  8  4  1  0
  9 20  2  0
 10 15  1  0
 11 19  1  0
 11 21  1  0
 12 18  1  0
 12 14  1  0
 13 19  1  0
 14 15  2  0
 14 13  1  0
 16 10  2  0
 17 16  1  0
 17 12  2  0
 18 11  1  0
 19  9  1  0
 21 23  2  0
 22 21  1  0
 24 22  1  0
 25 34  2  0
 25 30  1  0
 26 22  1  0
 26 30  1  0
 27 26  1  0
 28 29  1  0
 28 27  1  0
 29 25  1  0
 30 31  2  0
 31 32  1  0
 33 32  2  0
 34 33  1  0
 35  9  1  0
 35 40  1  0
 35 36  1  0
 36 39  1  1
 36 37  1  0
 38 36  1  0
 40 43  1  0
 41 45  1  0
 41 40  1  0
 42 41  2  0
 45 44  1  0
 47 45  1  0
 47 48  1  0
 47 46  1  0
 50 52  1  0
 50 53  1  0
 51 52  1  0
 51 62  1  0
 51 49  1  0
 52 92  1  0
 53 49  1  0
 53  1  1  0
 54 62  1  0
 55 60  1  0
 56 57  1  0
 56 55  1  0
 58 57  1  0
 58 67  1  0
 58 59  1  0
 60 54  1  0
 60 59  1  0
 61 54  2  0
 62 63  1  0
 64 65  2  0
 65 84  1  0
 66 65  1  0
 66 69  1  0
 67 68  1  0
 67 64  1  0
 68 66  2  0
 69 70  1  0
 70 71  2  0
 72 75  1  0
 72 71  1  0
 73 72  2  0
 74 73  1  0
 74 69  2  0
 75 76  1  0
 76 77  1  0
 77 78  2  0
 79 78  1  0
 79 83  1  0
 80 79  2  0
 81 76  2  0
 81 80  1  0
 82 81  1  0
 84 85  1  0
 85 88  1  0
 85 87  1  0
 86 84  2  0
 89 64  1  0
 89 90  1  0
 91 89  1  0
 92 94  1  0
 92 93  1  0
 95 92  1  0
M  ISO  4   4 101   8 101  54 100  62 100
M  END
>  <TORSDO>  (59) 
F 19

>  <SCORE>  (59) 
-14.611

>  <name>  (59) 
59

>  <ligand_id>  (59) 
59

>  <original_smiles>  (59) 
[H]c1nc(Oc2c([H])c([H])c3c(c2[H])C([H])([H])N(C(=O)C([H])(N([H])C(=O)C([H])(N([H])C([H])([H])[H])C([H])([H])[H])C(C([H])([H])[H])(C([H])([H])[H])C([H])([H])[H])C([H])(C(=O)N([H])C2([H])c4c([H])c([H])c([H])c([H])c4C([H])([H])C([H])([H])C2([H])[H])C3([H])[H])nnc1C([H])([H])N1C([H])([H])C([H])(N([H])C(=O)N2C([H])([H])C([H])([H])C([H])([H])C([H])(n3nc(-c4c([H])c([H])c(Oc5c([H])c([H])c(F)c([H])c5F)c([H])c4[H])c(C(=O)N([H])[H])c3N([H])[H])C2([H])[H])C([H])([N+]([H])([H])[H])C1([H])[H]

>  <smiles>  (59) 
[H]c1nc(Oc2c([H])c([H])c3c(c2[H])C([H])([H])N(C(=O)C([H])(N([H])C(=O)C([H])(N([H])C([H])([H])[H])C([H])([H])[H])C(C([H])([H])[H])(C([H])([H])[H])C([H])([H])[H])C([H])(C(=O)N([H])C2([H])c4c([H])c([H])c([H])c([H])c4C([H])([H])C([H])([H])C2([H])[H])C3([H])[H])nnc1C([H])([H])N1C([H])([H])C([H])(N([H])C(=O)N2C([H])([H])C([H])([H])C([H])([H])C([H])(n3nc(-c4c([H])c([H])c(Oc5c([H])c([H])c(F)c([H])c5F)c([H])c4[H])c(C(=O)N([H])[H])c3N([H])[H])C2([H])[H])C([H])([N+]([H])([H])[H])C1([H])[H]

$$$$
60:0:0
     RDKit          3D

 89 98  0  0  1  0  0  0  0  0999 V2000
  -30.9750  -15.5900   19.3110 C   0  0  0  0  0  0  0  0  0  0  0  0
  -31.1090  -12.9070   19.3760 C   0  0  0  0  0  2  0  0  0  0  0  0
  -30.2730  -12.1110   18.3300 C   0  0  0  0  0  2  0  0  0  0  0  0
  -28.8270  -11.9040   18.8080 C   0  0  0  0  0  2  0  0  0  0  0  0
  -28.2720  -13.1850   19.4680 C   0  0  0  0  0  3  0  0  0  0  0  0
  -29.2590  -13.8370   20.4690 C   0  0  0  0  0  2  0  0  0  0  0  0
  -30.4550  -14.2640   19.6910 N   0  0  0  0  0  0  0  0  0  0  0  0
  -32.2060  -15.4660   19.1510 O   0  0  0  0  0  0  0  0  0  0  0  0
  -31.0190  -19.3500   17.3560 C   0  0  0  0  0  3  0  0  0  0  0  0
  -30.6470  -20.7490   16.8460 C   0  0  0  0  0  3  0  0  0  0  0  0
  -30.2360  -18.4550   18.2470 C   0  0  0  0  0  0  0  0  0  0  0  0
  -29.0950  -19.3200   18.4580 C   0  0  0  0  0  0  0  0  0  0  0  0
  -29.4440  -21.5830   17.1290 C   0  0  0  0  0  0  0  0  0  0  0  0
  -28.8830  -17.0710   19.6140 C   0  0  0  0  0  2  0  0  0  0  0  0
  -28.1970  -18.5080   19.3830 C   0  0  1  0  0  0  0  0  0  0  0  0
  -28.0630  -19.2320   20.7350 C   0  0  0  0  0  1  0  0  0  0  0  0
  -26.8070  -18.3400   18.7470 C   0  0  0  0  0  1  0  0  0  0  0  0
  -28.7300  -20.6680   17.9840 N   0  0  0  0  0  0  0  0  0  0  0  0
  -30.2110  -16.9280   18.9740 N   0  0  0  0  0  0  0  0  0  0  0  0
  -26.0050  -14.0040   20.2750 C   0  0  0  0  0  0  0  0  0  0  0  0
  -24.8650  -13.3690   20.6690 C   0  0  0  0  0  0  0  0  0  0  0  0
  -25.1560  -11.9730   20.6100 C   0  0  0  0  0  0  0  0  0  0  0  0
  -26.9300  -13.0140   20.0090 N   0  0  0  0  0  0  0  0  0  0  0  0
  -26.4290  -11.7770   20.2720 N   0  0  0  0  0  0  0  0  0  0  0  0
  -24.2670  -10.8170   20.7940 C   0  0  0  0  0  0  0  0  0  0  0  0
  -24.6370   -9.7230   21.6060 C   0  0  0  0  0  3  0  0  0  0  0  0
  -23.7540   -8.6370   21.7880 C   0  0  0  0  0  3  0  0  0  0  0  0
  -22.4860   -8.6400   21.1580 C   0  0  0  0  0  0  0  0  0  0  0  0
  -22.1320   -9.7220   20.3330 C   0  0  0  0  0  3  0  0  0  0  0  0
  -23.0140  -10.7990   20.1490 C   0  0  0  0  0  3  0  0  0  0  0  0
  -21.5750   -7.6160   21.2570 O   0  0  0  0  0  0  0  0  0  0  0  0
  -21.5890   -6.7390   22.3120 C   0  0  0  0  0  0  0  0  0  0  0  0
  -21.4080   -7.1730   23.6430 C   0  0  0  0  0  3  0  0  0  0  0  0
  -21.3600   -6.2300   24.6910 C   0  0  0  0  0  3  0  0  0  0  0  0
  -21.4860   -4.8570   24.4080 C   0  0  0  0  0  0  0  0  0  0  0  0
  -21.6620   -4.4230   23.0830 C   0  0  0  0  0  3  0  0  0  0  0  0
  -21.7110   -5.3630   22.0370 C   0  0  0  0  0  0  0  0  0  0  0  0
  -21.8600   -4.9380   20.7590 F   0  0  0  0  0  0  0  0  0  0  0  0
  -21.4330   -3.9500   25.4120 F   0  0  0  0  0  0  0  0  0  0  0  0
  -23.5500  -14.0270   20.9670 C   0  0  0  0  0  0  0  0  0  0  0  0
  -22.7840  -13.4690   21.8950 N   0  0  0  0  0  0  0  0  0  0  0  0
  -23.2200  -15.0760   20.4120 O   0  0  0  0  0  0  0  0  0  0  0  0
  -23.0650  -12.6220   22.3670 H   0  0  0  0  0  0  0  0  0  0  0  0
  -21.9000  -13.8940   22.1400 H   0  0  0  0  0  0  0  0  0  0  0  0
  -26.3100  -15.3420   20.0800 N   0  0  0  0  0  0  0  0  0  0  0  0
  -25.5950  -16.0550   20.1590 H   0  0  0  0  0  0  0  0  0  0  0  0
  -27.1500  -15.6670   19.6240 H   0  0  0  0  0  0  0  0  0  0  0  0
  -28.7040  -23.1410   16.3610 C   0  0  0  0  0  2  0  0  0  0  0  0
  -28.7160  -24.9040   16.3840 O   0  0  0  0  0  0  0  0  0  0  0  0
  -25.0100  -29.4520   21.4940 C   0  0  0  0  0  0  0  0  0  0  0  0
  -27.6420  -25.9570   16.8000 C   0  0  0  0  0  0  0  0  0  0  0  0
  -23.7770  -28.5210   19.5820 C   0  0  0  0  0  3  0  0  0  0  0  0
  -25.2010  -27.6050   17.5950 C   0  0  0  0  0  0  0  0  0  0  0  0
  -26.3010  -29.0110   19.3160 C   0  0  0  0  0  2  0  0  0  0  0  0
  -26.4230  -27.8840   18.2190 C   0  0  0  0  0  0  0  0  0  0  0  0
  -27.6210  -27.0940   17.8010 C   0  0  0  0  0  3  0  0  0  0  0  0
  -26.3600  -25.8930   16.1960 C   0  0  0  0  0  3  0  0  0  0  0  0
  -25.2030  -26.6470   16.5670 C   0  0  0  0  0  3  0  0  0  0  0  0
  -23.9230  -28.3340   18.0430 C   0  0  0  0  0  2  0  0  0  0  0  0
  -25.0560  -29.0110   20.1890 N   0  0  0  0  0  0  0  0  0  0  0  0
  -23.9600  -29.4350   22.1580 O   0  0  0  0  0  0  0  0  0  0  0  0
  -23.2660  -27.2040   20.2270 C   0  0  0  0  0  0  0  0  0  0  0  0
  -21.9350  -26.9900   20.2640 N   0  0  0  0  0  0  0  0  0  0  0  0
  -24.0730  -26.3820   20.6670 O   0  0  0  0  0  0  0  0  0  0  0  0
  -21.3270  -27.7120   19.9010 H   0  0  0  0  0  0  0  0  0  0  0  0
  -18.7190  -25.4380   20.9390 C   0  0  0  0  0  0  0  0  0  0  0  0
  -21.2800  -25.7720   20.7570 C   0  0  0  0  0  3  0  0  0  0  0  0
  -21.2350  -24.6810   19.6620 C   0  0  0  0  0  2  0  0  0  0  0  0
  -19.9370  -24.6950   18.8480 C   0  0  0  0  0  2  0  0  0  0  0  0
  -18.7280  -24.4760   19.7620 C   0  0  0  0  0  2  0  0  0  0  0  0
  -19.9130  -26.0580   21.3950 C   0  0  0  0  0  0  0  0  0  0  0  0
  -19.8400  -26.9640   22.4760 C   0  0  0  0  0  3  0  0  0  0  0  0
  -18.6090  -27.2540   23.0930 C   0  0  0  0  0  3  0  0  0  0  0  0
  -17.4330  -26.6280   22.6430 C   0  0  0  0  0  3  0  0  0  0  0  0
  -17.4910  -25.7180   21.5730 C   0  0  0  0  0  3  0  0  0  0  0  0
  -26.2740  -30.0120   22.2140 C   0  0  0  0  0  3  0  0  0  0  0  0
  -25.8320  -30.9970   23.2220 N   0  0  0  0  0  0  0  0  0  0  0  0
  -26.0020  -32.3240   23.1310 C   0  0  0  0  0  0  0  0  0  0  0  0
  -26.6050  -32.8530   22.1940 O   0  0  0  0  0  0  0  0  0  0  0  0
  -25.2850  -30.6390   23.9900 H   0  0  0  0  0  0  0  0  0  0  0  0
  -24.1220  -33.8760   23.7680 C   0  0  0  0  0  1  0  0  0  0  0  0
  -25.4150  -33.2050   24.2560 C   0  0  0  0  0  3  0  0  0  0  0  0
  -27.4830  -33.6930   25.4910 C   0  0  0  0  0  1  0  0  0  0  0  0
  -26.3520  -34.2400   24.7460 N   0  0  0  0  0  0  0  0  0  0  0  0
  -25.8700  -34.9060   25.3460 H   0  0  0  0  0  0  0  0  0  0  0  0
  -27.1360  -28.8860   22.9130 C   0  0  1  0  0  0  0  0  0  0  0  0
  -26.3210  -27.9730   23.8600 C   0  0  0  0  0  1  0  0  0  0  0  0
  -27.8180  -27.9790   21.8650 C   0  0  0  0  0  1  0  0  0  0  0  0
  -28.2740  -29.5330   23.7380 C   0  0  0  0  0  1  0  0  0  0  0  0
  1  7  1  0
  2  7  1  0
  3  4  1  0
  3  2  1  0
  5  4  1  0
  5 23  1  0
  5  6  1  0
  7  6  1  0
  8  1  2  0
  9 11  1  0
 10 13  1  0
 10  9  2  0
 11 12  2  0
 11 19  1  0
 12 15  1  0
 13 18  2  0
 15 14  1  0
 15 16  1  1
 17 15  1  0
 18 12  1  0
 19  1  1  0
 19 14  1  0
 20 21  2  0
 21 40  1  0
 22 21  1  0
 22 25  1  0
 23 24  1  0
 23 20  1  0
 24 22  2  0
 25 26  1  0
 26 27  2  0
 28 31  1  0
 28 27  1  0
 29 28  2  0
 30 29  1  0
 30 25  2  0
 31 32  1  0
 32 33  1  0
 33 34  2  0
 35 34  1  0
 35 39  1  0
 36 35  2  0
 37 32  2  0
 37 36  1  0
 38 37  1  0
 40 41  1  0
 41 44  1  0
 41 43  1  0
 42 40  2  0
 45 46  1  0
 45 20  1  0
 47 45  1  0
 48 49  1  0
 48 13  1  0
 49 51  1  0
 50 61  2  0
 51 56  1  0
 52 60  1  0
 52 62  1  0
 53 59  1  0
 53 55  1  0
 54 60  1  0
 55 54  1  0
 56 55  2  0
 57 58  1  0
 57 51  2  0
 58 53  2  0
 59 52  1  0
 60 50  1  0
 62 63  1  0
 62 64  2  0
 65 63  1  0
 66 71  2  0
 66 75  1  0
 67 63  1  0
 67 71  1  0
 68 67  1  0
 69 68  1  0
 69 70  1  0
 70 66  1  0
 71 72  1  0
 72 73  2  0
 74 73  1  0
 75 74  2  0
 76 50  1  0
 76 86  1  0
 76 77  1  0
 77 80  1  0
 78 77  1  0
 78 82  1  0
 79 78  2  0
 82 81  1  0
 82 84  1  0
 84 85  1  0
 84 83  1  0
 86 89  1  1
 86 87  1  0
 88 86  1  0
M  ISO  4   1 100  19 100  48 101  49 101
M  END
>  <TORSDO>  (60) 
F 16

>  <SCORE>  (60) 
-9.978

>  <name>  (60) 
60

>  <ligand_id>  (60) 
60

>  <original_smiles>  (60) 
[H]c1c(C([H])([H])Oc2c([H])c([H])c3c(c2[H])C([H])([H])N(C(=O)C([H])(N([H])C(=O)C([H])(N([H])C([H])([H])[H])C([H])([H])[H])C(C([H])([H])[H])(C([H])([H])[H])C([H])([H])[H])C([H])(C(=O)N([H])C2([H])c4c([H])c([H])c([H])c([H])c4C([H])([H])C([H])([H])C2([H])[H])C3([H])[H])nc2c(c1[H])N(C(=O)N1C([H])([H])C([H])([H])C([H])([H])C([H])(n3nc(-c4c([H])c([H])c(Oc5c([H])c([H])c(F)c([H])c5F)c([H])c4[H])c(C(=O)N([H])[H])c3N([H])[H])C1([H])[H])C([H])([H])C2(C([H])([H])[H])C([H])([H])[H]

>  <smiles>  (60) 
[H]c1c(C([H])([H])Oc2c([H])c([H])c3c(c2[H])C([H])([H])N(C(=O)C([H])(N([H])C(=O)C([H])(N([H])C([H])([H])[H])C([H])([H])[H])C(C([H])([H])[H])(C([H])([H])[H])C([H])([H])[H])C([H])(C(=O)N([H])C2([H])c4c([H])c([H])c([H])c([H])c4C([H])([H])C([H])([H])C2([H])[H])C3([H])[H])nc2c(c1[H])N(C(=O)N1C([H])([H])C([H])([H])C([H])([H])C([H])(n3nc(-c4c([H])c([H])c(Oc5c([H])c([H])c(F)c([H])c5F)c([H])c4[H])c(C(=O)N([H])[H])c3N([H])[H])C1([H])[H])C([H])([H])C2(C([H])([H])[H])C([H])([H])[H]

$$$$
61:0:0
     RDKit          3D

 99108  0  0  1  0  0  0  0  0999 V2000
  -30.4460  -22.8240   22.9300 C   0  0  0  0  0  3  0  0  0  0  0  0
  -30.8980  -21.6060   23.4540 C   0  0  0  0  0  0  0  0  0  0  0  0
  -29.7450  -22.7700   21.7200 C   0  0  0  0  0  0  0  0  0  0  0  0
  -29.9900  -20.4890   21.6860 C   0  0  0  0  0  0  0  0  0  0  0  0
  -30.2440  -17.9720   21.5350 C   0  0  0  0  0  2  0  0  0  0  0  0
  -29.3640  -19.1700   19.6520 C   0  0  0  0  0  2  0  0  0  0  0  0
  -30.2920  -17.0320   20.3140 C   0  0  0  0  0  3  0  0  0  0  0  0
  -29.2520  -17.6660   19.3690 C   0  0  0  0  0  3  0  0  0  0  0  0
  -31.6810  -21.5390   24.7480 C   0  0  0  0  0  1  0  0  0  0  0  0
  -30.6610  -20.4400   22.8260 N   0  0  0  0  0  0  0  0  0  0  0  0
  -29.5200  -21.5950   21.1030 N   0  0  0  0  0  0  0  0  0  0  0  0
  -29.7740  -19.2720   21.0440 N   0  0  0  0  0  0  0  0  0  0  0  0
  -29.2110  -23.9130   21.1060 N   0  0  0  0  0  0  0  0  0  0  0  0
  -28.7230  -23.7360   20.2360 H   0  0  0  0  0  0  0  0  0  0  0  0
  -30.7040  -14.5610   20.2160 C   0  0  0  0  0  0  0  0  0  0  0  0
  -30.3480  -12.4220   19.0560 C   0  0  0  0  0  2  0  0  0  0  0  0
  -29.3760  -12.6790   17.8840 C   0  0  0  0  0  2  0  0  0  0  0  0
  -27.9140  -12.5360   18.3520 C   0  0  0  0  0  2  0  0  0  0  0  0
  -27.6200  -13.3350   19.6510 C   0  0  0  0  0  3  0  0  0  0  0  0
  -28.7120  -13.0920   20.7210 C   0  0  0  0  0  2  0  0  0  0  0  0
  -30.0200  -13.3890   20.1150 N   0  0  0  0  0  0  0  0  0  0  0  0
  -31.8270  -14.7220   19.7400 O   0  0  0  0  0  0  0  0  0  0  0  0
  -29.9800  -15.6210   20.6280 N   0  0  0  0  0  0  0  0  0  0  0  0
  -29.0780  -15.4210   21.0350 H   0  0  0  0  0  0  0  0  0  0  0  0
  -25.2360  -13.9270   20.4200 C   0  0  0  0  0  0  0  0  0  0  0  0
  -24.1840  -13.1470   20.8190 C   0  0  0  0  0  0  0  0  0  0  0  0
  -24.6510  -11.7980   20.7710 C   0  0  0  0  0  0  0  0  0  0  0  0
  -26.2810  -13.0530   20.1630 N   0  0  0  0  0  0  0  0  0  0  0  0
  -25.9350  -11.7670   20.4310 N   0  0  0  0  0  0  0  0  0  0  0  0
  -23.9370  -10.5320   20.9760 C   0  0  0  0  0  0  0  0  0  0  0  0
  -24.3920   -9.5700   21.9030 C   0  0  0  0  0  3  0  0  0  0  0  0
  -23.6770   -8.3680   22.0950 C   0  0  0  0  0  3  0  0  0  0  0  0
  -22.4950   -8.1200   21.3580 C   0  0  0  0  0  0  0  0  0  0  0  0
  -22.0590   -9.0720   20.4180 C   0  0  0  0  0  3  0  0  0  0  0  0
  -22.7750  -10.2650   20.2250 C   0  0  0  0  0  3  0  0  0  0  0  0
  -21.7490   -6.9710   21.4600 O   0  0  0  0  0  0  0  0  0  0  0  0
  -21.7170   -6.2330   22.6170 C   0  0  0  0  0  0  0  0  0  0  0  0
  -21.2940   -6.7900   23.8430 C   0  0  0  0  0  3  0  0  0  0  0  0
  -21.2090   -5.9790   24.9920 C   0  0  0  0  0  3  0  0  0  0  0  0
  -21.5380   -4.6120   24.9150 C   0  0  0  0  0  0  0  0  0  0  0  0
  -21.9540   -4.0550   23.6930 C   0  0  0  0  0  3  0  0  0  0  0  0
  -22.0400   -4.8630   22.5460 C   0  0  0  0  0  0  0  0  0  0  0  0
  -22.4220   -4.3160   21.3660 F   0  0  0  0  0  0  0  0  0  0  0  0
  -21.4490   -3.8300   26.0170 F   0  0  0  0  0  0  0  0  0  0  0  0
  -22.7920  -13.6180   21.1300 C   0  0  0  0  0  0  0  0  0  0  0  0
  -22.0880  -12.9140   22.0100 N   0  0  0  0  0  0  0  0  0  0  0  0
  -22.3370  -14.6460   20.6290 O   0  0  0  0  0  0  0  0  0  0  0  0
  -22.4690  -12.0840   22.4390 H   0  0  0  0  0  0  0  0  0  0  0  0
  -21.1570  -13.2130   22.2620 H   0  0  0  0  0  0  0  0  0  0  0  0
  -25.3820  -15.2980   20.2320 N   0  0  0  0  0  0  0  0  0  0  0  0
  -24.5850  -15.9230   20.3060 H   0  0  0  0  0  0  0  0  0  0  0  0
  -26.1860  -15.7320   19.8030 H   0  0  0  0  0  0  0  0  0  0  0  0
  -29.4470  -17.3280   17.9480 N   0  0  0  0  0  4  0  0  0  0  0  0
  -30.3520  -17.6270   17.6280 H   0  0  0  0  0  0  0  0  0  0  0  0
  -28.7490  -17.7850   17.3860 H   0  0  0  0  0  0  0  0  0  0  0  0
  -29.3660  -16.3400   17.7980 H   0  0  0  0  0  0  0  0  0  0  0  0
  -29.9450  -25.1840   21.1600 C   0  0  0  0  0  2  0  0  0  0  0  0
  -29.0300  -26.4210   21.3310 C   0  0  0  0  0  2  0  0  0  0  0  0
  -28.3810  -26.7170   20.0980 O   0  0  0  0  0  0  0  0  0  0  0  0
  -24.5830  -31.9150   23.2520 C   0  0  0  0  0  0  0  0  0  0  0  0
  -27.2450  -27.4890   20.1710 C   0  0  0  0  0  0  0  0  0  0  0  0
  -23.3790  -30.5080   21.6110 C   0  0  0  0  0  3  0  0  0  0  0  0
  -24.8400  -28.9730   20.1890 C   0  0  0  0  0  0  0  0  0  0  0  0
  -25.9030  -30.8780   21.4100 C   0  0  0  0  0  2  0  0  0  0  0  0
  -25.9950  -29.5030   20.7830 C   0  0  0  0  0  0  0  0  0  0  0  0
  -27.2010  -28.7630   20.7870 C   0  0  0  0  0  3  0  0  0  0  0  0
  -26.0810  -26.9810   19.5610 C   0  0  0  0  0  3  0  0  0  0  0  0
  -24.8770  -27.7080   19.5780 C   0  0  0  0  0  3  0  0  0  0  0  0
  -23.5910  -29.8250   20.2340 C   0  0  0  0  0  2  0  0  0  0  0  0
  -24.6390  -31.1170   22.1490 N   0  0  0  0  0  0  0  0  0  0  0  0
  -23.5010  -32.1840   23.7920 O   0  0  0  0  0  0  0  0  0  0  0  0
  -22.7340  -29.4860   22.5740 C   0  0  0  0  0  0  0  0  0  0  0  0
  -21.4090  -29.2980   22.4500 N   0  0  0  0  0  0  0  0  0  0  0  0
  -23.4210  -28.8640   23.3890 O   0  0  0  0  0  0  0  0  0  0  0  0
  -20.9140  -29.8510   21.7650 H   0  0  0  0  0  0  0  0  0  0  0  0
  -18.0410  -28.0970   22.9570 C   0  0  0  0  0  0  0  0  0  0  0  0
  -20.5980  -28.3580   23.2230 C   0  0  0  0  0  3  0  0  0  0  0  0
  -20.7020  -26.9270   22.6460 C   0  0  0  0  0  2  0  0  0  0  0  0
  -19.5990  -26.6040   21.6340 C   0  0  0  0  0  2  0  0  0  0  0  0
  -18.2170  -26.7470   22.2810 C   0  0  0  0  0  2  0  0  0  0  0  0
  -19.1590  -28.8590   23.3850 C   0  0  0  0  0  0  0  0  0  0  0  0
  -18.9390  -30.1230   23.9760 C   0  0  0  0  0  3  0  0  0  0  0  0
  -17.6350  -30.6230   24.1450 C   0  0  0  0  0  3  0  0  0  0  0  0
  -16.5300  -29.8560   23.7320 C   0  0  0  0  0  3  0  0  0  0  0  0
  -16.7350  -28.5950   23.1430 C   0  0  0  0  0  3  0  0  0  0  0  0
  -25.8680  -32.5500   23.8690 C   0  0  0  0  0  3  0  0  0  0  0  0
  -26.3890  -31.7830   25.1460 C   0  0  1  0  0  0  0  0  0  0  0  0
  -25.2990  -31.5480   26.2170 C   0  0  0  0  0  1  0  0  0  0  0  0
  -26.9750  -30.4070   24.7540 C   0  0  0  0  0  1  0  0  0  0  0  0
  -27.5420  -32.5810   25.8010 C   0  0  0  0  0  1  0  0  0  0  0  0
  -25.5590  -33.9490   24.1910 N   0  0  0  0  0  0  0  0  0  0  0  0
  -25.8970  -34.9970   23.4270 C   0  0  0  0  0  0  0  0  0  0  0  0
  -26.5750  -34.8880   22.4010 O   0  0  0  0  0  0  0  0  0  0  0  0
  -24.9570  -34.1080   24.9850 H   0  0  0  0  0  0  0  0  0  0  0  0
  -24.1770  -36.7920   23.0470 C   0  0  0  0  0  1  0  0  0  0  0  0
  -25.4080  -36.3880   23.8730 C   0  0  0  0  0  3  0  0  0  0  0  0
  -27.5370  -37.2700   24.7230 C   0  0  0  0  0  1  0  0  0  0  0  0
  -26.4450  -37.4370   23.7680 N   0  0  0  0  0  0  0  0  0  0  0  0
  -26.0390  -38.3580   23.9050 H   0  0  0  0  0  0  0  0  0  0  0  0
  1  2  2  0
  2  9  1  0
  3  1  1  0
  4 10  2  0
  6 12  1  0
  7 23  1  0
  7  5  1  0
  8 53  1  0
  8  6  1  0
  8  7  1  0
 10  2  1  0
 11  4  1  0
 11  3  2  0
 12  5  1  0
 12  4  1  0
 13 57  1  0
 13  3  1  0
 14 13  1  0
 15 23  1  0
 16 21  1  0
 17 18  1  0
 17 16  1  0
 19 18  1  0
 19 28  1  0
 19 20  1  0
 21 15  1  0
 21 20  1  0
 22 15  2  0
 23 24  1  0
 25 26  2  0
 26 45  1  0
 27 26  1  0
 27 30  1  0
 28 25  1  0
 28 29  1  0
 29 27  2  0
 30 31  1  0
 31 32  2  0
 33 36  1  0
 33 32  1  0
 34 33  2  0
 35 34  1  0
 35 30  2  0
 36 37  1  0
 37 38  1  0
 38 39  2  0
 40 39  1  0
 40 44  1  0
 41 40  2  0
 42 37  2  0
 42 41  1  0
 43 42  1  0
 45 46  1  0
 46 49  1  0
 46 48  1  0
 47 45  2  0
 50 51  1  0
 50 25  1  0
 52 50  1  0
 54 53  1  0
 55 53  1  0
 56 53  1  0
 57 58  1  0
 59 61  1  0
 59 58  1  0
 60 71  2  0
 61 66  1  0
 62 70  1  0
 62 72  1  0
 63 69  1  0
 63 65  1  0
 64 70  1  0
 65 66  2  0
 65 64  1  0
 67 68  1  0
 67 61  2  0
 68 63  2  0
 69 62  1  0
 70 60  1  0
 72 74  2  0
 73 72  1  0
 75 73  1  0
 76 85  2  0
 76 81  1  0
 77 73  1  0
 77 81  1  0
 78 77  1  0
 79 80  1  0
 79 78  1  0
 80 76  1  0
 81 82  2  0
 82 83  1  0
 84 83  2  0
 85 84  1  0
 86 60  1  0
 86 91  1  0
 86 87  1  0
 87 90  1  1
 87 88  1  0
 89 87  1  0
 91 94  1  0
 92 96  1  0
 92 91  1  0
 93 92  2  0
 96 95  1  0
 98 96  1  0
 98 99  1  0
 98 97  1  0
M  ISO  4  15 100  23 100  58 101  59 101
M  END
>  <TORSDO>  (61) 
F 19

>  <SCORE>  (61) 
-14.822

>  <name>  (61) 
61

>  <ligand_id>  (61) 
61

>  <original_smiles>  (61) 
[H]c1c(N([H])C([H])([H])C([H])([H])Oc2c([H])c([H])c3c(c2[H])C([H])([H])N(C(=O)C([H])(N([H])C(=O)C([H])(N([H])C([H])([H])[H])C([H])([H])[H])C(C([H])([H])[H])(C([H])([H])[H])C([H])([H])[H])C([H])(C(=O)N([H])C2([H])c4c([H])c([H])c([H])c([H])c4C([H])([H])C([H])([H])C2([H])[H])C3([H])[H])nc(N2C([H])([H])C([H])(N([H])C(=O)N3C([H])([H])C([H])([H])C([H])([H])C([H])(n4nc(-c5c([H])c([H])c(Oc6c([H])c([H])c(F)c([H])c6F)c([H])c5[H])c(C(=O)N([H])[H])c4N([H])[H])C3([H])[H])C([H])([N+]([H])([H])[H])C2([H])[H])nc1C([H])([H])[H]

>  <smiles>  (61) 
[H]c1c(N([H])C([H])([H])C([H])([H])Oc2c([H])c([H])c3c(c2[H])C([H])([H])N(C(=O)C([H])(N([H])C(=O)C([H])(N([H])C([H])([H])[H])C([H])([H])[H])C(C([H])([H])[H])(C([H])([H])[H])C([H])([H])[H])C([H])(C(=O)N([H])C2([H])c4c([H])c([H])c([H])c([H])c4C([H])([H])C([H])([H])C2([H])[H])C3([H])[H])nc(N2C([H])([H])C([H])(N([H])C(=O)N3C([H])([H])C([H])([H])C([H])([H])C([H])(n4nc(-c5c([H])c([H])c(Oc6c([H])c([H])c(F)c([H])c6F)c([H])c5[H])c(C(=O)N([H])[H])c4N([H])[H])C3([H])[H])C([H])([N+]([H])([H])[H])C2([H])[H])nc1C([H])([H])[H]

$$$$
62:0:0
     RDKit          3D

 92101  0  0  1  0  0  0  0  0999 V2000
  -28.0320  -20.2520   21.1000 C   0  0  0  0  0  2  0  0  0  0  0  0
  -28.1060  -20.9570   19.7440 C   0  0  0  0  0  3  0  0  0  0  0  0
  -29.5320  -19.9670   21.1680 C   0  0  0  0  0  3  0  0  0  0  0  0
  -28.8130  -19.5790   19.0690 C   0  0  0  0  0  3  0  0  0  0  0  0
  -28.8560  -22.4650   19.9540 C   0  0  0  0  0  3  0  0  0  0  0  0
  -29.8480  -18.7240   20.0530 C   0  0  0  0  0  3  0  0  0  0  0  0
  -29.8980  -21.6210   20.9390 C   0  0  1  0  0  0  0  0  0  0  0  0
  -29.8910  -22.3300   22.3140 C   0  0  0  0  0  1  0  0  0  0  0  0
  -31.3330  -21.7390   20.3960 C   0  0  0  0  0  1  0  0  0  0  0  0
  -30.6070  -15.7050   20.1150 C   0  0  0  0  0  0  0  0  0  0  0  0
  -30.6860  -13.2030   19.2810 C   0  0  0  0  0  2  0  0  0  0  0  0
  -29.7550  -12.8720   18.0820 C   0  0  0  0  0  2  0  0  0  0  0  0
  -28.3380  -12.5320   18.5700 C   0  0  0  0  0  2  0  0  0  0  0  0
  -27.8650  -13.5170   19.6650 C   0  0  0  0  0  3  0  0  0  0  0  0
  -28.9240  -13.7740   20.7600 C   0  0  0  0  0  2  0  0  0  0  0  0
  -30.1000  -14.3540   20.0870 N   0  0  0  0  0  0  0  0  0  0  0  0
  -31.8230  -15.7060   19.8590 O   0  0  0  0  0  0  0  0  0  0  0  0
  -29.8010  -16.9960   20.2460 N   0  0  0  0  0  0  0  0  0  0  0  0
  -28.8510  -16.7200   20.4490 H   0  0  0  0  0  0  0  0  0  0  0  0
  -25.5290  -14.0330   20.5210 C   0  0  0  0  0  0  0  0  0  0  0  0
  -24.4830  -13.2410   20.9000 C   0  0  0  0  0  0  0  0  0  0  0  0
  -24.9530  -11.8930   20.8100 C   0  0  0  0  0  0  0  0  0  0  0  0
  -26.5630  -13.1700   20.2130 N   0  0  0  0  0  0  0  0  0  0  0  0
  -26.2350  -11.8750   20.4560 N   0  0  0  0  0  0  0  0  0  0  0  0
  -24.2360  -10.6240   20.9810 C   0  0  0  0  0  0  0  0  0  0  0  0
  -24.6450   -9.6640   21.9330 C   0  0  0  0  0  3  0  0  0  0  0  0
  -23.9230   -8.4610   22.0930 C   0  0  0  0  0  3  0  0  0  0  0  0
  -22.7770   -8.2100   21.3020 C   0  0  0  0  0  0  0  0  0  0  0  0
  -22.3850   -9.1600   20.3420 C   0  0  0  0  0  3  0  0  0  0  0  0
  -23.1080  -10.3530   20.1800 C   0  0  0  0  0  3  0  0  0  0  0  0
  -22.0280   -7.0590   21.3710 O   0  0  0  0  0  0  0  0  0  0  0  0
  -21.8690   -6.3740   22.5490 C   0  0  0  0  0  0  0  0  0  0  0  0
  -21.2520   -6.9600   23.6750 C   0  0  0  0  0  3  0  0  0  0  0  0
  -21.0440   -6.1990   24.8410 C   0  0  0  0  0  3  0  0  0  0  0  0
  -21.4450   -4.8490   24.8830 C   0  0  0  0  0  0  0  0  0  0  0  0
  -22.0560   -4.2620   23.7610 C   0  0  0  0  0  3  0  0  0  0  0  0
  -22.2630   -5.0210   22.5960 C   0  0  0  0  0  0  0  0  0  0  0  0
  -22.8320   -4.4440   21.5100 F   0  0  0  0  0  0  0  0  0  0  0  0
  -21.2400   -4.1150   26.0010 F   0  0  0  0  0  0  0  0  0  0  0  0
  -23.0950  -13.7050   21.2250 C   0  0  0  0  0  0  0  0  0  0  0  0
  -22.3970  -12.9850   22.0950 N   0  0  0  0  0  0  0  0  0  0  0  0
  -22.6410  -14.7430   20.7450 O   0  0  0  0  0  0  0  0  0  0  0  0
  -22.7760  -12.1440   22.5020 H   0  0  0  0  0  0  0  0  0  0  0  0
  -21.4670  -13.2800   22.3590 H   0  0  0  0  0  0  0  0  0  0  0  0
  -25.6790  -15.4100   20.3790 N   0  0  0  0  0  0  0  0  0  0  0  0
  -24.9010  -16.0480   20.5110 H   0  0  0  0  0  0  0  0  0  0  0  0
  -26.4950  -15.8590   19.9860 H   0  0  0  0  0  0  0  0  0  0  0  0
  -29.7260  -18.4870   16.9530 C   0  0  0  0  0  1  0  0  0  0  0  0
  -28.2480  -20.4980   16.7470 C   0  0  0  0  0  1  0  0  0  0  0  0
  -29.3140  -19.8080   17.6250 C   0  0  0  0  0  3  0  0  0  0  0  0
  -28.0400  -24.1590   20.1700 C   0  0  0  0  0  2  0  0  0  0  0  0
  -28.2980  -25.8460   20.0500 O   0  0  0  0  0  0  0  0  0  0  0  0
  -24.7030  -31.9030   23.0820 C   0  0  0  0  0  0  0  0  0  0  0  0
  -27.3030  -26.9980   20.0260 C   0  0  0  0  0  0  0  0  0  0  0  0
  -23.5350  -30.5150   21.4220 C   0  0  0  0  0  3  0  0  0  0  0  0
  -25.0060  -28.9320   19.9880 C   0  0  0  0  0  0  0  0  0  0  0  0
  -26.1040  -30.7310   21.2950 C   0  0  0  0  0  2  0  0  0  0  0  0
  -26.1920  -29.3180   20.6220 C   0  0  0  0  0  0  0  0  0  0  0  0
  -27.3340  -28.3770   20.6110 C   0  0  0  0  0  3  0  0  0  0  0  0
  -26.0840  -26.7970   19.3370 C   0  0  0  0  0  3  0  0  0  0  0  0
  -24.9820  -27.6970   19.3210 C   0  0  0  0  0  3  0  0  0  0  0  0
  -23.7820  -29.8510   20.0400 C   0  0  0  0  0  2  0  0  0  0  0  0
  -24.8020  -31.0790   21.9870 N   0  0  0  0  0  0  0  0  0  0  0  0
  -23.6070  -32.1750   23.6010 O   0  0  0  0  0  0  0  0  0  0  0  0
  -22.8430  -29.5020   22.3730 C   0  0  0  0  0  0  0  0  0  0  0  0
  -21.5120  -29.3380   22.2570 N   0  0  0  0  0  0  0  0  0  0  0  0
  -23.5120  -28.8610   23.1870 O   0  0  0  0  0  0  0  0  0  0  0  0
  -21.0210  -29.9080   21.5820 H   0  0  0  0  0  0  0  0  0  0  0  0
  -18.1260  -28.1490   22.8250 C   0  0  0  0  0  0  0  0  0  0  0  0
  -20.6980  -28.3790   23.0150 C   0  0  0  0  0  3  0  0  0  0  0  0
  -20.7640  -26.9710   22.3820 C   0  0  0  0  0  2  0  0  0  0  0  0
  -19.6280  -26.7030   21.3900 C   0  0  0  0  0  2  0  0  0  0  0  0
  -18.2680  -26.8310   22.0830 C   0  0  0  0  0  2  0  0  0  0  0  0
  -19.2670  -28.8830   23.2470 C   0  0  0  0  0  0  0  0  0  0  0  0
  -19.0790  -30.1150   23.9090 C   0  0  0  0  0  3  0  0  0  0  0  0
  -17.7850  -30.6180   24.1440 C   0  0  0  0  0  3  0  0  0  0  0  0
  -16.6600  -29.8820   23.7350 C   0  0  0  0  0  3  0  0  0  0  0  0
  -16.8320  -28.6480   23.0820 C   0  0  0  0  0  3  0  0  0  0  0  0
  -25.9590  -32.5610   23.7300 C   0  0  0  0  0  3  0  0  0  0  0  0
  -25.6120  -33.9450   24.0970 N   0  0  0  0  0  0  0  0  0  0  0  0
  -25.9020  -35.0320   23.3670 C   0  0  0  0  0  0  0  0  0  0  0  0
  -26.5490  -34.9720   22.3190 O   0  0  0  0  0  0  0  0  0  0  0  0
  -25.0330  -34.0620   24.9150 H   0  0  0  0  0  0  0  0  0  0  0  0
  -24.1310  -36.8050   23.1050 C   0  0  0  0  0  1  0  0  0  0  0  0
  -25.3960  -36.3970   23.8780 C   0  0  0  0  0  3  0  0  0  0  0  0
  -27.5190  -37.3170   24.7050 C   0  0  0  0  0  1  0  0  0  0  0  0
  -26.4030  -37.4770   23.7760 N   0  0  0  0  0  0  0  0  0  0  0  0
  -25.9770  -38.3840   23.9500 H   0  0  0  0  0  0  0  0  0  0  0  0
  -26.4750  -31.7820   25.0040 C   0  0  1  0  0  0  0  0  0  0  0  0
  -25.3730  -31.4960   26.0500 C   0  0  0  0  0  1  0  0  0  0  0  0
  -27.1040  -30.4260   24.6090 C   0  0  0  0  0  1  0  0  0  0  0  0
  -27.5910  -32.5980   25.6990 C   0  0  0  0  0  1  0  0  0  0  0  0
  2  5  1  0
  2  1  1  0
  3  1  1  0
  4 50  1  0
  4  2  1  0
  4  6  1  0
  5 51  1  0
  5  7  1  0
  6 18  1  0
  6  3  1  0
  7  3  1  0
  7  8  1  1
  9  7  1  0
 10 18  1  0
 11 16  1  0
 12 13  1  0
 12 11  1  0
 14 13  1  0
 14 23  1  0
 14 15  1  0
 16 10  1  0
 16 15  1  0
 17 10  2  0
 18 19  1  0
 20 21  2  0
 21 40  1  0
 22 21  1  0
 22 25  1  0
 23 24  1  0
 23 20  1  0
 24 22  2  0
 25 26  1  0
 26 27  2  0
 28 31  1  0
 28 27  1  0
 29 28  2  0
 30 29  1  0
 30 25  2  0
 31 32  1  0
 32 37  2  0
 32 33  1  0
 33 34  2  0
 34 35  1  0
 35 39  1  0
 36 35  2  0
 37 36  1  0
 38 37  1  0
 40 41  1  0
 41 44  1  0
 41 43  1  0
 42 40  2  0
 45 46  1  0
 45 20  1  0
 47 45  1  0
 48 50  1  0
 49 50  1  0
 52 51  1  0
 53 64  2  0
 54 52  1  0
 54 59  1  0
 55 63  1  0
 55 65  1  0
 56 62  1  0
 56 58  1  0
 57 63  1  0
 58 57  1  0
 59 58  2  0
 60 54  2  0
 61 60  1  0
 61 56  2  0
 62 55  1  0
 63 53  1  0
 65 67  2  0
 66 65  1  0
 68 66  1  0
 69 78  2  0
 69 74  1  0
 70 66  1  0
 70 74  1  0
 71 70  1  0
 72 73  1  0
 72 71  1  0
 73 69  1  0
 74 75  2  0
 75 76  1  0
 77 76  2  0
 78 77  1  0
 79 53  1  0
 79 80  1  0
 79 89  1  0
 80 83  1  0
 81 85  1  0
 81 80  1  0
 82 81  2  0
 85 84  1  0
 87 85  1  0
 87 88  1  0
 87 86  1  0
 89 92  1  1
 89 90  1  0
 91 89  1  0
M  ISO  4  10 100  18 100  51 101  52 101
M  END
>  <TORSDO>  (62) 
F 18

>  <SCORE>  (62) 
-15.344

>  <name>  (62) 
62

>  <ligand_id>  (62) 
62

>  <original_smiles>  (62) 
[H]c1c([H])c([H])c2c(c1[H])C([H])([H])C([H])([H])C([H])([H])C2([H])N([H])C(=O)C1([H])N(C(=O)C([H])(N([H])C(=O)C([H])(N([H])C([H])([H])[H])C([H])([H])[H])C(C([H])([H])[H])(C([H])([H])[H])C([H])([H])[H])C([H])([H])c2c([H])c(OC([H])([H])C3([H])C4([H])C([H])([H])C([H])(C([H])(N([H])C(=O)N5C([H])([H])C([H])([H])C([H])([H])C([H])(n6nc(-c7c([H])c([H])c(Oc8c([H])c([H])c(F)c([H])c8F)c([H])c7[H])c(C(=O)N([H])[H])c6N([H])[H])C5([H])[H])C4([H])C([H])(C([H])([H])[H])C([H])([H])[H])C3(C([H])([H])[H])C([H])([H])[H])c([H])c([H])c2C1([H])[H]

>  <smiles>  (62) 
[H]c1c([H])c([H])c2c(c1[H])C([H])([H])C([H])([H])C([H])([H])C2([H])N([H])C(=O)C1([H])N(C(=O)C([H])(N([H])C(=O)C([H])(N([H])C([H])([H])[H])C([H])([H])[H])C(C([H])([H])[H])(C([H])([H])[H])C([H])([H])[H])C([H])([H])c2c([H])c(OC([H])([H])C3([H])C4([H])C([H])([H])C([H])(C([H])(N([H])C(=O)N5C([H])([H])C([H])([H])C([H])([H])C([H])(n6nc(-c7c([H])c([H])c(Oc8c([H])c([H])c(F)c([H])c8F)c([H])c7[H])c(C(=O)N([H])[H])c6N([H])[H])C5([H])[H])C4([H])C([H])(C([H])([H])[H])C([H])([H])[H])C3(C([H])([H])[H])C([H])([H])[H])c([H])c([H])c2C1([H])[H]

$$$$
63:0:0
     RDKit          3D

100110  0  0  1  0  0  0  0  0999 V2000
  -31.1660  -14.9190   19.8620 C   0  0  0  0  0  0  0  0  0  0  0  0
  -30.8860  -12.6300   18.8580 C   0  0  0  0  0  2  0  0  0  0  0  0
  -29.8460  -12.6790   17.7150 C   0  0  0  0  0  2  0  0  0  0  0  0
  -28.4180  -12.5050   18.2650 C   0  0  0  0  0  2  0  0  0  0  0  0
  -28.1480  -13.4110   19.4970 C   0  0  0  0  0  3  0  0  0  0  0  0
  -29.2950  -13.3210   20.5260 C   0  0  0  0  0  2  0  0  0  0  0  0
  -30.5280  -13.6960   19.8240 N   0  0  0  0  0  0  0  0  0  0  0  0
  -32.3250  -14.9940   19.4310 O   0  0  0  0  0  0  0  0  0  0  0  0
  -31.3250  -18.5420   22.4220 C   0  0  0  0  0  3  0  0  0  0  0  0
  -30.6590  -19.7310   22.0630 C   0  0  0  0  0  0  0  0  0  0  0  0
  -30.1670  -19.7740   20.7130 C   0  0  0  0  0  0  0  0  0  0  0  0
  -30.6880  -17.3900   20.5650 C   0  0  0  0  0  0  0  0  0  0  0  0
  -31.3320  -17.4080   21.7130 N   0  0  0  0  0  0  0  0  0  0  0  0
  -30.1460  -18.5430   20.0350 N   0  0  0  0  0  0  0  0  0  0  0  0
  -30.3990  -16.0640   20.1050 N   0  0  0  0  0  0  0  0  0  0  0  0
  -29.4210  -15.8480   20.2040 H   0  0  0  0  0  0  0  0  0  0  0  0
  -31.0710  -22.1360   19.8670 C   0  0  0  0  0  2  0  0  0  0  0  0
  -28.6150  -22.1280   20.0420 C   0  0  0  0  0  2  0  0  0  0  0  0
  -29.7480  -23.8760   18.3590 C   0  0  0  0  0  2  0  0  0  0  0  0
  -29.8780  -21.1420   19.8890 C   0  0  0  0  0  3  0  0  0  0  0  0
  -30.5400  -23.5590   19.5990 C   0  0  0  0  0  3  0  0  0  0  0  0
  -29.0310  -23.6190   19.6700 C   0  0  2  0  0  0  0  0  0  0  0  0
  -28.2160  -24.8910   20.2230 C   0  0  0  0  0  2  0  0  0  0  0  0
  -28.5370  -26.3280   19.8570 O   0  0  0  0  0  0  0  0  0  0  0  0
  -24.6780  -31.6720   22.9060 C   0  0  0  0  0  0  0  0  0  0  0  0
  -27.4730  -27.2530   19.7820 C   0  0  0  0  0  0  0  0  0  0  0  0
  -23.5810  -30.3340   21.1460 C   0  0  0  0  0  3  0  0  0  0  0  0
  -25.1200  -28.8910   19.7020 C   0  0  0  0  0  0  0  0  0  0  0  0
  -26.1220  -30.6920   21.1010 C   0  0  0  0  0  2  0  0  0  0  0  0
  -26.2520  -29.3440   20.3940 C   0  0  0  0  0  0  0  0  0  0  0  0
  -27.4360  -28.5370   20.4270 C   0  0  0  0  0  3  0  0  0  0  0  0
  -26.3350  -26.8850   19.0330 C   0  0  0  0  0  3  0  0  0  0  0  0
  -25.1720  -27.6770   19.0010 C   0  0  0  0  0  3  0  0  0  0  0  0
  -23.8670  -29.7470   19.7410 C   0  0  0  0  0  2  0  0  0  0  0  0
  -24.8090  -30.9170   21.7740 N   0  0  0  0  0  0  0  0  0  0  0  0
  -23.5660  -31.9000   23.4030 O   0  0  0  0  0  0  0  0  0  0  0  0
  -22.9010  -29.2560   22.0250 C   0  0  0  0  0  0  0  0  0  0  0  0
  -21.5610  -29.1700   21.9540 N   0  0  0  0  0  0  0  0  0  0  0  0
  -23.5770  -28.5030   22.7320 O   0  0  0  0  0  0  0  0  0  0  0  0
  -21.0760  -29.8160   21.3480 H   0  0  0  0  0  0  0  0  0  0  0  0
  -18.1390  -28.1880   22.6060 C   0  0  0  0  0  0  0  0  0  0  0  0
  -20.7250  -28.2050   22.6700 C   0  0  0  0  0  3  0  0  0  0  0  0
  -20.6500  -26.8660   21.9010 C   0  0  0  0  0  2  0  0  0  0  0  0
  -19.4450  -26.7770   20.9610 C   0  0  0  0  0  2  0  0  0  0  0  0
  -18.1370  -26.9410   21.7390 C   0  0  0  0  0  2  0  0  0  0  0  0
  -19.3530  -28.7900   23.0300 C   0  0  0  0  0  0  0  0  0  0  0  0
  -19.2980  -29.9680   23.8100 C   0  0  0  0  0  3  0  0  0  0  0  0
  -18.0610  -30.5420   24.1590 C   0  0  0  0  0  3  0  0  0  0  0  0
  -16.8630  -29.9350   23.7460 C   0  0  0  0  0  3  0  0  0  0  0  0
  -16.9030  -28.7580   22.9780 C   0  0  0  0  0  3  0  0  0  0  0  0
  -25.9180  -32.3030   23.6150 C   0  0  0  0  0  3  0  0  0  0  0  0
  -25.5400  -33.6530   24.0570 N   0  0  0  0  0  0  0  0  0  0  0  0
  -25.8450  -34.7790   23.4020 C   0  0  0  0  0  0  0  0  0  0  0  0
  -26.5430  -34.7970   22.3850 O   0  0  0  0  0  0  0  0  0  0  0  0
  -24.9270  -33.7140   24.8560 H   0  0  0  0  0  0  0  0  0  0  0  0
  -24.0510  -36.5170   23.1520 C   0  0  0  0  0  1  0  0  0  0  0  0
  -25.2870  -36.0990   23.9660 C   0  0  0  0  0  3  0  0  0  0  0  0
  -27.3440  -36.9930   24.9560 C   0  0  0  0  0  1  0  0  0  0  0  0
  -26.2750  -37.2000   23.9810 N   0  0  0  0  0  0  0  0  0  0  0  0
  -25.8260  -38.0890   24.1840 H   0  0  0  0  0  0  0  0  0  0  0  0
  -26.4320  -31.4490   24.8400 C   0  0  1  0  0  0  0  0  0  0  0  0
  -25.3230  -31.1060   25.8630 C   0  0  0  0  0  1  0  0  0  0  0  0
  -27.0550  -30.1210   24.3550 C   0  0  0  0  0  1  0  0  0  0  0  0
  -27.5610  -32.2140   25.5710 C   0  0  0  0  0  1  0  0  0  0  0  0
  -25.8810  -14.0560   20.5070 C   0  0  0  0  0  0  0  0  0  0  0  0
  -24.8180  -13.3050   20.9350 C   0  0  0  0  0  0  0  0  0  0  0  0
  -25.2020  -11.9400   20.7540 C   0  0  0  0  0  0  0  0  0  0  0  0
  -26.8460  -13.1480   20.1020 N   0  0  0  0  0  0  0  0  0  0  0  0
  -26.4530  -11.8660   20.3100 N   0  0  0  0  0  0  0  0  0  0  0  0
  -24.4280  -10.7060   20.9290 C   0  0  0  0  0  0  0  0  0  0  0  0
  -24.8440   -9.6970   21.8240 C   0  0  0  0  0  3  0  0  0  0  0  0
  -24.0760   -8.5240   21.9860 C   0  0  0  0  0  3  0  0  0  0  0  0
  -22.8770   -8.3530   21.2540 C   0  0  0  0  0  0  0  0  0  0  0  0
  -22.4810   -9.3500   20.3450 C   0  0  0  0  0  3  0  0  0  0  0  0
  -23.2480  -10.5160   20.1790 C   0  0  0  0  0  3  0  0  0  0  0  0
  -22.0760   -7.2380   21.3290 O   0  0  0  0  0  0  0  0  0  0  0  0
  -21.9650   -6.5090   22.4860 C   0  0  0  0  0  0  0  0  0  0  0  0
  -21.4470   -7.0680   23.6740 C   0  0  0  0  0  3  0  0  0  0  0  0
  -21.2820   -6.2640   24.8200 C   0  0  0  0  0  3  0  0  0  0  0  0
  -21.6290   -4.9000   24.7790 C   0  0  0  0  0  0  0  0  0  0  0  0
  -22.1410   -4.3380   23.5960 C   0  0  0  0  0  3  0  0  0  0  0  0
  -22.3060   -5.1400   22.4520 C   0  0  0  0  0  0  0  0  0  0  0  0
  -22.7780   -4.5900   21.3080 F   0  0  0  0  0  0  0  0  0  0  0  0
  -21.4660   -4.1250   25.8770 F   0  0  0  0  0  0  0  0  0  0  0  0
  -23.4850  -13.8300   21.3770 C   0  0  0  0  0  0  0  0  0  0  0  0
  -22.8020  -13.1100   22.2630 N   0  0  0  0  0  0  0  0  0  0  0  0
  -23.0550  -14.9080   20.9700 O   0  0  0  0  0  0  0  0  0  0  0  0
  -23.1580  -12.2350   22.6140 H   0  0  0  0  0  0  0  0  0  0  0  0
  -21.9090  -13.4440   22.5980 H   0  0  0  0  0  0  0  0  0  0  0  0
  -26.0840  -15.4280   20.4170 N   0  0  0  0  0  0  0  0  0  0  0  0
  -25.3370  -16.0710   20.6640 H   0  0  0  0  0  0  0  0  0  0  0  0
  -26.8610  -15.8900   19.9610 H   0  0  0  0  0  0  0  0  0  0  0  0
  -30.6090  -22.2850   23.0440 C   0  0  0  0  0  1  0  0  0  0  0  0
  -30.5900  -20.7570   23.2370 C   0  0  0  0  0  3  0  0  0  0  0  0
  -29.5610  -20.3540   24.3600 C   0  0  0  0  0  2  0  0  0  0  0  0
  -30.0610  -19.2240   25.1820 N   0  0  0  0  0  4  0  0  0  0  0  0
  -30.0910  -18.3770   24.6420 H   0  0  0  0  0  0  0  0  0  0  0  0
  -31.0120  -19.4630   25.4250 H   0  0  0  0  0  0  0  0  0  0  0  0
  -27.9380  -18.4660   26.3890 C   0  0  0  0  0  1  0  0  0  0  0  0
  -29.4000  -18.9360   26.4810 C   0  0  0  0  0  2  0  0  0  0  0  0
  1 15  1  0
  2  7  1  0
  3  4  1  0
  3  2  1  0
  5  4  1  0
  5 68  1  0
  5  6  1  0
  7  1  1  0
  7  6  1  0
  8  1  2  0
 10  9  2  0
 10 94  1  0
 11 10  1  0
 12 13  2  0
 13  9  1  0
 14 12  1  0
 14 11  2  0
 15 16  1  0
 15 12  1  0
 17 20  1  0
 19 22  1  0
 20 18  1  0
 20 11  1  0
 21 19  1  0
 21 22  1  0
 21 17  1  0
 22 18  1  0
 22 23  1  1
 24 23  1  0
 25 36  2  0
 26 24  1  0
 26 31  1  0
 27 35  1  0
 27 37  1  0
 28 34  1  0
 28 30  1  0
 29 35  1  0
 30 31  2  0
 30 29  1  0
 32 26  2  0
 33 32  1  0
 33 28  2  0
 34 27  1  0
 35 25  1  0
 37 39  2  0
 38 37  1  0
 40 38  1  0
 41 50  2  0
 41 46  1  0
 42 38  1  0
 42 46  1  0
 43 42  1  0
 44 45  1  0
 44 43  1  0
 45 41  1  0
 46 47  2  0
 47 48  1  0
 49 48  2  0
 50 49  1  0
 51 25  1  0
 51 52  1  0
 51 61  1  0
 52 55  1  0
 53 57  1  0
 53 52  1  0
 54 53  2  0
 57 56  1  0
 57 59  1  0
 59 60  1  0
 59 58  1  0
 61 64  1  1
 61 62  1  0
 63 61  1  0
 65 66  2  0
 66 85  1  0
 67 70  1  0
 67 66  1  0
 68 69  1  0
 68 65  1  0
 69 67  2  0
 70 71  1  0
 71 72  2  0
 73 76  1  0
 73 72  1  0
 74 73  2  0
 75 74  1  0
 75 70  2  0
 76 77  1  0
 77 78  1  0
 78 79  2  0
 80 79  1  0
 80 84  1  0
 81 80  2  0
 82 77  2  0
 82 81  1  0
 83 82  1  0
 85 86  1  0
 86 89  1  0
 86 88  1  0
 87 85  2  0
 90 65  1  0
 90 91  1  0
 92 90  1  0
 94 93  1  0
 94 95  1  0
 95 96  1  0
 96 98  1  0
 96100  1  0
 97 96  1  0
 99100  1  0
M  ISO  4   1 100  15 100  23 101  24 101
M  END
>  <TORSDO>  (63) 
F 21

>  <SCORE>  (63) 
-6.084

>  <name>  (63) 
63

>  <ligand_id>  (63) 
63

>  <original_smiles>  (63) 
[H]c1nc(N([H])C(=O)N2C([H])([H])C([H])([H])C([H])([H])C([H])(n3nc(-c4c([H])c([H])c(Oc5c([H])c([H])c(F)c([H])c5F)c([H])c4[H])c(C(=O)N([H])[H])c3N([H])[H])C2([H])[H])nc(C2([H])C([H])([H])C3([H])C([H])([H])C3(C([H])([H])Oc3c([H])c([H])c4c(c3[H])C([H])([H])N(C(=O)C([H])(N([H])C(=O)C([H])(N([H])C([H])([H])[H])C([H])([H])[H])C(C([H])([H])[H])(C([H])([H])[H])C([H])([H])[H])C([H])(C(=O)N([H])C3([H])c5c([H])c([H])c([H])c([H])c5C([H])([H])C([H])([H])C3([H])[H])C4([H])[H])C2([H])[H])c1C([H])(C([H])([H])[H])C([H])([H])[N+]([H])([H])C([H])([H])C([H])([H])[H]

>  <smiles>  (63) 
[H]c1nc(N([H])C(=O)N2C([H])([H])C([H])([H])C([H])([H])C([H])(n3nc(-c4c([H])c([H])c(Oc5c([H])c([H])c(F)c([H])c5F)c([H])c4[H])c(C(=O)N([H])[H])c3N([H])[H])C2([H])[H])nc(C2([H])C([H])([H])C3([H])C([H])([H])C3(C([H])([H])Oc3c([H])c([H])c4c(c3[H])C([H])([H])N(C(=O)C([H])(N([H])C(=O)C([H])(N([H])C([H])([H])[H])C([H])([H])[H])C(C([H])([H])[H])(C([H])([H])[H])C([H])([H])[H])C([H])(C(=O)N([H])C3([H])c5c([H])c([H])c([H])c([H])c5C([H])([H])C([H])([H])C3([H])[H])C4([H])[H])C2([H])[H])c1C([H])(C([H])([H])[H])C([H])([H])[N+]([H])([H])C([H])([H])C([H])([H])[H]

$$$$
64:0:0
     RDKit          3D

 91101  0  0  1  0  0  0  0  0999 V2000
  -28.0610  -20.1330   21.0370 C   0  0  0  0  0  2  0  0  0  0  0  0
  -29.2020  -19.7020   20.3710 C   0  0  0  0  0  3  0  0  0  0  0  0
  -29.6230  -20.1360   19.0560 C   0  0  0  0  0  3  0  0  0  0  0  0
  -29.0290  -21.5600   18.6990 C   0  0  0  0  0  3  0  0  0  0  0  0
  -27.3240  -21.0920   20.3270 C   0  0  0  0  0  0  0  0  0  0  0  0
  -30.3400  -18.7860   20.6660 C   0  0  0  0  0  2  0  0  0  0  0  0
  -30.7820  -18.8130   19.1370 C   0  0  0  0  0  3  0  0  0  0  0  0
  -25.9290  -21.4730   20.7620 C   0  0  0  0  0  1  0  0  0  0  0  0
  -27.8040  -21.7650   19.2570 N   0  0  0  0  0  0  0  0  0  0  0  0
  -31.5770  -15.9670   19.0590 C   0  0  0  0  0  0  0  0  0  0  0  0
  -31.6550  -13.4240   18.5660 C   0  0  0  0  0  2  0  0  0  0  0  0
  -30.6310  -12.9680   17.4960 C   0  0  0  0  0  2  0  0  0  0  0  0
  -29.2490  -12.6950   18.1260 C   0  0  0  0  0  2  0  0  0  0  0  0
  -28.8440  -13.7890   19.1480 C   0  0  0  0  0  3  0  0  0  0  0  0
  -29.9920  -14.1850   20.0980 C   0  0  0  0  0  2  0  0  0  0  0  0
  -31.1020  -14.6450   19.2480 N   0  0  0  0  0  0  0  0  0  0  0  0
  -32.7870  -16.0230   18.7890 O   0  0  0  0  0  0  0  0  0  0  0  0
  -30.7090  -17.1580   18.9700 N   0  0  0  0  0  0  0  0  0  0  0  0
  -29.7480  -16.8540   18.9700 H   0  0  0  0  0  0  0  0  0  0  0  0
  -26.6900  -14.3550   20.3930 C   0  0  0  0  0  0  0  0  0  0  0  0
  -25.6580  -13.5860   20.8590 C   0  0  0  0  0  0  0  0  0  0  0  0
  -26.0170  -12.2300   20.5770 C   0  0  0  0  0  0  0  0  0  0  0  0
  -27.6100  -13.4690   19.8570 N   0  0  0  0  0  0  0  0  0  0  0  0
  -27.2270  -12.1770   20.0320 N   0  0  0  0  0  0  0  0  0  0  0  0
  -25.2480  -10.9910   20.7470 C   0  0  0  0  0  0  0  0  0  0  0  0
  -25.5950  -10.0290   21.7220 C   0  0  0  0  0  3  0  0  0  0  0  0
  -24.8240   -8.8570   21.8760 C   0  0  0  0  0  3  0  0  0  0  0  0
  -23.6940   -8.6360   21.0540 C   0  0  0  0  0  0  0  0  0  0  0  0
  -23.3680   -9.5840   20.0690 C   0  0  0  0  0  3  0  0  0  0  0  0
  -24.1390  -10.7470   19.9130 C   0  0  0  0  0  3  0  0  0  0  0  0
  -22.9010   -7.5150   21.1150 O   0  0  0  0  0  0  0  0  0  0  0  0
  -22.4070   -7.0470   22.3060 C   0  0  0  0  0  0  0  0  0  0  0  0
  -21.6020   -7.8480   23.1450 C   0  0  0  0  0  3  0  0  0  0  0  0
  -21.0570   -7.3060   24.3260 C   0  0  0  0  0  3  0  0  0  0  0  0
  -21.3060   -5.9630   24.6650 C   0  0  0  0  0  0  0  0  0  0  0  0
  -22.1030   -5.1620   23.8290 C   0  0  0  0  0  3  0  0  0  0  0  0
  -22.6480   -5.7010   22.6510 C   0  0  0  0  0  0  0  0  0  0  0  0
  -23.3980   -4.9190   21.8370 F   0  0  0  0  0  0  0  0  0  0  0  0
  -20.7760   -5.4390   25.7950 F   0  0  0  0  0  0  0  0  0  0  0  0
  -24.3690  -14.0900   21.4350 C   0  0  0  0  0  0  0  0  0  0  0  0
  -23.7810  -13.3470   22.3660 N   0  0  0  0  0  0  0  0  0  0  0  0
  -23.8960  -15.1740   21.0920 O   0  0  0  0  0  0  0  0  0  0  0  0
  -24.1800  -12.4670   22.6610 H   0  0  0  0  0  0  0  0  0  0  0  0
  -22.9240  -13.6630   22.7950 H   0  0  0  0  0  0  0  0  0  0  0  0
  -26.9070  -15.7300   20.3450 N   0  0  0  0  0  0  0  0  0  0  0  0
  -26.2040  -16.3940   20.6470 H   0  0  0  0  0  0  0  0  0  0  0  0
  -27.6620  -16.1680   19.8350 H   0  0  0  0  0  0  0  0  0  0  0  0
  -29.4620  -24.3340   18.8630 C   0  0  0  0  0  2  0  0  0  0  0  0
  -29.2430  -23.1310   17.9810 C   0  0  0  0  0  3  0  0  0  0  0  0
  -28.2570  -24.6340   17.9880 C   0  0  0  0  0  3  0  0  0  0  0  0
  -28.3510  -26.2550   17.6840 O   0  0  0  0  0  0  0  0  0  0  0  0
  -25.5190  -30.7850   23.0430 C   0  0  0  0  0  0  0  0  0  0  0  0
  -27.4370  -27.3300   18.1590 C   0  0  0  0  0  0  0  0  0  0  0  0
  -24.1120  -30.2230   21.1070 C   0  0  0  0  0  3  0  0  0  0  0  0
  -25.3210  -29.2140   19.0470 C   0  0  0  0  0  0  0  0  0  0  0  0
  -26.6750  -30.3000   20.8250 C   0  0  0  0  0  2  0  0  0  0  0  0
  -26.5750  -29.2620   19.6710 C   0  0  0  0  0  0  0  0  0  0  0  0
  -27.6310  -28.3560   19.2070 C   0  0  0  0  0  3  0  0  0  0  0  0
  -26.1650  -27.4310   17.5560 C   0  0  0  0  0  3  0  0  0  0  0  0
  -25.1450  -28.3250   17.9720 C   0  0  0  0  0  3  0  0  0  0  0  0
  -24.1970  -30.1220   19.5580 C   0  0  0  0  0  2  0  0  0  0  0  0
  -25.4640  -30.4360   21.7170 N   0  0  0  0  0  0  0  0  0  0  0  0
  -24.4910  -30.9210   23.7260 O   0  0  0  0  0  0  0  0  0  0  0  0
  -23.3760  -28.9770   21.6660 C   0  0  0  0  0  0  0  0  0  0  0  0
  -22.0380  -28.9360   21.5300 N   0  0  0  0  0  0  0  0  0  0  0  0
  -24.0170  -28.0620   22.1890 O   0  0  0  0  0  0  0  0  0  0  0  0
  -21.5760  -29.7370   21.1260 H   0  0  0  0  0  0  0  0  0  0  0  0
  -18.5960  -27.8090   21.6950 C   0  0  0  0  0  0  0  0  0  0  0  0
  -21.1710  -27.8220   21.9280 C   0  0  0  0  0  3  0  0  0  0  0  0
  -21.1630  -26.7010   20.8640 C   0  0  0  0  0  2  0  0  0  0  0  0
  -20.0250  -26.8430   19.8480 C   0  0  0  0  0  2  0  0  0  0  0  0
  -18.6670  -26.8080   20.5530 C   0  0  0  0  0  2  0  0  0  0  0  0
  -19.7700  -28.3000   22.3280 C   0  0  0  0  0  0  0  0  0  0  0  0
  -19.6470  -29.2540   23.3610 C   0  0  0  0  0  3  0  0  0  0  0  0
  -18.3780  -29.7110   23.7680 C   0  0  0  0  0  3  0  0  0  0  0  0
  -17.2200  -29.2140   23.1480 C   0  0  0  0  0  3  0  0  0  0  0  0
  -17.3290  -28.2610   22.1190 C   0  0  0  0  0  3  0  0  0  0  0  0
  -26.8770  -31.0450   23.7620 C   0  0  0  0  0  3  0  0  0  0  0  0
  -26.7080  -32.2180   24.6390 N   0  0  0  0  0  0  0  0  0  0  0  0
  -27.0330  -33.4750   24.3110 C   0  0  0  0  0  0  0  0  0  0  0  0
  -27.5700  -33.7660   23.2410 O   0  0  0  0  0  0  0  0  0  0  0  0
  -26.2180  -32.0610   25.5080 H   0  0  0  0  0  0  0  0  0  0  0  0
  -25.3940  -35.2760   24.9590 C   0  0  0  0  0  1  0  0  0  0  0  0
  -26.7180  -34.5880   25.3330 C   0  0  0  0  0  3  0  0  0  0  0  0
  -29.0010  -35.0970   26.0800 C   0  0  0  0  0  1  0  0  0  0  0  0
  -27.7870  -35.6050   25.4470 N   0  0  0  0  0  0  0  0  0  0  0  0
  -27.4640  -36.4080   25.9810 H   0  0  0  0  0  0  0  0  0  0  0  0
  -27.3730  -29.8040   24.6040 C   0  0  1  0  0  0  0  0  0  0  0  0
  -26.3160  -29.2510   25.5900 C   0  0  0  0  0  1  0  0  0  0  0  0
  -27.7950  -28.6440   23.6760 C   0  0  0  0  0  1  0  0  0  0  0  0
  -28.6260  -30.1960   25.4200 C   0  0  0  0  0  1  0  0  0  0  0  0
  2  6  1  0
  2  1  1  0
  3  7  1  0
  3  2  1  0
  4  3  1  0
  4  9  1  0
  5  8  1  0
  5  1  1  0
  7  6  1  0
  9  5  2  0
 10 16  1  0
 11 16  1  0
 12 13  1  0
 12 11  1  0
 13 14  1  0
 14 23  1  0
 14 15  1  0
 16 15  1  0
 17 10  2  0
 18 19  1  0
 18 10  1  0
 18  7  1  0
 20 21  2  0
 21 40  1  0
 22 25  1  0
 22 21  1  0
 23 24  1  0
 23 20  1  0
 24 22  2  0
 25 26  1  0
 26 27  2  0
 28 31  1  0
 28 27  1  0
 29 28  2  0
 30 29  1  0
 30 25  2  0
 31 32  1  0
 32 37  2  0
 32 33  1  0
 33 34  2  0
 34 35  1  0
 35 39  1  0
 36 35  2  0
 37 36  1  0
 38 37  1  0
 40 41  1  0
 41 43  1  0
 41 44  1  0
 42 40  2  0
 45 20  1  0
 45 46  1  0
 47 45  1  0
 49 50  1  0
 49  4  1  0
 49 48  1  0
 50 48  1  0
 51 50  1  0
 51 53  1  0
 52 63  2  0
 52 78  1  0
 53 58  1  0
 54 64  1  0
 54 62  1  0
 55 61  1  0
 55 57  1  0
 56 62  1  0
 57 56  1  0
 58 57  2  0
 59 60  1  0
 59 53  2  0
 60 55  2  0
 61 54  1  0
 62 52  1  0
 64 66  2  0
 65 64  1  0
 65 69  1  0
 67 65  1  0
 68 77  2  0
 68 73  1  0
 69 73  1  0
 70 69  1  0
 71 72  1  0
 71 70  1  0
 72 68  1  0
 73 74  2  0
 74 75  1  0
 76 75  2  0
 77 76  1  0
 78 88  1  0
 78 79  1  0
 79 82  1  0
 80 79  1  0
 80 84  1  0
 81 80  2  0
 83 84  1  0
 84 86  1  0
 86 87  1  0
 86 85  1  0
 88 91  1  1
 88 89  1  0
 90 88  1  0
M  ISO  4  10 100  18 100  50 101  51 101
M  END
>  <TORSDO>  (64) 
F 17

>  <SCORE>  (64) 
-5.310

>  <name>  (64) 
64

>  <ligand_id>  (64) 
64

>  <original_smiles>  (64) 
[H]c1c([H])c([H])c2c(c1[H])C([H])([H])C([H])([H])C([H])([H])C2([H])N([H])C(=O)C1([H])N(C(=O)C([H])(N([H])C(=O)C([H])(N([H])C([H])([H])[H])C([H])([H])[H])C(C([H])([H])[H])(C([H])([H])[H])C([H])([H])[H])C([H])([H])c2c([H])c(OC3([H])C([H])([H])C3([H])c3nc(C([H])([H])[H])c([H])c4c3C([H])(N([H])C(=O)N3C([H])([H])C([H])([H])C([H])([H])C([H])(n5nc(-c6c([H])c([H])c(Oc7c([H])c([H])c(F)c([H])c7F)c([H])c6[H])c(C(=O)N([H])[H])c5N([H])[H])C3([H])[H])C4([H])[H])c([H])c([H])c2C1([H])[H]

>  <smiles>  (64) 
[H]c1c([H])c([H])c2c(c1[H])C([H])([H])C([H])([H])C([H])([H])C2([H])N([H])C(=O)C1([H])N(C(=O)C([H])(N([H])C(=O)C([H])(N([H])C([H])([H])[H])C([H])([H])[H])C(C([H])([H])[H])(C([H])([H])[H])C([H])([H])[H])C([H])([H])c2c([H])c(OC3([H])C([H])([H])C3([H])c3nc(C([H])([H])[H])c([H])c4c3C([H])(N([H])C(=O)N3C([H])([H])C([H])([H])C([H])([H])C([H])(n5nc(-c6c([H])c([H])c(Oc7c([H])c([H])c(F)c([H])c7F)c([H])c6[H])c(C(=O)N([H])[H])c5N([H])[H])C3([H])[H])C4([H])[H])c([H])c([H])c2C1([H])[H]

$$$$
65:0:0
     RDKit          3D

 90 99  0  0  1  0  0  0  0  0999 V2000
  -30.1810  -20.2550   21.2740 C   0  0  0  0  0  0  0  0  0  0  0  0
  -29.8080  -21.5720   21.1930 C   0  0  0  0  0  0  0  0  0  0  0  0
  -29.8390  -19.5780   20.0570 C   0  0  0  0  0  0  0  0  0  0  0  0
  -30.9210  -19.9620   22.5390 C   0  0  0  0  0  2  0  0  0  0  0  0
  -30.1830  -22.3730   22.3800 C   0  0  0  0  0  3  0  0  0  0  0  0
  -30.9510  -21.3450   23.2660 C   0  0  0  0  0  3  0  0  0  0  0  0
  -29.3140  -20.6540   19.2940 N   0  0  0  0  0  0  0  0  0  0  0  0
  -29.2520  -21.9380   19.9740 N   0  0  0  0  0  0  0  0  0  0  0  0
  -30.1860  -18.0190   19.5040 C   0  0  0  0  0  2  0  0  0  0  0  0
  -30.6290  -15.3410   20.0390 C   0  0  0  0  0  0  0  0  0  0  0  0
  -30.6130  -12.8390   19.5010 C   0  0  0  0  0  2  0  0  0  0  0  0
  -29.7540  -12.5640   18.2460 C   0  0  0  0  0  2  0  0  0  0  0  0
  -28.2660  -12.4020   18.6120 C   0  0  0  0  0  2  0  0  0  0  0  0
  -27.7890  -13.4500   19.6550 C   0  0  0  0  0  3  0  0  0  0  0  0
  -28.7960  -13.6780   20.8040 C   0  0  0  0  0  2  0  0  0  0  0  0
  -30.0740  -14.0570   20.1880 N   0  0  0  0  0  0  0  0  0  0  0  0
  -31.8150  -15.3630   19.6880 O   0  0  0  0  0  0  0  0  0  0  0  0
  -29.8650  -16.5580   20.0850 N   0  0  0  0  0  0  0  0  0  0  0  0
  -28.9210  -16.4570   20.4340 H   0  0  0  0  0  0  0  0  0  0  0  0
  -25.4370  -14.0680   20.4430 C   0  0  0  0  0  0  0  0  0  0  0  0
  -24.3560  -13.3140   20.8110 C   0  0  0  0  0  0  0  0  0  0  0  0
  -24.7790  -11.9510   20.7370 C   0  0  0  0  0  0  0  0  0  0  0  0
  -26.4480  -13.1670   20.1570 N   0  0  0  0  0  0  0  0  0  0  0  0
  -26.0650  -11.8840   20.4030 N   0  0  0  0  0  0  0  0  0  0  0  0
  -24.0120  -10.7080   20.9080 C   0  0  0  0  0  0  0  0  0  0  0  0
  -24.4080   -9.7140   21.8320 C   0  0  0  0  0  3  0  0  0  0  0  0
  -23.6450   -8.5370   21.9940 C   0  0  0  0  0  3  0  0  0  0  0  0
  -22.4710   -8.3430   21.2300 C   0  0  0  0  0  0  0  0  0  0  0  0
  -22.0900   -9.3260   20.2990 C   0  0  0  0  0  3  0  0  0  0  0  0
  -22.8520  -10.4950   20.1350 C   0  0  0  0  0  3  0  0  0  0  0  0
  -21.6750   -7.2250   21.3090 O   0  0  0  0  0  0  0  0  0  0  0  0
  -21.6040   -6.4670   22.4490 C   0  0  0  0  0  0  0  0  0  0  0  0
  -21.1580   -7.0060   23.6760 C   0  0  0  0  0  3  0  0  0  0  0  0
  -21.0330   -6.1730   24.8070 C   0  0  0  0  0  3  0  0  0  0  0  0
  -21.3430   -4.8030   24.7130 C   0  0  0  0  0  0  0  0  0  0  0  0
  -21.7810   -4.2640   23.4910 C   0  0  0  0  0  3  0  0  0  0  0  0
  -21.9110   -5.0930   22.3620 C   0  0  0  0  0  0  0  0  0  0  0  0
  -22.3110   -4.5630   21.1810 F   0  0  0  0  0  0  0  0  0  0  0  0
  -21.2170   -4.0020   25.7960 F   0  0  0  0  0  0  0  0  0  0  0  0
  -22.9780  -13.8260   21.1160 C   0  0  0  0  0  0  0  0  0  0  0  0
  -22.2400  -13.1430   21.9860 N   0  0  0  0  0  0  0  0  0  0  0  0
  -22.5600  -14.8680   20.6100 O   0  0  0  0  0  0  0  0  0  0  0  0
  -22.5920  -12.3040   22.4250 H   0  0  0  0  0  0  0  0  0  0  0  0
  -21.3100  -13.4630   22.2170 H   0  0  0  0  0  0  0  0  0  0  0  0
  -25.6400  -15.4390   20.3010 N   0  0  0  0  0  0  0  0  0  0  0  0
  -24.9070  -16.1170   20.4790 H   0  0  0  0  0  0  0  0  0  0  0  0
  -26.4830  -15.8580   19.9300 H   0  0  0  0  0  0  0  0  0  0  0  0
  -28.9970  -23.4000   19.3280 C   0  0  0  0  0  2  0  0  0  0  0  0
  -28.0700  -24.7330   19.9080 C   0  0  0  0  0  2  0  0  0  0  0  0
  -28.2060  -26.2880   19.5830 O   0  0  0  0  0  0  0  0  0  0  0  0
  -24.5710  -31.6910   23.1330 C   0  0  0  0  0  0  0  0  0  0  0  0
  -27.1170  -27.2550   19.6540 C   0  0  0  0  0  0  0  0  0  0  0  0
  -23.3210  -30.3770   21.4630 C   0  0  0  0  0  3  0  0  0  0  0  0
  -24.7420  -28.9550   19.8460 C   0  0  0  0  0  0  0  0  0  0  0  0
  -25.8600  -30.7330   21.1820 C   0  0  0  0  0  2  0  0  0  0  0  0
  -25.9410  -29.3920   20.4230 C   0  0  0  0  0  0  0  0  0  0  0  0
  -27.1290  -28.5650   20.2990 C   0  0  0  0  0  3  0  0  0  0  0  0
  -25.8860  -26.9360   19.0390 C   0  0  0  0  0  3  0  0  0  0  0  0
  -24.7310  -27.7480   19.1300 C   0  0  0  0  0  3  0  0  0  0  0  0
  -23.4900  -29.8070   20.0270 C   0  0  0  0  0  2  0  0  0  0  0  0
  -24.6060  -30.9540   21.9810 N   0  0  0  0  0  0  0  0  0  0  0  0
  -23.5070  -31.8990   23.7410 O   0  0  0  0  0  0  0  0  0  0  0  0
  -22.7300  -29.2800   22.3880 C   0  0  0  0  0  0  0  0  0  0  0  0
  -21.4210  -28.9970   22.2530 N   0  0  0  0  0  0  0  0  0  0  0  0
  -23.4540  -28.6840   23.1880 O   0  0  0  0  0  0  0  0  0  0  0  0
  -20.8860  -29.5410   21.5870 H   0  0  0  0  0  0  0  0  0  0  0  0
  -18.1860  -27.4010   22.6170 C   0  0  0  0  0  0  0  0  0  0  0  0
  -20.6850  -27.9640   22.9860 C   0  0  0  0  0  3  0  0  0  0  0  0
  -20.9760  -26.5560   22.4190 C   0  0  0  0  0  2  0  0  0  0  0  0
  -19.9650  -26.1110   21.3570 C   0  0  0  0  0  2  0  0  0  0  0  0
  -18.5490  -26.0860   21.9430 C   0  0  0  0  0  2  0  0  0  0  0  0
  -19.1880  -28.2900   23.0910 C   0  0  0  0  0  0  0  0  0  0  0  0
  -18.7940  -29.5110   23.6770 C   0  0  0  0  0  3  0  0  0  0  0  0
  -17.4320  -29.8460   23.7990 C   0  0  0  0  0  3  0  0  0  0  0  0
  -16.4450  -28.9580   23.3380 C   0  0  0  0  0  3  0  0  0  0  0  0
  -16.8240  -27.7380   22.7510 C   0  0  0  0  0  3  0  0  0  0  0  0
  -25.8600  -32.3280   23.7340 C   0  0  0  0  0  3  0  0  0  0  0  0
  -26.4160  -31.5400   24.9850 C   0  0  1  0  0  0  0  0  0  0  0  0
  -25.3550  -31.2890   26.0810 C   0  0  0  0  0  1  0  0  0  0  0  0
  -26.9880  -30.1660   24.5660 C   0  0  0  0  0  1  0  0  0  0  0  0
  -27.5860  -32.3250   25.6210 C   0  0  0  0  0  1  0  0  0  0  0  0
  -25.5470  -33.7180   24.1040 N   0  0  0  0  0  0  0  0  0  0  0  0
  -25.8660  -34.7980   23.3760 C   0  0  0  0  0  0  0  0  0  0  0  0
  -26.5240  -34.7280   22.3350 O   0  0  0  0  0  0  0  0  0  0  0  0
  -24.9680  -33.8440   24.9210 H   0  0  0  0  0  0  0  0  0  0  0  0
  -24.1170  -36.5900   23.1190 C   0  0  0  0  0  1  0  0  0  0  0  0
  -25.3850  -36.1740   23.8820 C   0  0  0  0  0  3  0  0  0  0  0  0
  -27.5340  -37.0630   24.6750 C   0  0  0  0  0  1  0  0  0  0  0  0
  -26.4070  -37.2360   23.7610 N   0  0  0  0  0  0  0  0  0  0  0  0
  -25.9980  -38.1510   23.9300 H   0  0  0  0  0  0  0  0  0  0  0  0
  1  4  1  0
  2  1  2  0
  2  5  1  0
  3  1  1  0
  4  6  1  0
  5  6  2  0
  7  8  1  0
  7  3  2  0
  8  2  1  0
  9  3  1  0
  9 18  1  0
 10 18  1  0
 10 16  1  0
 11 16  1  0
 12 13  1  0
 12 11  1  0
 14 13  1  0
 14 23  1  0
 14 15  1  0
 16 15  1  0
 17 10  2  0
 18 19  1  0
 20 21  2  0
 21 40  1  0
 22 21  1  0
 22 25  1  0
 23 24  1  0
 23 20  1  0
 24 22  2  0
 25 26  1  0
 26 27  2  0
 28 31  1  0
 28 27  1  0
 29 28  2  0
 30 29  1  0
 30 25  2  0
 31 32  1  0
 32 33  1  0
 33 34  2  0
 35 34  1  0
 35 39  1  0
 36 35  2  0
 37 32  2  0
 37 36  1  0
 38 37  1  0
 40 41  1  0
 41 44  1  0
 41 43  1  0
 42 40  2  0
 45 20  1  0
 45 46  1  0
 47 45  1  0
 48 49  1  0
 48  8  1  0
 50 52  1  0
 50 49  1  0
 51 62  2  0
 52 57  1  0
 53 61  1  0
 53 63  1  0
 54 60  1  0
 54 56  1  0
 55 61  1  0
 56 55  1  0
 57 56  2  0
 58 59  1  0
 58 52  2  0
 59 54  2  0
 60 53  1  0
 61 51  1  0
 63 65  2  0
 64 63  1  0
 66 64  1  0
 67 76  2  0
 67 72  1  0
 68 64  1  0
 68 72  1  0
 69 68  1  0
 70 71  1  0
 70 69  1  0
 71 67  1  0
 72 73  2  0
 73 74  1  0
 75 74  2  0
 76 75  1  0
 77 51  1  0
 77 82  1  0
 77 78  1  0
 78 81  1  1
 78 79  1  0
 80 78  1  0
 82 85  1  0
 83 87  1  0
 83 82  1  0
 84 83  2  0
 87 86  1  0
 89 87  1  0
 89 90  1  0
 89 88  1  0
M  ISO  4  10 100  18 100  49 101  50 101
M  END
>  <TORSDO>  (65) 
F 19

>  <SCORE>  (65) 
-14.603

>  <name>  (65) 
65

>  <ligand_id>  (65) 
65

>  <original_smiles>  (65) 
[H]c1c([H])c([H])c2c(c1[H])C([H])([H])C([H])([H])C([H])([H])C2([H])N([H])C(=O)C1([H])N(C(=O)C([H])(N([H])C(=O)C([H])(N([H])C([H])([H])[H])C([H])([H])[H])C(C([H])([H])[H])(C([H])([H])[H])C([H])([H])[H])C([H])([H])c2c([H])c(OC([H])([H])C([H])([H])n3nc(C([H])([H])N([H])C(=O)N4C([H])([H])C([H])([H])C([H])([H])C([H])(n5nc(-c6c([H])c([H])c(Oc7c([H])c([H])c(F)c([H])c7F)c([H])c6[H])c(C(=O)N([H])[H])c5N([H])[H])C4([H])[H])c4c3C([H])([H])C([H])([H])C4([H])[H])c([H])c([H])c2C1([H])[H]

>  <smiles>  (65) 
[H]c1c([H])c([H])c2c(c1[H])C([H])([H])C([H])([H])C([H])([H])C2([H])N([H])C(=O)C1([H])N(C(=O)C([H])(N([H])C(=O)C([H])(N([H])C([H])([H])[H])C([H])([H])[H])C(C([H])([H])[H])(C([H])([H])[H])C([H])([H])[H])C([H])([H])c2c([H])c(OC([H])([H])C([H])([H])n3nc(C([H])([H])N([H])C(=O)N4C([H])([H])C([H])([H])C([H])([H])C([H])(n5nc(-c6c([H])c([H])c(Oc7c([H])c([H])c(F)c([H])c7F)c([H])c6[H])c(C(=O)N([H])[H])c5N([H])[H])C4([H])[H])c4c3C([H])([H])C([H])([H])C4([H])[H])c([H])c([H])c2C1([H])[H]

$$$$
66:0:0
     RDKit          3D

 92101  0  0  1  0  0  0  0  0999 V2000
  -29.6230  -22.7860   19.6440 C   0  0  0  0  0  3  0  0  0  0  0  0
  -28.7160  -23.9180   19.7720 C   0  0  0  0  0  0  0  0  0  0  0  0
  -29.2070  -21.4500   19.9990 C   0  0  0  0  0  0  0  0  0  0  0  0
  -27.1700  -22.3790   20.5510 C   0  0  0  0  0  0  0  0  0  0  0  0
  -25.7520  -22.1100   21.0140 C   0  0  0  0  0  1  0  0  0  0  0  0
  -27.4800  -23.6460   20.2470 N   0  0  0  0  0  0  0  0  0  0  0  0
  -27.9540  -21.3010   20.4460 N   0  0  0  0  0  0  0  0  0  0  0  0
  -30.0080  -20.2380   19.9020 N   0  0  0  0  0  0  0  0  0  0  0  0
  -30.9610  -20.3690   19.5850 H   0  0  0  0  0  0  0  0  0  0  0  0
  -30.9560  -15.1060   19.9950 C   0  0  0  0  0  0  0  0  0  0  0  0
  -30.7010  -12.8380   18.9670 C   0  0  0  0  0  2  0  0  0  0  0  0
  -29.7090  -12.9170   17.7850 C   0  0  0  0  0  2  0  0  0  0  0  0
  -28.2550  -12.7550   18.2720 C   0  0  0  0  0  2  0  0  0  0  0  0
  -27.9410  -13.6250   19.5190 C   0  0  0  0  0  3  0  0  0  0  0  0
  -29.0480  -13.4960   20.5870 C   0  0  0  0  0  2  0  0  0  0  0  0
  -30.3100  -13.8840   19.9430 N   0  0  0  0  0  0  0  0  0  0  0  0
  -32.1170  -15.1770   19.5750 O   0  0  0  0  0  0  0  0  0  0  0  0
  -29.5970  -18.2440   21.5170 C   0  0  0  0  0  2  0  0  0  0  0  0
  -29.5500  -16.6890   21.3970 C   0  0  0  0  0  2  0  0  0  0  0  0
  -30.4090  -17.5990   19.4100 C   0  0  0  0  0  2  0  0  0  0  0  0
  -29.5710  -18.7830   20.0840 C   0  0  0  0  0  3  0  0  0  0  0  0
  -30.2140  -16.2850   20.1480 N   0  0  0  0  0  0  0  0  0  0  0  0
  -25.5980  -14.2280   20.3750 C   0  0  0  0  0  0  0  0  0  0  0  0
  -24.5340  -13.4580   20.7570 C   0  0  0  0  0  0  0  0  0  0  0  0
  -24.9750  -12.1020   20.6620 C   0  0  0  0  0  0  0  0  0  0  0  0
  -26.6170  -13.3420   20.0620 N   0  0  0  0  0  0  0  0  0  0  0  0
  -26.2510  -12.0550   20.2970 N   0  0  0  0  0  0  0  0  0  0  0  0
  -24.2370  -10.8450   20.8440 C   0  0  0  0  0  0  0  0  0  0  0  0
  -24.6360   -9.8830   21.7970 C   0  0  0  0  0  3  0  0  0  0  0  0
  -23.8980   -8.6930   21.9650 C   0  0  0  0  0  3  0  0  0  0  0  0
  -22.7460   -8.4540   21.1790 C   0  0  0  0  0  0  0  0  0  0  0  0
  -22.3660   -9.4050   20.2150 C   0  0  0  0  0  3  0  0  0  0  0  0
  -23.1050  -10.5880   20.0460 C   0  0  0  0  0  3  0  0  0  0  0  0
  -21.9820   -7.3130   21.2560 O   0  0  0  0  0  0  0  0  0  0  0  0
  -21.8260   -6.6330   22.4350 C   0  0  0  0  0  0  0  0  0  0  0  0
  -21.2680   -7.2420   23.5800 C   0  0  0  0  0  3  0  0  0  0  0  0
  -21.0620   -6.4850   24.7510 C   0  0  0  0  0  3  0  0  0  0  0  0
  -21.3990   -5.1180   24.7730 C   0  0  0  0  0  0  0  0  0  0  0  0
  -21.9460   -4.5070   23.6310 C   0  0  0  0  0  3  0  0  0  0  0  0
  -22.1550   -5.2620   22.4640 C   0  0  0  0  0  0  0  0  0  0  0  0
  -22.6630   -4.6640   21.3590 F   0  0  0  0  0  0  0  0  0  0  0  0
  -21.1930   -4.3870   25.8940 F   0  0  0  0  0  0  0  0  0  0  0  0
  -23.1580  -13.9480   21.0990 C   0  0  0  0  0  0  0  0  0  0  0  0
  -22.4630  -13.2540   21.9920 N   0  0  0  0  0  0  0  0  0  0  0  0
  -22.7110  -14.9860   20.6110 O   0  0  0  0  0  0  0  0  0  0  0  0
  -22.8310  -12.4120   22.4090 H   0  0  0  0  0  0  0  0  0  0  0  0
  -21.5450  -13.5740   22.2650 H   0  0  0  0  0  0  0  0  0  0  0  0
  -25.7700  -15.6020   20.2510 N   0  0  0  0  0  0  0  0  0  0  0  0
  -25.0210  -16.2470   20.4780 H   0  0  0  0  0  0  0  0  0  0  0  0
  -26.6380  -16.0640   20.0160 H   0  0  0  0  0  0  0  0  0  0  0  0
  -28.9620  -25.3970   19.1670 C   0  0  0  0  0  2  0  0  0  0  0  0
  -28.7230  -26.7070   19.8880 O   0  0  0  0  0  0  0  0  0  0  0  0
  -24.6700  -31.8370   23.0370 C   0  0  0  0  0  0  0  0  0  0  0  0
  -27.5580  -27.5140   19.8110 C   0  0  0  0  0  0  0  0  0  0  0  0
  -23.5560  -30.4310   21.3420 C   0  0  0  0  0  3  0  0  0  0  0  0
  -25.1000  -29.0250   19.8510 C   0  0  0  0  0  0  0  0  0  0  0  0
  -26.0760  -30.8970   21.1810 C   0  0  0  0  0  2  0  0  0  0  0  0
  -26.2380  -29.5480   20.4740 C   0  0  0  0  0  0  0  0  0  0  0  0
  -27.4620  -28.8030   20.4460 C   0  0  0  0  0  3  0  0  0  0  0  0
  -26.3930  -27.0570   19.1600 C   0  0  0  0  0  3  0  0  0  0  0  0
  -25.1870  -27.7910   19.1810 C   0  0  0  0  0  3  0  0  0  0  0  0
  -23.8100  -29.8210   19.9370 C   0  0  0  0  0  2  0  0  0  0  0  0
  -24.7860  -31.0750   21.9100 N   0  0  0  0  0  0  0  0  0  0  0  0
  -23.5720  -32.0270   23.5800 O   0  0  0  0  0  0  0  0  0  0  0  0
  -22.9570  -29.3430   22.2670 C   0  0  0  0  0  0  0  0  0  0  0  0
  -21.6400  -29.1030   22.1480 N   0  0  0  0  0  0  0  0  0  0  0  0
  -23.6770  -28.7190   23.0520 O   0  0  0  0  0  0  0  0  0  0  0  0
  -21.1150  -29.6640   21.4930 H   0  0  0  0  0  0  0  0  0  0  0  0
  -18.3310  -27.7270   22.6580 C   0  0  0  0  0  0  0  0  0  0  0  0
  -20.8810  -28.0900   22.8850 C   0  0  0  0  0  3  0  0  0  0  0  0
  -21.0320  -26.6980   22.2300 C   0  0  0  0  0  2  0  0  0  0  0  0
  -19.9220  -26.3790   21.2230 C   0  0  0  0  0  2  0  0  0  0  0  0
  -18.5510  -26.4260   21.9030 C   0  0  0  0  0  2  0  0  0  0  0  0
  -19.4250  -28.5160   23.1030 C   0  0  0  0  0  0  0  0  0  0  0  0
  -19.1630  -29.7330   23.7690 C   0  0  0  0  0  3  0  0  0  0  0  0
  -17.8410  -30.1610   23.9940 C   0  0  0  0  0  3  0  0  0  0  0  0
  -16.7630  -29.3710   23.5630 C   0  0  0  0  0  3  0  0  0  0  0  0
  -17.0090  -28.1540   22.8990 C   0  0  0  0  0  3  0  0  0  0  0  0
  -25.9110  -32.5290   23.6850 C   0  0  0  0  0  3  0  0  0  0  0  0
  -25.5220  -33.8980   24.0510 N   0  0  0  0  0  0  0  0  0  0  0  0
  -25.8050  -34.9930   23.3330 C   0  0  0  0  0  0  0  0  0  0  0  0
  -26.4930  -34.9620   22.3110 O   0  0  0  0  0  0  0  0  0  0  0  0
  -24.9190  -33.9980   24.8550 H   0  0  0  0  0  0  0  0  0  0  0  0
  -23.9920  -36.7020   23.0050 C   0  0  0  0  0  1  0  0  0  0  0  0
  -25.2340  -36.3350   23.8310 C   0  0  0  0  0  3  0  0  0  0  0  0
  -27.2970  -37.3050   24.7440 C   0  0  0  0  0  1  0  0  0  0  0  0
  -26.2100  -37.4460   23.7790 N   0  0  0  0  0  0  0  0  0  0  0  0
  -25.7490  -38.3370   23.9460 H   0  0  0  0  0  0  0  0  0  0  0  0
  -26.4610  -31.7590   24.9490 C   0  0  1  0  0  0  0  0  0  0  0  0
  -25.3720  -31.4410   25.9990 C   0  0  0  0  0  1  0  0  0  0  0  0
  -27.1200  -30.4240   24.5330 C   0  0  0  0  0  1  0  0  0  0  0  0
  -27.5600  -32.6020   25.6380 C   0  0  0  0  0  1  0  0  0  0  0  0
  1  2  2  0
  1  3  1  0
  2  6  1  0
  3  7  2  0
  4  5  1  0
  6  4  2  0
  7  4  1  0
  8  3  1  0
  9  8  1  0
 10 22  1  0
 11 16  1  0
 12 13  1  0
 12 11  1  0
 14 13  1  0
 14 26  1  0
 14 15  1  0
 16 10  1  0
 16 15  1  0
 17 10  2  0
 19 18  1  0
 20 21  1  0
 20 22  1  0
 21  8  1  0
 21 18  1  0
 22 19  1  0
 23 24  2  0
 24 43  1  0
 25 24  1  0
 25 28  1  0
 26 27  1  0
 26 23  1  0
 27 25  2  0
 28 29  1  0
 29 30  2  0
 31 34  1  0
 31 30  1  0
 32 31  2  0
 33 32  1  0
 33 28  2  0
 34 35  1  0
 35 40  2  0
 35 36  1  0
 36 37  2  0
 37 38  1  0
 38 42  1  0
 39 38  2  0
 40 39  1  0
 41 40  1  0
 43 44  1  0
 44 47  1  0
 44 46  1  0
 45 43  2  0
 48 23  1  0
 48 49  1  0
 50 48  1  0
 51  2  1  0
 51 52  1  0
 53 64  2  0
 54 52  1  0
 54 59  1  0
 55 63  1  0
 55 65  1  0
 56 62  1  0
 56 58  1  0
 57 63  1  0
 58 57  1  0
 59 58  2  0
 60 61  1  0
 60 54  2  0
 61 56  2  0
 62 55  1  0
 63 53  1  0
 65 67  2  0
 66 65  1  0
 68 66  1  0
 69 78  2  0
 69 74  1  0
 70 66  1  0
 70 74  1  0
 71 70  1  0
 72 73  1  0
 72 71  1  0
 73 69  1  0
 74 75  2  0
 75 76  1  0
 77 76  2  0
 78 77  1  0
 79 53  1  0
 79 80  1  0
 79 89  1  0
 80 83  1  0
 81 85  1  0
 81 80  1  0
 82 81  2  0
 85 84  1  0
 87 85  1  0
 87 88  1  0
 87 86  1  0
 89 92  1  1
 89 90  1  0
 91 89  1  0
M  ISO  4  10 100  22 100  51 101  52 101
M  END
>  <TORSDO>  (66) 
F 17

>  <SCORE>  (66) 
-12.179

>  <name>  (66) 
66

>  <ligand_id>  (66) 
66

>  <original_smiles>  (66) 
[H]c1c(N([H])C2([H])C([H])([H])N(C(=O)N3C([H])([H])C([H])([H])C([H])([H])C([H])(n4nc(-c5c([H])c([H])c(Oc6c([H])c([H])c(F)c([H])c6F)c([H])c5[H])c(C(=O)N([H])[H])c4N([H])[H])C3([H])[H])C([H])([H])C2([H])[H])nc(C([H])([H])[H])nc1C([H])([H])Oc1c([H])c([H])c2c(c1[H])C([H])([H])N(C(=O)C([H])(N([H])C(=O)C([H])(N([H])C([H])([H])[H])C([H])([H])[H])C(C([H])([H])[H])(C([H])([H])[H])C([H])([H])[H])C([H])(C(=O)N([H])C1([H])c3c([H])c([H])c([H])c([H])c3C([H])([H])C([H])([H])C1([H])[H])C2([H])[H]

>  <smiles>  (66) 
[H]c1c(N([H])C2([H])C([H])([H])N(C(=O)N3C([H])([H])C([H])([H])C([H])([H])C([H])(n4nc(-c5c([H])c([H])c(Oc6c([H])c([H])c(F)c([H])c6F)c([H])c5[H])c(C(=O)N([H])[H])c4N([H])[H])C3([H])[H])C([H])([H])C2([H])[H])nc(C([H])([H])[H])nc1C([H])([H])Oc1c([H])c([H])c2c(c1[H])C([H])([H])N(C(=O)C([H])(N([H])C(=O)C([H])(N([H])C([H])([H])[H])C([H])([H])[H])C(C([H])([H])[H])(C([H])([H])[H])C([H])([H])[H])C([H])(C(=O)N([H])C1([H])c3c([H])c([H])c([H])c([H])c3C([H])([H])C([H])([H])C1([H])[H])C2([H])[H]

$$$$
67:0:0
     RDKit          3D

 90 99  0  0  1  0  0  0  0  0999 V2000
  -28.6270  -21.4880   22.4190 C   0  0  0  0  0  3  0  0  0  0  0  0
  -28.9670  -21.3060   20.1360 C   0  0  0  0  0  0  0  0  0  0  0  0
  -29.3390  -22.7000   22.4420 C   0  0  0  0  0  0  0  0  0  0  0  0
  -29.1920  -22.8880   20.1000 C   0  0  0  0  0  0  0  0  0  0  0  0
  -29.8050  -23.2600   23.7760 C   0  0  0  0  0  1  0  0  0  0  0  0
  -28.4070  -20.8190   21.2700 N   0  0  0  0  0  0  0  0  0  0  0  0
  -29.6000  -23.3960   21.3040 N   0  0  0  0  0  0  0  0  0  0  0  0
  -30.7460  -15.5440   19.6540 C   0  0  0  0  0  0  0  0  0  0  0  0
  -30.6600  -13.0510   18.8600 C   0  0  0  0  0  2  0  0  0  0  0  0
  -29.6670  -12.7630   17.7070 C   0  0  0  0  0  2  0  0  0  0  0  0
  -28.2550  -12.5030   18.2540 C   0  0  0  0  0  2  0  0  0  0  0  0
  -27.8690  -13.5180   19.3590 C   0  0  0  0  0  3  0  0  0  0  0  0
  -28.9910  -13.7340   20.3970 C   0  0  0  0  0  2  0  0  0  0  0  0
  -30.1570  -14.2390   19.6510 N   0  0  0  0  0  0  0  0  0  0  0  0
  -31.9680  -15.4820   19.4320 O   0  0  0  0  0  0  0  0  0  0  0  0
  -28.9780  -18.9640   18.4480 C   0  0  0  0  0  2  0  0  0  0  0  0
  -29.6120  -17.4910   18.3140 C   0  0  0  0  0  2  0  0  0  0  0  0
  -30.0630  -18.3250   20.3590 C   0  0  0  0  0  2  0  0  0  0  0  0
  -29.7090  -19.8210   19.5280 C   0  0  0  0  0  3  0  0  0  0  0  0
  -30.0210  -16.8720   19.6150 N   0  0  0  0  0  0  0  0  0  0  0  0
  -25.6120  -14.1150   20.3670 C   0  0  0  0  0  0  0  0  0  0  0  0
  -24.5560  -13.3580   20.7930 C   0  0  0  0  0  0  0  0  0  0  0  0
  -24.9620  -11.9960   20.6490 C   0  0  0  0  0  0  0  0  0  0  0  0
  -26.5870  -13.2180   19.9770 N   0  0  0  0  0  0  0  0  0  0  0  0
  -26.2180  -11.9330   20.2170 N   0  0  0  0  0  0  0  0  0  0  0  0
  -24.2060  -10.7500   20.8420 C   0  0  0  0  0  0  0  0  0  0  0  0
  -24.6230   -9.7650   21.7620 C   0  0  0  0  0  3  0  0  0  0  0  0
  -23.8670   -8.5860   21.9460 C   0  0  0  0  0  3  0  0  0  0  0  0
  -22.6780   -8.3840   21.2050 C   0  0  0  0  0  0  0  0  0  0  0  0
  -22.2790   -9.3570   20.2720 C   0  0  0  0  0  3  0  0  0  0  0  0
  -23.0360  -10.5270   20.0880 C   0  0  0  0  0  3  0  0  0  0  0  0
  -21.8910   -7.2610   21.2960 O   0  0  0  0  0  0  0  0  0  0  0  0
  -21.7760   -6.5550   22.4650 C   0  0  0  0  0  0  0  0  0  0  0  0
  -21.2810   -7.1450   23.6490 C   0  0  0  0  0  3  0  0  0  0  0  0
  -21.1210   -6.3650   24.8100 C   0  0  0  0  0  3  0  0  0  0  0  0
  -21.4420   -4.9940   24.7890 C   0  0  0  0  0  0  0  0  0  0  0  0
  -21.9270   -4.4030   23.6090 C   0  0  0  0  0  3  0  0  0  0  0  0
  -22.0930   -5.1820   22.4510 C   0  0  0  0  0  0  0  0  0  0  0  0
  -22.5420   -4.6040   21.3110 F   0  0  0  0  0  0  0  0  0  0  0  0
  -21.2810   -4.2410   25.9020 F   0  0  0  0  0  0  0  0  0  0  0  0
  -23.2060  -13.8670   21.2060 C   0  0  0  0  0  0  0  0  0  0  0  0
  -22.5290  -13.1580   22.1010 N   0  0  0  0  0  0  0  0  0  0  0  0
  -22.7680  -14.9300   20.7690 O   0  0  0  0  0  0  0  0  0  0  0  0
  -22.8950  -12.2960   22.4740 H   0  0  0  0  0  0  0  0  0  0  0  0
  -21.6260  -13.4830   22.4150 H   0  0  0  0  0  0  0  0  0  0  0  0
  -25.8150  -15.4850   20.2520 N   0  0  0  0  0  0  0  0  0  0  0  0
  -25.1160  -16.1670   20.5390 H   0  0  0  0  0  0  0  0  0  0  0  0
  -26.6550  -15.9130   19.8840 H   0  0  0  0  0  0  0  0  0  0  0  0
  -28.3350  -24.2880   19.4320 C   0  0  0  0  0  2  0  0  0  0  0  0
  -28.4580  -25.9410   19.7130 O   0  0  0  0  0  0  0  0  0  0  0  0
  -24.6500  -31.6080   22.9640 C   0  0  0  0  0  0  0  0  0  0  0  0
  -27.4050  -27.0170   19.6610 C   0  0  0  0  0  0  0  0  0  0  0  0
  -23.5030  -30.2410   21.2620 C   0  0  0  0  0  3  0  0  0  0  0  0
  -25.0160  -28.7960   19.7260 C   0  0  0  0  0  0  0  0  0  0  0  0
  -26.0500  -30.6000   21.0860 C   0  0  0  0  0  2  0  0  0  0  0  0
  -26.1880  -29.2260   20.3580 C   0  0  0  0  0  0  0  0  0  0  0  0
  -27.3780  -28.3630   20.2930 C   0  0  0  0  0  3  0  0  0  0  0  0
  -26.2030  -26.7630   18.9640 C   0  0  0  0  0  3  0  0  0  0  0  0
  -25.0480  -27.5940   19.0020 C   0  0  0  0  0  3  0  0  0  0  0  0
  -23.7510  -29.6500   19.8430 C   0  0  0  0  0  2  0  0  0  0  0  0
  -24.7560  -30.8440   21.8250 N   0  0  0  0  0  0  0  0  0  0  0  0
  -23.5600  -31.7990   23.5240 O   0  0  0  0  0  0  0  0  0  0  0  0
  -22.8830  -29.1550   22.1830 C   0  0  0  0  0  0  0  0  0  0  0  0
  -21.5620  -28.9330   22.0840 N   0  0  0  0  0  0  0  0  0  0  0  0
  -23.6040  -28.5160   22.9580 O   0  0  0  0  0  0  0  0  0  0  0  0
  -21.0270  -29.5150   21.4530 H   0  0  0  0  0  0  0  0  0  0  0  0
  -18.2550  -27.5200   22.6030 C   0  0  0  0  0  0  0  0  0  0  0  0
  -20.8060  -27.9050   22.8140 C   0  0  0  0  0  3  0  0  0  0  0  0
  -20.9580  -26.5180   22.1430 C   0  0  0  0  0  2  0  0  0  0  0  0
  -19.8430  -26.2050   21.1380 C   0  0  0  0  0  2  0  0  0  0  0  0
  -18.4780  -26.2320   21.8300 C   0  0  0  0  0  2  0  0  0  0  0  0
  -19.3470  -28.3130   23.0510 C   0  0  0  0  0  0  0  0  0  0  0  0
  -19.0770  -29.5180   23.7390 C   0  0  0  0  0  3  0  0  0  0  0  0
  -17.7520  -29.9310   23.9820 C   0  0  0  0  0  3  0  0  0  0  0  0
  -16.6780  -29.1340   23.5460 C   0  0  0  0  0  3  0  0  0  0  0  0
  -16.9310  -27.9310   22.8630 C   0  0  0  0  0  3  0  0  0  0  0  0
  -25.8950  -32.2860   23.6130 C   0  0  0  0  0  3  0  0  0  0  0  0
  -25.5170  -33.6520   24.0220 N   0  0  0  0  0  0  0  0  0  0  0  0
  -25.7770  -34.7670   23.3230 C   0  0  0  0  0  0  0  0  0  0  0  0
  -26.4290  -34.7580   22.2770 O   0  0  0  0  0  0  0  0  0  0  0  0
  -24.9530  -33.7230   24.8540 H   0  0  0  0  0  0  0  0  0  0  0  0
  -23.9480  -36.4840   23.1140 C   0  0  0  0  0  1  0  0  0  0  0  0
  -25.2300  -36.1010   23.8710 C   0  0  0  0  0  3  0  0  0  0  0  0
  -27.3300  -37.0690   24.7040 C   0  0  0  0  0  1  0  0  0  0  0  0
  -26.2020  -37.2160   23.7890 N   0  0  0  0  0  0  0  0  0  0  0  0
  -25.7470  -38.1050   23.9820 H   0  0  0  0  0  0  0  0  0  0  0  0
  -26.4560  -31.4860   24.8550 C   0  0  1  0  0  0  0  0  0  0  0  0
  -25.3880  -31.1530   25.9210 C   0  0  0  0  0  1  0  0  0  0  0  0
  -27.0950  -30.1520   24.4070 C   0  0  0  0  0  1  0  0  0  0  0  0
  -27.5800  -32.2980   25.5410 C   0  0  0  0  0  1  0  0  0  0  0  0
  1  3  1  0
  2  6  1  0
  3  5  1  0
  4  2  2  3
  4  7  1  0
  6  1  2  0
  7  3  2  0
  9 14  1  0
 10 11  1  0
 10  9  1  0
 12 11  1  0
 12 24  1  0
 12 13  1  0
 14  8  1  0
 14 13  1  0
 15  8  2  0
 16 19  1  0
 17 16  1  0
 17 20  1  0
 19  2  1  0
 19 18  1  0
 20  8  1  0
 20 18  1  0
 21 22  2  0
 22 41  1  0
 23 22  1  0
 23 26  1  0
 24 25  1  0
 24 21  1  0
 25 23  2  0
 26 27  1  0
 27 28  2  0
 29 32  1  0
 29 28  1  0
 30 29  2  0
 31 30  1  0
 31 26  2  0
 32 33  1  0
 33 34  1  0
 34 35  2  0
 36 35  1  0
 36 40  1  0
 37 36  2  0
 38 33  2  0
 38 37  1  0
 39 38  1  0
 41 42  1  0
 42 45  1  0
 42 44  1  0
 43 41  2  0
 46 21  1  0
 46 47  1  0
 48 46  1  0
 49 50  1  0
 49  4  1  0
 51 62  2  0
 52 50  1  0
 52 57  1  0
 53 61  1  0
 53 63  1  0
 54 60  1  0
 54 56  1  0
 55 61  1  0
 56 55  1  0
 57 56  2  0
 58 59  1  0
 58 52  2  0
 59 54  2  0
 60 53  1  0
 61 51  1  0
 63 65  2  0
 64 63  1  0
 66 64  1  0
 67 76  2  0
 67 72  1  0
 68 64  1  0
 68 72  1  0
 69 68  1  0
 70 71  1  0
 70 69  1  0
 71 67  1  0
 72 73  2  0
 73 74  1  0
 75 74  2  0
 76 75  1  0
 77 51  1  0
 77 78  1  0
 77 87  1  0
 78 81  1  0
 79 83  1  0
 79 78  1  0
 80 79  2  0
 83 82  1  0
 85 83  1  0
 85 86  1  0
 85 84  1  0
 87 90  1  1
 87 88  1  0
 89 87  1  0
M  ISO  4   8 100  20 100  49 101  50 101
M  END
>  <TORSDO>  (67) 
F 17

>  <SCORE>  (67) 
-14.850

>  <name>  (67) 
67

>  <ligand_id>  (67) 
67

>  <original_smiles>  (67) 
[H]c1nc(C2([H])C([H])([H])N(C(=O)N3C([H])([H])C([H])([H])C([H])([H])C([H])(n4nc(-c5c([H])c([H])c(Oc6c([H])c([H])c(F)c([H])c6F)c([H])c5[H])c(C(=O)N([H])[H])c4N([H])[H])C3([H])[H])C([H])([H])C2([H])[H])c(C([H])([H])Oc2c([H])c([H])c3c(c2[H])C([H])([H])N(C(=O)C([H])(N([H])C(=O)C([H])(N([H])C([H])([H])[H])C([H])([H])[H])C(C([H])([H])[H])(C([H])([H])[H])C([H])([H])[H])C([H])(C(=O)N([H])C2([H])c4c([H])c([H])c([H])c([H])c4C([H])([H])C([H])([H])C2([H])[H])C3([H])[H])nc1C([H])([H])[H]

>  <smiles>  (67) 
[H]c1nc(C2([H])C([H])([H])N(C(=O)N3C([H])([H])C([H])([H])C([H])([H])C([H])(n4nc(-c5c([H])c([H])c(Oc6c([H])c([H])c(F)c([H])c6F)c([H])c5[H])c(C(=O)N([H])[H])c4N([H])[H])C3([H])[H])C([H])([H])C2([H])[H])c(C([H])([H])Oc2c([H])c([H])c3c(c2[H])C([H])([H])N(C(=O)C([H])(N([H])C(=O)C([H])(N([H])C([H])([H])[H])C([H])([H])[H])C(C([H])([H])[H])(C([H])([H])[H])C([H])([H])[H])C([H])(C(=O)N([H])C2([H])c4c([H])c([H])c([H])c([H])c4C([H])([H])C([H])([H])C2([H])[H])C3([H])[H])nc1C([H])([H])[H]

$$$$
68:0:0
     RDKit          3D

 89 98  0  0  1  0  0  0  0  0999 V2000
  -30.3470  -21.5930   19.8750 C   0  0  0  0  0  3  0  0  0  0  0  0
  -28.7740  -23.2120   19.9790 C   0  0  0  0  0  0  0  0  0  0  0  0
  -28.2640  -21.8770   20.1600 C   0  0  0  0  0  0  0  0  0  0  0  0
  -26.8300  -21.5060   20.3670 C   0  0  0  0  0  1  0  0  0  0  0  0
  -30.1470  -22.9440   19.8010 N   0  0  0  0  0  0  0  0  0  0  0  0
  -29.2630  -20.8070   20.0830 N   0  0  0  0  0  0  0  0  0  0  0  0
  -29.7010  -18.6450   21.3680 C   0  0  0  0  0  2  0  0  0  0  0  0
  -29.0800  -19.2030   20.1160 C   0  0  0  0  0  3  0  0  0  0  0  0
  -30.1370  -17.8730   20.1390 C   0  0  0  0  0  3  0  0  0  0  0  0
  -30.6020  -15.1360   19.9380 C   0  0  0  0  0  0  0  0  0  0  0  0
  -30.4400  -12.7870   18.9670 C   0  0  0  0  0  2  0  0  0  0  0  0
  -29.4420  -12.7560   17.7860 C   0  0  0  0  0  2  0  0  0  0  0  0
  -28.0050  -12.5250   18.2940 C   0  0  0  0  0  2  0  0  0  0  0  0
  -27.6610  -13.4240   19.5100 C   0  0  0  0  0  3  0  0  0  0  0  0
  -28.7790  -13.4280   20.5750 C   0  0  0  0  0  2  0  0  0  0  0  0
  -30.0090  -13.8690   19.9020 N   0  0  0  0  0  0  0  0  0  0  0  0
  -31.7850  -15.2010   19.5800 O   0  0  0  0  0  0  0  0  0  0  0  0
  -29.8360  -16.3230   20.1850 N   0  0  0  0  0  0  0  0  0  0  0  0
  -28.8800  -16.1120   20.4310 H   0  0  0  0  0  0  0  0  0  0  0  0
  -25.3270  -13.9810   20.3990 C   0  0  0  0  0  0  0  0  0  0  0  0
  -24.2850  -13.1980   20.8110 C   0  0  0  0  0  0  0  0  0  0  0  0
  -24.7440  -11.8490   20.7210 C   0  0  0  0  0  0  0  0  0  0  0  0
  -26.3540  -13.1100   20.0780 N   0  0  0  0  0  0  0  0  0  0  0  0
  -26.0170  -11.8190   20.3350 N   0  0  0  0  0  0  0  0  0  0  0  0
  -24.0250  -10.5830   20.9220 C   0  0  0  0  0  0  0  0  0  0  0  0
  -24.4550   -9.6310   21.8730 C   0  0  0  0  0  3  0  0  0  0  0  0
  -23.7360   -8.4310   22.0600 C   0  0  0  0  0  3  0  0  0  0  0  0
  -22.5710   -8.1750   21.2980 C   0  0  0  0  0  0  0  0  0  0  0  0
  -22.1610   -9.1150   20.3370 C   0  0  0  0  0  3  0  0  0  0  0  0
  -22.8810  -10.3060   20.1470 C   0  0  0  0  0  3  0  0  0  0  0  0
  -21.8210   -7.0270   21.3960 O   0  0  0  0  0  0  0  0  0  0  0  0
  -21.7000   -6.3450   22.5800 C   0  0  0  0  0  0  0  0  0  0  0  0
  -21.1510   -6.9470   23.7330 C   0  0  0  0  0  3  0  0  0  0  0  0
  -20.9790   -6.1890   24.9080 C   0  0  0  0  0  3  0  0  0  0  0  0
  -21.3460   -4.8300   24.9310 C   0  0  0  0  0  0  0  0  0  0  0  0
  -21.8880   -4.2280   23.7820 C   0  0  0  0  0  3  0  0  0  0  0  0
  -22.0610   -4.9830   22.6080 C   0  0  0  0  0  0  0  0  0  0  0  0
  -22.5640   -4.3920   21.4980 F   0  0  0  0  0  0  0  0  0  0  0  0
  -21.1740   -4.0990   26.0570 F   0  0  0  0  0  0  0  0  0  0  0  0
  -22.9060  -13.6700   21.1710 C   0  0  0  0  0  0  0  0  0  0  0  0
  -22.2260  -12.9590   22.0630 N   0  0  0  0  0  0  0  0  0  0  0  0
  -22.4420  -14.7070   20.6960 O   0  0  0  0  0  0  0  0  0  0  0  0
  -22.6160  -12.1200   22.4700 H   0  0  0  0  0  0  0  0  0  0  0  0
  -21.3020  -13.2560   22.3440 H   0  0  0  0  0  0  0  0  0  0  0  0
  -25.4800  -15.3560   20.2430 N   0  0  0  0  0  0  0  0  0  0  0  0
  -24.7140  -16.0020   20.3980 H   0  0  0  0  0  0  0  0  0  0  0  0
  -26.2910  -15.8030   19.8390 H   0  0  0  0  0  0  0  0  0  0  0  0
  -27.9800  -24.6720   19.7390 C   0  0  0  0  0  2  0  0  0  0  0  0
  -28.3510  -26.1760   20.0440 O   0  0  0  0  0  0  0  0  0  0  0  0
  -24.6710  -31.8180   23.1930 C   0  0  0  0  0  0  0  0  0  0  0  0
  -27.3180  -27.2060   20.0030 C   0  0  0  0  0  0  0  0  0  0  0  0
  -23.5030  -30.4730   21.4940 C   0  0  0  0  0  3  0  0  0  0  0  0
  -24.9800  -28.9690   20.0230 C   0  0  0  0  0  0  0  0  0  0  0  0
  -26.0620  -30.7540   21.3710 C   0  0  0  0  0  2  0  0  0  0  0  0
  -26.1540  -29.3850   20.6640 C   0  0  0  0  0  0  0  0  0  0  0  0
  -27.3220  -28.5220   20.6400 C   0  0  0  0  0  3  0  0  0  0  0  0
  -26.1140  -26.9170   19.3190 C   0  0  0  0  0  3  0  0  0  0  0  0
  -24.9760  -27.7500   19.3350 C   0  0  0  0  0  3  0  0  0  0  0  0
  -23.7460  -29.8550   20.0930 C   0  0  0  0  0  2  0  0  0  0  0  0
  -24.7650  -31.0350   22.0740 N   0  0  0  0  0  0  0  0  0  0  0  0
  -23.5750  -32.0730   23.7170 O   0  0  0  0  0  0  0  0  0  0  0  0
  -22.8220  -29.4240   22.4090 C   0  0  0  0  0  0  0  0  0  0  0  0
  -21.4920  -29.2610   22.2800 N   0  0  0  0  0  0  0  0  0  0  0  0
  -23.4930  -28.7610   23.2040 O   0  0  0  0  0  0  0  0  0  0  0  0
  -21.0070  -29.8480   21.6170 H   0  0  0  0  0  0  0  0  0  0  0  0
  -18.1020  -28.0850   22.7900 C   0  0  0  0  0  0  0  0  0  0  0  0
  -20.6710  -28.2920   23.0110 C   0  0  0  0  0  3  0  0  0  0  0  0
  -20.7340  -26.8970   22.3480 C   0  0  0  0  0  2  0  0  0  0  0  0
  -19.6040  -26.6540   21.3430 C   0  0  0  0  0  2  0  0  0  0  0  0
  -18.2400  -26.7790   22.0260 C   0  0  0  0  0  2  0  0  0  0  0  0
  -19.2430  -28.8040   23.2380 C   0  0  0  0  0  0  0  0  0  0  0  0
  -19.0550  -30.0270   23.9170 C   0  0  0  0  0  3  0  0  0  0  0  0
  -17.7620  -30.5330   24.1490 C   0  0  0  0  0  3  0  0  0  0  0  0
  -16.6370  -29.8120   23.7130 C   0  0  0  0  0  3  0  0  0  0  0  0
  -16.8080  -28.5890   23.0400 C   0  0  0  0  0  3  0  0  0  0  0  0
  -25.9330  -32.4460   23.8570 C   0  0  0  0  0  3  0  0  0  0  0  0
  -25.6130  -33.8410   24.1990 N   0  0  0  0  0  0  0  0  0  0  0  0
  -25.9260  -34.9060   23.4480 C   0  0  0  0  0  0  0  0  0  0  0  0
  -26.5790  -34.8150   22.4050 O   0  0  0  0  0  0  0  0  0  0  0  0
  -25.0290  -33.9830   25.0110 H   0  0  0  0  0  0  0  0  0  0  0  0
  -24.1600  -36.6770   23.1660 C   0  0  0  0  0  1  0  0  0  0  0  0
  -25.4380  -36.2880   23.9270 C   0  0  0  0  0  3  0  0  0  0  0  0
  -27.5860  -37.2090   24.6810 C   0  0  0  0  0  1  0  0  0  0  0  0
  -26.4510  -37.3560   23.7740 N   0  0  0  0  0  0  0  0  0  0  0  0
  -26.0370  -38.2710   23.9280 H   0  0  0  0  0  0  0  0  0  0  0  0
  -26.4100  -31.6620   25.1410 C   0  0  1  0  0  0  0  0  0  0  0  0
  -25.2840  -31.4170   26.1740 C   0  0  0  0  0  1  0  0  0  0  0  0
  -27.0040  -30.2870   24.7590 C   0  0  0  0  0  1  0  0  0  0  0  0
  -27.5420  -32.4490   25.8430 C   0  0  0  0  0  1  0  0  0  0  0  0
  1  6  1  0
  2  3  2  0
  3  4  1  0
  5  1  2  0
  5  2  1  0
  6  3  1  0
  8  6  1  0
  8  9  1  0
  8  7  1  0
  9 18  1  0
  9  7  1  0
 10 18  1  0
 11 16  1  0
 12 13  1  0
 12 11  1  0
 14 13  1  0
 14 23  1  0
 14 15  1  0
 16 10  1  0
 16 15  1  0
 17 10  2  0
 18 19  1  0
 20 21  2  0
 21 40  1  0
 22 21  1  0
 22 25  1  0
 23 24  1  0
 23 20  1  0
 24 22  2  0
 25 26  1  0
 26 27  2  0
 28 31  1  0
 28 27  1  0
 29 28  2  0
 30 29  1  0
 30 25  2  0
 31 32  1  0
 32 37  2  0
 32 33  1  0
 33 34  2  0
 34 35  1  0
 35 39  1  0
 36 35  2  0
 37 36  1  0
 38 37  1  0
 40 41  1  0
 41 44  1  0
 41 43  1  0
 42 40  2  0
 45 46  1  0
 45 20  1  0
 47 45  1  0
 48  2  1  0
 48 49  1  0
 50 61  2  0
 51 49  1  0
 51 56  1  0
 52 60  1  0
 52 62  1  0
 53 59  1  0
 53 55  1  0
 54 60  1  0
 55 54  1  0
 56 55  2  0
 57 58  1  0
 57 51  2  0
 58 53  2  0
 59 52  1  0
 60 50  1  0
 62 64  2  0
 63 62  1  0
 65 63  1  0
 66 75  2  0
 66 71  1  0
 67 63  1  0
 67 71  1  0
 68 67  1  0
 69 70  1  0
 69 68  1  0
 70 66  1  0
 71 72  2  0
 72 73  1  0
 74 73  2  0
 75 74  1  0
 76 50  1  0
 76 77  1  0
 76 86  1  0
 77 80  1  0
 78 82  1  0
 78 77  1  0
 79 78  2  0
 82 81  1  0
 84 82  1  0
 84 85  1  0
 84 83  1  0
 86 89  1  1
 86 87  1  0
 88 86  1  0
M  ISO  4  10 100  18 100  48 101  49 101
M  END
>  <TORSDO>  (68) 
F 18

>  <SCORE>  (68) 
-13.495

>  <name>  (68) 
68

>  <ligand_id>  (68) 
68

>  <original_smiles>  (68) 
[H]c1c([H])c([H])c2c(c1[H])C([H])([H])C([H])([H])C([H])([H])C2([H])N([H])C(=O)C1([H])N(C(=O)C([H])(N([H])C(=O)C([H])(N([H])C([H])([H])[H])C([H])([H])[H])C(C([H])([H])[H])(C([H])([H])[H])C([H])([H])[H])C([H])([H])c2c([H])c(OC([H])([H])c3nc([H])n(C4([H])C([H])([H])C4([H])N([H])C(=O)N4C([H])([H])C([H])([H])C([H])([H])C([H])(n5nc(-c6c([H])c([H])c(Oc7c([H])c([H])c(F)c([H])c7F)c([H])c6[H])c(C(=O)N([H])[H])c5N([H])[H])C4([H])[H])c3C([H])([H])[H])c([H])c([H])c2C1([H])[H]

>  <smiles>  (68) 
[H]c1c([H])c([H])c2c(c1[H])C([H])([H])C([H])([H])C([H])([H])C2([H])N([H])C(=O)C1([H])N(C(=O)C([H])(N([H])C(=O)C([H])(N([H])C([H])([H])[H])C([H])([H])[H])C(C([H])([H])[H])(C([H])([H])[H])C([H])([H])[H])C([H])([H])c2c([H])c(OC([H])([H])c3nc([H])n(C4([H])C([H])([H])C4([H])N([H])C(=O)N4C([H])([H])C([H])([H])C([H])([H])C([H])(n5nc(-c6c([H])c([H])c(Oc7c([H])c([H])c(F)c([H])c7F)c([H])c6[H])c(C(=O)N([H])[H])c5N([H])[H])C4([H])[H])c3C([H])([H])[H])c([H])c([H])c2C1([H])[H]

$$$$
69:0:0
     RDKit          3D

 91100  0  0  1  0  0  0  0  0999 V2000
  -28.9020  -21.6420   19.8370 C   0  0  0  0  0  0  0  0  0  0  0  0
  -28.3310  -20.1850   18.1980 C   0  0  0  0  0  0  0  0  0  0  0  0
  -29.3770  -19.2360   19.9630 C   0  0  0  0  0  0  0  0  0  0  0  0
  -27.6930  -20.0010   16.8330 C   0  0  0  0  0  1  0  0  0  0  0  0
  -28.3720  -21.4490   18.6330 N   0  0  0  0  0  4  0  0  0  0  0  0
  -29.4500  -20.5320   20.5190 N   0  0  0  0  0  0  0  0  0  0  0  0
  -28.7860  -19.0700   18.7840 N   0  0  0  0  0  2  0  0  0  0  0  0
  -30.5530  -23.7400   20.1650 C   0  0  0  0  0  2  0  0  0  0  0  0
  -29.9490  -23.4720   21.5160 C   0  0  0  0  0  2  0  0  0  0  0  0
  -29.1150  -23.2630   20.2650 C   0  0  2  0  0  0  0  0  0  0  0  0
  -28.0430  -24.5430   19.9380 C   0  0  0  0  0  2  0  0  0  0  0  0
  -28.2340  -26.0960   20.2490 O   0  0  0  0  0  0  0  0  0  0  0  0
  -24.6240  -31.8810   23.2570 C   0  0  0  0  0  0  0  0  0  0  0  0
  -27.1830  -27.1070   20.2010 C   0  0  0  0  0  0  0  0  0  0  0  0
  -23.4190  -30.4780   21.6300 C   0  0  0  0  0  3  0  0  0  0  0  0
  -24.8580  -28.8900   20.1980 C   0  0  0  0  0  0  0  0  0  0  0  0
  -25.9760  -30.7200   21.4590 C   0  0  0  0  0  2  0  0  0  0  0  0
  -26.0430  -29.3230   20.8040 C   0  0  0  0  0  0  0  0  0  0  0  0
  -27.2040  -28.4490   20.7870 C   0  0  0  0  0  3  0  0  0  0  0  0
  -25.9660  -26.7900   19.5590 C   0  0  0  0  0  3  0  0  0  0  0  0
  -24.8360  -27.6400   19.5600 C   0  0  0  0  0  3  0  0  0  0  0  0
  -23.6360  -29.8000   20.2500 C   0  0  0  0  0  2  0  0  0  0  0  0
  -24.6940  -31.0500   22.1710 N   0  0  0  0  0  0  0  0  0  0  0  0
  -23.5380  -32.1720   23.7840 O   0  0  0  0  0  0  0  0  0  0  0  0
  -22.7350  -29.4790   22.5970 C   0  0  0  0  0  0  0  0  0  0  0  0
  -21.4070  -29.3090   22.4670 N   0  0  0  0  0  0  0  0  0  0  0  0
  -23.4040  -28.8600   23.4290 O   0  0  0  0  0  0  0  0  0  0  0  0
  -20.9270  -29.8630   21.7710 H   0  0  0  0  0  0  0  0  0  0  0  0
  -18.0240  -28.0990   22.9620 C   0  0  0  0  0  0  0  0  0  0  0  0
  -20.5820  -28.3740   23.2370 C   0  0  0  0  0  3  0  0  0  0  0  0
  -20.6910  -26.9380   22.6720 C   0  0  0  0  0  2  0  0  0  0  0  0
  -19.5940  -26.6050   21.6550 C   0  0  0  0  0  2  0  0  0  0  0  0
  -18.2090  -26.7460   22.2930 C   0  0  0  0  0  2  0  0  0  0  0  0
  -19.1390  -28.8680   23.3910 C   0  0  0  0  0  0  0  0  0  0  0  0
  -18.9150  -30.1300   23.9810 C   0  0  0  0  0  3  0  0  0  0  0  0
  -17.6080  -30.6280   24.1430 C   0  0  0  0  0  3  0  0  0  0  0  0
  -16.5070  -29.8570   23.7310 C   0  0  0  0  0  3  0  0  0  0  0  0
  -16.7170  -28.5930   23.1470 C   0  0  0  0  0  3  0  0  0  0  0  0
  -25.8990  -32.5190   23.8850 C   0  0  0  0  0  3  0  0  0  0  0  0
  -26.4020  -31.7590   25.1750 C   0  0  1  0  0  0  0  0  0  0  0  0
  -25.2980  -31.5360   26.2370 C   0  0  0  0  0  1  0  0  0  0  0  0
  -26.9810  -30.3750   24.8030 C   0  0  0  0  0  1  0  0  0  0  0  0
  -27.5530  -32.5560   25.8320 C   0  0  0  0  0  1  0  0  0  0  0  0
  -25.5890  -33.9240   24.2080 N   0  0  0  0  0  0  0  0  0  0  0  0
  -25.9150  -34.9740   23.4450 C   0  0  0  0  0  0  0  0  0  0  0  0
  -26.5750  -34.8660   22.4080 O   0  0  0  0  0  0  0  0  0  0  0  0
  -25.0040  -34.0820   25.0160 H   0  0  0  0  0  0  0  0  0  0  0  0
  -24.1840  -36.7680   23.1060 C   0  0  0  0  0  1  0  0  0  0  0  0
  -25.4360  -36.3680   23.9020 C   0  0  0  0  0  3  0  0  0  0  0  0
  -27.5840  -37.2540   24.6990 C   0  0  0  0  0  1  0  0  0  0  0  0
  -26.4700  -37.4200   23.7680 N   0  0  0  0  0  0  0  0  0  0  0  0
  -26.0700  -38.3420   23.9160 H   0  0  0  0  0  0  0  0  0  0  0  0
  -30.1380  -17.8610   20.5530 C   0  0  0  0  0  2  0  0  0  0  0  0
  -30.5020  -15.0900   20.3970 C   0  0  0  0  0  0  0  0  0  0  0  0
  -30.4250  -12.6980   19.5140 C   0  0  0  0  0  2  0  0  0  0  0  0
  -29.5040  -12.5680   18.2770 C   0  0  0  0  0  2  0  0  0  0  0  0
  -28.0400  -12.3430   18.7060 C   0  0  0  0  0  2  0  0  0  0  0  0
  -27.5990  -13.2970   19.8450 C   0  0  0  0  0  3  0  0  0  0  0  0
  -28.6470  -13.3850   20.9750 C   0  0  0  0  0  2  0  0  0  0  0  0
  -29.9050  -13.8220   20.3500 N   0  0  0  0  0  0  0  0  0  0  0  0
  -31.7260  -15.1150   20.2330 O   0  0  0  0  0  0  0  0  0  0  0  0
  -29.7430  -16.3120   20.4110 N   0  0  0  0  0  0  0  0  0  0  0  0
  -28.7450  -16.1750   20.3940 H   0  0  0  0  0  0  0  0  0  0  0  0
  -25.2170  -13.8610   20.5780 C   0  0  0  0  0  0  0  0  0  0  0  0
  -24.1530  -13.0780   20.9400 C   0  0  0  0  0  0  0  0  0  0  0  0
  -24.6250  -11.7320   20.9100 C   0  0  0  0  0  0  0  0  0  0  0  0
  -26.2650  -12.9870   20.3430 N   0  0  0  0  0  0  0  0  0  0  0  0
  -25.9210  -11.7020   20.6150 N   0  0  0  0  0  0  0  0  0  0  0  0
  -23.9020  -10.4670   21.0890 C   0  0  0  0  0  0  0  0  0  0  0  0
  -24.3310   -9.4960   22.0190 C   0  0  0  0  0  3  0  0  0  0  0  0
  -23.6060   -8.2950   22.1870 C   0  0  0  0  0  3  0  0  0  0  0  0
  -22.4380   -8.0580   21.4220 C   0  0  0  0  0  0  0  0  0  0  0  0
  -22.0310   -9.0160   20.4770 C   0  0  0  0  0  3  0  0  0  0  0  0
  -22.7570  -10.2080   20.3100 C   0  0  0  0  0  3  0  0  0  0  0  0
  -21.6840   -6.9100   21.4990 O   0  0  0  0  0  0  0  0  0  0  0  0
  -21.6300   -6.1610   22.6470 C   0  0  0  0  0  0  0  0  0  0  0  0
  -21.1770   -6.7020   23.8710 C   0  0  0  0  0  3  0  0  0  0  0  0
  -21.0730   -5.8790   25.0100 C   0  0  0  0  0  3  0  0  0  0  0  0
  -21.4080   -4.5140   24.9250 C   0  0  0  0  0  0  0  0  0  0  0  0
  -21.8490   -3.9720   23.7050 C   0  0  0  0  0  3  0  0  0  0  0  0
  -21.9560   -4.7940   22.5690 C   0  0  0  0  0  0  0  0  0  0  0  0
  -22.3660   -4.2600   21.3930 F   0  0  0  0  0  0  0  0  0  0  0  0
  -21.2980   -3.7200   26.0160 F   0  0  0  0  0  0  0  0  0  0  0  0
  -22.7520  -13.5490   21.1940 C   0  0  0  0  0  0  0  0  0  0  0  0
  -22.0180  -12.8480   22.0520 N   0  0  0  0  0  0  0  0  0  0  0  0
  -22.3140  -14.5700   20.6680 O   0  0  0  0  0  0  0  0  0  0  0  0
  -22.3860  -12.0270   22.5090 H   0  0  0  0  0  0  0  0  0  0  0  0
  -21.0720  -13.1370   22.2570 H   0  0  0  0  0  0  0  0  0  0  0  0
  -25.3660  -15.2340   20.4010 N   0  0  0  0  0  0  0  0  0  0  0  0
  -24.5820  -15.8650   20.5160 H   0  0  0  0  0  0  0  0  0  0  0  0
  -26.1990  -15.6920   20.0590 H   0  0  0  0  0  0  0  0  0  0  0  0
  1 10  1  0
  1  6  1  0
  2  5  2  0
  2  7  1  0
  3  6  2  0
  3 53  1  0
  4  2  1  0
  5  1  2  0
  7  3  1  0
  8 10  1  0
  8  9  1  0
 10  9  1  0
 11 12  1  0
 10 11  1  1
 13 24  2  0
 14 12  1  0
 14 19  1  0
 15 23  1  0
 15 25  1  0
 16 22  1  0
 16 18  1  0
 17 23  1  0
 18 17  1  0
 19 18  2  0
 20 21  1  0
 20 14  2  0
 21 16  2  0
 22 15  1  0
 23 13  1  0
 25 27  2  0
 26 25  1  0
 28 26  1  0
 29 38  2  0
 29 34  1  0
 30 26  1  0
 30 34  1  0
 31 30  1  0
 32 33  1  0
 32 31  1  0
 33 29  1  0
 34 35  2  0
 35 36  1  0
 37 36  2  0
 38 37  1  0
 39 13  1  0
 39 44  1  0
 39 40  1  0
 40 43  1  1
 40 41  1  0
 42 40  1  0
 44 47  1  0
 45 49  1  0
 45 44  1  0
 46 45  2  0
 49 48  1  0
 51 49  1  0
 51 52  1  0
 51 50  1  0
 54 62  1  0
 55 60  1  0
 56 57  1  0
 56 55  1  0
 58 57  1  0
 58 67  1  0
 58 59  1  0
 60 54  1  0
 60 59  1  0
 61 54  2  0
 62 53  1  0
 63 62  1  0
 64 65  2  0
 65 84  1  0
 66 65  1  0
 66 69  1  0
 67 64  1  0
 67 68  1  0
 68 66  2  0
 69 70  1  0
 70 71  2  0
 72 75  1  0
 72 71  1  0
 73 72  2  0
 74 73  1  0
 74 69  2  0
 75 76  1  0
 76 77  1  0
 77 78  2  0
 79 78  1  0
 79 83  1  0
 80 79  2  0
 81 76  2  0
 81 80  1  0
 82 81  1  0
 84 85  1  0
 85 88  1  0
 85 87  1  0
 86 84  2  0
 89 90  1  0
 89 64  1  0
 91 89  1  0
M  ISO  4  11 101  12 101  54 100  62 100
M  END
>  <TORSDO>  (69) 
F 19

>  <SCORE>  (69) 
-14.866

>  <name>  (69) 
69

>  <ligand_id>  (69) 
69

>  <original_smiles>  (69) 
[H]c1c([H])c([H])c2c(c1[H])C([H])([H])C([H])([H])C([H])([H])C2([H])N([H])C(=O)C1([H])N(C(=O)C([H])(N([H])C(=O)C([H])(N([H])C([H])([H])[H])C([H])([H])[H])C(C([H])([H])[H])(C([H])([H])[H])C([H])([H])[H])C([H])([H])c2c([H])c(OC([H])([H])C3(c4nc(C([H])([H])[H])nc(C([H])([H])N([H])C(=O)N5C([H])([H])C([H])([H])C([H])([H])C([H])(n6nc(-c7c([H])c([H])c(Oc8c([H])c([H])c(F)c([H])c8F)c([H])c7[H])c(C(=O)N([H])[H])c6N([H])[H])C5([H])[H])n4)C([H])([H])C3([H])[H])c([H])c([H])c2C1([H])[H]

>  <smiles>  (69) 
[H]c1c([H])c([H])c2c(c1[H])C([H])([H])C([H])([H])C([H])([H])C2([H])N([H])C(=O)C1([H])N(C(=O)C([H])(N([H])C(=O)C([H])(N([H])C([H])([H])[H])C([H])([H])[H])C(C([H])([H])[H])(C([H])([H])[H])C([H])([H])[H])C([H])([H])c2c([H])c(OC([H])([H])C3(c4nc(C([H])([H])[H])nc(C([H])([H])N([H])C(=O)N5C([H])([H])C([H])([H])C([H])([H])C([H])(n6nc(-c7c([H])c([H])c(Oc8c([H])c([H])c(F)c([H])c8F)c([H])c7[H])c(C(=O)N([H])[H])c6N([H])[H])C5([H])[H])n4)C([H])([H])C3([H])[H])c([H])c([H])c2C1([H])[H]

$$$$
70:0:0
     RDKit          3D

 91100  0  0  1  0  0  0  0  0999 V2000
  -28.6840  -21.1430   19.6570 C   0  0  0  0  0  0  0  0  0  0  0  0
  -28.6790  -22.5250   20.2490 C   0  0  0  0  0  0  0  0  0  0  0  0
  -29.7480  -20.8040   21.4380 C   0  0  0  0  0  0  0  0  0  0  0  0
  -28.0750  -20.5810   18.4450 C   0  0  0  0  0  0  0  0  0  0  0  0
  -29.5410  -18.6130   18.2990 C   0  0  0  0  0  3  0  0  0  0  0  0
  -29.8420  -18.4820   19.8240 C   0  0  0  0  0  0  0  0  0  0  0  0
  -30.5660  -20.2060   22.5350 C   0  0  0  0  0  1  0  0  0  0  0  0
  -26.9270  -21.3680   17.8500 C   0  0  0  0  0  1  0  0  0  0  0  0
  -29.3850  -22.1420   21.4250 N   0  0  0  0  0  0  0  0  0  0  0  0
  -28.3750  -19.4460   17.9060 N   0  0  0  0  0  0  0  0  0  0  0  0
  -29.3900  -20.0290   20.3700 N   0  0  0  0  0  0  0  0  0  0  0  0
  -30.4250  -15.5410   20.1660 C   0  0  0  0  0  0  0  0  0  0  0  0
  -30.4620  -13.0440   19.3540 C   0  0  0  0  0  2  0  0  0  0  0  0
  -29.5370  -12.7410   18.1440 C   0  0  0  0  0  2  0  0  0  0  0  0
  -28.1090  -12.4250   18.6160 C   0  0  0  0  0  2  0  0  0  0  0  0
  -27.6420  -13.4070   19.7170 C   0  0  0  0  0  3  0  0  0  0  0  0
  -28.6990  -13.6430   20.8210 C   0  0  0  0  0  2  0  0  0  0  0  0
  -29.8920  -14.2020   20.1590 N   0  0  0  0  0  0  0  0  0  0  0  0
  -31.6310  -15.5290   19.8740 O   0  0  0  0  0  0  0  0  0  0  0  0
  -29.6660  -16.8450   20.2970 N   0  0  0  0  0  0  0  0  0  0  0  0
  -28.7200  -16.6640   20.5990 H   0  0  0  0  0  0  0  0  0  0  0  0
  -25.2950  -13.9260   20.5510 C   0  0  0  0  0  0  0  0  0  0  0  0
  -24.2470  -13.1350   20.9280 C   0  0  0  0  0  0  0  0  0  0  0  0
  -24.7200  -11.7880   20.8520 C   0  0  0  0  0  0  0  0  0  0  0  0
  -26.3340  -13.0640   20.2570 N   0  0  0  0  0  0  0  0  0  0  0  0
  -26.0040  -11.7700   20.5060 N   0  0  0  0  0  0  0  0  0  0  0  0
  -24.0020  -10.5190   21.0300 C   0  0  0  0  0  0  0  0  0  0  0  0
  -24.4330   -9.5480   21.9590 C   0  0  0  0  0  3  0  0  0  0  0  0
  -23.7110   -8.3470   22.1280 C   0  0  0  0  0  3  0  0  0  0  0  0
  -22.5430   -8.1070   21.3640 C   0  0  0  0  0  0  0  0  0  0  0  0
  -22.1310   -9.0680   20.4230 C   0  0  0  0  0  3  0  0  0  0  0  0
  -22.8540  -10.2600   20.2540 C   0  0  0  0  0  3  0  0  0  0  0  0
  -21.7930   -6.9590   21.4420 O   0  0  0  0  0  0  0  0  0  0  0  0
  -21.7030   -6.2350   22.6030 C   0  0  0  0  0  0  0  0  0  0  0  0
  -21.1830   -6.7930   23.7920 C   0  0  0  0  0  3  0  0  0  0  0  0
  -21.0450   -5.9930   24.9420 C   0  0  0  0  0  3  0  0  0  0  0  0
  -21.4150   -4.6360   24.9070 C   0  0  0  0  0  0  0  0  0  0  0  0
  -21.9260   -4.0760   23.7230 C   0  0  0  0  0  3  0  0  0  0  0  0
  -22.0670   -4.8730   22.5730 C   0  0  0  0  0  0  0  0  0  0  0  0
  -22.5410   -4.3230   21.4290 F   0  0  0  0  0  0  0  0  0  0  0  0
  -21.2740   -3.8650   26.0110 F   0  0  0  0  0  0  0  0  0  0  0  0
  -22.8550  -13.6000   21.2390 C   0  0  0  0  0  0  0  0  0  0  0  0
  -22.1560  -12.8890   22.1160 N   0  0  0  0  0  0  0  0  0  0  0  0
  -22.4010  -14.6300   20.7430 O   0  0  0  0  0  0  0  0  0  0  0  0
  -22.5370  -12.0560   22.5360 H   0  0  0  0  0  0  0  0  0  0  0  0
  -21.2240  -13.1830   22.3700 H   0  0  0  0  0  0  0  0  0  0  0  0
  -25.4460  -15.3020   20.4000 N   0  0  0  0  0  0  0  0  0  0  0  0
  -24.6760  -15.9470   20.5360 H   0  0  0  0  0  0  0  0  0  0  0  0
  -26.2700  -15.7470   20.0160 H   0  0  0  0  0  0  0  0  0  0  0  0
  -27.9320  -24.1480   19.9270 C   0  0  0  0  0  2  0  0  0  0  0  0
  -28.1700  -25.7770   20.3390 O   0  0  0  0  0  0  0  0  0  0  0  0
  -24.6570  -31.8880   23.2950 C   0  0  0  0  0  0  0  0  0  0  0  0
  -27.2000  -26.9450   20.2490 C   0  0  0  0  0  0  0  0  0  0  0  0
  -23.4680  -30.5060   21.6430 C   0  0  0  0  0  3  0  0  0  0  0  0
  -24.9180  -28.8980   20.2090 C   0  0  0  0  0  0  0  0  0  0  0  0
  -26.0400  -30.6850   21.5150 C   0  0  0  0  0  2  0  0  0  0  0  0
  -26.1070  -29.2710   20.8480 C   0  0  0  0  0  0  0  0  0  0  0  0
  -27.2350  -28.3170   20.8450 C   0  0  0  0  0  3  0  0  0  0  0  0
  -25.9820  -26.7560   19.5510 C   0  0  0  0  0  3  0  0  0  0  0  0
  -24.8880  -27.6640   19.5390 C   0  0  0  0  0  3  0  0  0  0  0  0
  -23.7050  -29.8320   20.2620 C   0  0  0  0  0  2  0  0  0  0  0  0
  -24.7450  -31.0560   22.2040 N   0  0  0  0  0  0  0  0  0  0  0  0
  -23.5650  -32.1760   23.8120 O   0  0  0  0  0  0  0  0  0  0  0  0
  -22.7640  -29.5090   22.6030 C   0  0  0  0  0  0  0  0  0  0  0  0
  -21.4360  -29.3380   22.4670 N   0  0  0  0  0  0  0  0  0  0  0  0
  -23.4230  -28.8910   23.4410 O   0  0  0  0  0  0  0  0  0  0  0  0
  -20.9540  -29.8860   21.7690 H   0  0  0  0  0  0  0  0  0  0  0  0
  -18.0600  -28.0860   22.9350 C   0  0  0  0  0  0  0  0  0  0  0  0
  -20.6130  -28.3910   23.2290 C   0  0  0  0  0  3  0  0  0  0  0  0
  -20.7420  -26.9580   22.6620 C   0  0  0  0  0  2  0  0  0  0  0  0
  -19.6580  -26.6170   21.6340 C   0  0  0  0  0  2  0  0  0  0  0  0
  -18.2660  -26.7410   22.2580 C   0  0  0  0  0  2  0  0  0  0  0  0
  -19.1610  -28.8680   23.3770 C   0  0  0  0  0  0  0  0  0  0  0  0
  -18.9110  -30.1230   23.9720 C   0  0  0  0  0  3  0  0  0  0  0  0
  -17.5960  -30.6000   24.1260 C   0  0  0  0  0  3  0  0  0  0  0  0
  -16.5110  -29.8170   23.6980 C   0  0  0  0  0  3  0  0  0  0  0  0
  -16.7420  -28.5610   23.1090 C   0  0  0  0  0  3  0  0  0  0  0  0
  -25.9230  -32.5300   23.9380 C   0  0  0  0  0  3  0  0  0  0  0  0
  -25.6140  -33.9380   24.2480 N   0  0  0  0  0  0  0  0  0  0  0  0
  -25.9390  -34.9870   23.4780 C   0  0  0  0  0  0  0  0  0  0  0  0
  -26.5880  -34.8690   22.4370 O   0  0  0  0  0  0  0  0  0  0  0  0
  -25.0330  -34.1040   25.0560 H   0  0  0  0  0  0  0  0  0  0  0  0
  -24.2000  -36.7820   23.1620 C   0  0  0  0  0  1  0  0  0  0  0  0
  -25.4700  -36.3860   23.9320 C   0  0  0  0  0  3  0  0  0  0  0  0
  -27.6290  -37.2910   24.6760 C   0  0  0  0  0  1  0  0  0  0  0  0
  -26.4980  -37.4380   23.7650 N   0  0  0  0  0  0  0  0  0  0  0  0
  -26.0940  -38.3580   23.9060 H   0  0  0  0  0  0  0  0  0  0  0  0
  -26.3990  -31.7840   25.2450 C   0  0  1  0  0  0  0  0  0  0  0  0
  -25.2770  -31.5840   26.2920 C   0  0  0  0  0  1  0  0  0  0  0  0
  -26.9760  -30.3910   24.9090 C   0  0  0  0  0  1  0  0  0  0  0  0
  -27.5450  -32.5790   25.9160 C   0  0  0  0  0  1  0  0  0  0  0  0
  1  2  2  0
  1 11  1  0
  2  9  1  0
  3  7  1  0
  4  1  1  0
  5  6  2  0
  6 20  1  0
  6 11  1  0
  8  4  1  0
  9  3  2  0
 10  5  1  0
 10  4  2  0
 11  3  1  0
 12 20  1  0
 13 18  1  0
 14 15  1  0
 14 13  1  0
 16 15  1  0
 16 25  1  0
 16 17  1  0
 18 12  1  0
 18 17  1  0
 19 12  2  0
 20 21  1  0
 22 23  2  0
 23 42  1  0
 24 23  1  0
 24 27  1  0
 25 26  1  0
 25 22  1  0
 26 24  2  0
 27 28  1  0
 28 29  2  0
 30 33  1  0
 30 29  1  0
 31 30  2  0
 32 31  1  0
 32 27  2  0
 33 34  1  0
 34 35  1  0
 35 36  2  0
 37 36  1  0
 37 41  1  0
 38 37  2  0
 39 34  2  0
 39 38  1  0
 40 39  1  0
 42 43  1  0
 43 46  1  0
 43 45  1  0
 44 42  2  0
 47 48  1  0
 47 22  1  0
 49 47  1  0
 50  2  1  0
 50 51  1  0
 52 63  2  0
 53 51  1  0
 53 58  1  0
 54 62  1  0
 54 64  1  0
 55 61  1  0
 55 57  1  0
 56 62  1  0
 57 56  1  0
 58 57  2  0
 59 53  2  0
 60 59  1  0
 60 55  2  0
 61 54  1  0
 62 52  1  0
 64 66  2  0
 65 64  1  0
 67 65  1  0
 68 77  2  0
 68 73  1  0
 69 65  1  0
 69 73  1  0
 70 69  1  0
 71 72  1  0
 71 70  1  0
 72 68  1  0
 73 74  2  0
 74 75  1  0
 76 75  2  0
 77 76  1  0
 78 52  1  0
 78 79  1  0
 78 88  1  0
 79 82  1  0
 80 84  1  0
 80 79  1  0
 81 80  2  0
 84 83  1  0
 86 87  1  0
 86 84  1  0
 86 85  1  0
 88 91  1  1
 88 89  1  0
 90 88  1  0
M  ISO  4  12 100  20 100  50 101  51 101
M  END
>  <TORSDO>  (70) 
F 17

>  <SCORE>  (70) 
-16.787

>  <name>  (70) 
70

>  <ligand_id>  (70) 
70

>  <original_smiles>  (70) 
[H]c1c([H])c([H])c2c(c1[H])C([H])([H])C([H])([H])C([H])([H])C2([H])N([H])C(=O)C1([H])N(C(=O)C([H])(N([H])C(=O)C([H])(N([H])C([H])([H])[H])C([H])([H])[H])C(C([H])([H])[H])(C([H])([H])[H])C([H])([H])[H])C([H])([H])c2c([H])c(OC([H])([H])c3nc(C([H])([H])[H])n4c3C(C([H])([H])[H])=NC([H])([H])C4([H])N([H])C(=O)N3C([H])([H])C([H])([H])C([H])([H])C([H])(n4nc(-c5c([H])c([H])c(Oc6c([H])c([H])c(F)c([H])c6F)c([H])c5[H])c(C(=O)N([H])[H])c4N([H])[H])C3([H])[H])c([H])c([H])c2C1([H])[H]

>  <smiles>  (70) 
[H]c1c([H])c([H])c2c(c1[H])C([H])([H])C([H])([H])C([H])([H])C2([H])N([H])C(=O)C1([H])N(C(=O)C([H])(N([H])C(=O)C([H])(N([H])C([H])([H])[H])C([H])([H])[H])C(C([H])([H])[H])(C([H])([H])[H])C([H])([H])[H])C([H])([H])c2c([H])c(OC([H])([H])c3nc(C([H])([H])[H])n4c3C(C([H])([H])[H])=NC([H])([H])C4([H])N([H])C(=O)N3C([H])([H])C([H])([H])C([H])([H])C([H])(n4nc(-c5c([H])c([H])c(Oc6c([H])c([H])c(F)c([H])c6F)c([H])c5[H])c(C(=O)N([H])[H])c4N([H])[H])C3([H])[H])c([H])c([H])c2C1([H])[H]

$$$$
71:0:0
     RDKit          3D

 92100  0  0  1  0  0  0  0  0999 V2000
  -30.2760  -21.8060   20.1790 C   0  0  0  0  0  2  0  0  0  0  0  0
  -28.2090  -21.6950   20.6460 C   0  0  0  0  0  2  0  0  0  0  0  0
  -29.2880  -20.6130   20.3100 C   0  0  0  0  0  3  0  0  0  0  0  0
  -29.2520  -22.7350   20.7130 N   0  0  0  0  0  0  0  0  0  0  0  0
  -29.5460  -19.5790   21.3930 N   0  0  0  0  0  4  0  0  0  0  0  0
  -28.6580  -19.2980   21.7750 H   0  0  0  0  0  0  0  0  0  0  0  0
  -30.0180  -20.0530   22.1460 H   0  0  0  0  0  0  0  0  0  0  0  0
  -30.3240  -18.2880   21.1460 C   0  0  0  0  0  2  0  0  0  0  0  0
  -29.5110  -17.1490   18.9730 C   0  0  0  0  0  1  0  0  0  0  0  0
  -29.5360  -17.0550   20.5110 C   0  0  0  0  0  3  0  0  0  0  0  0
  -30.6010  -14.6300   20.3900 C   0  0  0  0  0  0  0  0  0  0  0  0
  -30.3760  -12.4210   19.2570 C   0  0  0  0  0  2  0  0  0  0  0  0
  -29.4200  -12.6080   18.0570 C   0  0  0  0  0  2  0  0  0  0  0  0
  -27.9560  -12.4270   18.4990 C   0  0  0  0  0  2  0  0  0  0  0  0
  -27.6130  -13.2570   19.7650 C   0  0  0  0  0  3  0  0  0  0  0  0
  -28.6790  -13.0480   20.8680 C   0  0  0  0  0  2  0  0  0  0  0  0
  -29.9950  -13.4020   20.3010 N   0  0  0  0  0  0  0  0  0  0  0  0
  -31.6910  -14.8470   19.8540 O   0  0  0  0  0  0  0  0  0  0  0  0
  -29.8520  -15.6340   20.9460 N   0  0  0  0  0  0  0  0  0  0  0  0
  -29.1280  -15.2540   21.5420 H   0  0  0  0  0  0  0  0  0  0  0  0
  -25.2140  -13.8480   20.4800 C   0  0  0  0  0  0  0  0  0  0  0  0
  -24.1530  -13.0700   20.8600 C   0  0  0  0  0  0  0  0  0  0  0  0
  -24.6210  -11.7210   20.8250 C   0  0  0  0  0  0  0  0  0  0  0  0
  -26.2630  -12.9720   20.2450 N   0  0  0  0  0  0  0  0  0  0  0  0
  -25.9090  -11.6870   20.5070 N   0  0  0  0  0  0  0  0  0  0  0  0
  -23.9010  -10.4560   21.0280 C   0  0  0  0  0  0  0  0  0  0  0  0
  -24.3520   -9.4880   21.9510 C   0  0  0  0  0  3  0  0  0  0  0  0
  -23.6350   -8.2870   22.1400 C   0  0  0  0  0  3  0  0  0  0  0  0
  -22.4490   -8.0460   21.4040 C   0  0  0  0  0  0  0  0  0  0  0  0
  -22.0170   -9.0010   20.4680 C   0  0  0  0  0  3  0  0  0  0  0  0
  -22.7390  -10.1930   20.2780 C   0  0  0  0  0  3  0  0  0  0  0  0
  -21.7020   -6.8970   21.5050 O   0  0  0  0  0  0  0  0  0  0  0  0
  -21.6820   -6.1480   22.6520 C   0  0  0  0  0  0  0  0  0  0  0  0
  -21.2840   -6.6950   23.8930 C   0  0  0  0  0  3  0  0  0  0  0  0
  -21.2100   -5.8720   25.0320 C   0  0  0  0  0  3  0  0  0  0  0  0
  -21.5250   -4.5020   24.9360 C   0  0  0  0  0  0  0  0  0  0  0  0
  -21.9180   -3.9560   23.7020 C   0  0  0  0  0  3  0  0  0  0  0  0
  -21.9940   -4.7770   22.5630 C   0  0  0  0  0  0  0  0  0  0  0  0
  -22.3510   -4.2380   21.3710 F   0  0  0  0  0  0  0  0  0  0  0  0
  -21.4460   -3.7100   26.0310 F   0  0  0  0  0  0  0  0  0  0  0  0
  -22.7590  -13.5410   21.1530 C   0  0  0  0  0  0  0  0  0  0  0  0
  -22.0500  -12.8360   22.0310 N   0  0  0  0  0  0  0  0  0  0  0  0
  -22.3120  -14.5710   20.6500 O   0  0  0  0  0  0  0  0  0  0  0  0
  -22.4280  -12.0020   22.4580 H   0  0  0  0  0  0  0  0  0  0  0  0
  -21.1190  -13.1360   22.2840 H   0  0  0  0  0  0  0  0  0  0  0  0
  -25.3790  -15.2150   20.2980 N   0  0  0  0  0  0  0  0  0  0  0  0
  -24.6160  -15.8740   20.3910 H   0  0  0  0  0  0  0  0  0  0  0  0
  -26.2260  -15.6380   19.9390 H   0  0  0  0  0  0  0  0  0  0  0  0
  -28.5040  -23.9070   18.5700 C   0  0  0  0  0  1  0  0  0  0  0  0
  -29.0780  -24.0550   19.9940 C   0  0  0  0  0  3  0  0  0  0  0  0
  -28.2690  -25.1830   20.7600 C   0  0  0  0  0  2  0  0  0  0  0  0
  -28.4120  -26.5650   20.2560 O   0  0  0  0  0  0  0  0  0  0  0  0
  -24.6290  -31.8900   23.2520 C   0  0  0  0  0  0  0  0  0  0  0  0
  -27.2720  -27.3700   20.2260 C   0  0  0  0  0  0  0  0  0  0  0  0
  -23.4290  -30.4840   21.6110 C   0  0  0  0  0  3  0  0  0  0  0  0
  -24.8900  -28.9380   20.1910 C   0  0  0  0  0  0  0  0  0  0  0  0
  -25.9630  -30.8300   21.4210 C   0  0  0  0  0  2  0  0  0  0  0  0
  -26.0510  -29.4500   20.7840 C   0  0  0  0  0  0  0  0  0  0  0  0
  -27.2500  -28.6820   20.7820 C   0  0  0  0  0  3  0  0  0  0  0  0
  -26.0960  -26.9040   19.6020 C   0  0  0  0  0  3  0  0  0  0  0  0
  -24.9140  -27.6720   19.5820 C   0  0  0  0  0  3  0  0  0  0  0  0
  -23.6450  -29.7980   20.2330 C   0  0  0  0  0  2  0  0  0  0  0  0
  -24.6920  -31.0850   22.1520 N   0  0  0  0  0  0  0  0  0  0  0  0
  -23.5450  -32.1580   23.7910 O   0  0  0  0  0  0  0  0  0  0  0  0
  -22.7730  -29.4660   22.5740 C   0  0  0  0  0  0  0  0  0  0  0  0
  -21.4480  -29.2790   22.4430 N   0  0  0  0  0  0  0  0  0  0  0  0
  -23.4530  -28.8470   23.3960 O   0  0  0  0  0  0  0  0  0  0  0  0
  -20.9620  -29.8320   21.7510 H   0  0  0  0  0  0  0  0  0  0  0  0
  -18.0780  -28.0610   22.9210 C   0  0  0  0  0  0  0  0  0  0  0  0
  -20.6310  -28.3410   23.2120 C   0  0  0  0  0  3  0  0  0  0  0  0
  -20.7490  -26.9070   22.6460 C   0  0  0  0  0  2  0  0  0  0  0  0
  -19.6570  -26.5680   21.6250 C   0  0  0  0  0  2  0  0  0  0  0  0
  -18.2680  -26.7090   22.2550 C   0  0  0  0  0  2  0  0  0  0  0  0
  -19.1870  -28.8330   23.3550 C   0  0  0  0  0  0  0  0  0  0  0  0
  -18.9530  -30.1000   23.9350 C   0  0  0  0  0  3  0  0  0  0  0  0
  -17.6440  -30.5910   24.0870 C   0  0  0  0  0  3  0  0  0  0  0  0
  -16.5480  -29.8170   23.6680 C   0  0  0  0  0  3  0  0  0  0  0  0
  -16.7660  -28.5530   23.0910 C   0  0  0  0  0  3  0  0  0  0  0  0
  -25.9110  -32.5270   23.8750 C   0  0  0  0  0  3  0  0  0  0  0  0
  -25.6020  -33.9270   24.1970 N   0  0  0  0  0  0  0  0  0  0  0  0
  -25.9350  -34.9780   23.4340 C   0  0  0  0  0  0  0  0  0  0  0  0
  -26.6080  -34.8690   22.4040 O   0  0  0  0  0  0  0  0  0  0  0  0
  -25.0150  -34.0850   25.0030 H   0  0  0  0  0  0  0  0  0  0  0  0
  -24.2090  -36.7660   23.0580 C   0  0  0  0  0  1  0  0  0  0  0  0
  -25.4440  -36.3690   23.8820 C   0  0  0  0  0  3  0  0  0  0  0  0
  -27.5720  -37.2520   24.7250 C   0  0  0  0  0  1  0  0  0  0  0  0
  -26.4780  -37.4210   23.7720 N   0  0  0  0  0  0  0  0  0  0  0  0
  -26.0720  -38.3430   23.9150 H   0  0  0  0  0  0  0  0  0  0  0  0
  -26.4200  -31.7660   25.1580 C   0  0  1  0  0  0  0  0  0  0  0  0
  -25.3210  -31.5380   26.2210 C   0  0  0  0  0  1  0  0  0  0  0  0
  -27.0040  -30.3870   24.7770 C   0  0  0  0  0  1  0  0  0  0  0  0
  -27.5700  -32.5610   25.8190 C   0  0  0  0  0  1  0  0  0  0  0  0
  1  3  1  0
  1  4  1  0
  2  4  1  0
  3  2  1  0
  3  5  1  0
  5  6  1  0
  5  7  1  0
  8  5  1  0
 10  9  1  0
 10 19  1  0
 10  8  1  0
 11 19  1  0
 12 17  1  0
 13 14  1  0
 13 12  1  0
 15 14  1  0
 15 24  1  0
 15 16  1  0
 17 11  1  0
 17 16  1  0
 18 11  2  0
 19 20  1  0
 21 22  2  0
 22 41  1  0
 23 22  1  0
 23 26  1  0
 24 21  1  0
 24 25  1  0
 25 23  2  0
 26 27  1  0
 27 28  2  0
 29 32  1  0
 29 28  1  0
 30 29  2  0
 31 30  1  0
 31 26  2  0
 32 33  1  0
 33 34  1  0
 34 35  2  0
 36 35  1  0
 36 40  1  0
 37 36  2  0
 38 33  2  0
 38 37  1  0
 39 38  1  0
 41 42  1  0
 42 45  1  0
 42 44  1  0
 43 41  2  0
 46 47  1  0
 46 21  1  0
 48 46  1  0
 50 49  1  0
 50  4  1  0
 50 51  1  0
 52 51  1  0
 53 64  2  0
 54 52  1  0
 54 59  1  0
 55 63  1  0
 55 65  1  0
 56 62  1  0
 56 58  1  0
 57 63  1  0
 58 57  1  0
 59 58  2  0
 60 54  2  0
 61 60  1  0
 61 56  2  0
 62 55  1  0
 63 53  1  0
 65 67  2  0
 66 65  1  0
 68 66  1  0
 69 78  2  0
 69 74  1  0
 70 66  1  0
 70 74  1  0
 71 70  1  0
 72 73  1  0
 72 71  1  0
 73 69  1  0
 74 75  2  0
 75 76  1  0
 77 76  2  0
 78 77  1  0
 79 53  1  0
 79 80  1  0
 79 89  1  0
 80 83  1  0
 81 85  1  0
 81 80  1  0
 82 81  2  0
 85 84  1  0
 87 85  1  0
 87 88  1  0
 87 86  1  0
 89 92  1  1
 89 90  1  0
 91 89  1  0
M  ISO  4  11 100  19 100  51 101  52 101
M  END
>  <TORSDO>  (71) 
F 21

>  <SCORE>  (71) 
-13.592

>  <name>  (71) 
71

>  <ligand_id>  (71) 
71

>  <original_smiles>  (71) 
[H]c1c([H])c([H])c2c(c1[H])C([H])([H])C([H])([H])C([H])([H])C2([H])N([H])C(=O)C1([H])N(C(=O)C([H])(N([H])C(=O)C([H])(N([H])C([H])([H])[H])C([H])([H])[H])C(C([H])([H])[H])(C([H])([H])[H])C([H])([H])[H])C([H])([H])c2c([H])c(OC([H])([H])C([H])(N3C([H])([H])C([H])([N+]([H])([H])C([H])([H])C([H])(N([H])C(=O)N4C([H])([H])C([H])([H])C([H])([H])C([H])(n5nc(-c6c([H])c([H])c(Oc7c([H])c([H])c(F)c([H])c7F)c([H])c6[H])c(C(=O)N([H])[H])c5N([H])[H])C4([H])[H])C([H])([H])[H])C3([H])[H])C([H])([H])[H])c([H])c([H])c2C1([H])[H]

>  <smiles>  (71) 
[H]c1c([H])c([H])c2c(c1[H])C([H])([H])C([H])([H])C([H])([H])C2([H])N([H])C(=O)C1([H])N(C(=O)C([H])(N([H])C(=O)C([H])(N([H])C([H])([H])[H])C([H])([H])[H])C(C([H])([H])[H])(C([H])([H])[H])C([H])([H])[H])C([H])([H])c2c([H])c(OC([H])([H])C([H])(N3C([H])([H])C([H])([N+]([H])([H])C([H])([H])C([H])(N([H])C(=O)N4C([H])([H])C([H])([H])C([H])([H])C([H])(n5nc(-c6c([H])c([H])c(Oc7c([H])c([H])c(F)c([H])c7F)c([H])c6[H])c(C(=O)N([H])[H])c5N([H])[H])C4([H])[H])C([H])([H])[H])C3([H])[H])C([H])([H])[H])c([H])c([H])c2C1([H])[H]

$$$$
72:0:0
     RDKit          3D

 93102  0  0  1  0  0  0  0  0999 V2000
  -28.4750  -21.0230   19.8980 C   0  0  0  0  0  3  0  0  0  0  0  0
  -30.4360  -22.0070   20.1140 C   0  0  0  0  0  0  0  0  0  0  0  0
  -29.0560  -22.2970   19.8510 C   0  0  0  0  0  0  0  0  0  0  0  0
  -30.6320  -20.6430   20.2510 C   0  0  0  0  0  0  0  0  0  0  0  0
  -31.6090  -22.9210   20.1980 C   0  0  0  0  0  0  0  0  0  0  0  0
  -31.9420  -19.9530   20.4990 C   0  0  0  0  0  2  0  0  0  0  0  0
  -32.9110  -22.3300   20.7410 C   0  0  0  0  0  2  0  0  0  0  0  0
  -33.1460  -20.8830   20.2670 C   0  0  0  0  0  2  0  0  0  0  0  0
  -29.4110  -19.9720   20.1330 N   0  0  0  0  0  0  0  0  0  0  0  0
  -31.5530  -24.1110   19.8820 O   0  0  0  0  0  0  0  0  0  0  0  0
  -28.4400  -23.7260   19.4610 C   0  0  0  0  0  2  0  0  0  0  0  0
  -28.2620  -24.9460   20.5060 C   0  0  0  0  0  2  0  0  0  0  0  0
  -28.3490  -26.3790   20.0710 O   0  0  0  0  0  0  0  0  0  0  0  0
  -24.5720  -31.7710   23.1460 C   0  0  0  0  0  0  0  0  0  0  0  0
  -27.2160  -27.2150   20.0860 C   0  0  0  0  0  0  0  0  0  0  0  0
  -23.3890  -30.3910   21.4750 C   0  0  0  0  0  3  0  0  0  0  0  0
  -24.8550  -28.8400   20.0590 C   0  0  0  0  0  0  0  0  0  0  0  0
  -25.9320  -30.7030   21.3260 C   0  0  0  0  0  2  0  0  0  0  0  0
  -26.0190  -29.3250   20.6710 C   0  0  0  0  0  0  0  0  0  0  0  0
  -27.2050  -28.5270   20.6650 C   0  0  0  0  0  3  0  0  0  0  0  0
  -26.0300  -26.7800   19.4640 C   0  0  0  0  0  3  0  0  0  0  0  0
  -24.8640  -27.5740   19.4480 C   0  0  0  0  0  3  0  0  0  0  0  0
  -23.6210  -29.7200   20.0950 C   0  0  0  0  0  2  0  0  0  0  0  0
  -24.6500  -30.9720   22.0410 N   0  0  0  0  0  0  0  0  0  0  0  0
  -23.4810  -32.0440   23.6680 O   0  0  0  0  0  0  0  0  0  0  0  0
  -22.7090  -29.3690   22.4190 C   0  0  0  0  0  0  0  0  0  0  0  0
  -21.3840  -29.1960   22.2720 N   0  0  0  0  0  0  0  0  0  0  0  0
  -23.3740  -28.7330   23.2410 O   0  0  0  0  0  0  0  0  0  0  0  0
  -20.9060  -29.7600   21.5830 H   0  0  0  0  0  0  0  0  0  0  0  0
  -17.9980  -28.0000   22.7140 C   0  0  0  0  0  0  0  0  0  0  0  0
  -20.5540  -28.2530   23.0220 C   0  0  0  0  0  3  0  0  0  0  0  0
  -20.6610  -26.8260   22.4330 C   0  0  0  0  0  2  0  0  0  0  0  0
  -19.5720  -26.5170   21.4010 C   0  0  0  0  0  2  0  0  0  0  0  0
  -18.1820  -26.6580   22.0270 C   0  0  0  0  0  2  0  0  0  0  0  0
  -19.1120  -28.7560   23.1690 C   0  0  0  0  0  0  0  0  0  0  0  0
  -18.8860  -30.0130   23.7710 C   0  0  0  0  0  3  0  0  0  0  0  0
  -17.5800  -30.5140   23.9240 C   0  0  0  0  0  3  0  0  0  0  0  0
  -16.4810  -29.7560   23.4840 C   0  0  0  0  0  3  0  0  0  0  0  0
  -16.6910  -28.5010   22.8870 C   0  0  0  0  0  3  0  0  0  0  0  0
  -25.8450  -32.3950   23.7940 C   0  0  0  0  0  3  0  0  0  0  0  0
  -26.3440  -31.6070   25.0670 C   0  0  1  0  0  0  0  0  0  0  0  0
  -25.2370  -31.3560   26.1170 C   0  0  0  0  0  1  0  0  0  0  0  0
  -26.9330  -30.2360   24.6650 C   0  0  0  0  0  1  0  0  0  0  0  0
  -27.4860  -32.3930   25.7550 C   0  0  0  0  0  1  0  0  0  0  0  0
  -25.5300  -33.7890   24.1420 N   0  0  0  0  0  0  0  0  0  0  0  0
  -25.8650  -34.8540   23.4030 C   0  0  0  0  0  0  0  0  0  0  0  0
  -26.5420  -34.7680   22.3730 O   0  0  0  0  0  0  0  0  0  0  0  0
  -24.9270  -33.9300   24.9400 H   0  0  0  0  0  0  0  0  0  0  0  0
  -24.1420  -36.6560   23.0600 C   0  0  0  0  0  1  0  0  0  0  0  0
  -25.3750  -36.2370   23.8780 C   0  0  0  0  0  3  0  0  0  0  0  0
  -27.4970  -37.1140   24.7490 C   0  0  0  0  0  1  0  0  0  0  0  0
  -26.4090  -37.2900   23.7900 N   0  0  0  0  0  0  0  0  0  0  0  0
  -26.0020  -38.2090   23.9400 H   0  0  0  0  0  0  0  0  0  0  0  0
  -29.0900  -18.4720   20.3090 C   0  0  0  0  0  3  0  0  0  0  0  0
  -30.1840  -17.2830   20.1120 C   0  0  0  0  0  3  0  0  0  0  0  0
  -30.5530  -14.6850   19.9670 C   0  0  0  0  0  0  0  0  0  0  0  0
  -30.3000  -12.4230   18.9500 C   0  0  0  0  0  2  0  0  0  0  0  0
  -29.2860  -12.5160   17.7890 C   0  0  0  0  0  2  0  0  0  0  0  0
  -27.8430  -12.3440   18.3060 C   0  0  0  0  0  2  0  0  0  0  0  0
  -27.5520  -13.2120   19.5600 C   0  0  0  0  0  3  0  0  0  0  0  0
  -28.6780  -13.1010   20.6080 C   0  0  0  0  0  2  0  0  0  0  0  0
  -29.9320  -13.4610   19.9380 N   0  0  0  0  0  0  0  0  0  0  0  0
  -31.7160  -14.7980   19.5680 O   0  0  0  0  0  0  0  0  0  0  0  0
  -29.7870  -15.8090   20.2350 N   0  0  0  0  0  0  0  0  0  0  0  0
  -28.8380  -15.6240   20.5300 H   0  0  0  0  0  0  0  0  0  0  0  0
  -25.2240  -13.8030   20.4590 C   0  0  0  0  0  0  0  0  0  0  0  0
  -24.1800  -13.0270   20.8820 C   0  0  0  0  0  0  0  0  0  0  0  0
  -24.6300  -11.6740   20.7880 C   0  0  0  0  0  0  0  0  0  0  0  0
  -26.2420  -12.9230   20.1320 N   0  0  0  0  0  0  0  0  0  0  0  0
  -25.8960  -11.6350   20.3930 N   0  0  0  0  0  0  0  0  0  0  0  0
  -23.9090  -10.4110   20.9950 C   0  0  0  0  0  0  0  0  0  0  0  0
  -24.3710   -9.4380   21.9090 C   0  0  0  0  0  3  0  0  0  0  0  0
  -23.6490   -8.2410   22.1030 C   0  0  0  0  0  3  0  0  0  0  0  0
  -22.4520   -8.0080   21.3850 C   0  0  0  0  0  0  0  0  0  0  0  0
  -22.0110   -8.9700   20.4590 C   0  0  0  0  0  3  0  0  0  0  0  0
  -22.7320  -10.1590   20.2630 C   0  0  0  0  0  3  0  0  0  0  0  0
  -21.6990   -6.8630   21.4900 O   0  0  0  0  0  0  0  0  0  0  0  0
  -21.6670   -6.1260   22.6460 C   0  0  0  0  0  0  0  0  0  0  0  0
  -21.2070   -6.6700   23.8650 C   0  0  0  0  0  3  0  0  0  0  0  0
  -21.1270   -5.8570   25.0130 C   0  0  0  0  0  3  0  0  0  0  0  0
  -21.4950   -4.4990   24.9440 C   0  0  0  0  0  0  0  0  0  0  0  0
  -21.9490   -3.9550   23.7300 C   0  0  0  0  0  3  0  0  0  0  0  0
  -22.0320   -4.7650   22.5840 C   0  0  0  0  0  0  0  0  0  0  0  0
  -22.4500   -4.2300   21.4110 F   0  0  0  0  0  0  0  0  0  0  0  0
  -21.4110   -3.7160   26.0450 F   0  0  0  0  0  0  0  0  0  0  0  0
  -22.8070  -13.5050   21.2540 C   0  0  0  0  0  0  0  0  0  0  0  0
  -22.1300  -12.7890   22.1450 N   0  0  0  0  0  0  0  0  0  0  0  0
  -22.3460  -14.5470   20.7900 O   0  0  0  0  0  0  0  0  0  0  0  0
  -22.5210  -11.9480   22.5420 H   0  0  0  0  0  0  0  0  0  0  0  0
  -21.2100  -13.0860   22.4320 H   0  0  0  0  0  0  0  0  0  0  0  0
  -25.3840  -15.1770   20.3010 N   0  0  0  0  0  0  0  0  0  0  0  0
  -24.6200  -15.8230   20.4700 H   0  0  0  0  0  0  0  0  0  0  0  0
  -26.1860  -15.6190   19.8720 H   0  0  0  0  0  0  0  0  0  0  0  0
  1  9  1  0
  2  5  1  0
  2  4  2  0
  3  1  2  0
  3  2  1  0
  4  6  1  0
  5  7  1  0
  8  6  1  0
  8  7  1  0
  9  4  1  0
  9 54  1  0
 10  5  2  0
 11  3  1  0
 11 12  1  0
 13 15  1  0
 13 12  1  0
 14 25  2  0
 15 20  1  0
 16 24  1  0
 16 26  1  0
 17 23  1  0
 17 19  1  0
 18 24  1  0
 19 18  1  0
 20 19  2  0
 21 15  2  0
 22 21  1  0
 22 17  2  0
 23 16  1  0
 24 14  1  0
 26 28  2  0
 27 26  1  0
 29 27  1  0
 30 39  2  0
 30 35  1  0
 31 27  1  0
 31 35  1  0
 32 31  1  0
 33 34  1  0
 33 32  1  0
 34 30  1  0
 35 36  2  0
 36 37  1  0
 38 37  2  0
 39 38  1  0
 40 14  1  0
 40 45  1  0
 40 41  1  0
 41 44  1  1
 41 42  1  0
 43 41  1  0
 45 48  1  0
 46 50  1  0
 46 45  1  0
 47 46  2  0
 50 49  1  0
 52 50  1  0
 52 53  1  0
 52 51  1  0
 55 64  1  0
 55 54  2  0
 56 64  1  0
 57 62  1  0
 58 59  1  0
 58 57  1  0
 60 59  1  0
 60 69  1  0
 60 61  1  0
 62 56  1  0
 62 61  1  0
 63 56  2  0
 64 65  1  0
 66 67  2  0
 67 86  1  0
 68 67  1  0
 68 71  1  0
 69 70  1  0
 69 66  1  0
 70 68  2  0
 71 72  1  0
 72 73  2  0
 74 77  1  0
 74 73  1  0
 75 74  2  0
 76 75  1  0
 76 71  2  0
 77 78  1  0
 78 79  1  0
 79 80  2  0
 81 80  1  0
 81 85  1  0
 82 81  2  0
 83 78  2  0
 83 82  1  0
 84 83  1  0
 86 87  1  0
 87 90  1  0
 87 89  1  0
 88 86  2  0
 91 66  1  0
 91 92  1  0
 93 91  1  0
M  ISO  4  12 101  13 101  56 100  64 100
M  END
>  <TORSDO>  (72) 
F 20

>  <SCORE>  (72) 
-13.576

>  <name>  (72) 
72

>  <ligand_id>  (72) 
72

>  <original_smiles>  (72) 
[H]c1c([H])c([H])c2c(c1[H])C([H])([H])C([H])([H])C([H])([H])C2([H])N([H])C(=O)C1([H])N(C(=O)C([H])(N([H])C(=O)C([H])(N([H])C([H])([H])[H])C([H])([H])[H])C(C([H])([H])[H])(C([H])([H])[H])C([H])([H])[H])C([H])([H])c2c([H])c(OC([H])([H])C([H])([H])c3c4c(n(C([H])([H])C([H])([H])N([H])C(=O)N5C([H])([H])C([H])([H])C([H])([H])C([H])(n6nc(-c7c([H])c([H])c(Oc8c([H])c([H])c(F)c([H])c8F)c([H])c7[H])c(C(=O)N([H])[H])c6N([H])[H])C5([H])[H])c3[H])C([H])([H])C([H])([H])C([H])([H])C4=O)c([H])c([H])c2C1([H])[H]

>  <smiles>  (72) 
[H]c1c([H])c([H])c2c(c1[H])C([H])([H])C([H])([H])C([H])([H])C2([H])N([H])C(=O)C1([H])N(C(=O)C([H])(N([H])C(=O)C([H])(N([H])C([H])([H])[H])C([H])([H])[H])C(C([H])([H])[H])(C([H])([H])[H])C([H])([H])[H])C([H])([H])c2c([H])c(OC([H])([H])C([H])([H])c3c4c(n(C([H])([H])C([H])([H])N([H])C(=O)N5C([H])([H])C([H])([H])C([H])([H])C([H])(n6nc(-c7c([H])c([H])c(Oc8c([H])c([H])c(F)c([H])c8F)c([H])c7[H])c(C(=O)N([H])[H])c6N([H])[H])C5([H])[H])c3[H])C([H])([H])C([H])([H])C([H])([H])C4=O)c([H])c([H])c2C1([H])[H]

$$$$
73:0:0
     RDKit          3D

 87 96  0  0  1  0  0  0  0  0999 V2000
  -30.2920  -15.7360   20.3000 C   0  0  0  0  0  0  0  0  0  0  0  0
  -30.3720  -13.1830   19.4720 C   0  0  0  0  0  2  0  0  0  0  0  0
  -29.4990  -12.7170   18.2750 C   0  0  0  0  0  2  0  0  0  0  0  0
  -28.0770  -12.3590   18.7310 C   0  0  0  0  0  2  0  0  0  0  0  0
  -27.5510  -13.3720   19.7720 C   0  0  0  0  0  3  0  0  0  0  0  0
  -28.5770  -13.7430   20.8710 C   0  0  0  0  0  2  0  0  0  0  0  0
  -29.7220  -14.3870   20.1760 N   0  0  0  0  0  0  0  0  0  0  0  0
  -31.5330  -15.5730   20.2690 O   0  0  0  0  0  0  0  0  0  0  0  0
  -29.1240  -22.3370   18.4480 C   0  0  0  0  0  3  0  0  0  0  0  0
  -29.4250  -21.2260   17.7300 C   0  0  0  0  0  2  0  0  0  0  0  0
  -28.7780  -22.0490   19.8030 C   0  0  0  0  0  0  0  0  0  0  0  0
  -29.0930  -20.4680   19.8690 C   0  0  0  0  0  0  0  0  0  0  0  0
  -29.2780  -18.7810   20.6370 C   0  0  0  0  0  3  0  0  0  0  0  0
  -29.4260  -18.7470   17.9650 C   0  0  0  0  0  3  0  0  0  0  0  0
  -30.2670  -17.6780   18.7340 C   0  0  0  0  0  3  0  0  0  0  0  0
  -29.3480  -20.1170   18.5340 N   0  0  0  0  0  0  0  0  0  0  0  0
  -29.6840  -17.1730   19.9980 N   0  0  0  0  0  0  0  0  0  0  0  0
  -25.1900  -13.8980   20.5260 C   0  0  0  0  0  0  0  0  0  0  0  0
  -24.1280  -13.1180   20.8830 C   0  0  0  0  0  0  0  0  0  0  0  0
  -24.6030  -11.7700   20.8690 C   0  0  0  0  0  0  0  0  0  0  0  0
  -26.2390  -13.0290   20.2960 N   0  0  0  0  0  0  0  0  0  0  0  0
  -25.9010  -11.7410   20.5700 N   0  0  0  0  0  0  0  0  0  0  0  0
  -23.8770  -10.5060   21.0550 C   0  0  0  0  0  0  0  0  0  0  0  0
  -24.3060   -9.5360   21.9880 C   0  0  0  0  0  3  0  0  0  0  0  0
  -23.5760   -8.3410   22.1670 C   0  0  0  0  0  3  0  0  0  0  0  0
  -22.4030   -8.1060   21.4100 C   0  0  0  0  0  0  0  0  0  0  0  0
  -21.9920   -9.0630   20.4660 C   0  0  0  0  0  3  0  0  0  0  0  0
  -22.7230  -10.2500   20.2870 C   0  0  0  0  0  3  0  0  0  0  0  0
  -21.6440   -6.9630   21.5000 O   0  0  0  0  0  0  0  0  0  0  0  0
  -21.6000   -6.2140   22.6490 C   0  0  0  0  0  0  0  0  0  0  0  0
  -21.1970   -6.7660   23.8840 C   0  0  0  0  0  3  0  0  0  0  0  0
  -21.1010   -5.9440   25.0250 C   0  0  0  0  0  3  0  0  0  0  0  0
  -21.3970   -4.5700   24.9300 C   0  0  0  0  0  0  0  0  0  0  0  0
  -21.7940   -4.0170   23.7000 C   0  0  0  0  0  3  0  0  0  0  0  0
  -21.8920   -4.8380   22.5610 C   0  0  0  0  0  0  0  0  0  0  0  0
  -22.2530   -4.2960   21.3730 F   0  0  0  0  0  0  0  0  0  0  0  0
  -21.2990   -3.7780   26.0230 F   0  0  0  0  0  0  0  0  0  0  0  0
  -22.7250  -13.5920   21.1240 C   0  0  0  0  0  0  0  0  0  0  0  0
  -21.9870  -12.9080   21.9910 N   0  0  0  0  0  0  0  0  0  0  0  0
  -22.2920  -14.6050   20.5760 O   0  0  0  0  0  0  0  0  0  0  0  0
  -22.3540  -12.0920   22.4610 H   0  0  0  0  0  0  0  0  0  0  0  0
  -21.0440  -13.2060   22.1910 H   0  0  0  0  0  0  0  0  0  0  0  0
  -25.3480  -15.2690   20.3440 N   0  0  0  0  0  0  0  0  0  0  0  0
  -24.5770  -15.9200   20.4440 H   0  0  0  0  0  0  0  0  0  0  0  0
  -26.2020  -15.7120   20.0280 H   0  0  0  0  0  0  0  0  0  0  0  0
  -28.1210  -23.7080   20.5060 C   0  0  0  0  0  2  0  0  0  0  0  0
  -28.2140  -25.4630   20.1740 O   0  0  0  0  0  0  0  0  0  0  0  0
  -24.6590  -31.8300   23.1260 C   0  0  0  0  0  0  0  0  0  0  0  0
  -27.2220  -26.6810   20.2100 C   0  0  0  0  0  0  0  0  0  0  0  0
  -23.4840  -30.3930   21.5180 C   0  0  0  0  0  3  0  0  0  0  0  0
  -24.9400  -28.7240   20.1370 C   0  0  0  0  0  0  0  0  0  0  0  0
  -26.0630  -30.5410   21.3930 C   0  0  0  0  0  2  0  0  0  0  0  0
  -26.1380  -29.0920   20.7600 C   0  0  0  0  0  0  0  0  0  0  0  0
  -27.2650  -28.1020   20.7540 C   0  0  0  0  0  3  0  0  0  0  0  0
  -25.9800  -26.5320   19.5400 C   0  0  0  0  0  3  0  0  0  0  0  0
  -24.9030  -27.4710   19.5040 C   0  0  0  0  0  3  0  0  0  0  0  0
  -23.7290  -29.6730   20.1610 C   0  0  0  0  0  2  0  0  0  0  0  0
  -24.7600  -30.9570   22.0640 N   0  0  0  0  0  0  0  0  0  0  0  0
  -23.5630  -32.1310   23.6310 O   0  0  0  0  0  0  0  0  0  0  0  0
  -22.7720  -29.4300   22.5070 C   0  0  0  0  0  0  0  0  0  0  0  0
  -21.4380  -29.2770   22.3970 N   0  0  0  0  0  0  0  0  0  0  0  0
  -23.4330  -28.8180   23.3490 O   0  0  0  0  0  0  0  0  0  0  0  0
  -20.9510  -29.8200   21.6960 H   0  0  0  0  0  0  0  0  0  0  0  0
  -18.0550  -28.0670   22.9560 C   0  0  0  0  0  0  0  0  0  0  0  0
  -20.6170  -28.3490   23.1870 C   0  0  0  0  0  3  0  0  0  0  0  0
  -20.7170  -26.9090   22.6320 C   0  0  0  0  0  2  0  0  0  0  0  0
  -19.6070  -26.5700   21.6310 C   0  0  0  0  0  2  0  0  0  0  0  0
  -18.2310  -26.7140   22.2880 C   0  0  0  0  0  2  0  0  0  0  0  0
  -19.1740  -28.8420   23.3620 C   0  0  0  0  0  0  0  0  0  0  0  0
  -18.9510  -30.1050   23.9520 C   0  0  0  0  0  3  0  0  0  0  0  0
  -17.6440  -30.5940   24.1380 C   0  0  0  0  0  3  0  0  0  0  0  0
  -16.5400  -29.8170   23.7420 C   0  0  0  0  0  3  0  0  0  0  0  0
  -16.7470  -28.5550   23.1560 C   0  0  0  0  0  3  0  0  0  0  0  0
  -25.9140  -32.5040   23.7560 C   0  0  0  0  0  3  0  0  0  0  0  0
  -25.5700  -33.8990   24.0990 N   0  0  0  0  0  0  0  0  0  0  0  0
  -25.8800  -34.9740   23.3630 C   0  0  0  0  0  0  0  0  0  0  0  0
  -26.5430  -34.8980   22.3250 O   0  0  0  0  0  0  0  0  0  0  0  0
  -24.9790  -34.0290   24.9060 H   0  0  0  0  0  0  0  0  0  0  0  0
  -24.1220  -36.7580   23.0690 C   0  0  0  0  0  1  0  0  0  0  0  0
  -25.3810  -36.3530   23.8520 C   0  0  0  0  0  3  0  0  0  0  0  0
  -27.5140  -37.2670   24.6610 C   0  0  0  0  0  1  0  0  0  0  0  0
  -26.3970  -37.4230   23.7340 N   0  0  0  0  0  0  0  0  0  0  0  0
  -25.9800  -38.3370   23.8890 H   0  0  0  0  0  0  0  0  0  0  0  0
  -26.4370  -31.7540   25.0450 C   0  0  1  0  0  0  0  0  0  0  0  0
  -25.3460  -31.5170   26.1170 C   0  0  0  0  0  1  0  0  0  0  0  0
  -27.0370  -30.3770   24.6840 C   0  0  0  0  0  1  0  0  0  0  0  0
  -27.5790  -32.5670   25.6980 C   0  0  0  0  0  1  0  0  0  0  0  0
  2  7  1  0
  3  4  1  0
  3  2  1  0
  5  4  1  0
  5 21  1  0
  5  6  1  0
  7  1  1  0
  7  6  1  0
  8  1  2  0
  9 11  2  0
 10  9  1  0
 10 16  1  0
 11 12  1  0
 11 46  1  0
 12 13  2  0
 14 16  1  0
 14 15  2  0
 15 17  1  0
 16 12  1  0
 17  1  1  0
 17 13  1  0
 18 19  2  0
 19 38  1  0
 20 19  1  0
 20 23  1  0
 21 18  1  0
 21 22  1  0
 22 20  2  0
 23 24  1  0
 24 25  2  0
 26 29  1  0
 26 25  1  0
 27 26  2  0
 28 27  1  0
 28 23  2  0
 29 30  1  0
 30 31  1  0
 31 32  2  0
 33 32  1  0
 33 37  1  0
 34 33  2  0
 35 30  2  0
 35 34  1  0
 36 35  1  0
 38 39  1  0
 39 42  1  0
 39 41  1  0
 40 38  2  0
 43 44  1  0
 43 18  1  0
 45 43  1  0
 47 49  1  0
 47 46  1  0
 48 59  2  0
 49 54  1  0
 50 58  1  0
 50 60  1  0
 51 57  1  0
 51 53  1  0
 52 58  1  0
 53 52  1  0
 54 53  2  0
 55 49  2  0
 56 55  1  0
 56 51  2  0
 57 50  1  0
 58 48  1  0
 60 62  2  0
 61 60  1  0
 63 61  1  0
 64 73  2  0
 64 69  1  0
 65 61  1  0
 65 69  1  0
 66 65  1  0
 67 68  1  0
 67 66  1  0
 68 64  1  0
 69 70  2  0
 70 71  1  0
 72 71  2  0
 73 72  1  0
 74 48  1  0
 74 75  1  0
 74 84  1  0
 75 78  1  0
 76 80  1  0
 76 75  1  0
 77 76  2  0
 80 79  1  0
 82 80  1  0
 82 83  1  0
 82 81  1  0
 84 87  1  1
 84 85  1  0
 86 84  1  0
M  ISO  4   1 100  17 100  46 101  47 101
M  END
>  <TORSDO>  (73) 
F 16

>  <SCORE>  (73) 
-16.491

>  <name>  (73) 
73

>  <ligand_id>  (73) 
73

>  <original_smiles>  (73) 
[H]c1c([H])c([H])c2c(c1[H])C([H])([H])C([H])([H])C([H])([H])C2([H])N([H])C(=O)C1([H])N(C(=O)C([H])(N([H])C(=O)C([H])(N([H])C([H])([H])[H])C([H])([H])[H])C(C([H])([H])[H])(C([H])([H])[H])C([H])([H])[H])C([H])([H])c2c([H])c(OC([H])([H])c3c([H])c([H])n4c3C([H])([H])N(C(=O)N3C([H])([H])C([H])([H])C([H])([H])C([H])(n5nc(-c6c([H])c([H])c(Oc7c([H])c([H])c(F)c([H])c7F)c([H])c6[H])c(C(=O)N([H])[H])c5N([H])[H])C3([H])[H])C([H])([H])C4([H])[H])c([H])c([H])c2C1([H])[H]

>  <smiles>  (73) 
[H]c1c([H])c([H])c2c(c1[H])C([H])([H])C([H])([H])C([H])([H])C2([H])N([H])C(=O)C1([H])N(C(=O)C([H])(N([H])C(=O)C([H])(N([H])C([H])([H])[H])C([H])([H])[H])C(C([H])([H])[H])(C([H])([H])[H])C([H])([H])[H])C([H])([H])c2c([H])c(OC([H])([H])c3c([H])c([H])n4c3C([H])([H])N(C(=O)N3C([H])([H])C([H])([H])C([H])([H])C([H])(n5nc(-c6c([H])c([H])c(Oc7c([H])c([H])c(F)c([H])c7F)c([H])c6[H])c(C(=O)N([H])[H])c5N([H])[H])C3([H])[H])C([H])([H])C4([H])[H])c([H])c([H])c2C1([H])[H]

$$$$
74:0:0
     RDKit          3D

 89 98  0  0  1  0  0  0  0  0999 V2000
  -30.6340  -14.9720   20.4090 C   0  0  0  0  0  0  0  0  0  0  0  0
  -30.4090  -12.6170   19.4960 C   0  0  0  0  0  2  0  0  0  0  0  0
  -29.5050  -12.5230   18.2510 C   0  0  0  0  0  2  0  0  0  0  0  0
  -28.0450  -12.3070   18.6780 C   0  0  0  0  0  2  0  0  0  0  0  0
  -27.6150  -13.2610   19.8240 C   0  0  0  0  0  3  0  0  0  0  0  0
  -28.6610  -13.3670   20.9550 C   0  0  0  0  0  2  0  0  0  0  0  0
  -29.9230  -13.7690   20.3230 N   0  0  0  0  0  0  0  0  0  0  0  0
  -31.8470  -14.8530   20.2080 O   0  0  0  0  0  0  0  0  0  0  0  0
  -30.3760  -21.9330   20.9860 C   0  0  0  0  0  3  0  0  0  0  0  0
  -29.9740  -23.2580   20.8670 C   0  0  0  0  0  3  0  0  0  0  0  0
  -29.3280  -21.0920   20.4900 C   0  0  0  0  0  0  0  0  0  0  0  0
  -30.7140  -18.9020   20.8210 C   0  0  0  0  0  3  0  0  0  0  0  0
  -28.4320  -18.5230   20.1990 C   0  0  0  0  0  3  0  0  0  0  0  0
  -30.9930  -17.4990   20.1000 C   0  0  0  0  0  3  0  0  0  0  0  0
  -28.7440  -16.9560   20.6480 C   0  0  0  0  0  3  0  0  0  0  0  0
  -28.3270  -21.9740   20.1020 N   0  0  0  0  0  0  0  0  0  0  0  0
  -28.7060  -23.3450   20.3200 N   0  0  0  0  0  0  0  0  0  0  0  0
  -29.4530  -19.5960   20.4560 N   0  0  0  0  0  0  0  0  0  0  0  0
  -30.1010  -16.3190   20.4090 N   0  0  0  0  0  0  0  0  0  0  0  0
  -25.2400  -13.8230   20.5750 C   0  0  0  0  0  0  0  0  0  0  0  0
  -24.1740  -13.0440   20.9250 C   0  0  0  0  0  0  0  0  0  0  0  0
  -24.6380  -11.6930   20.8770 C   0  0  0  0  0  0  0  0  0  0  0  0
  -26.2830  -12.9500   20.3250 N   0  0  0  0  0  0  0  0  0  0  0  0
  -25.9310  -11.6610   20.5760 N   0  0  0  0  0  0  0  0  0  0  0  0
  -23.9070  -10.4290   21.0420 C   0  0  0  0  0  0  0  0  0  0  0  0
  -24.3620   -9.4210   21.9190 C   0  0  0  0  0  3  0  0  0  0  0  0
  -23.6300   -8.2240   22.0760 C   0  0  0  0  0  3  0  0  0  0  0  0
  -22.4280   -8.0280   21.3550 C   0  0  0  0  0  0  0  0  0  0  0  0
  -21.9920   -9.0260   20.4650 C   0  0  0  0  0  3  0  0  0  0  0  0
  -22.7240  -10.2130   20.3070 C   0  0  0  0  0  3  0  0  0  0  0  0
  -21.6640   -6.8880   21.4240 O   0  0  0  0  0  0  0  0  0  0  0  0
  -21.6860   -6.0740   22.5280 C   0  0  0  0  0  0  0  0  0  0  0  0
  -21.4020   -6.5640   23.8210 C   0  0  0  0  0  3  0  0  0  0  0  0
  -21.3660   -5.6790   24.9170 C   0  0  0  0  0  3  0  0  0  0  0  0
  -21.6040   -4.3050   24.7220 C   0  0  0  0  0  0  0  0  0  0  0  0
  -21.8810   -3.8150   23.4340 C   0  0  0  0  0  3  0  0  0  0  0  0
  -21.9190   -4.6960   22.3400 C   0  0  0  0  0  0  0  0  0  0  0  0
  -22.1660   -4.2150   21.0980 F   0  0  0  0  0  0  0  0  0  0  0  0
  -21.5630   -3.4530   25.7740 F   0  0  0  0  0  0  0  0  0  0  0  0
  -22.7760  -13.5200   21.1890 C   0  0  0  0  0  0  0  0  0  0  0  0
  -22.0400  -12.8200   22.0440 N   0  0  0  0  0  0  0  0  0  0  0  0
  -22.3440  -14.5500   20.6730 O   0  0  0  0  0  0  0  0  0  0  0  0
  -22.4020  -11.9860   22.4850 H   0  0  0  0  0  0  0  0  0  0  0  0
  -21.1020  -13.1230   22.2650 H   0  0  0  0  0  0  0  0  0  0  0  0
  -25.4020  -15.1960   20.4180 N   0  0  0  0  0  0  0  0  0  0  0  0
  -24.6320  -15.8460   20.5370 H   0  0  0  0  0  0  0  0  0  0  0  0
  -26.2470  -15.6390   20.0850 H   0  0  0  0  0  0  0  0  0  0  0  0
  -27.8120  -24.6080   19.9690 C   0  0  0  0  0  2  0  0  0  0  0  0
  -28.2160  -26.0690   20.2330 O   0  0  0  0  0  0  0  0  0  0  0  0
  -24.6470  -31.8430   23.1890 C   0  0  0  0  0  0  0  0  0  0  0  0
  -27.2030  -27.1060   20.1460 C   0  0  0  0  0  0  0  0  0  0  0  0
  -23.4510  -30.4660   21.5350 C   0  0  0  0  0  3  0  0  0  0  0  0
  -24.8990  -28.8950   20.1070 C   0  0  0  0  0  0  0  0  0  0  0  0
  -26.0120  -30.7060   21.3950 C   0  0  0  0  0  2  0  0  0  0  0  0
  -26.0790  -29.3170   20.7320 C   0  0  0  0  0  0  0  0  0  0  0  0
  -27.2320  -28.4380   20.7380 C   0  0  0  0  0  3  0  0  0  0  0  0
  -25.9980  -26.8080   19.4670 C   0  0  0  0  0  3  0  0  0  0  0  0
  -24.8730  -27.6550   19.4590 C   0  0  0  0  0  3  0  0  0  0  0  0
  -23.6790  -29.8020   20.1530 C   0  0  0  0  0  2  0  0  0  0  0  0
  -24.7240  -31.0260   22.0940 N   0  0  0  0  0  0  0  0  0  0  0  0
  -23.5580  -32.1330   23.7080 O   0  0  0  0  0  0  0  0  0  0  0  0
  -22.7580  -29.4560   22.4840 C   0  0  0  0  0  0  0  0  0  0  0  0
  -21.4270  -29.3060   22.3580 N   0  0  0  0  0  0  0  0  0  0  0  0
  -23.4210  -28.8090   23.3000 O   0  0  0  0  0  0  0  0  0  0  0  0
  -20.9480  -29.8780   21.6770 H   0  0  0  0  0  0  0  0  0  0  0  0
  -18.0310  -28.1400   22.8480 C   0  0  0  0  0  0  0  0  0  0  0  0
  -20.5930  -28.3740   23.1220 C   0  0  0  0  0  3  0  0  0  0  0  0
  -20.6800  -26.9430   22.5400 C   0  0  0  0  0  2  0  0  0  0  0  0
  -19.5760  -26.6380   21.5210 C   0  0  0  0  0  2  0  0  0  0  0  0
  -18.1950  -26.7940   22.1620 C   0  0  0  0  0  2  0  0  0  0  0  0
  -19.1570  -28.8880   23.2840 C   0  0  0  0  0  0  0  0  0  0  0  0
  -18.9480  -30.1480   23.8870 C   0  0  0  0  0  3  0  0  0  0  0  0
  -17.6480  -30.6600   24.0560 C   0  0  0  0  0  3  0  0  0  0  0  0
  -16.5370  -29.9090   23.6340 C   0  0  0  0  0  3  0  0  0  0  0  0
  -16.7300  -28.6510   23.0360 C   0  0  0  0  0  3  0  0  0  0  0  0
  -25.9230  -32.4690   23.8280 C   0  0  0  0  0  3  0  0  0  0  0  0
  -25.5970  -33.8500   24.2190 N   0  0  0  0  0  0  0  0  0  0  0  0
  -25.9080  -34.9400   23.5060 C   0  0  0  0  0  0  0  0  0  0  0  0
  -26.5660  -34.8900   22.4640 O   0  0  0  0  0  0  0  0  0  0  0  0
  -25.0090  -33.9610   25.0320 H   0  0  0  0  0  0  0  0  0  0  0  0
  -24.1490  -36.7250   23.2640 C   0  0  0  0  0  1  0  0  0  0  0  0
  -25.4130  -36.3030   24.0320 C   0  0  0  0  0  3  0  0  0  0  0  0
  -27.5580  -37.1780   24.8460 C   0  0  0  0  0  1  0  0  0  0  0  0
  -26.4280  -37.3750   23.9410 N   0  0  0  0  0  0  0  0  0  0  0  0
  -26.0150  -38.2810   24.1420 H   0  0  0  0  0  0  0  0  0  0  0  0
  -26.4530  -31.6570   25.0730 C   0  0  1  0  0  0  0  0  0  0  0  0
  -25.3700  -31.3780   26.1420 C   0  0  0  0  0  1  0  0  0  0  0  0
  -27.0400  -30.2960   24.6360 C   0  0  0  0  0  1  0  0  0  0  0  0
  -27.6060  -32.4340   25.7520 C   0  0  0  0  0  1  0  0  0  0  0  0
  2  7  1  0
  3  4  1  0
  3  2  1  0
  5  4  1  0
  5 23  1  0
  5  6  1  0
  7  1  1  0
  7  6  1  0
  8  1  2  0
 10  9  2  0
 11  9  1  0
 13 18  1  0
 13 15  2  0
 14 19  1  0
 14 12  2  0
 16 17  1  0
 16 11  2  0
 17 10  1  0
 18 11  1  0
 18 12  1  0
 19  1  1  0
 19 15  1  0
 20 21  2  0
 21 40  1  0
 22 21  1  0
 22 25  1  0
 23 20  1  0
 23 24  1  0
 24 22  2  0
 25 26  1  0
 26 27  2  0
 28 31  1  0
 28 27  1  0
 29 28  2  0
 30 29  1  0
 30 25  2  0
 31 32  1  0
 32 33  1  0
 33 34  2  0
 35 34  1  0
 35 39  1  0
 36 35  2  0
 37 32  2  0
 37 36  1  0
 38 37  1  0
 40 41  1  0
 41 44  1  0
 41 43  1  0
 42 40  2  0
 45 46  1  0
 45 20  1  0
 47 45  1  0
 48 49  1  0
 48 17  1  0
 50 61  2  0
 51 49  1  0
 51 56  1  0
 52 60  1  0
 52 62  1  0
 53 59  1  0
 53 55  1  0
 54 60  1  0
 55 56  2  0
 55 54  1  0
 57 51  2  0
 58 57  1  0
 58 53  2  0
 59 52  1  0
 60 50  1  0
 62 64  2  0
 63 62  1  0
 65 63  1  0
 66 75  2  0
 66 71  1  0
 67 63  1  0
 67 71  1  0
 68 67  1  0
 69 70  1  0
 69 68  1  0
 70 66  1  0
 71 72  2  0
 72 73  1  0
 74 73  2  0
 75 74  1  0
 76 50  1  0
 76 77  1  0
 76 86  1  0
 77 80  1  0
 78 82  1  0
 78 77  1  0
 79 78  2  0
 82 81  1  0
 84 82  1  0
 84 85  1  0
 84 83  1  0
 86 89  1  1
 86 87  1  0
 88 86  1  0
M  ISO  4   1 100  19 100  48 101  49 101
M  END
>  <TORSDO>  (74) 
F 16

>  <SCORE>  (74) 
-15.523

>  <name>  (74) 
74

>  <ligand_id>  (74) 
74

>  <original_smiles>  (74) 
[H]c1c([H])c([H])c2c(c1[H])C([H])([H])C([H])([H])C([H])([H])C2([H])N([H])C(=O)C1([H])N(C(=O)C([H])(N([H])C(=O)C([H])(N([H])C([H])([H])[H])C([H])([H])[H])C(C([H])([H])[H])(C([H])([H])[H])C([H])([H])[H])C([H])([H])c2c([H])c(OC([H])([H])n3nc(N4C([H])([H])C([H])([H])N(C(=O)N5C([H])([H])C([H])([H])C([H])([H])C([H])(n6nc(-c7c([H])c([H])c(Oc8c([H])c([H])c(F)c([H])c8F)c([H])c7[H])c(C(=O)N([H])[H])c6N([H])[H])C5([H])[H])C([H])([H])C4([H])[H])c([H])c3[H])c([H])c([H])c2C1([H])[H]

>  <smiles>  (74) 
[H]c1c([H])c([H])c2c(c1[H])C([H])([H])C([H])([H])C([H])([H])C2([H])N([H])C(=O)C1([H])N(C(=O)C([H])(N([H])C(=O)C([H])(N([H])C([H])([H])[H])C([H])([H])[H])C(C([H])([H])[H])(C([H])([H])[H])C([H])([H])[H])C([H])([H])c2c([H])c(OC([H])([H])n3nc(N4C([H])([H])C([H])([H])N(C(=O)N5C([H])([H])C([H])([H])C([H])([H])C([H])(n6nc(-c7c([H])c([H])c(Oc8c([H])c([H])c(F)c([H])c8F)c([H])c7[H])c(C(=O)N([H])[H])c6N([H])[H])C5([H])[H])C([H])([H])C4([H])[H])c([H])c3[H])c([H])c([H])c2C1([H])[H]

$$$$
75:0:0
     RDKit          3D

 90 99  0  0  1  0  0  0  0  0999 V2000
  -29.4740  -23.5390   20.8020 C   0  0  0  0  0  2  0  0  0  0  0  0
  -27.6630  -23.1460   19.8720 C   0  0  0  0  0  2  0  0  0  0  0  0
  -28.9860  -22.2000   20.0230 C   0  0  0  0  0  3  0  0  0  0  0  0
  -28.1820  -24.4970   20.6230 C   0  0  0  0  0  3  0  0  0  0  0  0
  -29.1380  -20.7120   20.7070 N   0  0  0  0  0  4  0  0  0  0  0  0
  -28.5280  -20.7080   21.5080 H   0  0  0  0  0  0  0  0  0  0  0  0
  -30.0650  -20.7400   21.0980 H   0  0  0  0  0  0  0  0  0  0  0  0
  -30.4730  -15.1910   20.1970 C   0  0  0  0  0  0  0  0  0  0  0  0
  -30.3730  -12.7940   19.2780 C   0  0  0  0  0  2  0  0  0  0  0  0
  -29.4130  -12.6470   18.0750 C   0  0  0  0  0  2  0  0  0  0  0  0
  -27.9720  -12.3970   18.5580 C   0  0  0  0  0  2  0  0  0  0  0  0
  -27.5680  -13.3430   19.7190 C   0  0  0  0  0  3  0  0  0  0  0  0
  -28.6530  -13.4480   20.8090 C   0  0  0  0  0  2  0  0  0  0  0  0
  -29.8700  -13.9190   20.1340 N   0  0  0  0  0  0  0  0  0  0  0  0
  -31.6970  -15.1760   20.0000 O   0  0  0  0  0  0  0  0  0  0  0  0
  -29.7600  -17.1590   18.7550 C   0  0  0  0  0  2  0  0  0  0  0  0
  -29.5870  -17.7810   20.9300 C   0  0  0  0  0  2  0  0  0  0  0  0
  -29.8300  -18.7550   18.8470 C   0  0  0  0  0  3  0  0  0  0  0  0
  -29.0720  -19.1780   20.1210 C   0  0  0  0  0  3  0  0  0  0  0  0
  -29.3080  -19.4040   17.5550 C   0  0  0  0  0  1  0  0  0  0  0  0
  -29.7360  -16.4560   20.0720 N   0  0  0  0  0  0  0  0  0  0  0  0
  -25.2240  -13.8930   20.5580 C   0  0  0  0  0  0  0  0  0  0  0  0
  -24.1730  -13.1090   20.9450 C   0  0  0  0  0  0  0  0  0  0  0  0
  -24.6400  -11.7600   20.8790 C   0  0  0  0  0  0  0  0  0  0  0  0
  -26.2570  -13.0220   20.2660 N   0  0  0  0  0  0  0  0  0  0  0  0
  -25.9210  -11.7330   20.5290 N   0  0  0  0  0  0  0  0  0  0  0  0
  -23.9200  -10.4940   21.0700 C   0  0  0  0  0  0  0  0  0  0  0  0
  -24.3720   -9.5170   21.9840 C   0  0  0  0  0  3  0  0  0  0  0  0
  -23.6490   -8.3180   22.1650 C   0  0  0  0  0  3  0  0  0  0  0  0
  -22.4610   -8.0860   21.4310 C   0  0  0  0  0  0  0  0  0  0  0  0
  -22.0280   -9.0520   20.5060 C   0  0  0  0  0  3  0  0  0  0  0  0
  -22.7510  -10.2430   20.3230 C   0  0  0  0  0  3  0  0  0  0  0  0
  -21.7090   -6.9400   21.5230 O   0  0  0  0  0  0  0  0  0  0  0  0
  -21.6750   -6.1920   22.6720 C   0  0  0  0  0  0  0  0  0  0  0  0
  -21.2460   -6.7340   23.9030 C   0  0  0  0  0  3  0  0  0  0  0  0
  -21.1600   -5.9100   25.0430 C   0  0  0  0  0  3  0  0  0  0  0  0
  -21.4920   -4.5450   24.9540 C   0  0  0  0  0  0  0  0  0  0  0  0
  -21.9150   -4.0030   23.7270 C   0  0  0  0  0  3  0  0  0  0  0  0
  -22.0020   -4.8230   22.5900 C   0  0  0  0  0  0  0  0  0  0  0  0
  -22.3890   -4.2900   21.4060 F   0  0  0  0  0  0  0  0  0  0  0  0
  -21.4030   -3.7530   26.0480 F   0  0  0  0  0  0  0  0  0  0  0  0
  -22.7840  -13.5800   21.2610 C   0  0  0  0  0  0  0  0  0  0  0  0
  -22.0790  -12.8680   22.1320 N   0  0  0  0  0  0  0  0  0  0  0  0
  -22.3340  -14.6150   20.7700 O   0  0  0  0  0  0  0  0  0  0  0  0
  -22.4570  -12.0310   22.5510 H   0  0  0  0  0  0  0  0  0  0  0  0
  -21.1480  -13.1640   22.3860 H   0  0  0  0  0  0  0  0  0  0  0  0
  -25.3830  -15.2670   20.3990 N   0  0  0  0  0  0  0  0  0  0  0  0
  -24.6220  -15.9210   20.5510 H   0  0  0  0  0  0  0  0  0  0  0  0
  -26.2280  -15.7120   20.0650 H   0  0  0  0  0  0  0  0  0  0  0  0
  -28.2740  -26.0630   20.2450 O   0  0  0  0  0  0  0  0  0  0  0  0
  -24.6270  -31.8820   23.2440 C   0  0  0  0  0  0  0  0  0  0  0  0
  -27.2100  -27.0710   20.2590 C   0  0  0  0  0  0  0  0  0  0  0  0
  -23.4360  -30.4770   21.6080 C   0  0  0  0  0  3  0  0  0  0  0  0
  -24.8900  -28.8770   20.2010 C   0  0  0  0  0  0  0  0  0  0  0  0
  -25.9960  -30.7210   21.4540 C   0  0  0  0  0  2  0  0  0  0  0  0
  -26.0730  -29.3140   20.8110 C   0  0  0  0  0  0  0  0  0  0  0  0
  -27.2330  -28.4330   20.8080 C   0  0  0  0  0  3  0  0  0  0  0  0
  -25.9950  -26.7520   19.6190 C   0  0  0  0  0  3  0  0  0  0  0  0
  -24.8690  -27.6130   19.5860 C   0  0  0  0  0  3  0  0  0  0  0  0
  -23.6670  -29.7860   20.2360 C   0  0  0  0  0  2  0  0  0  0  0  0
  -24.7070  -31.0520   22.1560 N   0  0  0  0  0  0  0  0  0  0  0  0
  -23.5370  -32.1680   23.7650 O   0  0  0  0  0  0  0  0  0  0  0  0
  -22.7500  -29.4790   22.5750 C   0  0  0  0  0  0  0  0  0  0  0  0
  -21.4220  -29.3070   22.4470 N   0  0  0  0  0  0  0  0  0  0  0  0
  -23.4180  -28.8590   23.4070 O   0  0  0  0  0  0  0  0  0  0  0  0
  -20.9380  -29.8580   21.7530 H   0  0  0  0  0  0  0  0  0  0  0  0
  -18.0400  -28.1010   22.9550 C   0  0  0  0  0  0  0  0  0  0  0  0
  -20.6000  -28.3710   23.2200 C   0  0  0  0  0  3  0  0  0  0  0  0
  -20.7030  -26.9370   22.6490 C   0  0  0  0  0  2  0  0  0  0  0  0
  -19.6010  -26.6110   21.6350 C   0  0  0  0  0  2  0  0  0  0  0  0
  -18.2200  -26.7520   22.2790 C   0  0  0  0  0  2  0  0  0  0  0  0
  -19.1570  -28.8680   23.3830 C   0  0  0  0  0  0  0  0  0  0  0  0
  -18.9340  -30.1280   23.9780 C   0  0  0  0  0  3  0  0  0  0  0  0
  -17.6270  -30.6230   24.1490 C   0  0  0  0  0  3  0  0  0  0  0  0
  -16.5250  -29.8550   23.7350 C   0  0  0  0  0  3  0  0  0  0  0  0
  -16.7330  -28.5950   23.1450 C   0  0  0  0  0  3  0  0  0  0  0  0
  -25.8980  -32.5270   23.8750 C   0  0  0  0  0  3  0  0  0  0  0  0
  -25.5810  -33.9300   24.1950 N   0  0  0  0  0  0  0  0  0  0  0  0
  -25.9220  -34.9830   23.4400 C   0  0  0  0  0  0  0  0  0  0  0  0
  -26.6000  -34.8770   22.4150 O   0  0  0  0  0  0  0  0  0  0  0  0
  -24.9790  -34.0850   24.9890 H   0  0  0  0  0  0  0  0  0  0  0  0
  -24.2070  -36.7900   23.0680 C   0  0  0  0  0  1  0  0  0  0  0  0
  -25.4370  -36.3750   23.8940 C   0  0  0  0  0  3  0  0  0  0  0  0
  -27.5620  -37.2550   24.7540 C   0  0  0  0  0  1  0  0  0  0  0  0
  -26.4750  -37.4240   23.7930 N   0  0  0  0  0  0  0  0  0  0  0  0
  -26.0710  -38.3470   23.9310 H   0  0  0  0  0  0  0  0  0  0  0  0
  -26.3970  -31.7740   25.1690 C   0  0  1  0  0  0  0  0  0  0  0  0
  -25.2910  -31.5520   26.2280 C   0  0  0  0  0  1  0  0  0  0  0  0
  -26.9840  -30.3900   24.8100 C   0  0  0  0  0  1  0  0  0  0  0  0
  -27.5410  -32.5760   25.8340 C   0  0  0  0  0  1  0  0  0  0  0  0
  2  3  1  0
  2  4  1  0
  3  5  1  0
  3  1  1  0
  4 50  1  0
  4  1  1  0
  5  7  1  0
  5  6  1  0
  9 14  1  0
 10 11  1  0
 10  9  1  0
 12 11  1  0
 12 25  1  0
 12 13  1  0
 14  8  1  0
 14 13  1  0
 15  8  2  0
 16 18  1  0
 16 21  1  0
 18 20  1  0
 18 19  1  0
 19  5  1  0
 19 17  1  0
 21  8  1  0
 21 17  1  0
 22 23  2  0
 23 42  1  0
 24 23  1  0
 24 27  1  0
 25 26  1  0
 25 22  1  0
 26 24  2  0
 27 28  1  0
 28 29  2  0
 30 33  1  0
 30 29  1  0
 31 30  2  0
 32 31  1  0
 32 27  2  0
 33 34  1  0
 34 35  1  0
 35 36  2  0
 37 36  1  0
 37 41  1  0
 38 37  2  0
 39 34  2  0
 39 38  1  0
 40 39  1  0
 42 43  1  0
 43 46  1  0
 43 45  1  0
 44 42  2  0
 47 48  1  0
 47 22  1  0
 49 47  1  0
 50 52  1  0
 51 62  2  0
 52 57  1  0
 53 61  1  0
 53 63  1  0
 54 60  1  0
 54 56  1  0
 55 61  1  0
 56 55  1  0
 57 56  2  0
 58 52  2  0
 59 58  1  0
 59 54  2  0
 60 53  1  0
 61 51  1  0
 63 65  2  0
 64 63  1  0
 66 64  1  0
 67 76  2  0
 67 72  1  0
 68 64  1  0
 68 72  1  0
 69 68  1  0
 70 71  1  0
 70 69  1  0
 71 67  1  0
 72 73  2  0
 73 74  1  0
 75 74  2  0
 76 75  1  0
 77 51  1  0
 77 78  1  0
 77 87  1  0
 78 81  1  0
 79 83  1  0
 79 78  1  0
 80 79  2  0
 83 82  1  0
 85 83  1  0
 85 86  1  0
 85 84  1  0
 87 90  1  1
 87 88  1  0
 89 87  1  0
M  ISO  4   4 101   8 100  21 100  50 101
M  END
>  <TORSDO>  (75) 
F 17

>  <SCORE>  (75) 
-15.009

>  <name>  (75) 
75

>  <ligand_id>  (75) 
75

>  <original_smiles>  (75) 
[H]c1c([H])c([H])c2c(c1[H])C([H])([H])C([H])([H])C([H])([H])C2([H])N([H])C(=O)C1([H])N(C(=O)C([H])(N([H])C(=O)C([H])(N([H])C([H])([H])[H])C([H])([H])[H])C(C([H])([H])[H])(C([H])([H])[H])C([H])([H])[H])C([H])([H])c2c([H])c(OC3([H])C([H])([H])C([H])([N+]([H])([H])C4([H])C([H])([H])N(C(=O)N5C([H])([H])C([H])([H])C([H])([H])C([H])(n6nc(-c7c([H])c([H])c(Oc8c([H])c([H])c(F)c([H])c8F)c([H])c7[H])c(C(=O)N([H])[H])c6N([H])[H])C5([H])[H])C([H])([H])C4([H])C([H])([H])[H])C3([H])[H])c([H])c([H])c2C1([H])[H]

>  <smiles>  (75) 
[H]c1c([H])c([H])c2c(c1[H])C([H])([H])C([H])([H])C([H])([H])C2([H])N([H])C(=O)C1([H])N(C(=O)C([H])(N([H])C(=O)C([H])(N([H])C([H])([H])[H])C([H])([H])[H])C(C([H])([H])[H])(C([H])([H])[H])C([H])([H])[H])C([H])([H])c2c([H])c(OC3([H])C([H])([H])C([H])([N+]([H])([H])C4([H])C([H])([H])N(C(=O)N5C([H])([H])C([H])([H])C([H])([H])C([H])(n6nc(-c7c([H])c([H])c(Oc8c([H])c([H])c(F)c([H])c8F)c([H])c7[H])c(C(=O)N([H])[H])c6N([H])[H])C5([H])[H])C([H])([H])C4([H])C([H])([H])[H])C3([H])[H])c([H])c([H])c2C1([H])[H]

$$$$
76:0:0
     RDKit          3D

 92102  0  0  1  0  0  0  0  0999 V2000
  -27.9330  -22.5690   19.0170 C   0  0  0  0  0  3  0  0  0  0  0  0
  -28.5780  -21.7150   19.9740 C   0  0  0  0  0  0  0  0  0  0  0  0
  -28.8630  -22.5000   21.1370 C   0  0  0  0  0  3  0  0  0  0  0  0
  -27.9630  -24.5680   20.3000 C   0  0  0  0  0  0  0  0  0  0  0  0
  -27.6620  -23.9240   19.1570 N   0  0  0  0  0  0  0  0  0  0  0  0
  -28.5630  -23.8510   21.2720 N   0  0  0  0  0  0  0  0  0  0  0  0
  -30.5960  -22.7060   23.1170 C   0  0  0  0  0  2  0  0  0  0  0  0
  -31.0700  -21.6010   22.2110 C   0  0  0  0  0  2  0  0  0  0  0  0
  -29.5900  -21.9070   22.3090 C   0  0  0  0  0  3  0  0  0  0  0  0
  -28.0140  -26.0030   20.3830 O   0  0  0  0  0  0  0  0  0  0  0  0
  -24.4480  -31.7550   23.2470 C   0  0  0  0  0  0  0  0  0  0  0  0
  -26.9170  -26.9330   20.3260 C   0  0  0  0  0  0  0  0  0  0  0  0
  -23.2210  -30.3710   21.6100 C   0  0  0  0  0  3  0  0  0  0  0  0
  -24.6360  -28.7250   20.2320 C   0  0  0  0  0  0  0  0  0  0  0  0
  -25.7800  -30.5640   21.4700 C   0  0  0  0  0  2  0  0  0  0  0  0
  -25.8150  -29.1570   20.8480 C   0  0  0  0  0  0  0  0  0  0  0  0
  -26.9540  -28.2740   20.8800 C   0  0  0  0  0  3  0  0  0  0  0  0
  -25.7210  -26.5970   19.6580 C   0  0  0  0  0  3  0  0  0  0  0  0
  -24.6000  -27.4600   19.6210 C   0  0  0  0  0  3  0  0  0  0  0  0
  -23.4360  -29.6600   20.2450 C   0  0  0  0  0  2  0  0  0  0  0  0
  -24.5020  -30.9200   22.1640 N   0  0  0  0  0  0  0  0  0  0  0  0
  -23.3660  -32.0810   23.7610 O   0  0  0  0  0  0  0  0  0  0  0  0
  -22.5060  -29.4020   22.5830 C   0  0  0  0  0  0  0  0  0  0  0  0
  -21.1760  -29.2670   22.4420 N   0  0  0  0  0  0  0  0  0  0  0  0
  -23.1490  -28.7720   23.4260 O   0  0  0  0  0  0  0  0  0  0  0  0
  -20.7160  -29.8270   21.7380 H   0  0  0  0  0  0  0  0  0  0  0  0
  -17.7490  -28.2080   22.9540 C   0  0  0  0  0  0  0  0  0  0  0  0
  -20.3170  -28.3670   23.2170 C   0  0  0  0  0  3  0  0  0  0  0  0
  -20.3590  -26.9290   22.6490 C   0  0  0  0  0  2  0  0  0  0  0  0
  -19.2450  -26.6480   21.6350 C   0  0  0  0  0  2  0  0  0  0  0  0
  -17.8720  -26.8510   22.2790 C   0  0  0  0  0  2  0  0  0  0  0  0
  -18.8980  -28.9280   23.3780 C   0  0  0  0  0  0  0  0  0  0  0  0
  -18.7280  -30.1990   23.9650 C   0  0  0  0  0  3  0  0  0  0  0  0
  -17.4440  -30.7510   24.1330 C   0  0  0  0  0  3  0  0  0  0  0  0
  -16.3100  -30.0270   23.7230 C   0  0  0  0  0  3  0  0  0  0  0  0
  -16.4640  -28.7570   23.1380 C   0  0  0  0  0  3  0  0  0  0  0  0
  -25.7400  -32.3610   23.8780 C   0  0  0  0  0  3  0  0  0  0  0  0
  -25.4690  -33.7750   24.1890 N   0  0  0  0  0  0  0  0  0  0  0  0
  -25.8110  -34.8090   23.4080 C   0  0  0  0  0  0  0  0  0  0  0  0
  -26.4570  -34.6720   22.3660 O   0  0  0  0  0  0  0  0  0  0  0  0
  -24.9120  -33.9560   25.0090 H   0  0  0  0  0  0  0  0  0  0  0  0
  -24.1130  -36.6340   23.0660 C   0  0  0  0  0  1  0  0  0  0  0  0
  -25.3660  -36.2150   23.8530 C   0  0  0  0  0  3  0  0  0  0  0  0
  -27.5300  -37.0800   24.6260 C   0  0  0  0  0  1  0  0  0  0  0  0
  -26.4160  -37.2430   23.6960 N   0  0  0  0  0  0  0  0  0  0  0  0
  -26.0320  -38.1750   23.8200 H   0  0  0  0  0  0  0  0  0  0  0  0
  -26.2160  -31.5960   25.1770 C   0  0  1  0  0  0  0  0  0  0  0  0
  -25.1010  -31.3920   26.2270 C   0  0  0  0  0  1  0  0  0  0  0  0
  -26.7760  -30.2000   24.8170 C   0  0  0  0  0  1  0  0  0  0  0  0
  -27.3730  -32.3730   25.8500 C   0  0  0  0  0  1  0  0  0  0  0  0
  -29.1790  -20.2150   19.5840 C   0  0  0  0  0  2  0  0  0  0  0  0
  -30.3520  -14.7960   19.9110 C   0  0  0  0  0  0  0  0  0  0  0  0
  -30.1530  -12.4550   18.9290 C   0  0  0  0  0  2  0  0  0  0  0  0
  -29.1270  -12.3740   17.7760 C   0  0  0  0  0  2  0  0  0  0  0  0
  -27.7180  -12.0990   18.3290 C   0  0  0  0  0  2  0  0  0  0  0  0
  -27.3820  -13.0140   19.5330 C   0  0  0  0  0  3  0  0  0  0  0  0
  -28.5270  -13.0730   20.5690 C   0  0  0  0  0  2  0  0  0  0  0  0
  -29.7210  -13.5450   19.8580 N   0  0  0  0  0  0  0  0  0  0  0  0
  -31.5300  -14.8100   19.5280 O   0  0  0  0  0  0  0  0  0  0  0  0
  -27.9610  -17.8810   20.5020 C   0  0  0  0  0  2  0  0  0  0  0  0
  -28.3520  -16.3600   20.6960 C   0  0  0  0  0  2  0  0  0  0  0  0
  -30.1710  -17.4940   19.7960 C   0  0  0  0  0  2  0  0  0  0  0  0
  -29.2440  -18.7240   20.3720 C   0  0  0  0  0  3  0  0  0  0  0  0
  -29.6730  -16.0600   20.1060 N   0  0  0  0  0  0  0  0  0  0  0  0
  -25.0820  -13.5440   20.5310 C   0  0  0  0  0  0  0  0  0  0  0  0
  -24.0610  -12.7450   20.9570 C   0  0  0  0  0  0  0  0  0  0  0  0
  -24.5220  -11.4030   20.8090 C   0  0  0  0  0  0  0  0  0  0  0  0
  -26.1010  -12.6880   20.1440 N   0  0  0  0  0  0  0  0  0  0  0  0
  -25.7790  -11.3890   20.3810 N   0  0  0  0  0  0  0  0  0  0  0  0
  -23.8170  -10.1310   20.9930 C   0  0  0  0  0  0  0  0  0  0  0  0
  -24.2610   -9.1700   21.9290 C   0  0  0  0  0  3  0  0  0  0  0  0
  -23.5530   -7.9620   22.1000 C   0  0  0  0  0  3  0  0  0  0  0  0
  -22.3880   -7.7070   21.3370 C   0  0  0  0  0  0  0  0  0  0  0  0
  -21.9670   -8.6560   20.3890 C   0  0  0  0  0  3  0  0  0  0  0  0
  -22.6740   -9.8560   20.2170 C   0  0  0  0  0  3  0  0  0  0  0  0
  -21.6500   -6.5500   21.4170 O   0  0  0  0  0  0  0  0  0  0  0  0
  -21.5310   -5.8580   22.5940 C   0  0  0  0  0  0  0  0  0  0  0  0
  -20.9340   -6.4310   23.7380 C   0  0  0  0  0  3  0  0  0  0  0  0
  -20.7690   -5.6600   24.9060 C   0  0  0  0  0  3  0  0  0  0  0  0
  -21.1870   -4.3160   24.9290 C   0  0  0  0  0  0  0  0  0  0  0  0
  -21.7730   -3.7410   23.7870 C   0  0  0  0  0  3  0  0  0  0  0  0
  -21.9420   -4.5100   22.6220 C   0  0  0  0  0  0  0  0  0  0  0  0
  -22.4900   -3.9490   21.5180 F   0  0  0  0  0  0  0  0  0  0  0  0
  -21.0210   -3.5710   26.0470 F   0  0  0  0  0  0  0  0  0  0  0  0
  -22.6940  -13.2030   21.3790 C   0  0  0  0  0  0  0  0  0  0  0  0
  -22.0450  -12.4590   22.2650 N   0  0  0  0  0  0  0  0  0  0  0  0
  -22.2170  -14.2560   20.9570 O   0  0  0  0  0  0  0  0  0  0  0  0
  -22.4470  -11.6080   22.6270 H   0  0  0  0  0  0  0  0  0  0  0  0
  -21.1350  -12.7510   22.5940 H   0  0  0  0  0  0  0  0  0  0  0  0
  -25.2060  -14.9230   20.4150 N   0  0  0  0  0  0  0  0  0  0  0  0
  -24.4390  -15.5460   20.6420 H   0  0  0  0  0  0  0  0  0  0  0  0
  -26.0100  -15.4050   20.0360 H   0  0  0  0  0  0  0  0  0  0  0  0
  1  5  1  0
  1  2  2  0
  2  3  1  0
  3  6  1  0
  3  9  1  0
  4 10  1  0
  4  6  2  0
  5  4  2  0
  8  9  1  0
  8  7  1  0
  9  7  1  0
 11 22  2  0
 12 10  1  0
 12 17  1  0
 13 21  1  0
 13 23  1  0
 14 20  1  0
 14 16  1  0
 15 21  1  0
 16 17  2  0
 16 15  1  0
 18 12  2  0
 19 18  1  0
 19 14  2  0
 20 13  1  0
 21 11  1  0
 23 25  2  0
 24 23  1  0
 26 24  1  0
 27 36  2  0
 27 32  1  0
 28 24  1  0
 28 32  1  0
 29 28  1  0
 30 31  1  0
 30 29  1  0
 31 27  1  0
 32 33  2  0
 33 34  1  0
 35 34  2  0
 36 35  1  0
 37 11  1  0
 37 38  1  0
 37 47  1  0
 38 41  1  0
 39 43  1  0
 39 38  1  0
 40 39  2  0
 43 42  1  0
 45 46  1  0
 45 43  1  0
 45 44  1  0
 47 50  1  1
 47 48  1  0
 49 47  1  0
 51  2  1  0
 52 64  1  0
 53 58  1  0
 54 55  1  0
 54 53  1  0
 56 55  1  0
 56 68  1  0
 56 57  1  0
 58 52  1  0
 58 57  1  0
 59 52  2  0
 60 61  1  0
 62 64  1  0
 62 63  1  0
 63 51  1  0
 63 60  1  0
 64 61  1  0
 65 66  2  0
 66 85  1  0
 67 66  1  0
 67 70  1  0
 68 69  1  0
 68 65  1  0
 69 67  2  0
 70 71  1  0
 71 72  2  0
 73 76  1  0
 73 72  1  0
 74 73  2  0
 75 74  1  0
 75 70  2  0
 76 77  1  0
 77 82  2  0
 77 78  1  0
 78 79  2  0
 79 80  1  0
 80 84  1  0
 81 80  2  0
 82 81  1  0
 83 82  1  0
 85 86  1  0
 86 89  1  0
 86 88  1  0
 87 85  2  0
 90 65  1  0
 90 91  1  0
 92 90  1  0
M  ISO  4   4 101  10 101  52 100  64 100
M  END
>  <TORSDO>  (76) 
F 18

>  <SCORE>  (76) 
-13.841

>  <name>  (76) 
76

>  <ligand_id>  (76) 
76

>  <original_smiles>  (76) 
[H]c1nc(Oc2c([H])c([H])c3c(c2[H])C([H])([H])N(C(=O)C([H])(N([H])C(=O)C([H])(N([H])C([H])([H])[H])C([H])([H])[H])C(C([H])([H])[H])(C([H])([H])[H])C([H])([H])[H])C([H])(C(=O)N([H])C2([H])c4c([H])c([H])c([H])c([H])c4C([H])([H])C([H])([H])C2([H])[H])C3([H])[H])nc(C2([H])C([H])([H])C2([H])[H])c1C([H])([H])C1([H])C([H])([H])N(C(=O)N2C([H])([H])C([H])([H])C([H])([H])C([H])(n3nc(-c4c([H])c([H])c(Oc5c([H])c([H])c(F)c([H])c5F)c([H])c4[H])c(C(=O)N([H])[H])c3N([H])[H])C2([H])[H])C([H])([H])C1([H])[H]

>  <smiles>  (76) 
[H]c1nc(Oc2c([H])c([H])c3c(c2[H])C([H])([H])N(C(=O)C([H])(N([H])C(=O)C([H])(N([H])C([H])([H])[H])C([H])([H])[H])C(C([H])([H])[H])(C([H])([H])[H])C([H])([H])[H])C([H])(C(=O)N([H])C2([H])c4c([H])c([H])c([H])c([H])c4C([H])([H])C([H])([H])C2([H])[H])C3([H])[H])nc(C2([H])C([H])([H])C2([H])[H])c1C([H])([H])C1([H])C([H])([H])N(C(=O)N2C([H])([H])C([H])([H])C([H])([H])C([H])(n3nc(-c4c([H])c([H])c(Oc5c([H])c([H])c(F)c([H])c5F)c([H])c4[H])c(C(=O)N([H])[H])c3N([H])[H])C2([H])[H])C([H])([H])C1([H])[H]

$$$$
77:0:0
     RDKit          3D

 90 99  0  0  1  0  0  0  0  0999 V2000
  -29.1720  -23.5150   22.0730 C   0  0  0  0  0  3  0  0  0  0  0  0
  -28.8750  -22.9020   20.8330 C   0  0  0  0  0  0  0  0  0  0  0  0
  -29.3950  -21.3750   20.8080 C   0  0  0  0  0  0  0  0  0  0  0  0
  -30.2450  -21.7340   22.9870 C   0  0  0  0  0  0  0  0  0  0  0  0
  -30.9500  -21.1150   24.1880 C   0  0  0  0  0  1  0  0  0  0  0  0
  -29.8040  -22.9650   23.1190 N   0  0  0  0  0  0  0  0  0  0  0  0
  -30.0870  -20.9870   21.9090 N   0  0  0  0  0  0  0  0  0  0  0  0
  -30.7280  -15.5540   19.9070 C   0  0  0  0  0  0  0  0  0  0  0  0
  -30.6470  -13.0820   19.0200 C   0  0  0  0  0  2  0  0  0  0  0  0
  -29.6770  -12.8350   17.8380 C   0  0  0  0  0  2  0  0  0  0  0  0
  -28.2430  -12.5740   18.3270 C   0  0  0  0  0  2  0  0  0  0  0  0
  -27.8590  -13.5180   19.4970 C   0  0  0  0  0  3  0  0  0  0  0  0
  -28.9670  -13.6700   20.5630 C   0  0  0  0  0  2  0  0  0  0  0  0
  -30.1340  -14.2400   19.8630 N   0  0  0  0  0  0  0  0  0  0  0  0
  -31.9300  -15.4990   19.6060 O   0  0  0  0  0  0  0  0  0  0  0  0
  -28.2890  -18.7720   20.5460 C   0  0  0  0  0  2  0  0  0  0  0  0
  -28.6390  -17.2050   20.3680 C   0  0  0  0  0  2  0  0  0  0  0  0
  -30.5230  -18.4720   20.0360 C   0  0  0  0  0  2  0  0  0  0  0  0
  -29.3690  -19.7900   20.0170 C   0  0  0  0  0  3  0  0  0  0  0  0
  -30.0610  -16.9060   20.0790 N   0  0  0  0  0  0  0  0  0  0  0  0
  -25.5470  -14.0880   20.3950 C   0  0  0  0  0  0  0  0  0  0  0  0
  -24.4930  -13.3200   20.8100 C   0  0  0  0  0  0  0  0  0  0  0  0
  -24.9330  -11.9640   20.7070 C   0  0  0  0  0  0  0  0  0  0  0  0
  -26.5590  -13.2030   20.0720 N   0  0  0  0  0  0  0  0  0  0  0  0
  -26.2030  -11.9160   20.3160 N   0  0  0  0  0  0  0  0  0  0  0  0
  -24.1930  -10.7100   20.9000 C   0  0  0  0  0  0  0  0  0  0  0  0
  -24.6150   -9.7460   21.8410 C   0  0  0  0  0  3  0  0  0  0  0  0
  -23.8780   -8.5560   22.0270 C   0  0  0  0  0  3  0  0  0  0  0  0
  -22.7050   -8.3240   21.2700 C   0  0  0  0  0  0  0  0  0  0  0  0
  -22.2980   -9.2810   20.3210 C   0  0  0  0  0  3  0  0  0  0  0  0
  -23.0360  -10.4610   20.1350 C   0  0  0  0  0  3  0  0  0  0  0  0
  -21.9420   -7.1830   21.3570 O   0  0  0  0  0  0  0  0  0  0  0  0
  -21.8070   -6.4980   22.5360 C   0  0  0  0  0  0  0  0  0  0  0  0
  -21.2710   -7.1050   23.6940 C   0  0  0  0  0  3  0  0  0  0  0  0
  -21.0840   -6.3440   24.8640 C   0  0  0  0  0  3  0  0  0  0  0  0
  -21.4220   -4.9770   24.8760 C   0  0  0  0  0  0  0  0  0  0  0  0
  -21.9550   -4.3720   23.7240 C   0  0  0  0  0  3  0  0  0  0  0  0
  -22.1410   -5.1300   22.5560 C   0  0  0  0  0  0  0  0  0  0  0  0
  -22.6330   -4.5360   21.4400 F   0  0  0  0  0  0  0  0  0  0  0  0
  -21.2380   -4.2420   25.9990 F   0  0  0  0  0  0  0  0  0  0  0  0
  -23.1270  -13.8180   21.1800 C   0  0  0  0  0  0  0  0  0  0  0  0
  -22.4400  -13.1190   22.0800 N   0  0  0  0  0  0  0  0  0  0  0  0
  -22.6790  -14.8590   20.7050 O   0  0  0  0  0  0  0  0  0  0  0  0
  -22.8170  -12.2800   22.4870 H   0  0  0  0  0  0  0  0  0  0  0  0
  -21.5260  -13.4420   22.3640 H   0  0  0  0  0  0  0  0  0  0  0  0
  -25.7340  -15.4560   20.2360 N   0  0  0  0  0  0  0  0  0  0  0  0
  -25.0130  -16.1450   20.4140 H   0  0  0  0  0  0  0  0  0  0  0  0
  -26.5570  -15.8480   19.7990 H   0  0  0  0  0  0  0  0  0  0  0  0
  -27.9720  -24.1800   20.0120 C   0  0  0  0  0  2  0  0  0  0  0  0
  -28.0910  -25.8540   20.1860 O   0  0  0  0  0  0  0  0  0  0  0  0
  -24.6300  -31.9140   23.1190 C   0  0  0  0  0  0  0  0  0  0  0  0
  -27.0850  -26.9760   20.0760 C   0  0  0  0  0  0  0  0  0  0  0  0
  -23.3770  -30.5050   21.5280 C   0  0  0  0  0  3  0  0  0  0  0  0
  -24.7880  -28.8900   20.0620 C   0  0  0  0  0  0  0  0  0  0  0  0
  -25.9360  -30.7130   21.2910 C   0  0  0  0  0  2  0  0  0  0  0  0
  -25.9890  -29.2900   20.6560 C   0  0  0  0  0  0  0  0  0  0  0  0
  -27.1260  -28.3510   20.6450 C   0  0  0  0  0  3  0  0  0  0  0  0
  -25.8610  -26.7510   19.4070 C   0  0  0  0  0  3  0  0  0  0  0  0
  -24.7520  -27.6430   19.4110 C   0  0  0  0  0  3  0  0  0  0  0  0
  -23.5640  -29.8100   20.1480 C   0  0  0  0  0  2  0  0  0  0  0  0
  -24.6710  -31.0730   22.0320 N   0  0  0  0  0  0  0  0  0  0  0  0
  -23.5600  -32.2000   23.6820 O   0  0  0  0  0  0  0  0  0  0  0  0
  -22.7270  -29.5100   22.5300 C   0  0  0  0  0  0  0  0  0  0  0  0
  -21.4090  -29.2620   22.4020 N   0  0  0  0  0  0  0  0  0  0  0  0
  -23.4160  -28.9570   23.3930 O   0  0  0  0  0  0  0  0  0  0  0  0
  -20.8980  -29.7570   21.6870 H   0  0  0  0  0  0  0  0  0  0  0  0
  -18.1310  -27.7840   22.8560 C   0  0  0  0  0  0  0  0  0  0  0  0
  -20.6400  -28.3070   23.2090 C   0  0  0  0  0  3  0  0  0  0  0  0
  -20.8980  -26.8540   22.7460 C   0  0  0  0  0  2  0  0  0  0  0  0
  -19.8810  -26.3640   21.7090 C   0  0  0  0  0  2  0  0  0  0  0  0
  -18.4630  -26.4190   22.2800 C   0  0  0  0  0  2  0  0  0  0  0  0
  -19.1500  -28.6780   23.2770 C   0  0  0  0  0  0  0  0  0  0  0  0
  -18.7810  -29.9510   23.7710 C   0  0  0  0  0  3  0  0  0  0  0  0
  -17.4270  -30.3290   23.8530 C   0  0  0  0  0  3  0  0  0  0  0  0
  -16.4230  -29.4350   23.4460 C   0  0  0  0  0  3  0  0  0  0  0  0
  -16.7750  -28.1650   22.9520 C   0  0  0  0  0  3  0  0  0  0  0  0
  -25.9220  -32.5690   23.6960 C   0  0  0  0  0  3  0  0  0  0  0  0
  -25.6080  -33.9590   24.0730 N   0  0  0  0  0  0  0  0  0  0  0  0
  -25.9140  -35.0400   23.3460 C   0  0  0  0  0  0  0  0  0  0  0  0
  -26.5570  -34.9770   22.2950 O   0  0  0  0  0  0  0  0  0  0  0  0
  -25.0600  -34.0890   24.9090 H   0  0  0  0  0  0  0  0  0  0  0  0
  -24.1850  -36.8490   23.0690 C   0  0  0  0  0  1  0  0  0  0  0  0
  -25.4300  -36.4140   23.8570 C   0  0  0  0  0  3  0  0  0  0  0  0
  -27.5650  -37.2760   24.7150 C   0  0  0  0  0  1  0  0  0  0  0  0
  -26.4630  -37.4720   23.7750 N   0  0  0  0  0  0  0  0  0  0  0  0
  -26.0580  -38.3900   23.9460 H   0  0  0  0  0  0  0  0  0  0  0  0
  -26.5070  -31.7920   24.9440 C   0  0  1  0  0  0  0  0  0  0  0  0
  -25.4540  -31.5030   26.0380 C   0  0  0  0  0  1  0  0  0  0  0  0
  -27.1160  -30.4360   24.5220 C   0  0  0  0  0  1  0  0  0  0  0  0
  -27.6620  -32.6010   25.5820 C   0  0  0  0  0  1  0  0  0  0  0  0
  1  6  1  0
  2  1  2  0
  3  2  1  0
  3  7  2  0
  4  6  2  0
  4  5  1  0
  7  4  1  0
  8 20  1  0
  9 14  1  0
 10 11  1  0
 10  9  1  0
 12 11  1  0
 12 24  1  0
 12 13  1  0
 14  8  1  0
 14 13  1  0
 15  8  2  0
 17 16  1  0
 18 20  1  0
 19 18  1  0
 19 16  1  0
 19  3  1  0
 20 17  1  0
 21 22  2  0
 22 41  1  0
 23 22  1  0
 23 26  1  0
 24 25  1  0
 24 21  1  0
 25 23  2  0
 26 27  1  0
 27 28  2  0
 29 32  1  0
 29 28  1  0
 30 29  2  0
 31 30  1  0
 31 26  2  0
 32 33  1  0
 33 38  2  0
 33 34  1  0
 34 35  2  0
 35 36  1  0
 36 40  1  0
 37 36  2  0
 38 37  1  0
 39 38  1  0
 41 42  1  0
 42 45  1  0
 42 44  1  0
 43 41  2  0
 46 21  1  0
 46 47  1  0
 48 46  1  0
 49 50  1  0
 49  2  1  0
 51 62  2  0
 52 50  1  0
 52 57  1  0
 53 61  1  0
 53 63  1  0
 54 60  1  0
 54 56  1  0
 55 61  1  0
 56 55  1  0
 57 56  2  0
 58 59  1  0
 58 52  2  0
 59 54  2  0
 60 53  1  0
 61 51  1  0
 63 65  2  0
 64 63  1  0
 66 64  1  0
 67 76  2  0
 67 72  1  0
 68 64  1  0
 68 72  1  0
 69 68  1  0
 70 71  1  0
 70 69  1  0
 71 67  1  0
 72 73  2  0
 73 74  1  0
 75 74  2  0
 76 75  1  0
 77 51  1  0
 77 78  1  0
 77 87  1  0
 78 81  1  0
 79 83  1  0
 79 78  1  0
 80 79  2  0
 83 82  1  0
 85 83  1  0
 85 86  1  0
 85 84  1  0
 87 90  1  1
 87 88  1  0
 89 87  1  0
M  ISO  4   8 100  20 100  49 101  50 101
M  END
>  <TORSDO>  (77) 
F 17

>  <SCORE>  (77) 
-17.073

>  <name>  (77) 
77

>  <ligand_id>  (77) 
77

>  <original_smiles>  (77) 
[H]c1nc(C([H])([H])[H])nc(C2([H])C([H])([H])N(C(=O)N3C([H])([H])C([H])([H])C([H])([H])C([H])(n4nc(-c5c([H])c([H])c(Oc6c([H])c([H])c(F)c([H])c6F)c([H])c5[H])c(C(=O)N([H])[H])c4N([H])[H])C3([H])[H])C([H])([H])C2([H])[H])c1C([H])([H])Oc1c([H])c([H])c2c(c1[H])C([H])([H])N(C(=O)C([H])(N([H])C(=O)C([H])(N([H])C([H])([H])[H])C([H])([H])[H])C(C([H])([H])[H])(C([H])([H])[H])C([H])([H])[H])C([H])(C(=O)N([H])C1([H])c3c([H])c([H])c([H])c([H])c3C([H])([H])C([H])([H])C1([H])[H])C2([H])[H]

>  <smiles>  (77) 
[H]c1nc(C([H])([H])[H])nc(C2([H])C([H])([H])N(C(=O)N3C([H])([H])C([H])([H])C([H])([H])C([H])(n4nc(-c5c([H])c([H])c(Oc6c([H])c([H])c(F)c([H])c6F)c([H])c5[H])c(C(=O)N([H])[H])c4N([H])[H])C3([H])[H])C([H])([H])C2([H])[H])c1C([H])([H])Oc1c([H])c([H])c2c(c1[H])C([H])([H])N(C(=O)C([H])(N([H])C(=O)C([H])(N([H])C([H])([H])[H])C([H])([H])[H])C(C([H])([H])[H])(C([H])([H])[H])C([H])([H])[H])C([H])(C(=O)N([H])C1([H])c3c([H])c([H])c([H])c([H])c3C([H])([H])C([H])([H])C1([H])[H])C2([H])[H]

$$$$
78:0:0
     RDKit          3D

 90 99  0  0  1  0  0  0  0  0999 V2000
  -29.2210  -22.2140   21.7600 C   0  0  0  0  0  3  0  0  0  0  0  0
  -29.0920  -23.5290   22.2700 C   0  0  0  0  0  0  0  0  0  0  0  0
  -28.8660  -21.8830   20.4420 C   0  0  0  0  0  3  0  0  0  0  0  0
  -28.3330  -24.4990   20.2890 C   0  0  0  0  0  0  0  0  0  0  0  0
  -29.4490  -23.8060   23.7160 C   0  0  0  0  0  1  0  0  0  0  0  0
  -28.6590  -24.6080   21.5720 N   0  0  0  0  0  0  0  0  0  0  0  0
  -28.4430  -23.1350   19.7280 N   0  0  0  0  0  0  0  0  0  0  0  0
  -28.1690  -25.8630   19.6270 O   0  0  0  0  0  0  0  0  0  0  0  0
  -24.6530  -31.8230   23.0130 C   0  0  0  0  0  0  0  0  0  0  0  0
  -27.1440  -26.9640   19.8160 C   0  0  0  0  0  0  0  0  0  0  0  0
  -23.4150  -30.4420   21.3980 C   0  0  0  0  0  3  0  0  0  0  0  0
  -24.8290  -28.8700   19.8980 C   0  0  0  0  0  0  0  0  0  0  0  0
  -25.9770  -30.6690   21.1620 C   0  0  0  0  0  2  0  0  0  0  0  0
  -26.0400  -29.2600   20.4840 C   0  0  0  0  0  0  0  0  0  0  0  0
  -27.1900  -28.3330   20.4140 C   0  0  0  0  0  3  0  0  0  0  0  0
  -25.8950  -26.7540   19.1850 C   0  0  0  0  0  3  0  0  0  0  0  0
  -24.7840  -27.6380   19.2280 C   0  0  0  0  0  3  0  0  0  0  0  0
  -23.6060  -29.7860   20.0020 C   0  0  0  0  0  2  0  0  0  0  0  0
  -24.7050  -31.0070   21.9090 N   0  0  0  0  0  0  0  0  0  0  0  0
  -23.5800  -32.0880   23.5810 O   0  0  0  0  0  0  0  0  0  0  0  0
  -22.7700  -29.4200   22.3710 C   0  0  0  0  0  0  0  0  0  0  0  0
  -21.4460  -29.2000   22.2620 N   0  0  0  0  0  0  0  0  0  0  0  0
  -23.4700  -28.8240   23.1930 O   0  0  0  0  0  0  0  0  0  0  0  0
  -20.9300  -29.7330   21.5770 H   0  0  0  0  0  0  0  0  0  0  0  0
  -18.1350  -27.8010   22.7760 C   0  0  0  0  0  0  0  0  0  0  0  0
  -20.6740  -28.2260   23.0430 C   0  0  0  0  0  3  0  0  0  0  0  0
  -20.8630  -26.7950   22.4880 C   0  0  0  0  0  2  0  0  0  0  0  0
  -19.7860  -26.3930   21.4740 C   0  0  0  0  0  2  0  0  0  0  0  0
  -18.3960  -26.4600   22.1130 C   0  0  0  0  0  2  0  0  0  0  0  0
  -19.2040  -28.6380   23.1980 C   0  0  0  0  0  0  0  0  0  0  0  0
  -18.9030  -29.8880   23.7800 C   0  0  0  0  0  3  0  0  0  0  0  0
  -17.5680  -30.3050   23.9430 C   0  0  0  0  0  3  0  0  0  0  0  0
  -16.5150  -29.4690   23.5340 C   0  0  0  0  0  3  0  0  0  0  0  0
  -16.7990  -28.2190   22.9580 C   0  0  0  0  0  3  0  0  0  0  0  0
  -25.9360  -32.4750   23.6090 C   0  0  0  0  0  3  0  0  0  0  0  0
  -25.6010  -33.8530   24.0150 N   0  0  0  0  0  0  0  0  0  0  0  0
  -25.8910  -34.9550   23.3090 C   0  0  0  0  0  0  0  0  0  0  0  0
  -26.5280  -34.9190   22.2550 O   0  0  0  0  0  0  0  0  0  0  0  0
  -25.0310  -33.9510   24.8420 H   0  0  0  0  0  0  0  0  0  0  0  0
  -24.1210  -36.7350   23.1130 C   0  0  0  0  0  1  0  0  0  0  0  0
  -25.3970  -36.3100   23.8580 C   0  0  0  0  0  3  0  0  0  0  0  0
  -27.5380  -37.1990   24.6720 C   0  0  0  0  0  1  0  0  0  0  0  0
  -26.4060  -37.3880   23.7670 N   0  0  0  0  0  0  0  0  0  0  0  0
  -25.9870  -38.2920   23.9680 H   0  0  0  0  0  0  0  0  0  0  0  0
  -26.5210  -31.6780   24.8420 C   0  0  1  0  0  0  0  0  0  0  0  0
  -25.4780  -31.3850   25.9460 C   0  0  0  0  0  1  0  0  0  0  0  0
  -27.1170  -30.3240   24.3940 C   0  0  0  0  0  1  0  0  0  0  0  0
  -27.6810  -32.4780   25.4790 C   0  0  0  0  0  1  0  0  0  0  0  0
  -28.7480  -20.1170   20.1300 C   0  0  0  0  0  2  0  0  0  0  0  0
  -30.3210  -15.5860   19.9380 C   0  0  0  0  0  0  0  0  0  0  0  0
  -30.2960  -13.1460   18.9740 C   0  0  0  0  0  2  0  0  0  0  0  0
  -29.3010  -12.8890   17.8120 C   0  0  0  0  0  2  0  0  0  0  0  0
  -27.8990  -12.5590   18.3540 C   0  0  0  0  0  2  0  0  0  0  0  0
  -27.4980  -13.4910   19.5230 C   0  0  0  0  0  3  0  0  0  0  0  0
  -28.6190  -13.6730   20.5670 C   0  0  0  0  0  2  0  0  0  0  0  0
  -29.7610  -14.2640   19.8450 N   0  0  0  0  0  0  0  0  0  0  0  0
  -31.5540  -15.5440   19.7800 O   0  0  0  0  0  0  0  0  0  0  0  0
  -29.8060  -18.0530   17.8300 C   0  0  0  0  0  2  0  0  0  0  0  0
  -30.6470  -18.7920   18.8820 C   0  0  0  0  0  2  0  0  0  0  0  0
  -28.9160  -17.0650   18.6160 C   0  0  0  0  0  2  0  0  0  0  0  0
  -29.8290  -18.5970   20.1550 C   0  0  0  0  0  3  0  0  0  0  0  0
  -29.5590  -16.9120   19.9230 N   0  0  0  0  0  0  0  0  0  0  0  0
  -25.1840  -13.9820   20.4610 C   0  0  0  0  0  0  0  0  0  0  0  0
  -24.1600  -13.1780   20.8730 C   0  0  0  0  0  0  0  0  0  0  0  0
  -24.6450  -11.8370   20.7740 C   0  0  0  0  0  0  0  0  0  0  0  0
  -26.2190  -13.1320   20.1210 N   0  0  0  0  0  0  0  0  0  0  0  0
  -25.9130  -11.8330   20.3780 N   0  0  0  0  0  0  0  0  0  0  0  0
  -23.9510  -10.5570   20.9740 C   0  0  0  0  0  0  0  0  0  0  0  0
  -24.4130   -9.6020   21.9040 C   0  0  0  0  0  3  0  0  0  0  0  0
  -23.7140   -8.3900   22.0940 C   0  0  0  0  0  3  0  0  0  0  0  0
  -22.5370   -8.1250   21.3520 C   0  0  0  0  0  0  0  0  0  0  0  0
  -22.0930   -9.0710   20.4100 C   0  0  0  0  0  3  0  0  0  0  0  0
  -22.7940  -10.2740   20.2200 C   0  0  0  0  0  3  0  0  0  0  0  0
  -21.8070   -6.9660   21.4510 O   0  0  0  0  0  0  0  0  0  0  0  0
  -21.7600   -6.2420   22.6160 C   0  0  0  0  0  0  0  0  0  0  0  0
  -21.2310   -6.7830   23.8080 C   0  0  0  0  0  3  0  0  0  0  0  0
  -21.1370   -5.9830   24.9640 C   0  0  0  0  0  3  0  0  0  0  0  0
  -21.5610   -4.6410   24.9280 C   0  0  0  0  0  0  0  0  0  0  0  0
  -22.0830   -4.0990   23.7410 C   0  0  0  0  0  3  0  0  0  0  0  0
  -22.1780   -4.8970   22.5870 C   0  0  0  0  0  0  0  0  0  0  0  0
  -22.6620   -4.3630   21.4400 F   0  0  0  0  0  0  0  0  0  0  0  0
  -21.4640   -3.8690   26.0370 F   0  0  0  0  0  0  0  0  0  0  0  0
  -22.7750  -13.6240   21.2410 C   0  0  0  0  0  0  0  0  0  0  0  0
  -22.1150  -12.9000   22.1380 N   0  0  0  0  0  0  0  0  0  0  0  0
  -22.2900  -14.6520   20.7710 O   0  0  0  0  0  0  0  0  0  0  0  0
  -22.5220  -12.0680   22.5400 H   0  0  0  0  0  0  0  0  0  0  0  0
  -21.1880  -13.1790   22.4240 H   0  0  0  0  0  0  0  0  0  0  0  0
  -25.3150  -15.3600   20.3150 N   0  0  0  0  0  0  0  0  0  0  0  0
  -24.5530  -16.0010   20.5110 H   0  0  0  0  0  0  0  0  0  0  0  0
  -26.1450  -15.8260   19.9740 H   0  0  0  0  0  0  0  0  0  0  0  0
  1  2  2  0
  2  5  1  0
  3 49  1  0
  3  1  1  0
  4  6  2  0
  6  2  1  0
  7  4  2  0
  7  3  1  0
  8 10  1  0
  8  4  1  0
  9 20  2  0
 10 15  1  0
 11 19  1  0
 11 21  1  0
 12 18  1  0
 12 14  1  0
 13 19  1  0
 14 13  1  0
 15 14  2  0
 16 17  1  0
 16 10  2  0
 17 12  2  0
 18 11  1  0
 19  9  1  0
 21 23  2  0
 22 21  1  0
 24 22  1  0
 25 34  2  0
 25 30  1  0
 26 22  1  0
 26 30  1  0
 27 26  1  0
 28 29  1  0
 28 27  1  0
 29 25  1  0
 30 31  2  0
 31 32  1  0
 33 32  2  0
 34 33  1  0
 35  9  1  0
 35 36  1  0
 35 45  1  0
 36 39  1  0
 37 41  1  0
 37 36  1  0
 38 37  2  0
 41 40  1  0
 43 41  1  0
 43 44  1  0
 43 42  1  0
 45 48  1  1
 45 46  1  0
 47 45  1  0
 51 56  1  0
 52 53  1  0
 52 51  1  0
 54 53  1  0
 54 66  1  0
 54 55  1  0
 56 50  1  0
 56 55  1  0
 57 50  2  0
 58 60  1  0
 58 59  1  0
 59 61  1  0
 60 62  1  0
 61 49  1  0
 62 50  1  0
 62 61  1  0
 63 64  2  0
 64 83  1  0
 65 64  1  0
 65 68  1  0
 66 67  1  0
 66 63  1  0
 67 65  2  0
 68 69  1  0
 69 70  2  0
 71 74  1  0
 71 70  1  0
 72 71  2  0
 73 72  1  0
 73 68  2  0
 74 75  1  0
 75 76  1  0
 76 77  2  0
 78 77  1  0
 78 82  1  0
 79 78  2  0
 80 75  2  0
 80 79  1  0
 81 80  1  0
 83 84  1  0
 84 87  1  0
 84 86  1  0
 85 83  2  0
 88 63  1  0
 88 89  1  0
 90 88  1  0
M  ISO  4   4 101   8 101  50 100  62 100
M  END
>  <TORSDO>  (78) 
F 17

>  <SCORE>  (78) 
-15.405

>  <name>  (78) 
78

>  <ligand_id>  (78) 
78

>  <original_smiles>  (78) 
[H]c1c(C([H])([H])[H])nc(Oc2c([H])c([H])c3c(c2[H])C([H])([H])N(C(=O)C([H])(N([H])C(=O)C([H])(N([H])C([H])([H])[H])C([H])([H])[H])C(C([H])([H])[H])(C([H])([H])[H])C([H])([H])[H])C([H])(C(=O)N([H])C2([H])c4c([H])c([H])c([H])c([H])c4C([H])([H])C([H])([H])C2([H])[H])C3([H])[H])nc1C([H])([H])C1([H])N(C(=O)N2C([H])([H])C([H])([H])C([H])([H])C([H])(n3nc(-c4c([H])c([H])c(Oc5c([H])c([H])c(F)c([H])c5F)c([H])c4[H])c(C(=O)N([H])[H])c3N([H])[H])C2([H])[H])C([H])([H])C([H])([H])C1([H])[H]

>  <smiles>  (78) 
[H]c1c(C([H])([H])[H])nc(Oc2c([H])c([H])c3c(c2[H])C([H])([H])N(C(=O)C([H])(N([H])C(=O)C([H])(N([H])C([H])([H])[H])C([H])([H])[H])C(C([H])([H])[H])(C([H])([H])[H])C([H])([H])[H])C([H])(C(=O)N([H])C2([H])c4c([H])c([H])c([H])c([H])c4C([H])([H])C([H])([H])C2([H])[H])C3([H])[H])nc1C([H])([H])C1([H])N(C(=O)N2C([H])([H])C([H])([H])C([H])([H])C([H])(n3nc(-c4c([H])c([H])c(Oc5c([H])c([H])c(F)c([H])c5F)c([H])c4[H])c(C(=O)N([H])[H])c3N([H])[H])C2([H])[H])C([H])([H])C([H])([H])C1([H])[H]

$$$$
79:0:0
     RDKit          3D

 95104  0  0  1  0  0  0  0  0999 V2000
  -28.9780  -21.3220   22.0440 C   0  0  0  0  0  2  0  0  0  0  0  0
  -29.5650  -22.0000   19.8040 C   0  0  0  0  0  2  0  0  0  0  0  0
  -29.1720  -20.7530   20.6450 C   0  0  0  0  0  3  0  0  0  0  0  0
  -28.4710  -22.7530   21.8010 C   0  0  0  0  0  3  0  0  0  0  0  0
  -28.7360  -23.6270   23.0410 C   0  0  0  0  0  1  0  0  0  0  0  0
  -29.1720  -23.2230   20.5730 N   0  0  2  0  0  4  0  0  0  0  0  0
  -30.0590  -23.5940   20.8830 H   0  0  0  0  0  0  0  0  0  0  0  0
  -30.9070  -14.7320   20.0030 C   0  0  0  0  0  0  0  0  0  0  0  0
  -30.5510  -12.5390   18.9260 C   0  0  0  0  0  2  0  0  0  0  0  0
  -29.5400  -12.7020   17.7740 C   0  0  0  0  0  2  0  0  0  0  0  0
  -28.0980  -12.5490   18.2950 C   0  0  0  0  0  2  0  0  0  0  0  0
  -27.8220  -13.4080   19.5600 C   0  0  0  0  0  3  0  0  0  0  0  0
  -28.9480  -13.2460   20.6060 C   0  0  0  0  0  2  0  0  0  0  0  0
  -30.2260  -13.5520   19.9450 N   0  0  0  0  0  0  0  0  0  0  0  0
  -32.0200  -14.8500   19.4810 O   0  0  0  0  0  0  0  0  0  0  0  0
  -29.6810  -18.2010   20.4980 C   0  0  0  0  0  3  0  0  0  0  0  0
  -30.1230  -19.5430   20.5890 C   0  0  0  0  0  0  0  0  0  0  0  0
  -30.6450  -17.1650   20.5600 C   0  0  0  0  0  0  0  0  0  0  0  0
  -32.2700  -18.7930   20.8180 C   0  0  0  0  0  0  0  0  0  0  0  0
  -33.7410  -19.1160   20.9710 C   0  0  0  0  0  1  0  0  0  0  0  0
  -31.4280  -19.8150   20.7700 N   0  0  0  0  0  0  0  0  0  0  0  0
  -31.9400  -17.5100   20.7310 N   0  0  0  0  0  0  0  0  0  0  0  0
  -30.2180  -15.7980   20.4790 N   0  0  0  0  0  0  0  0  0  0  0  0
  -29.2680  -15.6120   20.7520 H   0  0  0  0  0  0  0  0  0  0  0  0
  -25.4900  -13.9900   20.4760 C   0  0  0  0  0  0  0  0  0  0  0  0
  -24.4470  -13.2070   20.8860 C   0  0  0  0  0  0  0  0  0  0  0  0
  -24.8920  -11.8560   20.7590 C   0  0  0  0  0  0  0  0  0  0  0  0
  -26.5070  -13.1160   20.1270 N   0  0  0  0  0  0  0  0  0  0  0  0
  -26.1550  -11.8250   20.3550 N   0  0  0  0  0  0  0  0  0  0  0  0
  -24.1700  -10.5900   20.9420 C   0  0  0  0  0  0  0  0  0  0  0  0
  -24.5840   -9.6340   21.8960 C   0  0  0  0  0  3  0  0  0  0  0  0
  -23.8620   -8.4340   22.0660 C   0  0  0  0  0  3  0  0  0  0  0  0
  -22.7120   -8.1790   21.2810 C   0  0  0  0  0  0  0  0  0  0  0  0
  -22.3180   -9.1230   20.3160 C   0  0  0  0  0  3  0  0  0  0  0  0
  -23.0400  -10.3160   20.1440 C   0  0  0  0  0  3  0  0  0  0  0  0
  -21.9640   -7.0290   21.3600 O   0  0  0  0  0  0  0  0  0  0  0  0
  -21.7940   -6.3600   22.5450 C   0  0  0  0  0  0  0  0  0  0  0  0
  -21.1850   -6.9690   23.6640 C   0  0  0  0  0  3  0  0  0  0  0  0
  -20.9680   -6.2230   24.8400 C   0  0  0  0  0  3  0  0  0  0  0  0
  -21.3500   -4.8700   24.8960 C   0  0  0  0  0  0  0  0  0  0  0  0
  -21.9520   -4.2600   23.7810 C   0  0  0  0  0  3  0  0  0  0  0  0
  -22.1700   -5.0020   22.6080 C   0  0  0  0  0  0  0  0  0  0  0  0
  -22.7310   -4.4050   21.5300 F   0  0  0  0  0  0  0  0  0  0  0  0
  -21.1340   -4.1500   26.0220 F   0  0  0  0  0  0  0  0  0  0  0  0
  -23.0770  -13.6780   21.2810 C   0  0  0  0  0  0  0  0  0  0  0  0
  -22.4050  -12.9430   22.1610 N   0  0  0  0  0  0  0  0  0  0  0  0
  -22.6140  -14.7320   20.8470 O   0  0  0  0  0  0  0  0  0  0  0  0
  -22.7930  -12.0880   22.5320 H   0  0  0  0  0  0  0  0  0  0  0  0
  -21.4880  -13.2390   22.4670 H   0  0  0  0  0  0  0  0  0  0  0  0
  -25.6540  -15.3670   20.3480 N   0  0  0  0  0  0  0  0  0  0  0  0
  -24.8980  -16.0170   20.5330 H   0  0  0  0  0  0  0  0  0  0  0  0
  -26.4650  -15.8130   19.9400 H   0  0  0  0  0  0  0  0  0  0  0  0
  -28.5110  -24.3140   19.7690 C   0  0  0  0  0  2  0  0  0  0  0  0
  -28.4400  -25.7010   20.4780 C   0  0  0  0  0  2  0  0  0  0  0  0
  -28.3260  -26.8360   19.5920 O   0  0  0  0  0  0  0  0  0  0  0  0
  -24.5020  -31.7620   23.0800 C   0  0  0  0  0  0  0  0  0  0  0  0
  -27.1520  -27.5510   19.6910 C   0  0  0  0  0  0  0  0  0  0  0  0
  -23.2770  -30.4060   21.4120 C   0  0  0  0  0  3  0  0  0  0  0  0
  -24.7200  -28.9830   19.8600 C   0  0  0  0  0  0  0  0  0  0  0  0
  -25.7820  -30.8520   21.1410 C   0  0  0  0  0  2  0  0  0  0  0  0
  -25.8850  -29.5160   20.4300 C   0  0  0  0  0  0  0  0  0  0  0  0
  -27.1060  -28.8090   20.3390 C   0  0  0  0  0  3  0  0  0  0  0  0
  -25.9730  -27.0310   19.1180 C   0  0  0  0  0  3  0  0  0  0  0  0
  -24.7600  -27.7430   19.2010 C   0  0  0  0  0  3  0  0  0  0  0  0
  -23.4550  -29.8020   19.9940 C   0  0  0  0  0  2  0  0  0  0  0  0
  -24.5410  -31.0190   21.9360 N   0  0  0  0  0  0  0  0  0  0  0  0
  -23.4350  -31.9750   23.6710 O   0  0  0  0  0  0  0  0  0  0  0  0
  -22.6900  -29.3210   22.3430 C   0  0  0  0  0  0  0  0  0  0  0  0
  -21.3730  -29.0820   22.2300 N   0  0  0  0  0  0  0  0  0  0  0  0
  -23.4160  -28.6970   23.1220 O   0  0  0  0  0  0  0  0  0  0  0  0
  -20.8470  -29.6430   21.5750 H   0  0  0  0  0  0  0  0  0  0  0  0
  -18.0730  -27.6890   22.7080 C   0  0  0  0  0  0  0  0  0  0  0  0
  -20.6150  -28.0780   22.9750 C   0  0  0  0  0  3  0  0  0  0  0  0
  -20.7920  -26.6730   22.3550 C   0  0  0  0  0  2  0  0  0  0  0  0
  -19.7020  -26.3230   21.3350 C   0  0  0  0  0  2  0  0  0  0  0  0
  -18.3180  -26.3720   21.9900 C   0  0  0  0  0  2  0  0  0  0  0  0
  -19.1520  -28.4980   23.1550 C   0  0  0  0  0  0  0  0  0  0  0  0
  -18.8700  -29.7280   23.7860 C   0  0  0  0  0  3  0  0  0  0  0  0
  -17.5410  -30.1540   23.9710 C   0  0  0  0  0  3  0  0  0  0  0  0
  -16.4770  -29.3440   23.5410 C   0  0  0  0  0  3  0  0  0  0  0  0
  -16.7440  -28.1120   22.9160 C   0  0  0  0  0  3  0  0  0  0  0  0
  -25.7930  -32.3990   23.6850 C   0  0  0  0  0  3  0  0  0  0  0  0
  -25.4640  -33.7770   24.0750 N   0  0  0  0  0  0  0  0  0  0  0  0
  -25.7580  -34.8640   23.3480 C   0  0  0  0  0  0  0  0  0  0  0  0
  -26.4080  -34.8130   22.3010 O   0  0  0  0  0  0  0  0  0  0  0  0
  -24.8840  -33.8900   24.8940 H   0  0  0  0  0  0  0  0  0  0  0  0
  -23.9920  -36.6350   23.0950 C   0  0  0  0  0  1  0  0  0  0  0  0
  -25.2540  -36.2230   23.8680 C   0  0  0  0  0  3  0  0  0  0  0  0
  -27.3830  -37.1210   24.7040 C   0  0  0  0  0  1  0  0  0  0  0  0
  -26.2660  -37.2990   23.7790 N   0  0  0  0  0  0  0  0  0  0  0  0
  -25.8430  -38.2050   23.9650 H   0  0  0  0  0  0  0  0  0  0  0  0
  -26.3680  -31.5940   24.9140 C   0  0  1  0  0  0  0  0  0  0  0  0
  -25.3120  -31.2770   25.9990 C   0  0  0  0  0  1  0  0  0  0  0  0
  -26.9830  -30.2540   24.4480 C   0  0  0  0  0  1  0  0  0  0  0  0
  -27.5110  -32.3980   25.5790 C   0  0  0  0  0  1  0  0  0  0  0  0
  2  6  1  0
  2  3  1  0
  3 17  1  0
  3  1  1  0
  4  1  1  0
  4  5  1  0
  6  7  1  1
  6  4  1  0
  8 23  1  0
  9 14  1  0
 10 11  1  0
 10  9  1  0
 12 11  1  0
 12 28  1  0
 12 13  1  0
 14  8  1  0
 14 13  1  0
 15  8  2  0
 16 18  1  0
 16 17  2  0
 17 21  1  0
 18 22  2  0
 19 20  1  0
 21 19  2  0
 22 19  1  0
 23 18  1  0
 23 24  1  0
 25 26  2  0
 26 45  1  0
 27 26  1  0
 27 30  1  0
 28 29  1  0
 28 25  1  0
 29 27  2  0
 30 31  1  0
 31 32  2  0
 33 36  1  0
 33 32  1  0
 34 33  2  0
 35 34  1  0
 35 30  2  0
 36 37  1  0
 37 42  2  0
 37 38  1  0
 38 39  2  0
 39 40  1  0
 40 44  1  0
 41 40  2  0
 42 41  1  0
 43 42  1  0
 45 46  1  0
 46 49  1  0
 46 48  1  0
 47 45  2  0
 50 25  1  0
 50 51  1  0
 52 50  1  0
 53 54  1  0
 53  6  1  0
 55 57  1  0
 55 54  1  0
 56 67  2  0
 57 62  1  0
 58 66  1  0
 58 68  1  0
 59 65  1  0
 59 61  1  0
 60 66  1  0
 61 60  1  0
 62 61  2  0
 63 64  1  0
 63 57  2  0
 64 59  2  0
 65 58  1  0
 66 56  1  0
 68 70  2  0
 69 68  1  0
 71 69  1  0
 72 81  2  0
 72 77  1  0
 73 69  1  0
 73 77  1  0
 74 73  1  0
 75 76  1  0
 75 74  1  0
 76 72  1  0
 77 78  2  0
 78 79  1  0
 80 79  2  0
 81 80  1  0
 82 56  1  0
 82 83  1  0
 82 92  1  0
 83 86  1  0
 84 88  1  0
 84 83  1  0
 85 84  2  0
 88 87  1  0
 90 88  1  0
 90 91  1  0
 90 89  1  0
 92 95  1  1
 92 93  1  0
 94 92  1  0
M  ISO  4   8 100  23 100  54 101  55 101
M  END
>  <TORSDO>  (79) 
F 18

>  <SCORE>  (79) 
-13.829

>  <name>  (79) 
79

>  <ligand_id>  (79) 
79

>  <original_smiles>  (79) 
[H]c1c(N([H])C(=O)N2C([H])([H])C([H])([H])C([H])([H])C([H])(n3nc(-c4c([H])c([H])c(Oc5c([H])c([H])c(F)c([H])c5F)c([H])c4[H])c(C(=O)N([H])[H])c3N([H])[H])C2([H])[H])nc(C([H])([H])[H])nc1C1([H])C([H])([H])C([H])(C([H])([H])[H])[N+]([H])(C([H])([H])C([H])([H])Oc2c([H])c([H])c3c(c2[H])C([H])([H])N(C(=O)C([H])(N([H])C(=O)C([H])(N([H])C([H])([H])[H])C([H])([H])[H])C(C([H])([H])[H])(C([H])([H])[H])C([H])([H])[H])C([H])(C(=O)N([H])C2([H])c4c([H])c([H])c([H])c([H])c4C([H])([H])C([H])([H])C2([H])[H])C3([H])[H])C1([H])[H]

>  <smiles>  (79) 
[H]c1c(N([H])C(=O)N2C([H])([H])C([H])([H])C([H])([H])C([H])(n3nc(-c4c([H])c([H])c(Oc5c([H])c([H])c(F)c([H])c5F)c([H])c4[H])c(C(=O)N([H])[H])c3N([H])[H])C2([H])[H])nc(C([H])([H])[H])nc1C1([H])C([H])([H])C([H])(C([H])([H])[H])[N+]([H])(C([H])([H])C([H])([H])Oc2c([H])c([H])c3c(c2[H])C([H])([H])N(C(=O)C([H])(N([H])C(=O)C([H])(N([H])C([H])([H])[H])C([H])([H])[H])C(C([H])([H])[H])(C([H])([H])[H])C([H])([H])[H])C([H])(C(=O)N([H])C2([H])c4c([H])c([H])c([H])c([H])c4C([H])([H])C([H])([H])C2([H])[H])C3([H])[H])C1([H])[H]

$$$$
80:0:0
     RDKit          3D

 91100  0  0  1  0  0  0  0  0999 V2000
  -28.5150  -23.4930   19.2590 C   0  0  0  0  0  2  0  0  0  0  0  0
  -28.8810  -23.7560   21.2370 C   0  0  0  0  0  3  0  0  0  0  0  0
  -28.5730  -22.3780   20.4320 C   0  0  0  0  0  3  0  0  0  0  0  0
  -28.0330  -24.6960   20.2230 C   0  0  0  0  0  3  0  0  0  0  0  0
  -28.5150  -23.8120   22.7130 C   0  0  0  0  0  1  0  0  0  0  0  0
  -29.5790  -21.1010   20.4180 N   0  0  0  0  0  4  0  0  0  0  0  0
  -30.3040  -21.3030   21.0880 H   0  0  0  0  0  0  0  0  0  0  0  0
  -30.0360  -21.1260   19.5230 H   0  0  0  0  0  0  0  0  0  0  0  0
  -29.2060  -19.5420   20.6590 C   0  0  0  0  0  2  0  0  0  0  0  0
  -30.6780  -15.3760   20.6020 C   0  0  0  0  0  0  0  0  0  0  0  0
  -30.6630  -12.9690   19.7330 C   0  0  0  0  0  2  0  0  0  0  0  0
  -29.7970  -12.8040   18.4620 C   0  0  0  0  0  2  0  0  0  0  0  0
  -28.3200  -12.5650   18.8340 C   0  0  0  0  0  2  0  0  0  0  0  0
  -27.8200  -13.5100   19.9560 C   0  0  0  0  0  3  0  0  0  0  0  0
  -28.8240  -13.6400   21.1190 C   0  0  0  0  0  2  0  0  0  0  0  0
  -30.0950  -14.0970   20.5360 N   0  0  0  0  0  0  0  0  0  0  0  0
  -31.9160  -15.3840   20.5790 O   0  0  0  0  0  0  0  0  0  0  0  0
  -30.0410  -17.6190   18.1990 C   0  0  0  0  0  2  0  0  0  0  0  0
  -30.9750  -18.3710   19.1390 C   0  0  0  0  0  2  0  0  0  0  0  0
  -29.2550  -16.6470   19.0970 C   0  0  0  0  0  2  0  0  0  0  0  0
  -30.2970  -18.1930   20.4960 C   0  0  0  0  0  3  0  0  0  0  0  0
  -29.9210  -16.6150   20.4110 N   0  0  0  0  0  0  0  0  0  0  0  0
  -25.4080  -14.0590   20.5810 C   0  0  0  0  0  0  0  0  0  0  0  0
  -24.3380  -13.2700   20.8960 C   0  0  0  0  0  0  0  0  0  0  0  0
  -24.8240  -11.9270   20.9050 C   0  0  0  0  0  0  0  0  0  0  0  0
  -26.4740  -13.1920   20.4040 N   0  0  0  0  0  0  0  0  0  0  0  0
  -26.1310  -11.9060   20.6680 N   0  0  0  0  0  0  0  0  0  0  0  0
  -24.1090  -10.6560   21.0640 C   0  0  0  0  0  0  0  0  0  0  0  0
  -24.4820   -9.7180   22.0530 C   0  0  0  0  0  3  0  0  0  0  0  0
  -23.7650   -8.5120   22.2010 C   0  0  0  0  0  3  0  0  0  0  0  0
  -22.6610   -8.2360   21.3600 C   0  0  0  0  0  0  0  0  0  0  0  0
  -22.3090   -9.1620   20.3620 C   0  0  0  0  0  3  0  0  0  0  0  0
  -23.0270  -10.3600   20.2120 C   0  0  0  0  0  3  0  0  0  0  0  0
  -21.9210   -7.0800   21.4150 O   0  0  0  0  0  0  0  0  0  0  0  0
  -21.7560   -6.3870   22.5880 C   0  0  0  0  0  0  0  0  0  0  0  0
  -21.1400   -6.9690   23.7170 C   0  0  0  0  0  3  0  0  0  0  0  0
  -20.9280   -6.1990   24.8790 C   0  0  0  0  0  3  0  0  0  0  0  0
  -21.3210   -4.8470   24.9100 C   0  0  0  0  0  0  0  0  0  0  0  0
  -21.9300   -4.2640   23.7840 C   0  0  0  0  0  3  0  0  0  0  0  0
  -22.1440   -5.0320   22.6250 C   0  0  0  0  0  0  0  0  0  0  0  0
  -22.7110   -4.4610   21.5360 F   0  0  0  0  0  0  0  0  0  0  0  0
  -21.1110   -4.1050   26.0210 F   0  0  0  0  0  0  0  0  0  0  0  0
  -22.9200  -13.7290   21.0810 C   0  0  0  0  0  0  0  0  0  0  0  0
  -22.1600  -13.0390   21.9220 N   0  0  0  0  0  0  0  0  0  0  0  0
  -22.4960  -14.7360   20.5140 O   0  0  0  0  0  0  0  0  0  0  0  0
  -22.5150  -12.2270   22.4020 H   0  0  0  0  0  0  0  0  0  0  0  0
  -21.2060  -13.3280   22.0880 H   0  0  0  0  0  0  0  0  0  0  0  0
  -25.5620  -15.4310   20.4020 N   0  0  0  0  0  0  0  0  0  0  0  0
  -24.7830  -16.0760   20.4750 H   0  0  0  0  0  0  0  0  0  0  0  0
  -26.4310  -15.8840   20.1570 H   0  0  0  0  0  0  0  0  0  0  0  0
  -28.2510  -26.2640   20.0230 O   0  0  0  0  0  0  0  0  0  0  0  0
  -24.6360  -31.9410   23.1950 C   0  0  0  0  0  0  0  0  0  0  0  0
  -27.1890  -27.2660   20.0170 C   0  0  0  0  0  0  0  0  0  0  0  0
  -23.4150  -30.5650   21.5560 C   0  0  0  0  0  3  0  0  0  0  0  0
  -24.8470  -29.0260   20.0670 C   0  0  0  0  0  0  0  0  0  0  0  0
  -25.9660  -30.8480   21.3410 C   0  0  0  0  0  2  0  0  0  0  0  0
  -26.0380  -29.4630   20.6600 C   0  0  0  0  0  0  0  0  0  0  0  0
  -27.2080  -28.6010   20.6130 C   0  0  0  0  0  3  0  0  0  0  0  0
  -25.9690  -26.9480   19.3830 C   0  0  0  0  0  3  0  0  0  0  0  0
  -24.8290  -27.7860   19.4100 C   0  0  0  0  0  3  0  0  0  0  0  0
  -23.6140  -29.9160   20.1600 C   0  0  0  0  0  2  0  0  0  0  0  0
  -24.6940  -31.1410   22.0850 N   0  0  0  0  0  0  0  0  0  0  0  0
  -23.5580  -32.2030   23.7520 O   0  0  0  0  0  0  0  0  0  0  0  0
  -22.7650  -29.5350   22.5150 C   0  0  0  0  0  0  0  0  0  0  0  0
  -21.4410  -29.3270   22.3920 N   0  0  0  0  0  0  0  0  0  0  0  0
  -23.4570  -28.9230   23.3330 O   0  0  0  0  0  0  0  0  0  0  0  0
  -20.9380  -29.8720   21.7070 H   0  0  0  0  0  0  0  0  0  0  0  0
  -18.1040  -28.0030   22.8850 C   0  0  0  0  0  0  0  0  0  0  0  0
  -20.6510  -28.3590   23.1580 C   0  0  0  0  0  3  0  0  0  0  0  0
  -20.8060  -26.9320   22.5820 C   0  0  0  0  0  2  0  0  0  0  0  0
  -19.7200  -26.5720   21.5640 C   0  0  0  0  0  2  0  0  0  0  0  0
  -18.3320  -26.6640   22.2040 C   0  0  0  0  0  2  0  0  0  0  0  0
  -19.1930  -28.8060   23.3190 C   0  0  0  0  0  0  0  0  0  0  0  0
  -18.9240  -30.0560   23.9180 C   0  0  0  0  0  3  0  0  0  0  0  0
  -17.6010  -30.5060   24.0850 C   0  0  0  0  0  3  0  0  0  0  0  0
  -16.5270  -29.7010   23.6660 C   0  0  0  0  0  3  0  0  0  0  0  0
  -16.7790  -28.4520   23.0720 C   0  0  0  0  0  3  0  0  0  0  0  0
  -25.9180  -32.5830   23.8080 C   0  0  0  0  0  3  0  0  0  0  0  0
  -25.5890  -33.9640   24.1980 N   0  0  0  0  0  0  0  0  0  0  0  0
  -25.8620  -35.0520   23.4670 C   0  0  0  0  0  0  0  0  0  0  0  0
  -26.4840  -35.0010   22.4030 O   0  0  0  0  0  0  0  0  0  0  0  0
  -25.0310  -34.0750   25.0320 H   0  0  0  0  0  0  0  0  0  0  0  0
  -24.0860  -36.8240   23.2640 C   0  0  0  0  0  1  0  0  0  0  0  0
  -25.3720  -36.4140   24.0000 C   0  0  0  0  0  3  0  0  0  0  0  0
  -27.5200  -37.3190   24.7710 C   0  0  0  0  0  1  0  0  0  0  0  0
  -26.3770  -37.4920   23.8780 N   0  0  0  0  0  0  0  0  0  0  0  0
  -25.9580  -38.3980   24.0700 H   0  0  0  0  0  0  0  0  0  0  0  0
  -26.4770  -31.7830   25.0490 C   0  0  1  0  0  0  0  0  0  0  0  0
  -25.4150  -31.4960   26.1360 C   0  0  0  0  0  1  0  0  0  0  0  0
  -27.0750  -30.4270   24.6070 C   0  0  0  0  0  1  0  0  0  0  0  0
  -27.6310  -32.5770   25.7070 C   0  0  0  0  0  1  0  0  0  0  0  0
  1  4  1  0
  1  3  1  0
  2  5  1  0
  3  6  1  0
  3  2  1  0
  4 51  1  0
  4  2  1  0
  6  9  1  0
  6  7  1  0
  8  6  1  0
 11 16  1  0
 12 13  1  0
 12 11  1  0
 14 13  1  0
 14 26  1  0
 14 15  1  0
 16 10  1  0
 16 15  1  0
 17 10  2  0
 18 20  1  0
 18 19  1  0
 19 21  1  0
 20 22  1  0
 21  9  1  0
 22 21  1  0
 22 10  1  0
 23 24  2  0
 24 25  1  0
 24 43  1  0
 25 28  1  0
 26 23  1  0
 26 27  1  0
 27 25  2  0
 28 29  1  0
 29 30  2  0
 31 34  1  0
 31 30  1  0
 32 31  2  0
 33 32  1  0
 33 28  2  0
 34 35  1  0
 35 40  2  0
 35 36  1  0
 36 37  2  0
 37 38  1  0
 38 42  1  0
 39 38  2  0
 40 39  1  0
 41 40  1  0
 43 44  1  0
 44 47  1  0
 44 46  1  0
 45 43  2  0
 48 49  1  0
 48 23  1  0
 50 48  1  0
 52 63  2  0
 53 51  1  0
 53 58  1  0
 54 62  1  0
 54 64  1  0
 55 61  1  0
 55 57  1  0
 56 62  1  0
 57 56  1  0
 58 57  2  0
 59 60  1  0
 59 53  2  0
 60 55  2  0
 61 54  1  0
 62 52  1  0
 64 66  2  0
 65 64  1  0
 67 65  1  0
 68 77  2  0
 68 73  1  0
 69 65  1  0
 69 73  1  0
 70 69  1  0
 71 72  1  0
 71 70  1  0
 72 68  1  0
 73 74  2  0
 74 75  1  0
 76 75  2  0
 77 76  1  0
 78 52  1  0
 78 79  1  0
 78 88  1  0
 79 82  1  0
 80 84  1  0
 80 79  1  0
 81 80  2  0
 84 83  1  0
 86 84  1  0
 86 87  1  0
 86 85  1  0
 88 91  1  1
 88 89  1  0
 90 88  1  0
M  ISO  4   4 101  10 100  22 100  51 101
M  END
>  <TORSDO>  (80) 
F 18

>  <SCORE>  (80) 
-14.586

>  <name>  (80) 
80

>  <ligand_id>  (80) 
80

>  <original_smiles>  (80) 
[H]c1c([H])c([H])c2c(c1[H])C([H])([H])C([H])([H])C([H])([H])C2([H])N([H])C(=O)C1([H])N(C(=O)C([H])(N([H])C(=O)C([H])(N([H])C([H])([H])[H])C([H])([H])[H])C(C([H])([H])[H])(C([H])([H])[H])C([H])([H])[H])C([H])([H])c2c([H])c(OC3([H])C([H])([H])C([H])([N+]([H])([H])C([H])([H])C4([H])N(C(=O)N5C([H])([H])C([H])([H])C([H])([H])C([H])(n6nc(-c7c([H])c([H])c(Oc8c([H])c([H])c(F)c([H])c8F)c([H])c7[H])c(C(=O)N([H])[H])c6N([H])[H])C5([H])[H])C([H])([H])C([H])([H])C4([H])[H])C3([H])C([H])([H])[H])c([H])c([H])c2C1([H])[H]

>  <smiles>  (80) 
[H]c1c([H])c([H])c2c(c1[H])C([H])([H])C([H])([H])C([H])([H])C2([H])N([H])C(=O)C1([H])N(C(=O)C([H])(N([H])C(=O)C([H])(N([H])C([H])([H])[H])C([H])([H])[H])C(C([H])([H])[H])(C([H])([H])[H])C([H])([H])[H])C([H])([H])c2c([H])c(OC3([H])C([H])([H])C([H])([N+]([H])([H])C([H])([H])C4([H])N(C(=O)N5C([H])([H])C([H])([H])C([H])([H])C([H])(n6nc(-c7c([H])c([H])c(Oc8c([H])c([H])c(F)c([H])c8F)c([H])c7[H])c(C(=O)N([H])[H])c6N([H])[H])C5([H])[H])C([H])([H])C([H])([H])C4([H])[H])C3([H])C([H])([H])[H])c([H])c([H])c2C1([H])[H]

$$$$
81:0:0
     RDKit          3D

 94104  0  0  1  0  0  0  0  0999 V2000
  -29.5670  -20.9270   18.9290 C   0  0  0  0  0  3  0  0  0  0  0  0
  -29.8310  -19.6980   18.3020 C   0  0  0  0  0  0  0  0  0  0  0  0
  -29.4260  -20.9620   20.3180 C   0  0  0  0  0  0  0  0  0  0  0  0
  -29.9740  -18.6300   20.3360 C   0  0  0  0  0  0  0  0  0  0  0  0
  -30.0240  -18.5640   19.0090 N   0  0  0  0  0  0  0  0  0  0  0  0
  -29.6680  -19.7820   21.0110 N   0  0  0  0  0  0  0  0  0  0  0  0
  -29.7210  -23.1900   21.8350 C   0  0  0  0  0  2  0  0  0  0  0  0
  -29.1450  -23.7860   20.5630 C   0  0  0  0  0  3  0  0  0  0  0  0
  -28.8480  -22.2670   21.0130 C   0  0  1  0  0  0  0  0  0  0  0  0
  -27.4740  -21.9170   21.5740 C   0  0  0  0  0  1  0  0  0  0  0  0
  -28.0820  -24.9870   20.5960 C   0  0  0  0  0  2  0  0  0  0  0  0
  -28.3730  -26.4230   20.2250 O   0  0  0  0  0  0  0  0  0  0  0  0
  -24.6830  -31.8890   23.2260 C   0  0  0  0  0  0  0  0  0  0  0  0
  -27.2790  -27.3220   20.1600 C   0  0  0  0  0  0  0  0  0  0  0  0
  -23.4700  -30.5040   21.5850 C   0  0  0  0  0  3  0  0  0  0  0  0
  -24.9200  -28.9630   20.1470 C   0  0  0  0  0  0  0  0  0  0  0  0
  -26.0100  -30.8290   21.3780 C   0  0  0  0  0  2  0  0  0  0  0  0
  -26.0990  -29.4500   20.7290 C   0  0  0  0  0  0  0  0  0  0  0  0
  -27.2830  -28.6470   20.7170 C   0  0  0  0  0  3  0  0  0  0  0  0
  -26.0770  -26.9060   19.5400 C   0  0  0  0  0  3  0  0  0  0  0  0
  -24.9120  -27.6980   19.5460 C   0  0  0  0  0  3  0  0  0  0  0  0
  -23.6770  -29.8310   20.2040 C   0  0  0  0  0  2  0  0  0  0  0  0
  -24.7420  -31.0890   22.1220 N   0  0  0  0  0  0  0  0  0  0  0  0
  -23.6010  -32.1580   23.7700 O   0  0  0  0  0  0  0  0  0  0  0  0
  -22.8150  -29.4790   22.5440 C   0  0  0  0  0  0  0  0  0  0  0  0
  -21.4900  -29.2890   22.4180 N   0  0  0  0  0  0  0  0  0  0  0  0
  -23.5030  -28.8520   23.3550 O   0  0  0  0  0  0  0  0  0  0  0  0
  -20.9900  -29.8400   21.7340 H   0  0  0  0  0  0  0  0  0  0  0  0
  -18.1260  -28.0660   22.9240 C   0  0  0  0  0  0  0  0  0  0  0  0
  -20.6820  -28.3430   23.1890 C   0  0  0  0  0  3  0  0  0  0  0  0
  -20.7970  -26.9140   22.6100 C   0  0  0  0  0  2  0  0  0  0  0  0
  -19.6960  -26.5880   21.5950 C   0  0  0  0  0  2  0  0  0  0  0  0
  -18.3140  -26.7200   22.2400 C   0  0  0  0  0  2  0  0  0  0  0  0
  -19.2400  -28.8340   23.3530 C   0  0  0  0  0  0  0  0  0  0  0  0
  -19.0130  -30.0970   23.9450 C   0  0  0  0  0  3  0  0  0  0  0  0
  -17.7040  -30.5880   24.1150 C   0  0  0  0  0  3  0  0  0  0  0  0
  -16.6060  -29.8110   23.7090 C   0  0  0  0  0  3  0  0  0  0  0  0
  -16.8160  -28.5540   23.1150 C   0  0  0  0  0  3  0  0  0  0  0  0
  -25.9670  -32.5250   23.8390 C   0  0  0  0  0  3  0  0  0  0  0  0
  -26.4980  -31.7480   25.1070 C   0  0  1  0  0  0  0  0  0  0  0  0
  -25.4160  -31.4990   26.1830 C   0  0  0  0  0  1  0  0  0  0  0  0
  -27.0860  -30.3760   24.7020 C   0  0  0  0  0  1  0  0  0  0  0  0
  -27.6530  -32.5410   25.7640 C   0  0  0  0  0  1  0  0  0  0  0  0
  -25.6520  -33.9200   24.1780 N   0  0  0  0  0  0  0  0  0  0  0  0
  -25.9700  -34.9780   23.4190 C   0  0  0  0  0  0  0  0  0  0  0  0
  -26.6260  -34.8850   22.3790 O   0  0  0  0  0  0  0  0  0  0  0  0
  -25.0600  -34.0690   24.9830 H   0  0  0  0  0  0  0  0  0  0  0  0
  -24.2220  -36.7610   23.1200 C   0  0  0  0  0  1  0  0  0  0  0  0
  -25.4860  -36.3610   23.8960 C   0  0  0  0  0  3  0  0  0  0  0  0
  -27.6370  -37.2540   24.6770 C   0  0  0  0  0  1  0  0  0  0  0  0
  -26.5100  -37.4210   23.7660 N   0  0  0  0  0  0  0  0  0  0  0  0
  -26.0970  -38.3340   23.9400 H   0  0  0  0  0  0  0  0  0  0  0  0
  -28.9670  -20.4060   15.9250 C   0  0  0  0  0  2  0  0  0  0  0  0
  -28.7330  -18.9230   16.0510 C   0  0  0  0  0  2  0  0  0  0  0  0
  -29.8730  -19.5700   16.8060 C   0  0  0  0  0  3  0  0  0  0  0  0
  -30.4700  -17.3300   21.0920 C   0  0  0  0  0  2  0  0  0  0  0  0
  -30.7190  -14.7910   20.4970 C   0  0  0  0  0  0  0  0  0  0  0  0
  -30.5120  -12.5210   19.4630 C   0  0  0  0  0  2  0  0  0  0  0  0
  -29.6030  -12.5750   18.2160 C   0  0  0  0  0  2  0  0  0  0  0  0
  -28.1230  -12.4090   18.6150 C   0  0  0  0  0  2  0  0  0  0  0  0
  -27.7200  -13.3050   19.8160 C   0  0  0  0  0  3  0  0  0  0  0  0
  -28.7560  -13.2340   20.9580 C   0  0  0  0  0  2  0  0  0  0  0  0
  -30.0610  -13.5880   20.3820 N   0  0  0  0  0  0  0  0  0  0  0  0
  -31.9200  -14.8650   20.2270 O   0  0  0  0  0  0  0  0  0  0  0  0
  -29.9870  -15.9320   20.7330 N   0  0  0  0  0  0  0  0  0  0  0  0
  -28.9870  -15.8260   20.7290 H   0  0  0  0  0  0  0  0  0  0  0  0
  -25.3070  -13.8880   20.4620 C   0  0  0  0  0  0  0  0  0  0  0  0
  -24.2340  -13.1120   20.8100 C   0  0  0  0  0  0  0  0  0  0  0  0
  -24.7100  -11.7650   20.8230 C   0  0  0  0  0  0  0  0  0  0  0  0
  -26.3640  -13.0130   20.2760 N   0  0  0  0  0  0  0  0  0  0  0  0
  -26.0110  -11.7320   20.5550 N   0  0  0  0  0  0  0  0  0  0  0  0
  -23.9830  -10.5010   21.0110 C   0  0  0  0  0  0  0  0  0  0  0  0
  -24.3950   -9.5520   21.9730 C   0  0  0  0  0  3  0  0  0  0  0  0
  -23.6710   -8.3530   22.1500 C   0  0  0  0  0  3  0  0  0  0  0  0
  -22.5200   -8.0970   21.3670 C   0  0  0  0  0  0  0  0  0  0  0  0
  -22.1270   -9.0370   20.3970 C   0  0  0  0  0  3  0  0  0  0  0  0
  -22.8520  -10.2270   20.2200 C   0  0  0  0  0  3  0  0  0  0  0  0
  -21.7690   -6.9500   21.4520 O   0  0  0  0  0  0  0  0  0  0  0  0
  -21.6970   -6.2220   22.6120 C   0  0  0  0  0  0  0  0  0  0  0  0
  -21.2350   -6.7890   23.8200 C   0  0  0  0  0  3  0  0  0  0  0  0
  -21.1110   -5.9880   24.9720 C   0  0  0  0  0  3  0  0  0  0  0  0
  -21.4400   -4.6190   24.9180 C   0  0  0  0  0  0  0  0  0  0  0  0
  -21.8950   -4.0520   23.7140 C   0  0  0  0  0  3  0  0  0  0  0  0
  -22.0200   -4.8510   22.5640 C   0  0  0  0  0  0  0  0  0  0  0  0
  -22.4400   -4.2930   21.4020 F   0  0  0  0  0  0  0  0  0  0  0  0
  -21.3120   -3.8470   26.0220 F   0  0  0  0  0  0  0  0  0  0  0  0
  -22.8290  -13.5880   21.0240 C   0  0  0  0  0  0  0  0  0  0  0  0
  -22.0750  -12.9050   21.8790 N   0  0  0  0  0  0  0  0  0  0  0  0
  -22.4020  -14.6000   20.4680 O   0  0  0  0  0  0  0  0  0  0  0  0
  -22.4310  -12.0860   22.3470 H   0  0  0  0  0  0  0  0  0  0  0  0
  -21.1300  -13.2090   22.0670 H   0  0  0  0  0  0  0  0  0  0  0  0
  -25.4650  -15.2540   20.2620 N   0  0  0  0  0  0  0  0  0  0  0  0
  -24.6800  -15.8950   20.3110 H   0  0  0  0  0  0  0  0  0  0  0  0
  -26.3140  -15.6930   19.9270 H   0  0  0  0  0  0  0  0  0  0  0  0
  1  3  1  0
  2  1  2  0
  2  5  1  0
  3  6  2  0
  3  9  1  0
  4  6  1  0
  4 56  1  0
  5  4  2  0
  8 11  1  0
  8  9  1  0
  8  7  1  0
  9 10  1  1
  9  7  1  0
 12 11  1  0
 13 24  2  0
 14 12  1  0
 14 19  1  0
 15 23  1  0
 15 25  1  0
 16 22  1  0
 16 18  1  0
 17 23  1  0
 18 17  1  0
 19 18  2  0
 20 21  1  0
 20 14  2  0
 21 16  2  0
 22 15  1  0
 23 13  1  0
 25 27  2  0
 26 25  1  0
 28 26  1  0
 29 38  2  0
 29 34  1  0
 30 26  1  0
 30 34  1  0
 31 30  1  0
 32 33  1  0
 32 31  1  0
 33 29  1  0
 34 35  2  0
 35 36  1  0
 37 36  2  0
 38 37  1  0
 39 13  1  0
 39 44  1  0
 39 40  1  0
 40 43  1  1
 40 41  1  0
 42 40  1  0
 44 47  1  0
 45 49  1  0
 45 44  1  0
 46 45  2  0
 49 48  1  0
 51 49  1  0
 51 52  1  0
 51 50  1  0
 53 54  1  0
 53 55  1  0
 54 55  1  0
 55  2  1  0
 57 65  1  0
 58 63  1  0
 59 60  1  0
 59 58  1  0
 61 60  1  0
 61 70  1  0
 61 62  1  0
 63 57  1  0
 63 62  1  0
 64 57  2  0
 65 56  1  0
 66 65  1  0
 67 68  2  0
 68 69  1  0
 68 87  1  0
 69 72  1  0
 70 67  1  0
 70 71  1  0
 71 69  2  0
 72 73  1  0
 73 74  2  0
 75 78  1  0
 75 74  1  0
 76 75  2  0
 77 76  1  0
 77 72  2  0
 78 79  1  0
 79 80  1  0
 80 81  2  0
 82 81  1  0
 82 86  1  0
 83 82  2  0
 84 79  2  0
 84 83  1  0
 85 84  1  0
 87 88  1  0
 88 91  1  0
 88 90  1  0
 89 87  2  0
 92 93  1  0
 92 67  1  0
 94 92  1  0
M  ISO  4  11 101  12 101  57 100  65 100
M  END
>  <TORSDO>  (81) 
F 20

>  <SCORE>  (81) 
-13.693

>  <name>  (81) 
81

>  <ligand_id>  (81) 
81

>  <original_smiles>  (81) 
[H]c1c(C2([H])C([H])([H])C2([H])[H])nc(C([H])([H])N([H])C(=O)N2C([H])([H])C([H])([H])C([H])([H])C([H])(n3nc(-c4c([H])c([H])c(Oc5c([H])c([H])c(F)c([H])c5F)c([H])c4[H])c(C(=O)N([H])[H])c3N([H])[H])C2([H])[H])nc1C1(C([H])([H])[H])C([H])([H])C1([H])C([H])([H])Oc1c([H])c([H])c2c(c1[H])C([H])([H])N(C(=O)C([H])(N([H])C(=O)C([H])(N([H])C([H])([H])[H])C([H])([H])[H])C(C([H])([H])[H])(C([H])([H])[H])C([H])([H])[H])C([H])(C(=O)N([H])C1([H])c3c([H])c([H])c([H])c([H])c3C([H])([H])C([H])([H])C1([H])[H])C2([H])[H]

>  <smiles>  (81) 
[H]c1c(C2([H])C([H])([H])C2([H])[H])nc(C([H])([H])N([H])C(=O)N2C([H])([H])C([H])([H])C([H])([H])C([H])(n3nc(-c4c([H])c([H])c(Oc5c([H])c([H])c(F)c([H])c5F)c([H])c4[H])c(C(=O)N([H])[H])c3N([H])[H])C2([H])[H])nc1C1(C([H])([H])[H])C([H])([H])C1([H])C([H])([H])Oc1c([H])c([H])c2c(c1[H])C([H])([H])N(C(=O)C([H])(N([H])C(=O)C([H])(N([H])C([H])([H])[H])C([H])([H])[H])C(C([H])([H])[H])(C([H])([H])[H])C([H])([H])[H])C([H])(C(=O)N([H])C1([H])c3c([H])c([H])c([H])c([H])c3C([H])([H])C([H])([H])C1([H])[H])C2([H])[H]

$$$$
82:0:0
     RDKit          3D

 94105  0  0  1  0  0  0  0  0999 V2000
  -29.2490  -21.0060   19.8030 C   0  0  0  0  0  0  0  0  0  0  0  0
  -30.4590  -20.2150   20.0590 C   0  0  0  0  0  0  0  0  0  0  0  0
  -28.3320  -18.6820   19.6800 C   0  0  0  0  0  0  0  0  0  0  0  0
  -29.5440  -17.8860   19.9270 C   0  0  0  0  0  0  0  0  0  0  0  0
  -28.2030  -20.1040   19.6260 N   0  0  0  0  0  0  0  0  0  0  0  0
  -30.5850  -18.7930   20.1170 N   0  0  0  0  0  0  0  0  0  0  0  0
  -30.3030  -15.0820   19.5420 C   0  0  0  0  0  0  0  0  0  0  0  0
  -30.1020  -12.7070   18.5330 C   0  0  0  0  0  2  0  0  0  0  0  0
  -29.0170  -12.6380   17.4270 C   0  0  0  0  0  2  0  0  0  0  0  0
  -27.6260  -12.3890   18.0340 C   0  0  0  0  0  2  0  0  0  0  0  0
  -27.3680  -13.2780   19.2770 C   0  0  0  0  0  3  0  0  0  0  0  0
  -28.5590  -13.2900   20.2600 C   0  0  0  0  0  2  0  0  0  0  0  0
  -29.7240  -13.7870   19.5110 N   0  0  0  0  0  0  0  0  0  0  0  0
  -31.4640  -15.1180   19.1090 O   0  0  0  0  0  0  0  0  0  0  0  0
  -29.5360  -16.2790   19.9060 N   0  0  0  0  0  0  0  0  0  0  0  0
  -28.6540  -15.9520   20.2690 H   0  0  0  0  0  0  0  0  0  0  0  0
  -25.1220  -13.8490   20.3450 C   0  0  0  0  0  0  0  0  0  0  0  0
  -24.1010  -13.0760   20.8210 C   0  0  0  0  0  0  0  0  0  0  0  0
  -24.5280  -11.7200   20.6720 C   0  0  0  0  0  0  0  0  0  0  0  0
  -26.1060  -12.9660   19.9340 N   0  0  0  0  0  0  0  0  0  0  0  0
  -25.7690  -11.6770   20.1940 N   0  0  0  0  0  0  0  0  0  0  0  0
  -23.8020  -10.4630   20.8970 C   0  0  0  0  0  0  0  0  0  0  0  0
  -24.2860   -9.4770   21.7840 C   0  0  0  0  0  3  0  0  0  0  0  0
  -23.5570   -8.2880   22.0010 C   0  0  0  0  0  3  0  0  0  0  0  0
  -22.3290   -8.0760   21.3300 C   0  0  0  0  0  0  0  0  0  0  0  0
  -21.8620   -9.0510   20.4300 C   0  0  0  0  0  3  0  0  0  0  0  0
  -22.5920  -10.2310   20.2130 C   0  0  0  0  0  3  0  0  0  0  0  0
  -21.5670   -6.9400   21.4590 O   0  0  0  0  0  0  0  0  0  0  0  0
  -21.5420   -6.2170   22.6250 C   0  0  0  0  0  0  0  0  0  0  0  0
  -21.1810   -6.8060   23.8570 C   0  0  0  0  0  3  0  0  0  0  0  0
  -21.1000   -6.0120   25.0190 C   0  0  0  0  0  3  0  0  0  0  0  0
  -21.3700   -4.6320   24.9500 C   0  0  0  0  0  0  0  0  0  0  0  0
  -21.7240   -4.0440   23.7230 C   0  0  0  0  0  3  0  0  0  0  0  0
  -21.8060   -4.8350   22.5640 C   0  0  0  0  0  0  0  0  0  0  0  0
  -22.1270   -4.2590   21.3800 F   0  0  0  0  0  0  0  0  0  0  0  0
  -21.2850   -3.8680   26.0650 F   0  0  0  0  0  0  0  0  0  0  0  0
  -22.7610  -13.5650   21.2840 C   0  0  0  0  0  0  0  0  0  0  0  0
  -22.1430  -12.8610   22.2250 N   0  0  0  0  0  0  0  0  0  0  0  0
  -22.2770  -14.6070   20.8460 O   0  0  0  0  0  0  0  0  0  0  0  0
  -22.5500  -12.0180   22.6000 H   0  0  0  0  0  0  0  0  0  0  0  0
  -21.2490  -13.1730   22.5780 H   0  0  0  0  0  0  0  0  0  0  0  0
  -25.2850  -15.2220   20.1900 N   0  0  0  0  0  0  0  0  0  0  0  0
  -24.5090  -15.8510   20.3630 H   0  0  0  0  0  0  0  0  0  0  0  0
  -25.9940  -15.6260   19.5950 H   0  0  0  0  0  0  0  0  0  0  0  0
  -32.5060  -21.6720   19.3270 C   0  0  0  0  0  2  0  0  0  0  0  0
  -33.0840  -20.4200   19.9230 C   0  0  0  0  0  2  0  0  0  0  0  0
  -31.7360  -20.9290   20.3970 C   0  0  0  0  0  3  0  0  0  0  0  0
  -25.8690  -18.1190   20.3990 C   0  0  0  0  0  2  0  0  0  0  0  0
  -26.5810  -16.8000   20.2640 C   0  0  0  0  0  2  0  0  0  0  0  0
  -27.0250  -17.9860   19.4280 C   0  0  0  0  0  3  0  0  0  0  0  0
  -29.4950  -23.6420   18.8460 C   0  0  0  0  0  2  0  0  0  0  0  0
  -29.0540  -22.7410   19.9870 C   0  0  0  0  0  3  0  0  0  0  0  0
  -28.2070  -24.1810   19.4090 C   0  0  0  0  0  3  0  0  0  0  0  0
  -28.3300  -25.7950   19.6680 O   0  0  0  0  0  0  0  0  0  0  0  0
  -24.4890  -31.4030   22.8720 C   0  0  0  0  0  0  0  0  0  0  0  0
  -27.2560  -26.8170   19.6410 C   0  0  0  0  0  0  0  0  0  0  0  0
  -23.3540  -30.0300   21.1720 C   0  0  0  0  0  3  0  0  0  0  0  0
  -24.8690  -28.5650   19.6760 C   0  0  0  0  0  0  0  0  0  0  0  0
  -25.9040  -30.3730   21.0320 C   0  0  0  0  0  2  0  0  0  0  0  0
  -26.0360  -29.0030   20.3130 C   0  0  0  0  0  0  0  0  0  0  0  0
  -27.2240  -28.1500   20.2730 C   0  0  0  0  0  3  0  0  0  0  0  0
  -26.0550  -26.5230   18.9580 C   0  0  0  0  0  3  0  0  0  0  0  0
  -24.9000  -27.3460   18.9780 C   0  0  0  0  0  3  0  0  0  0  0  0
  -23.6090  -29.4220   19.7650 C   0  0  0  0  0  2  0  0  0  0  0  0
  -24.6030  -30.6260   21.7470 N   0  0  0  0  0  0  0  0  0  0  0  0
  -23.3900  -31.6180   23.4080 O   0  0  0  0  0  0  0  0  0  0  0  0
  -22.7110  -28.9600   22.0910 C   0  0  0  0  0  0  0  0  0  0  0  0
  -21.3880  -28.7430   21.9620 N   0  0  0  0  0  0  0  0  0  0  0  0
  -23.4070  -28.3250   22.8880 O   0  0  0  0  0  0  0  0  0  0  0  0
  -20.8790  -29.3080   21.2980 H   0  0  0  0  0  0  0  0  0  0  0  0
  -18.0580  -27.3900   22.4460 C   0  0  0  0  0  0  0  0  0  0  0  0
  -20.6100  -27.7360   22.6930 C   0  0  0  0  0  3  0  0  0  0  0  0
  -20.7560  -26.3420   22.0410 C   0  0  0  0  0  2  0  0  0  0  0  0
  -19.6520  -26.0320   21.0250 C   0  0  0  0  0  2  0  0  0  0  0  0
  -18.2760  -26.0890   21.6920 C   0  0  0  0  0  2  0  0  0  0  0  0
  -19.1540  -28.1720   22.9020 C   0  0  0  0  0  0  0  0  0  0  0  0
  -18.8940  -29.3880   23.5700 C   0  0  0  0  0  3  0  0  0  0  0  0
  -17.5730  -29.8240   23.7860 C   0  0  0  0  0  3  0  0  0  0  0  0
  -16.4930  -29.0400   23.3430 C   0  0  0  0  0  3  0  0  0  0  0  0
  -16.7360  -27.8240   22.6800 C   0  0  0  0  0  3  0  0  0  0  0  0
  -25.7330  -32.0720   23.5310 C   0  0  0  0  0  3  0  0  0  0  0  0
  -26.3280  -31.2290   24.7260 C   0  0  1  0  0  0  0  0  0  0  0  0
  -25.2780  -30.8240   25.7880 C   0  0  0  0  0  1  0  0  0  0  0  0
  -26.9950  -29.9330   24.2120 C   0  0  0  0  0  1  0  0  0  0  0  0
  -27.4370  -32.0400   25.4380 C   0  0  0  0  0  1  0  0  0  0  0  0
  -25.3310  -33.4080   24.0050 N   0  0  0  0  0  0  0  0  0  0  0  0
  -25.5660  -34.5560   23.3550 C   0  0  0  0  0  0  0  0  0  0  0  0
  -26.2070  -34.6050   22.3010 O   0  0  0  0  0  0  0  0  0  0  0  0
  -24.7520  -33.4370   24.8310 H   0  0  0  0  0  0  0  0  0  0  0  0
  -23.7020  -36.2470   23.2490 C   0  0  0  0  0  1  0  0  0  0  0  0
  -25.0030  -35.8560   23.9670 C   0  0  0  0  0  3  0  0  0  0  0  0
  -27.1040  -36.8170   24.8050 C   0  0  0  0  0  1  0  0  0  0  0  0
  -25.9540  -36.9890   23.9210 N   0  0  0  0  0  0  0  0  0  0  0  0
  -25.4900  -37.8580   24.1690 H   0  0  0  0  0  0  0  0  0  0  0  0
  1  2  1  0
  2  6  2  0
  2 47  1  0
  3  4  2  0
  4  6  1  0
  5  3  1  0
  5  1  2  0
  7 15  1  0
  8 13  1  0
  9 10  1  0
  9  8  1  0
 11 10  1  0
 11 20  1  0
 11 12  1  0
 13  7  1  0
 13 12  1  0
 14  7  2  0
 15  4  1  0
 15 16  1  0
 17 18  2  0
 18 37  1  0
 19 18  1  0
 19 22  1  0
 20 21  1  0
 20 17  1  0
 21 19  2  0
 22 23  1  0
 23 24  2  0
 25 28  1  0
 25 24  1  0
 26 25  2  0
 27 26  1  0
 27 22  2  0
 28 29  1  0
 29 30  1  0
 30 31  2  0
 32 31  1  0
 32 36  1  0
 33 32  2  0
 34 29  2  0
 34 33  1  0
 35 34  1  0
 37 38  1  0
 38 41  1  0
 38 40  1  0
 39 37  2  0
 42 17  1  0
 42 43  1  0
 44 42  1  0
 45 46  1  0
 45 47  1  0
 46 47  1  0
 49 48  1  0
 50  3  1  0
 50 49  1  0
 50 48  1  0
 51 53  1  0
 51 52  1  0
 52  1  1  0
 53 54  1  0
 53 52  1  0
 55 66  2  0
 56 54  1  0
 56 61  1  0
 57 65  1  0
 57 67  1  0
 58 64  1  0
 58 60  1  0
 59 65  1  0
 60 59  1  0
 61 60  2  0
 62 63  1  0
 62 56  2  0
 63 58  2  0
 64 57  1  0
 65 55  1  0
 67 69  2  0
 68 67  1  0
 70 68  1  0
 71 80  2  0
 71 76  1  0
 72 68  1  0
 72 76  1  0
 73 72  1  0
 74 75  1  0
 74 73  1  0
 75 71  1  0
 76 77  2  0
 77 78  1  0
 79 78  2  0
 80 79  1  0
 81 55  1  0
 81 86  1  0
 81 82  1  0
 82 85  1  1
 82 83  1  0
 84 82  1  0
 86 89  1  0
 87 91  1  0
 87 86  1  0
 88 87  2  0
 91 90  1  0
 93 91  1  0
 93 94  1  0
 93 92  1  0
M  ISO  4   7 100  15 100  53 101  54 101
M  END
>  <TORSDO>  (82) 
F 19

>  <SCORE>  (82) 
-12.452

>  <name>  (82) 
82

>  <ligand_id>  (82) 
82

>  <original_smiles>  (82) 
[H]c1c([H])c([H])c2c(c1[H])C([H])([H])C([H])([H])C([H])([H])C2([H])N([H])C(=O)C1([H])N(C(=O)C([H])(N([H])C(=O)C([H])(N([H])C([H])([H])[H])C([H])([H])[H])C(C([H])([H])[H])(C([H])([H])[H])C([H])([H])[H])C([H])([H])c2c([H])c(OC3([H])C([H])([H])C3([H])c3nc(C4([H])C([H])([H])C4([H])[H])c(N([H])C(=O)N4C([H])([H])C([H])([H])C([H])([H])C([H])(n5nc(-c6c([H])c([H])c(Oc7c([H])c([H])c(F)c([H])c7F)c([H])c6[H])c(C(=O)N([H])[H])c5N([H])[H])C4([H])[H])nc3C3([H])C([H])([H])C3([H])[H])c([H])c([H])c2C1([H])[H]

>  <smiles>  (82) 
[H]c1c([H])c([H])c2c(c1[H])C([H])([H])C([H])([H])C([H])([H])C2([H])N([H])C(=O)C1([H])N(C(=O)C([H])(N([H])C(=O)C([H])(N([H])C([H])([H])[H])C([H])([H])[H])C(C([H])([H])[H])(C([H])([H])[H])C([H])([H])[H])C([H])([H])c2c([H])c(OC3([H])C([H])([H])C3([H])c3nc(C4([H])C([H])([H])C4([H])[H])c(N([H])C(=O)N4C([H])([H])C([H])([H])C([H])([H])C([H])(n5nc(-c6c([H])c([H])c(Oc7c([H])c([H])c(F)c([H])c7F)c([H])c6[H])c(C(=O)N([H])[H])c5N([H])[H])C4([H])[H])nc3C3([H])C([H])([H])C3([H])[H])c([H])c([H])c2C1([H])[H]

$$$$
83:0:0
     RDKit          3D

 95105  0  0  1  0  0  0  0  0999 V2000
  -28.8880  -23.9800   19.0640 C   0  0  0  0  0  3  0  0  0  0  0  0
  -29.0020  -22.8650   21.4840 C   0  0  0  0  0  3  0  0  0  0  0  0
  -29.2590  -21.9690   20.3730 C   0  0  0  0  0  0  0  0  0  0  0  0
  -28.6360  -24.8690   20.1840 C   0  0  0  0  0  0  0  0  0  0  0  0
  -29.0730  -22.3330   22.9010 C   0  0  0  0  0  1  0  0  0  0  0  0
  -29.1730  -22.6030   19.1550 N   0  0  0  0  0  0  0  0  0  0  0  0
  -28.7090  -24.2290   21.3980 N   0  0  0  0  0  0  0  0  0  0  0  0
  -27.7520  -25.0770   16.9760 C   0  0  0  0  0  2  0  0  0  0  0  0
  -28.3970  -23.8100   16.4790 C   0  0  0  0  0  2  0  0  0  0  0  0
  -28.9820  -24.5360   17.6740 C   0  0  0  0  0  3  0  0  0  0  0  0
  -29.6430  -20.5360   20.5640 N   0  0  0  0  0  0  0  0  0  0  0  0
  -29.7050  -20.3030   21.5500 H   0  0  0  0  0  0  0  0  0  0  0  0
  -30.8430  -19.5310   18.6170 C   0  0  0  0  0  2  0  0  0  0  0  0
  -31.2230  -18.0520   18.6040 C   0  0  0  0  0  2  0  0  0  0  0  0
  -29.7630  -19.2620   19.6720 C   0  0  0  0  0  3  0  0  0  0  0  0
  -30.6450  -17.8480   20.0190 C   0  0  0  0  0  3  0  0  0  0  0  0
  -30.8740  -15.1060   19.9240 C   0  0  0  0  0  0  0  0  0  0  0  0
  -30.6420  -12.7670   18.9710 C   0  0  0  0  0  2  0  0  0  0  0  0
  -29.6590  -12.7520   17.7780 C   0  0  0  0  0  2  0  0  0  0  0  0
  -28.2110  -12.5730   18.2720 C   0  0  0  0  0  2  0  0  0  0  0  0
  -27.8770  -13.4990   19.4710 C   0  0  0  0  0  3  0  0  0  0  0  0
  -28.9780  -13.4860   20.5510 C   0  0  0  0  0  2  0  0  0  0  0  0
  -30.2270  -13.8710   19.8850 N   0  0  0  0  0  0  0  0  0  0  0  0
  -32.0740  -15.1090   19.6250 O   0  0  0  0  0  0  0  0  0  0  0  0
  -30.1630  -16.3360   20.0820 N   0  0  0  0  0  0  0  0  0  0  0  0
  -29.1790  -16.2190   20.2740 H   0  0  0  0  0  0  0  0  0  0  0  0
  -25.5470  -14.1260   20.3190 C   0  0  0  0  0  0  0  0  0  0  0  0
  -24.4800  -13.3730   20.7260 C   0  0  0  0  0  0  0  0  0  0  0  0
  -24.9100  -12.0120   20.6620 C   0  0  0  0  0  0  0  0  0  0  0  0
  -26.5570  -13.2260   20.0250 N   0  0  0  0  0  0  0  0  0  0  0  0
  -26.1860  -11.9480   20.2980 N   0  0  0  0  0  0  0  0  0  0  0  0
  -24.1600  -10.7660   20.8670 C   0  0  0  0  0  0  0  0  0  0  0  0
  -24.5880   -9.7900   21.7950 C   0  0  0  0  0  3  0  0  0  0  0  0
  -23.8380   -8.6090   21.9890 C   0  0  0  0  0  3  0  0  0  0  0  0
  -22.6460   -8.3970   21.2560 C   0  0  0  0  0  0  0  0  0  0  0  0
  -22.2370   -9.3600   20.3180 C   0  0  0  0  0  3  0  0  0  0  0  0
  -22.9880  -10.5320   20.1210 C   0  0  0  0  0  3  0  0  0  0  0  0
  -21.8660   -7.2700   21.3610 O   0  0  0  0  0  0  0  0  0  0  0  0
  -21.8030   -6.5440   22.5240 C   0  0  0  0  0  0  0  0  0  0  0  0
  -21.3470   -7.1150   23.7330 C   0  0  0  0  0  3  0  0  0  0  0  0
  -21.2310   -6.3160   24.8880 C   0  0  0  0  0  3  0  0  0  0  0  0
  -21.5590   -4.9470   24.8340 C   0  0  0  0  0  0  0  0  0  0  0  0
  -22.0060   -4.3770   23.6290 C   0  0  0  0  0  3  0  0  0  0  0  0
  -22.1240   -5.1730   22.4770 C   0  0  0  0  0  0  0  0  0  0  0  0
  -22.5360   -4.6150   21.3130 F   0  0  0  0  0  0  0  0  0  0  0  0
  -21.4400   -4.1780   25.9410 F   0  0  0  0  0  0  0  0  0  0  0  0
  -23.1070  -13.8810   21.0550 C   0  0  0  0  0  0  0  0  0  0  0  0
  -22.4020  -13.2030   21.9540 N   0  0  0  0  0  0  0  0  0  0  0  0
  -22.6720  -14.9160   20.5510 O   0  0  0  0  0  0  0  0  0  0  0  0
  -22.7690  -12.3670   22.3830 H   0  0  0  0  0  0  0  0  0  0  0  0
  -21.4810  -13.5270   22.2160 H   0  0  0  0  0  0  0  0  0  0  0  0
  -25.7330  -15.4940   20.1460 N   0  0  0  0  0  0  0  0  0  0  0  0
  -24.9810  -16.1590   20.2880 H   0  0  0  0  0  0  0  0  0  0  0  0
  -26.5640  -15.9160   19.7520 H   0  0  0  0  0  0  0  0  0  0  0  0
  -28.5980  -26.3450   20.1410 O   0  0  0  0  0  0  0  0  0  0  0  0
  -24.7000  -31.8260   23.2020 C   0  0  0  0  0  0  0  0  0  0  0  0
  -27.4680  -27.2380   20.1460 C   0  0  0  0  0  0  0  0  0  0  0  0
  -23.5670  -30.4190   21.5230 C   0  0  0  0  0  3  0  0  0  0  0  0
  -25.0820  -28.9030   20.1010 C   0  0  0  0  0  0  0  0  0  0  0  0
  -26.1120  -30.7650   21.4010 C   0  0  0  0  0  2  0  0  0  0  0  0
  -26.2360  -29.3820   20.7350 C   0  0  0  0  0  0  0  0  0  0  0  0
  -27.4270  -28.5630   20.7400 C   0  0  0  0  0  3  0  0  0  0  0  0
  -26.2840  -26.8530   19.4830 C   0  0  0  0  0  3  0  0  0  0  0  0
  -25.1180  -27.6530   19.4620 C   0  0  0  0  0  3  0  0  0  0  0  0
  -23.8300  -29.7660   20.1390 C   0  0  0  0  0  2  0  0  0  0  0  0
  -24.8110  -31.0260   22.0980 N   0  0  0  0  0  0  0  0  0  0  0  0
  -23.5980  -32.0700   23.7180 O   0  0  0  0  0  0  0  0  0  0  0  0
  -22.9050  -29.3800   22.4610 C   0  0  0  0  0  0  0  0  0  0  0  0
  -21.5870  -29.1630   22.3020 N   0  0  0  0  0  0  0  0  0  0  0  0
  -23.5800  -28.7700   23.2930 O   0  0  0  0  0  0  0  0  0  0  0  0
  -21.0970  -29.7090   21.6070 H   0  0  0  0  0  0  0  0  0  0  0  0
  -18.2440  -27.8280   22.7050 C   0  0  0  0  0  0  0  0  0  0  0  0
  -20.7820  -28.1890   23.0440 C   0  0  0  0  0  3  0  0  0  0  0  0
  -20.9560  -26.7660   22.4630 C   0  0  0  0  0  2  0  0  0  0  0  0
  -19.8950  -26.4080   21.4170 C   0  0  0  0  0  2  0  0  0  0  0  0
  -18.4920  -26.4920   22.0240 C   0  0  0  0  0  2  0  0  0  0  0  0
  -19.3200  -28.6310   23.1700 C   0  0  0  0  0  0  0  0  0  0  0  0
  -19.0330  -29.8780   23.7680 C   0  0  0  0  0  3  0  0  0  0  0  0
  -17.7050  -30.3230   23.9050 C   0  0  0  0  0  3  0  0  0  0  0  0
  -16.6440  -29.5170   23.4560 C   0  0  0  0  0  3  0  0  0  0  0  0
  -16.9140  -28.2720   22.8620 C   0  0  0  0  0  3  0  0  0  0  0  0
  -25.9480  -32.4890   23.8590 C   0  0  0  0  0  3  0  0  0  0  0  0
  -26.4390  -31.7380   25.1570 C   0  0  1  0  0  0  0  0  0  0  0  0
  -25.3190  -31.4860   26.1930 C   0  0  0  0  0  1  0  0  0  0  0  0
  -27.0610  -30.3680   24.7990 C   0  0  0  0  0  1  0  0  0  0  0  0
  -27.5530  -32.5590   25.8490 C   0  0  0  0  0  1  0  0  0  0  0  0
  -25.6010  -33.8840   24.1770 N   0  0  0  0  0  0  0  0  0  0  0  0
  -25.9120  -34.9420   23.4170 C   0  0  0  0  0  0  0  0  0  0  0  0
  -26.5900  -34.8500   22.3900 O   0  0  0  0  0  0  0  0  0  0  0  0
  -24.9980  -34.0270   24.9740 H   0  0  0  0  0  0  0  0  0  0  0  0
  -24.1430  -36.6950   23.0540 C   0  0  0  0  0  1  0  0  0  0  0  0
  -25.3930  -36.3230   23.8670 C   0  0  0  0  0  3  0  0  0  0  0  0
  -27.4970  -37.2730   24.7030 C   0  0  0  0  0  1  0  0  0  0  0  0
  -26.4010  -37.4000   23.7480 N   0  0  0  0  0  0  0  0  0  0  0  0
  -25.9710  -38.3120   23.8780 H   0  0  0  0  0  0  0  0  0  0  0  0
  1 10  1  0
  1  6  1  0
  1  4  1  0
  2  5  1  0
  3 11  1  0
  3  2  1  0
  4  7  2  0
  6  3  2  0
  7  2  1  0
  8 10  1  0
  9  8  1  0
  9 10  1  0
 11 12  1  0
 13 15  1  0
 14 13  1  0
 14 16  1  0
 15 16  1  0
 15 11  1  0
 16 25  1  0
 17 25  1  0
 18 23  1  0
 19 20  1  0
 19 18  1  0
 21 20  1  0
 21 30  1  0
 21 22  1  0
 23 17  1  0
 23 22  1  0
 24 17  2  0
 25 26  1  0
 27 28  2  0
 28 47  1  0
 29 28  1  0
 29 32  1  0
 30 31  1  0
 30 27  1  0
 31 29  2  0
 32 33  1  0
 33 34  2  0
 35 38  1  0
 35 34  1  0
 36 35  2  0
 37 36  1  0
 37 32  2  0
 38 39  1  0
 39 40  1  0
 40 41  2  0
 42 41  1  0
 42 46  1  0
 43 42  2  0
 44 39  2  0
 44 43  1  0
 45 44  1  0
 47 48  1  0
 48 51  1  0
 48 50  1  0
 49 47  2  0
 52 53  1  0
 52 27  1  0
 54 52  1  0
 55 57  1  0
 55  4  1  0
 56 67  2  0
 57 62  1  0
 58 66  1  0
 58 68  1  0
 59 65  1  0
 59 61  1  0
 60 66  1  0
 61 62  2  0
 61 60  1  0
 63 57  2  0
 64 63  1  0
 64 59  2  0
 65 58  1  0
 66 56  1  0
 68 70  2  0
 69 68  1  0
 71 69  1  0
 72 81  2  0
 72 77  1  0
 73 69  1  0
 73 77  1  0
 74 73  1  0
 75 76  1  0
 75 74  1  0
 76 72  1  0
 77 78  2  0
 78 79  1  0
 80 79  2  0
 81 80  1  0
 82 56  1  0
 82 87  1  0
 82 83  1  0
 83 86  1  1
 83 84  1  0
 85 83  1  0
 87 90  1  0
 88 92  1  0
 88 87  1  0
 89 88  2  0
 92 91  1  0
 94 92  1  0
 94 95  1  0
 94 93  1  0
M  ISO  4   4 101  17 100  25 100  55 101
M  END
>  <TORSDO>  (83) 
F 19

>  <SCORE>  (83) 
-13.558

>  <name>  (83) 
83

>  <ligand_id>  (83) 
83

>  <original_smiles>  (83) 
[H]c1c([H])c([H])c2c(c1[H])C([H])([H])C([H])([H])C([H])([H])C2([H])N([H])C(=O)C1([H])N(C(=O)C([H])(N([H])C(=O)C([H])(N([H])C([H])([H])[H])C([H])([H])[H])C(C([H])([H])[H])(C([H])([H])[H])C([H])([H])[H])C([H])([H])c2c([H])c(Oc3nc(C([H])([H])[H])c(N([H])C4([H])C([H])([H])C([H])([H])C4([H])N([H])C(=O)N4C([H])([H])C([H])([H])C([H])([H])C([H])(n5nc(-c6c([H])c([H])c(Oc7c([H])c([H])c(F)c([H])c7F)c([H])c6[H])c(C(=O)N([H])[H])c5N([H])[H])C4([H])[H])nc3C3([H])C([H])([H])C3([H])[H])c([H])c([H])c2C1([H])[H]

>  <smiles>  (83) 
[H]c1c([H])c([H])c2c(c1[H])C([H])([H])C([H])([H])C([H])([H])C2([H])N([H])C(=O)C1([H])N(C(=O)C([H])(N([H])C(=O)C([H])(N([H])C([H])([H])[H])C([H])([H])[H])C(C([H])([H])[H])(C([H])([H])[H])C([H])([H])[H])C([H])([H])c2c([H])c(Oc3nc(C([H])([H])[H])c(N([H])C4([H])C([H])([H])C([H])([H])C4([H])N([H])C(=O)N4C([H])([H])C([H])([H])C([H])([H])C([H])(n5nc(-c6c([H])c([H])c(Oc7c([H])c([H])c(F)c([H])c7F)c([H])c6[H])c(C(=O)N([H])[H])c5N([H])[H])C4([H])[H])nc3C3([H])C([H])([H])C3([H])[H])c([H])c([H])c2C1([H])[H]

$$$$
84:0:0
     RDKit          3D

 94103  0  0  1  0  0  0  0  0999 V2000
  -30.8640  -19.5080   20.5660 C   0  0  0  0  0  2  0  0  0  0  0  0
  -28.5080  -19.0780   20.3620 C   0  0  0  0  0  2  0  0  0  0  0  0
  -30.4980  -20.9800   19.8780 C   0  0  0  0  0  2  0  0  0  0  0  0
  -28.3630  -20.6470   20.8890 C   0  0  0  0  0  2  0  0  0  0  0  0
  -29.8700  -18.2230   20.6030 C   0  0  0  0  0  3  0  0  0  0  0  0
  -29.1670  -21.7210   20.1430 N   0  0  1  0  0  4  0  0  0  0  0  0
  -28.7480  -21.7450   19.2250 H   0  0  0  0  0  0  0  0  0  0  0  0
  -30.7990  -15.4620   20.5330 C   0  0  0  0  0  0  0  0  0  0  0  0
  -30.7820  -13.0340   19.6840 C   0  0  0  0  0  2  0  0  0  0  0  0
  -29.9280  -12.7860   18.4180 C   0  0  0  0  0  2  0  0  0  0  0  0
  -28.4530  -12.5550   18.7870 C   0  0  0  0  0  2  0  0  0  0  0  0
  -27.9390  -13.5520   19.8610 C   0  0  0  0  0  3  0  0  0  0  0  0
  -28.9300  -13.7250   21.0290 C   0  0  0  0  0  2  0  0  0  0  0  0
  -30.1920  -14.1910   20.4320 N   0  0  0  0  0  0  0  0  0  0  0  0
  -32.0370  -15.4210   20.5670 O   0  0  0  0  0  0  0  0  0  0  0  0
  -30.1690  -16.6930   20.0170 N   0  0  0  0  0  0  0  0  0  0  0  0
  -29.5280  -17.5520   17.5910 C   0  0  0  0  0  2  0  0  0  0  0  0
  -30.5390  -18.3660   16.7660 C   0  0  0  0  0  2  0  0  0  0  0  0
  -31.8590  -16.8780   18.0540 C   0  0  0  0  0  2  0  0  0  0  0  0
  -30.4000  -16.7020   18.5290 C   0  0  0  0  0  3  0  0  0  0  0  0
  -33.0030  -18.2970   16.3700 C   0  0  0  0  0  1  0  0  0  0  0  0
  -31.7760  -17.5540   16.7420 N   0  0  2  0  0  4  0  0  0  0  0  0
  -31.6410  -16.8370   16.0400 H   0  0  0  0  0  0  0  0  0  0  0  0
  -25.5190  -14.0960   20.4660 C   0  0  0  0  0  0  0  0  0  0  0  0
  -24.4470  -13.3100   20.7880 C   0  0  0  0  0  0  0  0  0  0  0  0
  -24.9350  -11.9670   20.8190 C   0  0  0  0  0  0  0  0  0  0  0  0
  -26.5870  -13.2320   20.3080 N   0  0  0  0  0  0  0  0  0  0  0  0
  -26.2440  -11.9480   20.5910 N   0  0  0  0  0  0  0  0  0  0  0  0
  -24.2180  -10.6960   20.9910 C   0  0  0  0  0  0  0  0  0  0  0  0
  -24.5930   -9.7620   21.9810 C   0  0  0  0  0  3  0  0  0  0  0  0
  -23.8730   -8.5580   22.1390 C   0  0  0  0  0  3  0  0  0  0  0  0
  -22.7630   -8.2790   21.3090 C   0  0  0  0  0  0  0  0  0  0  0  0
  -22.4070   -9.2010   20.3090 C   0  0  0  0  0  3  0  0  0  0  0  0
  -23.1280  -10.3960   20.1480 C   0  0  0  0  0  3  0  0  0  0  0  0
  -22.0200   -7.1250   21.3740 O   0  0  0  0  0  0  0  0  0  0  0  0
  -21.8830   -6.4240   22.5450 C   0  0  0  0  0  0  0  0  0  0  0  0
  -21.3150   -7.0030   23.6990 C   0  0  0  0  0  3  0  0  0  0  0  0
  -21.1300   -6.2250   24.8600 C   0  0  0  0  0  3  0  0  0  0  0  0
  -21.5030   -4.8670   24.8660 C   0  0  0  0  0  0  0  0  0  0  0  0
  -22.0650   -4.2870   23.7160 C   0  0  0  0  0  3  0  0  0  0  0  0
  -22.2510   -5.0630   22.5580 C   0  0  0  0  0  0  0  0  0  0  0  0
  -22.7740   -4.4930   21.4460 F   0  0  0  0  0  0  0  0  0  0  0  0
  -21.3180   -4.1190   25.9780 F   0  0  0  0  0  0  0  0  0  0  0  0
  -23.0270  -13.7690   20.9540 C   0  0  0  0  0  0  0  0  0  0  0  0
  -22.2600  -13.0960   21.8020 N   0  0  0  0  0  0  0  0  0  0  0  0
  -22.6080  -14.7640   20.3640 O   0  0  0  0  0  0  0  0  0  0  0  0
  -22.6110  -12.2910   22.3010 H   0  0  0  0  0  0  0  0  0  0  0  0
  -21.3060  -13.3900   21.9590 H   0  0  0  0  0  0  0  0  0  0  0  0
  -25.6770  -15.4640   20.2690 N   0  0  0  0  0  0  0  0  0  0  0  0
  -24.9010  -16.1150   20.3250 H   0  0  0  0  0  0  0  0  0  0  0  0
  -26.5480  -15.9020   20.0010 H   0  0  0  0  0  0  0  0  0  0  0  0
  -29.2090  -23.3160   20.5560 C   0  0  0  0  0  3  0  0  0  0  0  0
  -28.1860  -24.6580   20.0840 C   0  0  0  0  0  3  0  0  0  0  0  0
  -28.3890  -26.2500   20.2600 O   0  0  0  0  0  0  0  0  0  0  0  0
  -24.7090  -32.0030   23.2700 C   0  0  0  0  0  0  0  0  0  0  0  0
  -27.3370  -27.2760   20.1940 C   0  0  0  0  0  0  0  0  0  0  0  0
  -23.5260  -30.6060   21.6200 C   0  0  0  0  0  3  0  0  0  0  0  0
  -24.9950  -29.0550   20.1720 C   0  0  0  0  0  0  0  0  0  0  0  0
  -26.0810  -30.8860   21.4570 C   0  0  0  0  0  2  0  0  0  0  0  0
  -26.1740  -29.4940   20.7880 C   0  0  0  0  0  0  0  0  0  0  0  0
  -27.3410  -28.6240   20.7760 C   0  0  0  0  0  3  0  0  0  0  0  0
  -26.1280  -26.9630   19.5350 C   0  0  0  0  0  3  0  0  0  0  0  0
  -24.9900  -27.8100   19.5260 C   0  0  0  0  0  3  0  0  0  0  0  0
  -23.7570  -29.9450   20.2330 C   0  0  0  0  0  2  0  0  0  0  0  0
  -24.7920  -31.1900   22.1690 N   0  0  0  0  0  0  0  0  0  0  0  0
  -23.6210  -32.2650   23.8060 O   0  0  0  0  0  0  0  0  0  0  0  0
  -22.8640  -29.5800   22.5770 C   0  0  0  0  0  0  0  0  0  0  0  0
  -21.5420  -29.3730   22.4410 N   0  0  0  0  0  0  0  0  0  0  0  0
  -23.5430  -28.9740   23.4080 O   0  0  0  0  0  0  0  0  0  0  0  0
  -21.0460  -29.9110   21.7440 H   0  0  0  0  0  0  0  0  0  0  0  0
  -18.1940  -28.0810   22.9330 C   0  0  0  0  0  0  0  0  0  0  0  0
  -20.7440  -28.4130   23.2080 C   0  0  0  0  0  3  0  0  0  0  0  0
  -20.8870  -26.9880   22.6260 C   0  0  0  0  0  2  0  0  0  0  0  0
  -19.7960  -26.6410   21.6070 C   0  0  0  0  0  2  0  0  0  0  0  0
  -18.4080  -26.7430   22.2470 C   0  0  0  0  0  2  0  0  0  0  0  0
  -19.2900  -28.8720   23.3700 C   0  0  0  0  0  0  0  0  0  0  0  0
  -19.0320  -30.1220   23.9750 C   0  0  0  0  0  3  0  0  0  0  0  0
  -17.7120  -30.5820   24.1460 C   0  0  0  0  0  3  0  0  0  0  0  0
  -16.6310  -29.7890   23.7230 C   0  0  0  0  0  3  0  0  0  0  0  0
  -16.8740  -28.5400   23.1240 C   0  0  0  0  0  3  0  0  0  0  0  0
  -25.9760  -32.6570   23.8970 C   0  0  0  0  0  3  0  0  0  0  0  0
  -26.4840  -31.9070   25.1920 C   0  0  1  0  0  0  0  0  0  0  0  0
  -25.3720  -31.6470   26.2340 C   0  0  0  0  0  1  0  0  0  0  0  0
  -27.1130  -30.5410   24.8290 C   0  0  0  0  0  1  0  0  0  0  0  0
  -27.5950  -32.7370   25.8770 C   0  0  0  0  0  1  0  0  0  0  0  0
  -25.6520  -34.0570   24.2170 N   0  0  0  0  0  0  0  0  0  0  0  0
  -25.9760  -35.1120   23.4590 C   0  0  0  0  0  0  0  0  0  0  0  0
  -26.6470  -35.0100   22.4290 O   0  0  0  0  0  0  0  0  0  0  0  0
  -25.0580  -34.2080   25.0200 H   0  0  0  0  0  0  0  0  0  0  0  0
  -24.2320  -36.8930   23.1080 C   0  0  0  0  0  1  0  0  0  0  0  0
  -25.4810  -36.4990   23.9150 C   0  0  0  0  0  3  0  0  0  0  0  0
  -27.6040  -37.4150   24.7420 C   0  0  0  0  0  1  0  0  0  0  0  0
  -26.5030  -37.5610   23.7940 N   0  0  0  0  0  0  0  0  0  0  0  0
  -26.0880  -38.4790   23.9320 H   0  0  0  0  0  0  0  0  0  0  0  0
  1  5  1  0
  2  5  1  0
  2  4  1  0
  3  6  1  0
  3  1  1  0
  5 16  1  0
  6 52  1  0
  6  4  1  0
  6  7  1  6
  8 15  2  0
  9 14  1  0
 10 11  1  0
 10  9  1  0
 12 11  1  0
 12 27  1  0
 12 13  1  0
 14  8  1  0
 14 13  1  0
 16  8  1  0
 17 20  1  0
 18 17  1  0
 19 20  1  0
 20 16  1  0
 21 22  1  0
 22 18  1  0
 22 19  1  0
 22 23  1  6
 24 25  2  0
 25 26  1  0
 25 44  1  0
 26 29  1  0
 27 24  1  0
 27 28  1  0
 28 26  2  0
 29 30  1  0
 30 31  2  0
 32 35  1  0
 32 31  1  0
 33 32  2  0
 34 33  1  0
 34 29  2  0
 35 36  1  0
 36 41  2  0
 36 37  1  0
 37 38  2  0
 38 39  1  0
 39 43  1  0
 40 39  2  0
 41 40  1  0
 42 41  1  0
 44 45  1  0
 45 48  1  0
 45 47  1  0
 46 44  2  0
 49 50  1  0
 49 24  1  0
 51 49  1  0
 53 54  1  0
 53 52  2  0
 55 66  2  0
 56 54  1  0
 56 61  1  0
 57 65  1  0
 57 67  1  0
 58 64  1  0
 58 60  1  0
 59 65  1  0
 60 59  1  0
 61 60  2  0
 62 56  2  0
 63 62  1  0
 63 58  2  0
 64 57  1  0
 65 55  1  0
 67 69  2  0
 68 67  1  0
 70 68  1  0
 71 80  2  0
 71 76  1  0
 72 68  1  0
 72 76  1  0
 73 72  1  0
 74 75  1  0
 74 73  1  0
 75 71  1  0
 76 77  2  0
 77 78  1  0
 79 78  2  0
 80 79  1  0
 81 55  1  0
 81 86  1  0
 81 82  1  0
 82 85  1  1
 82 83  1  0
 84 82  1  0
 86 89  1  0
 87 91  1  0
 87 86  1  0
 88 87  2  0
 91 90  1  0
 93 91  1  0
 93 94  1  0
 93 92  1  0
M  ISO  4   8 100  16 100  53 101  54 101
M  END
>  <TORSDO>  (84) 
F 19

>  <SCORE>  (84) 
-14.425

>  <name>  (84) 
84

>  <ligand_id>  (84) 
84

>  <original_smiles>  (84) 
[H]c1c([H])c([H])c2c(c1[H])C([H])([H])C([H])([H])C([H])([H])C2([H])N([H])C(=O)C1([H])N(C(=O)C([H])(N([H])C(=O)C([H])(N([H])C([H])([H])[H])C([H])([H])[H])C(C([H])([H])[H])(C([H])([H])[H])C([H])([H])[H])C([H])([H])c2c([H])c(OC([H])([H])C([H])([H])[N+]3([H])C([H])([H])C([H])([H])C([H])(N(C(=O)N4C([H])([H])C([H])([H])C([H])([H])C([H])(n5nc(-c6c([H])c([H])c(Oc7c([H])c([H])c(F)c([H])c7F)c([H])c6[H])c(C(=O)N([H])[H])c5N([H])[H])C4([H])[H])C4([H])C([H])([H])C([H])([H])[N+]([H])(C([H])([H])[H])C4([H])[H])C([H])([H])C3([H])[H])c([H])c([H])c2C1([H])[H]

>  <smiles>  (84) 
[H]c1c([H])c([H])c2c(c1[H])C([H])([H])C([H])([H])C([H])([H])C2([H])N([H])C(=O)C1([H])N(C(=O)C([H])(N([H])C(=O)C([H])(N([H])C([H])([H])[H])C([H])([H])[H])C(C([H])([H])[H])(C([H])([H])[H])C([H])([H])[H])C([H])([H])c2c([H])c(OC([H])([H])C([H])([H])[N+]3([H])C([H])([H])C([H])([H])C([H])(N(C(=O)N4C([H])([H])C([H])([H])C([H])([H])C([H])(n5nc(-c6c([H])c([H])c(Oc7c([H])c([H])c(F)c([H])c7F)c([H])c6[H])c(C(=O)N([H])[H])c5N([H])[H])C4([H])[H])C4([H])C([H])([H])C([H])([H])[N+]([H])(C([H])([H])[H])C4([H])[H])C([H])([H])C3([H])[H])c([H])c([H])c2C1([H])[H]

$$$$
85:0:0
     RDKit          3D

 93102  0  0  1  0  0  0  0  0999 V2000
  -29.0290  -23.6690   19.9200 C   0  0  0  0  0  3  0  0  0  0  0  0
  -28.7530  -22.2370   20.2900 C   0  0  0  0  0  0  0  0  0  0  0  0
  -28.1610  -24.8370   20.2890 C   0  0  0  0  0  0  0  0  0  0  0  0
  -26.8610  -23.1720   21.2930 C   0  0  0  0  0  0  0  0  0  0  0  0
  -25.6180  -22.8950   22.1100 C   0  0  0  0  0  1  0  0  0  0  0  0
  -27.5900  -22.0940   20.9570 N   0  0  0  0  0  0  0  0  0  0  0  0
  -27.0810  -24.4640   21.0030 N   0  0  0  0  0  0  0  0  0  0  0  0
  -28.2920  -26.3250   20.0560 O   0  0  0  0  0  0  0  0  0  0  0  0
  -24.6930  -32.0550   23.2980 C   0  0  0  0  0  0  0  0  0  0  0  0
  -27.2470  -27.3590   20.1050 C   0  0  0  0  0  0  0  0  0  0  0  0
  -23.4880  -30.7110   21.6210 C   0  0  0  0  0  3  0  0  0  0  0  0
  -24.9320  -29.1720   20.1380 C   0  0  0  0  0  0  0  0  0  0  0  0
  -26.0470  -30.9570   21.4610 C   0  0  0  0  0  2  0  0  0  0  0  0
  -26.1170  -29.5760   20.7650 C   0  0  0  0  0  0  0  0  0  0  0  0
  -27.2720  -28.6880   20.7310 C   0  0  0  0  0  3  0  0  0  0  0  0
  -26.0360  -27.0920   19.4310 C   0  0  0  0  0  3  0  0  0  0  0  0
  -24.9080  -27.9460   19.4540 C   0  0  0  0  0  3  0  0  0  0  0  0
  -23.7080  -30.0780   20.2200 C   0  0  0  0  0  2  0  0  0  0  0  0
  -24.7640  -31.2640   22.1810 N   0  0  0  0  0  0  0  0  0  0  0  0
  -23.6070  -32.3220   23.8380 O   0  0  0  0  0  0  0  0  0  0  0  0
  -22.8100  -29.6770   22.5560 C   0  0  0  0  0  0  0  0  0  0  0  0
  -21.4860  -29.4860   22.4100 N   0  0  0  0  0  0  0  0  0  0  0  0
  -23.4790  -29.0470   23.3770 O   0  0  0  0  0  0  0  0  0  0  0  0
  -20.9980  -30.0460   21.7240 H   0  0  0  0  0  0  0  0  0  0  0  0
  -18.1180  -28.2300   22.8780 C   0  0  0  0  0  0  0  0  0  0  0  0
  -20.6740  -28.5170   23.1520 C   0  0  0  0  0  3  0  0  0  0  0  0
  -20.7920  -27.1040   22.5350 C   0  0  0  0  0  2  0  0  0  0  0  0
  -19.6950  -26.7980   21.5110 C   0  0  0  0  0  2  0  0  0  0  0  0
  -18.3110  -26.9050   22.1600 C   0  0  0  0  0  2  0  0  0  0  0  0
  -19.2260  -28.9940   23.3300 C   0  0  0  0  0  0  0  0  0  0  0  0
  -18.9910  -30.2310   23.9670 C   0  0  0  0  0  3  0  0  0  0  0  0
  -17.6790  -30.7070   24.1520 C   0  0  0  0  0  3  0  0  0  0  0  0
  -16.5850  -29.9420   23.7150 C   0  0  0  0  0  3  0  0  0  0  0  0
  -16.8050  -28.7040   23.0840 C   0  0  0  0  0  3  0  0  0  0  0  0
  -25.9700  -32.6750   23.9400 C   0  0  0  0  0  3  0  0  0  0  0  0
  -26.4590  -31.8980   25.2240 C   0  0  1  0  0  0  0  0  0  0  0  0
  -25.3480  -31.6730   26.2770 C   0  0  0  0  0  1  0  0  0  0  0  0
  -27.0330  -30.5140   24.8480 C   0  0  0  0  0  1  0  0  0  0  0  0
  -27.6080  -32.6810   25.9040 C   0  0  0  0  0  1  0  0  0  0  0  0
  -25.6690  -34.0770   24.2780 N   0  0  0  0  0  0  0  0  0  0  0  0
  -25.9800  -35.1330   23.5150 C   0  0  0  0  0  0  0  0  0  0  0  0
  -26.6160  -35.0300   22.4620 O   0  0  0  0  0  0  0  0  0  0  0  0
  -25.1020  -34.2310   25.0990 H   0  0  0  0  0  0  0  0  0  0  0  0
  -24.2330  -36.9260   23.2500 C   0  0  0  0  0  1  0  0  0  0  0  0
  -25.5160  -36.5240   23.9950 C   0  0  0  0  0  3  0  0  0  0  0  0
  -27.6830  -37.4250   24.7190 C   0  0  0  0  0  1  0  0  0  0  0  0
  -26.5400  -37.5800   23.8240 N   0  0  0  0  0  0  0  0  0  0  0  0
  -26.1370  -38.5000   23.9780 H   0  0  0  0  0  0  0  0  0  0  0  0
  -29.4950  -20.7950   19.7730 C   0  0  0  0  0  3  0  0  0  0  0  0
  -30.6600  -15.5500   20.2170 C   0  0  0  0  0  0  0  0  0  0  0  0
  -30.5290  -13.1210   19.3880 C   0  0  0  0  0  2  0  0  0  0  0  0
  -29.6470  -12.8910   18.1310 C   0  0  0  0  0  2  0  0  0  0  0  0
  -28.1430  -13.1200   18.4020 C   0  0  0  0  0  2  0  0  0  0  0  0
  -27.8380  -13.1840   19.9050 C   0  0  0  0  0  3  0  0  0  0  0  0
  -28.7640  -13.9650   20.8430 C   0  0  0  0  0  2  0  0  0  0  0  0
  -30.0140  -14.3070   20.1620 N   0  0  0  0  0  0  0  0  0  0  0  0
  -31.8770  -15.4980   20.0020 O   0  0  0  0  0  0  0  0  0  0  0  0
  -30.6450  -18.1790   20.8390 C   0  0  0  0  0  2  0  0  0  0  0  0
  -29.2570  -17.7750   19.4620 C   0  0  0  0  0  2  0  0  0  0  0  0
  -29.4340  -19.1260   20.3490 C   0  0  0  0  0  3  0  0  0  0  0  0
  -30.0000  -16.8440   20.4250 N   0  0  0  0  0  0  0  0  0  0  0  0
  -25.4190  -14.1230   20.4210 C   0  0  0  0  0  0  0  0  0  0  0  0
  -24.3080  -13.3980   20.7810 C   0  0  0  0  0  0  0  0  0  0  0  0
  -24.7110  -12.0320   20.7670 C   0  0  0  0  0  0  0  0  0  0  0  0
  -26.4300  -13.1730   20.2600 N   0  0  0  0  0  0  0  0  0  0  0  0
  -25.9810  -11.9280   20.4760 N   0  0  0  0  0  0  0  0  0  0  0  0
  -23.9870  -10.7840   20.9560 C   0  0  0  0  0  0  0  0  0  0  0  0
  -24.4160   -9.8320   21.9070 C   0  0  0  0  0  3  0  0  0  0  0  0
  -23.7070   -8.6260   22.0710 C   0  0  0  0  0  3  0  0  0  0  0  0
  -22.5610   -8.3700   21.2820 C   0  0  0  0  0  0  0  0  0  0  0  0
  -22.1610   -9.3100   20.3160 C   0  0  0  0  0  3  0  0  0  0  0  0
  -22.8710  -10.5090   20.1490 C   0  0  0  0  0  3  0  0  0  0  0  0
  -21.8170   -7.2200   21.3600 O   0  0  0  0  0  0  0  0  0  0  0  0
  -21.7180   -6.5120   22.5280 C   0  0  0  0  0  0  0  0  0  0  0  0
  -21.1840   -7.0800   23.7050 C   0  0  0  0  0  3  0  0  0  0  0  0
  -21.0350   -6.2900   24.8630 C   0  0  0  0  0  3  0  0  0  0  0  0
  -21.4100   -4.9340   24.8420 C   0  0  0  0  0  0  0  0  0  0  0  0
  -21.9380   -4.3660   23.6690 C   0  0  0  0  0  3  0  0  0  0  0  0
  -22.0890   -5.1530   22.5140 C   0  0  0  0  0  0  0  0  0  0  0  0
  -22.5800   -4.5970   21.3800 F   0  0  0  0  0  0  0  0  0  0  0  0
  -21.2590   -4.1710   25.9500 F   0  0  0  0  0  0  0  0  0  0  0  0
  -22.9190  -13.9050   21.0470 C   0  0  0  0  0  0  0  0  0  0  0  0
  -22.1760  -13.2130   21.9070 N   0  0  0  0  0  0  0  0  0  0  0  0
  -22.4980  -14.9370   20.5290 O   0  0  0  0  0  0  0  0  0  0  0  0
  -22.5280  -12.3750   22.3440 H   0  0  0  0  0  0  0  0  0  0  0  0
  -21.2410  -13.5250   22.1300 H   0  0  0  0  0  0  0  0  0  0  0  0
  -25.6420  -15.4830   20.2250 N   0  0  0  0  0  0  0  0  0  0  0  0
  -24.9080  -16.1790   20.2880 H   0  0  0  0  0  0  0  0  0  0  0  0
  -26.5290  -15.8620   19.9140 H   0  0  0  0  0  0  0  0  0  0  0  0
  -29.1160  -20.7790   18.3590 N   0  0  0  0  0  4  0  0  0  0  0  0
  -28.1530  -20.5100   18.2800 H   0  0  0  0  0  0  0  0  0  0  0  0
  -29.7010  -20.1690   17.8220 H   0  0  0  0  0  0  0  0  0  0  0  0
  -29.2020  -21.7150   18.0070 H   0  0  0  0  0  0  0  0  0  0  0  0
  1  3  1  0
  1  2  2  0
  2  6  1  0
  3  7  2  0
  4  5  1  0
  6  4  2  0
  7  4  1  0
  8 10  1  0
  8  3  1  0
  9 20  2  0
 10 15  1  0
 11 19  1  0
 11 21  1  0
 12 18  1  0
 12 14  1  0
 13 19  1  0
 14 13  1  0
 15 14  2  0
 16 17  1  0
 16 10  2  0
 17 12  2  0
 18 11  1  0
 19  9  1  0
 21 23  2  0
 22 21  1  0
 24 22  1  0
 25 34  2  0
 25 30  1  0
 26 22  1  0
 26 30  1  0
 27 26  1  0
 28 29  1  0
 28 27  1  0
 29 25  1  0
 30 31  2  0
 31 32  1  0
 33 32  2  0
 34 33  1  0
 35  9  1  0
 35 40  1  0
 35 36  1  0
 36 39  1  1
 36 37  1  0
 38 36  1  0
 40 43  1  0
 41 45  1  0
 41 40  1  0
 42 41  2  0
 45 44  1  0
 47 48  1  0
 47 45  1  0
 47 46  1  0
 49 90  1  0
 49  2  1  0
 50 61  1  0
 51 56  1  0
 52 53  1  0
 52 51  1  0
 54 53  1  0
 54 65  1  0
 54 55  1  0
 56 50  1  0
 56 55  1  0
 57 50  2  0
 59 60  1  0
 59 61  1  0
 60 49  1  0
 60 58  1  0
 61 58  1  0
 62 63  2  0
 63 82  1  0
 64 63  1  0
 64 67  1  0
 65 62  1  0
 65 66  1  0
 66 64  2  0
 67 68  1  0
 68 69  2  0
 70 73  1  0
 70 69  1  0
 71 70  2  0
 72 71  1  0
 72 67  2  0
 73 74  1  0
 74 75  1  0
 75 76  2  0
 77 76  1  0
 77 81  1  0
 78 77  2  0
 79 74  2  0
 79 78  1  0
 80 79  1  0
 82 83  1  0
 83 86  1  0
 83 85  1  0
 84 82  2  0
 87 88  1  0
 87 62  1  0
 89 87  1  0
 91 90  1  0
 92 90  1  0
 93 90  1  0
M  ISO  4   3 101   8 101  50 100  61 100
M  END
>  <TORSDO>  (85) 
F 18

>  <SCORE>  (85) 
-15.012

>  <name>  (85) 
85

>  <ligand_id>  (85) 
85

>  <original_smiles>  (85) 
[H]c1c(Oc2c([H])c([H])c3c(c2[H])C([H])([H])N(C(=O)C([H])(N([H])C(=O)C([H])(N([H])C([H])([H])[H])C([H])([H])[H])C(C([H])([H])[H])(C([H])([H])[H])C([H])([H])[H])C([H])(C(=O)N([H])C2([H])c4c([H])c([H])c([H])c([H])c4C([H])([H])C([H])([H])C2([H])[H])C3([H])[H])nc(C([H])([H])[H])nc1C([H])(C1([H])C([H])([H])N(C(=O)N2C([H])([H])C([H])([H])C([H])([H])C([H])(n3nc(-c4c([H])c([H])c(Oc5c([H])c([H])c(F)c([H])c5F)c([H])c4[H])c(C(=O)N([H])[H])c3N([H])[H])C2([H])[H])C1([H])[H])[N+]([H])([H])[H]

>  <smiles>  (85) 
[H]c1c(Oc2c([H])c([H])c3c(c2[H])C([H])([H])N(C(=O)C([H])(N([H])C(=O)C([H])(N([H])C([H])([H])[H])C([H])([H])[H])C(C([H])([H])[H])(C([H])([H])[H])C([H])([H])[H])C([H])(C(=O)N([H])C2([H])c4c([H])c([H])c([H])c([H])c4C([H])([H])C([H])([H])C2([H])[H])C3([H])[H])nc(C([H])([H])[H])nc1C([H])(C1([H])C([H])([H])N(C(=O)N2C([H])([H])C([H])([H])C([H])([H])C([H])(n3nc(-c4c([H])c([H])c(Oc5c([H])c([H])c(F)c([H])c5F)c([H])c4[H])c(C(=O)N([H])[H])c3N([H])[H])C2([H])[H])C1([H])[H])[N+]([H])([H])[H]

$$$$
86:0:0
     RDKit          3D

 92 90  0  0  1  0  0  0  0  0999 V2000
  -25.3390  -13.6400   19.3470 C   0  0  0  0  0  1  0  0  0  0  0  0
  -25.2370  -15.3280   18.4960 C   0  0  0  0  0  3  0  0  0  0  0  0
  -25.4230  -14.5460   22.3710 C   0  0  0  0  0  1  0  0  0  0  0  0
  -25.2580  -17.9110   20.8080 C   0  0  0  0  0  1  0  0  0  0  0  0
  -25.6000  -11.5290   19.7880 C   0  0  0  0  0 15  0  0  0  0  0  0
  -25.8690  -11.3230   22.2350 C   0  0  0  0  0 15  0  0  0  0  0  0
  -25.0310  -16.9710   19.3120 N   0  0  0  0  0  2  0  0  0  0  0  0
  -25.1940  -16.5410   22.1680 N   0  0  0  0  0 15  0  0  0  0  0  0
  -25.5890  -13.0210   23.2500 N   0  0  0  0  0  2  0  0  0  0  0  0
  -25.7240  -13.0410   24.2540 H   0  0  0  0  0  0  0  0  0  0  0  0
  -26.6950  -15.4060   17.6540 C   0  0  0  0  0  2  0  0  0  0  0  0
  -28.3770  -15.8750   18.0020 C   0  0  0  0  0  2  0  0  0  0  0  0
  -30.5170  -14.8110   19.7440 C   0  0  0  0  0  0  0  0  0  0  0  0
  -30.6200  -12.4200   19.1650 C   0  0  0  0  0  2  0  0  0  0  0  0
  -29.4960  -12.3460   18.1160 C   0  0  0  0  0  2  0  0  0  0  0  0
  -28.1430  -12.2990   18.8450 C   0  0  0  0  0  2  0  0  0  0  0  0
  -28.1310  -13.3800   19.9830 C   0  0  0  0  0  3  0  0  0  0  0  0
  -29.2260  -13.1690   20.9540 C   0  0  0  0  0  2  0  0  0  0  0  0
  -30.2600  -13.5150   20.0630 N   0  0  0  0  0  0  0  0  0  0  0  0
  -31.6790  -15.1540   19.9570 O   0  0  0  0  0  0  0  0  0  0  0  0
  -29.5210  -15.6980   19.1750 N   0  0  0  0  0  0  0  0  0  0  0  0
  -29.8820  -16.6260   19.3550 H   0  0  0  0  0  0  0  0  0  0  0  0
  -26.1860  -15.2440   20.5260 C   0  0  0  0  0  2  0  0  0  0  0  0
  -24.0500  -14.5890   20.7530 C   0  0  0  0  0  2  0  0  0  0  0  0
  -24.3730  -12.8910   21.1940 C   0  0  0  0  0  2  0  0  0  0  0  0
  -27.1590  -14.0860   20.7100 N   0  0  0  0  0  0  0  0  0  0  0  0
  -26.5180  -13.0730   21.1080 N   0  0  0  0  0  1  0  0  0  0  0  0
  -23.4800  -11.2720   21.2990 C   0  0  0  0  0  0  0  0  0  0  0  0
  -23.6230  -10.1610   22.2860 C   0  0  0  0  0  3  0  0  0  0  0  0
  -23.3090   -8.7600   22.2520 C   0  0  0  0  0  3  0  0  0  0  0  0
  -22.3880   -8.2920   21.3170 C   0  0  0  0  0  0  0  0  0  0  0  0
  -22.0680   -9.2780   20.3360 C   0  0  0  0  0  3  0  0  0  0  0  0
  -22.6180  -10.6340   20.3080 C   0  0  0  0  0  3  0  0  0  0  0  0
  -21.7800   -7.0210   21.3570 O   0  0  0  0  0  0  0  0  0  0  0  0
  -21.7430   -6.1730   22.4730 C   0  0  0  0  0  0  0  0  0  0  0  0
  -21.4270   -6.6250   23.7790 C   0  0  0  0  0  3  0  0  0  0  0  0
  -21.3650   -5.7270   24.8720 C   0  0  0  0  0  3  0  0  0  0  0  0
  -21.6000   -4.3520   24.6790 C   0  0  0  0  0  0  0  0  0  0  0  0
  -21.8780   -3.8790   23.3860 C   0  0  0  0  0  3  0  0  0  0  0  0
  -21.9390   -4.7760   22.2970 C   0  0  0  0  0  0  0  0  0  0  0  0
  -22.1820   -4.2730   21.0630 F   0  0  0  0  0  0  0  0  0  0  0  0
  -21.5530   -3.4920   25.7270 F   0  0  0  0  0  0  0  0  0  0  0  0
  -22.5720  -14.6280   20.9350 C   0  0  0  0  0  0  0  0  0  0  0  0
  -21.9910  -13.7320   21.7940 N   0  0  0  0  0  0  0  0  0  0  0  0
  -21.8920  -15.2990   20.2290 O   0  0  0  0  0  0  0  0  0  0  0  0
  -22.5230  -13.1050   22.3770 H   0  0  0  0  0  0  0  0  0  0  0  0
  -20.9830  -13.7070   21.8610 H   0  0  0  0  0  0  0  0  0  0  0  0
  -27.1270  -16.1820   20.4400 N   0  0  0  0  0  0  0  0  0  0  0  0
  -26.5740  -16.7660   19.8020 H   0  0  0  0  0  0  0  0  0  0  0  0
  -27.9850  -15.8610   20.0000 H   0  0  0  0  0  0  0  0  0  0  0  0
  -25.5050  -20.6050   20.6950 C   0  0  0  0  0 15  0  0  0  0  0  0
  -26.3550  -23.0510   20.6450 O   0  0  0  0  0 15  0  0  0  0  0  0
  -24.7840  -31.6160   23.0640 C   0  0  0  0  0  0  0  0  0  0  0  0
  -26.1980  -25.0310   20.5040 C   0  0  0  0  0  2  0  0  0  0  0  0
  -23.6070  -30.2150   21.4520 C   0  0  0  0  0  3  0  0  0  0  0  0
  -24.8680  -28.2180   20.1300 C   0  0  0  0  0  0  0  0  0  0  0  0
  -26.1330  -29.7200   21.5990 C   0  0  0  0  0  2  0  0  0  0  0  0
  -25.9630  -28.1350   20.9760 C   0  0  0  0  0  0  0  0  0  0  0  0
  -26.5960  -26.6160   21.0950 C   0  0  0  0  0  2  0  0  0  0  0  0
  -25.3920  -25.7290   19.4800 C   0  0  0  0  0  3  0  0  0  0  0  0
  -24.7470  -27.0550   19.3320 C   0  0  0  0  0  3  0  0  0  0  0  0
  -23.8760  -29.4420   20.1040 C   0  0  0  0  0  2  0  0  0  0  0  0
  -24.9050  -30.6050   22.0790 N   0  0  0  0  0  0  0  0  0  0  0  0
  -23.6720  -32.0130   23.4760 O   0  0  0  0  0  0  0  0  0  0  0  0
  -22.7870  -29.3470   22.4440 C   0  0  0  0  0  0  0  0  0  0  0  0
  -21.4480  -29.2770   22.3200 N   0  0  0  0  0  0  0  0  0  0  0  0
  -23.3850  -28.7260   23.3260 O   0  0  0  0  0  0  0  0  0  0  0  0
  -20.9990  -29.8240   21.5990 H   0  0  0  0  0  0  0  0  0  0  0  0
  -18.0310  -28.1430   22.8420 C   0  0  0  0  0  0  0  0  0  0  0  0
  -20.5930  -28.3740   23.1050 C   0  0  0  0  0  3  0  0  0  0  0  0
  -20.6680  -26.9330   22.5490 C   0  0  0  0  0  2  0  0  0  0  0  0
  -19.5720  -26.6300   21.5230 C   0  0  0  0  0  2  0  0  0  0  0  0
  -18.1890  -26.7960   22.1580 C   0  0  0  0  0  2  0  0  0  0  0  0
  -19.1590  -28.8940   23.2700 C   0  0  0  0  0  0  0  0  0  0  0  0
  -18.9520  -30.1520   23.8770 C   0  0  0  0  0  3  0  0  0  0  0  0
  -17.6510  -30.6600   24.0540 C   0  0  0  0  0  3  0  0  0  0  0  0
  -16.5390  -29.9090   23.6360 C   0  0  0  0  0  3  0  0  0  0  0  0
  -16.7310  -28.6510   23.0380 C   0  0  0  0  0  3  0  0  0  0  0  0
  -25.9880  -32.3520   23.7500 C   0  0  0  0  0  3  0  0  0  0  0  0
  -26.4770  -31.6300   25.0670 C   0  0  1  0  0  0  0  0  0  0  0  0
  -25.3570  -31.3940   26.1100 C   0  0  0  0  0  1  0  0  0  0  0  0
  -27.0930  -30.2580   24.7510 C   0  0  0  0  0  1  0  0  0  0  0  0
  -27.5970  -32.4530   25.7450 C   0  0  0  0  0  1  0  0  0  0  0  0
  -25.6000  -33.7490   24.1160 N   0  0  0  0  0  0  0  0  0  0  0  0
  -25.9260  -34.8780   23.4640 C   0  0  0  0  0  0  0  0  0  0  0  0
  -26.6120  -34.8650   22.4420 O   0  0  0  0  0  0  0  0  0  0  0  0
  -24.9810  -33.8320   24.9090 H   0  0  0  0  0  0  0  0  0  0  0  0
  -24.1500  -36.6730   23.2680 C   0  0  0  0  0  1  0  0  0  0  0  0
  -25.4190  -36.2360   24.0200 C   0  0  0  0  0  3  0  0  0  0  0  0
  -27.5560  -37.1430   24.8410 C   0  0  0  0  0  1  0  0  0  0  0  0
  -26.4150  -37.3320   23.9510 N   0  0  0  0  0  0  0  0  0  0  0  0
  -25.9830  -38.2220   24.1810 H   0  0  0  0  0  0  0  0  0  0  0  0
  2  7  1  0
  2  1  1  0
  3  9  1  0
  7  4  1  0
  9 10  1  0
 11 12  1  0
 11  2  1  0
 12 21  1  0
 13 20  2  0
 13 19  1  0
 14 19  1  0
 15 16  1  0
 15 14  1  0
 16 17  1  0
 17 26  1  0
 17 18  1  0
 19 18  1  0
 21 22  1  0
 21 13  1  0
 23 26  1  0
 24 43  1  0
 24 25  1  0
 25 28  1  0
 26 27  1  0
 28 29  1  0
 30 29  2  0
 31 34  1  0
 31 30  1  0
 32 31  2  0
 33 32  1  0
 33 28  2  0
 34 35  1  0
 35 36  1  0
 36 37  2  0
 38 37  1  0
 38 42  1  0
 39 38  2  0
 40 35  2  0
 40 39  1  0
 41 40  1  0
 43 44  1  0
 44 47  1  0
 44 46  1  0
 45 43  2  0
 48 23  1  0
 49 48  1  0
 50 48  1  0
 53 64  2  0
 54 59  1  0
 55 63  1  0
 55 65  1  0
 56 58  2  0
 57 63  1  0
 58 59  1  0
 58 57  1  0
 60 54  1  0
 61 60  2  0
 61 56  1  0
 62 56  1  0
 62 55  1  0
 63 53  1  0
 65 67  2  0
 66 65  1  0
 68 66  1  0
 69 78  2  0
 69 74  1  0
 70 66  1  0
 70 74  1  0
 71 70  1  0
 72 73  1  0
 72 71  1  0
 73 69  1  0
 74 75  2  0
 75 76  1  0
 77 76  2  0
 78 77  1  0
 79 53  1  0
 79 84  1  0
 79 80  1  0
 80 83  1  1
 80 81  1  0
 82 80  1  0
 84 87  1  0
 85 89  1  0
 85 84  1  0
 86 85  2  0
 89 88  1  0
 91 89  1  0
 91 92  1  0
 91 90  1  0
M  ISO  4  13 100  21 100  51 101  52 101
M  END
>  <TORSDO>  (86) 
F 19

>  <SCORE>  (86) 
16.337

>  <name>  (86) 
86

>  <ligand_id>  (86) 
86

>  <original_smiles>  (86) 
[H]c1c([H])c([H])c2c(c1[H])C([H])([H])C([H])([H])C([H])([H])C2([H])N([H])C(=O)C1([H])N(C(=O)C([H])(N([H])C(=O)C([H])(N([H])C([H])([H])[H])C([H])([H])[H])C(C([H])([H])[H])(C([H])([H])[H])C([H])([H])[H])C([H])([H])c2c([H])c(OC([H])([H])c3nc4c(c(C([H])([H])C([H])([H])N([H])C(=O)N5C([H])([H])C([H])([H])C([H])([H])C([H])(n6nc(-c7c([H])c([H])c(Oc8c([H])c([H])c(F)c([H])c8F)c([H])c7[H])c(C(=O)N([H])[H])c6N([H])[H])C5([H])[H])n3)C([H])([H])C([H])([H])N4[H])c([H])c([H])c2C1([H])[H]

>  <smiles>  (86) 
[H]c1c([H])c([H])c2c(c1[H])C([H])([H])C([H])([H])C([H])([H])C2([H])N([H])C(=O)C1([H])N(C(=O)C([H])(N([H])C(=O)C([H])(N([H])C([H])([H])[H])C([H])([H])[H])C(C([H])([H])[H])(C([H])([H])[H])C([H])([H])[H])C([H])([H])c2c([H])c(OC([H])([H])c3nc4c(c(C([H])([H])C([H])([H])N([H])C(=O)N5C([H])([H])C([H])([H])C([H])([H])C([H])(n6nc(-c7c([H])c([H])c(Oc8c([H])c([H])c(F)c([H])c8F)c([H])c7[H])c(C(=O)N([H])[H])c6N([H])[H])C5([H])[H])n3)C([H])([H])C([H])([H])N4[H])c([H])c([H])c2C1([H])[H]

$$$$
87:0:0
     RDKit          3D

 90100  0  0  1  0  0  0  0  0999 V2000
  -28.0930  -21.8310   18.7030 C   0  0  0  0  0  2  0  0  0  0  0  0
  -29.1860  -22.9150   18.7170 C   0  0  0  0  0  2  0  0  0  0  0  0
  -28.4840  -21.4760   20.1450 C   0  0  0  0  0  3  0  0  0  0  0  0
  -28.9010  -23.1660   20.2050 C   0  0  1  0  0  0  0  0  0  0  0  0
  -30.0640  -23.4830   21.1290 C   0  0  0  0  0  1  0  0  0  0  0  0
  -29.4180  -19.0380   21.1660 C   0  0  0  0  0  3  0  0  0  0  0  0
  -29.2300  -18.9710   19.2080 C   0  0  0  0  0  3  0  0  0  0  0  0
  -30.0430  -17.9600   20.1420 C   0  0  0  0  0  3  0  0  0  0  0  0
  -29.4600  -20.1730   20.1380 N   0  0  1  0  0  4  0  0  0  0  0  0
  -30.4160  -20.4760   20.0360 H   0  0  0  0  0  0  0  0  0  0  0  0
  -30.5680  -15.1760   19.9180 C   0  0  0  0  0  0  0  0  0  0  0  0
  -30.4630  -12.8130   18.9420 C   0  0  0  0  0  2  0  0  0  0  0  0
  -29.4560  -12.7280   17.7690 C   0  0  0  0  0  2  0  0  0  0  0  0
  -28.0300  -12.4670   18.2930 C   0  0  0  0  0  2  0  0  0  0  0  0
  -27.6750  -13.3810   19.4950 C   0  0  0  0  0  3  0  0  0  0  0  0
  -28.7960  -13.4080   20.5540 C   0  0  0  0  0  2  0  0  0  0  0  0
  -30.0060  -13.8910   19.8770 N   0  0  0  0  0  0  0  0  0  0  0  0
  -31.7450  -15.2580   19.5450 O   0  0  0  0  0  0  0  0  0  0  0  0
  -29.7850  -16.3610   20.1900 N   0  0  0  0  0  0  0  0  0  0  0  0
  -28.8430  -16.1270   20.4730 H   0  0  0  0  0  0  0  0  0  0  0  0
  -25.3620  -13.9260   20.4330 C   0  0  0  0  0  0  0  0  0  0  0  0
  -24.3280  -13.1390   20.8520 C   0  0  0  0  0  0  0  0  0  0  0  0
  -24.7850  -11.7890   20.7330 C   0  0  0  0  0  0  0  0  0  0  0  0
  -26.3800  -13.0590   20.0770 N   0  0  0  0  0  0  0  0  0  0  0  0
  -26.0490  -11.7650   20.3250 N   0  0  0  0  0  0  0  0  0  0  0  0
  -24.0700  -10.5210   20.9250 C   0  0  0  0  0  0  0  0  0  0  0  0
  -24.5170   -9.5570   21.8560 C   0  0  0  0  0  3  0  0  0  0  0  0
  -23.8010   -8.3540   22.0380 C   0  0  0  0  0  3  0  0  0  0  0  0
  -22.6240   -8.1080   21.2910 C   0  0  0  0  0  0  0  0  0  0  0  0
  -22.1960   -9.0610   20.3510 C   0  0  0  0  0  3  0  0  0  0  0  0
  -22.9130  -10.2550   20.1660 C   0  0  0  0  0  3  0  0  0  0  0  0
  -21.8800   -6.9560   21.3810 O   0  0  0  0  0  0  0  0  0  0  0  0
  -21.7670   -6.2630   22.5600 C   0  0  0  0  0  0  0  0  0  0  0  0
  -21.1820   -6.8370   23.7100 C   0  0  0  0  0  3  0  0  0  0  0  0
  -21.0220   -6.0660   24.8790 C   0  0  0  0  0  3  0  0  0  0  0  0
  -21.4380   -4.7210   24.8980 C   0  0  0  0  0  0  0  0  0  0  0  0
  -22.0160   -4.1460   23.7520 C   0  0  0  0  0  3  0  0  0  0  0  0
  -22.1780   -4.9150   22.5870 C   0  0  0  0  0  0  0  0  0  0  0  0
  -22.7160   -4.3500   21.4790 F   0  0  0  0  0  0  0  0  0  0  0  0
  -21.2770   -3.9770   26.0180 F   0  0  0  0  0  0  0  0  0  0  0  0
  -22.9560  -13.6050   21.2410 C   0  0  0  0  0  0  0  0  0  0  0  0
  -22.2950  -12.8910   22.1430 N   0  0  0  0  0  0  0  0  0  0  0  0
  -22.4810  -14.6420   20.7780 O   0  0  0  0  0  0  0  0  0  0  0  0
  -22.6910  -12.0540   22.5450 H   0  0  0  0  0  0  0  0  0  0  0  0
  -21.3750  -13.1880   22.4390 H   0  0  0  0  0  0  0  0  0  0  0  0
  -25.5100  -15.3050   20.2960 N   0  0  0  0  0  0  0  0  0  0  0  0
  -24.7360  -15.9340   20.4830 H   0  0  0  0  0  0  0  0  0  0  0  0
  -26.2860  -15.7620   19.8360 H   0  0  0  0  0  0  0  0  0  0  0  0
  -27.9060  -24.5640   20.3790 C   0  0  0  0  0  2  0  0  0  0  0  0
  -28.2630  -26.1150   20.2870 O   0  0  0  0  0  0  0  0  0  0  0  0
  -24.6710  -31.9010   23.2660 C   0  0  0  0  0  0  0  0  0  0  0  0
  -27.2520  -27.1640   20.2220 C   0  0  0  0  0  0  0  0  0  0  0  0
  -23.4940  -30.5300   21.5930 C   0  0  0  0  0  3  0  0  0  0  0  0
  -24.9580  -28.9730   20.1640 C   0  0  0  0  0  0  0  0  0  0  0  0
  -26.0540  -30.7780   21.4710 C   0  0  0  0  0  2  0  0  0  0  0  0
  -26.1330  -29.3880   20.8030 C   0  0  0  0  0  0  0  0  0  0  0  0
  -27.2840  -28.5010   20.8120 C   0  0  0  0  0  3  0  0  0  0  0  0
  -26.0550  -26.8780   19.5290 C   0  0  0  0  0  3  0  0  0  0  0  0
  -24.9360  -27.7350   19.5100 C   0  0  0  0  0  3  0  0  0  0  0  0
  -23.7390  -29.8840   20.2050 C   0  0  0  0  0  2  0  0  0  0  0  0
  -24.7600  -31.0920   22.1650 N   0  0  0  0  0  0  0  0  0  0  0  0
  -23.5760  -32.1800   23.7810 O   0  0  0  0  0  0  0  0  0  0  0  0
  -22.8040  -29.5050   22.5320 C   0  0  0  0  0  0  0  0  0  0  0  0
  -21.4810  -29.3210   22.3750 N   0  0  0  0  0  0  0  0  0  0  0  0
  -23.4650  -28.8810   23.3670 O   0  0  0  0  0  0  0  0  0  0  0  0
  -21.0040  -29.8780   21.6800 H   0  0  0  0  0  0  0  0  0  0  0  0
  -18.1010  -28.0890   22.8150 C   0  0  0  0  0  0  0  0  0  0  0  0
  -20.6530  -28.3680   23.1230 C   0  0  0  0  0  3  0  0  0  0  0  0
  -20.7750  -26.9440   22.5350 C   0  0  0  0  0  2  0  0  0  0  0  0
  -19.6910  -26.6210   21.5030 C   0  0  0  0  0  2  0  0  0  0  0  0
  -18.2990  -26.7490   22.1260 C   0  0  0  0  0  2  0  0  0  0  0  0
  -19.2060  -28.8560   23.2700 C   0  0  0  0  0  0  0  0  0  0  0  0
  -18.9670  -30.1080   23.8770 C   0  0  0  0  0  3  0  0  0  0  0  0
  -17.6560  -30.5960   24.0310 C   0  0  0  0  0  3  0  0  0  0  0  0
  -16.5640  -29.8260   23.5910 C   0  0  0  0  0  3  0  0  0  0  0  0
  -16.7870  -28.5750   22.9900 C   0  0  0  0  0  3  0  0  0  0  0  0
  -25.9370  -32.5340   23.9170 C   0  0  0  0  0  3  0  0  0  0  0  0
  -25.6220  -33.9330   24.2520 N   0  0  0  0  0  0  0  0  0  0  0  0
  -25.9100  -34.9890   23.4800 C   0  0  0  0  0  0  0  0  0  0  0  0
  -26.5380  -34.8910   22.4230 O   0  0  0  0  0  0  0  0  0  0  0  0
  -25.0690  -34.0840   25.0830 H   0  0  0  0  0  0  0  0  0  0  0  0
  -24.1340  -36.7530   23.2130 C   0  0  0  0  0  1  0  0  0  0  0  0
  -25.4250  -36.3750   23.9550 C   0  0  0  0  0  3  0  0  0  0  0  0
  -27.5760  -37.3150   24.6720 C   0  0  0  0  0  1  0  0  0  0  0  0
  -26.4320  -37.4430   23.7770 N   0  0  0  0  0  0  0  0  0  0  0  0
  -26.0140  -38.3580   23.9260 H   0  0  0  0  0  0  0  0  0  0  0  0
  -26.4250  -31.7590   25.2030 C   0  0  1  0  0  0  0  0  0  0  0  0
  -25.3060  -31.5100   26.2420 C   0  0  0  0  0  1  0  0  0  0  0  0
  -27.0220  -30.3850   24.8210 C   0  0  0  0  0  1  0  0  0  0  0  0
  -27.5570  -32.5510   25.8970 C   0  0  0  0  0  1  0  0  0  0  0  0
  1  2  1  0
  2  4  1  0
  3  1  1  0
  3  4  1  0
  4 49  1  0
  4  5  1  1
  7  9  1  0
  7  8  1  0
  7  6  1  0
  8 19  1  0
  8  6  1  0
  9  3  1  0
  9  6  1  0
  9 10  1  6
 11 19  1  0
 12 17  1  0
 13 14  1  0
 13 12  1  0
 14 15  1  0
 15 24  1  0
 15 16  1  0
 17 11  1  0
 17 16  1  0
 18 11  2  0
 19 20  1  0
 21 22  2  0
 22 41  1  0
 23 22  1  0
 23 26  1  0
 24 25  1  0
 24 21  1  0
 25 23  2  0
 26 27  1  0
 27 28  2  0
 29 32  1  0
 29 28  1  0
 30 29  2  0
 31 30  1  0
 31 26  2  0
 32 33  1  0
 33 38  2  0
 33 34  1  0
 34 35  2  0
 35 36  1  0
 36 40  1  0
 37 36  2  0
 38 37  1  0
 39 38  1  0
 41 42  1  0
 42 45  1  0
 42 44  1  0
 43 41  2  0
 46 21  1  0
 46 47  1  0
 48 46  1  0
 50 49  1  0
 51 62  2  0
 51 77  1  0
 52 50  1  0
 52 57  1  0
 53 61  1  0
 53 63  1  0
 54 60  1  0
 54 56  1  0
 55 61  1  0
 56 57  2  0
 56 55  1  0
 58 52  2  0
 59 58  1  0
 59 54  2  0
 60 53  1  0
 61 51  1  0
 63 65  2  0
 64 63  1  0
 64 68  1  0
 66 64  1  0
 67 76  2  0
 67 72  1  0
 68 72  1  0
 69 68  1  0
 70 71  1  0
 70 69  1  0
 71 67  1  0
 72 73  2  0
 73 74  1  0
 75 74  2  0
 76 75  1  0
 77 78  1  0
 77 87  1  0
 78 81  1  0
 79 83  1  0
 79 78  1  0
 80 79  2  0
 82 83  1  0
 85 86  1  0
 85 83  1  0
 85 84  1  0
 87 90  1  1
 87 88  1  0
 89 87  1  0
M  ISO  4  11 100  19 100  49 101  50 101
M  END
>  <TORSDO>  (87) 
F 18

>  <SCORE>  (87) 
-14.814

>  <name>  (87) 
87

>  <ligand_id>  (87) 
87

>  <original_smiles>  (87) 
[H]c1c([H])c([H])c2c(c1[H])C([H])([H])C([H])([H])C([H])([H])C2([H])N([H])C(=O)C1([H])N(C(=O)C([H])(N([H])C(=O)C([H])(N([H])C([H])([H])[H])C([H])([H])[H])C(C([H])([H])[H])(C([H])([H])[H])C([H])([H])[H])C([H])([H])c2c([H])c(OC([H])([H])C3(C([H])([H])[H])C([H])([H])C([H])([H])C3([H])[N+]3([H])C([H])([H])C([H])(N([H])C(=O)N4C([H])([H])C([H])([H])C([H])([H])C([H])(n5nc(-c6c([H])c([H])c(Oc7c([H])c([H])c(F)c([H])c7F)c([H])c6[H])c(C(=O)N([H])[H])c5N([H])[H])C4([H])[H])C3([H])[H])c([H])c([H])c2C1([H])[H]

>  <smiles>  (87) 
[H]c1c([H])c([H])c2c(c1[H])C([H])([H])C([H])([H])C([H])([H])C2([H])N([H])C(=O)C1([H])N(C(=O)C([H])(N([H])C(=O)C([H])(N([H])C([H])([H])[H])C([H])([H])[H])C(C([H])([H])[H])(C([H])([H])[H])C([H])([H])[H])C([H])([H])c2c([H])c(OC([H])([H])C3(C([H])([H])[H])C([H])([H])C([H])([H])C3([H])[N+]3([H])C([H])([H])C([H])(N([H])C(=O)N4C([H])([H])C([H])([H])C([H])([H])C([H])(n5nc(-c6c([H])c([H])c(Oc7c([H])c([H])c(F)c([H])c7F)c([H])c6[H])c(C(=O)N([H])[H])c5N([H])[H])C4([H])[H])C3([H])[H])c([H])c([H])c2C1([H])[H]

$$$$
88:0:0
     RDKit          3D

 91100  0  0  1  0  0  0  0  0999 V2000
  -30.5270  -20.7500   20.0400 C   0  0  0  0  0  0  0  0  0  0  0  0
  -30.2830  -22.0800   20.0460 C   0  0  0  0  0  3  0  0  0  0  0  0
  -29.3230  -20.0890   20.4180 C   0  0  0  0  0  0  0  0  0  0  0  0
  -31.9380  -20.4220   19.6940 C   0  0  0  0  0  3  0  0  0  0  0  0
  -31.4640  -22.9100   19.7370 C   0  0  0  0  0  3  0  0  0  0  0  0
  -32.5870  -21.8390   19.5790 C   0  0  0  0  0  3  0  0  0  0  0  0
  -28.4080  -21.1010   20.6390 N   0  0  0  0  0  0  0  0  0  0  0  0
  -28.9780  -22.3670   20.4000 N   0  0  0  0  0  0  0  0  0  0  0  0
  -29.0090  -18.5330   20.5990 C   0  0  0  0  0  3  0  0  0  0  0  0
  -30.1490  -17.3840   20.4240 C   0  0  0  0  0  3  0  0  0  0  0  0
  -30.5650  -14.7680   20.3420 C   0  0  0  0  0  0  0  0  0  0  0  0
  -30.3730  -12.4920   19.3230 C   0  0  0  0  0  2  0  0  0  0  0  0
  -29.4290  -12.5690   18.1010 C   0  0  0  0  0  2  0  0  0  0  0  0
  -27.9600  -12.3970   18.5350 C   0  0  0  0  0  2  0  0  0  0  0  0
  -27.5940  -13.2740   19.7620 C   0  0  0  0  0  3  0  0  0  0  0  0
  -28.6560  -13.1760   20.8780 C   0  0  0  0  0  2  0  0  0  0  0  0
  -29.9470  -13.5380   20.2820 N   0  0  0  0  0  0  0  0  0  0  0  0
  -31.7450  -14.8800   19.9970 O   0  0  0  0  0  0  0  0  0  0  0  0
  -29.7890  -15.8960   20.5840 N   0  0  0  0  0  0  0  0  0  0  0  0
  -28.8320  -15.7030   20.8400 H   0  0  0  0  0  0  0  0  0  0  0  0
  -25.2060  -13.8620   20.4930 C   0  0  0  0  0  0  0  0  0  0  0  0
  -24.1440  -13.0860   20.8690 C   0  0  0  0  0  0  0  0  0  0  0  0
  -24.6100  -11.7360   20.8420 C   0  0  0  0  0  0  0  0  0  0  0  0
  -26.2520  -12.9850   20.2570 N   0  0  0  0  0  0  0  0  0  0  0  0
  -25.9000  -11.7010   20.5290 N   0  0  0  0  0  0  0  0  0  0  0  0
  -23.8870  -10.4730   21.0380 C   0  0  0  0  0  0  0  0  0  0  0  0
  -24.3300   -9.5040   21.9660 C   0  0  0  0  0  3  0  0  0  0  0  0
  -23.6060   -8.3060   22.1490 C   0  0  0  0  0  3  0  0  0  0  0  0
  -22.4260   -8.0690   21.4040 C   0  0  0  0  0  0  0  0  0  0  0  0
  -22.0030   -9.0260   20.4650 C   0  0  0  0  0  3  0  0  0  0  0  0
  -22.7280  -10.2150   20.2800 C   0  0  0  0  0  3  0  0  0  0  0  0
  -21.6720   -6.9230   21.4970 O   0  0  0  0  0  0  0  0  0  0  0  0
  -21.6420   -6.1720   22.6450 C   0  0  0  0  0  0  0  0  0  0  0  0
  -21.2430   -6.7210   23.8830 C   0  0  0  0  0  3  0  0  0  0  0  0
  -21.1600   -5.8980   25.0240 C   0  0  0  0  0  3  0  0  0  0  0  0
  -21.4650   -4.5280   24.9280 C   0  0  0  0  0  0  0  0  0  0  0  0
  -21.8570   -3.9780   23.6950 C   0  0  0  0  0  3  0  0  0  0  0  0
  -21.9420   -4.7980   22.5560 C   0  0  0  0  0  0  0  0  0  0  0  0
  -22.3000   -4.2590   21.3660 F   0  0  0  0  0  0  0  0  0  0  0  0
  -21.3780   -3.7340   26.0220 F   0  0  0  0  0  0  0  0  0  0  0  0
  -22.7460  -13.5610   21.1400 C   0  0  0  0  0  0  0  0  0  0  0  0
  -22.0220  -12.8670   22.0100 N   0  0  0  0  0  0  0  0  0  0  0  0
  -22.3060  -14.5860   20.6190 O   0  0  0  0  0  0  0  0  0  0  0  0
  -22.3910  -12.0380   22.4540 H   0  0  0  0  0  0  0  0  0  0  0  0
  -21.0840  -13.1670   22.2360 H   0  0  0  0  0  0  0  0  0  0  0  0
  -25.3650  -15.2320   20.3090 N   0  0  0  0  0  0  0  0  0  0  0  0
  -24.5920  -15.8800   20.4150 H   0  0  0  0  0  0  0  0  0  0  0  0
  -26.1960  -15.6720   19.9380 H   0  0  0  0  0  0  0  0  0  0  0  0
  -28.3150  -23.7130   20.7450 C   0  0  0  0  0  2  0  0  0  0  0  0
  -28.4500  -25.0150   19.7830 C   0  0  0  0  0  2  0  0  0  0  0  0
  -28.3570  -26.4330   20.2890 O   0  0  0  0  0  0  0  0  0  0  0  0
  -24.6080  -31.8780   23.2430 C   0  0  0  0  0  0  0  0  0  0  0  0
  -27.2210  -27.2730   20.2050 C   0  0  0  0  0  0  0  0  0  0  0  0
  -23.4070  -30.4750   21.6050 C   0  0  0  0  0  3  0  0  0  0  0  0
  -24.8580  -28.9140   20.1810 C   0  0  0  0  0  0  0  0  0  0  0  0
  -25.9490  -30.7840   21.4240 C   0  0  0  0  0  2  0  0  0  0  0  0
  -26.0270  -29.3990   20.7790 C   0  0  0  0  0  0  0  0  0  0  0  0
  -27.2060  -28.5900   20.7790 C   0  0  0  0  0  3  0  0  0  0  0  0
  -26.0260  -26.8460   19.5880 C   0  0  0  0  0  3  0  0  0  0  0  0
  -24.8640  -27.6470   19.5750 C   0  0  0  0  0  3  0  0  0  0  0  0
  -23.6230  -29.7920   20.2280 C   0  0  0  0  0  2  0  0  0  0  0  0
  -24.6740  -31.0640   22.1480 N   0  0  0  0  0  0  0  0  0  0  0  0
  -23.5240  -32.1560   23.7760 O   0  0  0  0  0  0  0  0  0  0  0  0
  -22.7420  -29.4640   22.5690 C   0  0  0  0  0  0  0  0  0  0  0  0
  -21.4150  -29.2870   22.4450 N   0  0  0  0  0  0  0  0  0  0  0  0
  -23.4190  -28.8390   23.3900 O   0  0  0  0  0  0  0  0  0  0  0  0
  -20.9270  -29.8410   21.7550 H   0  0  0  0  0  0  0  0  0  0  0  0
  -18.0390  -28.0870   22.9450 C   0  0  0  0  0  0  0  0  0  0  0  0
  -20.5960  -28.3500   23.2170 C   0  0  0  0  0  3  0  0  0  0  0  0
  -20.7000  -26.9180   22.6450 C   0  0  0  0  0  2  0  0  0  0  0  0
  -19.6000  -26.5920   21.6310 C   0  0  0  0  0  2  0  0  0  0  0  0
  -18.2180  -26.7360   22.2740 C   0  0  0  0  0  2  0  0  0  0  0  0
  -19.1560  -28.8520   23.3740 C   0  0  0  0  0  0  0  0  0  0  0  0
  -18.9340  -30.1160   23.9630 C   0  0  0  0  0  3  0  0  0  0  0  0
  -17.6280  -30.6150   24.1270 C   0  0  0  0  0  3  0  0  0  0  0  0
  -16.5250  -29.8470   23.7150 C   0  0  0  0  0  3  0  0  0  0  0  0
  -16.7310  -28.5850   23.1290 C   0  0  0  0  0  3  0  0  0  0  0  0
  -25.8890  -32.5150   23.8660 C   0  0  0  0  0  3  0  0  0  0  0  0
  -26.4020  -31.7500   25.1480 C   0  0  1  0  0  0  0  0  0  0  0  0
  -25.3060  -31.5210   26.2160 C   0  0  0  0  0  1  0  0  0  0  0  0
  -26.9830  -30.3700   24.7670 C   0  0  0  0  0  1  0  0  0  0  0  0
  -27.5530  -32.5460   25.8080 C   0  0  0  0  0  1  0  0  0  0  0  0
  -25.5780  -33.9150   24.1910 N   0  0  0  0  0  0  0  0  0  0  0  0
  -25.9120  -34.9670   23.4320 C   0  0  0  0  0  0  0  0  0  0  0  0
  -26.5820  -34.8610   22.4010 O   0  0  0  0  0  0  0  0  0  0  0  0
  -24.9820  -34.0700   24.9900 H   0  0  0  0  0  0  0  0  0  0  0  0
  -24.1830  -36.7610   23.0770 C   0  0  0  0  0  1  0  0  0  0  0  0
  -25.4250  -36.3570   23.8870 C   0  0  0  0  0  3  0  0  0  0  0  0
  -27.5620  -37.2430   24.7120 C   0  0  0  0  0  1  0  0  0  0  0  0
  -26.4580  -37.4090   23.7700 N   0  0  0  0  0  0  0  0  0  0  0  0
  -26.0520  -38.3300   23.9190 H   0  0  0  0  0  0  0  0  0  0  0  0
  1  2  1  0
  1  3  1  0
  2  5  1  0
  2  8  1  0
  3  9  1  0
  3  7  2  0
  4  1  2  0
  6  4  1  0
  6  5  2  0
  8  7  1  0
  8 49  1  0
 10 19  1  0
 10  9  2  0
 11 19  1  0
 12 17  1  0
 13 14  1  0
 13 12  1  0
 15 14  1  0
 15 24  1  0
 15 16  1  0
 17 11  1  0
 17 16  1  0
 18 11  2  0
 19 20  1  0
 21 22  2  0
 22 41  1  0
 23 22  1  0
 23 26  1  0
 24 21  1  0
 24 25  1  0
 25 23  2  0
 26 27  1  0
 27 28  2  0
 29 32  1  0
 29 28  1  0
 30 29  2  0
 31 30  1  0
 31 26  2  0
 32 33  1  0
 33 34  1  0
 34 35  2  0
 36 35  1  0
 36 40  1  0
 37 36  2  0
 38 33  2  0
 38 37  1  0
 39 38  1  0
 41 42  1  0
 42 45  1  0
 42 44  1  0
 43 41  2  0
 46 47  1  0
 46 21  1  0
 48 46  1  0
 50 51  1  0
 50 49  1  0
 52 63  2  0
 53 51  1  0
 53 58  1  0
 54 62  1  0
 54 64  1  0
 55 61  1  0
 55 57  1  0
 56 62  1  0
 57 58  2  0
 57 56  1  0
 59 53  2  0
 60 59  1  0
 60 55  2  0
 61 54  1  0
 62 52  1  0
 64 66  2  0
 65 64  1  0
 67 65  1  0
 68 77  2  0
 68 73  1  0
 69 65  1  0
 69 73  1  0
 70 69  1  0
 71 72  1  0
 71 70  1  0
 72 68  1  0
 73 74  2  0
 74 75  1  0
 76 75  2  0
 77 76  1  0
 78 52  1  0
 78 83  1  0
 78 79  1  0
 79 82  1  1
 79 80  1  0
 81 79  1  0
 83 86  1  0
 84 88  1  0
 84 83  1  0
 85 84  2  0
 88 87  1  0
 90 88  1  0
 90 91  1  0
 90 89  1  0
M  ISO  4  11 100  19 100  50 101  51 101
M  END
>  <TORSDO>  (88) 
F 20

>  <SCORE>  (88) 
-13.903

>  <name>  (88) 
88

>  <ligand_id>  (88) 
88

>  <original_smiles>  (88) 
[H]c1c([H])c([H])c2c(c1[H])C([H])([H])C([H])([H])C([H])([H])C2([H])N([H])C(=O)C1([H])N(C(=O)C([H])(N([H])C(=O)C([H])(N([H])C([H])([H])[H])C([H])([H])[H])C(C([H])([H])[H])(C([H])([H])[H])C([H])([H])[H])C([H])([H])c2c([H])c(OC([H])([H])C([H])([H])n3nc(C([H])([H])C([H])([H])N([H])C(=O)N4C([H])([H])C([H])([H])C([H])([H])C([H])(n5nc(-c6c([H])c([H])c(Oc7c([H])c([H])c(F)c([H])c7F)c([H])c6[H])c(C(=O)N([H])[H])c5N([H])[H])C4([H])[H])c4c3C([H])([H])C([H])([H])C4([H])[H])c([H])c([H])c2C1([H])[H]

>  <smiles>  (88) 
[H]c1c([H])c([H])c2c(c1[H])C([H])([H])C([H])([H])C([H])([H])C2([H])N([H])C(=O)C1([H])N(C(=O)C([H])(N([H])C(=O)C([H])(N([H])C([H])([H])[H])C([H])([H])[H])C(C([H])([H])[H])(C([H])([H])[H])C([H])([H])[H])C([H])([H])c2c([H])c(OC([H])([H])C([H])([H])n3nc(C([H])([H])C([H])([H])N([H])C(=O)N4C([H])([H])C([H])([H])C([H])([H])C([H])(n5nc(-c6c([H])c([H])c(Oc7c([H])c([H])c(F)c([H])c7F)c([H])c6[H])c(C(=O)N([H])[H])c5N([H])[H])C4([H])[H])c4c3C([H])([H])C([H])([H])C4([H])[H])c([H])c([H])c2C1([H])[H]

$$$$
89:0:0
     RDKit          3D

 96105  0  0  1  0  0  0  0  0999 V2000
  -30.7780  -21.0900   20.4980 C   0  0  0  0  0  3  0  0  0  0  0  0
  -29.4480  -20.6390   20.4360 C   0  0  0  0  0  0  0  0  0  0  0  0
  -28.4980  -21.7900   20.3850 C   0  0  0  0  0  0  0  0  0  0  0  0
  -31.1130  -22.4660   20.5330 C   0  0  0  0  0  0  0  0  0  0  0  0
  -28.8950  -23.2330   20.3620 C   0  0  0  0  0  0  0  0  0  0  0  0
  -27.0110  -21.4690   20.3720 C   0  0  0  0  0  1  0  0  0  0  0  0
  -32.5710  -22.8560   20.6910 C   0  0  0  0  0  1  0  0  0  0  0  0
  -30.2210  -23.4920   20.4510 N   0  0  0  0  0  0  0  0  0  0  0  0
  -29.1560  -18.9920   20.3950 C   0  0  0  0  0  2  0  0  0  0  0  0
  -30.5630  -14.9790   20.5350 C   0  0  0  0  0  0  0  0  0  0  0  0
  -30.4360  -12.6340   19.5290 C   0  0  0  0  0  2  0  0  0  0  0  0
  -29.5340  -12.5740   18.2720 C   0  0  0  0  0  2  0  0  0  0  0  0
  -28.0680  -12.3290   18.6710 C   0  0  0  0  0  2  0  0  0  0  0  0
  -27.6300  -13.2480   19.8390 C   0  0  0  0  0  3  0  0  0  0  0  0
  -28.6560  -13.2680   20.9900 C   0  0  0  0  0  2  0  0  0  0  0  0
  -29.9420  -13.7240   20.4330 N   0  0  0  0  0  0  0  0  0  0  0  0
  -31.7170  -15.0440   20.0910 O   0  0  0  0  0  0  0  0  0  0  0  0
  -30.8600  -18.1610   22.1680 C   0  0  0  0  0  2  0  0  0  0  0  0
  -29.5620  -16.1360   22.4260 C   0  0  0  0  0  2  0  0  0  0  0  0
  -30.6190  -17.0020   23.1240 C   0  0  0  0  0  3  0  0  0  0  0  0
  -30.2400  -17.7410   20.8140 C   0  0  0  0  0  3  0  0  0  0  0  0
  -29.8910  -16.1760   20.9880 N   0  0  0  0  0  0  0  0  0  0  0  0
  -25.2480  -13.8190   20.5690 C   0  0  0  0  0  0  0  0  0  0  0  0
  -24.1790  -13.0420   20.9190 C   0  0  0  0  0  0  0  0  0  0  0  0
  -24.6410  -11.6910   20.8720 C   0  0  0  0  0  0  0  0  0  0  0  0
  -26.2880  -12.9420   20.3170 N   0  0  0  0  0  0  0  0  0  0  0  0
  -25.9320  -11.6550   20.5640 N   0  0  0  0  0  0  0  0  0  0  0  0
  -23.9080  -10.4290   21.0400 C   0  0  0  0  0  0  0  0  0  0  0  0
  -24.3640   -9.4220   21.9180 C   0  0  0  0  0  3  0  0  0  0  0  0
  -23.6320   -8.2250   22.0750 C   0  0  0  0  0  3  0  0  0  0  0  0
  -22.4290   -8.0280   21.3550 C   0  0  0  0  0  0  0  0  0  0  0  0
  -21.9930   -9.0250   20.4630 C   0  0  0  0  0  3  0  0  0  0  0  0
  -22.7250  -10.2140   20.3050 C   0  0  0  0  0  3  0  0  0  0  0  0
  -21.6640   -6.8890   21.4250 O   0  0  0  0  0  0  0  0  0  0  0  0
  -21.6870   -6.0750   22.5280 C   0  0  0  0  0  0  0  0  0  0  0  0
  -21.4010   -6.5640   23.8210 C   0  0  0  0  0  3  0  0  0  0  0  0
  -21.3660   -5.6810   24.9170 C   0  0  0  0  0  3  0  0  0  0  0  0
  -21.6040   -4.3060   24.7230 C   0  0  0  0  0  0  0  0  0  0  0  0
  -21.8820   -3.8150   23.4350 C   0  0  0  0  0  3  0  0  0  0  0  0
  -21.9190   -4.6970   22.3400 C   0  0  0  0  0  0  0  0  0  0  0  0
  -22.1670   -4.2160   21.0990 F   0  0  0  0  0  0  0  0  0  0  0  0
  -21.5630   -3.4530   25.7740 F   0  0  0  0  0  0  0  0  0  0  0  0
  -22.7820  -13.5210   21.1860 C   0  0  0  0  0  0  0  0  0  0  0  0
  -22.0470  -12.8190   22.0410 N   0  0  0  0  0  0  0  0  0  0  0  0
  -22.3520  -14.5550   20.6740 O   0  0  0  0  0  0  0  0  0  0  0  0
  -22.4110  -11.9870   22.4810 H   0  0  0  0  0  0  0  0  0  0  0  0
  -21.1070  -13.1180   22.2580 H   0  0  0  0  0  0  0  0  0  0  0  0
  -25.4180  -15.1930   20.4220 N   0  0  0  0  0  0  0  0  0  0  0  0
  -24.6510  -15.8460   20.5390 H   0  0  0  0  0  0  0  0  0  0  0  0
  -26.2800  -15.6390   20.1330 H   0  0  0  0  0  0  0  0  0  0  0  0
  -30.2560  -17.4090   24.4980 N   0  0  0  0  0  4  0  0  0  0  0  0
  -29.4690  -18.0350   24.5080 H   0  0  0  0  0  0  0  0  0  0  0  0
  -31.0280  -17.8750   24.9420 H   0  0  0  0  0  0  0  0  0  0  0  0
  -30.0280  -16.6100   25.0610 H   0  0  0  0  0  0  0  0  0  0  0  0
  -27.9010  -24.5680   20.1990 C   0  0  0  0  0  2  0  0  0  0  0  0
  -28.2570  -26.1000   20.2500 O   0  0  0  0  0  0  0  0  0  0  0  0
  -24.6450  -31.8460   23.1850 C   0  0  0  0  0  0  0  0  0  0  0  0
  -27.2200  -27.1120   20.1690 C   0  0  0  0  0  0  0  0  0  0  0  0
  -23.4480  -30.4640   21.5310 C   0  0  0  0  0  3  0  0  0  0  0  0
  -24.9010  -28.8880   20.1120 C   0  0  0  0  0  0  0  0  0  0  0  0
  -26.0060  -30.7170   21.3830 C   0  0  0  0  0  2  0  0  0  0  0  0
  -26.0770  -29.3220   20.7320 C   0  0  0  0  0  0  0  0  0  0  0  0
  -27.2390  -28.4520   20.7450 C   0  0  0  0  0  3  0  0  0  0  0  0
  -26.0160  -26.7930   19.5000 C   0  0  0  0  0  3  0  0  0  0  0  0
  -24.8840  -27.6380   19.4740 C   0  0  0  0  0  3  0  0  0  0  0  0
  -23.6770  -29.7960   20.1500 C   0  0  0  0  0  2  0  0  0  0  0  0
  -24.7190  -31.0320   22.0880 N   0  0  0  0  0  0  0  0  0  0  0  0
  -23.5580  -32.1360   23.7070 O   0  0  0  0  0  0  0  0  0  0  0  0
  -22.7600  -29.4550   22.4850 C   0  0  0  0  0  0  0  0  0  0  0  0
  -21.4280  -29.3060   22.3610 N   0  0  0  0  0  0  0  0  0  0  0  0
  -23.4220  -28.8130   23.3040 O   0  0  0  0  0  0  0  0  0  0  0  0
  -20.9490  -29.8770   21.6790 H   0  0  0  0  0  0  0  0  0  0  0  0
  -18.0330  -28.1450   22.8530 C   0  0  0  0  0  0  0  0  0  0  0  0
  -20.5940  -28.3760   23.1260 C   0  0  0  0  0  3  0  0  0  0  0  0
  -20.6810  -26.9450   22.5440 C   0  0  0  0  0  2  0  0  0  0  0  0
  -19.5760  -26.6430   21.5270 C   0  0  0  0  0  2  0  0  0  0  0  0
  -18.1960  -26.7990   22.1680 C   0  0  0  0  0  2  0  0  0  0  0  0
  -19.1590  -28.8910   23.2890 C   0  0  0  0  0  0  0  0  0  0  0  0
  -18.9510  -30.1520   23.8910 C   0  0  0  0  0  3  0  0  0  0  0  0
  -17.6510  -30.6640   24.0600 C   0  0  0  0  0  3  0  0  0  0  0  0
  -16.5400  -29.9130   23.6360 C   0  0  0  0  0  3  0  0  0  0  0  0
  -16.7320  -28.6550   23.0390 C   0  0  0  0  0  3  0  0  0  0  0  0
  -25.9230  -32.4710   23.8240 C   0  0  0  0  0  3  0  0  0  0  0  0
  -26.4530  -31.6570   25.0670 C   0  0  1  0  0  0  0  0  0  0  0  0
  -25.3680  -31.3820   26.1340 C   0  0  0  0  0  1  0  0  0  0  0  0
  -27.0360  -30.2970   24.6200 C   0  0  0  0  0  1  0  0  0  0  0  0
  -27.6080  -32.4300   25.7470 C   0  0  0  0  0  1  0  0  0  0  0  0
  -25.5980  -33.8520   24.2190 N   0  0  0  0  0  0  0  0  0  0  0  0
  -25.9100  -34.9430   23.5060 C   0  0  0  0  0  0  0  0  0  0  0  0
  -26.5680  -34.8930   22.4650 O   0  0  0  0  0  0  0  0  0  0  0  0
  -25.0110  -33.9620   25.0320 H   0  0  0  0  0  0  0  0  0  0  0  0
  -24.1460  -36.7220   23.2630 C   0  0  0  0  0  1  0  0  0  0  0  0
  -25.4110  -36.3040   24.0320 C   0  0  0  0  0  3  0  0  0  0  0  0
  -27.5580  -37.1740   24.8460 C   0  0  0  0  0  1  0  0  0  0  0  0
  -26.4250  -37.3780   23.9450 N   0  0  0  0  0  0  0  0  0  0  0  0
  -26.0110  -38.2830   24.1570 H   0  0  0  0  0  0  0  0  0  0  0  0
  1  4  1  0
  2  1  2  0
  3  2  1  0
  4  7  1  0
  5  3  2  0
  5  8  1  0
  6  3  1  0
  8  4  2  0
  9  2  1  0
 10 22  1  0
 11 16  1  0
 12 13  1  0
 12 11  1  0
 14 13  1  0
 14 26  1  0
 14 15  1  0
 16 10  1  0
 16 15  1  0
 17 10  2  0
 18 20  1  0
 19 20  1  0
 20 51  1  0
 21  9  1  0
 21 22  1  0
 21 18  1  0
 22 19  1  0
 23 24  2  0
 24 43  1  0
 25 24  1  0
 25 28  1  0
 26 27  1  0
 26 23  1  0
 27 25  2  0
 28 29  1  0
 29 30  2  0
 31 34  1  0
 31 30  1  0
 32 31  2  0
 33 32  1  0
 33 28  2  0
 34 35  1  0
 35 36  1  0
 36 37  2  0
 38 37  1  0
 38 42  1  0
 39 38  2  0
 40 35  2  0
 40 39  1  0
 41 40  1  0
 43 44  1  0
 44 47  1  0
 44 46  1  0
 45 43  2  0
 48 49  1  0
 48 23  1  0
 50 48  1  0
 51 52  1  0
 51 53  1  0
 51 54  1  0
 55 56  1  0
 55  5  1  0
 57 68  2  0
 58 56  1  0
 58 63  1  0
 59 67  1  0
 59 69  1  0
 60 66  1  0
 60 62  1  0
 61 67  1  0
 62 63  2  0
 62 61  1  0
 64 58  2  0
 65 64  1  0
 65 60  2  0
 66 59  1  0
 67 57  1  0
 69 71  2  0
 70 69  1  0
 72 70  1  0
 73 82  2  0
 73 78  1  0
 74 70  1  0
 74 78  1  0
 75 74  1  0
 76 77  1  0
 76 75  1  0
 77 73  1  0
 78 79  2  0
 79 80  1  0
 81 80  2  0
 82 81  1  0
 83 57  1  0
 83 88  1  0
 83 84  1  0
 84 87  1  1
 84 85  1  0
 86 84  1  0
 88 91  1  0
 89 93  1  0
 89 88  1  0
 90 89  2  0
 93 92  1  0
 95 93  1  0
 95 96  1  0
 95 94  1  0
M  ISO  4  10 100  22 100  55 101  56 101
M  END
>  <TORSDO>  (89) 
F 19

>  <SCORE>  (89) 
-11.162

>  <name>  (89) 
89

>  <ligand_id>  (89) 
89

>  <original_smiles>  (89) 
[H]c1c([H])c([H])c2c(c1[H])C([H])([H])C([H])([H])C([H])([H])C2([H])N([H])C(=O)C1([H])N(C(=O)C([H])(N([H])C(=O)C([H])(N([H])C([H])([H])[H])C([H])([H])[H])C(C([H])([H])[H])(C([H])([H])[H])C([H])([H])[H])C([H])([H])c2c([H])c(OC([H])([H])c3nc(C([H])([H])[H])c([H])c(C([H])([H])C4([H])N(C(=O)N5C([H])([H])C([H])([H])C([H])([H])C([H])(n6nc(-c7c([H])c([H])c(Oc8c([H])c([H])c(F)c([H])c8F)c([H])c7[H])c(C(=O)N([H])[H])c6N([H])[H])C5([H])[H])C([H])([H])C([H])([N+]([H])([H])[H])C4([H])[H])c3C([H])([H])[H])c([H])c([H])c2C1([H])[H]

>  <smiles>  (89) 
[H]c1c([H])c([H])c2c(c1[H])C([H])([H])C([H])([H])C([H])([H])C2([H])N([H])C(=O)C1([H])N(C(=O)C([H])(N([H])C(=O)C([H])(N([H])C([H])([H])[H])C([H])([H])[H])C(C([H])([H])[H])(C([H])([H])[H])C([H])([H])[H])C([H])([H])c2c([H])c(OC([H])([H])c3nc(C([H])([H])[H])c([H])c(C([H])([H])C4([H])N(C(=O)N5C([H])([H])C([H])([H])C([H])([H])C([H])(n6nc(-c7c([H])c([H])c(Oc8c([H])c([H])c(F)c([H])c8F)c([H])c7[H])c(C(=O)N([H])[H])c6N([H])[H])C5([H])[H])C([H])([H])C([H])([N+]([H])([H])[H])C4([H])[H])c3C([H])([H])[H])c([H])c([H])c2C1([H])[H]

$$$$
90:0:0
     RDKit          3D

 88 97  0  0  1  0  0  0  0  0999 V2000
  -29.1550  -23.6160   21.5680 C   0  0  0  0  0  2  0  0  0  0  0  0
  -29.2050  -22.0130   21.6940 C   0  0  0  0  0  2  0  0  0  0  0  0
  -28.2620  -22.5890   19.6810 C   0  0  0  0  0  2  0  0  0  0  0  0
  -28.0990  -24.1280   20.5340 C   0  0  0  0  0  3  0  0  0  0  0  0
  -29.0860  -21.3420   20.3610 N   0  0  2  0  0  4  0  0  0  0  0  0
  -30.0010  -21.4440   19.9470 H   0  0  0  0  0  0  0  0  0  0  0  0
  -30.3430  -15.4470   20.2200 C   0  0  0  0  0  0  0  0  0  0  0  0
  -30.3410  -12.9750   19.3560 C   0  0  0  0  0  2  0  0  0  0  0  0
  -29.4190  -12.6690   18.1480 C   0  0  0  0  0  2  0  0  0  0  0  0
  -27.9880  -12.3630   18.6180 C   0  0  0  0  0  2  0  0  0  0  0  0
  -27.5170  -13.3500   19.7140 C   0  0  0  0  0  3  0  0  0  0  0  0
  -28.5710  -13.5860   20.8150 C   0  0  0  0  0  2  0  0  0  0  0  0
  -29.7610  -14.1360   20.1390 N   0  0  0  0  0  0  0  0  0  0  0  0
  -31.5800  -15.3780   20.1220 O   0  0  0  0  0  0  0  0  0  0  0  0
  -28.3180  -18.8090   19.1950 C   0  0  0  0  0  2  0  0  0  0  0  0
  -28.4290  -17.2120   19.4980 C   0  0  0  0  0  2  0  0  0  0  0  0
  -30.0390  -18.3430   20.6280 C   0  0  0  0  0  2  0  0  0  0  0  0
  -28.8950  -19.6370   20.3780 C   0  0  0  0  0  3  0  0  0  0  0  0
  -29.6460  -16.7990   20.2690 N   0  0  0  0  0  0  0  0  0  0  0  0
  -25.1590  -13.8820   20.5090 C   0  0  0  0  0  0  0  0  0  0  0  0
  -24.1060  -13.0960   20.8810 C   0  0  0  0  0  0  0  0  0  0  0  0
  -24.5810  -11.7500   20.8370 C   0  0  0  0  0  0  0  0  0  0  0  0
  -26.2040  -13.0170   20.2470 N   0  0  0  0  0  0  0  0  0  0  0  0
  -25.8710  -11.7270   20.5150 N   0  0  0  0  0  0  0  0  0  0  0  0
  -23.8630  -10.4820   21.0230 C   0  0  0  0  0  0  0  0  0  0  0  0
  -24.2930   -9.5170   21.9600 C   0  0  0  0  0  3  0  0  0  0  0  0
  -23.5700   -8.3180   22.1340 C   0  0  0  0  0  3  0  0  0  0  0  0
  -22.4020   -8.0750   21.3740 C   0  0  0  0  0  0  0  0  0  0  0  0
  -21.9900   -9.0290   20.4260 C   0  0  0  0  0  3  0  0  0  0  0  0
  -22.7150  -10.2200   20.2490 C   0  0  0  0  0  3  0  0  0  0  0  0
  -21.6510   -6.9260   21.4580 O   0  0  0  0  0  0  0  0  0  0  0  0
  -21.5840   -6.1940   22.6150 C   0  0  0  0  0  0  0  0  0  0  0  0
  -21.1270   -6.7560   23.8280 C   0  0  0  0  0  3  0  0  0  0  0  0
  -21.0070   -5.9500   24.9770 C   0  0  0  0  0  3  0  0  0  0  0  0
  -21.3350   -4.5830   24.9160 C   0  0  0  0  0  0  0  0  0  0  0  0
  -21.7860   -4.0200   23.7100 C   0  0  0  0  0  3  0  0  0  0  0  0
  -21.9080   -4.8240   22.5620 C   0  0  0  0  0  0  0  0  0  0  0  0
  -22.3220   -4.2720   21.3960 F   0  0  0  0  0  0  0  0  0  0  0  0
  -21.2130   -3.8060   26.0170 F   0  0  0  0  0  0  0  0  0  0  0  0
  -22.7090  -13.5660   21.1600 C   0  0  0  0  0  0  0  0  0  0  0  0
  -21.9880  -12.8630   22.0250 N   0  0  0  0  0  0  0  0  0  0  0  0
  -22.2670  -14.5930   20.6470 O   0  0  0  0  0  0  0  0  0  0  0  0
  -22.3600  -12.0340   22.4630 H   0  0  0  0  0  0  0  0  0  0  0  0
  -21.0510  -13.1610   22.2560 H   0  0  0  0  0  0  0  0  0  0  0  0
  -25.3080  -15.2550   20.3380 N   0  0  0  0  0  0  0  0  0  0  0  0
  -24.5340  -15.8990   20.4580 H   0  0  0  0  0  0  0  0  0  0  0  0
  -26.1430  -15.6980   19.9810 H   0  0  0  0  0  0  0  0  0  0  0  0
  -28.1870  -25.7970   20.2450 O   0  0  0  0  0  0  0  0  0  0  0  0
  -24.6270  -31.8850   23.2000 C   0  0  0  0  0  0  0  0  0  0  0  0
  -27.1610  -26.9060   20.2530 C   0  0  0  0  0  0  0  0  0  0  0  0
  -23.4320  -30.4750   21.5760 C   0  0  0  0  0  3  0  0  0  0  0  0
  -24.8740  -28.8350   20.1810 C   0  0  0  0  0  0  0  0  0  0  0  0
  -26.0030  -30.6590   21.4350 C   0  0  0  0  0  2  0  0  0  0  0  0
  -26.0680  -29.2340   20.7970 C   0  0  0  0  0  0  0  0  0  0  0  0
  -27.2050  -28.2940   20.7970 C   0  0  0  0  0  3  0  0  0  0  0  0
  -25.9330  -26.6720   19.5940 C   0  0  0  0  0  3  0  0  0  0  0  0
  -24.8370  -27.5770   19.5560 C   0  0  0  0  0  3  0  0  0  0  0  0
  -23.6640  -29.7710   20.2100 C   0  0  0  0  0  2  0  0  0  0  0  0
  -24.7100  -31.0360   22.1230 N   0  0  0  0  0  0  0  0  0  0  0  0
  -23.5360  -32.1860   23.7140 O   0  0  0  0  0  0  0  0  0  0  0  0
  -22.7280  -29.4970   22.5540 C   0  0  0  0  0  0  0  0  0  0  0  0
  -21.3970  -29.3420   22.4330 N   0  0  0  0  0  0  0  0  0  0  0  0
  -23.3900  -28.8760   23.3880 O   0  0  0  0  0  0  0  0  0  0  0  0
  -20.9150  -29.8920   21.7350 H   0  0  0  0  0  0  0  0  0  0  0  0
  -18.0080  -28.1510   22.9600 C   0  0  0  0  0  0  0  0  0  0  0  0
  -20.5690  -28.4140   23.2140 C   0  0  0  0  0  3  0  0  0  0  0  0
  -20.6650  -26.9770   22.6520 C   0  0  0  0  0  2  0  0  0  0  0  0
  -19.5590  -26.6490   21.6430 C   0  0  0  0  0  2  0  0  0  0  0  0
  -18.1810  -26.7980   22.2900 C   0  0  0  0  0  2  0  0  0  0  0  0
  -19.1290  -28.9170   23.3800 C   0  0  0  0  0  0  0  0  0  0  0  0
  -18.9110  -30.1810   23.9700 C   0  0  0  0  0  3  0  0  0  0  0  0
  -17.6060  -30.6800   24.1420 C   0  0  0  0  0  3  0  0  0  0  0  0
  -16.5000  -29.9140   23.7370 C   0  0  0  0  0  3  0  0  0  0  0  0
  -16.7020  -28.6510   23.1520 C   0  0  0  0  0  3  0  0  0  0  0  0
  -25.8950  -32.5350   23.8300 C   0  0  0  0  0  3  0  0  0  0  0  0
  -25.5690  -33.9320   24.1740 N   0  0  0  0  0  0  0  0  0  0  0  0
  -25.8800  -35.0000   23.4280 C   0  0  0  0  0  0  0  0  0  0  0  0
  -26.5310  -34.9130   22.3830 O   0  0  0  0  0  0  0  0  0  0  0  0
  -24.9860  -34.0700   24.9860 H   0  0  0  0  0  0  0  0  0  0  0  0
  -24.1270  -36.7870   23.1490 C   0  0  0  0  0  1  0  0  0  0  0  0
  -25.3970  -36.3830   23.9140 C   0  0  0  0  0  3  0  0  0  0  0  0
  -27.5440  -37.2910   24.6890 C   0  0  0  0  0  1  0  0  0  0  0  0
  -26.4180  -37.4450   23.7710 N   0  0  0  0  0  0  0  0  0  0  0  0
  -26.0090  -38.3630   23.9180 H   0  0  0  0  0  0  0  0  0  0  0  0
  -26.4080  -31.7690   25.1140 C   0  0  1  0  0  0  0  0  0  0  0  0
  -25.3130  -31.5340   26.1800 C   0  0  0  0  0  1  0  0  0  0  0  0
  -26.9970  -30.3910   24.7380 C   0  0  0  0  0  1  0  0  0  0  0  0
  -27.5550  -32.5690   25.7760 C   0  0  0  0  0  1  0  0  0  0  0  0
  1  2  1  0
  3  5  1  0
  3  4  1  0
  4 48  1  0
  4  1  1  0
  5  6  1  6
  5 18  1  0
  5  2  1  0
  7 19  1  0
  8 13  1  0
  9 10  1  0
  9  8  1  0
 11 10  1  0
 11 23  1  0
 11 12  1  0
 13  7  1  0
 13 12  1  0
 14  7  2  0
 15 16  1  0
 16 19  1  0
 18 15  1  0
 18 17  1  0
 19 17  1  0
 20 21  2  0
 21 40  1  0
 22 21  1  0
 22 25  1  0
 23 20  1  0
 23 24  1  0
 24 22  2  0
 25 26  1  0
 26 27  2  0
 28 31  1  0
 28 27  1  0
 29 28  2  0
 30 29  1  0
 30 25  2  0
 31 32  1  0
 32 33  1  0
 33 34  2  0
 35 34  1  0
 35 39  1  0
 36 35  2  0
 37 32  2  0
 37 36  1  0
 38 37  1  0
 40 41  1  0
 41 44  1  0
 41 43  1  0
 42 40  2  0
 45 46  1  0
 45 20  1  0
 47 45  1  0
 48 50  1  0
 49 60  2  0
 50 55  1  0
 51 59  1  0
 51 61  1  0
 52 58  1  0
 52 54  1  0
 53 59  1  0
 54 53  1  0
 55 54  2  0
 56 50  2  0
 57 56  1  0
 57 52  2  0
 58 51  1  0
 59 49  1  0
 61 63  2  0
 62 61  1  0
 64 62  1  0
 65 74  2  0
 65 70  1  0
 66 62  1  0
 66 70  1  0
 67 66  1  0
 68 69  1  0
 68 67  1  0
 69 65  1  0
 70 71  2  0
 71 72  1  0
 73 72  2  0
 74 73  1  0
 75 49  1  0
 75 76  1  0
 75 85  1  0
 76 79  1  0
 77 81  1  0
 77 76  1  0
 78 77  2  0
 81 80  1  0
 83 81  1  0
 83 84  1  0
 83 82  1  0
 85 88  1  1
 85 86  1  0
 87 85  1  0
M  ISO  4   4 101   7 100  19 100  48 101
M  END
>  <TORSDO>  (90) 
F 16

>  <SCORE>  (90) 
-16.885

>  <name>  (90) 
90

>  <ligand_id>  (90) 
90

>  <original_smiles>  (90) 
[H]c1c([H])c([H])c2c(c1[H])C([H])([H])C([H])([H])C([H])([H])C2([H])N([H])C(=O)C1([H])N(C(=O)C([H])(N([H])C(=O)C([H])(N([H])C([H])([H])[H])C([H])([H])[H])C(C([H])([H])[H])(C([H])([H])[H])C([H])([H])[H])C([H])([H])c2c([H])c(OC3([H])C([H])([H])C([H])([H])[N+]([H])(C4([H])C([H])([H])N(C(=O)N5C([H])([H])C([H])([H])C([H])([H])C([H])(n6nc(-c7c([H])c([H])c(Oc8c([H])c([H])c(F)c([H])c8F)c([H])c7[H])c(C(=O)N([H])[H])c6N([H])[H])C5([H])[H])C([H])([H])C4([H])[H])C3([H])[H])c([H])c([H])c2C1([H])[H]

>  <smiles>  (90) 
[H]c1c([H])c([H])c2c(c1[H])C([H])([H])C([H])([H])C([H])([H])C2([H])N([H])C(=O)C1([H])N(C(=O)C([H])(N([H])C(=O)C([H])(N([H])C([H])([H])[H])C([H])([H])[H])C(C([H])([H])[H])(C([H])([H])[H])C([H])([H])[H])C([H])([H])c2c([H])c(OC3([H])C([H])([H])C([H])([H])[N+]([H])(C4([H])C([H])([H])N(C(=O)N5C([H])([H])C([H])([H])C([H])([H])C([H])(n6nc(-c7c([H])c([H])c(Oc8c([H])c([H])c(F)c([H])c8F)c([H])c7[H])c(C(=O)N([H])[H])c6N([H])[H])C5([H])[H])C([H])([H])C4([H])[H])C3([H])[H])c([H])c([H])c2C1([H])[H]

$$$$
91:0:0
     RDKit          3D

 94103  0  0  1  0  0  0  0  0999 V2000
  -29.3400  -22.8090   21.4370 C   0  0  0  0  0  2  0  0  0  0  0  0
  -27.9070  -23.7050   19.3880 C   0  0  0  0  0  2  0  0  0  0  0  0
  -28.9550  -21.7960   20.4830 C   0  0  0  0  0  0  0  0  0  0  0  0
  -28.3070  -24.7200   20.3540 C   0  0  0  0  0  0  0  0  0  0  0  0
  -28.2000  -22.3180   19.4500 N   0  0  0  0  0  0  0  0  0  0  0  0
  -29.0490  -24.1740   21.3770 N   0  0  0  0  0  0  0  0  0  0  0  0
  -29.4650  -20.3860   20.5890 N   0  0  0  0  0  0  0  0  0  0  0  0
  -30.1160  -20.3520   21.3700 H   0  0  0  0  0  0  0  0  0  0  0  0
  -30.5200  -15.0580   20.2740 C   0  0  0  0  0  0  0  0  0  0  0  0
  -30.3940  -12.6890   19.3580 C   0  0  0  0  0  2  0  0  0  0  0  0
  -29.4660  -12.6170   18.1260 C   0  0  0  0  0  2  0  0  0  0  0  0
  -28.0020  -12.4060   18.5600 C   0  0  0  0  0  2  0  0  0  0  0  0
  -27.5900  -13.3310   19.7360 C   0  0  0  0  0  3  0  0  0  0  0  0
  -28.6510  -13.3850   20.8550 C   0  0  0  0  0  2  0  0  0  0  0  0
  -29.9020  -13.8050   20.2160 N   0  0  0  0  0  0  0  0  0  0  0  0
  -31.7450  -15.0610   20.1000 O   0  0  0  0  0  0  0  0  0  0  0  0
  -29.6880  -17.5720   20.9800 C   0  0  0  0  0  2  0  0  0  0  0  0
  -29.9850  -17.0320   18.8340 C   0  0  0  0  0  2  0  0  0  0  0  0
  -29.0250  -18.9100   20.2520 C   0  0  0  0  0  3  0  0  0  0  0  0
  -29.1980  -18.4010   18.8100 C   0  0  0  0  0  3  0  0  0  0  0  0
  -29.7820  -16.2860   20.1040 N   0  0  0  0  0  0  0  0  0  0  0  0
  -25.2110  -13.8840   20.4920 C   0  0  0  0  0  0  0  0  0  0  0  0
  -24.1560  -13.0990   20.8660 C   0  0  0  0  0  0  0  0  0  0  0  0
  -24.6350  -11.7530   20.8420 C   0  0  0  0  0  0  0  0  0  0  0  0
  -26.2610  -13.0160   20.2480 N   0  0  0  0  0  0  0  0  0  0  0  0
  -25.9270  -11.7310   20.5300 N   0  0  0  0  0  0  0  0  0  0  0  0
  -23.9190  -10.4840   21.0360 C   0  0  0  0  0  0  0  0  0  0  0  0
  -24.3600   -9.5210   21.9710 C   0  0  0  0  0  3  0  0  0  0  0  0
  -23.6430   -8.3200   22.1540 C   0  0  0  0  0  3  0  0  0  0  0  0
  -22.4690   -8.0720   21.4040 C   0  0  0  0  0  0  0  0  0  0  0  0
  -22.0450   -9.0250   20.4590 C   0  0  0  0  0  3  0  0  0  0  0  0
  -22.7640  -10.2180   20.2740 C   0  0  0  0  0  3  0  0  0  0  0  0
  -21.7200   -6.9240   21.4980 O   0  0  0  0  0  0  0  0  0  0  0  0
  -21.6840   -6.1800   22.6510 C   0  0  0  0  0  0  0  0  0  0  0  0
  -21.2570   -6.7300   23.8790 C   0  0  0  0  0  3  0  0  0  0  0  0
  -21.1670   -5.9130   25.0220 C   0  0  0  0  0  3  0  0  0  0  0  0
  -21.4950   -4.5470   24.9400 C   0  0  0  0  0  0  0  0  0  0  0  0
  -21.9150   -3.9960   23.7170 C   0  0  0  0  0  3  0  0  0  0  0  0
  -22.0050   -4.8100   22.5740 C   0  0  0  0  0  0  0  0  0  0  0  0
  -22.3890   -4.2710   21.3930 F   0  0  0  0  0  0  0  0  0  0  0  0
  -21.4020   -3.7590   26.0360 F   0  0  0  0  0  0  0  0  0  0  0  0
  -22.7550  -13.5650   21.1330 C   0  0  0  0  0  0  0  0  0  0  0  0
  -22.0310  -12.8730   22.0050 N   0  0  0  0  0  0  0  0  0  0  0  0
  -22.3070  -14.5800   20.6010 O   0  0  0  0  0  0  0  0  0  0  0  0
  -22.4050  -12.0550   22.4640 H   0  0  0  0  0  0  0  0  0  0  0  0
  -21.0900  -13.1690   22.2230 H   0  0  0  0  0  0  0  0  0  0  0  0
  -25.3620  -15.2550   20.3120 N   0  0  0  0  0  0  0  0  0  0  0  0
  -24.5960  -15.9060   20.4330 H   0  0  0  0  0  0  0  0  0  0  0  0
  -26.2150  -15.7010   19.9960 H   0  0  0  0  0  0  0  0  0  0  0  0
  -29.7730  -19.4090   17.9070 N   0  0  0  0  0  4  0  0  0  0  0  0
  -30.6920  -19.6670   18.2160 H   0  0  0  0  0  0  0  0  0  0  0  0
  -29.1990  -20.2340   17.9450 H   0  0  0  0  0  0  0  0  0  0  0  0
  -29.8130  -19.0830   16.9580 H   0  0  0  0  0  0  0  0  0  0  0  0
  -28.2860  -26.2040   20.2580 O   0  0  0  0  0  0  0  0  0  0  0  0
  -24.6440  -31.9230   23.2470 C   0  0  0  0  0  0  0  0  0  0  0  0
  -27.1920  -27.1500   20.2440 C   0  0  0  0  0  0  0  0  0  0  0  0
  -23.4350  -30.5220   21.6180 C   0  0  0  0  0  3  0  0  0  0  0  0
  -24.8710  -28.9160   20.2060 C   0  0  0  0  0  0  0  0  0  0  0  0
  -25.9900  -30.7650   21.4510 C   0  0  0  0  0  2  0  0  0  0  0  0
  -26.0520  -29.3620   20.8110 C   0  0  0  0  0  0  0  0  0  0  0  0
  -27.2080  -28.4920   20.8140 C   0  0  0  0  0  3  0  0  0  0  0  0
  -25.9860  -26.8100   19.5980 C   0  0  0  0  0  3  0  0  0  0  0  0
  -24.8520  -27.6570   19.5840 C   0  0  0  0  0  3  0  0  0  0  0  0
  -23.6510  -29.8260   20.2460 C   0  0  0  0  0  2  0  0  0  0  0  0
  -24.7100  -31.0930   22.1610 N   0  0  0  0  0  0  0  0  0  0  0  0
  -23.5580  -32.2180   23.7760 O   0  0  0  0  0  0  0  0  0  0  0  0
  -22.7520  -29.5270   22.5900 C   0  0  0  0  0  0  0  0  0  0  0  0
  -21.4230  -29.3570   22.4650 N   0  0  0  0  0  0  0  0  0  0  0  0
  -23.4200  -28.9100   23.4230 O   0  0  0  0  0  0  0  0  0  0  0  0
  -20.9390  -29.9050   21.7670 H   0  0  0  0  0  0  0  0  0  0  0  0
  -18.0420  -28.1520   22.9620 C   0  0  0  0  0  0  0  0  0  0  0  0
  -20.5990  -28.4270   23.2420 C   0  0  0  0  0  3  0  0  0  0  0  0
  -20.7080  -26.9880   22.6840 C   0  0  0  0  0  2  0  0  0  0  0  0
  -19.6130  -26.6490   21.6680 C   0  0  0  0  0  2  0  0  0  0  0  0
  -18.2270  -26.7960   22.3020 C   0  0  0  0  0  2  0  0  0  0  0  0
  -19.1560  -28.9240   23.3890 C   0  0  0  0  0  0  0  0  0  0  0  0
  -18.9270  -30.1900   23.9690 C   0  0  0  0  0  3  0  0  0  0  0  0
  -17.6180  -30.6860   24.1250 C   0  0  0  0  0  3  0  0  0  0  0  0
  -16.5200  -29.9120   23.7130 C   0  0  0  0  0  3  0  0  0  0  0  0
  -16.7330  -28.6450   23.1400 C   0  0  0  0  0  3  0  0  0  0  0  0
  -25.9240  -32.5610   23.8700 C   0  0  0  0  0  3  0  0  0  0  0  0
  -26.4350  -31.7940   25.1530 C   0  0  1  0  0  0  0  0  0  0  0  0
  -25.3400  -31.5680   26.2230 C   0  0  0  0  0  1  0  0  0  0  0  0
  -27.0140  -30.4110   24.7770 C   0  0  0  0  0  1  0  0  0  0  0  0
  -27.5880  -32.5880   25.8120 C   0  0  0  0  0  1  0  0  0  0  0  0
  -25.6140  -33.9600   24.2040 N   0  0  0  0  0  0  0  0  0  0  0  0
  -25.9300  -35.0150   23.4420 C   0  0  0  0  0  0  0  0  0  0  0  0
  -26.5790  -34.9140   22.3990 O   0  0  0  0  0  0  0  0  0  0  0  0
  -25.0270  -34.1090   25.0120 H   0  0  0  0  0  0  0  0  0  0  0  0
  -24.1850  -36.8070   23.1390 C   0  0  0  0  0  1  0  0  0  0  0  0
  -25.4520  -36.4050   23.9120 C   0  0  0  0  0  3  0  0  0  0  0  0
  -27.6070  -37.3020   24.6750 C   0  0  0  0  0  1  0  0  0  0  0  0
  -26.4760  -37.4620   23.7640 N   0  0  0  0  0  0  0  0  0  0  0  0
  -26.0710  -38.3810   23.9190 H   0  0  0  0  0  0  0  0  0  0  0  0
  2  5  1  0
  2  4  1  0
  3  7  1  0
  3  1  1  0
  4  6  2  0
  5  3  2  0
  6  1  1  0
  7  8  1  0
 10 15  1  0
 11 12  1  0
 11 10  1  0
 13 12  1  0
 13 25  1  0
 13 14  1  0
 15  9  1  0
 15 14  1  0
 16  9  2  0
 18 21  1  0
 19  7  1  0
 19 17  1  0
 20 50  1  0
 20 18  1  0
 20 19  1  0
 21  9  1  0
 21 17  1  0
 22 23  2  0
 23 42  1  0
 24 23  1  0
 24 27  1  0
 25 22  1  0
 25 26  1  0
 26 24  2  0
 27 28  1  0
 28 29  2  0
 30 33  1  0
 30 29  1  0
 31 30  2  0
 32 31  1  0
 32 27  2  0
 33 34  1  0
 34 35  1  0
 35 36  2  0
 37 36  1  0
 37 41  1  0
 38 37  2  0
 39 34  2  0
 39 38  1  0
 40 39  1  0
 42 43  1  0
 43 46  1  0
 43 45  1  0
 44 42  2  0
 47 48  1  0
 47 22  1  0
 49 47  1  0
 50 52  1  0
 50 51  1  0
 53 50  1  0
 54  4  1  0
 55 66  2  0
 56 54  1  0
 56 61  1  0
 57 65  1  0
 57 67  1  0
 58 64  1  0
 58 60  1  0
 59 65  1  0
 60 61  2  0
 60 59  1  0
 62 56  2  0
 63 62  1  0
 63 58  2  0
 64 57  1  0
 65 55  1  0
 67 69  2  0
 68 67  1  0
 70 68  1  0
 71 80  2  0
 71 76  1  0
 72 68  1  0
 72 76  1  0
 73 72  1  0
 74 75  1  0
 74 73  1  0
 75 71  1  0
 76 77  2  0
 77 78  1  0
 79 78  2  0
 80 79  1  0
 81 55  1  0
 81 86  1  0
 81 82  1  0
 82 85  1  1
 82 83  1  0
 84 82  1  0
 86 89  1  0
 87 91  1  0
 87 86  1  0
 88 87  2  0
 91 90  1  0
 93 91  1  0
 93 94  1  0
 93 92  1  0
M  ISO  4   4 101   9 100  21 100  54 101
M  END
>  <TORSDO>  (91) 
F 18

>  <SCORE>  (91) 
-14.969

>  <name>  (91) 
91

>  <ligand_id>  (91) 
91

>  <original_smiles>  (91) 
[H]c1nc(N([H])C2([H])C([H])([H])N(C(=O)N3C([H])([H])C([H])([H])C([H])([H])C([H])(n4nc(-c5c([H])c([H])c(Oc6c([H])c([H])c(F)c([H])c6F)c([H])c5[H])c(C(=O)N([H])[H])c4N([H])[H])C3([H])[H])C([H])([H])C2([H])[N+]([H])([H])[H])c([H])nc1Oc1c([H])c([H])c2c(c1[H])C([H])([H])N(C(=O)C([H])(N([H])C(=O)C([H])(N([H])C([H])([H])[H])C([H])([H])[H])C(C([H])([H])[H])(C([H])([H])[H])C([H])([H])[H])C([H])(C(=O)N([H])C1([H])c3c([H])c([H])c([H])c([H])c3C([H])([H])C([H])([H])C1([H])[H])C2([H])[H]

>  <smiles>  (91) 
[H]c1nc(N([H])C2([H])C([H])([H])N(C(=O)N3C([H])([H])C([H])([H])C([H])([H])C([H])(n4nc(-c5c([H])c([H])c(Oc6c([H])c([H])c(F)c([H])c6F)c([H])c5[H])c(C(=O)N([H])[H])c4N([H])[H])C3([H])[H])C([H])([H])C2([H])[N+]([H])([H])[H])c([H])nc1Oc1c([H])c([H])c2c(c1[H])C([H])([H])N(C(=O)C([H])(N([H])C(=O)C([H])(N([H])C([H])([H])[H])C([H])([H])[H])C(C([H])([H])[H])(C([H])([H])[H])C([H])([H])[H])C([H])(C(=O)N([H])C1([H])c3c([H])c([H])c([H])c([H])c3C([H])([H])C([H])([H])C1([H])[H])C2([H])[H]

$$$$
92:0:0
     RDKit          3D

 84 89  0  0  1  0  0  0  0  0999 V2000
  -30.1640  -16.1930   20.2330 C   0  0  0  0  0  0  0  0  0  0  0  0
  -30.3820  -13.5300   19.4810 C   0  0  0  0  0  2  0  0  0  0  0  0
  -29.5930  -12.8470   18.3140 C   0  0  0  0  0  2  0  0  0  0  0  0
  -28.2090  -12.3810   18.7700 C   0  0  0  0  0  2  0  0  0  0  0  0
  -27.5890  -13.4230   19.7180 C   0  0  0  0  0  3  0  0  0  0  0  0
  -28.5510  -13.9900   20.8080 C   0  0  0  0  0  2  0  0  0  0  0  0
  -29.6410  -14.7640   20.1170 N   0  0  0  0  0  0  0  0  0  0  0  0
  -31.4030  -15.9600   20.2180 O   0  0  0  0  0  0  0  0  0  0  0  0
  -28.6880  -19.2360   19.8210 C   0  0  0  0  0  1  0  0  0  0  0  0
  -30.4410  -18.9140   20.9970 C   0  0  0  0  0  2  0  0  0  0  0  0
  -28.9530  -21.1750   20.0970 C   0  0  0  0  0  1  0  0  0  0  0  0
  -29.8200  -20.4690   21.2490 C   0  0  0  0  0  3  0  0  0  0  0  0
  -29.6190  -17.7850   20.3520 N   0  0  0  0  0  0  0  0  0  0  0  0
  -29.0450  -20.3970   22.3330 F   0  0  0  0  0  0  0  0  0  0  0  0
  -25.2210  -13.8910   20.4620 C   0  0  0  0  0  0  0  0  0  0  0  0
  -24.1620  -13.0950   20.7900 C   0  0  0  0  0  0  0  0  0  0  0  0
  -24.6440  -11.7500   20.7420 C   0  0  0  0  0  0  0  0  0  0  0  0
  -26.2790  -13.0380   20.2260 N   0  0  0  0  0  0  0  0  0  0  0  0
  -25.9460  -11.7370   20.4560 N   0  0  0  0  0  0  0  0  0  0  0  0
  -23.9160  -10.4800   20.8930 C   0  0  0  0  0  0  0  0  0  0  0  0
  -24.3260   -9.4940   21.8180 C   0  0  0  0  0  3  0  0  0  0  0  0
  -23.5910   -8.2970   21.9630 C   0  0  0  0  0  3  0  0  0  0  0  0
  -22.4290   -8.0760   21.1840 C   0  0  0  0  0  0  0  0  0  0  0  0
  -22.0370   -9.0510   20.2500 C   0  0  0  0  0  3  0  0  0  0  0  0
  -22.7730  -10.2390   20.1020 C   0  0  0  0  0  3  0  0  0  0  0  0
  -21.6690   -6.9330   21.2390 O   0  0  0  0  0  0  0  0  0  0  0  0
  -21.6030   -6.1650   22.3740 C   0  0  0  0  0  0  0  0  0  0  0  0
  -21.1710   -6.6960   23.6090 C   0  0  0  0  0  3  0  0  0  0  0  0
  -21.0520   -5.8560   24.7340 C   0  0  0  0  0  3  0  0  0  0  0  0
  -21.3540   -4.4850   24.6250 C   0  0  0  0  0  0  0  0  0  0  0  0
  -21.7790   -3.9540   23.3950 C   0  0  0  0  0  3  0  0  0  0  0  0
  -21.9000   -4.7900   22.2730 C   0  0  0  0  0  0  0  0  0  0  0  0
  -22.2900   -4.2690   21.0840 F   0  0  0  0  0  0  0  0  0  0  0  0
  -21.2340   -3.6760   25.7040 F   0  0  0  0  0  0  0  0  0  0  0  0
  -22.7570  -13.5600   21.0280 C   0  0  0  0  0  0  0  0  0  0  0  0
  -22.0120  -12.8570   21.8740 N   0  0  0  0  0  0  0  0  0  0  0  0
  -22.3270  -14.5870   20.5000 O   0  0  0  0  0  0  0  0  0  0  0  0
  -22.3750  -12.0290   22.3230 H   0  0  0  0  0  0  0  0  0  0  0  0
  -21.0680  -13.1520   22.0760 H   0  0  0  0  0  0  0  0  0  0  0  0
  -25.3720  -15.2670   20.3100 N   0  0  0  0  0  0  0  0  0  0  0  0
  -24.5950  -15.9100   20.4200 H   0  0  0  0  0  0  0  0  0  0  0  0
  -26.2250  -15.7210   20.0150 H   0  0  0  0  0  0  0  0  0  0  0  0
  -28.0430  -23.1360   20.1200 C   0  0  0  0  0 15  0  0  0  0  0  0
  -28.1260  -25.0700   20.1540 O   0  0  0  0  0  1  0  0  0  0  0  0
  -24.6760  -31.8150   23.0070 C   0  0  0  0  0  0  0  0  0  0  0  0
  -27.1870  -26.4270   20.1120 C   0  0  0  0  0  0  0  0  0  0  0  0
  -23.5020  -30.3920   21.3890 C   0  0  0  0  0  3  0  0  0  0  0  0
  -24.9520  -28.6640   20.0190 C   0  0  0  0  0  0  0  0  0  0  0  0
  -26.0940  -30.4410   21.3050 C   0  0  0  0  0  2  0  0  0  0  0  0
  -26.1540  -28.9660   20.6670 C   0  0  0  0  0  0  0  0  0  0  0  0
  -27.2400  -27.8870   20.6700 C   0  0  0  0  0  3  0  0  0  0  0  0
  -25.9450  -26.4190   19.4010 C   0  0  0  0  0  3  0  0  0  0  0  0
  -24.9050  -27.4200   19.3590 C   0  0  0  0  0  3  0  0  0  0  0  0
  -23.7590  -29.6550   20.0390 C   0  0  0  0  0  2  0  0  0  0  0  0
  -24.7860  -30.9250   21.9520 N   0  0  0  0  0  0  0  0  0  0  0  0
  -23.5760  -32.1350   23.4950 O   0  0  0  0  0  0  0  0  0  0  0  0
  -22.7550  -29.4540   22.3790 C   0  0  0  0  0  0  0  0  0  0  0  0
  -21.4140  -29.3470   22.2820 N   0  0  0  0  0  0  0  0  0  0  0  0
  -23.4000  -28.8150   23.2130 O   0  0  0  0  0  0  0  0  0  0  0  0
  -20.9390  -29.9120   21.5900 H   0  0  0  0  0  0  0  0  0  0  0  0
  -18.0000  -28.2340   22.8890 C   0  0  0  0  0  0  0  0  0  0  0  0
  -20.5760  -28.4300   23.0680 C   0  0  0  0  0  3  0  0  0  0  0  0
  -20.6140  -27.0010   22.4770 C   0  0  0  0  0  2  0  0  0  0  0  0
  -19.4740  -26.7250   21.4920 C   0  0  0  0  0  2  0  0  0  0  0  0
  -18.1180  -26.8940   22.1820 C   0  0  0  0  0  2  0  0  0  0  0  0
  -19.1520  -28.9630   23.2900 C   0  0  0  0  0  0  0  0  0  0  0  0
  -18.9820  -30.2130   23.9220 C   0  0  0  0  0  3  0  0  0  0  0  0
  -17.6940  -30.7370   24.1500 C   0  0  0  0  0  3  0  0  0  0  0  0
  -16.5580  -30.0080   23.7590 C   0  0  0  0  0  3  0  0  0  0  0  0
  -16.7130  -28.7560   23.1350 C   0  0  0  0  0  3  0  0  0  0  0  0
  -25.9240  -32.4910   23.6550 C   0  0  0  0  0  3  0  0  0  0  0  0
  -25.5710  -33.8800   24.0250 N   0  0  0  0  0  0  0  0  0  0  0  0
  -25.8790  -34.9770   23.3180 C   0  0  0  0  0  0  0  0  0  0  0  0
  -26.5380  -34.9270   22.2760 O   0  0  0  0  0  0  0  0  0  0  0  0
  -24.9800  -33.9890   24.8350 H   0  0  0  0  0  0  0  0  0  0  0  0
  -24.1170  -36.7680   23.0820 C   0  0  0  0  0  1  0  0  0  0  0  0
  -25.3840  -36.3440   23.8430 C   0  0  0  0  0  3  0  0  0  0  0  0
  -27.5240  -37.2430   24.6540 C   0  0  0  0  0  1  0  0  0  0  0  0
  -26.3970  -37.4200   23.7430 N   0  0  0  0  0  0  0  0  0  0  0  0
  -25.9780  -38.3270   23.9280 H   0  0  0  0  0  0  0  0  0  0  0  0
  -26.4410  -31.7250   24.9370 C   0  0  1  0  0  0  0  0  0  0  0  0
  -25.3460  -31.4760   26.0020 C   0  0  0  0  0  1  0  0  0  0  0  0
  -27.0400  -30.3520   24.5630 C   0  0  0  0  0  1  0  0  0  0  0  0
  -27.5820  -32.5300   25.6040 C   0  0  0  0  0  1  0  0  0  0  0  0
  1 13  1  0
  2  7  1  0
  3  4  1  0
  3  2  1  0
  5  4  1  0
  5 18  1  0
  5  6  1  0
  7  1  1  0
  7  6  1  0
  8  1  2  0
  9 13  1  0
 10 12  1  0
 12 11  1  0
 12 14  1  0
 13 10  1  0
 15 16  2  0
 16 35  1  0
 17 16  1  0
 17 20  1  0
 18 19  1  0
 18 15  1  0
 19 17  2  0
 20 21  1  0
 21 22  2  0
 23 26  1  0
 23 22  1  0
 24 23  2  0
 25 24  1  0
 25 20  2  0
 26 27  1  0
 27 28  1  0
 28 29  2  0
 30 29  1  0
 30 34  1  0
 31 30  2  0
 32 27  2  0
 32 31  1  0
 33 32  1  0
 35 36  1  0
 36 39  1  0
 36 38  1  0
 37 35  2  0
 40 41  1  0
 40 15  1  0
 42 40  1  0
 45 56  2  0
 46 44  1  0
 46 51  1  0
 47 55  1  0
 47 57  1  0
 48 54  1  0
 48 50  1  0
 49 55  1  0
 50 51  2  0
 50 49  1  0
 52 46  2  0
 53 52  1  0
 53 48  2  0
 54 47  1  0
 55 45  1  0
 57 59  2  0
 58 57  1  0
 60 58  1  0
 61 70  2  0
 61 66  1  0
 62 58  1  0
 62 66  1  0
 63 62  1  0
 64 65  1  0
 64 63  1  0
 65 61  1  0
 66 67  2  0
 67 68  1  0
 69 68  2  0
 70 69  1  0
 71 45  1  0
 71 72  1  0
 71 81  1  0
 72 75  1  0
 73 77  1  0
 73 72  1  0
 74 73  2  0
 77 76  1  0
 79 77  1  0
 79 80  1  0
 79 78  1  0
 81 84  1  1
 81 82  1  0
 83 81  1  0
M  ISO  4   1 100  13 100  43 101  44 101
M  END
>  <TORSDO>  (92) 
F 16

>  <SCORE>  (92) 
-15.832

>  <name>  (92) 
92

>  <ligand_id>  (92) 
92

>  <original_smiles>  (92) 
[H]c1c([H])c([H])c2c(c1[H])C([H])([H])C([H])([H])C([H])([H])C2([H])N([H])C(=O)C1([H])N(C(=O)C([H])(N([H])C(=O)C([H])(N([H])C([H])([H])[H])C([H])([H])[H])C(C([H])([H])[H])(C([H])([H])[H])C([H])([H])[H])C([H])([H])c2c([H])c(OC([H])([H])C3([H])C([H])([H])N(C(=O)N4C([H])([H])C([H])([H])C([H])([H])C([H])(n5nc(-c6c([H])c([H])c(Oc7c([H])c([H])c(F)c([H])c7F)c([H])c6[H])c(C(=O)N([H])[H])c5N([H])[H])C4([H])[H])C([H])([H])C3([H])F)c([H])c([H])c2C1([H])[H]

>  <smiles>  (92) 
[H]c1c([H])c([H])c2c(c1[H])C([H])([H])C([H])([H])C([H])([H])C2([H])N([H])C(=O)C1([H])N(C(=O)C([H])(N([H])C(=O)C([H])(N([H])C([H])([H])[H])C([H])([H])[H])C(C([H])([H])[H])(C([H])([H])[H])C([H])([H])[H])C([H])([H])c2c([H])c(OC([H])([H])C3([H])C([H])([H])N(C(=O)N4C([H])([H])C([H])([H])C([H])([H])C([H])(n5nc(-c6c([H])c([H])c(Oc7c([H])c([H])c(F)c([H])c7F)c([H])c6[H])c(C(=O)N([H])[H])c5N([H])[H])C4([H])[H])C([H])([H])C3([H])F)c([H])c([H])c2C1([H])[H]

$$$$
93:0:0
     RDKit          3D

 88 98  0  0  1  0  0  0  0  0999 V2000
  -28.3490  -23.3800   21.0990 C   0  0  0  0  0  3  0  0  0  0  0  0
  -29.0660  -23.6140   19.2830 C   0  0  0  0  0  3  0  0  0  0  0  0
  -28.0410  -24.5740   20.0610 C   0  0  0  0  0  3  0  0  0  0  0  0
  -28.6170  -22.3400   20.0040 N   0  0  1  0  0  4  0  0  0  0  0  0
  -27.7450  -22.0430   19.5950 H   0  0  0  0  0  0  0  0  0  0  0  0
  -28.2330  -26.1440   20.2890 O   0  0  0  0  0  0  0  0  0  0  0  0
  -24.6350  -31.9240   23.2730 C   0  0  0  0  0  0  0  0  0  0  0  0
  -27.1800  -27.1560   20.2280 C   0  0  0  0  0  0  0  0  0  0  0  0
  -23.4270  -30.5350   21.6370 C   0  0  0  0  0  3  0  0  0  0  0  0
  -24.8660  -28.9540   20.2010 C   0  0  0  0  0  0  0  0  0  0  0  0
  -25.9860  -30.7770   21.4680 C   0  0  0  0  0  2  0  0  0  0  0  0
  -26.0510  -29.3790   20.8150 C   0  0  0  0  0  0  0  0  0  0  0  0
  -27.2040  -28.4980   20.8110 C   0  0  0  0  0  3  0  0  0  0  0  0
  -25.9710  -26.8580   19.5610 C   0  0  0  0  0  3  0  0  0  0  0  0
  -24.8450  -27.7110   19.5540 C   0  0  0  0  0  3  0  0  0  0  0  0
  -23.6430  -29.8610   20.2550 C   0  0  0  0  0  2  0  0  0  0  0  0
  -24.7030  -31.1020   22.1810 N   0  0  0  0  0  0  0  0  0  0  0  0
  -23.5500  -32.2120   23.8030 O   0  0  0  0  0  0  0  0  0  0  0  0
  -22.7450  -29.5300   22.6000 C   0  0  0  0  0  0  0  0  0  0  0  0
  -21.4180  -29.3570   22.4700 N   0  0  0  0  0  0  0  0  0  0  0  0
  -23.4140  -28.9100   23.4300 O   0  0  0  0  0  0  0  0  0  0  0  0
  -20.9330  -29.9110   21.7780 H   0  0  0  0  0  0  0  0  0  0  0  0
  -18.0380  -28.1360   22.9580 C   0  0  0  0  0  0  0  0  0  0  0  0
  -20.5950  -28.4190   23.2400 C   0  0  0  0  0  3  0  0  0  0  0  0
  -20.7100  -26.9850   22.6750 C   0  0  0  0  0  2  0  0  0  0  0  0
  -19.6180  -26.6470   21.6550 C   0  0  0  0  0  2  0  0  0  0  0  0
  -18.2300  -26.7850   22.2890 C   0  0  0  0  0  2  0  0  0  0  0  0
  -19.1490  -28.9100   23.3890 C   0  0  0  0  0  0  0  0  0  0  0  0
  -18.9150  -30.1710   23.9780 C   0  0  0  0  0  3  0  0  0  0  0  0
  -17.6060  -30.6600   24.1390 C   0  0  0  0  0  3  0  0  0  0  0  0
  -16.5100  -29.8860   23.7200 C   0  0  0  0  0  3  0  0  0  0  0  0
  -16.7270  -28.6250   23.1350 C   0  0  0  0  0  3  0  0  0  0  0  0
  -25.9160  -32.5560   23.8990 C   0  0  0  0  0  3  0  0  0  0  0  0
  -25.6080  -33.9590   24.2310 N   0  0  0  0  0  0  0  0  0  0  0  0
  -25.9230  -35.0120   23.4650 C   0  0  0  0  0  0  0  0  0  0  0  0
  -26.5660  -34.9070   22.4180 O   0  0  0  0  0  0  0  0  0  0  0  0
  -25.0330  -34.1170   25.0440 H   0  0  0  0  0  0  0  0  0  0  0  0
  -24.1750  -36.8010   23.1760 C   0  0  0  0  0  1  0  0  0  0  0  0
  -25.4500  -36.4020   23.9350 C   0  0  0  0  0  3  0  0  0  0  0  0
  -27.6100  -37.3070   24.6740 C   0  0  0  0  0  1  0  0  0  0  0  0
  -26.4720  -37.4590   23.7720 N   0  0  0  0  0  0  0  0  0  0  0  0
  -26.0680  -38.3780   23.9220 H   0  0  0  0  0  0  0  0  0  0  0  0
  -26.4200  -31.7880   25.1840 C   0  0  1  0  0  0  0  0  0  0  0  0
  -25.3200  -31.5640   26.2470 C   0  0  0  0  0  1  0  0  0  0  0  0
  -26.9970  -30.4040   24.8060 C   0  0  0  0  0  1  0  0  0  0  0  0
  -27.5700  -32.5800   25.8490 C   0  0  0  0  0  1  0  0  0  0  0  0
  -29.5870  -21.0540   20.1650 C   0  0  0  0  0  2  0  0  0  0  0  0
  -29.5160  -18.6090   21.3950 C   0  0  0  0  0  2  0  0  0  0  0  0
  -29.1870  -19.3860   20.1500 C   0  0  0  0  0  3  0  0  0  0  0  0
  -30.0970  -17.9110   20.1830 C   0  0  0  0  0  3  0  0  0  0  0  0
  -30.5650  -15.1580   19.9810 C   0  0  0  0  0  0  0  0  0  0  0  0
  -30.4620  -12.7830   19.0500 C   0  0  0  0  0  2  0  0  0  0  0  0
  -29.4680  -12.6860   17.8670 C   0  0  0  0  0  2  0  0  0  0  0  0
  -28.0310  -12.4470   18.3730 C   0  0  0  0  0  2  0  0  0  0  0  0
  -27.6640  -13.3660   19.5670 C   0  0  0  0  0  3  0  0  0  0  0  0
  -28.7760  -13.4120   20.6340 C   0  0  0  0  0  2  0  0  0  0  0  0
  -29.9930  -13.8770   19.9560 N   0  0  0  0  0  0  0  0  0  0  0  0
  -31.7580  -15.2200   19.6620 O   0  0  0  0  0  0  0  0  0  0  0  0
  -29.7780  -16.3530   20.1730 N   0  0  0  0  0  0  0  0  0  0  0  0
  -28.8100  -16.1390   20.3540 H   0  0  0  0  0  0  0  0  0  0  0  0
  -25.3310  -13.9050   20.4640 C   0  0  0  0  0  0  0  0  0  0  0  0
  -24.2930  -13.1150   20.8730 C   0  0  0  0  0  0  0  0  0  0  0  0
  -24.7570  -11.7670   20.7720 C   0  0  0  0  0  0  0  0  0  0  0  0
  -26.3610  -13.0400   20.1340 N   0  0  0  0  0  0  0  0  0  0  0  0
  -26.0290  -11.7450   20.3850 N   0  0  0  0  0  0  0  0  0  0  0  0
  -24.0420  -10.4970   20.9590 C   0  0  0  0  0  0  0  0  0  0  0  0
  -24.4810   -9.5330   21.8910 C   0  0  0  0  0  3  0  0  0  0  0  0
  -23.7630   -8.3310   22.0700 C   0  0  0  0  0  3  0  0  0  0  0  0
  -22.5910   -8.0850   21.3170 C   0  0  0  0  0  0  0  0  0  0  0  0
  -22.1680   -9.0400   20.3740 C   0  0  0  0  0  3  0  0  0  0  0  0
  -22.8880  -10.2330   20.1940 C   0  0  0  0  0  3  0  0  0  0  0  0
  -21.8430   -6.9360   21.4070 O   0  0  0  0  0  0  0  0  0  0  0  0
  -21.7430   -6.2300   22.5790 C   0  0  0  0  0  0  0  0  0  0  0  0
  -21.2320   -6.8140   23.7590 C   0  0  0  0  0  3  0  0  0  0  0  0
  -21.0850   -6.0340   24.9230 C   0  0  0  0  0  3  0  0  0  0  0  0
  -21.4350   -4.6710   24.9070 C   0  0  0  0  0  0  0  0  0  0  0  0
  -21.9380   -4.0860   23.7310 C   0  0  0  0  0  3  0  0  0  0  0  0
  -22.0890   -4.8640   22.5700 C   0  0  0  0  0  0  0  0  0  0  0  0
  -22.5540   -4.2910   21.4340 F   0  0  0  0  0  0  0  0  0  0  0  0
  -21.2860   -3.9190   26.0230 F   0  0  0  0  0  0  0  0  0  0  0  0
  -22.9130  -13.5810   21.2360 C   0  0  0  0  0  0  0  0  0  0  0  0
  -22.2320  -12.8610   22.1210 N   0  0  0  0  0  0  0  0  0  0  0  0
  -22.4480  -14.6190   20.7670 O   0  0  0  0  0  0  0  0  0  0  0  0
  -22.6190  -12.0240   22.5300 H   0  0  0  0  0  0  0  0  0  0  0  0
  -21.3060  -13.1560   22.3950 H   0  0  0  0  0  0  0  0  0  0  0  0
  -25.4780  -15.2810   20.3160 N   0  0  0  0  0  0  0  0  0  0  0  0
  -24.7100  -15.9200   20.4890 H   0  0  0  0  0  0  0  0  0  0  0  0
  -26.2830  -15.7330   19.9030 H   0  0  0  0  0  0  0  0  0  0  0  0
  1  4  1  0
  2  4  1  0
  2  3  1  0
  2  1  1  0
  3  6  1  0
  3  1  1  0
  4 47  1  0
  4  5  1  6
  7 18  2  0
  8  6  1  0
  8 13  1  0
  9 17  1  0
  9 19  1  0
 10 16  1  0
 10 12  1  0
 11 17  1  0
 12 11  1  0
 13 12  2  0
 14  8  2  0
 15 14  1  0
 15 10  2  0
 16  9  1  0
 17  7  1  0
 19 21  2  0
 20 19  1  0
 22 20  1  0
 23 32  2  0
 23 28  1  0
 24 20  1  0
 24 28  1  0
 25 24  1  0
 26 27  1  0
 26 25  1  0
 27 23  1  0
 28 29  2  0
 29 30  1  0
 31 30  2  0
 32 31  1  0
 33  7  1  0
 33 34  1  0
 33 43  1  0
 34 37  1  0
 35 39  1  0
 35 34  1  0
 36 35  2  0
 39 38  1  0
 41 42  1  0
 41 39  1  0
 41 40  1  0
 43 46  1  1
 43 44  1  0
 45 43  1  0
 49 47  1  0
 49 50  1  0
 49 48  1  0
 50 59  1  0
 50 48  1  0
 51 59  1  0
 52 57  1  0
 53 54  1  0
 53 52  1  0
 55 54  1  0
 55 64  1  0
 55 56  1  0
 57 51  1  0
 57 56  1  0
 58 51  2  0
 59 60  1  0
 61 62  2  0
 62 81  1  0
 63 62  1  0
 63 66  1  0
 64 65  1  0
 64 61  1  0
 65 63  2  0
 66 67  1  0
 67 68  2  0
 69 72  1  0
 69 68  1  0
 70 69  2  0
 71 70  1  0
 71 66  2  0
 72 73  1  0
 73 74  1  0
 74 75  2  0
 76 75  1  0
 76 80  1  0
 77 76  2  0
 78 73  2  0
 78 77  1  0
 79 78  1  0
 81 82  1  0
 82 85  1  0
 82 84  1  0
 83 81  2  0
 86 61  1  0
 86 87  1  0
 88 86  1  0
M  ISO  4   3 101   6 101  51 100  59 100
M  END
>  <TORSDO>  (93) 
F 18

>  <SCORE>  (93) 
-14.623

>  <name>  (93) 
93

>  <ligand_id>  (93) 
93

>  <original_smiles>  (93) 
[H]c1c([H])c([H])c2c(c1[H])C([H])([H])C([H])([H])C([H])([H])C2([H])N([H])C(=O)C1([H])N(C(=O)C([H])(N([H])C(=O)C([H])(N([H])C([H])([H])[H])C([H])([H])[H])C(C([H])([H])[H])(C([H])([H])[H])C([H])([H])[H])C([H])([H])c2c([H])c(OC3([H])C([H])([H])[N+]([H])(C([H])([H])C4([H])C([H])([H])C4([H])N([H])C(=O)N4C([H])([H])C([H])([H])C([H])([H])C([H])(n5nc(-c6c([H])c([H])c(Oc7c([H])c([H])c(F)c([H])c7F)c([H])c6[H])c(C(=O)N([H])[H])c5N([H])[H])C4([H])[H])C3([H])[H])c([H])c([H])c2C1([H])[H]

>  <smiles>  (93) 
[H]c1c([H])c([H])c2c(c1[H])C([H])([H])C([H])([H])C([H])([H])C2([H])N([H])C(=O)C1([H])N(C(=O)C([H])(N([H])C(=O)C([H])(N([H])C([H])([H])[H])C([H])([H])[H])C(C([H])([H])[H])(C([H])([H])[H])C([H])([H])[H])C([H])([H])c2c([H])c(OC3([H])C([H])([H])[N+]([H])(C([H])([H])C4([H])C([H])([H])C4([H])N([H])C(=O)N4C([H])([H])C([H])([H])C([H])([H])C([H])(n5nc(-c6c([H])c([H])c(Oc7c([H])c([H])c(F)c([H])c7F)c([H])c6[H])c(C(=O)N([H])[H])c5N([H])[H])C4([H])[H])C3([H])[H])c([H])c([H])c2C1([H])[H]

$$$$
94:0:0
     RDKit          3D

 96105  0  0  1  0  0  0  0  0999 V2000
  -28.6270  -21.8230   19.8220 C   0  0  0  0  0  0  0  0  0  0  0  0
  -29.2010  -20.6120   20.4800 C   0  0  0  0  0  0  0  0  0  0  0  0
  -28.6770  -23.1880   20.4250 C   0  0  0  0  0  0  0  0  0  0  0  0
  -29.8100  -22.1250   22.1550 C   0  0  0  0  0  0  0  0  0  0  0  0
  -27.9610  -21.7010   18.4600 C   0  0  0  0  0  1  0  0  0  0  0  0
  -30.4560  -22.2900   23.5120 C   0  0  0  0  0  1  0  0  0  0  0  0
  -29.8100  -20.8790   21.6530 N   0  0  0  0  0  0  0  0  0  0  0  0
  -29.2990  -23.2410   21.6190 N   0  0  0  0  0  0  0  0  0  0  0  0
  -30.5290  -15.0690   20.3210 C   0  0  0  0  0  0  0  0  0  0  0  0
  -30.3880  -12.7050   19.3800 C   0  0  0  0  0  2  0  0  0  0  0  0
  -29.4560  -12.5830   18.1570 C   0  0  0  0  0  2  0  0  0  0  0  0
  -28.0080  -12.3360   18.6170 C   0  0  0  0  0  2  0  0  0  0  0  0
  -27.5780  -13.2900   19.7630 C   0  0  0  0  0  3  0  0  0  0  0  0
  -28.6410  -13.3950   20.8760 C   0  0  0  0  0  2  0  0  0  0  0  0
  -29.8790  -13.8320   20.2220 N   0  0  0  0  0  0  0  0  0  0  0  0
  -31.7570  -15.0130   20.1900 O   0  0  0  0  0  0  0  0  0  0  0  0
  -29.3660  -17.5890   20.8130 C   0  0  0  0  0  2  0  0  0  0  0  0
  -30.3900  -17.0750   18.8260 C   0  0  0  0  0  2  0  0  0  0  0  0
  -29.3270  -19.0190   19.9370 C   0  0  0  0  0  3  0  0  0  0  0  0
  -30.5730  -18.6140   19.1290 C   0  0  0  0  0  3  0  0  0  0  0  0
  -29.8810  -16.3300   20.0130 N   0  0  0  0  0  0  0  0  0  0  0  0
  -25.2070  -13.8290   20.5420 C   0  0  0  0  0  0  0  0  0  0  0  0
  -24.1540  -13.0380   20.9140 C   0  0  0  0  0  0  0  0  0  0  0  0
  -24.6370  -11.6940   20.8770 C   0  0  0  0  0  0  0  0  0  0  0  0
  -26.2570  -12.9660   20.2880 N   0  0  0  0  0  0  0  0  0  0  0  0
  -25.9270  -11.6760   20.5600 N   0  0  0  0  0  0  0  0  0  0  0  0
  -23.9280  -10.4210   21.0680 C   0  0  0  0  0  0  0  0  0  0  0  0
  -24.3790   -9.4520   21.9910 C   0  0  0  0  0  3  0  0  0  0  0  0
  -23.6660   -8.2470   22.1700 C   0  0  0  0  0  3  0  0  0  0  0  0
  -22.4870   -8.0020   21.4240 C   0  0  0  0  0  0  0  0  0  0  0  0
  -22.0590   -8.9590   20.4870 C   0  0  0  0  0  3  0  0  0  0  0  0
  -22.7740  -10.1540   20.3060 C   0  0  0  0  0  3  0  0  0  0  0  0
  -21.7450   -6.8490   21.5100 O   0  0  0  0  0  0  0  0  0  0  0  0
  -21.7150   -6.0970   22.6570 C   0  0  0  0  0  0  0  0  0  0  0  0
  -21.2820   -6.6340   23.8890 C   0  0  0  0  0  3  0  0  0  0  0  0
  -21.1990   -5.8070   25.0270 C   0  0  0  0  0  3  0  0  0  0  0  0
  -21.5410   -4.4450   24.9370 C   0  0  0  0  0  0  0  0  0  0  0  0
  -21.9710   -3.9080   23.7100 C   0  0  0  0  0  3  0  0  0  0  0  0
  -22.0540   -4.7320   22.5740 C   0  0  0  0  0  0  0  0  0  0  0  0
  -22.4470   -4.2030   21.3900 F   0  0  0  0  0  0  0  0  0  0  0  0
  -21.4580   -3.6500   26.0290 F   0  0  0  0  0  0  0  0  0  0  0  0
  -22.7510  -13.4970   21.1900 C   0  0  0  0  0  0  0  0  0  0  0  0
  -22.0340  -12.7940   22.0600 N   0  0  0  0  0  0  0  0  0  0  0  0
  -22.2980  -14.5140   20.6670 O   0  0  0  0  0  0  0  0  0  0  0  0
  -22.4110  -11.9740   22.5110 H   0  0  0  0  0  0  0  0  0  0  0  0
  -21.0940  -13.0860   22.2850 H   0  0  0  0  0  0  0  0  0  0  0  0
  -25.3560  -15.2020   20.3660 N   0  0  0  0  0  0  0  0  0  0  0  0
  -24.5940  -15.8590   20.4930 H   0  0  0  0  0  0  0  0  0  0  0  0
  -26.2090  -15.6440   20.0460 H   0  0  0  0  0  0  0  0  0  0  0  0
  -30.8650  -19.4250   17.9170 N   0  0  0  0  0  4  0  0  0  0  0  0
  -30.8490  -20.3970   18.1800 H   0  0  0  0  0  0  0  0  0  0  0  0
  -30.1550  -19.2870   17.2160 H   0  0  0  0  0  0  0  0  0  0  0  0
  -32.5310  -20.0600   16.1310 C   0  0  0  0  0  1  0  0  0  0  0  0
  -32.1980  -19.1540   17.3260 C   0  0  0  0  0  2  0  0  0  0  0  0
  -27.9530  -24.6020   19.8980 C   0  0  0  0  0  2  0  0  0  0  0  0
  -28.2100  -26.0980   20.3320 O   0  0  0  0  0  0  0  0  0  0  0  0
  -24.6320  -31.8820   23.2840 C   0  0  0  0  0  0  0  0  0  0  0  0
  -27.1870  -27.1280   20.2390 C   0  0  0  0  0  0  0  0  0  0  0  0
  -23.4300  -30.4960   21.6390 C   0  0  0  0  0  3  0  0  0  0  0  0
  -24.8740  -28.9160   20.2120 C   0  0  0  0  0  0  0  0  0  0  0  0
  -25.9890  -30.7380   21.4850 C   0  0  0  0  0  2  0  0  0  0  0  0
  -26.0560  -29.3430   20.8300 C   0  0  0  0  0  0  0  0  0  0  0  0
  -27.2100  -28.4630   20.8300 C   0  0  0  0  0  3  0  0  0  0  0  0
  -25.9820  -26.8270   19.5640 C   0  0  0  0  0  3  0  0  0  0  0  0
  -24.8530  -27.6730   19.5630 C   0  0  0  0  0  3  0  0  0  0  0  0
  -23.6530  -29.8220   20.2600 C   0  0  0  0  0  2  0  0  0  0  0  0
  -24.7040  -31.0620   22.1890 N   0  0  0  0  0  0  0  0  0  0  0  0
  -23.5450  -32.1680   23.8100 O   0  0  0  0  0  0  0  0  0  0  0  0
  -22.7440  -29.4900   22.5990 C   0  0  0  0  0  0  0  0  0  0  0  0
  -21.4140  -29.3210   22.4700 N   0  0  0  0  0  0  0  0  0  0  0  0
  -23.4100  -28.8630   23.4270 O   0  0  0  0  0  0  0  0  0  0  0  0
  -20.9300  -29.8810   21.7820 H   0  0  0  0  0  0  0  0  0  0  0  0
  -18.0300  -28.1250   22.9610 C   0  0  0  0  0  0  0  0  0  0  0  0
  -20.5880  -28.3870   23.2400 C   0  0  0  0  0  3  0  0  0  0  0  0
  -20.6910  -26.9520   22.6700 C   0  0  0  0  0  2  0  0  0  0  0  0
  -19.5930  -26.6280   21.6510 C   0  0  0  0  0  2  0  0  0  0  0  0
  -18.2080  -26.7760   22.2880 C   0  0  0  0  0  2  0  0  0  0  0  0
  -19.1460  -28.8890   23.3940 C   0  0  0  0  0  0  0  0  0  0  0  0
  -18.9210  -30.1520   23.9850 C   0  0  0  0  0  3  0  0  0  0  0  0
  -17.6130  -30.6470   24.1480 C   0  0  0  0  0  3  0  0  0  0  0  0
  -16.5120  -29.8790   23.7310 C   0  0  0  0  0  3  0  0  0  0  0  0
  -16.7230  -28.6220   23.1400 C   0  0  0  0  0  3  0  0  0  0  0  0
  -25.9110  -32.5140   23.9150 C   0  0  0  0  0  3  0  0  0  0  0  0
  -26.4060  -31.7500   25.2040 C   0  0  1  0  0  0  0  0  0  0  0  0
  -25.3010  -31.5320   26.2660 C   0  0  0  0  0  1  0  0  0  0  0  0
  -26.9800  -30.3650   24.8340 C   0  0  0  0  0  1  0  0  0  0  0  0
  -27.5620  -32.5380   25.8670 C   0  0  0  0  0  1  0  0  0  0  0  0
  -25.6060  -33.9180   24.2370 N   0  0  0  0  0  0  0  0  0  0  0  0
  -25.9300  -34.9650   23.4680 C   0  0  0  0  0  0  0  0  0  0  0  0
  -26.5810  -34.8500   22.4260 O   0  0  0  0  0  0  0  0  0  0  0  0
  -25.0300  -34.0800   25.0500 H   0  0  0  0  0  0  0  0  0  0  0  0
  -24.2000  -36.7630   23.1450 C   0  0  0  0  0  1  0  0  0  0  0  0
  -25.4610  -36.3610   23.9250 C   0  0  0  0  0  3  0  0  0  0  0  0
  -27.6180  -37.2530   24.6910 C   0  0  0  0  0  1  0  0  0  0  0  0
  -26.4930  -37.4100   23.7730 N   0  0  0  0  0  0  0  0  0  0  0  0
  -26.0910  -38.3320   23.9170 H   0  0  0  0  0  0  0  0  0  0  0  0
  1  3  1  0
  1  2  2  0
  2  7  1  0
  3  8  2  0
  4  6  1  0
  5  1  1  0
  7  4  2  0
  8  4  1  0
 10 15  1  0
 11 12  1  0
 11 10  1  0
 13 12  1  0
 13 25  1  0
 13 14  1  0
 15  9  1  0
 15 14  1  0
 16  9  2  0
 18 20  1  0
 18 21  1  0
 19  2  1  0
 19 17  1  0
 20 50  1  0
 20 19  1  0
 21  9  1  0
 21 17  1  0
 22 23  2  0
 23 42  1  0
 24 23  1  0
 24 27  1  0
 25 22  1  0
 25 26  1  0
 26 24  2  0
 27 28  1  0
 28 29  2  0
 30 33  1  0
 30 29  1  0
 31 30  2  0
 32 31  1  0
 32 27  2  0
 33 34  1  0
 34 35  1  0
 35 36  2  0
 37 36  1  0
 37 41  1  0
 38 37  2  0
 39 34  2  0
 39 38  1  0
 40 39  1  0
 42 43  1  0
 43 46  1  0
 43 45  1  0
 44 42  2  0
 47 48  1  0
 47 22  1  0
 49 47  1  0
 50 51  1  0
 52 50  1  0
 53 54  1  0
 54 50  1  0
 55 56  1  0
 55  3  1  0
 57 68  2  0
 58 56  1  0
 58 63  1  0
 59 67  1  0
 59 69  1  0
 60 66  1  0
 60 62  1  0
 61 67  1  0
 62 61  1  0
 63 62  2  0
 64 58  2  0
 65 64  1  0
 65 60  2  0
 66 59  1  0
 67 57  1  0
 69 71  2  0
 70 69  1  0
 72 70  1  0
 73 82  2  0
 73 78  1  0
 74 70  1  0
 74 78  1  0
 75 74  1  0
 76 77  1  0
 76 75  1  0
 77 73  1  0
 78 79  2  0
 79 80  1  0
 81 80  2  0
 82 81  1  0
 83 57  1  0
 83 88  1  0
 83 84  1  0
 84 87  1  1
 84 85  1  0
 86 84  1  0
 88 91  1  0
 89 93  1  0
 89 88  1  0
 90 89  2  0
 93 92  1  0
 95 96  1  0
 95 93  1  0
 95 94  1  0
M  ISO  4   9 100  21 100  55 101  56 101
M  END
>  <TORSDO>  (94) 
F 19

>  <SCORE>  (94) 
-14.742

>  <name>  (94) 
94

>  <ligand_id>  (94) 
94

>  <original_smiles>  (94) 
[H]c1c([H])c([H])c2c(c1[H])C([H])([H])C([H])([H])C([H])([H])C2([H])N([H])C(=O)C1([H])N(C(=O)C([H])(N([H])C(=O)C([H])(N([H])C([H])([H])[H])C([H])([H])[H])C(C([H])([H])[H])(C([H])([H])[H])C([H])([H])[H])C([H])([H])c2c([H])c(OC([H])([H])c3nc(C([H])([H])[H])nc(C4([H])C([H])([H])N(C(=O)N5C([H])([H])C([H])([H])C([H])([H])C([H])(n6nc(-c7c([H])c([H])c(Oc8c([H])c([H])c(F)c([H])c8F)c([H])c7[H])c(C(=O)N([H])[H])c6N([H])[H])C5([H])[H])C([H])([H])C4([H])[N+]([H])([H])C([H])([H])C([H])([H])[H])c3C([H])([H])[H])c([H])c([H])c2C1([H])[H]

>  <smiles>  (94) 
[H]c1c([H])c([H])c2c(c1[H])C([H])([H])C([H])([H])C([H])([H])C2([H])N([H])C(=O)C1([H])N(C(=O)C([H])(N([H])C(=O)C([H])(N([H])C([H])([H])[H])C([H])([H])[H])C(C([H])([H])[H])(C([H])([H])[H])C([H])([H])[H])C([H])([H])c2c([H])c(OC([H])([H])c3nc(C([H])([H])[H])nc(C4([H])C([H])([H])N(C(=O)N5C([H])([H])C([H])([H])C([H])([H])C([H])(n6nc(-c7c([H])c([H])c(Oc8c([H])c([H])c(F)c([H])c8F)c([H])c7[H])c(C(=O)N([H])[H])c6N([H])[H])C5([H])[H])C([H])([H])C4([H])[N+]([H])([H])C([H])([H])C([H])([H])[H])c3C([H])([H])[H])c([H])c([H])c2C1([H])[H]

$$$$
95:0:0
     RDKit          3D

 90 99  0  0  1  0  0  0  0  0999 V2000
  -30.5120  -15.0620   20.4120 C   0  0  0  0  0  0  0  0  0  0  0  0
  -30.3710  -12.6920   19.4810 C   0  0  0  0  0  2  0  0  0  0  0  0
  -29.4610  -12.6550   18.2300 C   0  0  0  0  0  2  0  0  0  0  0  0
  -27.9980  -12.4180   18.6510 C   0  0  0  0  0  2  0  0  0  0  0  0
  -27.5720  -13.3470   19.8170 C   0  0  0  0  0  3  0  0  0  0  0  0
  -28.6140  -13.3900   20.9560 C   0  0  0  0  0  2  0  0  0  0  0  0
  -29.8910  -13.8050   20.3630 N   0  0  0  0  0  0  0  0  0  0  0  0
  -31.7190  -15.0470   20.1360 O   0  0  0  0  0  0  0  0  0  0  0  0
  -29.5330  -20.1400   20.4790 C   0  0  0  0  0  0  0  0  0  0  0  0
  -31.4810  -19.3580   19.6800 C   0  0  0  0  0  0  0  0  0  0  0  0
  -30.0400  -17.7580   20.4050 C   0  0  0  0  0  0  0  0  0  0  0  0
  -32.8060  -19.6860   19.0220 C   0  0  0  0  0  1  0  0  0  0  0  0
  -30.7230  -20.4120   19.9710 N   0  0  0  0  0  4  0  0  0  0  0  0
  -29.1440  -18.8040   20.7090 N   0  0  0  0  0  0  0  0  0  0  0  0
  -31.2190  -18.0630   19.8690 N   0  0  0  0  0  2  0  0  0  0  0  0
  -29.7780  -16.2930   20.5950 N   0  0  0  0  0  0  0  0  0  0  0  0
  -28.8280  -16.1180   20.8770 H   0  0  0  0  0  0  0  0  0  0  0  0
  -25.1900  -13.9150   20.5430 C   0  0  0  0  0  0  0  0  0  0  0  0
  -24.1250  -13.1400   20.9070 C   0  0  0  0  0  0  0  0  0  0  0  0
  -24.5900  -11.7900   20.8770 C   0  0  0  0  0  0  0  0  0  0  0  0
  -26.2340  -13.0390   20.3070 N   0  0  0  0  0  0  0  0  0  0  0  0
  -25.8840  -11.7530   20.5760 N   0  0  0  0  0  0  0  0  0  0  0  0
  -23.8610  -10.5280   21.0620 C   0  0  0  0  0  0  0  0  0  0  0  0
  -24.2870   -9.5580   21.9940 C   0  0  0  0  0  3  0  0  0  0  0  0
  -23.5590   -8.3610   22.1680 C   0  0  0  0  0  3  0  0  0  0  0  0
  -22.3880   -8.1250   21.4060 C   0  0  0  0  0  0  0  0  0  0  0  0
  -21.9810   -9.0850   20.4640 C   0  0  0  0  0  3  0  0  0  0  0  0
  -22.7080  -10.2730   20.2910 C   0  0  0  0  0  3  0  0  0  0  0  0
  -21.6280   -6.9830   21.4900 O   0  0  0  0  0  0  0  0  0  0  0  0
  -21.5690   -6.2400   22.6410 C   0  0  0  0  0  0  0  0  0  0  0  0
  -21.1390   -6.7940   23.8670 C   0  0  0  0  0  3  0  0  0  0  0  0
  -21.0290   -5.9780   25.0090 C   0  0  0  0  0  3  0  0  0  0  0  0
  -21.3360   -4.6070   24.9270 C   0  0  0  0  0  0  0  0  0  0  0  0
  -21.7640   -4.0520   23.7080 C   0  0  0  0  0  3  0  0  0  0  0  0
  -21.8780   -4.8660   22.5670 C   0  0  0  0  0  0  0  0  0  0  0  0
  -22.2660   -4.3230   21.3890 F   0  0  0  0  0  0  0  0  0  0  0  0
  -21.2250   -3.8190   26.0230 F   0  0  0  0  0  0  0  0  0  0  0  0
  -22.7260  -13.6170   21.1650 C   0  0  0  0  0  0  0  0  0  0  0  0
  -21.9910  -12.9300   22.0320 N   0  0  0  0  0  0  0  0  0  0  0  0
  -22.2940  -14.6380   20.6310 O   0  0  0  0  0  0  0  0  0  0  0  0
  -22.3520  -12.1050   22.4890 H   0  0  0  0  0  0  0  0  0  0  0  0
  -21.0510  -13.2330   22.2440 H   0  0  0  0  0  0  0  0  0  0  0  0
  -25.3560  -15.2850   20.3670 N   0  0  0  0  0  0  0  0  0  0  0  0
  -24.5740  -15.9290   20.4460 H   0  0  0  0  0  0  0  0  0  0  0  0
  -26.1900  -15.7250   20.0000 H   0  0  0  0  0  0  0  0  0  0  0  0
  -27.9220  -22.1380   19.5930 C   0  0  0  0  0  2  0  0  0  0  0  0
  -28.6450  -21.5230   20.7570 C   0  0  0  0  0  3  0  0  0  0  0  0
  -28.7850  -23.1660   20.3080 C   0  0  0  0  0  3  0  0  0  0  0  0
  -27.9900  -24.6070   20.7110 C   0  0  0  0  0  2  0  0  0  0  0  0
  -28.2900  -26.1250   20.3870 O   0  0  0  0  0  0  0  0  0  0  0  0
  -24.6510  -31.9190   23.2590 C   0  0  0  0  0  0  0  0  0  0  0  0
  -27.2480  -27.1350   20.3280 C   0  0  0  0  0  0  0  0  0  0  0  0
  -23.4680  -30.5010   21.6300 C   0  0  0  0  0  3  0  0  0  0  0  0
  -24.9260  -28.9030   20.2410 C   0  0  0  0  0  0  0  0  0  0  0  0
  -26.0240  -30.7580   21.4840 C   0  0  0  0  0  2  0  0  0  0  0  0
  -26.1030  -29.3510   20.8550 C   0  0  0  0  0  0  0  0  0  0  0  0
  -27.2650  -28.4840   20.8830 C   0  0  0  0  0  3  0  0  0  0  0  0
  -26.0490  -26.8030   19.6610 C   0  0  0  0  0  3  0  0  0  0  0  0
  -24.9130  -27.6400   19.6300 C   0  0  0  0  0  3  0  0  0  0  0  0
  -23.7020  -29.8060   20.2620 C   0  0  0  0  0  2  0  0  0  0  0  0
  -24.7340  -31.0850   22.1760 N   0  0  0  0  0  0  0  0  0  0  0  0
  -23.5620  -32.2070   23.7760 O   0  0  0  0  0  0  0  0  0  0  0  0
  -22.7830  -29.5060   22.6000 C   0  0  0  0  0  0  0  0  0  0  0  0
  -21.4580  -29.3220   22.4610 N   0  0  0  0  0  0  0  0  0  0  0  0
  -23.4490  -28.9030   23.4460 O   0  0  0  0  0  0  0  0  0  0  0  0
  -20.9770  -29.8620   21.7530 H   0  0  0  0  0  0  0  0  0  0  0  0
  -18.0850  -28.0880   22.9370 C   0  0  0  0  0  0  0  0  0  0  0  0
  -20.6340  -28.3920   23.2390 C   0  0  0  0  0  3  0  0  0  0  0  0
  -20.7640  -26.9490   22.7020 C   0  0  0  0  0  2  0  0  0  0  0  0
  -19.6850  -26.5880   21.6760 C   0  0  0  0  0  2  0  0  0  0  0  0
  -18.2900  -26.7270   22.2920 C   0  0  0  0  0  2  0  0  0  0  0  0
  -19.1860  -28.8760   23.3670 C   0  0  0  0  0  0  0  0  0  0  0  0
  -18.9380  -30.1460   23.9300 C   0  0  0  0  0  3  0  0  0  0  0  0
  -17.6240  -30.6290   24.0700 C   0  0  0  0  0  3  0  0  0  0  0  0
  -16.5360  -29.8390   23.6560 C   0  0  0  0  0  3  0  0  0  0  0  0
  -16.7680  -28.5710   23.0920 C   0  0  0  0  0  3  0  0  0  0  0  0
  -25.9230  -32.5700   23.8850 C   0  0  0  0  0  3  0  0  0  0  0  0
  -25.5990  -33.9690   24.2060 N   0  0  0  0  0  0  0  0  0  0  0  0
  -25.9220  -35.0240   23.4450 C   0  0  0  0  0  0  0  0  0  0  0  0
  -26.5910  -34.9200   22.4130 O   0  0  0  0  0  0  0  0  0  0  0  0
  -25.0040  -34.1190   25.0070 H   0  0  0  0  0  0  0  0  0  0  0  0
  -24.1800  -36.8090   23.0960 C   0  0  0  0  0  1  0  0  0  0  0  0
  -25.4290  -36.4130   23.9000 C   0  0  0  0  0  3  0  0  0  0  0  0
  -27.5620  -37.3190   24.7150 C   0  0  0  0  0  1  0  0  0  0  0  0
  -26.4550  -37.4720   23.7760 N   0  0  0  0  0  0  0  0  0  0  0  0
  -26.0430  -38.3910   23.9190 H   0  0  0  0  0  0  0  0  0  0  0  0
  -26.4320  -31.8150   25.1760 C   0  0  1  0  0  0  0  0  0  0  0  0
  -25.3310  -31.5870   26.2390 C   0  0  0  0  0  1  0  0  0  0  0  0
  -27.0230  -30.4340   24.8130 C   0  0  0  0  0  1  0  0  0  0  0  0
  -27.5740  -32.6220   25.8360 C   0  0  0  0  0  1  0  0  0  0  0  0
  1 16  1  0
  2  7  1  0
  3  4  1  0
  3  2  1  0
  5  4  1  0
  5 21  1  0
  5  6  1  0
  7  1  1  0
  7  6  1  0
  8  1  2  0
  9 14  1  0
 10 15  1  0
 10 13  2  0
 11 16  1  0
 11 14  2  0
 12 10  1  0
 13  9  2  0
 15 11  1  0
 16 17  1  0
 18 19  2  0
 19 38  1  0
 20 19  1  0
 20 23  1  0
 21 18  1  0
 21 22  1  0
 22 20  2  0
 23 24  1  0
 24 25  2  0
 26 29  1  0
 26 25  1  0
 27 26  2  0
 28 27  1  0
 28 23  2  0
 29 30  1  0
 30 31  1  0
 31 32  2  0
 33 32  1  0
 33 37  1  0
 34 33  2  0
 35 30  2  0
 35 34  1  0
 36 35  1  0
 38 39  1  0
 39 42  1  0
 39 41  1  0
 40 38  2  0
 43 44  1  0
 43 18  1  0
 45 43  1  0
 46 48  1  0
 46 47  1  0
 47  9  1  0
 48 49  1  0
 48 47  1  0
 50 49  1  0
 51 62  2  0
 52 50  1  0
 52 57  1  0
 53 61  1  0
 53 63  1  0
 54 60  1  0
 54 56  1  0
 55 61  1  0
 56 57  2  0
 56 55  1  0
 58 52  2  0
 59 58  1  0
 59 54  2  0
 60 53  1  0
 61 51  1  0
 63 65  2  0
 64 63  1  0
 66 64  1  0
 67 76  2  0
 67 72  1  0
 68 64  1  0
 68 72  1  0
 69 68  1  0
 70 71  1  0
 70 69  1  0
 71 67  1  0
 72 73  2  0
 73 74  1  0
 75 74  2  0
 76 75  1  0
 77 51  1  0
 77 78  1  0
 77 87  1  0
 78 81  1  0
 79 83  1  0
 79 78  1  0
 80 79  2  0
 83 82  1  0
 85 83  1  0
 85 86  1  0
 85 84  1  0
 87 90  1  1
 87 88  1  0
 89 87  1  0
M  ISO  4   1 100  16 100  49 101  50 101
M  END
>  <TORSDO>  (95) 
F 17

>  <SCORE>  (95) 
-15.120

>  <name>  (95) 
95

>  <ligand_id>  (95) 
95

>  <original_smiles>  (95) 
[H]c1c([H])c([H])c2c(c1[H])C([H])([H])C([H])([H])C([H])([H])C2([H])N([H])C(=O)C1([H])N(C(=O)C([H])(N([H])C(=O)C([H])(N([H])C([H])([H])[H])C([H])([H])[H])C(C([H])([H])[H])(C([H])([H])[H])C([H])([H])[H])C([H])([H])c2c([H])c(OC([H])([H])C3([H])C([H])([H])C3([H])c3nc(N([H])C(=O)N4C([H])([H])C([H])([H])C([H])([H])C([H])(n5nc(-c6c([H])c([H])c(Oc7c([H])c([H])c(F)c([H])c7F)c([H])c6[H])c(C(=O)N([H])[H])c5N([H])[H])C4([H])[H])nc(C([H])([H])[H])n3)c([H])c([H])c2C1([H])[H]

>  <smiles>  (95) 
[H]c1c([H])c([H])c2c(c1[H])C([H])([H])C([H])([H])C([H])([H])C2([H])N([H])C(=O)C1([H])N(C(=O)C([H])(N([H])C(=O)C([H])(N([H])C([H])([H])[H])C([H])([H])[H])C(C([H])([H])[H])(C([H])([H])[H])C([H])([H])[H])C([H])([H])c2c([H])c(OC([H])([H])C3([H])C([H])([H])C3([H])c3nc(N([H])C(=O)N4C([H])([H])C([H])([H])C([H])([H])C([H])(n5nc(-c6c([H])c([H])c(Oc7c([H])c([H])c(F)c([H])c7F)c([H])c6[H])c(C(=O)N([H])[H])c5N([H])[H])C4([H])[H])nc(C([H])([H])[H])n3)c([H])c([H])c2C1([H])[H]

$$$$
96:0:0
     RDKit          3D

 91100  0  0  1  0  0  0  0  0999 V2000
  -30.4360  -15.2220   20.3730 C   0  0  0  0  0  0  0  0  0  0  0  0
  -30.4450  -12.7710   19.5290 C   0  0  0  0  0  2  0  0  0  0  0  0
  -29.5380  -12.5760   18.2860 C   0  0  0  0  0  2  0  0  0  0  0  0
  -28.0820  -12.3090   18.7090 C   0  0  0  0  0  2  0  0  0  0  0  0
  -27.6200  -13.2700   19.8330 C   0  0  0  0  0  3  0  0  0  0  0  0
  -28.6560  -13.4070   20.9710 C   0  0  0  0  0  2  0  0  0  0  0  0
  -29.8990  -13.9050   20.3580 N   0  0  0  0  0  0  0  0  0  0  0  0
  -31.6470  -15.2500   20.0970 O   0  0  0  0  0  0  0  0  0  0  0  0
  -29.9080  -20.2120   19.4830 C   0  0  0  0  0  3  0  0  0  0  0  0
  -29.0780  -21.0750   20.3200 C   0  0  0  0  0  0  0  0  0  0  0  0
  -28.5260  -20.1150   21.2590 C   0  0  0  0  0  0  0  0  0  0  0  0
  -29.5580  -17.9840   20.4760 C   0  0  0  0  0  0  0  0  0  0  0  0
  -30.1310  -18.8060   19.5470 N   0  0  0  0  0  0  0  0  0  0  0  0
  -28.7400  -18.7100   21.3000 N   0  0  0  0  0  0  0  0  0  0  0  0
  -29.6170  -16.4350   20.5670 N   0  0  0  0  0  0  0  0  0  0  0  0
  -28.7300  -16.1170   20.9180 H   0  0  0  0  0  0  0  0  0  0  0  0
  -25.2420  -13.8240   20.5730 C   0  0  0  0  0  0  0  0  0  0  0  0
  -24.1760  -13.0440   20.9250 C   0  0  0  0  0  0  0  0  0  0  0  0
  -24.6410  -11.6930   20.8760 C   0  0  0  0  0  0  0  0  0  0  0  0
  -26.2860  -12.9510   20.3250 N   0  0  0  0  0  0  0  0  0  0  0  0
  -25.9350  -11.6610   20.5740 N   0  0  0  0  0  0  0  0  0  0  0  0
  -23.9100  -10.4300   21.0410 C   0  0  0  0  0  0  0  0  0  0  0  0
  -24.3640   -9.4210   21.9190 C   0  0  0  0  0  3  0  0  0  0  0  0
  -23.6310   -8.2250   22.0760 C   0  0  0  0  0  3  0  0  0  0  0  0
  -22.4290   -8.0290   21.3550 C   0  0  0  0  0  0  0  0  0  0  0  0
  -21.9930   -9.0270   20.4650 C   0  0  0  0  0  3  0  0  0  0  0  0
  -22.7270  -10.2140   20.3060 C   0  0  0  0  0  3  0  0  0  0  0  0
  -21.6650   -6.8890   21.4250 O   0  0  0  0  0  0  0  0  0  0  0  0
  -21.6860   -6.0740   22.5280 C   0  0  0  0  0  0  0  0  0  0  0  0
  -21.4020   -6.5640   23.8220 C   0  0  0  0  0  3  0  0  0  0  0  0
  -21.3660   -5.6790   24.9170 C   0  0  0  0  0  3  0  0  0  0  0  0
  -21.6040   -4.3060   24.7220 C   0  0  0  0  0  0  0  0  0  0  0  0
  -21.8820   -3.8150   23.4340 C   0  0  0  0  0  3  0  0  0  0  0  0
  -21.9190   -4.6970   22.3400 C   0  0  0  0  0  0  0  0  0  0  0  0
  -22.1660   -4.2150   21.0980 F   0  0  0  0  0  0  0  0  0  0  0  0
  -21.5630   -3.4540   25.7740 F   0  0  0  0  0  0  0  0  0  0  0  0
  -22.7790  -13.5200   21.1890 C   0  0  0  0  0  0  0  0  0  0  0  0
  -22.0440  -12.8190   22.0440 N   0  0  0  0  0  0  0  0  0  0  0  0
  -22.3470  -14.5500   20.6730 O   0  0  0  0  0  0  0  0  0  0  0  0
  -22.4060  -11.9850   22.4840 H   0  0  0  0  0  0  0  0  0  0  0  0
  -21.1060  -13.1210   22.2640 H   0  0  0  0  0  0  0  0  0  0  0  0
  -25.4040  -15.1970   20.4160 N   0  0  0  0  0  0  0  0  0  0  0  0
  -24.6280  -15.8410   20.5200 H   0  0  0  0  0  0  0  0  0  0  0  0
  -26.2350  -15.6410   20.0460 H   0  0  0  0  0  0  0  0  0  0  0  0
  -28.6470  -23.5880   19.0480 C   0  0  0  0  0  2  0  0  0  0  0  0
  -29.0380  -22.8350   20.3120 C   0  0  0  0  0  3  0  0  0  0  0  0
  -27.9980  -24.2600   20.2380 C   0  0  0  0  0  3  0  0  0  0  0  0
  -28.2420  -25.8820   20.2540 O   0  0  0  0  0  0  0  0  0  0  0  0
  -24.6590  -31.8260   23.1720 C   0  0  0  0  0  0  0  0  0  0  0  0
  -27.2220  -26.9590   20.1840 C   0  0  0  0  0  0  0  0  0  0  0  0
  -23.4730  -30.4370   21.5220 C   0  0  0  0  0  3  0  0  0  0  0  0
  -24.9260  -28.8260   20.1140 C   0  0  0  0  0  0  0  0  0  0  0  0
  -26.0390  -30.6430   21.3970 C   0  0  0  0  0  2  0  0  0  0  0  0
  -26.1090  -29.2350   20.7420 C   0  0  0  0  0  0  0  0  0  0  0  0
  -27.2530  -28.3230   20.7500 C   0  0  0  0  0  3  0  0  0  0  0  0
  -26.0100  -26.6910   19.5110 C   0  0  0  0  0  3  0  0  0  0  0  0
  -24.8990  -27.5740   19.4790 C   0  0  0  0  0  3  0  0  0  0  0  0
  -23.7110  -29.7510   20.1480 C   0  0  0  0  0  2  0  0  0  0  0  0
  -24.7450  -30.9950   22.0850 N   0  0  0  0  0  0  0  0  0  0  0  0
  -23.5660  -32.1230   23.6830 O   0  0  0  0  0  0  0  0  0  0  0  0
  -22.7640  -29.4450   22.4800 C   0  0  0  0  0  0  0  0  0  0  0  0
  -21.4310  -29.3040   22.3560 N   0  0  0  0  0  0  0  0  0  0  0  0
  -23.4200  -28.8030   23.3040 O   0  0  0  0  0  0  0  0  0  0  0  0
  -20.9560  -29.8720   21.6690 H   0  0  0  0  0  0  0  0  0  0  0  0
  -18.0310  -28.1390   22.8460 C   0  0  0  0  0  0  0  0  0  0  0  0
  -20.5930  -28.3740   23.1200 C   0  0  0  0  0  3  0  0  0  0  0  0
  -20.6790  -26.9420   22.5400 C   0  0  0  0  0  2  0  0  0  0  0  0
  -19.5770  -26.6370   21.5210 C   0  0  0  0  0  2  0  0  0  0  0  0
  -18.1950  -26.7930   22.1610 C   0  0  0  0  0  2  0  0  0  0  0  0
  -19.1570  -28.8890   23.2810 C   0  0  0  0  0  0  0  0  0  0  0  0
  -18.9490  -30.1470   23.8850 C   0  0  0  0  0  3  0  0  0  0  0  0
  -17.6490  -30.6590   24.0550 C   0  0  0  0  0  3  0  0  0  0  0  0
  -16.5380  -29.9080   23.6340 C   0  0  0  0  0  3  0  0  0  0  0  0
  -16.7300  -28.6490   23.0370 C   0  0  0  0  0  3  0  0  0  0  0  0
  -25.9290  -32.4610   23.8180 C   0  0  0  0  0  3  0  0  0  0  0  0
  -25.5960  -33.8420   24.2080 N   0  0  0  0  0  0  0  0  0  0  0  0
  -25.9090  -34.9360   23.5010 C   0  0  0  0  0  0  0  0  0  0  0  0
  -26.5710  -34.8890   22.4610 O   0  0  0  0  0  0  0  0  0  0  0  0
  -25.0060  -33.9510   25.0200 H   0  0  0  0  0  0  0  0  0  0  0  0
  -24.1480  -36.7210   23.2650 C   0  0  0  0  0  1  0  0  0  0  0  0
  -25.4130  -36.2980   24.0300 C   0  0  0  0  0  3  0  0  0  0  0  0
  -27.5570  -37.1760   24.8470 C   0  0  0  0  0  1  0  0  0  0  0  0
  -26.4280  -37.3710   23.9410 N   0  0  0  0  0  0  0  0  0  0  0  0
  -26.0130  -38.2770   24.1440 H   0  0  0  0  0  0  0  0  0  0  0  0
  -26.4540  -31.6550   25.0700 C   0  0  1  0  0  0  0  0  0  0  0  0
  -25.3680  -31.3800   26.1360 C   0  0  0  0  0  1  0  0  0  0  0  0
  -27.0440  -30.2930   24.6420 C   0  0  0  0  0  1  0  0  0  0  0  0
  -27.6040  -32.4360   25.7500 C   0  0  0  0  0  1  0  0  0  0  0  0
  -28.4750  -20.5860   23.7340 C   0  0  0  0  0  1  0  0  0  0  0  0
  -26.3220  -19.9440   22.5150 C   0  0  0  0  0  1  0  0  0  0  0  0
  -27.6880  -20.6430   22.4160 C   0  0  0  0  0  3  0  0  0  0  0  0
  1 15  1  0
  2  7  1  0
  3  4  1  0
  3  2  1  0
  5  4  1  0
  5 20  1  0
  5  6  1  0
  7  1  1  0
  7  6  1  0
  8  1  2  0
  9 13  1  0
  9 10  2  0
 10 11  1  0
 11 14  2  0
 11 91  1  0
 12 15  1  0
 12 14  1  0
 13 12  2  0
 15 16  1  0
 17 18  2  0
 18 37  1  0
 19 18  1  0
 19 22  1  0
 20 17  1  0
 20 21  1  0
 21 19  2  0
 22 23  1  0
 23 24  2  0
 25 28  1  0
 25 24  1  0
 26 25  2  0
 27 26  1  0
 27 22  2  0
 28 29  1  0
 29 30  1  0
 30 31  2  0
 32 31  1  0
 32 36  1  0
 33 32  2  0
 34 29  2  0
 34 33  1  0
 35 34  1  0
 37 38  1  0
 38 41  1  0
 38 40  1  0
 39 37  2  0
 42 43  1  0
 42 17  1  0
 44 42  1  0
 45 47  1  0
 45 46  1  0
 46 10  1  0
 47 48  1  0
 47 46  1  0
 49 60  2  0
 50 48  1  0
 50 55  1  0
 51 59  1  0
 51 61  1  0
 52 58  1  0
 52 54  1  0
 53 59  1  0
 54 55  2  0
 54 53  1  0
 56 50  2  0
 57 56  1  0
 57 52  2  0
 58 51  1  0
 59 49  1  0
 61 63  2  0
 62 61  1  0
 64 62  1  0
 65 74  2  0
 65 70  1  0
 66 62  1  0
 66 70  1  0
 67 66  1  0
 68 69  1  0
 68 67  1  0
 69 65  1  0
 70 71  2  0
 71 72  1  0
 73 72  2  0
 74 73  1  0
 75 49  1  0
 75 76  1  0
 75 85  1  0
 76 79  1  0
 77 81  1  0
 77 76  1  0
 78 77  2  0
 81 80  1  0
 83 81  1  0
 83 84  1  0
 83 82  1  0
 85 88  1  1
 85 86  1  0
 87 85  1  0
 91 90  1  0
 91 89  1  0
M  ISO  4   1 100  15 100  47 101  48 101
M  END
>  <TORSDO>  (96) 
F 17

>  <SCORE>  (96) 
4.128

>  <name>  (96) 
96

>  <ligand_id>  (96) 
96

>  <original_smiles>  (96) 
[H]c1nc(N([H])C(=O)N2C([H])([H])C([H])([H])C([H])([H])C([H])(n3nc(-c4c([H])c([H])c(Oc5c([H])c([H])c(F)c([H])c5F)c([H])c4[H])c(C(=O)N([H])[H])c3N([H])[H])C2([H])[H])nc(C([H])(C([H])([H])[H])C([H])([H])[H])c1C1([H])C([H])([H])C1([H])Oc1c([H])c([H])c2c(c1[H])C([H])([H])N(C(=O)C([H])(N([H])C(=O)C([H])(N([H])C([H])([H])[H])C([H])([H])[H])C(C([H])([H])[H])(C([H])([H])[H])C([H])([H])[H])C([H])(C(=O)N([H])C1([H])c3c([H])c([H])c([H])c([H])c3C([H])([H])C([H])([H])C1([H])[H])C2([H])[H]

>  <smiles>  (96) 
[H]c1nc(N([H])C(=O)N2C([H])([H])C([H])([H])C([H])([H])C([H])(n3nc(-c4c([H])c([H])c(Oc5c([H])c([H])c(F)c([H])c5F)c([H])c4[H])c(C(=O)N([H])[H])c3N([H])[H])C2([H])[H])nc(C([H])(C([H])([H])[H])C([H])([H])[H])c1C1([H])C([H])([H])C1([H])Oc1c([H])c([H])c2c(c1[H])C([H])([H])N(C(=O)C([H])(N([H])C(=O)C([H])(N([H])C([H])([H])[H])C([H])([H])[H])C(C([H])([H])[H])(C([H])([H])[H])C([H])([H])[H])C([H])(C(=O)N([H])C1([H])c3c([H])c([H])c([H])c([H])c3C([H])([H])C([H])([H])C1([H])[H])C2([H])[H]

$$$$
