0:0:0
     RDKit          3D

 92101  0  0  1  0  0  0  0  0999 V2000
  -28.7010  -22.3140   19.9770 C   0  0  0  0  0  3  0  0  0  0  0  0
  -28.8740  -23.7300   20.2790 C   0  0  0  0  0  0  0  0  0  0  0  0
  -29.7510  -21.6310   20.5630 C   0  0  0  0  0  0  0  0  0  0  0  0
  -31.7150  -22.5140   21.9430 C   0  0  0  0  0  1  0  0  0  0  0  0
  -29.9790  -23.8930   20.9930 N   0  0  0  0  0  0  0  0  0  0  0  0
  -30.4980  -22.6430   21.1620 N   0  0  0  0  0  0  0  0  0  0  0  0
  -30.2200  -20.2760   20.7010 N   0  0  0  0  0  0  0  0  0  0  0  0
  -31.1010  -20.1980   21.1990 H   0  0  0  0  0  0  0  0  0  0  0  0
  -30.6980  -14.6570   19.9740 C   0  0  0  0  0  0  0  0  0  0  0  0
  -30.3810  -12.4150   18.9400 C   0  0  0  0  0  2  0  0  0  0  0  0
  -29.3710  -12.5280   17.7780 C   0  0  0  0  0  2  0  0  0  0  0  0
  -27.9310  -12.3630   18.2990 C   0  0  0  0  0  2  0  0  0  0  0  0
  -27.6420  -13.2280   19.5550 C   0  0  0  0  0  3  0  0  0  0  0  0
  -28.7700  -13.1130   20.6030 C   0  0  0  0  0  2  0  0  0  0  0  0
  -30.0280  -13.4580   19.9300 N   0  0  0  0  0  0  0  0  0  0  0  0
  -31.8570  -14.7210   19.5510 O   0  0  0  0  0  0  0  0  0  0  0  0
  -29.6950  -17.9280   21.5010 C   0  0  0  0  0  2  0  0  0  0  0  0
  -30.3680  -18.2560   19.1730 C   0  0  0  0  0  2  0  0  0  0  0  0
  -29.3000  -16.4290   21.1940 C   0  0  0  0  0  2  0  0  0  0  0  0
  -29.9230  -16.7820   18.8650 C   0  0  0  0  0  2  0  0  0  0  0  0
  -29.6050  -18.9610   20.3280 C   0  0  0  0  0  3  0  0  0  0  0  0
  -29.9480  -15.8240   20.0050 N   0  0  0  0  0  0  0  0  0  0  0  0
  -25.3080  -13.8040   20.4510 C   0  0  0  0  0  0  0  0  0  0  0  0
  -24.2650  -13.0240   20.8670 C   0  0  0  0  0  0  0  0  0  0  0  0
  -24.7170  -11.6720   20.7690 C   0  0  0  0  0  0  0  0  0  0  0  0
  -26.3310  -12.9300   20.1250 N   0  0  0  0  0  0  0  0  0  0  0  0
  -25.9860  -11.6400   20.3770 N   0  0  0  0  0  0  0  0  0  0  0  0
  -23.9990  -10.4070   20.9710 C   0  0  0  0  0  0  0  0  0  0  0  0
  -24.4500   -9.4410   21.8980 C   0  0  0  0  0  3  0  0  0  0  0  0
  -23.7320   -8.2410   22.0870 C   0  0  0  0  0  3  0  0  0  0  0  0
  -22.5490   -7.9970   21.3500 C   0  0  0  0  0  0  0  0  0  0  0  0
  -22.1170   -8.9520   20.4120 C   0  0  0  0  0  3  0  0  0  0  0  0
  -22.8350  -10.1440   20.2200 C   0  0  0  0  0  3  0  0  0  0  0  0
  -21.8000   -6.8500   21.4500 O   0  0  0  0  0  0  0  0  0  0  0  0
  -21.7180   -6.1430   22.6230 C   0  0  0  0  0  0  0  0  0  0  0  0
  -21.2320   -6.7270   23.8130 C   0  0  0  0  0  3  0  0  0  0  0  0
  -21.1000   -5.9460   24.9790 C   0  0  0  0  0  3  0  0  0  0  0  0
  -21.4450   -4.5810   24.9540 C   0  0  0  0  0  0  0  0  0  0  0  0
  -21.9240   -3.9960   23.7680 C   0  0  0  0  0  3  0  0  0  0  0  0
  -22.0570   -4.7750   22.6060 C   0  0  0  0  0  0  0  0  0  0  0  0
  -22.4990   -4.2020   21.4610 F   0  0  0  0  0  0  0  0  0  0  0  0
  -21.3110   -3.8280   26.0700 F   0  0  0  0  0  0  0  0  0  0  0  0
  -22.8900  -13.4970   21.2400 C   0  0  0  0  0  0  0  0  0  0  0  0
  -22.2160  -12.7840   22.1360 N   0  0  0  0  0  0  0  0  0  0  0  0
  -22.4230  -14.5350   20.7740 O   0  0  0  0  0  0  0  0  0  0  0  0
  -22.6080  -11.9430   22.5360 H   0  0  0  0  0  0  0  0  0  0  0  0
  -21.2980  -13.0850   22.4280 H   0  0  0  0  0  0  0  0  0  0  0  0
  -25.4680  -15.1790   20.2990 N   0  0  0  0  0  0  0  0  0  0  0  0
  -24.7170  -15.8360   20.4760 H   0  0  0  0  0  0  0  0  0  0  0  0
  -26.3020  -15.6170   19.9320 H   0  0  0  0  0  0  0  0  0  0  0  0
  -27.9320  -24.9320   19.9320 C   0  0  0  0  0  2  0  0  0  0  0  0
  -28.2290  -26.3520   20.3010 O   0  0  0  0  0  0  0  0  0  0  0  0
  -24.6290  -31.8780   23.2990 C   0  0  0  0  0  0  0  0  0  0  0  0
  -27.1540  -27.2660   20.2210 C   0  0  0  0  0  0  0  0  0  0  0  0
  -23.3990  -30.4950   21.6700 C   0  0  0  0  0  3  0  0  0  0  0  0
  -24.8190  -28.9350   20.2300 C   0  0  0  0  0  0  0  0  0  0  0  0
  -25.9450  -30.7740   21.4740 C   0  0  0  0  0  2  0  0  0  0  0  0
  -26.0020  -29.3950   20.8240 C   0  0  0  0  0  0  0  0  0  0  0  0
  -27.1720  -28.5700   20.8150 C   0  0  0  0  0  3  0  0  0  0  0  0
  -25.9490  -26.8880   19.5770 C   0  0  0  0  0  3  0  0  0  0  0  0
  -24.7960  -27.6870   19.5990 C   0  0  0  0  0  3  0  0  0  0  0  0
  -23.5960  -29.8250   20.2880 C   0  0  0  0  0  2  0  0  0  0  0  0
  -24.6770  -31.0650   22.2040 N   0  0  0  0  0  0  0  0  0  0  0  0
  -23.5510  -32.1700   23.8380 O   0  0  0  0  0  0  0  0  0  0  0  0
  -22.7310  -29.4830   22.6320 C   0  0  0  0  0  0  0  0  0  0  0  0
  -21.4060  -29.3020   22.4950 N   0  0  0  0  0  0  0  0  0  0  0  0
  -23.4020  -28.8660   23.4620 O   0  0  0  0  0  0  0  0  0  0  0  0
  -20.9240  -29.8530   21.7990 H   0  0  0  0  0  0  0  0  0  0  0  0
  -18.0290  -28.0880   22.9590 C   0  0  0  0  0  0  0  0  0  0  0  0
  -20.5800  -28.3720   23.2680 C   0  0  0  0  0  3  0  0  0  0  0  0
  -20.7030  -26.9310   22.7210 C   0  0  0  0  0  2  0  0  0  0  0  0
  -19.6200  -26.5810   21.6940 C   0  0  0  0  0  2  0  0  0  0  0  0
  -18.2270  -26.7280   22.3110 C   0  0  0  0  0  2  0  0  0  0  0  0
  -19.1340  -28.8660   23.3940 C   0  0  0  0  0  0  0  0  0  0  0  0
  -18.8940  -30.1390   23.9580 C   0  0  0  0  0  3  0  0  0  0  0  0
  -17.5830  -30.6320   24.0910 C   0  0  0  0  0  3  0  0  0  0  0  0
  -16.4920  -29.8500   23.6750 C   0  0  0  0  0  3  0  0  0  0  0  0
  -16.7150  -28.5800   23.1130 C   0  0  0  0  0  3  0  0  0  0  0  0
  -25.9230  -32.4960   23.9120 C   0  0  0  0  0  3  0  0  0  0  0  0
  -25.6360  -33.9040   24.2270 N   0  0  0  0  0  0  0  0  0  0  0  0
  -25.9560  -34.9400   23.4400 C   0  0  0  0  0  0  0  0  0  0  0  0
  -26.5930  -34.8120   22.3920 O   0  0  0  0  0  0  0  0  0  0  0  0
  -25.0690  -34.0770   25.0430 H   0  0  0  0  0  0  0  0  0  0  0  0
  -24.2220  -36.7350   23.1250 C   0  0  0  0  0  1  0  0  0  0  0  0
  -25.4950  -36.3410   23.8900 C   0  0  0  0  0  3  0  0  0  0  0  0
  -27.6660  -37.2330   24.6120 C   0  0  0  0  0  1  0  0  0  0  0  0
  -26.5270  -37.3860   23.7100 N   0  0  0  0  0  0  0  0  0  0  0  0
  -26.1310  -38.3110   23.8550 H   0  0  0  0  0  0  0  0  0  0  0  0
  -26.4260  -31.7320   25.1960 C   0  0  1  0  0  0  0  0  0  0  0  0
  -25.3300  -31.5180   26.2660 C   0  0  0  0  0  1  0  0  0  0  0  0
  -26.9920  -30.3420   24.8210 C   0  0  0  0  0  1  0  0  0  0  0  0
  -27.5870  -32.5170   25.8530 C   0  0  0  0  0  1  0  0  0  0  0  0
  1  2  1  0
  1  3  2  0
  2  5  2  0
  3  7  1  0
  3  6  1  0
  5  6  1  0
  6  4  1  0
  7  8  1  0
  9 22  1  0
 10 15  1  0
 11 12  1  0
 11 10  1  0
 13 12  1  0
 13 26  1  0
 13 14  1  0
 15  9  1  0
 15 14  1  0
 16  9  2  0
 18 21  1  0
 19 17  1  0
 20 18  1  0
 20 22  1  0
 21  7  1  0
 21 17  1  0
 22 19  1  0
 23 24  2  0
 24 43  1  0
 25 24  1  0
 25 28  1  0
 26 27  1  0
 26 23  1  0
 27 25  2  0
 28 29  1  0
 29 30  2  0
 31 34  1  0
 31 30  1  0
 32 31  2  0
 33 32  1  0
 33 28  2  0
 34 35  1  0
 35 36  1  0
 36 37  2  0
 38 37  1  0
 38 42  1  0
 39 38  2  0
 40 35  2  0
 40 39  1  0
 41 40  1  0
 43 44  1  0
 44 47  1  0
 44 46  1  0
 45 43  2  0
 48 23  1  0
 48 49  1  0
 50 48  1  0
 51  2  1  0
 51 52  1  0
 53 64  2  0
 54 52  1  0
 54 59  1  0
 55 63  1  0
 55 65  1  0
 56 62  1  0
 56 58  1  0
 57 63  1  0
 58 57  1  0
 59 58  2  0
 60 61  1  0
 60 54  2  0
 61 56  2  0
 62 55  1  0
 63 53  1  0
 65 67  2  0
 66 65  1  0
 68 66  1  0
 69 78  2  0
 69 74  1  0
 70 66  1  0
 70 74  1  0
 71 70  1  0
 72 73  1  0
 72 71  1  0
 73 69  1  0
 74 75  2  0
 75 76  1  0
 77 76  2  0
 78 77  1  0
 79 53  1  0
 79 80  1  0
 79 89  1  0
 80 83  1  0
 81 85  1  0
 81 80  1  0
 82 81  2  0
 85 84  1  0
 87 88  1  0
 87 85  1  0
 87 86  1  0
 89 92  1  1
 89 90  1  0
 91 89  1  0
M  ISO  4   9 100  22 100  51 101  52 101
M  END
>  <TORSDO>  (1) 
F 18

>  <SCORE>  (1) 
-13.800

>  <name>  (1) 
0

>  <ligand_id>  (1) 
0

>  <original_smiles>  (1) 
[H]c1c([H])c([H])c2c(c1[H])C([H])([H])C([H])([H])C([H])([H])C2([H])N([H])C(=O)C1([H])N(C(=O)C([H])(N([H])C(=O)C([H])(N([H])C([H])([H])[H])C([H])([H])[H])C(C([H])([H])[H])(C([H])([H])[H])C([H])([H])[H])C([H])([H])c2c([H])c(OC([H])([H])c3nn(C([H])([H])[H])c(N([H])C4([H])C([H])([H])C([H])([H])N(C(=O)N5C([H])([H])C([H])([H])C([H])([H])C([H])(n6nc(-c7c([H])c([H])c(Oc8c([H])c([H])c(F)c([H])c8F)c([H])c7[H])c(C(=O)N([H])[H])c6N([H])[H])C5([H])[H])C([H])([H])C4([H])[H])c3[H])c([H])c([H])c2C1([H])[H]

>  <smiles>  (1) 
[H]c1c([H])c([H])c2c(c1[H])C([H])([H])C([H])([H])C([H])([H])C2([H])N([H])C(=O)C1([H])N(C(=O)C([H])(N([H])C(=O)C([H])(N([H])C([H])([H])[H])C([H])([H])[H])C(C([H])([H])[H])(C([H])([H])[H])C([H])([H])[H])C([H])([H])c2c([H])c(OC([H])([H])c3nn(C([H])([H])[H])c(N([H])C4([H])C([H])([H])C([H])([H])N(C(=O)N5C([H])([H])C([H])([H])C([H])([H])C([H])(n6nc(-c7c([H])c([H])c(Oc8c([H])c([H])c(F)c([H])c8F)c([H])c7[H])c(C(=O)N([H])[H])c6N([H])[H])C5([H])[H])C([H])([H])C4([H])[H])c3[H])c([H])c([H])c2C1([H])[H]

$$$$
1:0:0
     RDKit          3D

 92102  0  0  1  0  0  0  0  0999 V2000
  -30.7680  -20.4650   20.1690 C   0  0  0  0  0  0  0  0  0  0  0  0
  -31.0880  -21.8290   20.1230 C   0  0  0  0  0  0  0  0  0  0  0  0
  -29.4490  -20.0170   20.3240 C   0  0  0  0  0  0  0  0  0  0  0  0
  -28.9180  -22.6530   20.3100 C   0  0  0  0  0  0  0  0  0  0  0  0
  -32.0070  -19.6060   20.1160 C   0  0  0  0  0  2  0  0  0  0  0  0
  -32.5830  -22.0270   20.0550 C   0  0  0  0  0  2  0  0  0  0  0  0
  -33.1620  -20.6140   20.3130 C   0  0  0  0  0  2  0  0  0  0  0  0
  -30.2300  -22.8830   20.1800 N   0  0  0  0  0  0  0  0  0  0  0  0
  -28.5610  -21.2210   20.4040 N   0  0  0  0  0  0  0  0  0  0  0  0
  -30.3700  -15.4680   20.2410 C   0  0  0  0  0  0  0  0  0  0  0  0
  -30.3810  -12.9980   19.3530 C   0  0  0  0  0  2  0  0  0  0  0  0
  -29.4550  -12.6990   18.1460 C   0  0  0  0  0  2  0  0  0  0  0  0
  -28.0180  -12.4040   18.6110 C   0  0  0  0  0  2  0  0  0  0  0  0
  -27.5510  -13.3750   19.7220 C   0  0  0  0  0  3  0  0  0  0  0  0
  -28.6130  -13.5930   20.8180 C   0  0  0  0  0  2  0  0  0  0  0  0
  -29.7990  -14.1520   20.1390 N   0  0  0  0  0  0  0  0  0  0  0  0
  -31.6100  -15.4140   20.1890 O   0  0  0  0  0  0  0  0  0  0  0  0
  -27.7400  -17.6520   18.7750 C   0  0  0  0  0  2  0  0  0  0  0  0
  -27.6800  -18.1150   20.2270 C   0  0  0  0  0  2  0  0  0  0  0  0
  -29.0180  -16.8090   18.6530 C   0  0  0  0  0  2  0  0  0  0  0  0
  -29.1490  -18.2830   20.6080 C   0  0  0  0  0  3  0  0  0  0  0  0
  -29.6540  -16.7790   19.9760 N   0  0  0  0  0  0  0  0  0  0  0  0
  -25.1880  -13.9060   20.5100 C   0  0  0  0  0  0  0  0  0  0  0  0
  -24.1350  -13.1200   20.8820 C   0  0  0  0  0  0  0  0  0  0  0  0
  -24.6130  -11.7740   20.8410 C   0  0  0  0  0  0  0  0  0  0  0  0
  -26.2360  -13.0420   20.2540 N   0  0  0  0  0  0  0  0  0  0  0  0
  -25.9050  -11.7520   20.5220 N   0  0  0  0  0  0  0  0  0  0  0  0
  -23.8980  -10.5060   21.0270 C   0  0  0  0  0  0  0  0  0  0  0  0
  -24.3300   -9.5410   21.9620 C   0  0  0  0  0  3  0  0  0  0  0  0
  -23.6130   -8.3390   22.1360 C   0  0  0  0  0  3  0  0  0  0  0  0
  -22.4460   -8.0910   21.3760 C   0  0  0  0  0  0  0  0  0  0  0  0
  -22.0300   -9.0450   20.4300 C   0  0  0  0  0  3  0  0  0  0  0  0
  -22.7500  -10.2390   20.2530 C   0  0  0  0  0  3  0  0  0  0  0  0
  -21.6960   -6.9430   21.4630 O   0  0  0  0  0  0  0  0  0  0  0  0
  -21.6330   -6.2100   22.6210 C   0  0  0  0  0  0  0  0  0  0  0  0
  -21.1530   -6.7650   23.8280 C   0  0  0  0  0  3  0  0  0  0  0  0
  -21.0370   -5.9560   24.9760 C   0  0  0  0  0  3  0  0  0  0  0  0
  -21.3920   -4.5950   24.9200 C   0  0  0  0  0  0  0  0  0  0  0  0
  -21.8650   -4.0400   23.7180 C   0  0  0  0  0  3  0  0  0  0  0  0
  -21.9820   -4.8450   22.5720 C   0  0  0  0  0  0  0  0  0  0  0  0
  -22.4160   -4.2980   21.4120 F   0  0  0  0  0  0  0  0  0  0  0  0
  -21.2730   -3.8180   26.0230 F   0  0  0  0  0  0  0  0  0  0  0  0
  -22.7350  -13.5850   21.1590 C   0  0  0  0  0  0  0  0  0  0  0  0
  -22.0160  -12.8850   22.0290 N   0  0  0  0  0  0  0  0  0  0  0  0
  -22.2880  -14.6080   20.6390 O   0  0  0  0  0  0  0  0  0  0  0  0
  -22.3930  -12.0630   22.4780 H   0  0  0  0  0  0  0  0  0  0  0  0
  -21.0780  -13.1820   22.2580 H   0  0  0  0  0  0  0  0  0  0  0  0
  -25.3390  -15.2770   20.3310 N   0  0  0  0  0  0  0  0  0  0  0  0
  -24.5650  -15.9280   20.4140 H   0  0  0  0  0  0  0  0  0  0  0  0
  -26.1850  -15.7050   19.9810 H   0  0  0  0  0  0  0  0  0  0  0  0
  -27.9060  -24.1310   20.2790 C   0  0  0  0  0  2  0  0  0  0  0  0
  -28.1890  -25.7950   20.3350 O   0  0  0  0  0  0  0  0  0  0  0  0
  -24.6410  -31.8860   23.2580 C   0  0  0  0  0  0  0  0  0  0  0  0
  -27.1890  -26.9310   20.2760 C   0  0  0  0  0  0  0  0  0  0  0  0
  -23.4510  -30.4910   21.6180 C   0  0  0  0  0  3  0  0  0  0  0  0
  -24.9000  -28.8640   20.2110 C   0  0  0  0  0  0  0  0  0  0  0  0
  -26.0250  -30.6730   21.4880 C   0  0  0  0  0  2  0  0  0  0  0  0
  -26.0910  -29.2540   20.8360 C   0  0  0  0  0  0  0  0  0  0  0  0
  -27.2280  -28.3120   20.8370 C   0  0  0  0  0  3  0  0  0  0  0  0
  -25.9660  -26.7110   19.6010 C   0  0  0  0  0  3  0  0  0  0  0  0
  -24.8670  -27.6140   19.5720 C   0  0  0  0  0  3  0  0  0  0  0  0
  -23.6880  -29.7990   20.2480 C   0  0  0  0  0  2  0  0  0  0  0  0
  -24.7280  -31.0450   22.1750 N   0  0  0  0  0  0  0  0  0  0  0  0
  -23.5490  -32.1840   23.7700 O   0  0  0  0  0  0  0  0  0  0  0  0
  -22.7400  -29.5070   22.5850 C   0  0  0  0  0  0  0  0  0  0  0  0
  -21.4090  -29.3510   22.4540 N   0  0  0  0  0  0  0  0  0  0  0  0
  -23.3960  -28.8830   23.4220 O   0  0  0  0  0  0  0  0  0  0  0  0
  -20.9310  -29.9060   21.7580 H   0  0  0  0  0  0  0  0  0  0  0  0
  -18.0170  -28.1540   22.9510 C   0  0  0  0  0  0  0  0  0  0  0  0
  -20.5760  -28.4200   23.2240 C   0  0  0  0  0  3  0  0  0  0  0  0
  -20.6790  -26.9850   22.6570 C   0  0  0  0  0  2  0  0  0  0  0  0
  -19.5810  -26.6600   21.6390 C   0  0  0  0  0  2  0  0  0  0  0  0
  -18.1960  -26.8050   22.2760 C   0  0  0  0  0  2  0  0  0  0  0  0
  -19.1340  -28.9190   23.3830 C   0  0  0  0  0  0  0  0  0  0  0  0
  -18.9090  -30.1790   23.9790 C   0  0  0  0  0  3  0  0  0  0  0  0
  -17.6020  -30.6740   24.1460 C   0  0  0  0  0  3  0  0  0  0  0  0
  -16.5000  -29.9080   23.7270 C   0  0  0  0  0  3  0  0  0  0  0  0
  -16.7090  -28.6500   23.1350 C   0  0  0  0  0  3  0  0  0  0  0  0
  -25.9080  -32.5290   23.8980 C   0  0  0  0  0  3  0  0  0  0  0  0
  -25.5940  -33.9350   24.2190 N   0  0  0  0  0  0  0  0  0  0  0  0
  -25.9200  -34.9890   23.4590 C   0  0  0  0  0  0  0  0  0  0  0  0
  -26.5750  -34.8800   22.4190 O   0  0  0  0  0  0  0  0  0  0  0  0
  -25.0100  -34.0910   25.0270 H   0  0  0  0  0  0  0  0  0  0  0  0
  -24.1850  -36.7880   23.1460 C   0  0  0  0  0  1  0  0  0  0  0  0
  -25.4480  -36.3830   23.9220 C   0  0  0  0  0  3  0  0  0  0  0  0
  -27.6040  -37.2820   24.6860 C   0  0  0  0  0  1  0  0  0  0  0  0
  -26.4780  -37.4360   23.7690 N   0  0  0  0  0  0  0  0  0  0  0  0
  -26.0770  -38.3590   23.9120 H   0  0  0  0  0  0  0  0  0  0  0  0
  -26.3910  -31.7740   25.1990 C   0  0  1  0  0  0  0  0  0  0  0  0
  -25.2760  -31.5660   26.2510 C   0  0  0  0  0  1  0  0  0  0  0  0
  -26.9680  -30.3840   24.8490 C   0  0  0  0  0  1  0  0  0  0  0  0
  -27.5370  -32.5690   25.8670 C   0  0  0  0  0  1  0  0  0  0  0  0
  1  3  1  0
  2  1  2  0
  2  8  1  0
  3  9  2  0
  4  9  1  0
  5  1  1  0
  5  7  1  0
  6  2  1  0
  6  7  1  0
  8  4  2  0
 11 16  1  0
 12 13  1  0
 12 11  1  0
 14 13  1  0
 14 26  1  0
 14 15  1  0
 16 10  1  0
 16 15  1  0
 17 10  2  0
 18 19  1  0
 19 21  1  0
 20 18  1  0
 20 22  1  0
 21  3  1  0
 22 10  1  0
 22 21  1  0
 23 24  2  0
 24 43  1  0
 25 24  1  0
 25 28  1  0
 26 23  1  0
 26 27  1  0
 27 25  2  0
 28 29  1  0
 29 30  2  0
 31 34  1  0
 31 30  1  0
 32 31  2  0
 33 32  1  0
 33 28  2  0
 34 35  1  0
 35 36  1  0
 36 37  2  0
 38 37  1  0
 38 42  1  0
 39 38  2  0
 40 35  2  0
 40 39  1  0
 41 40  1  0
 43 44  1  0
 44 47  1  0
 44 46  1  0
 45 43  2  0
 48 49  1  0
 48 23  1  0
 50 48  1  0
 51  4  1  0
 51 52  1  0
 53 64  2  0
 54 52  1  0
 54 59  1  0
 55 63  1  0
 55 65  1  0
 56 62  1  0
 56 58  1  0
 57 63  1  0
 58 59  2  0
 58 57  1  0
 60 54  2  0
 61 60  1  0
 61 56  2  0
 62 55  1  0
 63 53  1  0
 65 67  2  0
 66 65  1  0
 68 66  1  0
 69 78  2  0
 69 74  1  0
 70 66  1  0
 70 74  1  0
 71 70  1  0
 72 73  1  0
 72 71  1  0
 73 69  1  0
 74 75  2  0
 75 76  1  0
 77 76  2  0
 78 77  1  0
 79 53  1  0
 79 80  1  0
 79 89  1  0
 80 83  1  0
 81 85  1  0
 81 80  1  0
 82 81  2  0
 85 84  1  0
 87 88  1  0
 87 85  1  0
 87 86  1  0
 89 92  1  1
 89 90  1  0
 91 89  1  0
M  ISO  4  10 100  22 100  51 101  52 101
M  END
>  <TORSDO>  (2) 
F 17

>  <SCORE>  (2) 
-17.112

>  <name>  (2) 
1

>  <ligand_id>  (2) 
1

>  <original_smiles>  (2) 
[H]c1c([H])c([H])c2c(c1[H])C([H])([H])C([H])([H])C([H])([H])C2([H])N([H])C(=O)C1([H])N(C(=O)C([H])(N([H])C(=O)C([H])(N([H])C([H])([H])[H])C([H])([H])[H])C(C([H])([H])[H])(C([H])([H])[H])C([H])([H])[H])C([H])([H])c2c([H])c(OC([H])([H])c3nc4c(c(C5([H])N(C(=O)N6C([H])([H])C([H])([H])C([H])([H])C([H])(n7nc(-c8c([H])c([H])c(Oc9c([H])c([H])c(F)c([H])c9F)c([H])c8[H])c(C(=O)N([H])[H])c7N([H])[H])C6([H])[H])C([H])([H])C([H])([H])C5([H])[H])n3)C([H])([H])C([H])([H])C4([H])[H])c([H])c([H])c2C1([H])[H]

>  <smiles>  (2) 
[H]c1c([H])c([H])c2c(c1[H])C([H])([H])C([H])([H])C([H])([H])C2([H])N([H])C(=O)C1([H])N(C(=O)C([H])(N([H])C(=O)C([H])(N([H])C([H])([H])[H])C([H])([H])[H])C(C([H])([H])[H])(C([H])([H])[H])C([H])([H])[H])C([H])([H])c2c([H])c(OC([H])([H])c3nc4c(c(C5([H])N(C(=O)N6C([H])([H])C([H])([H])C([H])([H])C([H])(n7nc(-c8c([H])c([H])c(Oc9c([H])c([H])c(F)c([H])c9F)c([H])c8[H])c(C(=O)N([H])[H])c7N([H])[H])C6([H])[H])C([H])([H])C([H])([H])C5([H])[H])n3)C([H])([H])C([H])([H])C4([H])[H])c([H])c([H])c2C1([H])[H]

$$$$
2:0:0
     RDKit          3D

 92101  0  0  1  0  0  0  0  0999 V2000
  -28.0580  -21.9770   18.8660 C   0  0  0  0  0  3  0  0  0  0  0  0
  -27.9830  -24.3100   18.5220 C   0  0  0  0  0  0  0  0  0  0  0  0
  -28.6300  -22.0730   20.1520 C   0  0  0  0  0  0  0  0  0  0  0  0
  -28.2510  -24.6110   19.8870 C   0  0  0  0  0  0  0  0  0  0  0  0
  -27.9670  -25.3720   17.4270 C   0  0  0  0  0  1  0  0  0  0  0  0
  -27.8160  -23.0440   18.0570 N   0  0  0  0  0  0  0  0  0  0  0  0
  -28.6790  -23.4410   20.6590 N   0  0  0  0  0  0  0  0  0  0  0  0
  -29.1210  -20.7730   20.7780 N   0  0  0  0  0  0  0  0  0  0  0  0
  -29.6190  -20.8930   21.6560 H   0  0  0  0  0  0  0  0  0  0  0  0
  -29.5410  -18.9860   18.9410 C   0  0  0  0  0  2  0  0  0  0  0  0
  -30.7810  -18.3150   19.5720 C   0  0  0  0  0  2  0  0  0  0  0  0
  -28.9580  -19.2320   20.3420 C   0  0  0  0  0  3  0  0  0  0  0  0
  -29.9500  -17.8790   20.7850 C   0  0  0  0  0  3  0  0  0  0  0  0
  -30.4220  -15.0950   20.3750 C   0  0  0  0  0  0  0  0  0  0  0  0
  -30.3760  -12.7150   19.4020 C   0  0  0  0  0  2  0  0  0  0  0  0
  -29.4590  -12.6550   18.1560 C   0  0  0  0  0  2  0  0  0  0  0  0
  -28.0070  -12.3670   18.5820 C   0  0  0  0  0  2  0  0  0  0  0  0
  -27.5670  -13.2800   19.7570 C   0  0  0  0  0  3  0  0  0  0  0  0
  -28.6120  -13.3210   20.8920 C   0  0  0  0  0  2  0  0  0  0  0  0
  -29.8630  -13.8060   20.2970 N   0  0  0  0  0  0  0  0  0  0  0  0
  -31.6090  -15.1620   20.0280 O   0  0  0  0  0  0  0  0  0  0  0  0
  -29.6450  -16.2850   20.6660 N   0  0  0  0  0  0  0  0  0  0  0  0
  -28.7130  -16.0490   20.9790 H   0  0  0  0  0  0  0  0  0  0  0  0
  -25.1820  -13.8190   20.5110 C   0  0  0  0  0  0  0  0  0  0  0  0
  -24.1340  -13.0270   20.8870 C   0  0  0  0  0  0  0  0  0  0  0  0
  -24.6190  -11.6820   20.8470 C   0  0  0  0  0  0  0  0  0  0  0  0
  -26.2370  -12.9570   20.2530 N   0  0  0  0  0  0  0  0  0  0  0  0
  -25.9090  -11.6670   20.5230 N   0  0  0  0  0  0  0  0  0  0  0  0
  -23.9160  -10.4070   21.0400 C   0  0  0  0  0  0  0  0  0  0  0  0
  -24.3670   -9.4480   21.9730 C   0  0  0  0  0  3  0  0  0  0  0  0
  -23.6590   -8.2380   22.1560 C   0  0  0  0  0  3  0  0  0  0  0  0
  -22.4860   -7.9820   21.4030 C   0  0  0  0  0  0  0  0  0  0  0  0
  -22.0530   -8.9350   20.4620 C   0  0  0  0  0  3  0  0  0  0  0  0
  -22.7620  -10.1320   20.2770 C   0  0  0  0  0  3  0  0  0  0  0  0
  -21.7540   -6.8220   21.4890 O   0  0  0  0  0  0  0  0  0  0  0  0
  -21.7120   -6.0830   22.6440 C   0  0  0  0  0  0  0  0  0  0  0  0
  -21.2400   -6.6280   23.8580 C   0  0  0  0  0  3  0  0  0  0  0  0
  -21.1430   -5.8130   25.0050 C   0  0  0  0  0  3  0  0  0  0  0  0
  -21.5100   -4.4570   24.9400 C   0  0  0  0  0  0  0  0  0  0  0  0
  -21.9790   -3.9120   23.7310 C   0  0  0  0  0  3  0  0  0  0  0  0
  -22.0760   -4.7220   22.5850 C   0  0  0  0  0  0  0  0  0  0  0  0
  -22.5050   -4.1880   21.4180 F   0  0  0  0  0  0  0  0  0  0  0  0
  -21.4100   -3.6720   26.0370 F   0  0  0  0  0  0  0  0  0  0  0  0
  -22.7310  -13.4890   21.1690 C   0  0  0  0  0  0  0  0  0  0  0  0
  -22.0110  -12.7820   22.0270 N   0  0  0  0  0  0  0  0  0  0  0  0
  -22.2890  -14.5190   20.6620 O   0  0  0  0  0  0  0  0  0  0  0  0
  -22.3750  -11.9450   22.4590 H   0  0  0  0  0  0  0  0  0  0  0  0
  -21.0770  -13.0930   22.2590 H   0  0  0  0  0  0  0  0  0  0  0  0
  -25.3290  -15.1930   20.3420 N   0  0  0  0  0  0  0  0  0  0  0  0
  -24.5460  -15.8300   20.4560 H   0  0  0  0  0  0  0  0  0  0  0  0
  -26.1510  -15.6430   19.9590 H   0  0  0  0  0  0  0  0  0  0  0  0
  -28.2630  -26.0500   20.3350 O   0  0  0  0  0  0  0  0  0  0  0  0
  -24.6450  -31.8760   23.2620 C   0  0  0  0  0  0  0  0  0  0  0  0
  -27.2070  -27.0800   20.2450 C   0  0  0  0  0  0  0  0  0  0  0  0
  -23.4360  -30.4850   21.6240 C   0  0  0  0  0  3  0  0  0  0  0  0
  -24.8830  -28.8950   20.2000 C   0  0  0  0  0  0  0  0  0  0  0  0
  -25.9950  -30.7270   21.4530 C   0  0  0  0  0  2  0  0  0  0  0  0
  -26.0690  -29.3250   20.8020 C   0  0  0  0  0  0  0  0  0  0  0  0
  -27.2290  -28.4390   20.7980 C   0  0  0  0  0  3  0  0  0  0  0  0
  -25.9660  -26.7640   19.6390 C   0  0  0  0  0  3  0  0  0  0  0  0
  -24.8510  -27.6330   19.5920 C   0  0  0  0  0  3  0  0  0  0  0  0
  -23.6580  -29.8010   20.2490 C   0  0  0  0  0  2  0  0  0  0  0  0
  -24.7140  -31.0480   22.1710 N   0  0  0  0  0  0  0  0  0  0  0  0
  -23.5610  -32.1680   23.7910 O   0  0  0  0  0  0  0  0  0  0  0  0
  -22.7550  -29.4840   22.5920 C   0  0  0  0  0  0  0  0  0  0  0  0
  -21.4250  -29.3180   22.4690 N   0  0  0  0  0  0  0  0  0  0  0  0
  -23.4230  -28.8610   23.4190 O   0  0  0  0  0  0  0  0  0  0  0  0
  -20.9430  -29.8740   21.7770 H   0  0  0  0  0  0  0  0  0  0  0  0
  -18.0460  -28.1070   22.9640 C   0  0  0  0  0  0  0  0  0  0  0  0
  -20.6040  -28.3840   23.2420 C   0  0  0  0  0  3  0  0  0  0  0  0
  -20.7130  -26.9490   22.6750 C   0  0  0  0  0  2  0  0  0  0  0  0
  -19.6150  -26.6130   21.6600 C   0  0  0  0  0  2  0  0  0  0  0  0
  -18.2310  -26.7540   22.2980 C   0  0  0  0  0  2  0  0  0  0  0  0
  -19.1590  -28.8790   23.3930 C   0  0  0  0  0  0  0  0  0  0  0  0
  -18.9300  -30.1420   23.9820 C   0  0  0  0  0  3  0  0  0  0  0  0
  -17.6210  -30.6330   24.1470 C   0  0  0  0  0  3  0  0  0  0  0  0
  -16.5230  -29.8620   23.7300 C   0  0  0  0  0  3  0  0  0  0  0  0
  -16.7360  -28.6020   23.1440 C   0  0  0  0  0  3  0  0  0  0  0  0
  -25.9240  -32.5100   23.8840 C   0  0  0  0  0  3  0  0  0  0  0  0
  -25.6260  -33.9190   24.1920 N   0  0  0  0  0  0  0  0  0  0  0  0
  -25.9860  -34.9620   23.4300 C   0  0  0  0  0  0  0  0  0  0  0  0
  -26.6640  -34.8380   22.4070 O   0  0  0  0  0  0  0  0  0  0  0  0
  -25.0180  -34.0900   24.9800 H   0  0  0  0  0  0  0  0  0  0  0  0
  -24.3050  -36.7950   23.0280 C   0  0  0  0  0  1  0  0  0  0  0  0
  -25.5180  -36.3650   23.8690 C   0  0  0  0  0  3  0  0  0  0  0  0
  -27.6520  -37.2140   24.7440 C   0  0  0  0  0  1  0  0  0  0  0  0
  -26.5750  -37.3970   23.7730 N   0  0  0  0  0  0  0  0  0  0  0  0
  -26.1810  -38.3260   23.9030 H   0  0  0  0  0  0  0  0  0  0  0  0
  -26.4180  -31.7570   25.1790 C   0  0  1  0  0  0  0  0  0  0  0  0
  -25.3090  -31.5500   26.2410 C   0  0  0  0  0  1  0  0  0  0  0  0
  -26.9860  -30.3660   24.8170 C   0  0  0  0  0  1  0  0  0  0  0  0
  -27.5740  -32.5480   25.8340 C   0  0  0  0  0  1  0  0  0  0  0  0
  1  3  2  0
  2  4  1  0
  3  7  1  0
  3  8  1  0
  4 52  1  0
  4  7  2  0
  5  2  1  0
  6  2  2  0
  6  1  1  0
  8  9  1  0
 10 11  1  0
 10 12  1  0
 11 13  1  0
 12  8  1  0
 12 13  1  0
 13 22  1  0
 14 22  1  0
 15 20  1  0
 16 17  1  0
 16 15  1  0
 18 17  1  0
 18 27  1  0
 18 19  1  0
 20 14  1  0
 20 19  1  0
 21 14  2  0
 22 23  1  0
 24 25  2  0
 25 44  1  0
 26 25  1  0
 26 29  1  0
 27 24  1  0
 27 28  1  0
 28 26  2  0
 29 30  1  0
 30 31  2  0
 32 35  1  0
 32 31  1  0
 33 32  2  0
 34 33  1  0
 34 29  2  0
 35 36  1  0
 36 37  1  0
 37 38  2  0
 39 38  1  0
 39 43  1  0
 40 39  2  0
 41 36  2  0
 41 40  1  0
 42 41  1  0
 44 45  1  0
 45 48  1  0
 45 47  1  0
 46 44  2  0
 49 50  1  0
 49 24  1  0
 51 49  1  0
 53 64  2  0
 54 52  1  0
 54 59  1  0
 55 63  1  0
 55 65  1  0
 56 62  1  0
 56 58  1  0
 57 63  1  0
 58 57  1  0
 59 58  2  0
 60 54  2  0
 61 60  1  0
 61 56  2  0
 62 55  1  0
 63 53  1  0
 65 67  2  0
 66 65  1  0
 68 66  1  0
 69 78  2  0
 69 74  1  0
 70 66  1  0
 70 74  1  0
 71 70  1  0
 72 73  1  0
 72 71  1  0
 73 69  1  0
 74 75  2  0
 75 76  1  0
 77 76  2  0
 78 77  1  0
 79 53  1  0
 79 80  1  0
 79 89  1  0
 80 83  1  0
 81 85  1  0
 81 80  1  0
 82 81  2  0
 85 84  1  0
 87 85  1  0
 87 88  1  0
 87 86  1  0
 89 92  1  1
 89 90  1  0
 91 89  1  0
M  ISO  4   4 101  14 100  22 100  52 101
M  END
>  <TORSDO>  (3) 
F 18

>  <SCORE>  (3) 
-14.709

>  <name>  (3) 
2

>  <ligand_id>  (3) 
2

>  <original_smiles>  (3) 
[H]c1nc(C([H])([H])[H])c(Oc2c([H])c([H])c3c(c2[H])C([H])([H])N(C(=O)C([H])(N([H])C(=O)C([H])(N([H])C([H])([H])[H])C([H])([H])[H])C(C([H])([H])[H])(C([H])([H])[H])C([H])([H])[H])C([H])(C(=O)N([H])C2([H])c4c([H])c([H])c([H])c([H])c4C([H])([H])C([H])([H])C2([H])[H])C3([H])[H])nc1N([H])C1([H])C([H])([H])C([H])([H])C1([H])N([H])C(=O)N1C([H])([H])C([H])([H])C([H])([H])C([H])(n2nc(-c3c([H])c([H])c(Oc4c([H])c([H])c(F)c([H])c4F)c([H])c3[H])c(C(=O)N([H])[H])c2N([H])[H])C1([H])[H]

>  <smiles>  (3) 
[H]c1nc(C([H])([H])[H])c(Oc2c([H])c([H])c3c(c2[H])C([H])([H])N(C(=O)C([H])(N([H])C(=O)C([H])(N([H])C([H])([H])[H])C([H])([H])[H])C(C([H])([H])[H])(C([H])([H])[H])C([H])([H])[H])C([H])(C(=O)N([H])C2([H])c4c([H])c([H])c([H])c([H])c4C([H])([H])C([H])([H])C2([H])[H])C3([H])[H])nc1N([H])C1([H])C([H])([H])C([H])([H])C1([H])N([H])C(=O)N1C([H])([H])C([H])([H])C([H])([H])C([H])(n2nc(-c3c([H])c([H])c(Oc4c([H])c([H])c(F)c([H])c4F)c([H])c3[H])c(C(=O)N([H])[H])c2N([H])[H])C1([H])[H]

$$$$
3:0:0
     RDKit          3D

 91100  0  0  1  0  0  0  0  0999 V2000
  -28.8630  -22.7930   21.3210 C   0  0  0  0  0  3  0  0  0  0  0  0
  -29.3000  -21.4120   21.4080 C   0  0  0  0  0  0  0  0  0  0  0  0
  -29.5980  -20.6210   20.2480 C   0  0  0  0  0  0  0  0  0  0  0  0
  -28.7100  -23.4950   20.0850 C   0  0  0  0  0  0  0  0  0  0  0  0
  -29.4220  -21.4040   19.0530 C   0  0  0  0  0  0  0  0  0  0  0  0
  -29.4340  -20.7830   22.7810 C   0  0  0  0  0  1  0  0  0  0  0  0
  -29.7090  -20.7870   17.6970 C   0  0  0  0  0  1  0  0  0  0  0  0
  -29.0030  -22.7270   18.9850 N   0  0  0  0  0  0  0  0  0  0  0  0
  -30.2340  -19.0950   20.2730 C   0  0  0  0  0  2  0  0  0  0  0  0
  -30.5610  -15.1080   20.2570 C   0  0  0  0  0  0  0  0  0  0  0  0
  -30.4310  -12.7550   19.3490 C   0  0  0  0  0  2  0  0  0  0  0  0
  -29.4750  -12.7080   18.1360 C   0  0  0  0  0  2  0  0  0  0  0  0
  -28.0150  -12.5090   18.5920 C   0  0  0  0  0  2  0  0  0  0  0  0
  -27.6200  -13.4320   19.7750 C   0  0  0  0  0  3  0  0  0  0  0  0
  -28.7020  -13.4610   20.8770 C   0  0  0  0  0  2  0  0  0  0  0  0
  -29.9640  -13.8530   20.2320 N   0  0  0  0  0  0  0  0  0  0  0  0
  -31.7840  -15.1790   20.1120 O   0  0  0  0  0  0  0  0  0  0  0  0
  -28.2520  -17.5390   19.4870 C   0  0  0  0  0  2  0  0  0  0  0  0
  -29.1970  -16.5950   18.7370 C   0  0  0  0  0  2  0  0  0  0  0  0
  -29.3700  -17.7160   20.5040 C   0  0  0  0  0  3  0  0  0  0  0  0
  -29.7440  -16.2480   20.0510 N   0  0  0  0  0  0  0  0  0  0  0  0
  -25.2530  -14.0110   20.5600 C   0  0  0  0  0  0  0  0  0  0  0  0
  -24.1880  -13.2370   20.9260 C   0  0  0  0  0  0  0  0  0  0  0  0
  -24.6470  -11.8860   20.8610 C   0  0  0  0  0  0  0  0  0  0  0  0
  -26.2910  -13.1330   20.2930 N   0  0  0  0  0  0  0  0  0  0  0  0
  -25.9350  -11.8470   20.5380 N   0  0  0  0  0  0  0  0  0  0  0  0
  -23.9170  -10.6250   21.0310 C   0  0  0  0  0  0  0  0  0  0  0  0
  -24.3210   -9.6600   21.9800 C   0  0  0  0  0  3  0  0  0  0  0  0
  -23.5890   -8.4640   22.1390 C   0  0  0  0  0  3  0  0  0  0  0  0
  -22.4400   -8.2250   21.3490 C   0  0  0  0  0  0  0  0  0  0  0  0
  -22.0550   -9.1790   20.3910 C   0  0  0  0  0  3  0  0  0  0  0  0
  -22.7870  -10.3660   20.2290 C   0  0  0  0  0  3  0  0  0  0  0  0
  -21.6830   -7.0810   21.4180 O   0  0  0  0  0  0  0  0  0  0  0  0
  -21.5500   -6.3760   22.5870 C   0  0  0  0  0  0  0  0  0  0  0  0
  -20.9810   -6.9500   23.7440 C   0  0  0  0  0  3  0  0  0  0  0  0
  -20.8010   -6.1670   24.9030 C   0  0  0  0  0  3  0  0  0  0  0  0
  -21.1810   -4.8110   24.9040 C   0  0  0  0  0  0  0  0  0  0  0  0
  -21.7440   -4.2370   23.7500 C   0  0  0  0  0  3  0  0  0  0  0  0
  -21.9250   -5.0170   22.5940 C   0  0  0  0  0  0  0  0  0  0  0  0
  -22.4480   -4.4520   21.4790 F   0  0  0  0  0  0  0  0  0  0  0  0
  -21.0010   -4.0580   26.0130 F   0  0  0  0  0  0  0  0  0  0  0  0
  -22.7980  -13.7180   21.2210 C   0  0  0  0  0  0  0  0  0  0  0  0
  -22.0780  -13.0140   22.0880 N   0  0  0  0  0  0  0  0  0  0  0  0
  -22.3590  -14.7520   20.7190 O   0  0  0  0  0  0  0  0  0  0  0  0
  -22.4480  -12.1780   22.5150 H   0  0  0  0  0  0  0  0  0  0  0  0
  -21.1460  -13.3170   22.3290 H   0  0  0  0  0  0  0  0  0  0  0  0
  -25.4130  -15.3830   20.4100 N   0  0  0  0  0  0  0  0  0  0  0  0
  -24.6520  -16.0390   20.5500 H   0  0  0  0  0  0  0  0  0  0  0  0
  -26.2700  -15.8240   20.1040 H   0  0  0  0  0  0  0  0  0  0  0  0
  -27.8440  -24.8790   19.8910 C   0  0  0  0  0  2  0  0  0  0  0  0
  -28.2270  -26.3610   20.0970 O   0  0  0  0  0  0  0  0  0  0  0  0
  -24.6860  -31.9800   23.2750 C   0  0  0  0  0  0  0  0  0  0  0  0
  -27.1760  -27.3480   20.0690 C   0  0  0  0  0  0  0  0  0  0  0  0
  -23.4360  -30.6130   21.6500 C   0  0  0  0  0  3  0  0  0  0  0  0
  -24.8400  -29.0780   20.1500 C   0  0  0  0  0  0  0  0  0  0  0  0
  -25.9830  -30.8900   21.4110 C   0  0  0  0  0  2  0  0  0  0  0  0
  -26.0390  -29.5140   20.7310 C   0  0  0  0  0  0  0  0  0  0  0  0
  -27.2060  -28.6660   20.6780 C   0  0  0  0  0  3  0  0  0  0  0  0
  -25.9470  -27.0200   19.4450 C   0  0  0  0  0  3  0  0  0  0  0  0
  -24.8060  -27.8430   19.4940 C   0  0  0  0  0  3  0  0  0  0  0  0
  -23.6130  -29.9670   20.2530 C   0  0  0  0  0  2  0  0  0  0  0  0
  -24.7230  -31.1810   22.1660 N   0  0  0  0  0  0  0  0  0  0  0  0
  -23.6170  -32.2530   23.8410 O   0  0  0  0  0  0  0  0  0  0  0  0
  -22.7900  -29.5840   22.6120 C   0  0  0  0  0  0  0  0  0  0  0  0
  -21.4700  -29.3640   22.4770 N   0  0  0  0  0  0  0  0  0  0  0  0
  -23.4790  -28.9870   23.4430 O   0  0  0  0  0  0  0  0  0  0  0  0
  -20.9690  -29.8990   21.7820 H   0  0  0  0  0  0  0  0  0  0  0  0
  -18.1420  -28.0040   22.9240 C   0  0  0  0  0  0  0  0  0  0  0  0
  -20.6770  -28.4050   23.2510 C   0  0  0  0  0  3  0  0  0  0  0  0
  -20.8660  -26.9650   22.7150 C   0  0  0  0  0  2  0  0  0  0  0  0
  -19.8090  -26.5620   21.6820 C   0  0  0  0  0  2  0  0  0  0  0  0
  -18.4060  -26.6510   22.2860 C   0  0  0  0  0  2  0  0  0  0  0  0
  -19.2080  -28.8340   23.3620 C   0  0  0  0  0  0  0  0  0  0  0  0
  -18.9080  -30.0970   23.9190 C   0  0  0  0  0  3  0  0  0  0  0  0
  -17.5750  -30.5320   24.0410 C   0  0  0  0  0  3  0  0  0  0  0  0
  -16.5240  -29.7010   23.6180 C   0  0  0  0  0  3  0  0  0  0  0  0
  -16.8070  -28.4390   23.0650 C   0  0  0  0  0  3  0  0  0  0  0  0
  -25.9830  -32.6040   23.8710 C   0  0  0  0  0  3  0  0  0  0  0  0
  -25.6840  -34.0000   24.2270 N   0  0  0  0  0  0  0  0  0  0  0  0
  -25.9530  -35.0610   23.4550 C   0  0  0  0  0  0  0  0  0  0  0  0
  -26.5480  -34.9680   22.3780 O   0  0  0  0  0  0  0  0  0  0  0  0
  -25.1470  -34.1450   25.0700 H   0  0  0  0  0  0  0  0  0  0  0  0
  -24.1840  -36.8390   23.2490 C   0  0  0  0  0  1  0  0  0  0  0  0
  -25.4910  -36.4430   23.9550 C   0  0  0  0  0  3  0  0  0  0  0  0
  -27.6710  -37.3570   24.6230 C   0  0  0  0  0  1  0  0  0  0  0  0
  -26.5010  -37.5070   23.7620 N   0  0  0  0  0  0  0  0  0  0  0  0
  -26.0960  -38.4240   23.9340 H   0  0  0  0  0  0  0  0  0  0  0  0
  -26.5280  -31.8190   25.1280 C   0  0  1  0  0  0  0  0  0  0  0  0
  -25.4550  -31.5550   26.2100 C   0  0  0  0  0  1  0  0  0  0  0  0
  -27.1180  -30.4530   24.7100 C   0  0  0  0  0  1  0  0  0  0  0  0
  -27.6810  -32.6150   25.7830 C   0  0  0  0  0  1  0  0  0  0  0  0
  1  2  1  0
  2  6  1  0
  3  9  1  0
  3  2  2  0
  4  1  2  0
  5  3  1  0
  7  5  1  0
  8  5  2  0
  8  4  1  0
 11 16  1  0
 12 13  1  0
 12 11  1  0
 14 13  1  0
 14 25  1  0
 14 15  1  0
 16 10  1  0
 16 15  1  0
 17 10  2  0
 18 20  1  0
 19 18  1  0
 19 21  1  0
 20  9  1  0
 21 10  1  0
 21 20  1  0
 22 23  2  0
 23 42  1  0
 24 23  1  0
 24 27  1  0
 25 26  1  0
 25 22  1  0
 26 24  2  0
 27 28  1  0
 28 29  2  0
 30 33  1  0
 30 29  1  0
 31 30  2  0
 32 31  1  0
 32 27  2  0
 33 34  1  0
 34 39  2  0
 34 35  1  0
 35 36  2  0
 36 37  1  0
 37 41  1  0
 38 37  2  0
 39 38  1  0
 40 39  1  0
 42 43  1  0
 43 46  1  0
 43 45  1  0
 44 42  2  0
 47 48  1  0
 47 22  1  0
 49 47  1  0
 50  4  1  0
 50 51  1  0
 52 63  2  0
 53 51  1  0
 53 58  1  0
 54 62  1  0
 54 64  1  0
 55 61  1  0
 55 57  1  0
 56 62  1  0
 57 56  1  0
 58 57  2  0
 59 60  1  0
 59 53  2  0
 60 55  2  0
 61 54  1  0
 62 52  1  0
 64 66  2  0
 65 64  1  0
 67 65  1  0
 68 77  2  0
 68 73  1  0
 69 65  1  0
 69 73  1  0
 70 69  1  0
 71 72  1  0
 71 70  1  0
 72 68  1  0
 73 74  2  0
 74 75  1  0
 76 75  2  0
 77 76  1  0
 78 52  1  0
 78 79  1  0
 78 88  1  0
 79 82  1  0
 80 84  1  0
 80 79  1  0
 81 80  2  0
 84 83  1  0
 86 87  1  0
 86 84  1  0
 86 85  1  0
 88 91  1  1
 88 89  1  0
 90 88  1  0
M  ISO  4  10 100  21 100  50 101  51 101
M  END
>  <TORSDO>  (4) 
F 18

>  <SCORE>  (4) 
-13.899

>  <name>  (4) 
3

>  <ligand_id>  (4) 
3

>  <original_smiles>  (4) 
[H]c1c([H])c([H])c2c(c1[H])C([H])([H])C([H])([H])C([H])([H])C2([H])N([H])C(=O)C1([H])N(C(=O)C([H])(N([H])C(=O)C([H])(N([H])C([H])([H])[H])C([H])([H])[H])C(C([H])([H])[H])(C([H])([H])[H])C([H])([H])[H])C([H])([H])c2c([H])c(OC([H])([H])c3nc(C([H])([H])[H])c(C([H])([H])C4([H])N(C(=O)N5C([H])([H])C([H])([H])C([H])([H])C([H])(n6nc(-c7c([H])c([H])c(Oc8c([H])c([H])c(F)c([H])c8F)c([H])c7[H])c(C(=O)N([H])[H])c6N([H])[H])C5([H])[H])C([H])([H])C4([H])[H])c(C([H])([H])[H])c3[H])c([H])c([H])c2C1([H])[H]

>  <smiles>  (4) 
[H]c1c([H])c([H])c2c(c1[H])C([H])([H])C([H])([H])C([H])([H])C2([H])N([H])C(=O)C1([H])N(C(=O)C([H])(N([H])C(=O)C([H])(N([H])C([H])([H])[H])C([H])([H])[H])C(C([H])([H])[H])(C([H])([H])[H])C([H])([H])[H])C([H])([H])c2c([H])c(OC([H])([H])c3nc(C([H])([H])[H])c(C([H])([H])C4([H])N(C(=O)N5C([H])([H])C([H])([H])C([H])([H])C([H])(n6nc(-c7c([H])c([H])c(Oc8c([H])c([H])c(F)c([H])c8F)c([H])c7[H])c(C(=O)N([H])[H])c6N([H])[H])C5([H])[H])C([H])([H])C4([H])[H])c(C([H])([H])[H])c3[H])c([H])c([H])c2C1([H])[H]

$$$$
4:0:0
     RDKit          3D

 93102  0  0  1  0  0  0  0  0999 V2000
  -28.7420  -23.1200   19.6200 C   0  0  0  0  0  3  0  0  0  0  0  0
  -28.4740  -24.3770   20.3550 C   0  0  0  0  0  0  0  0  0  0  0  0
  -29.0260  -22.5780   21.6530 C   0  0  0  0  0  3  0  0  0  0  0  0
  -28.6450  -23.8910   21.6510 N   0  0  0  0  0  0  0  0  0  0  0  0
  -29.0370  -21.8900   20.4600 N   0  0  0  0  0  0  0  0  0  0  0  0
  -30.4640  -15.2220   19.8110 C   0  0  0  0  0  0  0  0  0  0  0  0
  -30.2800  -12.8020   18.8720 C   0  0  0  0  0  2  0  0  0  0  0  0
  -29.2670  -12.5970   17.7190 C   0  0  0  0  0  2  0  0  0  0  0  0
  -27.8670  -12.3130   18.2800 C   0  0  0  0  0  2  0  0  0  0  0  0
  -27.5090  -13.2710   19.4420 C   0  0  0  0  0  3  0  0  0  0  0  0
  -28.6420  -13.4410   20.4780 C   0  0  0  0  0  2  0  0  0  0  0  0
  -29.8120  -13.9510   19.7430 N   0  0  0  0  0  0  0  0  0  0  0  0
  -31.6580  -15.1290   19.4890 O   0  0  0  0  0  0  0  0  0  0  0  0
  -29.5960  -19.3430   18.9600 C   0  0  0  0  0  2  0  0  0  0  0  0
  -28.9330  -19.0200   21.1430 C   0  0  0  0  0  2  0  0  0  0  0  0
  -30.2710  -17.7930   18.9800 C   0  0  0  0  0  2  0  0  0  0  0  0
  -29.5390  -17.4430   21.1270 C   0  0  0  0  0  2  0  0  0  0  0  0
  -29.5390  -20.2690   20.2860 C   0  0  0  0  0  3  0  0  0  0  0  0
  -29.8390  -16.5920   19.8740 N   0  0  0  0  0  0  0  0  0  0  0  0
  -25.2230  -13.8230   20.4140 C   0  0  0  0  0  0  0  0  0  0  0  0
  -24.1820  -13.0440   20.8370 C   0  0  0  0  0  0  0  0  0  0  0  0
  -24.6260  -11.6900   20.7200 C   0  0  0  0  0  0  0  0  0  0  0  0
  -26.2280  -12.9460   20.0540 N   0  0  0  0  0  0  0  0  0  0  0  0
  -25.8890  -11.6550   20.3050 N   0  0  0  0  0  0  0  0  0  0  0  0
  -23.8970  -10.4300   20.9200 C   0  0  0  0  0  0  0  0  0  0  0  0
  -24.3430   -9.4550   21.8390 C   0  0  0  0  0  3  0  0  0  0  0  0
  -23.6110   -8.2620   22.0310 C   0  0  0  0  0  3  0  0  0  0  0  0
  -22.4180   -8.0370   21.3040 C   0  0  0  0  0  0  0  0  0  0  0  0
  -21.9890   -9.0010   20.3750 C   0  0  0  0  0  3  0  0  0  0  0  0
  -22.7210  -10.1850   20.1810 C   0  0  0  0  0  3  0  0  0  0  0  0
  -21.6560   -6.8980   21.4080 O   0  0  0  0  0  0  0  0  0  0  0  0
  -21.5770   -6.1890   22.5790 C   0  0  0  0  0  0  0  0  0  0  0  0
  -21.1190   -6.7770   23.7780 C   0  0  0  0  0  3  0  0  0  0  0  0
  -20.9860   -5.9930   24.9410 C   0  0  0  0  0  3  0  0  0  0  0  0
  -21.3020   -4.6210   24.9070 C   0  0  0  0  0  0  0  0  0  0  0  0
  -21.7540   -4.0320   23.7120 C   0  0  0  0  0  3  0  0  0  0  0  0
  -21.8870   -4.8130   22.5510 C   0  0  0  0  0  0  0  0  0  0  0  0
  -22.3010   -4.2360   21.3960 F   0  0  0  0  0  0  0  0  0  0  0  0
  -21.1680   -3.8650   26.0210 F   0  0  0  0  0  0  0  0  0  0  0  0
  -22.8180  -13.5260   21.2330 C   0  0  0  0  0  0  0  0  0  0  0  0
  -22.1520  -12.8100   22.1300 N   0  0  0  0  0  0  0  0  0  0  0  0
  -22.3550  -14.5730   20.7820 O   0  0  0  0  0  0  0  0  0  0  0  0
  -22.5450  -11.9650   22.5210 H   0  0  0  0  0  0  0  0  0  0  0  0
  -21.2360  -13.1080   22.4330 H   0  0  0  0  0  0  0  0  0  0  0  0
  -25.3950  -15.1960   20.2780 N   0  0  0  0  0  0  0  0  0  0  0  0
  -24.6560  -15.8610   20.4740 H   0  0  0  0  0  0  0  0  0  0  0  0
  -26.2420  -15.6330   19.9350 H   0  0  0  0  0  0  0  0  0  0  0  0
  -30.0440  -23.6220   17.5010 C   0  0  0  0  0  1  0  0  0  0  0  0
  -28.7970  -22.9850   18.1270 C   0  0  0  0  0  2  0  0  0  0  0  0
  -28.4170  -25.8570   20.0770 O   0  0  0  0  0  0  0  0  0  0  0  0
  -24.6450  -31.7060   23.1130 C   0  0  0  0  0  0  0  0  0  0  0  0
  -27.3420  -26.8830   20.1410 C   0  0  0  0  0  0  0  0  0  0  0  0
  -23.5040  -30.3020   21.4430 C   0  0  0  0  0  3  0  0  0  0  0  0
  -25.0070  -28.7190   20.0600 C   0  0  0  0  0  0  0  0  0  0  0  0
  -26.0680  -30.5530   21.3530 C   0  0  0  0  0  2  0  0  0  0  0  0
  -26.1770  -29.1430   20.7020 C   0  0  0  0  0  0  0  0  0  0  0  0
  -27.3390  -28.2480   20.7130 C   0  0  0  0  0  3  0  0  0  0  0  0
  -26.1330  -26.5990   19.4680 C   0  0  0  0  0  3  0  0  0  0  0  0
  -25.0100  -27.4630   19.4270 C   0  0  0  0  0  3  0  0  0  0  0  0
  -23.7740  -29.6210   20.0740 C   0  0  0  0  0  2  0  0  0  0  0  0
  -24.7590  -30.8780   22.0250 N   0  0  0  0  0  0  0  0  0  0  0  0
  -23.5400  -31.9850   23.6100 O   0  0  0  0  0  0  0  0  0  0  0  0
  -22.7990  -29.2950   22.3870 C   0  0  0  0  0  0  0  0  0  0  0  0
  -21.4710  -29.1360   22.2460 N   0  0  0  0  0  0  0  0  0  0  0  0
  -23.4550  -28.6520   23.2120 O   0  0  0  0  0  0  0  0  0  0  0  0
  -20.9990  -29.6940   21.5470 H   0  0  0  0  0  0  0  0  0  0  0  0
  -18.0730  -27.9650   22.7340 C   0  0  0  0  0  0  0  0  0  0  0  0
  -20.6360  -28.1930   22.9990 C   0  0  0  0  0  3  0  0  0  0  0  0
  -20.7170  -26.7730   22.3870 C   0  0  0  0  0  2  0  0  0  0  0  0
  -19.6100  -26.4940   21.3660 C   0  0  0  0  0  2  0  0  0  0  0  0
  -18.2340  -26.6350   22.0180 C   0  0  0  0  0  2  0  0  0  0  0  0
  -19.2030  -28.7050   23.1800 C   0  0  0  0  0  0  0  0  0  0  0  0
  -18.9950  -29.9520   23.8100 C   0  0  0  0  0  3  0  0  0  0  0  0
  -17.6950  -30.4570   24.0010 C   0  0  0  0  0  3  0  0  0  0  0  0
  -16.5820  -29.7140   23.5690 C   0  0  0  0  0  3  0  0  0  0  0  0
  -16.7730  -28.4690   22.9420 C   0  0  0  0  0  3  0  0  0  0  0  0
  -25.8970  -32.3580   23.7780 C   0  0  0  0  0  3  0  0  0  0  0  0
  -26.3880  -31.5830   25.0640 C   0  0  1  0  0  0  0  0  0  0  0  0
  -25.2720  -31.3300   26.1040 C   0  0  0  0  0  1  0  0  0  0  0  0
  -26.9930  -30.2130   24.6840 C   0  0  0  0  0  1  0  0  0  0  0  0
  -27.5160  -32.3800   25.7610 C   0  0  0  0  0  1  0  0  0  0  0  0
  -25.5540  -33.7470   24.1250 N   0  0  0  0  0  0  0  0  0  0  0  0
  -25.8680  -34.8210   23.3870 C   0  0  0  0  0  0  0  0  0  0  0  0
  -26.5420  -34.7450   22.3580 O   0  0  0  0  0  0  0  0  0  0  0  0
  -24.9610  -33.8750   24.9310 H   0  0  0  0  0  0  0  0  0  0  0  0
  -24.1040  -36.5830   23.0590 C   0  0  0  0  0  1  0  0  0  0  0  0
  -25.3530  -36.1930   23.8650 C   0  0  0  0  0  3  0  0  0  0  0  0
  -27.4700  -37.1070   24.7100 C   0  0  0  0  0  1  0  0  0  0  0  0
  -26.3650  -37.2700   23.7700 N   0  0  0  0  0  0  0  0  0  0  0  0
  -25.9400  -38.1780   23.9400 H   0  0  0  0  0  0  0  0  0  0  0  0
  -29.4880  -21.9500   22.9480 C   0  0  0  0  0  2  0  0  0  0  0  0
  -30.7800  -22.3210   25.1680 C   0  0  0  0  0  1  0  0  0  0  0  0
  -30.0600  -22.9660   23.9730 C   0  0  0  0  0  2  0  0  0  0  0  0
  1 49  1  0
  1  2  1  0
  1  5  1  0
  2  4  2  0
  3 91  1  0
  4  3  1  0
  5 18  1  0
  5  3  1  0
  6 19  1  0
  7 12  1  0
  8  9  1  0
  8  7  1  0
 10  9  1  0
 10 23  1  0
 10 11  1  0
 12  6  1  0
 12 11  1  0
 13  6  2  0
 14 16  1  0
 16 19  1  0
 17 15  1  0
 18 14  1  0
 18 15  1  0
 19 17  1  0
 20 21  2  0
 21 40  1  0
 22 21  1  0
 22 25  1  0
 23 24  1  0
 23 20  1  0
 24 22  2  0
 25 26  1  0
 26 27  2  0
 28 31  1  0
 28 27  1  0
 29 28  2  0
 30 29  1  0
 30 25  2  0
 31 32  1  0
 32 33  1  0
 33 34  2  0
 35 34  1  0
 35 39  1  0
 36 35  2  0
 37 32  2  0
 37 36  1  0
 38 37  1  0
 40 41  1  0
 41 44  1  0
 41 43  1  0
 42 40  2  0
 45 20  1  0
 45 46  1  0
 47 45  1  0
 48 49  1  0
 50 52  1  0
 50  2  1  0
 51 62  2  0
 52 57  1  0
 53 61  1  0
 53 63  1  0
 54 60  1  0
 54 56  1  0
 55 61  1  0
 56 57  2  0
 56 55  1  0
 58 52  2  0
 59 58  1  0
 59 54  2  0
 60 53  1  0
 61 51  1  0
 63 65  2  0
 64 63  1  0
 66 64  1  0
 67 76  2  0
 67 72  1  0
 68 64  1  0
 68 72  1  0
 69 68  1  0
 70 71  1  0
 70 69  1  0
 71 67  1  0
 72 73  2  0
 73 74  1  0
 75 74  2  0
 76 75  1  0
 77 51  1  0
 77 82  1  0
 77 78  1  0
 78 81  1  1
 78 79  1  0
 80 78  1  0
 82 85  1  0
 83 87  1  0
 83 82  1  0
 84 83  2  0
 87 86  1  0
 89 87  1  0
 89 90  1  0
 89 88  1  0
 91 93  1  0
 93 92  1  0
M  ISO  4   2 101   6 100  19 100  50 101
M  END
>  <TORSDO>  (5) 
F 19

>  <SCORE>  (5) 
-13.914

>  <name>  (5) 
4

>  <ligand_id>  (5) 
4

>  <original_smiles>  (5) 
[H]c1c([H])c([H])c2c(c1[H])C([H])([H])C([H])([H])C([H])([H])C2([H])N([H])C(=O)C1([H])N(C(=O)C([H])(N([H])C(=O)C([H])(N([H])C([H])([H])[H])C([H])([H])[H])C(C([H])([H])[H])(C([H])([H])[H])C([H])([H])[H])C([H])([H])c2c([H])c(Oc3nc(C([H])([H])C([H])([H])C([H])([H])[H])n(C4([H])C([H])([H])C([H])([H])N(C(=O)N5C([H])([H])C([H])([H])C([H])([H])C([H])(n6nc(-c7c([H])c([H])c(Oc8c([H])c([H])c(F)c([H])c8F)c([H])c7[H])c(C(=O)N([H])[H])c6N([H])[H])C5([H])[H])C([H])([H])C4([H])[H])c3C([H])([H])C([H])([H])[H])c([H])c([H])c2C1([H])[H]

>  <smiles>  (5) 
[H]c1c([H])c([H])c2c(c1[H])C([H])([H])C([H])([H])C([H])([H])C2([H])N([H])C(=O)C1([H])N(C(=O)C([H])(N([H])C(=O)C([H])(N([H])C([H])([H])[H])C([H])([H])[H])C(C([H])([H])[H])(C([H])([H])[H])C([H])([H])[H])C([H])([H])c2c([H])c(Oc3nc(C([H])([H])C([H])([H])C([H])([H])[H])n(C4([H])C([H])([H])C([H])([H])N(C(=O)N5C([H])([H])C([H])([H])C([H])([H])C([H])(n6nc(-c7c([H])c([H])c(Oc8c([H])c([H])c(F)c([H])c8F)c([H])c7[H])c(C(=O)N([H])[H])c6N([H])[H])C5([H])[H])C([H])([H])C4([H])[H])c3C([H])([H])C([H])([H])[H])c([H])c([H])c2C1([H])[H]

$$$$
5:0:0
     RDKit          3D

 95104  0  0  1  0  0  0  0  0999 V2000
  -28.5400  -22.6430   20.8070 C   0  0  0  0  0  3  0  0  0  0  0  0
  -28.8110  -23.9320   20.2430 C   0  0  0  0  0  0  0  0  0  0  0  0
  -29.6570  -23.9180   19.1050 C   0  0  0  0  0  0  0  0  0  0  0  0
  -29.1050  -21.4610   20.2320 C   0  0  0  0  0  0  0  0  0  0  0  0
  -30.1620  -22.7570   18.5940 N   0  0  0  0  0  0  0  0  0  0  0  0
  -29.9010  -21.5610   19.1430 N   0  0  0  0  0  0  0  0  0  0  0  0
  -28.8480  -20.1610   20.7560 N   0  0  0  0  0  0  0  0  0  0  0  0
  -28.2540  -20.1330   21.5770 H   0  0  0  0  0  0  0  0  0  0  0  0
  -30.6700  -14.6420   20.0120 C   0  0  0  0  0  0  0  0  0  0  0  0
  -30.3150  -12.4400   18.9370 C   0  0  0  0  0  2  0  0  0  0  0  0
  -29.3100  -12.6020   17.7790 C   0  0  0  0  0  2  0  0  0  0  0  0
  -27.8670  -12.4420   18.2970 C   0  0  0  0  0  2  0  0  0  0  0  0
  -27.5870  -13.2890   19.5680 C   0  0  0  0  0  3  0  0  0  0  0  0
  -28.7120  -13.1500   20.6150 C   0  0  0  0  0  2  0  0  0  0  0  0
  -29.9790  -13.4640   19.9460 N   0  0  0  0  0  0  0  0  0  0  0  0
  -31.8320  -14.7170   19.5990 O   0  0  0  0  0  0  0  0  0  0  0  0
  -28.8380  -17.9730   19.4310 C   0  0  0  0  0  2  0  0  0  0  0  0
  -29.8210  -18.0070   21.6580 C   0  0  0  0  0  2  0  0  0  0  0  0
  -29.6070  -16.6410   19.1300 C   0  0  0  0  0  2  0  0  0  0  0  0
  -30.5850  -16.6780   21.3460 C   0  0  0  0  0  2  0  0  0  0  0  0
  -29.5790  -18.9030   20.4190 C   0  0  0  0  0  3  0  0  0  0  0  0
  -29.9850  -15.8040   20.3040 N   0  0  0  0  0  0  0  0  0  0  0  0
  -25.2490  -13.8660   20.4550 C   0  0  0  0  0  0  0  0  0  0  0  0
  -24.2040  -13.0830   20.8670 C   0  0  0  0  0  0  0  0  0  0  0  0
  -24.6620  -11.7320   20.7710 C   0  0  0  0  0  0  0  0  0  0  0  0
  -26.2740  -12.9920   20.1330 N   0  0  0  0  0  0  0  0  0  0  0  0
  -25.9310  -11.7020   20.3840 N   0  0  0  0  0  0  0  0  0  0  0  0
  -23.9450  -10.4650   20.9700 C   0  0  0  0  0  0  0  0  0  0  0  0
  -24.4010   -9.4940   21.8890 C   0  0  0  0  0  3  0  0  0  0  0  0
  -23.6840   -8.2920   22.0750 C   0  0  0  0  0  3  0  0  0  0  0  0
  -22.4970   -8.0540   21.3440 C   0  0  0  0  0  0  0  0  0  0  0  0
  -22.0590   -9.0130   20.4140 C   0  0  0  0  0  3  0  0  0  0  0  0
  -22.7770  -10.2060   20.2260 C   0  0  0  0  0  3  0  0  0  0  0  0
  -21.7480   -6.9050   21.4430 O   0  0  0  0  0  0  0  0  0  0  0  0
  -21.6850   -6.1850   22.6080 C   0  0  0  0  0  0  0  0  0  0  0  0
  -21.2070   -6.7510   23.8100 C   0  0  0  0  0  3  0  0  0  0  0  0
  -21.0940   -5.9550   24.9680 C   0  0  0  0  0  3  0  0  0  0  0  0
  -21.4490   -4.5940   24.9240 C   0  0  0  0  0  0  0  0  0  0  0  0
  -21.9190   -4.0270   23.7270 C   0  0  0  0  0  3  0  0  0  0  0  0
  -22.0340   -4.8190   22.5710 C   0  0  0  0  0  0  0  0  0  0  0  0
  -22.4690   -4.2630   21.4150 F   0  0  0  0  0  0  0  0  0  0  0  0
  -21.3320   -3.8270   26.0330 F   0  0  0  0  0  0  0  0  0  0  0  0
  -22.8270  -13.5530   21.2370 C   0  0  0  0  0  0  0  0  0  0  0  0
  -22.1530  -12.8340   22.1280 N   0  0  0  0  0  0  0  0  0  0  0  0
  -22.3600  -14.5910   20.7720 O   0  0  0  0  0  0  0  0  0  0  0  0
  -22.5450  -11.9920   22.5240 H   0  0  0  0  0  0  0  0  0  0  0  0
  -21.2320  -13.1290   22.4170 H   0  0  0  0  0  0  0  0  0  0  0  0
  -25.4070  -15.2400   20.3070 N   0  0  0  0  0  0  0  0  0  0  0  0
  -24.6580  -15.8980   20.4920 H   0  0  0  0  0  0  0  0  0  0  0  0
  -26.2540  -15.6840   19.9760 H   0  0  0  0  0  0  0  0  0  0  0  0
  -30.0400  -25.1900   18.3530 C   0  0  0  0  0  3  0  0  0  0  0  0
  -29.0090  -25.6360   17.6330 F   0  0  0  0  0  0  0  0  0  0  0  0
  -31.0810  -25.0010   17.5380 F   0  0  0  0  0  0  0  0  0  0  0  0
  -28.1930  -25.2210   20.8820 C   0  0  0  0  0  2  0  0  0  0  0  0
  -28.4280  -26.5530   20.3010 O   0  0  0  0  0  0  0  0  0  0  0  0
  -24.6030  -31.8940   23.2500 C   0  0  0  0  0  0  0  0  0  0  0  0
  -27.3130  -27.3890   20.2510 C   0  0  0  0  0  0  0  0  0  0  0  0
  -23.4410  -30.4810   21.5900 C   0  0  0  0  0  3  0  0  0  0  0  0
  -24.9320  -28.9480   20.1910 C   0  0  0  0  0  0  0  0  0  0  0  0
  -25.9760  -30.8370   21.4470 C   0  0  0  0  0  2  0  0  0  0  0  0
  -26.0830  -29.4610   20.8060 C   0  0  0  0  0  0  0  0  0  0  0  0
  -27.2810  -28.6930   20.8260 C   0  0  0  0  0  3  0  0  0  0  0  0
  -26.1490  -26.9230   19.6060 C   0  0  0  0  0  3  0  0  0  0  0  0
  -24.9650  -27.6830   19.5810 C   0  0  0  0  0  3  0  0  0  0  0  0
  -23.6840  -29.8040   20.2160 C   0  0  0  0  0  2  0  0  0  0  0  0
  -24.6910  -31.0870   22.1540 N   0  0  0  0  0  0  0  0  0  0  0  0
  -23.5080  -32.1600   23.7680 O   0  0  0  0  0  0  0  0  0  0  0  0
  -22.7740  -29.4580   22.5400 C   0  0  0  0  0  0  0  0  0  0  0  0
  -21.4500  -29.2760   22.3980 N   0  0  0  0  0  0  0  0  0  0  0  0
  -23.4460  -28.8310   23.3640 O   0  0  0  0  0  0  0  0  0  0  0  0
  -20.9670  -29.8330   21.7070 H   0  0  0  0  0  0  0  0  0  0  0  0
  -18.0660  -28.0960   22.8780 C   0  0  0  0  0  0  0  0  0  0  0  0
  -20.6250  -28.3350   23.1570 C   0  0  0  0  0  3  0  0  0  0  0  0
  -20.7190  -26.9100   22.5640 C   0  0  0  0  0  2  0  0  0  0  0  0
  -19.6160  -26.6070   21.5440 C   0  0  0  0  0  2  0  0  0  0  0  0
  -18.2340  -26.7540   22.1880 C   0  0  0  0  0  2  0  0  0  0  0  0
  -19.1890  -28.8460   23.3190 C   0  0  0  0  0  0  0  0  0  0  0  0
  -18.9770  -30.1030   23.9250 C   0  0  0  0  0  3  0  0  0  0  0  0
  -17.6750  -30.6120   24.0940 C   0  0  0  0  0  3  0  0  0  0  0  0
  -16.5670  -29.8580   23.6700 C   0  0  0  0  0  3  0  0  0  0  0  0
  -16.7630  -28.6030   23.0690 C   0  0  0  0  0  3  0  0  0  0  0  0
  -25.8700  -32.5380   23.8950 C   0  0  0  0  0  3  0  0  0  0  0  0
  -25.5480  -33.9380   24.2030 N   0  0  0  0  0  0  0  0  0  0  0  0
  -25.8890  -34.9840   23.4390 C   0  0  0  0  0  0  0  0  0  0  0  0
  -26.5780  -34.8730   22.4210 O   0  0  0  0  0  0  0  0  0  0  0  0
  -24.9380  -34.0990   24.9910 H   0  0  0  0  0  0  0  0  0  0  0  0
  -24.1630  -36.7670   23.0280 C   0  0  0  0  0  1  0  0  0  0  0  0
  -25.3860  -36.3750   23.8720 C   0  0  0  0  0  3  0  0  0  0  0  0
  -27.4970  -37.2760   24.7460 C   0  0  0  0  0  1  0  0  0  0  0  0
  -26.4170  -37.4310   23.7740 N   0  0  0  0  0  0  0  0  0  0  0  0
  -26.0040  -38.3510   23.9030 H   0  0  0  0  0  0  0  0  0  0  0  0
  -26.3620  -31.7820   25.1890 C   0  0  1  0  0  0  0  0  0  0  0  0
  -25.2460  -31.5460   26.2340 C   0  0  0  0  0  1  0  0  0  0  0  0
  -26.9620  -30.4040   24.8240 C   0  0  0  0  0  1  0  0  0  0  0  0
  -27.4920  -32.5890   25.8710 C   0  0  0  0  0  1  0  0  0  0  0  0
  2  1  1  0
  2 54  1  0
  3  2  2  0
  4  7  1  0
  4  1  2  0
  5  3  1  0
  5  6  2  0
  6  4  1  0
  7  8  1  0
  9 22  1  0
 10 15  1  0
 11 12  1  0
 11 10  1  0
 13 12  1  0
 13 26  1  0
 13 14  1  0
 15  9  1  0
 15 14  1  0
 16  9  2  0
 17 21  1  0
 19 17  1  0
 19 22  1  0
 20 18  1  0
 21  7  1  0
 21 18  1  0
 22 20  1  0
 23 24  2  0
 24 43  1  0
 25 24  1  0
 25 28  1  0
 26 27  1  0
 26 23  1  0
 27 25  2  0
 28 29  1  0
 29 30  2  0
 31 34  1  0
 31 30  1  0
 32 31  2  0
 33 32  1  0
 33 28  2  0
 34 35  1  0
 35 36  1  0
 36 37  2  0
 38 37  1  0
 38 42  1  0
 39 38  2  0
 40 35  2  0
 40 39  1  0
 41 40  1  0
 43 44  1  0
 44 47  1  0
 44 46  1  0
 45 43  2  0
 48 23  1  0
 48 49  1  0
 50 48  1  0
 51  3  1  0
 52 51  1  0
 53 51  1  0
 55 54  1  0
 56 67  2  0
 57 55  1  0
 57 62  1  0
 58 66  1  0
 58 68  1  0
 59 65  1  0
 59 61  1  0
 60 66  1  0
 61 62  2  0
 61 60  1  0
 63 57  2  0
 64 63  1  0
 64 59  2  0
 65 58  1  0
 66 56  1  0
 68 70  2  0
 69 68  1  0
 71 69  1  0
 72 81  2  0
 72 77  1  0
 73 69  1  0
 73 77  1  0
 74 73  1  0
 75 76  1  0
 75 74  1  0
 76 72  1  0
 77 78  2  0
 78 79  1  0
 80 79  2  0
 81 80  1  0
 82 56  1  0
 82 83  1  0
 82 92  1  0
 83 86  1  0
 84 88  1  0
 84 83  1  0
 85 84  2  0
 88 87  1  0
 90 88  1  0
 90 91  1  0
 90 89  1  0
 92 95  1  1
 92 93  1  0
 94 92  1  0
M  ISO  4   9 100  22 100  54 101  55 101
M  END
>  <TORSDO>  (6) 
F 18

>  <SCORE>  (6) 
-14.660

>  <name>  (6) 
5

>  <ligand_id>  (6) 
5

>  <original_smiles>  (6) 
[H]c1c([H])c([H])c2c(c1[H])C([H])([H])C([H])([H])C([H])([H])C2([H])N([H])C(=O)C1([H])N(C(=O)C([H])(N([H])C(=O)C([H])(N([H])C([H])([H])[H])C([H])([H])[H])C(C([H])([H])[H])(C([H])([H])[H])C([H])([H])[H])C([H])([H])c2c([H])c(OC([H])([H])c3c(C([H])(F)F)nnc(N([H])C4([H])C([H])([H])C([H])([H])N(C(=O)N5C([H])([H])C([H])([H])C([H])([H])C([H])(n6nc(-c7c([H])c([H])c(Oc8c([H])c([H])c(F)c([H])c8F)c([H])c7[H])c(C(=O)N([H])[H])c6N([H])[H])C5([H])[H])C([H])([H])C4([H])[H])c3[H])c([H])c([H])c2C1([H])[H]

>  <smiles>  (6) 
[H]c1c([H])c([H])c2c(c1[H])C([H])([H])C([H])([H])C([H])([H])C2([H])N([H])C(=O)C1([H])N(C(=O)C([H])(N([H])C(=O)C([H])(N([H])C([H])([H])[H])C([H])([H])[H])C(C([H])([H])[H])(C([H])([H])[H])C([H])([H])[H])C([H])([H])c2c([H])c(OC([H])([H])c3c(C([H])(F)F)nnc(N([H])C4([H])C([H])([H])C([H])([H])N(C(=O)N5C([H])([H])C([H])([H])C([H])([H])C([H])(n6nc(-c7c([H])c([H])c(Oc8c([H])c([H])c(F)c([H])c8F)c([H])c7[H])c(C(=O)N([H])[H])c6N([H])[H])C5([H])[H])C([H])([H])C4([H])[H])c3[H])c([H])c([H])c2C1([H])[H]

$$$$
6:0:0
     RDKit          3D

 95105  0  0  1  0  0  0  0  0999 V2000
  -28.7260  -23.6890   20.6460 C   0  0  0  0  0  0  0  0  0  0  0  0
  -28.7690  -22.3380   20.0450 C   0  0  0  0  0  0  0  0  0  0  0  0
  -28.2730  -24.8530   19.8730 C   0  0  0  0  0  0  0  0  0  0  0  0
  -28.0100  -23.3520   18.1150 C   0  0  0  0  0  0  0  0  0  0  0  0
  -27.5790  -23.1730   16.6750 C   0  0  0  0  0  1  0  0  0  0  0  0
  -28.3860  -22.2420   18.7580 N   0  0  0  0  0  0  0  0  0  0  0  0
  -27.9520  -24.5990   18.5880 N   0  0  0  0  0  0  0  0  0  0  0  0
  -30.0580  -24.9890   22.5150 C   0  0  0  0  0  2  0  0  0  0  0  0
  -30.5170  -23.5530   22.5720 C   0  0  0  0  0  2  0  0  0  0  0  0
  -29.1230  -23.8790   22.0830 C   0  0  0  0  0  3  0  0  0  0  0  0
  -28.2650  -26.2710   20.2580 O   0  0  0  0  0  0  0  0  0  0  0  0
  -24.5960  -31.9150   23.2050 C   0  0  0  0  0  0  0  0  0  0  0  0
  -27.1770  -27.2120   20.1770 C   0  0  0  0  0  0  0  0  0  0  0  0
  -23.3920  -30.5050   21.5820 C   0  0  0  0  0  3  0  0  0  0  0  0
  -24.8350  -28.9310   20.1560 C   0  0  0  0  0  0  0  0  0  0  0  0
  -25.9410  -30.7850   21.3980 C   0  0  0  0  0  2  0  0  0  0  0  0
  -26.0150  -29.3910   20.7530 C   0  0  0  0  0  0  0  0  0  0  0  0
  -27.1840  -28.5460   20.7480 C   0  0  0  0  0  3  0  0  0  0  0  0
  -25.9630  -26.8460   19.5530 C   0  0  0  0  0  3  0  0  0  0  0  0
  -24.8190  -27.6710   19.5440 C   0  0  0  0  0  3  0  0  0  0  0  0
  -23.6050  -29.8220   20.2060 C   0  0  0  0  0  2  0  0  0  0  0  0
  -24.6640  -31.0910   22.1160 N   0  0  0  0  0  0  0  0  0  0  0  0
  -23.5130  -32.1980   23.7380 O   0  0  0  0  0  0  0  0  0  0  0  0
  -22.7250  -29.4990   22.5540 C   0  0  0  0  0  0  0  0  0  0  0  0
  -21.3980  -29.3190   22.4330 N   0  0  0  0  0  0  0  0  0  0  0  0
  -23.4050  -28.8810   23.3770 O   0  0  0  0  0  0  0  0  0  0  0  0
  -20.9060  -29.8680   21.7420 H   0  0  0  0  0  0  0  0  0  0  0  0
  -18.0240  -28.1140   22.9630 C   0  0  0  0  0  0  0  0  0  0  0  0
  -20.5830  -28.3860   23.2160 C   0  0  0  0  0  3  0  0  0  0  0  0
  -20.6860  -26.9490   22.6510 C   0  0  0  0  0  2  0  0  0  0  0  0
  -19.5810  -26.6160   21.6450 C   0  0  0  0  0  2  0  0  0  0  0  0
  -18.2020  -26.7610   22.2950 C   0  0  0  0  0  2  0  0  0  0  0  0
  -19.1430  -28.8830   23.3810 C   0  0  0  0  0  0  0  0  0  0  0  0
  -18.9200  -30.1480   23.9690 C   0  0  0  0  0  3  0  0  0  0  0  0
  -17.6140  -30.6430   24.1400 C   0  0  0  0  0  3  0  0  0  0  0  0
  -16.5110  -29.8710   23.7380 C   0  0  0  0  0  3  0  0  0  0  0  0
  -16.7170  -28.6080   23.1540 C   0  0  0  0  0  3  0  0  0  0  0  0
  -25.8770  -32.5590   23.8190 C   0  0  0  0  0  3  0  0  0  0  0  0
  -25.5590  -33.9560   24.1540 N   0  0  0  0  0  0  0  0  0  0  0  0
  -25.8860  -35.0160   23.4030 C   0  0  0  0  0  0  0  0  0  0  0  0
  -26.5560  -34.9200   22.3710 O   0  0  0  0  0  0  0  0  0  0  0  0
  -24.9620  -34.1030   24.9550 H   0  0  0  0  0  0  0  0  0  0  0  0
  -24.1600  -36.8140   23.0530 C   0  0  0  0  0  1  0  0  0  0  0  0
  -25.3950  -36.4000   23.8700 C   0  0  0  0  0  3  0  0  0  0  0  0
  -27.5210  -37.2820   24.7270 C   0  0  0  0  0  1  0  0  0  0  0  0
  -26.4270  -37.4560   23.7740 N   0  0  0  0  0  0  0  0  0  0  0  0
  -26.0190  -38.3740   23.9250 H   0  0  0  0  0  0  0  0  0  0  0  0
  -26.4030  -31.7950   25.0960 C   0  0  1  0  0  0  0  0  0  0  0  0
  -25.3170  -31.5540   26.1700 C   0  0  0  0  0  1  0  0  0  0  0  0
  -26.9940  -30.4190   24.7090 C   0  0  0  0  0  1  0  0  0  0  0  0
  -27.5520  -32.5990   25.7500 C   0  0  0  0  0  1  0  0  0  0  0  0
  -29.1980  -20.9340   20.7650 C   0  0  0  0  0  2  0  0  0  0  0  0
  -30.5760  -14.9760   19.9340 C   0  0  0  0  0  0  0  0  0  0  0  0
  -30.2890  -12.6680   18.9470 C   0  0  0  0  0  2  0  0  0  0  0  0
  -29.2820  -12.6520   17.7780 C   0  0  0  0  0  2  0  0  0  0  0  0
  -27.8530  -12.4410   18.3090 C   0  0  0  0  0  2  0  0  0  0  0  0
  -27.5330  -13.3440   19.5290 C   0  0  0  0  0  3  0  0  0  0  0  0
  -28.6660  -13.3450   20.5770 C   0  0  0  0  0  2  0  0  0  0  0  0
  -29.8820  -13.7670   19.8730 N   0  0  0  0  0  0  0  0  0  0  0  0
  -31.7690  -14.9150   19.6150 O   0  0  0  0  0  0  0  0  0  0  0  0
  -28.7270  -16.8200   20.5820 C   0  0  0  0  0  2  0  0  0  0  0  0
  -30.5270  -17.4200   19.1150 C   0  0  0  0  0  2  0  0  0  0  0  0
  -28.6590  -18.3760   21.0460 C   0  0  0  0  0  2  0  0  0  0  0  0
  -30.4880  -18.9340   19.6520 C   0  0  0  0  0  2  0  0  0  0  0  0
  -29.9620  -16.2740   19.9260 N   0  0  0  0  0  0  0  0  0  0  0  0
  -29.1730  -19.4810   20.1360 N   0  0  2  0  0  4  0  0  0  0  0  0
  -28.5480  -19.5570   19.3460 H   0  0  0  0  0  0  0  0  0  0  0  0
  -25.2140  -13.9020   20.4510 C   0  0  0  0  0  0  0  0  0  0  0  0
  -24.1760  -13.1180   20.8680 C   0  0  0  0  0  0  0  0  0  0  0  0
  -24.6330  -11.7680   20.7650 C   0  0  0  0  0  0  0  0  0  0  0  0
  -26.2350  -13.0310   20.1140 N   0  0  0  0  0  0  0  0  0  0  0  0
  -25.9000  -11.7400   20.3690 N   0  0  0  0  0  0  0  0  0  0  0  0
  -23.9150  -10.5010   20.9630 C   0  0  0  0  0  0  0  0  0  0  0  0
  -24.3720   -9.5290   21.8790 C   0  0  0  0  0  3  0  0  0  0  0  0
  -23.6530   -8.3290   22.0660 C   0  0  0  0  0  3  0  0  0  0  0  0
  -22.4620   -8.0930   21.3380 C   0  0  0  0  0  0  0  0  0  0  0  0
  -22.0250   -9.0550   20.4110 C   0  0  0  0  0  3  0  0  0  0  0  0
  -22.7440  -10.2460   20.2210 C   0  0  0  0  0  3  0  0  0  0  0  0
  -21.7120   -6.9470   21.4370 O   0  0  0  0  0  0  0  0  0  0  0  0
  -21.6520   -6.2230   22.6010 C   0  0  0  0  0  0  0  0  0  0  0  0
  -21.1910   -6.7920   23.8080 C   0  0  0  0  0  3  0  0  0  0  0  0
  -21.0810   -5.9950   24.9650 C   0  0  0  0  0  3  0  0  0  0  0  0
  -21.4200   -4.6290   24.9140 C   0  0  0  0  0  0  0  0  0  0  0  0
  -21.8720   -4.0590   23.7110 C   0  0  0  0  0  3  0  0  0  0  0  0
  -21.9850   -4.8540   22.5570 C   0  0  0  0  0  0  0  0  0  0  0  0
  -22.4020   -4.2960   21.3960 F   0  0  0  0  0  0  0  0  0  0  0  0
  -21.3050   -3.8610   26.0230 F   0  0  0  0  0  0  0  0  0  0  0  0
  -22.8020  -13.5900   21.2430 C   0  0  0  0  0  0  0  0  0  0  0  0
  -22.1280  -12.8700   22.1330 N   0  0  0  0  0  0  0  0  0  0  0  0
  -22.3370  -14.6320   20.7820 O   0  0  0  0  0  0  0  0  0  0  0  0
  -22.5180  -12.0280   22.5280 H   0  0  0  0  0  0  0  0  0  0  0  0
  -21.2080  -13.1680   22.4260 H   0  0  0  0  0  0  0  0  0  0  0  0
  -25.3670  -15.2770   20.3010 N   0  0  0  0  0  0  0  0  0  0  0  0
  -24.6000  -15.9200   20.4660 H   0  0  0  0  0  0  0  0  0  0  0  0
  -26.1660  -15.7160   19.8660 H   0  0  0  0  0  0  0  0  0  0  0  0
  1 10  1  0
  2  1  2  0
  2 52  1  0
  3 11  1  0
  3  1  1  0
  4  7  1  0
  4  6  2  0
  5  4  1  0
  6  2  1  0
  7  3  2  0
  8  9  1  0
 10  8  1  0
 10  9  1  0
 12 23  2  0
 13 11  1  0
 13 18  1  0
 14 22  1  0
 14 24  1  0
 15 21  1  0
 15 17  1  0
 16 22  1  0
 17 16  1  0
 18 17  2  0
 19 13  2  0
 20 19  1  0
 20 15  2  0
 21 14  1  0
 22 12  1  0
 24 26  2  0
 25 24  1  0
 27 25  1  0
 28 37  2  0
 28 33  1  0
 29 25  1  0
 29 33  1  0
 30 29  1  0
 31 32  1  0
 31 30  1  0
 32 28  1  0
 33 34  2  0
 34 35  1  0
 36 35  2  0
 37 36  1  0
 38 12  1  0
 38 39  1  0
 38 48  1  0
 39 42  1  0
 40 44  1  0
 40 39  1  0
 41 40  2  0
 44 43  1  0
 46 44  1  0
 46 47  1  0
 46 45  1  0
 48 51  1  1
 48 49  1  0
 50 48  1  0
 54 59  1  0
 55 56  1  0
 55 54  1  0
 57 56  1  0
 57 71  1  0
 57 58  1  0
 59 53  1  0
 59 58  1  0
 60 53  2  0
 61 63  1  0
 62 64  1  0
 62 65  1  0
 64 66  1  0
 65 53  1  0
 65 61  1  0
 66 52  1  0
 66 63  1  0
 66 67  1  6
 68 69  2  0
 69 88  1  0
 70 69  1  0
 70 73  1  0
 71 72  1  0
 71 68  1  0
 72 70  2  0
 73 74  1  0
 74 75  2  0
 76 79  1  0
 76 75  1  0
 77 76  2  0
 78 77  1  0
 78 73  2  0
 79 80  1  0
 80 81  1  0
 81 82  2  0
 83 82  1  0
 83 87  1  0
 84 83  2  0
 85 80  2  0
 85 84  1  0
 86 85  1  0
 88 89  1  0
 89 92  1  0
 89 91  1  0
 90 88  2  0
 93 68  1  0
 93 94  1  0
 95 93  1  0
M  ISO  4   3 101  11 101  53 100  65 100
M  END
>  <TORSDO>  (7) 
F 18

>  <SCORE>  (7) 
-13.243

>  <name>  (7) 
6

>  <ligand_id>  (7) 
6

>  <original_smiles>  (7) 
[H]c1c([H])c([H])c2c(c1[H])C([H])([H])C([H])([H])C([H])([H])C2([H])N([H])C(=O)C1([H])N(C(=O)C([H])(N([H])C(=O)C([H])(N([H])C([H])([H])[H])C([H])([H])[H])C(C([H])([H])[H])(C([H])([H])[H])C([H])([H])[H])C([H])([H])c2c([H])c(Oc3nc(C([H])([H])[H])nc(C([H])([H])[N+]4([H])C([H])([H])C([H])([H])N(C(=O)N5C([H])([H])C([H])([H])C([H])([H])C([H])(n6nc(-c7c([H])c([H])c(Oc8c([H])c([H])c(F)c([H])c8F)c([H])c7[H])c(C(=O)N([H])[H])c6N([H])[H])C5([H])[H])C([H])([H])C4([H])[H])c3C3([H])C([H])([H])C3([H])[H])c([H])c([H])c2C1([H])[H]

>  <smiles>  (7) 
[H]c1c([H])c([H])c2c(c1[H])C([H])([H])C([H])([H])C([H])([H])C2([H])N([H])C(=O)C1([H])N(C(=O)C([H])(N([H])C(=O)C([H])(N([H])C([H])([H])[H])C([H])([H])[H])C(C([H])([H])[H])(C([H])([H])[H])C([H])([H])[H])C([H])([H])c2c([H])c(Oc3nc(C([H])([H])[H])nc(C([H])([H])[N+]4([H])C([H])([H])C([H])([H])N(C(=O)N5C([H])([H])C([H])([H])C([H])([H])C([H])(n6nc(-c7c([H])c([H])c(Oc8c([H])c([H])c(F)c([H])c8F)c([H])c7[H])c(C(=O)N([H])[H])c6N([H])[H])C5([H])[H])C([H])([H])C4([H])[H])c3C3([H])C([H])([H])C3([H])[H])c([H])c([H])c2C1([H])[H]

$$$$
7:0:0
     RDKit          3D

 91100  0  0  1  0  0  0  0  0999 V2000
  -27.7990  -22.3320   20.6240 C   0  0  0  0  0  3  0  0  0  0  0  0
  -28.5840  -23.4750   20.2870 C   0  0  0  0  0  0  0  0  0  0  0  0
  -29.9330  -23.1090   20.0560 C   0  0  0  0  0  0  0  0  0  0  0  0
  -29.5410  -20.8060   20.4410 C   0  0  0  0  0  0  0  0  0  0  0  0
  -30.9520  -24.1460   19.6350 C   0  0  0  0  0  1  0  0  0  0  0  0
  -28.2580  -21.0400   20.6990 N   0  0  0  0  0  0  0  0  0  0  0  0
  -30.3820  -21.8080   20.1430 N   0  0  0  0  0  0  0  0  0  0  0  0
  -30.0720  -19.4710   20.4420 N   0  0  0  0  0  0  0  0  0  0  0  0
  -31.0590  -19.4570   20.2190 H   0  0  0  0  0  0  0  0  0  0  0  0
  -30.5910  -14.7770   20.4080 C   0  0  0  0  0  0  0  0  0  0  0  0
  -30.3570  -12.5100   19.3760 C   0  0  0  0  0  2  0  0  0  0  0  0
  -29.4250  -12.5980   18.1480 C   0  0  0  0  0  2  0  0  0  0  0  0
  -27.9550  -12.4290   18.5750 C   0  0  0  0  0  2  0  0  0  0  0  0
  -27.5820  -13.3070   19.8000 C   0  0  0  0  0  3  0  0  0  0  0  0
  -28.6400  -13.2210   20.9210 C   0  0  0  0  0  2  0  0  0  0  0  0
  -29.9360  -13.5660   20.3270 N   0  0  0  0  0  0  0  0  0  0  0  0
  -31.7780  -14.8480   20.0760 O   0  0  0  0  0  0  0  0  0  0  0  0
  -29.6510  -17.0000   19.6070 C   0  0  0  0  0  2  0  0  0  0  0  0
  -30.3620  -17.0740   21.4980 C   0  0  0  0  0  2  0  0  0  0  0  0
  -29.4870  -18.0930   20.7040 C   0  0  0  0  0  3  0  0  0  0  0  0
  -29.8620  -15.9410   20.6500 N   0  0  0  0  0  0  0  0  0  0  0  0
  -25.1920  -13.8910   20.5220 C   0  0  0  0  0  0  0  0  0  0  0  0
  -24.1240  -13.1150   20.8840 C   0  0  0  0  0  0  0  0  0  0  0  0
  -24.5890  -11.7640   20.8520 C   0  0  0  0  0  0  0  0  0  0  0  0
  -26.2380  -13.0130   20.2880 N   0  0  0  0  0  0  0  0  0  0  0  0
  -25.8810  -11.7280   20.5490 N   0  0  0  0  0  0  0  0  0  0  0  0
  -23.8610  -10.5010   21.0380 C   0  0  0  0  0  0  0  0  0  0  0  0
  -24.2820   -9.5360   21.9780 C   0  0  0  0  0  3  0  0  0  0  0  0
  -23.5550   -8.3380   22.1510 C   0  0  0  0  0  3  0  0  0  0  0  0
  -22.3890   -8.0980   21.3830 C   0  0  0  0  0  0  0  0  0  0  0  0
  -21.9870   -9.0520   20.4320 C   0  0  0  0  0  3  0  0  0  0  0  0
  -22.7160  -10.2400   20.2570 C   0  0  0  0  0  3  0  0  0  0  0  0
  -21.6350   -6.9540   21.4650 O   0  0  0  0  0  0  0  0  0  0  0  0
  -21.5600   -6.2200   22.6230 C   0  0  0  0  0  0  0  0  0  0  0  0
  -21.1020   -6.7840   23.8330 C   0  0  0  0  0  3  0  0  0  0  0  0
  -20.9770   -5.9760   24.9830 C   0  0  0  0  0  3  0  0  0  0  0  0
  -21.3010   -4.6070   24.9200 C   0  0  0  0  0  0  0  0  0  0  0  0
  -21.7520   -4.0440   23.7130 C   0  0  0  0  0  3  0  0  0  0  0  0
  -21.8780   -4.8480   22.5680 C   0  0  0  0  0  0  0  0  0  0  0  0
  -22.2930   -4.2950   21.4020 F   0  0  0  0  0  0  0  0  0  0  0  0
  -21.1730   -3.8300   26.0210 F   0  0  0  0  0  0  0  0  0  0  0  0
  -22.7250  -13.5920   21.1490 C   0  0  0  0  0  0  0  0  0  0  0  0
  -21.9950  -12.8970   22.0150 N   0  0  0  0  0  0  0  0  0  0  0  0
  -22.2890  -14.6150   20.6240 O   0  0  0  0  0  0  0  0  0  0  0  0
  -22.3610  -12.0680   22.4610 H   0  0  0  0  0  0  0  0  0  0  0  0
  -21.0580  -13.2000   22.2370 H   0  0  0  0  0  0  0  0  0  0  0  0
  -25.3580  -15.2610   20.3490 N   0  0  0  0  0  0  0  0  0  0  0  0
  -24.5970  -15.9210   20.4680 H   0  0  0  0  0  0  0  0  0  0  0  0
  -26.2250  -15.7000   20.0670 H   0  0  0  0  0  0  0  0  0  0  0  0
  -27.8540  -24.8630   19.9400 C   0  0  0  0  0  2  0  0  0  0  0  0
  -28.2480  -26.2890   20.2750 O   0  0  0  0  0  0  0  0  0  0  0  0
  -24.6300  -31.8850   23.2660 C   0  0  0  0  0  0  0  0  0  0  0  0
  -27.2020  -27.2610   20.1870 C   0  0  0  0  0  0  0  0  0  0  0  0
  -23.4240  -30.5010   21.6250 C   0  0  0  0  0  3  0  0  0  0  0  0
  -24.8670  -28.9600   20.1810 C   0  0  0  0  0  0  0  0  0  0  0  0
  -25.9740  -30.7860   21.4520 C   0  0  0  0  0  2  0  0  0  0  0  0
  -26.0460  -29.4080   20.7920 C   0  0  0  0  0  0  0  0  0  0  0  0
  -27.2150  -28.5710   20.7890 C   0  0  0  0  0  3  0  0  0  0  0  0
  -26.0000  -26.9190   19.5150 C   0  0  0  0  0  3  0  0  0  0  0  0
  -24.8520  -27.7240   19.5310 C   0  0  0  0  0  3  0  0  0  0  0  0
  -23.6370  -29.8430   20.2390 C   0  0  0  0  0  2  0  0  0  0  0  0
  -24.6960  -31.0760   22.1690 N   0  0  0  0  0  0  0  0  0  0  0  0
  -23.5460  -32.1670   23.7990 O   0  0  0  0  0  0  0  0  0  0  0  0
  -22.7550  -29.4800   22.5780 C   0  0  0  0  0  0  0  0  0  0  0  0
  -21.4280  -29.3050   22.4510 N   0  0  0  0  0  0  0  0  0  0  0  0
  -23.4300  -28.8480   23.3960 O   0  0  0  0  0  0  0  0  0  0  0  0
  -20.9410  -29.8650   21.7650 H   0  0  0  0  0  0  0  0  0  0  0  0
  -18.0470  -28.1100   22.9530 C   0  0  0  0  0  0  0  0  0  0  0  0
  -20.6070  -28.3670   23.2190 C   0  0  0  0  0  3  0  0  0  0  0  0
  -20.7050  -26.9360   22.6410 C   0  0  0  0  0  2  0  0  0  0  0  0
  -19.6010  -26.6170   21.6280 C   0  0  0  0  0  2  0  0  0  0  0  0
  -18.2210  -26.7620   22.2730 C   0  0  0  0  0  2  0  0  0  0  0  0
  -19.1660  -28.8710   23.3820 C   0  0  0  0  0  0  0  0  0  0  0  0
  -18.9490  -30.1310   23.9800 C   0  0  0  0  0  3  0  0  0  0  0  0
  -17.6440  -30.6330   24.1480 C   0  0  0  0  0  3  0  0  0  0  0  0
  -16.5400  -29.8700   23.7330 C   0  0  0  0  0  3  0  0  0  0  0  0
  -16.7410  -28.6110   23.1420 C   0  0  0  0  0  3  0  0  0  0  0  0
  -25.9130  -32.5150   23.8900 C   0  0  0  0  0  3  0  0  0  0  0  0
  -25.6060  -33.9160   24.2180 N   0  0  0  0  0  0  0  0  0  0  0  0
  -25.9240  -34.9660   23.4490 C   0  0  0  0  0  0  0  0  0  0  0  0
  -26.5770  -34.8580   22.4080 O   0  0  0  0  0  0  0  0  0  0  0  0
  -25.0260  -34.0730   25.0290 H   0  0  0  0  0  0  0  0  0  0  0  0
  -24.1820  -36.7510   23.1280 C   0  0  0  0  0  1  0  0  0  0  0  0
  -25.4460  -36.3570   23.9100 C   0  0  0  0  0  3  0  0  0  0  0  0
  -27.5980  -37.2540   24.6780 C   0  0  0  0  0  1  0  0  0  0  0  0
  -26.4720  -37.4120   23.7620 N   0  0  0  0  0  0  0  0  0  0  0  0
  -26.0670  -38.3320   23.9120 H   0  0  0  0  0  0  0  0  0  0  0  0
  -26.4210  -31.7450   25.1710 C   0  0  1  0  0  0  0  0  0  0  0  0
  -25.3220  -31.5170   26.2360 C   0  0  0  0  0  1  0  0  0  0  0  0
  -26.9980  -30.3630   24.7890 C   0  0  0  0  0  1  0  0  0  0  0  0
  -27.5740  -32.5350   25.8330 C   0  0  0  0  0  1  0  0  0  0  0  0
  1  6  1  0
  2  1  2  0
  3  7  2  0
  3  2  1  0
  4  8  1  0
  4  6  2  0
  5  3  1  0
  7  4  1  0
  9  8  1  0
 10 21  1  0
 11 16  1  0
 12 13  1  0
 12 11  1  0
 14 13  1  0
 14 25  1  0
 14 15  1  0
 16 10  1  0
 16 15  1  0
 17 10  2  0
 18 21  1  0
 18 20  1  0
 20  8  1  0
 20 19  1  0
 21 19  1  0
 22 23  2  0
 23 42  1  0
 24 23  1  0
 24 27  1  0
 25 22  1  0
 25 26  1  0
 26 24  2  0
 27 28  1  0
 28 29  2  0
 30 33  1  0
 30 29  1  0
 31 30  2  0
 32 31  1  0
 32 27  2  0
 33 34  1  0
 34 35  1  0
 35 36  2  0
 37 36  1  0
 37 41  1  0
 38 37  2  0
 39 34  2  0
 39 38  1  0
 40 39  1  0
 42 43  1  0
 43 46  1  0
 43 45  1  0
 44 42  2  0
 47 48  1  0
 47 22  1  0
 49 47  1  0
 50 51  1  0
 50  2  1  0
 52 63  2  0
 53 51  1  0
 53 58  1  0
 54 62  1  0
 54 64  1  0
 55 61  1  0
 55 57  1  0
 56 62  1  0
 57 56  1  0
 58 57  2  0
 59 60  1  0
 59 53  2  0
 60 55  2  0
 61 54  1  0
 62 52  1  0
 64 66  2  0
 65 64  1  0
 67 65  1  0
 68 77  2  0
 68 73  1  0
 69 65  1  0
 69 73  1  0
 70 69  1  0
 71 72  1  0
 71 70  1  0
 72 68  1  0
 73 74  2  0
 74 75  1  0
 76 75  2  0
 77 76  1  0
 78 52  1  0
 78 79  1  0
 78 88  1  0
 79 82  1  0
 80 84  1  0
 80 79  1  0
 81 80  2  0
 84 83  1  0
 86 84  1  0
 86 87  1  0
 86 85  1  0
 88 91  1  1
 88 89  1  0
 90 88  1  0
M  ISO  4  10 100  21 100  50 101  51 101
M  END
>  <TORSDO>  (8) 
F 17

>  <SCORE>  (8) 
-15.292

>  <name>  (8) 
7

>  <ligand_id>  (8) 
7

>  <original_smiles>  (8) 
[H]c1nc(N([H])C2([H])C([H])([H])N(C(=O)N3C([H])([H])C([H])([H])C([H])([H])C([H])(n4nc(-c5c([H])c([H])c(Oc6c([H])c([H])c(F)c([H])c6F)c([H])c5[H])c(C(=O)N([H])[H])c4N([H])[H])C3([H])[H])C2([H])[H])nc(C([H])([H])[H])c1C([H])([H])Oc1c([H])c([H])c2c(c1[H])C([H])([H])N(C(=O)C([H])(N([H])C(=O)C([H])(N([H])C([H])([H])[H])C([H])([H])[H])C(C([H])([H])[H])(C([H])([H])[H])C([H])([H])[H])C([H])(C(=O)N([H])C1([H])c3c([H])c([H])c([H])c([H])c3C([H])([H])C([H])([H])C1([H])[H])C2([H])[H]

>  <smiles>  (8) 
[H]c1nc(N([H])C2([H])C([H])([H])N(C(=O)N3C([H])([H])C([H])([H])C([H])([H])C([H])(n4nc(-c5c([H])c([H])c(Oc6c([H])c([H])c(F)c([H])c6F)c([H])c5[H])c(C(=O)N([H])[H])c4N([H])[H])C3([H])[H])C2([H])[H])nc(C([H])([H])[H])c1C([H])([H])Oc1c([H])c([H])c2c(c1[H])C([H])([H])N(C(=O)C([H])(N([H])C(=O)C([H])(N([H])C([H])([H])[H])C([H])([H])[H])C(C([H])([H])[H])(C([H])([H])[H])C([H])([H])[H])C([H])(C(=O)N([H])C1([H])c3c([H])c([H])c([H])c([H])c3C([H])([H])C([H])([H])C1([H])[H])C2([H])[H]

$$$$
8:0:0
     RDKit          3D

 89 98  0  0  1  0  0  0  0  0999 V2000
  -28.9940  -23.2010   19.3020 C   0  0  0  0  0  3  0  0  0  0  0  0
  -29.2730  -21.8390   19.9770 C   0  0  0  0  0  0  0  0  0  0  0  0
  -28.6830  -24.5500   19.9910 C   0  0  0  0  0  0  0  0  0  0  0  0
  -28.9580  -23.2010   21.8940 C   0  0  0  0  0  0  0  0  0  0  0  0
  -28.9430  -23.2000   23.4080 C   0  0  0  0  0  1  0  0  0  0  0  0
  -29.2340  -22.0140   21.3180 N   0  0  0  0  0  0  0  0  0  0  0  0
  -28.6890  -24.3920   21.3300 N   0  0  0  0  0  0  0  0  0  0  0  0
  -30.4260  -19.4680   18.6550 C   0  0  0  0  0  2  0  0  0  0  0  0
  -29.3870  -20.0920   19.5660 C   0  0  0  0  0  3  0  0  0  0  0  0
  -30.3170  -18.5720   19.8890 C   0  0  0  0  0  3  0  0  0  0  0  0
  -30.8330  -15.6210   19.7800 C   0  0  0  0  0  0  0  0  0  0  0  0
  -30.7840  -13.1130   19.0340 C   0  0  0  0  0  2  0  0  0  0  0  0
  -29.8270  -12.7950   17.8570 C   0  0  0  0  0  2  0  0  0  0  0  0
  -28.3930  -12.5530   18.3600 C   0  0  0  0  0  2  0  0  0  0  0  0
  -27.9740  -13.5980   19.4230 C   0  0  0  0  0  3  0  0  0  0  0  0
  -29.0560  -13.8330   20.4980 C   0  0  0  0  0  2  0  0  0  0  0  0
  -30.2530  -14.3120   19.7860 N   0  0  0  0  0  0  0  0  0  0  0  0
  -32.0620  -15.5770   19.6120 O   0  0  0  0  0  0  0  0  0  0  0  0
  -30.0710  -16.9160   19.7500 N   0  0  0  0  0  0  0  0  0  0  0  0
  -29.0820  -16.7080   19.7490 H   0  0  0  0  0  0  0  0  0  0  0  0
  -25.6770  -14.2430   20.3190 C   0  0  0  0  0  0  0  0  0  0  0  0
  -24.5950  -13.5070   20.7170 C   0  0  0  0  0  0  0  0  0  0  0  0
  -24.9930  -12.1370   20.6220 C   0  0  0  0  0  0  0  0  0  0  0  0
  -26.6610  -13.3270   19.9950 N   0  0  0  0  0  0  0  0  0  0  0  0
  -26.2660  -12.0510   20.2470 N   0  0  0  0  0  0  0  0  0  0  0  0
  -24.2130  -10.9060   20.8060 C   0  0  0  0  0  0  0  0  0  0  0  0
  -24.6030   -9.9150   21.7330 C   0  0  0  0  0  3  0  0  0  0  0  0
  -23.8210   -8.7510   21.9070 C   0  0  0  0  0  3  0  0  0  0  0  0
  -22.6370   -8.5720   21.1550 C   0  0  0  0  0  0  0  0  0  0  0  0
  -22.2660   -9.5520   20.2170 C   0  0  0  0  0  3  0  0  0  0  0  0
  -23.0470  -10.7060   20.0410 C   0  0  0  0  0  3  0  0  0  0  0  0
  -21.8290   -7.4630   21.2390 O   0  0  0  0  0  0  0  0  0  0  0  0
  -21.7100   -6.7470   22.4040 C   0  0  0  0  0  0  0  0  0  0  0  0
  -21.2160   -7.3310   23.5900 C   0  0  0  0  0  3  0  0  0  0  0  0
  -21.0430   -6.5410   24.7440 C   0  0  0  0  0  3  0  0  0  0  0  0
  -21.3540   -5.1690   24.7130 C   0  0  0  0  0  0  0  0  0  0  0  0
  -21.8420   -4.5840   23.5310 C   0  0  0  0  0  3  0  0  0  0  0  0
  -22.0160   -5.3710   22.3790 C   0  0  0  0  0  0  0  0  0  0  0  0
  -22.4660   -4.7980   21.2360 F   0  0  0  0  0  0  0  0  0  0  0  0
  -21.1820   -4.4080   25.8190 F   0  0  0  0  0  0  0  0  0  0  0  0
  -23.2380  -14.0430   21.0600 C   0  0  0  0  0  0  0  0  0  0  0  0
  -22.5140  -13.3640   21.9430 N   0  0  0  0  0  0  0  0  0  0  0  0
  -22.8290  -15.1010   20.5820 O   0  0  0  0  0  0  0  0  0  0  0  0
  -22.8580  -12.5080   22.3540 H   0  0  0  0  0  0  0  0  0  0  0  0
  -21.6030  -13.7060   22.2140 H   0  0  0  0  0  0  0  0  0  0  0  0
  -25.8950  -15.6100   20.1740 N   0  0  0  0  0  0  0  0  0  0  0  0
  -25.1630  -16.2910   20.3400 H   0  0  0  0  0  0  0  0  0  0  0  0
  -26.7310  -16.0180   19.7790 H   0  0  0  0  0  0  0  0  0  0  0  0
  -28.5250  -26.0340   19.5540 O   0  0  0  0  0  0  0  0  0  0  0  0
  -24.6170  -31.6260   23.0160 C   0  0  0  0  0  0  0  0  0  0  0  0
  -27.4260  -27.0520   19.7090 C   0  0  0  0  0  0  0  0  0  0  0  0
  -23.4800  -30.2270   21.3420 C   0  0  0  0  0  3  0  0  0  0  0  0
  -24.9980  -28.7890   19.8140 C   0  0  0  0  0  0  0  0  0  0  0  0
  -26.0230  -30.6180   21.1450 C   0  0  0  0  0  2  0  0  0  0  0  0
  -26.1750  -29.2410   20.4260 C   0  0  0  0  0  0  0  0  0  0  0  0
  -27.3800  -28.3970   20.3480 C   0  0  0  0  0  3  0  0  0  0  0  0
  -26.2050  -26.7690   19.0550 C   0  0  0  0  0  3  0  0  0  0  0  0
  -25.0380  -27.5760   19.1090 C   0  0  0  0  0  3  0  0  0  0  0  0
  -23.7210  -29.6240   19.9310 C   0  0  0  0  0  2  0  0  0  0  0  0
  -24.7280  -30.8510   21.8880 N   0  0  0  0  0  0  0  0  0  0  0  0
  -23.5240  -31.8110   23.5770 O   0  0  0  0  0  0  0  0  0  0  0  0
  -22.8830  -29.1400   22.2760 C   0  0  0  0  0  0  0  0  0  0  0  0
  -21.5720  -28.8640   22.1550 N   0  0  0  0  0  0  0  0  0  0  0  0
  -23.6090  -28.5470   23.0770 O   0  0  0  0  0  0  0  0  0  0  0  0
  -21.0330  -29.3970   21.4860 H   0  0  0  0  0  0  0  0  0  0  0  0
  -18.3210  -27.3180   22.6290 C   0  0  0  0  0  0  0  0  0  0  0  0
  -20.8440  -27.8280   22.8970 C   0  0  0  0  0  3  0  0  0  0  0  0
  -21.0830  -26.4300   22.2800 C   0  0  0  0  0  2  0  0  0  0  0  0
  -20.0140  -26.0320   21.2570 C   0  0  0  0  0  2  0  0  0  0  0  0
  -18.6280  -26.0160   21.9070 C   0  0  0  0  0  2  0  0  0  0  0  0
  -19.3600  -28.1750   23.0790 C   0  0  0  0  0  0  0  0  0  0  0  0
  -19.0190  -29.3870   23.7190 C   0  0  0  0  0  3  0  0  0  0  0  0
  -17.6710  -29.7450   23.9090 C   0  0  0  0  0  3  0  0  0  0  0  0
  -16.6470  -28.8880   23.4710 C   0  0  0  0  0  3  0  0  0  0  0  0
  -16.9720  -27.6750   22.8380 C   0  0  0  0  0  3  0  0  0  0  0  0
  -25.8540  -32.3310   23.6480 C   0  0  0  0  0  3  0  0  0  0  0  0
  -25.4480  -33.6900   24.0480 N   0  0  0  0  0  0  0  0  0  0  0  0
  -25.6760  -34.8020   23.3380 C   0  0  0  0  0  0  0  0  0  0  0  0
  -26.3120  -34.7980   22.2810 O   0  0  0  0  0  0  0  0  0  0  0  0
  -24.8710  -33.7610   24.8740 H   0  0  0  0  0  0  0  0  0  0  0  0
  -23.8030  -36.4790   23.1580 C   0  0  0  0  0  1  0  0  0  0  0  0
  -25.1140  -36.1330   23.8830 C   0  0  0  0  0  3  0  0  0  0  0  0
  -27.2090  -37.1570   24.6550 C   0  0  0  0  0  1  0  0  0  0  0  0
  -26.0590  -37.2650   23.7630 N   0  0  0  0  0  0  0  0  0  0  0  0
  -25.5910  -38.1480   23.9520 H   0  0  0  0  0  0  0  0  0  0  0  0
  -26.4420  -31.5530   24.8900 C   0  0  1  0  0  0  0  0  0  0  0  0
  -25.3860  -31.2080   25.9670 C   0  0  0  0  0  1  0  0  0  0  0  0
  -27.1080  -30.2290   24.4520 C   0  0  0  0  0  1  0  0  0  0  0  0
  -27.5500  -32.3990   25.5610 C   0  0  0  0  0  1  0  0  0  0  0  0
  1  2  2  0
  1  3  1  0
  2  6  1  0
  3  7  2  0
  4  5  1  0
  6  4  2  0
  7  4  1  0
  8  9  1  0
  8 10  1  0
  9 10  1  0
  9  2  1  0
 10 19  1  0
 11 17  1  0
 12 17  1  0
 13 14  1  0
 13 12  1  0
 15 14  1  0
 15 24  1  0
 15 16  1  0
 17 16  1  0
 18 11  2  0
 19 11  1  0
 20 19  1  0
 21 22  2  0
 22 41  1  0
 23 22  1  0
 23 26  1  0
 24 25  1  0
 24 21  1  0
 25 23  2  0
 26 27  1  0
 27 28  2  0
 29 32  1  0
 29 28  1  0
 30 29  2  0
 31 30  1  0
 31 26  2  0
 32 33  1  0
 33 34  1  0
 34 35  2  0
 36 35  1  0
 36 40  1  0
 37 36  2  0
 38 33  2  0
 38 37  1  0
 39 38  1  0
 41 42  1  0
 42 45  1  0
 42 44  1  0
 43 41  2  0
 46 21  1  0
 46 47  1  0
 48 46  1  0
 49 51  1  0
 49  3  1  0
 50 61  2  0
 51 56  1  0
 52 60  1  0
 52 62  1  0
 53 59  1  0
 53 55  1  0
 54 60  1  0
 55 54  1  0
 56 55  2  0
 57 58  1  0
 57 51  2  0
 58 53  2  0
 59 52  1  0
 60 50  1  0
 62 64  2  0
 63 62  1  0
 65 63  1  0
 66 75  2  0
 66 71  1  0
 67 63  1  0
 67 71  1  0
 68 67  1  0
 69 70  1  0
 69 68  1  0
 70 66  1  0
 71 72  2  0
 72 73  1  0
 74 73  2  0
 75 74  1  0
 76 50  1  0
 76 77  1  0
 76 86  1  0
 77 80  1  0
 78 82  1  0
 78 77  1  0
 79 78  2  0
 82 81  1  0
 84 82  1  0
 84 85  1  0
 84 83  1  0
 86 89  1  1
 86 87  1  0
 88 86  1  0
M  ISO  4   3 101  11 100  19 100  49 101
M  END
>  <TORSDO>  (9) 
F 17

>  <SCORE>  (9) 
-14.027

>  <name>  (9) 
8

>  <ligand_id>  (9) 
8

>  <original_smiles>  (9) 
[H]c1c(Oc2c([H])c([H])c3c(c2[H])C([H])([H])N(C(=O)C([H])(N([H])C(=O)C([H])(N([H])C([H])([H])[H])C([H])([H])[H])C(C([H])([H])[H])(C([H])([H])[H])C([H])([H])[H])C([H])(C(=O)N([H])C2([H])c4c([H])c([H])c([H])c([H])c4C([H])([H])C([H])([H])C2([H])[H])C3([H])[H])nc(C([H])([H])[H])nc1C1([H])C([H])([H])C1([H])N([H])C(=O)N1C([H])([H])C([H])([H])C([H])([H])C([H])(n2nc(-c3c([H])c([H])c(Oc4c([H])c([H])c(F)c([H])c4F)c([H])c3[H])c(C(=O)N([H])[H])c2N([H])[H])C1([H])[H]

>  <smiles>  (9) 
[H]c1c(Oc2c([H])c([H])c3c(c2[H])C([H])([H])N(C(=O)C([H])(N([H])C(=O)C([H])(N([H])C([H])([H])[H])C([H])([H])[H])C(C([H])([H])[H])(C([H])([H])[H])C([H])([H])[H])C([H])(C(=O)N([H])C2([H])c4c([H])c([H])c([H])c([H])c4C([H])([H])C([H])([H])C2([H])[H])C3([H])[H])nc(C([H])([H])[H])nc1C1([H])C([H])([H])C1([H])N([H])C(=O)N1C([H])([H])C([H])([H])C([H])([H])C([H])(n2nc(-c3c([H])c([H])c(Oc4c([H])c([H])c(F)c([H])c4F)c([H])c3[H])c(C(=O)N([H])[H])c2N([H])[H])C1([H])[H]

$$$$
9:0:0
     RDKit          3D

 88 96  0  0  1  0  0  0  0  0999 V2000
  -30.3950  -15.2630   20.3830 C   0  0  0  0  0  0  0  0  0  0  0  0
  -30.3860  -12.8400   19.4590 C   0  0  0  0  0  2  0  0  0  0  0  0
  -29.4630  -12.6740   18.2260 C   0  0  0  0  0  2  0  0  0  0  0  0
  -28.0070  -12.4100   18.6570 C   0  0  0  0  0  2  0  0  0  0  0  0
  -27.5610  -13.3520   19.8020 C   0  0  0  0  0  3  0  0  0  0  0  0
  -28.6080  -13.4520   20.9310 C   0  0  0  0  0  2  0  0  0  0  0  0
  -29.8460  -13.9550   20.3130 N   0  0  0  0  0  0  0  0  0  0  0  0
  -31.6180  -15.2980   20.1750 O   0  0  0  0  0  0  0  0  0  0  0  0
  -30.3390  -20.4270   20.8300 C   0  0  0  0  0  3  0  0  0  0  0  0
  -28.3630  -18.8630   20.0860 C   0  0  0  0  0  3  0  0  0  0  0  0
  -29.1490  -21.2010   20.4620 C   0  0  0  0  0  0  0  0  0  0  0  0
  -29.5520  -18.0810   20.4540 C   0  0  0  0  0  0  0  0  0  0  0  0
  -28.1790  -20.2820   20.0590 N   0  0  0  0  0  0  0  0  0  0  0  0
  -30.5280  -19.0090   20.8280 N   0  0  0  0  0  0  0  0  0  0  0  0
  -29.5530  -16.4700   20.4550 N   0  0  0  0  0  0  0  0  0  0  0  0
  -28.5990  -16.1450   20.4720 H   0  0  0  0  0  0  0  0  0  0  0  0
  -25.1820  -13.9110   20.5370 C   0  0  0  0  0  0  0  0  0  0  0  0
  -24.1190  -13.1340   20.9000 C   0  0  0  0  0  0  0  0  0  0  0  0
  -24.5880  -11.7840   20.8710 C   0  0  0  0  0  0  0  0  0  0  0  0
  -26.2280  -13.0370   20.2990 N   0  0  0  0  0  0  0  0  0  0  0  0
  -25.8820  -11.7520   20.5690 N   0  0  0  0  0  0  0  0  0  0  0  0
  -23.8620  -10.5210   21.0530 C   0  0  0  0  0  0  0  0  0  0  0  0
  -24.2840   -9.5520   21.9900 C   0  0  0  0  0  3  0  0  0  0  0  0
  -23.5550   -8.3560   22.1620 C   0  0  0  0  0  3  0  0  0  0  0  0
  -22.3890   -8.1180   21.3950 C   0  0  0  0  0  0  0  0  0  0  0  0
  -21.9860   -9.0760   20.4470 C   0  0  0  0  0  3  0  0  0  0  0  0
  -22.7160  -10.2630   20.2740 C   0  0  0  0  0  3  0  0  0  0  0  0
  -21.6330   -6.9740   21.4750 O   0  0  0  0  0  0  0  0  0  0  0  0
  -21.5640   -6.2370   22.6300 C   0  0  0  0  0  0  0  0  0  0  0  0
  -21.1220   -6.7990   23.8470 C   0  0  0  0  0  3  0  0  0  0  0  0
  -20.9990   -5.9880   24.9940 C   0  0  0  0  0  3  0  0  0  0  0  0
  -21.3090   -4.6160   24.9240 C   0  0  0  0  0  0  0  0  0  0  0  0
  -21.7450   -4.0550   23.7110 C   0  0  0  0  0  3  0  0  0  0  0  0
  -21.8680   -4.8620   22.5660 C   0  0  0  0  0  0  0  0  0  0  0  0
  -22.2680   -4.3110   21.3950 F   0  0  0  0  0  0  0  0  0  0  0  0
  -21.1850   -3.8360   26.0220 F   0  0  0  0  0  0  0  0  0  0  0  0
  -22.7190  -13.6080   21.1540 C   0  0  0  0  0  0  0  0  0  0  0  0
  -21.9830  -12.9160   22.0160 N   0  0  0  0  0  0  0  0  0  0  0  0
  -22.2850  -14.6300   20.6230 O   0  0  0  0  0  0  0  0  0  0  0  0
  -22.3470  -12.0910   22.4700 H   0  0  0  0  0  0  0  0  0  0  0  0
  -21.0440  -13.2180   22.2290 H   0  0  0  0  0  0  0  0  0  0  0  0
  -25.3400  -15.2830   20.3590 N   0  0  0  0  0  0  0  0  0  0  0  0
  -24.5560  -15.9210   20.4500 H   0  0  0  0  0  0  0  0  0  0  0  0
  -26.1560  -15.7190   19.9540 H   0  0  0  0  0  0  0  0  0  0  0  0
  -29.4820  -23.1050   18.7020 C   0  0  0  0  0  1  0  0  0  0  0  0
  -29.1300  -22.9300   20.1860 C   0  0  0  0  0  3  0  0  0  0  0  0
  -28.0770  -24.3190   20.5660 C   0  0  0  0  0  2  0  0  0  0  0  0
  -28.2880  -25.9440   20.4200 O   0  0  0  0  0  0  0  0  0  0  0  0
  -24.6580  -31.9130   23.2660 C   0  0  0  0  0  0  0  0  0  0  0  0
  -27.2510  -27.0070   20.3670 C   0  0  0  0  0  0  0  0  0  0  0  0
  -23.4790  -30.4870   21.6420 C   0  0  0  0  0  3  0  0  0  0  0  0
  -24.9430  -28.8610   20.2660 C   0  0  0  0  0  0  0  0  0  0  0  0
  -26.0460  -30.7080   21.5110 C   0  0  0  0  0  2  0  0  0  0  0  0
  -26.1240  -29.2880   20.8840 C   0  0  0  0  0  0  0  0  0  0  0  0
  -27.2750  -28.3820   20.9070 C   0  0  0  0  0  3  0  0  0  0  0  0
  -26.0380  -26.7220   19.7020 C   0  0  0  0  0  3  0  0  0  0  0  0
  -24.9230  -27.5970   19.6540 C   0  0  0  0  0  3  0  0  0  0  0  0
  -23.7220  -29.7780   20.2810 C   0  0  0  0  0  2  0  0  0  0  0  0
  -24.7490  -31.0630   22.1930 N   0  0  0  0  0  0  0  0  0  0  0  0
  -23.5640  -32.2110   23.7720 O   0  0  0  0  0  0  0  0  0  0  0  0
  -22.7790  -29.5070   22.6190 C   0  0  0  0  0  0  0  0  0  0  0  0
  -21.4510  -29.3360   22.4830 N   0  0  0  0  0  0  0  0  0  0  0  0
  -23.4380  -28.9000   23.4670 O   0  0  0  0  0  0  0  0  0  0  0  0
  -20.9730  -29.8770   21.7740 H   0  0  0  0  0  0  0  0  0  0  0  0
  -18.0680  -28.1230   22.9700 C   0  0  0  0  0  0  0  0  0  0  0  0
  -20.6220  -28.4120   23.2640 C   0  0  0  0  0  3  0  0  0  0  0  0
  -20.7410  -26.9680   22.7230 C   0  0  0  0  0  2  0  0  0  0  0  0
  -19.6550  -26.6150   21.7010 C   0  0  0  0  0  2  0  0  0  0  0  0
  -18.2630  -26.7610   22.3230 C   0  0  0  0  0  2  0  0  0  0  0  0
  -19.1750  -28.9040   23.3970 C   0  0  0  0  0  0  0  0  0  0  0  0
  -18.9360  -30.1740   23.9640 C   0  0  0  0  0  3  0  0  0  0  0  0
  -17.6240  -30.6650   24.1080 C   0  0  0  0  0  3  0  0  0  0  0  0
  -16.5320  -29.8820   23.6950 C   0  0  0  0  0  3  0  0  0  0  0  0
  -16.7550  -28.6130   23.1320 C   0  0  0  0  0  3  0  0  0  0  0  0
  -25.9240  -32.5680   23.8990 C   0  0  0  0  0  3  0  0  0  0  0  0
  -25.5970  -33.9710   24.2160 N   0  0  0  0  0  0  0  0  0  0  0  0
  -25.9230  -35.0250   23.4560 C   0  0  0  0  0  0  0  0  0  0  0  0
  -26.5900  -34.9200   22.4230 O   0  0  0  0  0  0  0  0  0  0  0  0
  -25.0010  -34.1240   25.0160 H   0  0  0  0  0  0  0  0  0  0  0  0
  -24.1790  -36.8100   23.1110 C   0  0  0  0  0  1  0  0  0  0  0  0
  -25.4320  -36.4150   23.9090 C   0  0  0  0  0  3  0  0  0  0  0  0
  -27.5690  -37.3240   24.7110 C   0  0  0  0  0  1  0  0  0  0  0  0
  -26.4560  -37.4750   23.7760 N   0  0  0  0  0  0  0  0  0  0  0  0
  -26.0460  -38.3930   23.9170 H   0  0  0  0  0  0  0  0  0  0  0  0
  -26.4230  -31.8210   25.1970 C   0  0  1  0  0  0  0  0  0  0  0  0
  -25.3170  -31.5990   26.2550 C   0  0  0  0  0  1  0  0  0  0  0  0
  -27.0160  -30.4380   24.8440 C   0  0  0  0  0  1  0  0  0  0  0  0
  -27.5620  -32.6300   25.8600 C   0  0  0  0  0  1  0  0  0  0  0  0
  1 15  1  0
  2  7  1  0
  3  4  1  0
  3  2  1  0
  5  4  1  0
  5 20  1  0
  5  6  1  0
  7  1  1  0
  7  6  1  0
  8  1  2  0
 10 12  1  0
 11  9  2  0
 12 15  1  0
 12 14  2  0
 13 10  2  0
 13 11  1  0
 14  9  1  0
 15 16  1  0
 17 18  2  0
 18 37  1  0
 19 18  1  0
 19 22  1  0
 20 17  1  0
 20 21  1  0
 21 19  2  0
 22 23  1  0
 23 24  2  0
 25 28  1  0
 25 24  1  0
 26 25  2  0
 27 26  1  0
 27 22  2  0
 28 29  1  0
 29 30  1  0
 30 31  2  0
 32 31  1  0
 32 36  1  0
 33 32  2  0
 34 29  2  0
 34 33  1  0
 35 34  1  0
 37 38  1  0
 38 41  1  0
 38 40  1  0
 39 37  2  0
 42 43  1  0
 42 17  1  0
 44 42  1  0
 46 45  1  0
 46 11  1  0
 46 47  1  0
 48 47  1  0
 49 60  2  0
 50 48  1  0
 50 55  1  0
 51 59  1  0
 51 61  1  0
 52 58  1  0
 52 54  1  0
 53 59  1  0
 54 55  2  0
 54 53  1  0
 56 50  2  0
 57 56  1  0
 57 52  2  0
 58 51  1  0
 59 49  1  0
 61 63  2  0
 62 61  1  0
 64 62  1  0
 65 74  2  0
 65 70  1  0
 66 62  1  0
 66 70  1  0
 67 66  1  0
 68 69  1  0
 68 67  1  0
 69 65  1  0
 70 71  2  0
 71 72  1  0
 73 72  2  0
 74 73  1  0
 75 49  1  0
 75 76  1  0
 75 85  1  0
 76 79  1  0
 77 81  1  0
 77 76  1  0
 78 77  2  0
 81 80  1  0
 83 81  1  0
 83 84  1  0
 83 82  1  0
 85 88  1  1
 85 86  1  0
 87 85  1  0
M  ISO  4   1 100  15 100  47 101  48 101
M  END
>  <TORSDO>  (10) 
F 17

>  <SCORE>  (10) 
-16.239

>  <name>  (10) 
9

>  <ligand_id>  (10) 
9

>  <original_smiles>  (10) 
[H]c1nc(C([H])(C([H])([H])[H])C([H])([H])Oc2c([H])c([H])c3c(c2[H])C([H])([H])N(C(=O)C([H])(N([H])C(=O)C([H])(N([H])C([H])([H])[H])C([H])([H])[H])C(C([H])([H])[H])(C([H])([H])[H])C([H])([H])[H])C([H])(C(=O)N([H])C2([H])c4c([H])c([H])c([H])c([H])c4C([H])([H])C([H])([H])C2([H])[H])C3([H])[H])c([H])nc1N([H])C(=O)N1C([H])([H])C([H])([H])C([H])([H])C([H])(n2nc(-c3c([H])c([H])c(Oc4c([H])c([H])c(F)c([H])c4F)c([H])c3[H])c(C(=O)N([H])[H])c2N([H])[H])C1([H])[H]

>  <smiles>  (10) 
[H]c1nc(C([H])(C([H])([H])[H])C([H])([H])Oc2c([H])c([H])c3c(c2[H])C([H])([H])N(C(=O)C([H])(N([H])C(=O)C([H])(N([H])C([H])([H])[H])C([H])([H])[H])C(C([H])([H])[H])(C([H])([H])[H])C([H])([H])[H])C([H])(C(=O)N([H])C2([H])c4c([H])c([H])c([H])c([H])c4C([H])([H])C([H])([H])C2([H])[H])C3([H])[H])c([H])nc1N([H])C(=O)N1C([H])([H])C([H])([H])C([H])([H])C([H])(n2nc(-c3c([H])c([H])c(Oc4c([H])c([H])c(F)c([H])c4F)c([H])c3[H])c(C(=O)N([H])[H])c2N([H])[H])C1([H])[H]

$$$$
10:0:0
     RDKit          3D

 92101  0  0  1  0  0  0  0  0999 V2000
  -29.6520  -22.8570   19.6930 C   0  0  0  0  0  3  0  0  0  0  0  0
  -29.6460  -24.3020   19.6590 C   0  0  0  0  0  3  0  0  0  0  0  0
  -28.5330  -22.1010   20.1480 C   0  0  0  0  0  0  0  0  0  0  0  0
  -27.4630  -22.9830   20.5800 C   0  0  0  0  0  0  0  0  0  0  0  0
  -28.5200  -25.0850   20.0600 C   0  0  0  0  0  0  0  0  0  0  0  0
  -26.1550  -22.4470   21.1400 C   0  0  0  0  0  1  0  0  0  0  0  0
  -27.4620  -24.3700   20.5350 N   0  0  0  0  0  0  0  0  0  0  0  0
  -30.8610  -15.0790   19.9280 C   0  0  0  0  0  0  0  0  0  0  0  0
  -30.6220  -12.7740   18.9500 C   0  0  0  0  0  2  0  0  0  0  0  0
  -29.6200  -12.8020   17.7760 C   0  0  0  0  0  2  0  0  0  0  0  0
  -28.1840  -12.6010   18.2950 C   0  0  0  0  0  2  0  0  0  0  0  0
  -27.8630  -13.4880   19.5290 C   0  0  0  0  0  3  0  0  0  0  0  0
  -28.9890  -13.4650   20.5830 C   0  0  0  0  0  2  0  0  0  0  0  0
  -30.2200  -13.8520   19.8930 N   0  0  0  0  0  0  0  0  0  0  0  0
  -32.0400  -15.1150   19.5570 O   0  0  0  0  0  0  0  0  0  0  0  0
  -28.3720  -20.5220   19.9940 C   0  0  0  0  0  0  0  0  0  0  0  0
  -29.6780  -18.6520   21.1840 C   0  0  0  0  0  3  0  0  0  0  0  0
  -29.3610  -18.5470   18.8410 C   0  0  0  0  0  3  0  0  0  0  0  0
  -29.5730  -17.0270   21.1090 C   0  0  0  0  0  3  0  0  0  0  0  0
  -30.4000  -17.3440   18.9030 C   0  0  0  0  0  3  0  0  0  0  0  0
  -29.3560  -19.5110   19.9850 N   0  0  0  0  0  0  0  0  0  0  0  0
  -30.1190  -16.2870   19.9190 N   0  0  0  0  0  0  0  0  0  0  0  0
  -27.2140  -20.1430   19.7990 O   0  0  0  0  0  0  0  0  0  0  0  0
  -25.5390  -14.0280   20.4590 C   0  0  0  0  0  0  0  0  0  0  0  0
  -24.5030  -13.2340   20.8660 C   0  0  0  0  0  0  0  0  0  0  0  0
  -24.9650  -11.8870   20.7420 C   0  0  0  0  0  0  0  0  0  0  0  0
  -26.5620  -13.1650   20.1070 N   0  0  0  0  0  0  0  0  0  0  0  0
  -26.2310  -11.8690   20.3420 N   0  0  0  0  0  0  0  0  0  0  0  0
  -24.2520  -10.6150   20.9230 C   0  0  0  0  0  0  0  0  0  0  0  0
  -24.6820   -9.6510   21.8630 C   0  0  0  0  0  3  0  0  0  0  0  0
  -23.9660   -8.4470   22.0330 C   0  0  0  0  0  3  0  0  0  0  0  0
  -22.8060   -8.1950   21.2620 C   0  0  0  0  0  0  0  0  0  0  0  0
  -22.3950   -9.1460   20.3120 C   0  0  0  0  0  3  0  0  0  0  0  0
  -23.1120  -10.3430   20.1410 C   0  0  0  0  0  3  0  0  0  0  0  0
  -22.0620   -7.0430   21.3420 O   0  0  0  0  0  0  0  0  0  0  0  0
  -21.8830   -6.3810   22.5310 C   0  0  0  0  0  0  0  0  0  0  0  0
  -21.2610   -6.9950   23.6400 C   0  0  0  0  0  3  0  0  0  0  0  0
  -21.0350   -6.2570   24.8190 C   0  0  0  0  0  3  0  0  0  0  0  0
  -21.4220   -4.9050   24.8890 C   0  0  0  0  0  0  0  0  0  0  0  0
  -22.0380   -4.2910   23.7850 C   0  0  0  0  0  3  0  0  0  0  0  0
  -22.2640   -5.0260   22.6080 C   0  0  0  0  0  0  0  0  0  0  0  0
  -22.8380   -4.4220   21.5390 F   0  0  0  0  0  0  0  0  0  0  0  0
  -21.1990   -4.1940   26.0190 F   0  0  0  0  0  0  0  0  0  0  0  0
  -23.1270  -13.6950   21.2520 C   0  0  0  0  0  0  0  0  0  0  0  0
  -22.4600  -12.9650   22.1380 N   0  0  0  0  0  0  0  0  0  0  0  0
  -22.6560  -14.7390   20.8050 O   0  0  0  0  0  0  0  0  0  0  0  0
  -22.8540  -12.1200   22.5260 H   0  0  0  0  0  0  0  0  0  0  0  0
  -21.5410  -13.2570   22.4370 H   0  0  0  0  0  0  0  0  0  0  0  0
  -25.6930  -15.4050   20.3340 N   0  0  0  0  0  0  0  0  0  0  0  0
  -24.9420  -16.0550   20.5370 H   0  0  0  0  0  0  0  0  0  0  0  0
  -26.5240  -15.8590   19.9790 H   0  0  0  0  0  0  0  0  0  0  0  0
  -28.5120  -26.5400   20.0170 O   0  0  0  0  0  0  0  0  0  0  0  0
  -24.7610  -31.8650   23.3500 C   0  0  0  0  0  0  0  0  0  0  0  0
  -27.3960  -27.4270   20.0500 C   0  0  0  0  0  0  0  0  0  0  0  0
  -23.5910  -30.5980   21.5850 C   0  0  0  0  0  3  0  0  0  0  0  0
  -25.0640  -29.1280   20.0830 C   0  0  0  0  0  0  0  0  0  0  0  0
  -26.1410  -30.8850   21.4880 C   0  0  0  0  0  2  0  0  0  0  0  0
  -26.2230  -29.5440   20.7500 C   0  0  0  0  0  0  0  0  0  0  0  0
  -27.3900  -28.7050   20.7220 C   0  0  0  0  0  3  0  0  0  0  0  0
  -26.2200  -27.0990   19.3460 C   0  0  0  0  0  3  0  0  0  0  0  0
  -25.0690  -27.9180   19.3690 C   0  0  0  0  0  3  0  0  0  0  0  0
  -23.8380  -30.0210   20.1640 C   0  0  0  0  0  2  0  0  0  0  0  0
  -24.8500  -31.1330   22.1990 N   0  0  0  0  0  0  0  0  0  0  0  0
  -23.6660  -32.1130   23.8760 O   0  0  0  0  0  0  0  0  0  0  0  0
  -22.8940  -29.5230   22.4550 C   0  0  0  0  0  0  0  0  0  0  0  0
  -21.5710  -29.3650   22.2830 N   0  0  0  0  0  0  0  0  0  0  0  0
  -23.5470  -28.8370   23.2450 O   0  0  0  0  0  0  0  0  0  0  0  0
  -21.1020  -29.9720   21.6250 H   0  0  0  0  0  0  0  0  0  0  0  0
  -18.1620  -28.2130   22.6850 C   0  0  0  0  0  0  0  0  0  0  0  0
  -20.7280  -28.3800   22.9640 C   0  0  0  0  0  3  0  0  0  0  0  0
  -20.7890  -27.0080   22.2520 C   0  0  0  0  0  2  0  0  0  0  0  0
  -19.6770  -26.8160   21.2170 C   0  0  0  0  0  2  0  0  0  0  0  0
  -18.3020  -26.9330   21.8800 C   0  0  0  0  0  2  0  0  0  0  0  0
  -19.3020  -28.9020   23.1800 C   0  0  0  0  0  0  0  0  0  0  0  0
  -19.1170  -30.1050   23.8950 C   0  0  0  0  0  3  0  0  0  0  0  0
  -17.8260  -30.6200   24.1170 C   0  0  0  0  0  3  0  0  0  0  0  0
  -16.7010  -29.9270   23.6360 C   0  0  0  0  0  3  0  0  0  0  0  0
  -16.8700  -28.7260   22.9260 C   0  0  0  0  0  3  0  0  0  0  0  0
  -26.0290  -32.4450   24.0480 C   0  0  0  0  0  3  0  0  0  0  0  0
  -25.7350  -33.8370   24.4250 N   0  0  0  0  0  0  0  0  0  0  0  0
  -26.0600  -34.9100   23.6940 C   0  0  0  0  0  0  0  0  0  0  0  0
  -26.7090  -34.8350   22.6470 O   0  0  0  0  0  0  0  0  0  0  0  0
  -25.1610  -33.9700   25.2440 H   0  0  0  0  0  0  0  0  0  0  0  0
  -24.3110  -36.7060   23.4680 C   0  0  0  0  0  1  0  0  0  0  0  0
  -25.5950  -36.2890   24.2050 C   0  0  0  0  0  3  0  0  0  0  0  0
  -27.7580  -37.1770   24.9550 C   0  0  0  0  0  1  0  0  0  0  0  0
  -26.6170  -37.3480   24.0590 N   0  0  0  0  0  0  0  0  0  0  0  0
  -26.2130  -38.2640   24.2310 H   0  0  0  0  0  0  0  0  0  0  0  0
  -26.4750  -31.6140   25.3140 C   0  0  1  0  0  0  0  0  0  0  0  0
  -25.3330  -31.3570   26.3240 C   0  0  0  0  0  1  0  0  0  0  0  0
  -27.0490  -30.2420   24.8920 C   0  0  0  0  0  1  0  0  0  0  0  0
  -27.6090  -32.3590   26.0590 C   0  0  0  0  0  1  0  0  0  0  0  0
  1  3  1  0
  2  1  2  0
  2  5  1  0
  3  4  2  0
  4  6  1  0
  5  7  2  0
  7  4  1  0
  9 14  1  0
 10 11  1  0
 10  9  1  0
 12 11  1  0
 12 27  1  0
 12 13  1  0
 14  8  1  0
 14 13  1  0
 15  8  2  0
 16  3  1  0
 18 20  2  0
 18 21  1  0
 19 17  2  0
 20 22  1  0
 21 16  1  0
 21 17  1  0
 22  8  1  0
 22 19  1  0
 23 16  2  0
 24 25  2  0
 25 44  1  0
 26 25  1  0
 26 29  1  0
 27 28  1  0
 27 24  1  0
 28 26  2  0
 29 30  1  0
 30 31  2  0
 32 35  1  0
 32 31  1  0
 33 32  2  0
 34 33  1  0
 34 29  2  0
 35 36  1  0
 36 41  2  0
 36 37  1  0
 37 38  2  0
 38 39  1  0
 39 43  1  0
 40 39  2  0
 41 40  1  0
 42 41  1  0
 44 45  1  0
 45 48  1  0
 45 47  1  0
 46 44  2  0
 49 24  1  0
 49 50  1  0
 51 49  1  0
 52 54  1  0
 52  5  1  0
 53 64  2  0
 54 59  1  0
 55 63  1  0
 55 65  1  0
 56 62  1  0
 56 58  1  0
 57 63  1  0
 58 57  1  0
 59 58  2  0
 60 61  1  0
 60 54  2  0
 61 56  2  0
 62 55  1  0
 63 53  1  0
 65 67  2  0
 66 65  1  0
 68 66  1  0
 69 78  2  0
 69 74  1  0
 70 66  1  0
 70 74  1  0
 71 70  1  0
 72 73  1  0
 72 71  1  0
 73 69  1  0
 74 75  2  0
 75 76  1  0
 77 76  2  0
 78 77  1  0
 79 53  1  0
 79 80  1  0
 79 89  1  0
 80 83  1  0
 81 85  1  0
 81 80  1  0
 82 81  2  0
 85 84  1  0
 87 85  1  0
 87 88  1  0
 87 86  1  0
 89 92  1  1
 89 90  1  0
 91 89  1  0
M  ISO  4   5 101   8 100  22 100  52 101
M  END
>  <TORSDO>  (11) 
F 16

>  <SCORE>  (11) 
-14.130

>  <name>  (11) 
10

>  <ligand_id>  (11) 
10

>  <original_smiles>  (11) 
[H]c1c(Oc2c([H])c([H])c3c(c2[H])C([H])([H])N(C(=O)C([H])(N([H])C(=O)C([H])(N([H])C([H])([H])[H])C([H])([H])[H])C(C([H])([H])[H])(C([H])([H])[H])C([H])([H])[H])C([H])(C(=O)N([H])C2([H])c4c([H])c([H])c([H])c([H])c4C([H])([H])C([H])([H])C2([H])[H])C3([H])[H])nc(C([H])([H])[H])c(C(=O)N2C([H])([H])C([H])([H])N(C(=O)N3C([H])([H])C([H])([H])C([H])([H])C([H])(n4nc(-c5c([H])c([H])c(Oc6c([H])c([H])c(F)c([H])c6F)c([H])c5[H])c(C(=O)N([H])[H])c4N([H])[H])C3([H])[H])C([H])([H])C2([H])[H])c1[H]

>  <smiles>  (11) 
[H]c1c(Oc2c([H])c([H])c3c(c2[H])C([H])([H])N(C(=O)C([H])(N([H])C(=O)C([H])(N([H])C([H])([H])[H])C([H])([H])[H])C(C([H])([H])[H])(C([H])([H])[H])C([H])([H])[H])C([H])(C(=O)N([H])C2([H])c4c([H])c([H])c([H])c([H])c4C([H])([H])C([H])([H])C2([H])[H])C3([H])[H])nc(C([H])([H])[H])c(C(=O)N2C([H])([H])C([H])([H])N(C(=O)N3C([H])([H])C([H])([H])C([H])([H])C([H])(n4nc(-c5c([H])c([H])c(Oc6c([H])c([H])c(F)c([H])c6F)c([H])c5[H])c(C(=O)N([H])[H])c4N([H])[H])C3([H])[H])C([H])([H])C2([H])[H])c1[H]

$$$$
11:0:0
     RDKit          3D

 94103  0  0  1  0  0  0  0  0999 V2000
  -30.9950  -20.0690   20.2510 C   0  0  0  0  0  3  0  0  0  0  0  0
  -29.2300  -18.4220   20.3630 C   0  0  0  0  0  3  0  0  0  0  0  0
  -29.6100  -19.8230   20.2380 C   0  0  0  0  0  0  0  0  0  0  0  0
  -31.9020  -18.9980   20.3820 C   0  0  0  0  0  0  0  0  0  0  0  0
  -30.2050  -17.3480   20.4840 C   0  0  0  0  0  0  0  0  0  0  0  0
  -31.5080  -17.7120   20.5180 N   0  0  0  0  0  0  0  0  0  0  0  0
  -30.5950  -14.7560   20.3720 C   0  0  0  0  0  0  0  0  0  0  0  0
  -30.3690  -12.4770   19.3740 C   0  0  0  0  0  2  0  0  0  0  0  0
  -29.4330  -12.5520   18.1480 C   0  0  0  0  0  2  0  0  0  0  0  0
  -27.9640  -12.3870   18.5810 C   0  0  0  0  0  2  0  0  0  0  0  0
  -27.5920  -13.2760   19.7960 C   0  0  0  0  0  3  0  0  0  0  0  0
  -28.6530  -13.2000   20.9160 C   0  0  0  0  0  2  0  0  0  0  0  0
  -29.9480  -13.5420   20.3140 N   0  0  0  0  0  0  0  0  0  0  0  0
  -31.7900  -14.7990   20.0590 O   0  0  0  0  0  0  0  0  0  0  0  0
  -29.8350  -15.9120   20.5530 N   0  0  0  0  0  0  0  0  0  0  0  0
  -28.8560  -15.7340   20.7020 H   0  0  0  0  0  0  0  0  0  0  0  0
  -25.2070  -13.8590   20.5360 C   0  0  0  0  0  0  0  0  0  0  0  0
  -24.1460  -13.0820   20.9100 C   0  0  0  0  0  0  0  0  0  0  0  0
  -24.6120  -11.7320   20.8780 C   0  0  0  0  0  0  0  0  0  0  0  0
  -26.2520  -12.9830   20.2930 N   0  0  0  0  0  0  0  0  0  0  0  0
  -25.9030  -11.6990   20.5640 N   0  0  0  0  0  0  0  0  0  0  0  0
  -23.8910  -10.4680   21.0700 C   0  0  0  0  0  0  0  0  0  0  0  0
  -24.3360   -9.4930   21.9910 C   0  0  0  0  0  3  0  0  0  0  0  0
  -23.6120   -8.2950   22.1710 C   0  0  0  0  0  3  0  0  0  0  0  0
  -22.4300   -8.0620   21.4310 C   0  0  0  0  0  0  0  0  0  0  0  0
  -22.0030   -9.0250   20.4980 C   0  0  0  0  0  3  0  0  0  0  0  0
  -22.7270  -10.2150   20.3160 C   0  0  0  0  0  3  0  0  0  0  0  0
  -21.6760   -6.9170   21.5220 O   0  0  0  0  0  0  0  0  0  0  0  0
  -21.6530   -6.1590   22.6650 C   0  0  0  0  0  0  0  0  0  0  0  0
  -21.2680   -6.7010   23.9100 C   0  0  0  0  0  3  0  0  0  0  0  0
  -21.1910   -5.8690   25.0460 C   0  0  0  0  0  3  0  0  0  0  0  0
  -21.4900   -4.4990   24.9370 C   0  0  0  0  0  0  0  0  0  0  0  0
  -21.8690   -3.9570   23.6960 C   0  0  0  0  0  3  0  0  0  0  0  0
  -21.9480   -4.7850   22.5620 C   0  0  0  0  0  0  0  0  0  0  0  0
  -22.2920   -4.2530   21.3660 F   0  0  0  0  0  0  0  0  0  0  0  0
  -21.4090   -3.6980   26.0250 F   0  0  0  0  0  0  0  0  0  0  0  0
  -22.7480  -13.5560   21.1830 C   0  0  0  0  0  0  0  0  0  0  0  0
  -22.0220  -12.8600   22.0500 N   0  0  0  0  0  0  0  0  0  0  0  0
  -22.3080  -14.5800   20.6610 O   0  0  0  0  0  0  0  0  0  0  0  0
  -22.3880  -12.0330   22.4960 H   0  0  0  0  0  0  0  0  0  0  0  0
  -21.0830  -13.1610   22.2730 H   0  0  0  0  0  0  0  0  0  0  0  0
  -25.3610  -15.2310   20.3580 N   0  0  0  0  0  0  0  0  0  0  0  0
  -24.5780  -15.8680   20.4590 H   0  0  0  0  0  0  0  0  0  0  0  0
  -26.1810  -15.6760   19.9680 H   0  0  0  0  0  0  0  0  0  0  0  0
  -34.1120  -19.8450   21.5130 C   0  0  0  0  0  2  0  0  0  0  0  0
  -34.0930  -20.5130   20.1570 C   0  0  0  0  0  2  0  0  0  0  0  0
  -33.3970  -19.1830   20.3600 C   0  0  0  0  0  3  0  0  0  0  0  0
  -28.6380  -21.0480   19.9320 C   0  0  0  0  0  2  0  0  0  0  0  0
  -28.8420  -22.4050   20.6190 N   0  0  0  0  0  4  0  0  0  0  0  0
  -29.8200  -22.4710   20.8490 H   0  0  0  0  0  0  0  0  0  0  0  0
  -28.3520  -22.3390   21.4960 H   0  0  0  0  0  0  0  0  0  0  0  0
  -28.4260  -23.7130   19.9070 C   0  0  0  0  0  2  0  0  0  0  0  0
  -28.2480  -25.0590   20.7890 C   0  0  0  0  0  2  0  0  0  0  0  0
  -28.3510  -26.4430   20.2190 O   0  0  0  0  0  0  0  0  0  0  0  0
  -24.6120  -31.8840   23.2540 C   0  0  0  0  0  0  0  0  0  0  0  0
  -27.2330  -27.2950   20.2310 C   0  0  0  0  0  0  0  0  0  0  0  0
  -23.4150  -30.4770   21.6170 C   0  0  0  0  0  3  0  0  0  0  0  0
  -24.8710  -28.9170   20.2030 C   0  0  0  0  0  0  0  0  0  0  0  0
  -25.9550  -30.7960   21.4360 C   0  0  0  0  0  2  0  0  0  0  0  0
  -26.0400  -29.4110   20.7980 C   0  0  0  0  0  0  0  0  0  0  0  0
  -27.2280  -28.6150   20.7930 C   0  0  0  0  0  3  0  0  0  0  0  0
  -26.0430  -26.8540   19.6220 C   0  0  0  0  0  3  0  0  0  0  0  0
  -24.8760  -27.6470   19.6040 C   0  0  0  0  0  3  0  0  0  0  0  0
  -23.6340  -29.7950   20.2400 C   0  0  0  0  0  2  0  0  0  0  0  0
  -24.6800  -31.0720   22.1580 N   0  0  0  0  0  0  0  0  0  0  0  0
  -23.5260  -32.1610   23.7850 O   0  0  0  0  0  0  0  0  0  0  0  0
  -22.7520  -29.4650   22.5800 C   0  0  0  0  0  0  0  0  0  0  0  0
  -21.4260  -29.2840   22.4520 N   0  0  0  0  0  0  0  0  0  0  0  0
  -23.4300  -28.8430   23.4020 O   0  0  0  0  0  0  0  0  0  0  0  0
  -20.9370  -29.8380   21.7620 H   0  0  0  0  0  0  0  0  0  0  0  0
  -18.0510  -28.0800   22.9480 C   0  0  0  0  0  0  0  0  0  0  0  0
  -20.6080  -28.3490   23.2260 C   0  0  0  0  0  3  0  0  0  0  0  0
  -20.7160  -26.9150   22.6580 C   0  0  0  0  0  2  0  0  0  0  0  0
  -19.6180  -26.5840   21.6420 C   0  0  0  0  0  2  0  0  0  0  0  0
  -18.2340  -26.7280   22.2800 C   0  0  0  0  0  2  0  0  0  0  0  0
  -19.1660  -28.8490   23.3780 C   0  0  0  0  0  0  0  0  0  0  0  0
  -18.9400  -30.1130   23.9640 C   0  0  0  0  0  3  0  0  0  0  0  0
  -17.6320  -30.6080   24.1260 C   0  0  0  0  0  3  0  0  0  0  0  0
  -16.5310  -29.8380   23.7100 C   0  0  0  0  0  3  0  0  0  0  0  0
  -16.7430  -28.5760   23.1270 C   0  0  0  0  0  3  0  0  0  0  0  0
  -25.8910  -32.5210   23.8790 C   0  0  0  0  0  3  0  0  0  0  0  0
  -25.5770  -33.9210   24.2000 N   0  0  0  0  0  0  0  0  0  0  0  0
  -25.9110  -34.9720   23.4380 C   0  0  0  0  0  0  0  0  0  0  0  0
  -26.5840  -34.8650   22.4090 O   0  0  0  0  0  0  0  0  0  0  0  0
  -24.9760  -34.0790   24.9960 H   0  0  0  0  0  0  0  0  0  0  0  0
  -24.1820  -36.7640   23.0750 C   0  0  0  0  0  1  0  0  0  0  0  0
  -25.4220  -36.3620   23.8880 C   0  0  0  0  0  3  0  0  0  0  0  0
  -27.5560  -37.2530   24.7160 C   0  0  0  0  0  1  0  0  0  0  0  0
  -26.4530  -37.4160   23.7720 N   0  0  0  0  0  0  0  0  0  0  0  0
  -26.0460  -38.3360   23.9150 H   0  0  0  0  0  0  0  0  0  0  0  0
  -26.4040  -31.7600   25.1630 C   0  0  1  0  0  0  0  0  0  0  0  0
  -25.3070  -31.5300   26.2300 C   0  0  0  0  0  1  0  0  0  0  0  0
  -26.9870  -30.3780   24.7850 C   0  0  0  0  0  1  0  0  0  0  0  0
  -27.5530  -32.5600   25.8220 C   0  0  0  0  0  1  0  0  0  0  0  0
  1  4  1  0
  2  5  2  0
  3  1  2  0
  3  2  1  0
  4  6  2  0
  5  6  1  0
  5 15  1  0
  7 15  1  0
  8 13  1  0
  9 10  1  0
  9  8  1  0
 11 10  1  0
 11 20  1  0
 11 12  1  0
 13  7  1  0
 13 12  1  0
 14  7  2  0
 15 16  1  0
 17 18  2  0
 18 37  1  0
 19 18  1  0
 19 22  1  0
 20 17  1  0
 20 21  1  0
 21 19  2  0
 22 23  1  0
 23 24  2  0
 25 28  1  0
 25 24  1  0
 26 25  2  0
 27 26  1  0
 27 22  2  0
 28 29  1  0
 29 30  1  0
 30 31  2  0
 32 31  1  0
 32 36  1  0
 33 32  2  0
 34 29  2  0
 34 33  1  0
 35 34  1  0
 37 38  1  0
 38 41  1  0
 38 40  1  0
 39 37  2  0
 42 43  1  0
 42 17  1  0
 44 42  1  0
 46 47  1  0
 46 45  1  0
 47  4  1  0
 47 45  1  0
 48  3  1  0
 48 49  1  0
 49 50  1  0
 49 51  1  0
 52 49  1  0
 52 53  1  0
 54 56  1  0
 54 53  1  0
 55 66  2  0
 56 61  1  0
 57 65  1  0
 57 67  1  0
 58 64  1  0
 58 60  1  0
 59 65  1  0
 60 59  1  0
 61 60  2  0
 62 56  2  0
 63 62  1  0
 63 58  2  0
 64 57  1  0
 65 55  1  0
 67 69  2  0
 68 67  1  0
 70 68  1  0
 71 80  2  0
 71 76  1  0
 72 68  1  0
 72 76  1  0
 73 72  1  0
 74 75  1  0
 74 73  1  0
 75 71  1  0
 76 77  2  0
 77 78  1  0
 79 78  2  0
 80 79  1  0
 81 55  1  0
 81 82  1  0
 81 91  1  0
 82 85  1  0
 83 87  1  0
 83 82  1  0
 84 83  2  0
 87 86  1  0
 89 87  1  0
 89 90  1  0
 89 88  1  0
 91 94  1  1
 91 92  1  0
 93 91  1  0
M  ISO  4   7 100  15 100  53 101  54 101
M  END
>  <TORSDO>  (12) 
F 21

>  <SCORE>  (12) 
-13.729

>  <name>  (12) 
11

>  <ligand_id>  (12) 
11

>  <original_smiles>  (12) 
[H]c1c([H])c([H])c2c(c1[H])C([H])([H])C([H])([H])C([H])([H])C2([H])N([H])C(=O)C1([H])N(C(=O)C([H])(N([H])C(=O)C([H])(N([H])C([H])([H])[H])C([H])([H])[H])C(C([H])([H])[H])(C([H])([H])[H])C([H])([H])[H])C([H])([H])c2c([H])c(OC([H])([H])C([H])([H])[N+]([H])([H])C([H])([H])c3c([H])c(N([H])C(=O)N4C([H])([H])C([H])([H])C([H])([H])C([H])(n5nc(-c6c([H])c([H])c(Oc7c([H])c([H])c(F)c([H])c7F)c([H])c6[H])c(C(=O)N([H])[H])c5N([H])[H])C4([H])[H])nc(C4([H])C([H])([H])C4([H])[H])c3[H])c([H])c([H])c2C1([H])[H]

>  <smiles>  (12) 
[H]c1c([H])c([H])c2c(c1[H])C([H])([H])C([H])([H])C([H])([H])C2([H])N([H])C(=O)C1([H])N(C(=O)C([H])(N([H])C(=O)C([H])(N([H])C([H])([H])[H])C([H])([H])[H])C(C([H])([H])[H])(C([H])([H])[H])C([H])([H])[H])C([H])([H])c2c([H])c(OC([H])([H])C([H])([H])[N+]([H])([H])C([H])([H])c3c([H])c(N([H])C(=O)N4C([H])([H])C([H])([H])C([H])([H])C([H])(n5nc(-c6c([H])c([H])c(Oc7c([H])c([H])c(F)c([H])c7F)c([H])c6[H])c(C(=O)N([H])[H])c5N([H])[H])C4([H])[H])nc(C4([H])C([H])([H])C4([H])[H])c3[H])c([H])c([H])c2C1([H])[H]

$$$$
12:0:0
     RDKit          3D

 89 98  0  0  1  0  0  0  0  0999 V2000
  -30.4510  -15.5160   20.3690 C   0  0  0  0  0  0  0  0  0  0  0  0
  -30.4440  -13.0540   19.4550 C   0  0  0  0  0  2  0  0  0  0  0  0
  -29.5340  -12.7600   18.2340 C   0  0  0  0  0  2  0  0  0  0  0  0
  -28.0960  -12.4530   18.6840 C   0  0  0  0  0  2  0  0  0  0  0  0
  -27.6190  -13.4230   19.7910 C   0  0  0  0  0  3  0  0  0  0  0  0
  -28.6650  -13.6450   20.9040 C   0  0  0  0  0  2  0  0  0  0  0  0
  -29.8560  -14.2120   20.2420 N   0  0  0  0  0  0  0  0  0  0  0  0
  -31.6880  -15.4230   20.2800 O   0  0  0  0  0  0  0  0  0  0  0  0
  -29.4300  -22.4460   19.0080 C   0  0  0  0  0  3  0  0  0  0  0  0
  -29.8570  -20.0660   19.1100 C   0  0  0  0  0  0  0  0  0  0  0  0
  -29.3170  -19.9370   20.3890 C   0  0  0  0  0  0  0  0  0  0  0  0
  -28.8210  -22.5750   20.2870 C   0  0  0  0  0  0  0  0  0  0  0  0
  -30.4770  -18.8040   18.4630 C   0  0  0  0  0  2  0  0  0  0  0  0
  -29.4730  -18.3010   20.9890 C   0  0  0  0  0  2  0  0  0  0  0  0
  -29.8160  -17.3810   18.7460 C   0  0  0  0  0  3  0  0  0  0  0  0
  -28.4080  -17.2880   18.1320 C   0  0  0  0  0  1  0  0  0  0  0  0
  -29.9170  -21.2740   18.4550 N   0  0  0  0  0  0  0  0  0  0  0  0
  -28.7920  -21.2270   20.9430 N   0  0  0  0  0  0  0  0  0  0  0  0
  -29.7860  -16.8760   20.1590 N   0  0  0  0  0  0  0  0  0  0  0  0
  -25.2530  -13.9590   20.5510 C   0  0  0  0  0  0  0  0  0  0  0  0
  -24.1910  -13.1750   20.9040 C   0  0  0  0  0  0  0  0  0  0  0  0
  -24.6650  -11.8260   20.8640 C   0  0  0  0  0  0  0  0  0  0  0  0
  -26.2990  -13.0900   20.3040 N   0  0  0  0  0  0  0  0  0  0  0  0
  -25.9580  -11.8000   20.5610 N   0  0  0  0  0  0  0  0  0  0  0  0
  -23.9400  -10.5590   21.0340 C   0  0  0  0  0  0  0  0  0  0  0  0
  -24.3570   -9.5880   21.9710 C   0  0  0  0  0  3  0  0  0  0  0  0
  -23.6290   -8.3900   22.1320 C   0  0  0  0  0  3  0  0  0  0  0  0
  -22.4690   -8.1530   21.3560 C   0  0  0  0  0  0  0  0  0  0  0  0
  -22.0710   -9.1130   20.4090 C   0  0  0  0  0  3  0  0  0  0  0  0
  -22.8000  -10.3020   20.2460 C   0  0  0  0  0  3  0  0  0  0  0  0
  -21.7140   -7.0080   21.4270 O   0  0  0  0  0  0  0  0  0  0  0  0
  -21.6250   -6.2740   22.5830 C   0  0  0  0  0  0  0  0  0  0  0  0
  -21.1140   -6.8260   23.7780 C   0  0  0  0  0  3  0  0  0  0  0  0
  -20.9760   -6.0190   24.9240 C   0  0  0  0  0  3  0  0  0  0  0  0
  -21.3370   -4.6580   24.8750 C   0  0  0  0  0  0  0  0  0  0  0  0
  -21.8410   -4.1050   23.6850 C   0  0  0  0  0  3  0  0  0  0  0  0
  -21.9810   -4.9110   22.5410 C   0  0  0  0  0  0  0  0  0  0  0  0
  -22.4460   -4.3690   21.3900 F   0  0  0  0  0  0  0  0  0  0  0  0
  -21.1980   -3.8790   25.9730 F   0  0  0  0  0  0  0  0  0  0  0  0
  -22.7910  -13.6440   21.1620 C   0  0  0  0  0  0  0  0  0  0  0  0
  -22.0460  -12.9250   21.9940 N   0  0  0  0  0  0  0  0  0  0  0  0
  -22.3650  -14.6850   20.6620 O   0  0  0  0  0  0  0  0  0  0  0  0
  -22.4040  -12.0810   22.4180 H   0  0  0  0  0  0  0  0  0  0  0  0
  -21.1040  -13.2210   22.2090 H   0  0  0  0  0  0  0  0  0  0  0  0
  -25.4130  -15.3330   20.3900 N   0  0  0  0  0  0  0  0  0  0  0  0
  -24.6480  -15.9860   20.5120 H   0  0  0  0  0  0  0  0  0  0  0  0
  -26.2690  -15.7770   20.0820 H   0  0  0  0  0  0  0  0  0  0  0  0
  -28.0310  -24.1350   20.7210 C   0  0  0  0  0  2  0  0  0  0  0  0
  -28.2820  -25.7910   20.4470 O   0  0  0  0  0  0  0  0  0  0  0  0
  -24.5900  -31.9180   23.2120 C   0  0  0  0  0  0  0  0  0  0  0  0
  -27.2620  -26.9140   20.3990 C   0  0  0  0  0  0  0  0  0  0  0  0
  -23.4420  -30.4420   21.6150 C   0  0  0  0  0  3  0  0  0  0  0  0
  -24.9350  -28.8040   20.2660 C   0  0  0  0  0  0  0  0  0  0  0  0
  -26.0110  -30.6770   21.4890 C   0  0  0  0  0  2  0  0  0  0  0  0
  -26.1150  -29.2380   20.8840 C   0  0  0  0  0  0  0  0  0  0  0  0
  -27.2720  -28.3180   20.9170 C   0  0  0  0  0  3  0  0  0  0  0  0
  -26.0440  -26.6560   19.7280 C   0  0  0  0  0  3  0  0  0  0  0  0
  -24.9300  -27.5360   19.6660 C   0  0  0  0  0  3  0  0  0  0  0  0
  -23.7020  -29.7130   20.2670 C   0  0  0  0  0  2  0  0  0  0  0  0
  -24.7040  -31.0440   22.1570 N   0  0  0  0  0  0  0  0  0  0  0  0
  -23.4880  -32.2050   23.7110 O   0  0  0  0  0  0  0  0  0  0  0  0
  -22.7530  -29.4700   22.6110 C   0  0  0  0  0  0  0  0  0  0  0  0
  -21.4310  -29.2590   22.4690 N   0  0  0  0  0  0  0  0  0  0  0  0
  -23.4190  -28.9050   23.4830 O   0  0  0  0  0  0  0  0  0  0  0  0
  -20.9450  -29.7650   21.7420 H   0  0  0  0  0  0  0  0  0  0  0  0
  -18.0700  -27.9950   23.0060 C   0  0  0  0  0  0  0  0  0  0  0  0
  -20.6230  -28.3270   23.2650 C   0  0  0  0  0  3  0  0  0  0  0  0
  -20.7580  -26.8800   22.7330 C   0  0  0  0  0  2  0  0  0  0  0  0
  -19.6650  -26.5040   21.7270 C   0  0  0  0  0  2  0  0  0  0  0  0
  -18.2790  -26.6330   22.3640 C   0  0  0  0  0  2  0  0  0  0  0  0
  -19.1690  -28.7970   23.4140 C   0  0  0  0  0  0  0  0  0  0  0  0
  -18.9170  -30.0650   23.9790 C   0  0  0  0  0  3  0  0  0  0  0  0
  -17.5990  -30.5350   24.1360 C   0  0  0  0  0  3  0  0  0  0  0  0
  -16.5150  -29.7330   23.7420 C   0  0  0  0  0  3  0  0  0  0  0  0
  -16.7510  -28.4640   23.1830 C   0  0  0  0  0  3  0  0  0  0  0  0
  -25.8380  -32.6140   23.8340 C   0  0  0  0  0  3  0  0  0  0  0  0
  -25.4760  -34.0100   24.1430 N   0  0  0  0  0  0  0  0  0  0  0  0
  -25.7960  -35.0720   23.3930 C   0  0  0  0  0  0  0  0  0  0  0  0
  -26.4860  -34.9830   22.3750 O   0  0  0  0  0  0  0  0  0  0  0  0
  -24.8640  -34.1510   24.9330 H   0  0  0  0  0  0  0  0  0  0  0  0
  -24.0430  -36.8390   22.9960 C   0  0  0  0  0  1  0  0  0  0  0  0
  -25.2700  -36.4540   23.8390 C   0  0  0  0  0  3  0  0  0  0  0  0
  -27.3540  -37.3920   24.7380 C   0  0  0  0  0  1  0  0  0  0  0  0
  -26.2830  -37.5270   23.7540 N   0  0  0  0  0  0  0  0  0  0  0  0
  -25.8530  -38.4400   23.8780 H   0  0  0  0  0  0  0  0  0  0  0  0
  -26.3610  -31.8920   25.1380 C   0  0  1  0  0  0  0  0  0  0  0  0
  -25.2510  -31.5860   26.1700 C   0  0  0  0  0  1  0  0  0  0  0  0
  -27.0560  -30.5570   24.7910 C   0  0  0  0  0  1  0  0  0  0  0  0
  -27.4280  -32.7730   25.8310 C   0  0  0  0  0  1  0  0  0  0  0  0
  2  7  1  0
  3  4  1  0
  3  2  1  0
  5  4  1  0
  5 23  1  0
  5  6  1  0
  7  1  1  0
  7  6  1  0
  8  1  2  0
  9 12  1  0
 10 11  2  0
 11 18  1  0
 11 14  1  0
 12 48  1  0
 12 18  2  0
 13 15  1  0
 13 10  1  0
 15 16  1  0
 15 19  1  0
 17  9  2  0
 17 10  1  0
 19  1  1  0
 19 14  1  0
 20 21  2  0
 21 40  1  0
 22 21  1  0
 22 25  1  0
 23 20  1  0
 23 24  1  0
 24 22  2  0
 25 26  1  0
 26 27  2  0
 28 31  1  0
 28 27  1  0
 29 28  2  0
 30 29  1  0
 30 25  2  0
 31 32  1  0
 32 33  1  0
 33 34  2  0
 35 34  1  0
 35 39  1  0
 36 35  2  0
 37 32  2  0
 37 36  1  0
 38 37  1  0
 40 41  1  0
 41 44  1  0
 41 43  1  0
 42 40  2  0
 45 46  1  0
 45 20  1  0
 47 45  1  0
 49 48  1  0
 50 61  2  0
 51 49  1  0
 51 56  1  0
 52 60  1  0
 52 62  1  0
 53 59  1  0
 53 55  1  0
 54 60  1  0
 55 56  2  0
 55 54  1  0
 57 51  2  0
 58 57  1  0
 58 53  2  0
 59 52  1  0
 60 50  1  0
 62 64  2  0
 63 62  1  0
 65 63  1  0
 66 75  2  0
 66 71  1  0
 67 63  1  0
 67 71  1  0
 68 67  1  0
 69 70  1  0
 69 68  1  0
 70 66  1  0
 71 72  2  0
 72 73  1  0
 74 73  2  0
 75 74  1  0
 76 50  1  0
 76 77  1  0
 76 86  1  0
 77 80  1  0
 78 82  1  0
 78 77  1  0
 79 78  2  0
 82 81  1  0
 84 82  1  0
 84 85  1  0
 84 83  1  0
 86 89  1  1
 86 87  1  0
 88 86  1  0
M  ISO  4   1 100  19 100  48 101  49 101
M  END
>  <TORSDO>  (13) 
F 16

>  <SCORE>  (13) 
-16.468

>  <name>  (13) 
12

>  <ligand_id>  (13) 
12

>  <original_smiles>  (13) 
[H]c1nc2c(nc1C([H])([H])Oc1c([H])c([H])c3c(c1[H])C([H])([H])N(C(=O)C([H])(N([H])C(=O)C([H])(N([H])C([H])([H])[H])C([H])([H])[H])C(C([H])([H])[H])(C([H])([H])[H])C([H])([H])[H])C([H])(C(=O)N([H])C1([H])c4c([H])c([H])c([H])c([H])c4C([H])([H])C([H])([H])C1([H])[H])C3([H])[H])C([H])([H])N(C(=O)N1C([H])([H])C([H])([H])C([H])([H])C([H])(n3nc(-c4c([H])c([H])c(Oc5c([H])c([H])c(F)c([H])c5F)c([H])c4[H])c(C(=O)N([H])[H])c3N([H])[H])C1([H])[H])C([H])(C([H])([H])[H])C2([H])[H]

>  <smiles>  (13) 
[H]c1nc2c(nc1C([H])([H])Oc1c([H])c([H])c3c(c1[H])C([H])([H])N(C(=O)C([H])(N([H])C(=O)C([H])(N([H])C([H])([H])[H])C([H])([H])[H])C(C([H])([H])[H])(C([H])([H])[H])C([H])([H])[H])C([H])(C(=O)N([H])C1([H])c4c([H])c([H])c([H])c([H])c4C([H])([H])C([H])([H])C1([H])[H])C3([H])[H])C([H])([H])N(C(=O)N1C([H])([H])C([H])([H])C([H])([H])C([H])(n3nc(-c4c([H])c([H])c(Oc5c([H])c([H])c(F)c([H])c5F)c([H])c4[H])c(C(=O)N([H])[H])c3N([H])[H])C1([H])[H])C([H])(C([H])([H])[H])C2([H])[H]

$$$$
13:0:0
     RDKit          3D

 91100  0  0  1  0  0  0  0  0999 V2000
  -30.2050  -15.7930   20.3090 C   0  0  0  0  0  0  0  0  0  0  0  0
  -30.3710  -13.2080   19.5140 C   0  0  0  0  0  2  0  0  0  0  0  0
  -29.5170  -12.7160   18.3070 C   0  0  0  0  0  2  0  0  0  0  0  0
  -28.1010  -12.3250   18.7500 C   0  0  0  0  0  2  0  0  0  0  0  0
  -27.5460  -13.3400   19.7720 C   0  0  0  0  0  3  0  0  0  0  0  0
  -28.5480  -13.7290   20.8870 C   0  0  0  0  0  2  0  0  0  0  0  0
  -29.7000  -14.4010   20.2270 N   0  0  0  0  0  0  0  0  0  0  0  0
  -31.4470  -15.6930   20.1970 O   0  0  0  0  0  0  0  0  0  0  0  0
  -28.6230  -20.2780   20.2450 C   0  0  0  0  0  3  0  0  0  0  0  0
  -28.8910  -21.8910   20.3320 C   0  0  0  0  0  0  0  0  0  0  0  0
  -30.2970  -21.9490   20.5760 C   0  0  0  0  0  0  0  0  0  0  0  0
  -31.1440  -20.7760   20.6920 C   0  0  0  0  0  0  0  0  0  0  0  0
  -29.5620  -18.9480   20.3590 C   0  0  0  0  0  0  0  0  0  0  0  0
  -30.8050  -19.4440   20.5710 N   0  0  0  0  0  0  0  0  0  0  0  0
  -29.4330  -17.1900   20.3140 N   0  0  0  0  0  0  0  0  0  0  0  0
  -28.4540  -16.9510   20.2820 H   0  0  0  0  0  0  0  0  0  0  0  0
  -25.1690  -13.8430   20.5000 C   0  0  0  0  0  0  0  0  0  0  0  0
  -24.1130  -13.0530   20.8530 C   0  0  0  0  0  0  0  0  0  0  0  0
  -24.5990  -11.7090   20.8390 C   0  0  0  0  0  0  0  0  0  0  0  0
  -26.2280  -12.9830   20.2780 N   0  0  0  0  0  0  0  0  0  0  0  0
  -25.8990  -11.6920   20.5490 N   0  0  0  0  0  0  0  0  0  0  0  0
  -23.8810  -10.4400   21.0220 C   0  0  0  0  0  0  0  0  0  0  0  0
  -24.2970   -9.4840   21.9750 C   0  0  0  0  0  3  0  0  0  0  0  0
  -23.5740   -8.2850   22.1490 C   0  0  0  0  0  3  0  0  0  0  0  0
  -22.4190   -8.0320   21.3710 C   0  0  0  0  0  0  0  0  0  0  0  0
  -22.0200   -8.9760   20.4080 C   0  0  0  0  0  3  0  0  0  0  0  0
  -22.7460  -10.1670   20.2330 C   0  0  0  0  0  3  0  0  0  0  0  0
  -21.6680   -6.8830   21.4540 O   0  0  0  0  0  0  0  0  0  0  0  0
  -21.5900   -6.1560   22.6150 C   0  0  0  0  0  0  0  0  0  0  0  0
  -21.1260   -6.7250   23.8210 C   0  0  0  0  0  3  0  0  0  0  0  0
  -20.9960   -5.9240   24.9730 C   0  0  0  0  0  3  0  0  0  0  0  0
  -21.3200   -4.5550   24.9190 C   0  0  0  0  0  0  0  0  0  0  0  0
  -21.7780   -3.9860   23.7180 C   0  0  0  0  0  3  0  0  0  0  0  0
  -21.9090   -4.7840   22.5680 C   0  0  0  0  0  0  0  0  0  0  0  0
  -22.3300   -4.2250   21.4080 F   0  0  0  0  0  0  0  0  0  0  0  0
  -21.1890   -3.7840   26.0240 F   0  0  0  0  0  0  0  0  0  0  0  0
  -22.7060  -13.5170   21.0860 C   0  0  0  0  0  0  0  0  0  0  0  0
  -21.9690  -12.8280   21.9490 N   0  0  0  0  0  0  0  0  0  0  0  0
  -22.2700  -14.5290   20.5370 O   0  0  0  0  0  0  0  0  0  0  0  0
  -22.3360  -12.0120   22.4140 H   0  0  0  0  0  0  0  0  0  0  0  0
  -21.0230  -13.1230   22.1480 H   0  0  0  0  0  0  0  0  0  0  0  0
  -25.3140  -15.2140   20.3140 N   0  0  0  0  0  0  0  0  0  0  0  0
  -24.5300  -15.8520   20.4000 H   0  0  0  0  0  0  0  0  0  0  0  0
  -26.1500  -15.6570   19.9570 H   0  0  0  0  0  0  0  0  0  0  0  0
  -33.4050  -19.9220   21.7800 C   0  0  0  0  0  2  0  0  0  0  0  0
  -33.1480  -21.3010   22.3130 C   0  0  0  0  0  2  0  0  0  0  0  0
  -32.6260  -20.9220   20.9380 C   0  0  0  0  0  3  0  0  0  0  0  0
  -31.2950  -23.9260   19.3280 C   0  0  0  0  0  1  0  0  0  0  0  0
  -30.9220  -23.3400   20.6950 C   0  0  0  0  0  2  0  0  0  0  0  0
  -27.9240  -23.5470   20.1900 C   0  0  0  0  0  2  0  0  0  0  0  0
  -28.1410  -25.3430   20.3210 O   0  0  0  0  0  0  0  0  0  0  0  0
  -24.6900  -31.8180   23.1730 C   0  0  0  0  0  0  0  0  0  0  0  0
  -27.1940  -26.6120   20.2520 C   0  0  0  0  0  0  0  0  0  0  0  0
  -23.5040  -30.4100   21.5450 C   0  0  0  0  0  3  0  0  0  0  0  0
  -24.9500  -28.7230   20.1590 C   0  0  0  0  0  0  0  0  0  0  0  0
  -26.0890  -30.5080   21.4470 C   0  0  0  0  0  2  0  0  0  0  0  0
  -26.1460  -29.0580   20.8030 C   0  0  0  0  0  0  0  0  0  0  0  0
  -27.2490  -28.0350   20.8130 C   0  0  0  0  0  3  0  0  0  0  0  0
  -25.9630  -26.5140   19.5480 C   0  0  0  0  0  3  0  0  0  0  0  0
  -24.9040  -27.4780   19.5080 C   0  0  0  0  0  3  0  0  0  0  0  0
  -23.7530  -29.6940   20.1850 C   0  0  0  0  0  2  0  0  0  0  0  0
  -24.7860  -30.9480   22.1070 N   0  0  0  0  0  0  0  0  0  0  0  0
  -23.5930  -32.1330   23.6710 O   0  0  0  0  0  0  0  0  0  0  0  0
  -22.7680  -29.4550   22.5230 C   0  0  0  0  0  0  0  0  0  0  0  0
  -21.4330  -29.3180   22.3970 N   0  0  0  0  0  0  0  0  0  0  0  0
  -23.4110  -28.8330   23.3710 O   0  0  0  0  0  0  0  0  0  0  0  0
  -20.9610  -29.8700   21.6940 H   0  0  0  0  0  0  0  0  0  0  0  0
  -18.0320  -28.1370   22.9130 C   0  0  0  0  0  0  0  0  0  0  0  0
  -20.5950  -28.3950   23.1750 C   0  0  0  0  0  3  0  0  0  0  0  0
  -20.6870  -26.9560   22.6160 C   0  0  0  0  0  2  0  0  0  0  0  0
  -19.5860  -26.6320   21.6000 C   0  0  0  0  0  2  0  0  0  0  0  0
  -18.2030  -26.7860   22.2400 C   0  0  0  0  0  2  0  0  0  0  0  0
  -19.1540  -28.9000   23.3360 C   0  0  0  0  0  0  0  0  0  0  0  0
  -18.9360  -30.1620   23.9300 C   0  0  0  0  0  3  0  0  0  0  0  0
  -17.6310  -30.6630   24.1010 C   0  0  0  0  0  3  0  0  0  0  0  0
  -16.5250  -29.9000   23.6890 C   0  0  0  0  0  3  0  0  0  0  0  0
  -16.7270  -28.6390   23.1010 C   0  0  0  0  0  3  0  0  0  0  0  0
  -25.9490  -32.4710   23.8190 C   0  0  0  0  0  3  0  0  0  0  0  0
  -25.6240  -33.8720   24.1580 N   0  0  0  0  0  0  0  0  0  0  0  0
  -25.9480  -34.9420   23.4190 C   0  0  0  0  0  0  0  0  0  0  0  0
  -26.6060  -34.8550   22.3810 O   0  0  0  0  0  0  0  0  0  0  0  0
  -25.0330  -34.0120   24.9640 H   0  0  0  0  0  0  0  0  0  0  0  0
  -24.2060  -36.7440   23.1390 C   0  0  0  0  0  1  0  0  0  0  0  0
  -25.4710  -36.3290   23.9060 C   0  0  0  0  0  3  0  0  0  0  0  0
  -27.6240  -37.2220   24.6850 C   0  0  0  0  0  1  0  0  0  0  0  0
  -26.4960  -37.3880   23.7730 N   0  0  0  0  0  0  0  0  0  0  0  0
  -26.0890  -38.3050   23.9380 H   0  0  0  0  0  0  0  0  0  0  0  0
  -26.4410  -31.7140   25.1160 C   0  0  1  0  0  0  0  0  0  0  0  0
  -25.3310  -31.4980   26.1730 C   0  0  0  0  0  1  0  0  0  0  0  0
  -27.0210  -30.3250   24.7640 C   0  0  0  0  0  1  0  0  0  0  0  0
  -27.5880  -32.5090   25.7830 C   0  0  0  0  0  1  0  0  0  0  0  0
  1 15  1  0
  2  7  1  0
  3  4  1  0
  3  2  1  0
  5  4  1  0
  5 20  1  0
  5  6  1  0
  7  1  1  0
  7  6  1  0
  8  1  2  0
  9 10  2  0
  9 13  1  0
 10 11  1  0
 11 12  2  0
 11 49  1  0
 12 47  1  0
 13 14  2  0
 14 12  1  0
 15 13  1  0
 16 15  1  0
 17 18  2  0
 18 37  1  0
 19 18  1  0
 19 22  1  0
 20 17  1  0
 20 21  1  0
 21 19  2  0
 22 23  1  0
 23 24  2  0
 25 28  1  0
 25 24  1  0
 26 25  2  0
 27 26  1  0
 27 22  2  0
 28 29  1  0
 29 30  1  0
 30 31  2  0
 32 31  1  0
 32 36  1  0
 33 32  2  0
 34 29  2  0
 34 33  1  0
 35 34  1  0
 37 38  1  0
 38 41  1  0
 38 40  1  0
 39 37  2  0
 42 43  1  0
 42 17  1  0
 44 42  1  0
 45 46  1  0
 47 45  1  0
 47 46  1  0
 48 49  1  0
 50 51  1  0
 50 10  1  0
 52 63  2  0
 53 51  1  0
 53 58  1  0
 54 62  1  0
 54 64  1  0
 55 61  1  0
 55 57  1  0
 56 62  1  0
 57 58  2  0
 57 56  1  0
 59 53  2  0
 60 59  1  0
 60 55  2  0
 61 54  1  0
 62 52  1  0
 64 66  2  0
 65 64  1  0
 67 65  1  0
 68 77  2  0
 68 73  1  0
 69 65  1  0
 69 73  1  0
 70 69  1  0
 71 72  1  0
 71 70  1  0
 72 68  1  0
 73 74  2  0
 74 75  1  0
 76 75  2  0
 77 76  1  0
 78 52  1  0
 78 79  1  0
 78 88  1  0
 79 82  1  0
 80 84  1  0
 80 79  1  0
 81 80  2  0
 84 83  1  0
 86 84  1  0
 86 87  1  0
 86 85  1  0
 88 91  1  1
 88 89  1  0
 90 88  1  0
M  ISO  4   1 100  15 100  50 101  51 101
M  END
>  <TORSDO>  (14) 
F 18

>  <SCORE>  (14) 
-15.500

>  <name>  (14) 
13

>  <ligand_id>  (14) 
13

>  <original_smiles>  (14) 
[H]c1c([H])c([H])c2c(c1[H])C([H])([H])C([H])([H])C([H])([H])C2([H])N([H])C(=O)C1([H])N(C(=O)C([H])(N([H])C(=O)C([H])(N([H])C([H])([H])[H])C([H])([H])[H])C(C([H])([H])[H])(C([H])([H])[H])C([H])([H])[H])C([H])([H])c2c([H])c(OC([H])([H])c3c([H])c(N([H])C(=O)N4C([H])([H])C([H])([H])C([H])([H])C([H])(n5nc(-c6c([H])c([H])c(Oc7c([H])c([H])c(F)c([H])c7F)c([H])c6[H])c(C(=O)N([H])[H])c5N([H])[H])C4([H])[H])nc(C4([H])C([H])([H])C4([H])[H])c3C([H])([H])C([H])([H])[H])c([H])c([H])c2C1([H])[H]

>  <smiles>  (14) 
[H]c1c([H])c([H])c2c(c1[H])C([H])([H])C([H])([H])C([H])([H])C2([H])N([H])C(=O)C1([H])N(C(=O)C([H])(N([H])C(=O)C([H])(N([H])C([H])([H])[H])C([H])([H])[H])C(C([H])([H])[H])(C([H])([H])[H])C([H])([H])[H])C([H])([H])c2c([H])c(OC([H])([H])c3c([H])c(N([H])C(=O)N4C([H])([H])C([H])([H])C([H])([H])C([H])(n5nc(-c6c([H])c([H])c(Oc7c([H])c([H])c(F)c([H])c7F)c([H])c6[H])c(C(=O)N([H])[H])c5N([H])[H])C4([H])[H])nc(C4([H])C([H])([H])C4([H])[H])c3C([H])([H])C([H])([H])[H])c([H])c([H])c2C1([H])[H]

$$$$
14:0:0
     RDKit          3D

 91100  0  0  1  0  0  0  0  0999 V2000
  -29.1340  -20.9070   20.5650 C   0  0  0  0  0  3  0  0  0  0  0  0
  -29.7880  -19.7000   20.0490 C   0  0  0  0  0  0  0  0  0  0  0  0
  -29.4210  -22.2630   20.0820 C   0  0  0  0  0  0  0  0  0  0  0  0
  -30.7250  -19.9710   19.0190 C   0  0  0  0  0  0  0  0  0  0  0  0
  -30.3920  -22.3080   19.0550 C   0  0  0  0  0  0  0  0  0  0  0  0
  -31.5460  -18.8980   18.3260 C   0  0  0  0  0  1  0  0  0  0  0  0
  -30.9040  -23.6090   18.4590 C   0  0  0  0  0  1  0  0  0  0  0  0
  -30.9900  -21.2100   18.5510 N   0  0  0  0  0  0  0  0  0  0  0  0
  -30.5930  -14.8090   20.3860 C   0  0  0  0  0  0  0  0  0  0  0  0
  -30.3800  -12.5230   19.3780 C   0  0  0  0  0  2  0  0  0  0  0  0
  -29.4500  -12.5760   18.1450 C   0  0  0  0  0  2  0  0  0  0  0  0
  -27.9800  -12.3980   18.5690 C   0  0  0  0  0  2  0  0  0  0  0  0
  -27.5980  -13.2910   19.7810 C   0  0  0  0  0  3  0  0  0  0  0  0
  -28.6520  -13.2320   20.9070 C   0  0  0  0  0  2  0  0  0  0  0  0
  -29.9440  -13.5910   20.3130 N   0  0  0  0  0  0  0  0  0  0  0  0
  -31.7780  -14.8720   20.0490 O   0  0  0  0  0  0  0  0  0  0  0  0
  -29.3000  -16.8970   19.6520 C   0  0  0  0  0  2  0  0  0  0  0  0
  -30.5240  -17.2160   21.2770 C   0  0  0  0  0  2  0  0  0  0  0  0
  -29.5300  -18.1730   20.5400 C   0  0  0  0  0  3  0  0  0  0  0  0
  -29.8850  -15.9830   20.6890 N   0  0  0  0  0  0  0  0  0  0  0  0
  -25.2120  -13.8750   20.5090 C   0  0  0  0  0  0  0  0  0  0  0  0
  -24.1460  -13.1010   20.8780 C   0  0  0  0  0  0  0  0  0  0  0  0
  -24.6100  -11.7490   20.8490 C   0  0  0  0  0  0  0  0  0  0  0  0
  -26.2560  -12.9960   20.2730 N   0  0  0  0  0  0  0  0  0  0  0  0
  -25.9010  -11.7130   20.5430 N   0  0  0  0  0  0  0  0  0  0  0  0
  -23.8840  -10.4870   21.0400 C   0  0  0  0  0  0  0  0  0  0  0  0
  -24.3170   -9.5200   21.9730 C   0  0  0  0  0  3  0  0  0  0  0  0
  -23.5920   -8.3220   22.1530 C   0  0  0  0  0  3  0  0  0  0  0  0
  -22.4160   -8.0850   21.4010 C   0  0  0  0  0  0  0  0  0  0  0  0
  -22.0030   -9.0410   20.4570 C   0  0  0  0  0  3  0  0  0  0  0  0
  -22.7280  -10.2290   20.2750 C   0  0  0  0  0  3  0  0  0  0  0  0
  -21.6620   -6.9400   21.4890 O   0  0  0  0  0  0  0  0  0  0  0  0
  -21.6180   -6.1950   22.6410 C   0  0  0  0  0  0  0  0  0  0  0  0
  -21.2020   -6.7490   23.8710 C   0  0  0  0  0  3  0  0  0  0  0  0
  -21.1050   -5.9310   25.0140 C   0  0  0  0  0  3  0  0  0  0  0  0
  -21.4120   -4.5590   24.9270 C   0  0  0  0  0  0  0  0  0  0  0  0
  -21.8190   -4.0050   23.7020 C   0  0  0  0  0  3  0  0  0  0  0  0
  -21.9190   -4.8210   22.5610 C   0  0  0  0  0  0  0  0  0  0  0  0
  -22.2920   -4.2770   21.3770 F   0  0  0  0  0  0  0  0  0  0  0  0
  -21.3100   -3.7710   26.0240 F   0  0  0  0  0  0  0  0  0  0  0  0
  -22.7470  -13.5770   21.1460 C   0  0  0  0  0  0  0  0  0  0  0  0
  -22.0180  -12.8820   22.0090 N   0  0  0  0  0  0  0  0  0  0  0  0
  -22.3110  -14.6010   20.6220 O   0  0  0  0  0  0  0  0  0  0  0  0
  -22.3830  -12.0530   22.4570 H   0  0  0  0  0  0  0  0  0  0  0  0
  -21.0770  -13.1790   22.2250 H   0  0  0  0  0  0  0  0  0  0  0  0
  -25.3780  -15.2460   20.3320 N   0  0  0  0  0  0  0  0  0  0  0  0
  -24.6180  -15.9080   20.4470 H   0  0  0  0  0  0  0  0  0  0  0  0
  -26.2440  -15.6820   20.0420 H   0  0  0  0  0  0  0  0  0  0  0  0
  -28.9030  -23.6520   20.7280 C   0  0  0  0  0  2  0  0  0  0  0  0
  -28.1520  -24.8570   19.9050 C   0  0  0  0  0  2  0  0  0  0  0  0
  -28.2780  -26.3270   20.2780 O   0  0  0  0  0  0  0  0  0  0  0  0
  -24.6080  -31.8840   23.2300 C   0  0  0  0  0  0  0  0  0  0  0  0
  -27.1890  -27.2410   20.1830 C   0  0  0  0  0  0  0  0  0  0  0  0
  -23.4010  -30.4870   21.5950 C   0  0  0  0  0  3  0  0  0  0  0  0
  -24.8460  -28.9260   20.1630 C   0  0  0  0  0  0  0  0  0  0  0  0
  -25.9490  -30.7690   21.4240 C   0  0  0  0  0  2  0  0  0  0  0  0
  -26.0190  -29.3860   20.7720 C   0  0  0  0  0  0  0  0  0  0  0  0
  -27.1900  -28.5540   20.7750 C   0  0  0  0  0  3  0  0  0  0  0  0
  -25.9990  -26.8720   19.5150 C   0  0  0  0  0  3  0  0  0  0  0  0
  -24.8450  -27.6790   19.5200 C   0  0  0  0  0  3  0  0  0  0  0  0
  -23.6160  -29.8120   20.2140 C   0  0  0  0  0  2  0  0  0  0  0  0
  -24.6710  -31.0670   22.1380 N   0  0  0  0  0  0  0  0  0  0  0  0
  -23.5250  -32.1680   23.7640 O   0  0  0  0  0  0  0  0  0  0  0  0
  -22.7320  -29.4750   22.5570 C   0  0  0  0  0  0  0  0  0  0  0  0
  -21.4050  -29.3000   22.4340 N   0  0  0  0  0  0  0  0  0  0  0  0
  -23.4080  -28.8510   23.3800 O   0  0  0  0  0  0  0  0  0  0  0  0
  -20.9170  -29.8600   21.7490 H   0  0  0  0  0  0  0  0  0  0  0  0
  -18.0280  -28.0980   22.9400 C   0  0  0  0  0  0  0  0  0  0  0  0
  -20.5850  -28.3660   23.2100 C   0  0  0  0  0  3  0  0  0  0  0  0
  -20.6900  -26.9300   22.6460 C   0  0  0  0  0  2  0  0  0  0  0  0
  -19.5920  -26.5980   21.6320 C   0  0  0  0  0  2  0  0  0  0  0  0
  -18.2080  -26.7450   22.2730 C   0  0  0  0  0  2  0  0  0  0  0  0
  -19.1440  -28.8660   23.3650 C   0  0  0  0  0  0  0  0  0  0  0  0
  -18.9210  -30.1300   23.9510 C   0  0  0  0  0  3  0  0  0  0  0  0
  -17.6140  -30.6290   24.1120 C   0  0  0  0  0  3  0  0  0  0  0  0
  -16.5130  -29.8590   23.7010 C   0  0  0  0  0  3  0  0  0  0  0  0
  -16.7200  -28.5950   23.1220 C   0  0  0  0  0  3  0  0  0  0  0  0
  -25.8920  -32.5190   23.8500 C   0  0  0  0  0  3  0  0  0  0  0  0
  -25.5830  -33.9180   24.1800 N   0  0  0  0  0  0  0  0  0  0  0  0
  -25.9110  -34.9730   23.4220 C   0  0  0  0  0  0  0  0  0  0  0  0
  -26.5750  -34.8700   22.3870 O   0  0  0  0  0  0  0  0  0  0  0  0
  -24.9940  -34.0720   24.9850 H   0  0  0  0  0  0  0  0  0  0  0  0
  -24.1830  -36.7700   23.0770 C   0  0  0  0  0  1  0  0  0  0  0  0
  -25.4270  -36.3620   23.8830 C   0  0  0  0  0  3  0  0  0  0  0  0
  -27.5660  -37.2430   24.7080 C   0  0  0  0  0  1  0  0  0  0  0  0
  -26.4590  -37.4140   23.7690 N   0  0  0  0  0  0  0  0  0  0  0  0
  -26.0550  -38.3350   23.9200 H   0  0  0  0  0  0  0  0  0  0  0  0
  -26.4100  -31.7520   25.1290 C   0  0  1  0  0  0  0  0  0  0  0  0
  -25.3190  -31.5200   26.2000 C   0  0  0  0  0  1  0  0  0  0  0  0
  -26.9930  -30.3720   24.7460 C   0  0  0  0  0  1  0  0  0  0  0  0
  -27.5640  -32.5480   25.7850 C   0  0  0  0  0  1  0  0  0  0  0  0
  2  1  2  0
  3  1  1  0
  3 49  1  0
  4  2  1  0
  5  3  2  0
  6  4  1  0
  7  5  1  0
  8  4  2  0
  8  5  1  0
  9 20  1  0
 10 15  1  0
 11 12  1  0
 11 10  1  0
 13 12  1  0
 13 24  1  0
 13 14  1  0
 15  9  1  0
 15 14  1  0
 16  9  2  0
 17 19  1  0
 17 20  1  0
 19  2  1  0
 19 18  1  0
 20 18  1  0
 21 22  2  0
 22 41  1  0
 23 22  1  0
 23 26  1  0
 24 21  1  0
 24 25  1  0
 25 23  2  0
 26 27  1  0
 27 28  2  0
 29 32  1  0
 29 28  1  0
 30 29  2  0
 31 30  1  0
 31 26  2  0
 32 33  1  0
 33 34  1  0
 34 35  2  0
 36 35  1  0
 36 40  1  0
 37 36  2  0
 38 33  2  0
 38 37  1  0
 39 38  1  0
 41 42  1  0
 42 45  1  0
 42 44  1  0
 43 41  2  0
 46 47  1  0
 46 21  1  0
 48 46  1  0
 50 51  1  0
 50 49  1  0
 52 63  2  0
 53 51  1  0
 53 58  1  0
 54 62  1  0
 54 64  1  0
 55 61  1  0
 55 57  1  0
 56 62  1  0
 57 58  2  0
 57 56  1  0
 59 60  1  0
 59 53  2  0
 60 55  2  0
 61 54  1  0
 62 52  1  0
 64 66  2  0
 65 64  1  0
 67 65  1  0
 68 77  2  0
 68 73  1  0
 69 65  1  0
 69 73  1  0
 70 69  1  0
 71 72  1  0
 71 70  1  0
 72 68  1  0
 73 74  2  0
 74 75  1  0
 76 75  2  0
 77 76  1  0
 78 52  1  0
 78 79  1  0
 78 88  1  0
 79 82  1  0
 80 84  1  0
 80 79  1  0
 81 80  2  0
 84 83  1  0
 86 84  1  0
 86 87  1  0
 86 85  1  0
 88 91  1  1
 88 89  1  0
 90 88  1  0
M  ISO  4   9 100  20 100  50 101  51 101
M  END
>  <TORSDO>  (15) 
F 18

>  <SCORE>  (15) 
-14.798

>  <name>  (15) 
14

>  <ligand_id>  (15) 
14

>  <original_smiles>  (15) 
[H]c1c([H])c([H])c2c(c1[H])C([H])([H])C([H])([H])C([H])([H])C2([H])N([H])C(=O)C1([H])N(C(=O)C([H])(N([H])C(=O)C([H])(N([H])C([H])([H])[H])C([H])([H])[H])C(C([H])([H])[H])(C([H])([H])[H])C([H])([H])[H])C([H])([H])c2c([H])c(OC([H])([H])C([H])([H])c3c(C([H])([H])[H])nc(C([H])([H])[H])c(C4([H])C([H])([H])N(C(=O)N5C([H])([H])C([H])([H])C([H])([H])C([H])(n6nc(-c7c([H])c([H])c(Oc8c([H])c([H])c(F)c([H])c8F)c([H])c7[H])c(C(=O)N([H])[H])c6N([H])[H])C5([H])[H])C4([H])[H])c3[H])c([H])c([H])c2C1([H])[H]

>  <smiles>  (15) 
[H]c1c([H])c([H])c2c(c1[H])C([H])([H])C([H])([H])C([H])([H])C2([H])N([H])C(=O)C1([H])N(C(=O)C([H])(N([H])C(=O)C([H])(N([H])C([H])([H])[H])C([H])([H])[H])C(C([H])([H])[H])(C([H])([H])[H])C([H])([H])[H])C([H])([H])c2c([H])c(OC([H])([H])C([H])([H])c3c(C([H])([H])[H])nc(C([H])([H])[H])c(C4([H])C([H])([H])N(C(=O)N5C([H])([H])C([H])([H])C([H])([H])C([H])(n6nc(-c7c([H])c([H])c(Oc8c([H])c([H])c(F)c([H])c8F)c([H])c7[H])c(C(=O)N([H])[H])c6N([H])[H])C5([H])[H])C4([H])[H])c3[H])c([H])c([H])c2C1([H])[H]

$$$$
15:0:0
     RDKit          3D

 92102  0  0  1  0  0  0  0  0999 V2000
  -29.7490  -21.1680   21.9530 C   0  0  0  0  0  3  0  0  0  0  0  0
  -29.5540  -20.6830   19.5410 C   0  0  0  0  0  3  0  0  0  0  0  0
  -29.7160  -20.2100   20.8910 C   0  0  0  0  0  0  0  0  0  0  0  0
  -29.5680  -22.4940   21.5370 C   0  0  0  0  0  0  0  0  0  0  0  0
  -29.3820  -22.8550   20.1780 C   0  0  0  0  0  0  0  0  0  0  0  0
  -29.6250  -23.9370   21.9900 C   0  0  0  0  0  2  0  0  0  0  0  0
  -29.4700  -24.3690   20.4400 C   0  0  0  0  0  3  0  0  0  0  0  0
  -29.4150  -21.9950   19.1470 N   0  0  0  0  0  0  0  0  0  0  0  0
  -30.7570  -14.6560   20.1230 C   0  0  0  0  0  0  0  0  0  0  0  0
  -30.3600  -12.5010   18.9470 C   0  0  0  0  0  2  0  0  0  0  0  0
  -29.3660  -12.6690   17.7800 C   0  0  0  0  0  2  0  0  0  0  0  0
  -27.9230  -12.4700   18.2780 C   0  0  0  0  0  2  0  0  0  0  0  0
  -27.6250  -13.3100   19.5430 C   0  0  0  0  0  3  0  0  0  0  0  0
  -28.7390  -13.1440   20.6120 C   0  0  0  0  0  2  0  0  0  0  0  0
  -30.0220  -13.5010   19.9890 N   0  0  0  0  0  0  0  0  0  0  0  0
  -31.8550  -14.7440   19.5650 O   0  0  0  0  0  0  0  0  0  0  0  0
  -28.8580  -17.7510   20.5300 C   0  0  0  0  0  2  0  0  0  0  0  0
  -31.2530  -18.0930   21.0390 C   0  0  0  0  0  2  0  0  0  0  0  0
  -28.9780  -16.2860   21.0430 C   0  0  0  0  0  2  0  0  0  0  0  0
  -31.3210  -16.6200   21.5510 C   0  0  0  0  0  2  0  0  0  0  0  0
  -29.8480  -18.6990   21.2350 C   0  0  0  0  0  3  0  0  0  0  0  0
  -30.3370  -15.7070   20.9150 N   0  0  0  0  0  0  0  0  0  0  0  0
  -25.2720  -13.9100   20.3850 C   0  0  0  0  0  0  0  0  0  0  0  0
  -24.2250  -13.1320   20.7980 C   0  0  0  0  0  0  0  0  0  0  0  0
  -24.6890  -11.7820   20.7320 C   0  0  0  0  0  0  0  0  0  0  0  0
  -26.3040  -13.0320   20.0910 N   0  0  0  0  0  0  0  0  0  0  0  0
  -25.9620  -11.7480   20.3630 N   0  0  0  0  0  0  0  0  0  0  0  0
  -23.9770  -10.5160   20.9400 C   0  0  0  0  0  0  0  0  0  0  0  0
  -24.4360   -9.5570   21.8690 C   0  0  0  0  0  3  0  0  0  0  0  0
  -23.7240   -8.3530   22.0620 C   0  0  0  0  0  3  0  0  0  0  0  0
  -22.5420   -8.1020   21.3270 C   0  0  0  0  0  0  0  0  0  0  0  0
  -22.1040   -9.0500   20.3860 C   0  0  0  0  0  3  0  0  0  0  0  0
  -22.8160  -10.2450   20.1910 C   0  0  0  0  0  3  0  0  0  0  0  0
  -21.8000   -6.9500   21.4310 O   0  0  0  0  0  0  0  0  0  0  0  0
  -21.7480   -6.2310   22.5980 C   0  0  0  0  0  0  0  0  0  0  0  0
  -21.2960   -6.8040   23.8060 C   0  0  0  0  0  3  0  0  0  0  0  0
  -21.1920   -6.0100   24.9670 C   0  0  0  0  0  3  0  0  0  0  0  0
  -21.5320   -4.6450   24.9190 C   0  0  0  0  0  0  0  0  0  0  0  0
  -21.9780   -4.0720   23.7150 C   0  0  0  0  0  3  0  0  0  0  0  0
  -22.0830   -4.8620   22.5570 C   0  0  0  0  0  0  0  0  0  0  0  0
  -22.4940   -4.3010   21.3940 F   0  0  0  0  0  0  0  0  0  0  0  0
  -21.4250   -3.8800   26.0300 F   0  0  0  0  0  0  0  0  0  0  0  0
  -22.8410  -13.6020   21.1380 C   0  0  0  0  0  0  0  0  0  0  0  0
  -22.1540  -12.8930   22.0270 N   0  0  0  0  0  0  0  0  0  0  0  0
  -22.3760  -14.6320   20.6510 O   0  0  0  0  0  0  0  0  0  0  0  0
  -22.5430  -12.0590   22.4430 H   0  0  0  0  0  0  0  0  0  0  0  0
  -21.2280  -13.1890   22.2990 H   0  0  0  0  0  0  0  0  0  0  0  0
  -25.4220  -15.2840   20.2110 N   0  0  0  0  0  0  0  0  0  0  0  0
  -24.6550  -15.9310   20.3620 H   0  0  0  0  0  0  0  0  0  0  0  0
  -26.2460  -15.7290   19.8290 H   0  0  0  0  0  0  0  0  0  0  0  0
  -28.2650  -25.2350   19.9850 C   0  0  0  0  0  2  0  0  0  0  0  0
  -28.4040  -26.6720   20.2110 O   0  0  0  0  0  0  0  0  0  0  0  0
  -24.6180  -31.9380   23.2410 C   0  0  0  0  0  0  0  0  0  0  0  0
  -27.2500  -27.4500   20.1630 C   0  0  0  0  0  0  0  0  0  0  0  0
  -23.4120  -30.5400   21.5990 C   0  0  0  0  0  3  0  0  0  0  0  0
  -24.8650  -29.0040   20.1680 C   0  0  0  0  0  0  0  0  0  0  0  0
  -25.9440  -30.8840   21.4060 C   0  0  0  0  0  2  0  0  0  0  0  0
  -26.0280  -29.5120   20.7590 C   0  0  0  0  0  0  0  0  0  0  0  0
  -27.2230  -28.7450   20.7500 C   0  0  0  0  0  3  0  0  0  0  0  0
  -26.0630  -26.9790   19.5530 C   0  0  0  0  0  3  0  0  0  0  0  0
  -24.8800  -27.7400   19.5590 C   0  0  0  0  0  3  0  0  0  0  0  0
  -23.6230  -29.8680   20.2170 C   0  0  0  0  0  2  0  0  0  0  0  0
  -24.6770  -31.1360   22.1390 N   0  0  0  0  0  0  0  0  0  0  0  0
  -23.5360  -32.2110   23.7800 O   0  0  0  0  0  0  0  0  0  0  0  0
  -22.7580  -29.5180   22.5560 C   0  0  0  0  0  0  0  0  0  0  0  0
  -21.4330  -29.3360   22.4280 N   0  0  0  0  0  0  0  0  0  0  0  0
  -23.4390  -28.8920   23.3730 O   0  0  0  0  0  0  0  0  0  0  0  0
  -20.9440  -29.8940   21.7420 H   0  0  0  0  0  0  0  0  0  0  0  0
  -18.0540  -28.1580   22.9400 C   0  0  0  0  0  0  0  0  0  0  0  0
  -20.6150  -28.3970   23.1970 C   0  0  0  0  0  3  0  0  0  0  0  0
  -20.7050  -26.9710   22.6080 C   0  0  0  0  0  2  0  0  0  0  0  0
  -19.5940  -26.6620   21.5990 C   0  0  0  0  0  2  0  0  0  0  0  0
  -18.2170  -26.8120   22.2530 C   0  0  0  0  0  2  0  0  0  0  0  0
  -19.1800  -28.9090   23.3690 C   0  0  0  0  0  0  0  0  0  0  0  0
  -18.9730  -30.1690   23.9710 C   0  0  0  0  0  3  0  0  0  0  0  0
  -17.6740  -30.6780   24.1480 C   0  0  0  0  0  3  0  0  0  0  0  0
  -16.5620  -29.9240   23.7370 C   0  0  0  0  0  3  0  0  0  0  0  0
  -16.7530  -28.6650   23.1380 C   0  0  0  0  0  3  0  0  0  0  0  0
  -25.9030  -32.5680   23.8620 C   0  0  0  0  0  3  0  0  0  0  0  0
  -25.5930  -33.9650   24.1970 N   0  0  0  0  0  0  0  0  0  0  0  0
  -25.9160  -35.0200   23.4350 C   0  0  0  0  0  0  0  0  0  0  0  0
  -26.5770  -34.9180   22.3980 O   0  0  0  0  0  0  0  0  0  0  0  0
  -25.0060  -34.1180   25.0030 H   0  0  0  0  0  0  0  0  0  0  0  0
  -24.1780  -36.8060   23.0990 C   0  0  0  0  0  1  0  0  0  0  0  0
  -25.4290  -36.4060   23.8980 C   0  0  0  0  0  3  0  0  0  0  0  0
  -27.5660  -37.3000   24.7100 C   0  0  0  0  0  1  0  0  0  0  0  0
  -26.4570  -37.4630   23.7740 N   0  0  0  0  0  0  0  0  0  0  0  0
  -26.0480  -38.3810   23.9220 H   0  0  0  0  0  0  0  0  0  0  0  0
  -26.4230  -31.7930   25.1350 C   0  0  1  0  0  0  0  0  0  0  0  0
  -25.3300  -31.5400   26.1990 C   0  0  0  0  0  1  0  0  0  0  0  0
  -27.0180  -30.4230   24.7340 C   0  0  0  0  0  1  0  0  0  0  0  0
  -27.5660  -32.5920   25.8050 C   0  0  0  0  0  1  0  0  0  0  0  0
  2  3  1  0
  3  1  2  0
  4  1  1  0
  4  6  1  0
  5  7  1  0
  5  4  2  0
  7 51  1  0
  7  6  1  0
  8  2  2  0
  8  5  1  0
  9 22  1  0
 10 15  1  0
 11 12  1  0
 11 10  1  0
 13 12  1  0
 13 26  1  0
 13 14  1  0
 15  9  1  0
 15 14  1  0
 16  9  2  0
 17 19  1  0
 17 21  1  0
 18 21  1  0
 18 20  1  0
 21  3  1  0
 22 19  1  0
 22 20  1  0
 23 24  2  0
 24 43  1  0
 25 24  1  0
 25 28  1  0
 26 27  1  0
 26 23  1  0
 27 25  2  0
 28 29  1  0
 29 30  2  0
 31 34  1  0
 31 30  1  0
 32 31  2  0
 33 32  1  0
 33 28  2  0
 34 35  1  0
 35 36  1  0
 36 37  2  0
 38 37  1  0
 38 42  1  0
 39 38  2  0
 40 35  2  0
 40 39  1  0
 41 40  1  0
 43 44  1  0
 44 47  1  0
 44 46  1  0
 45 43  2  0
 48 49  1  0
 48 23  1  0
 50 48  1  0
 51 52  1  0
 53 64  2  0
 54 52  1  0
 54 59  1  0
 55 63  1  0
 55 65  1  0
 56 62  1  0
 56 58  1  0
 57 63  1  0
 58 57  1  0
 59 58  2  0
 60 61  1  0
 60 54  2  0
 61 56  2  0
 62 55  1  0
 63 53  1  0
 65 67  2  0
 66 65  1  0
 68 66  1  0
 69 78  2  0
 69 74  1  0
 70 66  1  0
 70 74  1  0
 71 70  1  0
 72 73  1  0
 72 71  1  0
 73 69  1  0
 74 75  2  0
 75 76  1  0
 77 76  2  0
 78 77  1  0
 79 53  1  0
 79 80  1  0
 79 89  1  0
 80 83  1  0
 81 85  1  0
 81 80  1  0
 82 81  2  0
 85 84  1  0
 87 85  1  0
 87 88  1  0
 87 86  1  0
 89 92  1  1
 89 90  1  0
 91 89  1  0
M  ISO  4   9 100  22 100  51 101  52 101
M  END
>  <TORSDO>  (16) 
F 17

>  <SCORE>  (16) 
-15.162

>  <name>  (16) 
15

>  <ligand_id>  (16) 
15

>  <original_smiles>  (16) 
[H]c1nc2c(c([H])c1C1([H])C([H])([H])C([H])([H])N(C(=O)N3C([H])([H])C([H])([H])C([H])([H])C([H])(n4nc(-c5c([H])c([H])c(Oc6c([H])c([H])c(F)c([H])c6F)c([H])c5[H])c(C(=O)N([H])[H])c4N([H])[H])C3([H])[H])C([H])([H])C1([H])[H])C([H])([H])C2([H])C([H])([H])Oc1c([H])c([H])c2c(c1[H])C([H])([H])N(C(=O)C([H])(N([H])C(=O)C([H])(N([H])C([H])([H])[H])C([H])([H])[H])C(C([H])([H])[H])(C([H])([H])[H])C([H])([H])[H])C([H])(C(=O)N([H])C1([H])c3c([H])c([H])c([H])c([H])c3C([H])([H])C([H])([H])C1([H])[H])C2([H])[H]

>  <smiles>  (16) 
[H]c1nc2c(c([H])c1C1([H])C([H])([H])C([H])([H])N(C(=O)N3C([H])([H])C([H])([H])C([H])([H])C([H])(n4nc(-c5c([H])c([H])c(Oc6c([H])c([H])c(F)c([H])c6F)c([H])c5[H])c(C(=O)N([H])[H])c4N([H])[H])C3([H])[H])C([H])([H])C1([H])[H])C([H])([H])C2([H])C([H])([H])Oc1c([H])c([H])c2c(c1[H])C([H])([H])N(C(=O)C([H])(N([H])C(=O)C([H])(N([H])C([H])([H])[H])C([H])([H])[H])C(C([H])([H])[H])(C([H])([H])[H])C([H])([H])[H])C([H])(C(=O)N([H])C1([H])c3c([H])c([H])c([H])c([H])c3C([H])([H])C([H])([H])C1([H])[H])C2([H])[H]

$$$$
16:0:0
     RDKit          3D

 83 88  0  0  1  0  0  0  0  0999 V2000
  -28.2610  -23.1870   19.8540 C   0  0  0  0  0 15  0  0  0  0  0  0
  -30.2520  -16.2280   19.7260 C   0  0  0  0  0  0  0  0  0  0  0  0
  -30.4160  -13.5740   18.8880 C   0  0  0  0  0  2  0  0  0  0  0  0
  -29.5010  -12.9570   17.7740 C   0  0  0  0  0  2  0  0  0  0  0  0
  -28.1660  -12.4810   18.3490 C   0  0  0  0  0  2  0  0  0  0  0  0
  -27.6610  -13.4840   19.4020 C   0  0  0  0  0  3  0  0  0  0  0  0
  -28.7310  -13.9960   20.4150 C   0  0  0  0  0  2  0  0  0  0  0  0
  -29.7680  -14.7810   19.6610 N   0  0  0  0  0  0  0  0  0  0  0  0
  -31.4580  -16.0740   19.4060 O   0  0  0  0  0  0  0  0  0  0  0  0
  -28.2560  -20.0130   21.0280 C   0  0  0  0  0  2  0  0  0  0  0  0
  -28.8500  -18.4100   21.0830 C   0  0  0  0  0  2  0  0  0  0  0  0
  -29.6050  -19.4860   19.3640 C   0  0  0  0  0  1  0  0  0  0  0  0
  -29.0110  -21.1790   20.1790 C   0  0  0  0  0  1  0  0  0  0  0  0
  -29.5640  -17.7600   19.8800 N   0  0  0  0  0  0  0  0  0  0  0  0
  -25.3950  -13.9270   20.4190 C   0  0  0  0  0  0  0  0  0  0  0  0
  -24.3780  -13.1200   20.8380 C   0  0  0  0  0  0  0  0  0  0  0  0
  -24.8450  -11.7770   20.6880 C   0  0  0  0  0  0  0  0  0  0  0  0
  -26.4120  -13.0810   20.0290 N   0  0  0  0  0  0  0  0  0  0  0  0
  -26.1030  -11.7720   20.2480 N   0  0  0  0  0  0  0  0  0  0  0  0
  -24.1320  -10.5030   20.8790 C   0  0  0  0  0  0  0  0  0  0  0  0
  -24.5680   -9.5420   21.8170 C   0  0  0  0  0  3  0  0  0  0  0  0
  -23.8490   -8.3410   22.0010 C   0  0  0  0  0  3  0  0  0  0  0  0
  -22.6770   -8.0900   21.2470 C   0  0  0  0  0  0  0  0  0  0  0  0
  -22.2600   -9.0390   20.2960 C   0  0  0  0  0  3  0  0  0  0  0  0
  -22.9800  -10.2300   20.1120 C   0  0  0  0  0  3  0  0  0  0  0  0
  -21.9330   -6.9400   21.3400 O   0  0  0  0  0  0  0  0  0  0  0  0
  -21.7830   -6.2670   22.5260 C   0  0  0  0  0  0  0  0  0  0  0  0
  -21.2210   -6.8870   23.6660 C   0  0  0  0  0  3  0  0  0  0  0  0
  -21.0240   -6.1410   24.8450 C   0  0  0  0  0  3  0  0  0  0  0  0
  -21.3760   -4.7780   24.8860 C   0  0  0  0  0  0  0  0  0  0  0  0
  -21.9280   -4.1600   23.7510 C   0  0  0  0  0  3  0  0  0  0  0  0
  -22.1270   -4.9020   22.5740 C   0  0  0  0  0  0  0  0  0  0  0  0
  -22.6410   -4.2950   21.4770 F   0  0  0  0  0  0  0  0  0  0  0  0
  -21.1790   -4.0610   26.0170 F   0  0  0  0  0  0  0  0  0  0  0  0
  -23.0130  -13.5770   21.2600 C   0  0  0  0  0  0  0  0  0  0  0  0
  -22.3690  -12.8390   22.1560 N   0  0  0  0  0  0  0  0  0  0  0  0
  -22.5310  -14.6240   20.8300 O   0  0  0  0  0  0  0  0  0  0  0  0
  -22.7760  -11.9930   22.5270 H   0  0  0  0  0  0  0  0  0  0  0  0
  -21.4580  -13.1270   22.4850 H   0  0  0  0  0  0  0  0  0  0  0  0
  -25.5380  -15.3070   20.3030 N   0  0  0  0  0  0  0  0  0  0  0  0
  -24.7860  -15.9500   20.5280 H   0  0  0  0  0  0  0  0  0  0  0  0
  -26.3600  -15.7680   19.9360 H   0  0  0  0  0  0  0  0  0  0  0  0
  -28.2060  -25.0900   20.2320 O   0  0  0  0  0  1  0  0  0  0  0  0
  -24.7420  -31.7650   23.1620 C   0  0  0  0  0  0  0  0  0  0  0  0
  -27.2780  -26.4540   20.1480 C   0  0  0  0  0  0  0  0  0  0  0  0
  -23.5790  -30.3830   21.4980 C   0  0  0  0  0  3  0  0  0  0  0  0
  -25.0400  -28.6930   20.0870 C   0  0  0  0  0  0  0  0  0  0  0  0
  -26.1730  -30.4350   21.4320 C   0  0  0  0  0  2  0  0  0  0  0  0
  -26.2350  -28.9780   20.7580 C   0  0  0  0  0  0  0  0  0  0  0  0
  -27.3170  -27.8970   20.7490 C   0  0  0  0  0  3  0  0  0  0  0  0
  -26.0490  -26.4690   19.4050 C   0  0  0  0  0  3  0  0  0  0  0  0
  -25.0080  -27.4690   19.3850 C   0  0  0  0  0  3  0  0  0  0  0  0
  -23.8440  -29.6800   20.1270 C   0  0  0  0  0  2  0  0  0  0  0  0
  -24.8600  -30.8980   22.0830 N   0  0  0  0  0  0  0  0  0  0  0  0
  -23.6370  -32.0720   23.6470 O   0  0  0  0  0  0  0  0  0  0  0  0
  -22.8280  -29.4200   22.4560 C   0  0  0  0  0  0  0  0  0  0  0  0
  -21.4930  -29.2820   22.3170 N   0  0  0  0  0  0  0  0  0  0  0  0
  -23.4630  -28.7910   23.3050 O   0  0  0  0  0  0  0  0  0  0  0  0
  -21.0240  -29.8360   21.6140 H   0  0  0  0  0  0  0  0  0  0  0  0
  -18.0980  -28.0500   22.7900 C   0  0  0  0  0  0  0  0  0  0  0  0
  -20.6560  -28.3370   23.0700 C   0  0  0  0  0  3  0  0  0  0  0  0
  -20.7670  -26.9090   22.4860 C   0  0  0  0  0  2  0  0  0  0  0  0
  -19.6780  -26.5890   21.4580 C   0  0  0  0  0  2  0  0  0  0  0  0
  -18.2900  -26.7150   22.0890 C   0  0  0  0  0  2  0  0  0  0  0  0
  -19.2070  -28.8200   23.2360 C   0  0  0  0  0  0  0  0  0  0  0  0
  -18.9680  -30.0620   23.8590 C   0  0  0  0  0  3  0  0  0  0  0  0
  -17.6550  -30.5430   24.0340 C   0  0  0  0  0  3  0  0  0  0  0  0
  -16.5630  -29.7740   23.5980 C   0  0  0  0  0  3  0  0  0  0  0  0
  -16.7850  -28.5290   22.9840 C   0  0  0  0  0  3  0  0  0  0  0  0
  -25.9870  -32.4220   23.8350 C   0  0  0  0  0  3  0  0  0  0  0  0
  -25.6580  -33.8280   24.1650 N   0  0  0  0  0  0  0  0  0  0  0  0
  -25.9880  -34.8990   23.4300 C   0  0  0  0  0  0  0  0  0  0  0  0
  -26.6530  -34.8090   22.3940 O   0  0  0  0  0  0  0  0  0  0  0  0
  -25.0730  -33.9730   24.9740 H   0  0  0  0  0  0  0  0  0  0  0  0
  -24.2560  -36.7080   23.1410 C   0  0  0  0  0  1  0  0  0  0  0  0
  -25.5180  -36.2900   23.9130 C   0  0  0  0  0  3  0  0  0  0  0  0
  -27.6690  -37.1810   24.7030 C   0  0  0  0  0  1  0  0  0  0  0  0
  -26.5470  -37.3450   23.7800 N   0  0  0  0  0  0  0  0  0  0  0  0
  -26.1410  -38.2620   23.9340 H   0  0  0  0  0  0  0  0  0  0  0  0
  -26.4430  -31.6720   25.1500 C   0  0  1  0  0  0  0  0  0  0  0  0
  -25.3050  -31.4630   26.1770 C   0  0  0  0  0  1  0  0  0  0  0  0
  -27.0330  -30.2830   24.8230 C   0  0  0  0  0  1  0  0  0  0  0  0
  -27.5710  -32.4710   25.8460 C   0  0  0  0  0  1  0  0  0  0  0  0
  2 14  1  0
  3  8  1  0
  4  5  1  0
  4  3  1  0
  6  5  1  0
  6 18  1  0
  6  7  1  0
  8  2  1  0
  8  7  1  0
  9  2  2  0
 10 11  1  0
 12 14  1  0
 13 10  1  0
 14 11  1  0
 15 16  2  0
 16 35  1  0
 17 16  1  0
 17 20  1  0
 18 19  1  0
 18 15  1  0
 19 17  2  0
 20 21  1  0
 21 22  2  0
 23 26  1  0
 23 22  1  0
 24 23  2  0
 25 24  1  0
 25 20  2  0
 26 27  1  0
 27 32  2  0
 27 28  1  0
 28 29  2  0
 29 30  1  0
 30 34  1  0
 31 30  2  0
 32 31  1  0
 33 32  1  0
 35 36  1  0
 36 39  1  0
 36 38  1  0
 37 35  2  0
 40 15  1  0
 40 41  1  0
 42 40  1  0
 44 55  2  0
 45 43  1  0
 45 50  1  0
 46 54  1  0
 46 56  1  0
 47 53  1  0
 47 49  1  0
 48 54  1  0
 49 48  1  0
 50 49  2  0
 51 45  2  0
 52 51  1  0
 52 47  2  0
 53 46  1  0
 54 44  1  0
 56 58  2  0
 57 56  1  0
 59 57  1  0
 60 69  2  0
 60 65  1  0
 61 57  1  0
 61 65  1  0
 62 61  1  0
 63 64  1  0
 63 62  1  0
 64 60  1  0
 65 66  2  0
 66 67  1  0
 68 67  2  0
 69 68  1  0
 70 44  1  0
 70 71  1  0
 70 80  1  0
 71 74  1  0
 72 76  1  0
 72 71  1  0
 73 72  2  0
 76 75  1  0
 78 76  1  0
 78 79  1  0
 78 77  1  0
 80 83  1  1
 80 81  1  0
 82 80  1  0
M  ISO  4   1 101   2 100  14 100  43 101
M  END
>  <TORSDO>  (17) 
F 16

>  <SCORE>  (17) 
-15.217

>  <name>  (17) 
16

>  <ligand_id>  (17) 
16

>  <original_smiles>  (17) 
[H]c1c([H])c([H])c2c(c1[H])C([H])([H])C([H])([H])C([H])([H])C2([H])N([H])C(=O)C1([H])N(C(=O)C([H])(N([H])C(=O)C([H])(N([H])C([H])([H])[H])C([H])([H])[H])C(C([H])([H])[H])(C([H])([H])[H])C([H])([H])[H])C([H])([H])c2c([H])c(OC([H])([H])C3([H])C([H])([H])N(C(=O)N4C([H])([H])C([H])([H])C([H])([H])C([H])(n5nc(-c6c([H])c([H])c(Oc7c([H])c([H])c(F)c([H])c7F)c([H])c6[H])c(C(=O)N([H])[H])c5N([H])[H])C4([H])[H])C([H])([H])C3([H])[H])c([H])c([H])c2C1([H])[H]

>  <smiles>  (17) 
[H]c1c([H])c([H])c2c(c1[H])C([H])([H])C([H])([H])C([H])([H])C2([H])N([H])C(=O)C1([H])N(C(=O)C([H])(N([H])C(=O)C([H])(N([H])C([H])([H])[H])C([H])([H])[H])C(C([H])([H])[H])(C([H])([H])[H])C([H])([H])[H])C([H])([H])c2c([H])c(OC([H])([H])C3([H])C([H])([H])N(C(=O)N4C([H])([H])C([H])([H])C([H])([H])C([H])(n5nc(-c6c([H])c([H])c(Oc7c([H])c([H])c(F)c([H])c7F)c([H])c6[H])c(C(=O)N([H])[H])c5N([H])[H])C4([H])[H])C([H])([H])C3([H])[H])c([H])c([H])c2C1([H])[H]

$$$$
17:0:0
     RDKit          3D

 91 92  0  0  1  0  0  0  0  0999 V2000
  -25.0540  -24.4370   19.7170 C   0  0  0  0  0  3  0  0  0  0  0  0
  -22.7130  -26.1910   19.1940 C   0  0  0  0  0  3  0  0  0  0  0  0
  -25.7490  -21.2090   19.3350 C   0  0  0  0  0  2  0  0  0  0  0  0
  -26.8090  -23.3670   20.0990 C   0  0  0  0  0  1  0  0  0  0  0  0
  -27.4760  -21.1600   19.6050 C   0  0  0  0  0  1  0  0  0  0  0  0
  -24.5650  -22.3530   18.6090 C   0  0  0  0  0  3  0  0  0  0  0  0
  -21.8310  -28.7630   17.7610 C   0  0  0  0  0 15  0  0  0  0  0  0
  -24.8780  -22.4720   17.1120 C   0  0  0  0  0  1  0  0  0  0  0  0
  -24.1740  -25.7650   19.8850 N   0  0  0  0  0  0  0  0  0  0  0  0
  -22.8020  -24.7560   18.7770 N   0  0  0  0  0  0  0  0  0  0  0  0
  -24.0820  -23.8270   19.0720 N   0  0  0  0  0  0  0  0  0  0  0  0
  -29.8870  -17.6740   19.6030 C   0  0  0  0  0  2  0  0  0  0  0  0
  -31.0000  -14.8980   19.0090 C   0  0  0  0  0  2  0  0  0  0  0  0
  -30.4870  -13.7200   18.0320 C   0  0  0  0  0  2  0  0  0  0  0  0
  -29.2230  -13.0410   18.5550 C   0  0  0  0  0  2  0  0  0  0  0  0
  -28.4670  -14.1420   19.2950 C   0  0  0  0  0  3  0  0  0  0  0  0
  -29.2450  -14.9600   20.3560 C   0  0  0  0  0  2  0  0  0  0  0  0
  -29.9530  -16.0400   19.5980 N   0  0  0  0  0  0  0  0  0  0  0  0
  -31.1780  -17.6330   19.4100 O   0  0  0  0  0  1  0  0  0  0  0  0
  -28.6510  -19.1500   19.6720 N   0  0  0  0  0  1  0  0  0  0  0  0
  -27.8580  -18.5550   19.8840 H   0  0  0  0  0  0  0  0  0  0  0  0
  -26.2290  -14.7450   20.1010 C   0  0  0  0  0  0  0  0  0  0  0  0
  -25.1650  -14.0240   20.5280 C   0  0  0  0  0  0  0  0  0  0  0  0
  -25.5670  -12.6510   20.4800 C   0  0  0  0  0  0  0  0  0  0  0  0
  -27.1930  -13.8100   19.8120 N   0  0  0  0  0  0  0  0  0  0  0  0
  -26.8350  -12.5410   20.1030 N   0  0  0  0  0  0  0  0  0  0  0  0
  -24.7880  -11.4360   20.7020 C   0  0  0  0  0  0  0  0  0  0  0  0
  -25.1480  -10.4930   21.6880 C   0  0  0  0  0  3  0  0  0  0  0  0
  -24.3550   -9.3450   21.8950 C   0  0  0  0  0  3  0  0  0  0  0  0
  -23.1920   -9.1380   21.1140 C   0  0  0  0  0  0  0  0  0  0  0  0
  -22.8560  -10.0670   20.1160 C   0  0  0  0  0  3  0  0  0  0  0  0
  -23.6490  -11.2060   19.9080 C   0  0  0  0  0  3  0  0  0  0  0  0
  -22.3720   -8.0430   21.2310 O   0  0  0  0  0  0  0  0  0  0  0  0
  -22.0960   -7.4800   22.4500 C   0  0  0  0  0  0  0  0  0  0  0  0
  -21.5130   -8.2220   23.5000 C   0  0  0  0  0  3  0  0  0  0  0  0
  -21.1820   -7.5860   24.7110 C   0  0  0  0  0  3  0  0  0  0  0  0
  -21.4230   -6.2080   24.8720 C   0  0  0  0  0  0  0  0  0  0  0  0
  -21.9990   -5.4660   23.8260 C   0  0  0  0  0  3  0  0  0  0  0  0
  -22.3320   -6.1010   22.6160 C   0  0  0  0  0  0  0  0  0  0  0  0
  -22.8680   -5.3780   21.6030 F   0  0  0  0  0  0  0  0  0  0  0  0
  -21.0970   -5.5940   26.0340 F   0  0  0  0  0  0  0  0  0  0  0  0
  -23.8210  -14.5880   20.8480 C   0  0  0  0  0  0  0  0  0  0  0  0
  -23.1130  -13.9750   21.7860 N   0  0  0  0  0  0  0  0  0  0  0  0
  -23.4180  -15.6140   20.2990 O   0  0  0  0  0  0  0  0  0  0  0  0
  -23.4610  -13.1490   22.2480 H   0  0  0  0  0  0  0  0  0  0  0  0
  -22.2060  -14.3360   22.0480 H   0  0  0  0  0  0  0  0  0  0  0  0
  -26.4550  -16.1080   19.9010 N   0  0  0  0  0  0  0  0  0  0  0  0
  -25.6750  -16.7560   19.9390 H   0  0  0  0  0  0  0  0  0  0  0  0
  -27.2120  -16.4310   19.3160 H   0  0  0  0  0  0  0  0  0  0  0  0
  -28.0070  -24.7870   20.1940 C   0  0  0  0  0  2  0  0  0  0  0  0
  -28.2990  -26.3200   20.8830 O   0  0  0  0  0  0  0  0  0  0  0  0
  -25.2050  -32.4710   23.5100 C   0  0  0  0  0  0  0  0  0  0  0  0
  -27.7190  -27.6390   20.5620 C   0  0  0  0  0  0  0  0  0  0  0  0
  -24.2270  -31.2040   21.6920 C   0  0  0  0  0  3  0  0  0  0  0  0
  -25.7530  -29.7390   20.2370 C   0  0  0  0  0  0  0  0  0  0  0  0
  -26.7690  -31.3780   21.8080 C   0  0  0  0  0  2  0  0  0  0  0  0
  -26.8430  -30.0050   21.0710 C   0  0  0  0  0  0  0  0  0  0  0  0
  -27.8530  -28.9590   21.2200 C   0  0  0  0  0  3  0  0  0  0  0  0
  -26.7640  -27.6190   19.5460 C   0  0  0  0  0  3  0  0  0  0  0  0
  -25.7710  -28.6030   19.4210 C   0  0  0  0  0  3  0  0  0  0  0  0
  -24.5710  -30.6960   20.2630 C   0  0  0  0  0  2  0  0  0  0  0  0
  -25.4230  -31.7460   22.3710 N   0  0  0  0  0  0  0  0  0  0  0  0
  -24.0600  -32.6960   23.9430 O   0  0  0  0  0  0  0  0  0  0  0  0
  -23.6830  -30.0720   22.5650 C   0  0  0  0  0  0  0  0  0  0  0  0
  -22.4220  -29.7850   22.4460 N   0  0  0  0  0  0  0  0  0  0  0  0
  -24.3990  -29.4260   23.3310 O   0  0  0  0  0  0  0  0  0  0  0  0
  -21.8170  -30.3640   21.8830 H   0  0  0  0  0  0  0  0  0  0  0  0
  -19.2900  -27.6560   23.2220 C   0  0  0  0  0  0  0  0  0  0  0  0
  -22.0890  -28.4010   22.6390 C   0  0  0  0  0  2  0  0  0  0  0  0
  -22.4170  -27.7050   20.6770 C   0  0  0  0  0 15  0  0  0  0  0  0
  -20.6390  -26.1810   20.2630 C   0  0  0  0  0 15  0  0  0  0  0  0
  -19.4670  -26.2060   22.0340 C   0  0  0  0  0  1  0  0  0  0  0  0
  -20.4970  -28.5750   23.5210 C   0  0  0  0  0  0  0  0  0  0  0  0
  -20.1810  -29.8810   24.1420 C   0  0  0  0  0  3  0  0  0  0  0  0
  -18.8840  -30.4120   24.4210 C   0  0  0  0  0  3  0  0  0  0  0  0
  -17.7730  -29.6380   24.0550 C   0  0  0  0  0  3  0  0  0  0  0  0
  -17.9900  -28.3350   23.4720 C   0  0  0  0  0  3  0  0  0  0  0  0
  -26.3890  -33.0640   24.3110 C   0  0  0  0  0  3  0  0  0  0  0  0
  -26.0990  -34.4910   24.5100 N   0  0  0  0  0  0  0  0  0  0  0  0
  -26.4430  -35.4600   23.6540 C   0  0  0  0  0  0  0  0  0  0  0  0
  -27.1150  -35.2450   22.6420 O   0  0  0  0  0  0  0  0  0  0  0  0
  -25.5030  -34.7290   25.2890 H   0  0  0  0  0  0  0  0  0  0  0  0
  -24.6780  -37.2020   23.2200 C   0  0  0  0  0  1  0  0  0  0  0  0
  -25.9790  -36.8930   23.9780 C   0  0  0  0  0  3  0  0  0  0  0  0
  -28.1900  -37.8260   24.4950 C   0  0  0  0  0  1  0  0  0  0  0  0
  -26.9940  -37.9230   23.6630 N   0  0  0  0  0  0  0  0  0  0  0  0
  -26.6060  -38.8550   23.7750 H   0  0  0  0  0  0  0  0  0  0  0  0
  -26.6170  -32.3490   25.6990 C   0  0  1  0  0  0  0  0  0  0  0  0
  -25.3170  -32.0900   26.4950 C   0  0  0  0  0  1  0  0  0  0  0  0
  -27.3290  -30.9890   25.5170 C   0  0  0  0  0  1  0  0  0  0  0  0
  -27.5500  -33.2190   26.5720 C   0  0  0  0  0  1  0  0  0  0  0  0
  1  9  2  0
  2  9  1  0
  3  5  1  0
  4 50  1  0
  6  8  1  0
  6 11  1  0
  6  3  1  0
 10 11  1  0
 10  2  2  0
 11  1  1  0
 13 18  1  0
 14 15  1  0
 14 13  1  0
 16 15  1  0
 16 25  1  0
 16 17  1  0
 18 12  1  0
 18 17  1  0
 19 12  1  0
 20 21  1  0
 22 23  2  0
 23 42  1  0
 24 23  1  0
 24 27  1  0
 25 22  1  0
 25 26  1  0
 26 24  2  0
 27 28  1  0
 28 29  2  0
 30 33  1  0
 30 29  1  0
 31 30  2  0
 32 31  1  0
 32 27  2  0
 33 34  1  0
 34 39  2  0
 34 35  1  0
 35 36  2  0
 36 37  1  0
 37 41  1  0
 38 37  2  0
 39 38  1  0
 40 39  1  0
 42 43  1  0
 43 46  1  0
 43 45  1  0
 44 42  2  0
 47 48  1  0
 47 22  1  0
 49 47  1  0
 50 51  1  0
 52 63  2  0
 53 51  1  0
 53 58  1  0
 54 62  1  0
 54 64  1  0
 55 61  1  0
 55 57  1  0
 56 62  1  0
 57 58  2  0
 57 56  1  0
 59 53  2  0
 60 59  1  0
 60 55  2  0
 61 54  1  0
 62 52  1  0
 64 66  2  0
 65 64  1  0
 65 69  1  0
 67 65  1  0
 68 77  2  0
 68 73  1  0
 69 73  1  0
 72 68  1  0
 73 74  2  0
 74 75  1  0
 76 75  2  0
 77 76  1  0
 78 52  1  0
 78 79  1  0
 78 88  1  0
 79 82  1  0
 80 84  1  0
 80 79  1  0
 81 80  2  0
 84 83  1  0
 86 87  1  0
 86 84  1  0
 86 85  1  0
 88 89  1  1
 88 91  1  0
 90 88  1  0
M  ISO  4  12 100  20 100  50 101  51 101
M  END
>  <TORSDO>  (18) 
F 17

>  <SCORE>  (18) 
-8.517

>  <name>  (18) 
17

>  <ligand_id>  (18) 
17

>  <original_smiles>  (18) 
[H]c1c([H])c([H])c2c(c1[H])C([H])([H])C([H])([H])C([H])([H])C2([H])N([H])C(=O)C1([H])N(C(=O)C([H])(N([H])C(=O)C([H])(N([H])C([H])([H])[H])C([H])([H])[H])C(C([H])([H])[H])(C([H])([H])[H])C([H])([H])[H])C([H])([H])c2c([H])c(OC([H])([H])C3([H])c4nc(C([H])([H])[H])nn4C([H])(C([H])([H])[H])C([H])([H])C3([H])N([H])C(=O)N3C([H])([H])C([H])([H])C([H])([H])C([H])(n4nc(-c5c([H])c([H])c(Oc6c([H])c([H])c(F)c([H])c6F)c([H])c5[H])c(C(=O)N([H])[H])c4N([H])[H])C3([H])[H])c([H])c([H])c2C1([H])[H]

>  <smiles>  (18) 
[H]c1c([H])c([H])c2c(c1[H])C([H])([H])C([H])([H])C([H])([H])C2([H])N([H])C(=O)C1([H])N(C(=O)C([H])(N([H])C(=O)C([H])(N([H])C([H])([H])[H])C([H])([H])[H])C(C([H])([H])[H])(C([H])([H])[H])C([H])([H])[H])C([H])([H])c2c([H])c(OC([H])([H])C3([H])c4nc(C([H])([H])[H])nn4C([H])(C([H])([H])[H])C([H])([H])C3([H])N([H])C(=O)N3C([H])([H])C([H])([H])C([H])([H])C([H])(n4nc(-c5c([H])c([H])c(Oc6c([H])c([H])c(F)c([H])c6F)c([H])c5[H])c(C(=O)N([H])[H])c4N([H])[H])C3([H])[H])c([H])c([H])c2C1([H])[H]

$$$$
18:0:0
     RDKit          3D

 88 96  0  0  1  0  0  0  0  0999 V2000
  -29.2780  -22.1710   21.2740 C   0  0  0  0  0  3  0  0  0  0  0  0
  -29.6910  -20.7480   21.3480 C   0  0  0  0  0  3  0  0  0  0  0  0
  -28.4870  -22.7760   20.2170 C   0  0  0  0  0  0  0  0  0  0  0  0
  -29.3600  -19.6960   20.4000 C   0  0  0  0  0  0  0  0  0  0  0  0
  -28.1990  -21.6480   19.3160 C   0  0  0  0  0  0  0  0  0  0  0  0
  -27.3090  -21.9030   18.1140 C   0  0  0  0  0  1  0  0  0  0  0  0
  -28.6120  -20.2840   19.3880 N   0  0  0  0  0  0  0  0  0  0  0  0
  -27.7320  -24.3500   20.1100 C   0  0  0  0  0  2  0  0  0  0  0  0
  -28.1310  -25.9150   20.3290 O   0  0  0  0  0  0  0  0  0  0  0  0
  -24.6250  -31.9110   23.2530 C   0  0  0  0  0  0  0  0  0  0  0  0
  -27.1440  -27.0280   20.2520 C   0  0  0  0  0  0  0  0  0  0  0  0
  -23.4190  -30.5190   21.6220 C   0  0  0  0  0  3  0  0  0  0  0  0
  -24.8550  -28.9090   20.2020 C   0  0  0  0  0  0  0  0  0  0  0  0
  -25.9870  -30.7190   21.4700 C   0  0  0  0  0  2  0  0  0  0  0  0
  -26.0470  -29.3110   20.8190 C   0  0  0  0  0  0  0  0  0  0  0  0
  -27.1880  -28.3910   20.8210 C   0  0  0  0  0  3  0  0  0  0  0  0
  -25.9220  -26.7780   19.5850 C   0  0  0  0  0  3  0  0  0  0  0  0
  -24.8170  -27.6620   19.5640 C   0  0  0  0  0  3  0  0  0  0  0  0
  -23.6420  -29.8330   20.2480 C   0  0  0  0  0  2  0  0  0  0  0  0
  -24.6990  -31.0760   22.1680 N   0  0  0  0  0  0  0  0  0  0  0  0
  -23.5390  -32.2100   23.7740 O   0  0  0  0  0  0  0  0  0  0  0  0
  -22.7210  -29.5300   22.5920 C   0  0  0  0  0  0  0  0  0  0  0  0
  -21.3910  -29.3680   22.4640 N   0  0  0  0  0  0  0  0  0  0  0  0
  -23.3830  -28.9080   23.4260 O   0  0  0  0  0  0  0  0  0  0  0  0
  -20.9120  -29.9210   21.7660 H   0  0  0  0  0  0  0  0  0  0  0  0
  -18.0020  -28.1740   22.9680 C   0  0  0  0  0  0  0  0  0  0  0  0
  -20.5620  -28.4390   23.2400 C   0  0  0  0  0  3  0  0  0  0  0  0
  -20.6630  -27.0020   22.6790 C   0  0  0  0  0  2  0  0  0  0  0  0
  -19.5640  -26.6710   21.6640 C   0  0  0  0  0  2  0  0  0  0  0  0
  -18.1800  -26.8210   22.3010 C   0  0  0  0  0  2  0  0  0  0  0  0
  -19.1200  -28.9400   23.3940 C   0  0  0  0  0  0  0  0  0  0  0  0
  -18.8970  -30.2050   23.9820 C   0  0  0  0  0  3  0  0  0  0  0  0
  -17.5900  -30.7040   24.1440 C   0  0  0  0  0  3  0  0  0  0  0  0
  -16.4880  -29.9350   23.7310 C   0  0  0  0  0  3  0  0  0  0  0  0
  -16.6940  -28.6720   23.1490 C   0  0  0  0  0  3  0  0  0  0  0  0
  -25.9020  -32.5470   23.8820 C   0  0  0  0  0  3  0  0  0  0  0  0
  -25.5950  -33.9500   24.2110 N   0  0  0  0  0  0  0  0  0  0  0  0
  -25.9090  -35.0050   23.4470 C   0  0  0  0  0  0  0  0  0  0  0  0
  -26.5540  -34.8990   22.4010 O   0  0  0  0  0  0  0  0  0  0  0  0
  -25.0180  -34.1050   25.0250 H   0  0  0  0  0  0  0  0  0  0  0  0
  -24.1660  -36.7980   23.1570 C   0  0  0  0  0  1  0  0  0  0  0  0
  -25.4400  -36.3970   23.9170 C   0  0  0  0  0  3  0  0  0  0  0  0
  -27.6030  -37.2960   24.6590 C   0  0  0  0  0  1  0  0  0  0  0  0
  -26.4650  -37.4520   23.7560 N   0  0  0  0  0  0  0  0  0  0  0  0
  -26.0620  -38.3730   23.9100 H   0  0  0  0  0  0  0  0  0  0  0  0
  -26.4030  -31.7840   25.1700 C   0  0  1  0  0  0  0  0  0  0  0  0
  -25.3010  -31.5650   26.2340 C   0  0  0  0  0  1  0  0  0  0  0  0
  -26.9790  -30.3980   24.8010 C   0  0  0  0  0  1  0  0  0  0  0  0
  -27.5560  -32.5750   25.8300 C   0  0  0  0  0  1  0  0  0  0  0  0
  -30.1120  -18.1290   20.3020 C   0  0  0  0  0  2  0  0  0  0  0  0
  -30.4140  -15.2720   20.2880 C   0  0  0  0  0  0  0  0  0  0  0  0
  -30.3530  -12.8540   19.3770 C   0  0  0  0  0  2  0  0  0  0  0  0
  -29.4170  -12.6760   18.1560 C   0  0  0  0  0  2  0  0  0  0  0  0
  -27.9730  -12.4050   18.6150 C   0  0  0  0  0  2  0  0  0  0  0  0
  -27.5380  -13.3540   19.7590 C   0  0  0  0  0  3  0  0  0  0  0  0
  -28.6010  -13.4840   20.8700 C   0  0  0  0  0  2  0  0  0  0  0  0
  -29.8270  -13.9820   20.2270 N   0  0  0  0  0  0  0  0  0  0  0  0
  -31.6280  -15.2710   20.0400 O   0  0  0  0  0  0  0  0  0  0  0  0
  -29.6820  -16.5420   20.4140 N   0  0  0  0  0  0  0  0  0  0  0  0
  -28.6920  -16.4170   20.5630 H   0  0  0  0  0  0  0  0  0  0  0  0
  -25.1730  -13.8920   20.5480 C   0  0  0  0  0  0  0  0  0  0  0  0
  -24.1210  -13.1040   20.9210 C   0  0  0  0  0  0  0  0  0  0  0  0
  -24.5970  -11.7580   20.8710 C   0  0  0  0  0  0  0  0  0  0  0  0
  -26.2190  -13.0270   20.2820 N   0  0  0  0  0  0  0  0  0  0  0  0
  -25.8850  -11.7360   20.5450 N   0  0  0  0  0  0  0  0  0  0  0  0
  -23.8800  -10.4880   21.0540 C   0  0  0  0  0  0  0  0  0  0  0  0
  -24.3190   -9.5170   21.9810 C   0  0  0  0  0  3  0  0  0  0  0  0
  -23.5990   -8.3150   22.1540 C   0  0  0  0  0  3  0  0  0  0  0  0
  -22.4250   -8.0760   21.4000 C   0  0  0  0  0  0  0  0  0  0  0  0
  -22.0050   -9.0360   20.4620 C   0  0  0  0  0  3  0  0  0  0  0  0
  -22.7270  -10.2280   20.2870 C   0  0  0  0  0  3  0  0  0  0  0  0
  -21.6750   -6.9280   21.4830 O   0  0  0  0  0  0  0  0  0  0  0  0
  -21.6220   -6.1850   22.6350 C   0  0  0  0  0  0  0  0  0  0  0  0
  -21.1670   -6.7320   23.8550 C   0  0  0  0  0  3  0  0  0  0  0  0
  -21.0630   -5.9150   24.9980 C   0  0  0  0  0  3  0  0  0  0  0  0
  -21.4030   -4.5520   24.9230 C   0  0  0  0  0  0  0  0  0  0  0  0
  -21.8510   -4.0030   23.7080 C   0  0  0  0  0  3  0  0  0  0  0  0
  -21.9570   -4.8180   22.5670 C   0  0  0  0  0  0  0  0  0  0  0  0
  -22.3690   -4.2800   21.3940 F   0  0  0  0  0  0  0  0  0  0  0  0
  -21.2960   -3.7640   26.0180 F   0  0  0  0  0  0  0  0  0  0  0  0
  -22.7240  -13.5690   21.2080 C   0  0  0  0  0  0  0  0  0  0  0  0
  -22.0080  -12.8640   22.0770 N   0  0  0  0  0  0  0  0  0  0  0  0
  -22.2740  -14.5940   20.6950 O   0  0  0  0  0  0  0  0  0  0  0  0
  -22.3840  -12.0340   22.5100 H   0  0  0  0  0  0  0  0  0  0  0  0
  -21.0720  -13.1600   22.3140 H   0  0  0  0  0  0  0  0  0  0  0  0
  -25.3220  -15.2660   20.3810 N   0  0  0  0  0  0  0  0  0  0  0  0
  -24.5470  -15.9100   20.5040 H   0  0  0  0  0  0  0  0  0  0  0  0
  -26.1530  -15.7130   20.0180 H   0  0  0  0  0  0  0  0  0  0  0  0
  1  2  1  0
  3  1  2  0
  4  2  2  0
  5  7  2  0
  5  3  1  0
  6  5  1  0
  7  4  1  0
  8  3  1  0
  8  9  1  0
 10 21  2  0
 11  9  1  0
 11 16  1  0
 12 20  1  0
 12 22  1  0
 13 19  1  0
 13 15  1  0
 14 20  1  0
 15 16  2  0
 15 14  1  0
 17 11  2  0
 18 17  1  0
 18 13  2  0
 19 12  1  0
 20 10  1  0
 22 24  2  0
 23 22  1  0
 25 23  1  0
 26 35  2  0
 26 31  1  0
 27 23  1  0
 27 31  1  0
 28 27  1  0
 29 30  1  0
 29 28  1  0
 30 26  1  0
 31 32  2  0
 32 33  1  0
 34 33  2  0
 35 34  1  0
 36 10  1  0
 36 37  1  0
 36 46  1  0
 37 40  1  0
 38 42  1  0
 38 37  1  0
 39 38  2  0
 42 41  1  0
 44 45  1  0
 44 42  1  0
 44 43  1  0
 46 49  1  1
 46 47  1  0
 48 46  1  0
 50  4  1  0
 50 59  1  0
 51 59  1  0
 52 57  1  0
 53 54  1  0
 53 52  1  0
 55 54  1  0
 55 64  1  0
 55 56  1  0
 57 51  1  0
 57 56  1  0
 58 51  2  0
 59 60  1  0
 61 62  2  0
 62 81  1  0
 63 62  1  0
 63 66  1  0
 64 65  1  0
 64 61  1  0
 65 63  2  0
 66 67  1  0
 67 68  2  0
 69 72  1  0
 69 68  1  0
 70 69  2  0
 71 70  1  0
 71 66  2  0
 72 73  1  0
 73 74  1  0
 74 75  2  0
 76 75  1  0
 76 80  1  0
 77 76  2  0
 78 73  2  0
 78 77  1  0
 79 78  1  0
 81 82  1  0
 82 85  1  0
 82 84  1  0
 83 81  2  0
 86 87  1  0
 86 61  1  0
 88 86  1  0
M  ISO  4   8 101   9 101  51 100  59 100
M  END
>  <TORSDO>  (19) 
F 18

>  <SCORE>  (19) 
-15.957

>  <name>  (19) 
18

>  <ligand_id>  (19) 
18

>  <original_smiles>  (19) 
[H]c1c(C([H])([H])N([H])C(=O)N2C([H])([H])C([H])([H])C([H])([H])C([H])(n3nc(-c4c([H])c([H])c(Oc5c([H])c([H])c(F)c([H])c5F)c([H])c4[H])c(C(=O)N([H])[H])c3N([H])[H])C2([H])[H])nc(C([H])([H])[H])c(C([H])([H])Oc2c([H])c([H])c3c(c2[H])C([H])([H])N(C(=O)C([H])(N([H])C(=O)C([H])(N([H])C([H])([H])[H])C([H])([H])[H])C(C([H])([H])[H])(C([H])([H])[H])C([H])([H])[H])C([H])(C(=O)N([H])C2([H])c4c([H])c([H])c([H])c([H])c4C([H])([H])C([H])([H])C2([H])[H])C3([H])[H])c1[H]

>  <smiles>  (19) 
[H]c1c(C([H])([H])N([H])C(=O)N2C([H])([H])C([H])([H])C([H])([H])C([H])(n3nc(-c4c([H])c([H])c(Oc5c([H])c([H])c(F)c([H])c5F)c([H])c4[H])c(C(=O)N([H])[H])c3N([H])[H])C2([H])[H])nc(C([H])([H])[H])c(C([H])([H])Oc2c([H])c([H])c3c(c2[H])C([H])([H])N(C(=O)C([H])(N([H])C(=O)C([H])(N([H])C([H])([H])[H])C([H])([H])[H])C(C([H])([H])[H])(C([H])([H])[H])C([H])([H])[H])C([H])(C(=O)N([H])C2([H])c4c([H])c([H])c([H])c([H])c4C([H])([H])C([H])([H])C2([H])[H])C3([H])[H])c1[H]

$$$$
19:0:0
     RDKit          3D

 89 98  0  0  1  0  0  0  0  0999 V2000
  -28.3170  -22.7050   21.7580 C   0  0  0  0  0  3  0  0  0  0  0  0
  -28.5430  -21.3360   21.8750 C   0  0  0  0  0  3  0  0  0  0  0  0
  -28.5260  -23.0860   20.3880 C   0  0  0  0  0  0  0  0  0  0  0  0
  -28.8050  -21.8270   19.7600 N   0  0  0  0  0  0  0  0  0  0  0  0
  -28.9180  -20.7060   20.6660 N   0  0  0  0  0  0  0  0  0  0  0  0
  -30.5580  -15.2380   19.6180 C   0  0  0  0  0  0  0  0  0  0  0  0
  -30.3560  -12.8720   18.6470 C   0  0  0  0  0  2  0  0  0  0  0  0
  -29.3070  -12.8220   17.5160 C   0  0  0  0  0  2  0  0  0  0  0  0
  -27.9000  -12.5670   18.0960 C   0  0  0  0  0  2  0  0  0  0  0  0
  -27.6110  -13.4560   19.3390 C   0  0  0  0  0  3  0  0  0  0  0  0
  -28.7860  -13.4640   20.3420 C   0  0  0  0  0  2  0  0  0  0  0  0
  -29.9570  -13.9550   19.6100 N   0  0  0  0  0  0  0  0  0  0  0  0
  -31.6650  -15.2870   19.0720 O   0  0  0  0  0  0  0  0  0  0  0  0
  -29.6910  -18.3780   21.6780 C   0  0  0  0  0  2  0  0  0  0  0  0
  -29.7660  -16.8140   21.4560 C   0  0  0  0  0  2  0  0  0  0  0  0
  -29.8110  -17.9730   19.4640 C   0  0  0  0  0  2  0  0  0  0  0  0
  -29.0140  -19.0650   20.4730 C   0  0  0  0  0  3  0  0  0  0  0  0
  -29.8820  -16.4750   20.0220 N   0  0  0  0  0  0  0  0  0  0  0  0
  -25.3380  -13.9900   20.3930 C   0  0  0  0  0  0  0  0  0  0  0  0
  -24.3160  -13.1980   20.8450 C   0  0  0  0  0  0  0  0  0  0  0  0
  -24.7610  -11.8490   20.6840 C   0  0  0  0  0  0  0  0  0  0  0  0
  -26.3330  -13.1250   19.9750 N   0  0  0  0  0  0  0  0  0  0  0  0
  -26.0050  -11.8260   20.2120 N   0  0  0  0  0  0  0  0  0  0  0  0
  -24.0480  -10.5810   20.9010 C   0  0  0  0  0  0  0  0  0  0  0  0
  -24.5190   -9.6120   21.8140 C   0  0  0  0  0  3  0  0  0  0  0  0
  -23.8040   -8.4130   22.0200 C   0  0  0  0  0  3  0  0  0  0  0  0
  -22.6040   -8.1710   21.3100 C   0  0  0  0  0  0  0  0  0  0  0  0
  -22.1520   -9.1280   20.3820 C   0  0  0  0  0  3  0  0  0  0  0  0
  -22.8710  -10.3180   20.1730 C   0  0  0  0  0  3  0  0  0  0  0  0
  -21.8590   -7.0200   21.4220 O   0  0  0  0  0  0  0  0  0  0  0  0
  -21.7630   -6.3330   22.6070 C   0  0  0  0  0  0  0  0  0  0  0  0
  -21.2640   -6.9380   23.7820 C   0  0  0  0  0  3  0  0  0  0  0  0
  -21.1160   -6.1760   24.9580 C   0  0  0  0  0  3  0  0  0  0  0  0
  -21.4610   -4.8110   24.9640 C   0  0  0  0  0  0  0  0  0  0  0  0
  -21.9630   -4.2090   23.7970 C   0  0  0  0  0  3  0  0  0  0  0  0
  -22.1090   -4.9670   22.6220 C   0  0  0  0  0  0  0  0  0  0  0  0
  -22.5660   -4.3720   21.4940 F   0  0  0  0  0  0  0  0  0  0  0  0
  -21.3130   -4.0790   26.0930 F   0  0  0  0  0  0  0  0  0  0  0  0
  -22.9640  -13.6690   21.2980 C   0  0  0  0  0  0  0  0  0  0  0  0
  -22.3330  -12.9590   22.2250 N   0  0  0  0  0  0  0  0  0  0  0  0
  -22.4740  -14.7090   20.8610 O   0  0  0  0  0  0  0  0  0  0  0  0
  -22.7430  -12.1330   22.6340 H   0  0  0  0  0  0  0  0  0  0  0  0
  -21.4250  -13.2710   22.5420 H   0  0  0  0  0  0  0  0  0  0  0  0
  -25.4990  -15.3700   20.2780 N   0  0  0  0  0  0  0  0  0  0  0  0
  -24.7980  -16.0350   20.5980 H   0  0  0  0  0  0  0  0  0  0  0  0
  -26.3090  -15.8190   19.8670 H   0  0  0  0  0  0  0  0  0  0  0  0
  -29.8280  -24.7530   19.0160 C   0  0  0  0  0  1  0  0  0  0  0  0
  -28.4280  -24.6090   19.6250 C   0  0  0  0  0  3  0  0  0  0  0  0
  -28.2840  -26.0920   20.2350 O   0  0  0  0  0  0  0  0  0  0  0  0
  -24.6720  -31.8740   23.1290 C   0  0  0  0  0  0  0  0  0  0  0  0
  -27.2520  -27.1250   20.0530 C   0  0  0  0  0  0  0  0  0  0  0  0
  -23.4690  -30.4690   21.5050 C   0  0  0  0  0  3  0  0  0  0  0  0
  -24.9160  -28.9130   20.0310 C   0  0  0  0  0  0  0  0  0  0  0  0
  -26.0210  -30.7490   21.3060 C   0  0  0  0  0  2  0  0  0  0  0  0
  -26.1000  -29.3560   20.6380 C   0  0  0  0  0  0  0  0  0  0  0  0
  -27.2630  -28.4760   20.6270 C   0  0  0  0  0  3  0  0  0  0  0  0
  -26.0550  -26.8220   19.3740 C   0  0  0  0  0  3  0  0  0  0  0  0
  -24.9170  -27.6660   19.3800 C   0  0  0  0  0  3  0  0  0  0  0  0
  -23.6760  -29.7900   20.1210 C   0  0  0  0  0  2  0  0  0  0  0  0
  -24.7440  -31.0560   22.0330 N   0  0  0  0  0  0  0  0  0  0  0  0
  -23.5890  -32.1400   23.6770 O   0  0  0  0  0  0  0  0  0  0  0  0
  -22.8200  -29.4520   22.4780 C   0  0  0  0  0  0  0  0  0  0  0  0
  -21.4900  -29.2680   22.3830 N   0  0  0  0  0  0  0  0  0  0  0  0
  -23.5150  -28.8310   23.2850 O   0  0  0  0  0  0  0  0  0  0  0  0
  -20.9790  -29.8220   21.7100 H   0  0  0  0  0  0  0  0  0  0  0  0
  -18.1400  -28.0090   22.9550 C   0  0  0  0  0  0  0  0  0  0  0  0
  -20.7010  -28.3080   23.1620 C   0  0  0  0  0  3  0  0  0  0  0  0
  -20.8050  -26.8820   22.5700 C   0  0  0  0  0  2  0  0  0  0  0  0
  -19.6830  -26.5570   21.5770 C   0  0  0  0  0  2  0  0  0  0  0  0
  -18.3180  -26.6720   22.2580 C   0  0  0  0  0  2  0  0  0  0  0  0
  -19.2560  -28.7850   23.3670 C   0  0  0  0  0  0  0  0  0  0  0  0
  -19.0330  -30.0350   23.9850 C   0  0  0  0  0  3  0  0  0  0  0  0
  -17.7240  -30.5120   24.1910 C   0  0  0  0  0  3  0  0  0  0  0  0
  -16.6230  -29.7350   23.7920 C   0  0  0  0  0  3  0  0  0  0  0  0
  -16.8320  -28.4860   23.1840 C   0  0  0  0  0  3  0  0  0  0  0  0
  -25.9410  -32.5360   23.7410 C   0  0  0  0  0  3  0  0  0  0  0  0
  -25.6010  -33.9280   24.0810 N   0  0  0  0  0  0  0  0  0  0  0  0
  -25.9190  -34.9960   23.3380 C   0  0  0  0  0  0  0  0  0  0  0  0
  -26.5880  -34.9170   22.3060 O   0  0  0  0  0  0  0  0  0  0  0  0
  -24.9760  -34.0560   24.8650 H   0  0  0  0  0  0  0  0  0  0  0  0
  -24.1700  -36.7760   23.0300 C   0  0  0  0  0  1  0  0  0  0  0  0
  -25.4240  -36.3740   23.8220 C   0  0  0  0  0  3  0  0  0  0  0  0
  -27.5540  -37.2780   24.6410 C   0  0  0  0  0  1  0  0  0  0  0  0
  -26.4410  -37.4420   23.7080 N   0  0  0  0  0  0  0  0  0  0  0  0
  -26.0230  -38.3530   23.8680 H   0  0  0  0  0  0  0  0  0  0  0  0
  -26.4760  -31.7800   25.0190 C   0  0  1  0  0  0  0  0  0  0  0  0
  -25.3920  -31.5150   26.0930 C   0  0  0  0  0  1  0  0  0  0  0  0
  -27.0910  -30.4160   24.6360 C   0  0  0  0  0  1  0  0  0  0  0  0
  -27.6150  -32.6010   25.6710 C   0  0  0  0  0  1  0  0  0  0  0  0
  1  2  2  0
  3  1  1  0
  4  3  2  0
  4  5  1  0
  5  2  1  0
  6 18  1  0
  7 12  1  0
  8  9  1  0
  8  7  1  0
 10  9  1  0
 10 22  1  0
 10 11  1  0
 12  6  1  0
 12 11  1  0
 13  6  2  0
 15 14  1  0
 16 18  1  0
 17 16  1  0
 17  5  1  0
 17 14  1  0
 18 15  1  0
 19 20  2  0
 20 39  1  0
 21 20  1  0
 21 24  1  0
 22 23  1  0
 22 19  1  0
 23 21  2  0
 24 25  1  0
 25 26  2  0
 27 30  1  0
 27 26  1  0
 28 27  2  0
 29 28  1  0
 29 24  2  0
 30 31  1  0
 31 36  2  0
 31 32  1  0
 32 33  2  0
 33 34  1  0
 34 38  1  0
 35 34  2  0
 36 35  1  0
 37 36  1  0
 39 40  1  0
 40 43  1  0
 40 42  1  0
 41 39  2  0
 44 19  1  0
 44 45  1  0
 46 44  1  0
 48 47  1  0
 48 49  1  0
 48  3  1  0
 50 61  2  0
 51 49  1  0
 51 56  1  0
 52 60  1  0
 52 62  1  0
 53 59  1  0
 53 55  1  0
 54 60  1  0
 55 54  1  0
 56 55  2  0
 57 58  1  0
 57 51  2  0
 58 53  2  0
 59 52  1  0
 60 50  1  0
 62 64  2  0
 63 62  1  0
 65 63  1  0
 66 75  2  0
 66 71  1  0
 67 63  1  0
 67 71  1  0
 68 67  1  0
 69 70  1  0
 69 68  1  0
 70 66  1  0
 71 72  2  0
 72 73  1  0
 74 73  2  0
 75 74  1  0
 76 50  1  0
 76 77  1  0
 76 86  1  0
 77 80  1  0
 78 82  1  0
 78 77  1  0
 79 78  2  0
 82 81  1  0
 84 82  1  0
 84 85  1  0
 84 83  1  0
 86 89  1  1
 86 87  1  0
 88 86  1  0
M  ISO  4   6 100  18 100  48 101  49 101
M  END
>  <TORSDO>  (20) 
F 17

>  <SCORE>  (20) 
-14.216

>  <name>  (20) 
19

>  <ligand_id>  (20) 
19

>  <original_smiles>  (20) 
[H]c1c([H])c([H])c2c(c1[H])C([H])([H])C([H])([H])C([H])([H])C2([H])N([H])C(=O)C1([H])N(C(=O)C([H])(N([H])C(=O)C([H])(N([H])C([H])([H])[H])C([H])([H])[H])C(C([H])([H])[H])(C([H])([H])[H])C([H])([H])[H])C([H])([H])c2c([H])c(OC([H])(c3nn(C4([H])C([H])([H])N(C(=O)N5C([H])([H])C([H])([H])C([H])([H])C([H])(n6nc(-c7c([H])c([H])c(Oc8c([H])c([H])c(F)c([H])c8F)c([H])c7[H])c(C(=O)N([H])[H])c6N([H])[H])C5([H])[H])C([H])([H])C4([H])[H])c([H])c3[H])C([H])([H])[H])c([H])c([H])c2C1([H])[H]

>  <smiles>  (20) 
[H]c1c([H])c([H])c2c(c1[H])C([H])([H])C([H])([H])C([H])([H])C2([H])N([H])C(=O)C1([H])N(C(=O)C([H])(N([H])C(=O)C([H])(N([H])C([H])([H])[H])C([H])([H])[H])C(C([H])([H])[H])(C([H])([H])[H])C([H])([H])[H])C([H])([H])c2c([H])c(OC([H])(c3nn(C4([H])C([H])([H])N(C(=O)N5C([H])([H])C([H])([H])C([H])([H])C([H])(n6nc(-c7c([H])c([H])c(Oc8c([H])c([H])c(F)c([H])c8F)c([H])c7[H])c(C(=O)N([H])[H])c6N([H])[H])C5([H])[H])C([H])([H])C4([H])[H])c([H])c3[H])C([H])([H])[H])c([H])c([H])c2C1([H])[H]

$$$$
20:0:0
     RDKit          3D

 97106  0  0  1  0  0  0  0  0999 V2000
  -29.9050  -22.6960   19.1210 C   0  0  0  0  0  0  0  0  0  0  0  0
  -28.8700  -22.6110   20.0840 C   0  0  0  0  0  0  0  0  0  0  0  0
  -29.4930  -19.9810   20.1150 C   0  0  0  0  0  0  0  0  0  0  0  0
  -30.4760  -20.3540   19.1550 C   0  0  0  0  0  0  0  0  0  0  0  0
  -33.3690  -20.0730   17.4500 C   0  0  0  0  0  2  0  0  0  0  0  0
  -31.9390  -19.5170   17.3560 C   0  0  0  0  0  2  0  0  0  0  0  0
  -32.5850  -19.3060   19.5990 C   0  0  0  0  0  2  0  0  0  0  0  0
  -33.6850  -20.1560   18.9520 C   0  0  0  0  0  3  0  0  0  0  0  0
  -30.2270  -24.0180   18.4480 C   0  0  0  0  0  1  0  0  0  0  0  0
  -28.7160  -21.1910   20.5540 N   0  0  0  0  0  0  0  0  0  0  0  0
  -30.6660  -21.6360   18.7110 N   0  0  0  0  0  0  0  0  0  0  0  0
  -31.4250  -19.4090   18.7210 N   0  0  0  0  0  0  0  0  0  0  0  0
  -33.6490  -21.5430   19.4440 N   0  0  0  0  0  4  0  0  0  0  0  0
  -32.7370  -21.9320   19.2530 H   0  0  0  0  0  0  0  0  0  0  0  0
  -34.3460  -22.0980   18.9820 H   0  0  0  0  0  0  0  0  0  0  0  0
  -33.8260  -21.5740   20.4320 H   0  0  0  0  0  0  0  0  0  0  0  0
  -29.5950  -18.3200   20.7700 C   0  0  0  0  0  2  0  0  0  0  0  0
  -30.3880  -15.3990   20.2710 C   0  0  0  0  0  0  0  0  0  0  0  0
  -30.4160  -12.9330   19.3720 C   0  0  0  0  0  2  0  0  0  0  0  0
  -29.4960  -12.6490   18.1570 C   0  0  0  0  0  2  0  0  0  0  0  0
  -28.0570  -12.3450   18.6130 C   0  0  0  0  0  2  0  0  0  0  0  0
  -27.5860  -13.3180   19.7210 C   0  0  0  0  0  3  0  0  0  0  0  0
  -28.6380  -13.5260   20.8300 C   0  0  0  0  0  2  0  0  0  0  0  0
  -29.8350  -14.0810   20.1680 N   0  0  0  0  0  0  0  0  0  0  0  0
  -31.6250  -15.3810   20.1710 O   0  0  0  0  0  0  0  0  0  0  0  0
  -29.6000  -16.6830   20.2720 N   0  0  0  0  0  0  0  0  0  0  0  0
  -28.6440  -16.4310   20.0730 H   0  0  0  0  0  0  0  0  0  0  0  0
  -25.2200  -13.8540   20.4980 C   0  0  0  0  0  0  0  0  0  0  0  0
  -24.1660  -13.0710   20.8700 C   0  0  0  0  0  0  0  0  0  0  0  0
  -24.6430  -11.7230   20.8380 C   0  0  0  0  0  0  0  0  0  0  0  0
  -26.2680  -12.9870   20.2450 N   0  0  0  0  0  0  0  0  0  0  0  0
  -25.9340  -11.6980   20.5200 N   0  0  0  0  0  0  0  0  0  0  0  0
  -23.9230  -10.4560   21.0290 C   0  0  0  0  0  0  0  0  0  0  0  0
  -24.3610   -9.4890   21.9610 C   0  0  0  0  0  3  0  0  0  0  0  0
  -23.6390   -8.2900   22.1410 C   0  0  0  0  0  3  0  0  0  0  0  0
  -22.4640   -8.0480   21.3900 C   0  0  0  0  0  0  0  0  0  0  0  0
  -22.0450   -9.0020   20.4460 C   0  0  0  0  0  3  0  0  0  0  0  0
  -22.7680  -10.1920   20.2650 C   0  0  0  0  0  3  0  0  0  0  0  0
  -21.7130   -6.9010   21.4810 O   0  0  0  0  0  0  0  0  0  0  0  0
  -21.6730   -6.1570   22.6320 C   0  0  0  0  0  0  0  0  0  0  0  0
  -21.2540   -6.7080   23.8630 C   0  0  0  0  0  3  0  0  0  0  0  0
  -21.1610   -5.8910   25.0070 C   0  0  0  0  0  3  0  0  0  0  0  0
  -21.4760   -4.5210   24.9210 C   0  0  0  0  0  0  0  0  0  0  0  0
  -21.8900   -3.9690   23.6960 C   0  0  0  0  0  3  0  0  0  0  0  0
  -21.9830   -4.7840   22.5550 C   0  0  0  0  0  0  0  0  0  0  0  0
  -22.3620   -4.2430   21.3720 F   0  0  0  0  0  0  0  0  0  0  0  0
  -21.3800   -3.7330   26.0170 F   0  0  0  0  0  0  0  0  0  0  0  0
  -22.7650  -13.5380   21.1370 C   0  0  0  0  0  0  0  0  0  0  0  0
  -22.0420  -12.8400   22.0050 N   0  0  0  0  0  0  0  0  0  0  0  0
  -22.3220  -14.5580   20.6110 O   0  0  0  0  0  0  0  0  0  0  0  0
  -22.4180  -12.0190   22.4530 H   0  0  0  0  0  0  0  0  0  0  0  0
  -21.1000  -13.1300   22.2250 H   0  0  0  0  0  0  0  0  0  0  0  0
  -25.3680  -15.2270   20.3170 N   0  0  0  0  0  0  0  0  0  0  0  0
  -24.5860  -15.8650   20.4270 H   0  0  0  0  0  0  0  0  0  0  0  0
  -26.1930  -15.6720   19.9430 H   0  0  0  0  0  0  0  0  0  0  0  0
  -27.9230  -24.0930   20.3960 C   0  0  0  0  0  2  0  0  0  0  0  0
  -28.2080  -25.7490   20.2650 O   0  0  0  0  0  0  0  0  0  0  0  0
  -24.6620  -31.8490   23.1630 C   0  0  0  0  0  0  0  0  0  0  0  0
  -27.2060  -26.8780   20.2250 C   0  0  0  0  0  0  0  0  0  0  0  0
  -23.4680  -30.4350   21.5400 C   0  0  0  0  0  3  0  0  0  0  0  0
  -24.9140  -28.8000   20.1440 C   0  0  0  0  0  0  0  0  0  0  0  0
  -26.0370  -30.6250   21.3970 C   0  0  0  0  0  2  0  0  0  0  0  0
  -26.1050  -29.1990   20.7630 C   0  0  0  0  0  0  0  0  0  0  0  0
  -27.2450  -28.2640   20.7730 C   0  0  0  0  0  3  0  0  0  0  0  0
  -25.9820  -26.6470   19.5550 C   0  0  0  0  0  3  0  0  0  0  0  0
  -24.8810  -27.5440   19.5160 C   0  0  0  0  0  3  0  0  0  0  0  0
  -23.7010  -29.7330   20.1750 C   0  0  0  0  0  2  0  0  0  0  0  0
  -24.7440  -31.0000   22.0850 N   0  0  0  0  0  0  0  0  0  0  0  0
  -23.5720  -32.1460   23.6790 O   0  0  0  0  0  0  0  0  0  0  0  0
  -22.7670  -29.4570   22.5200 C   0  0  0  0  0  0  0  0  0  0  0  0
  -21.4330  -29.3050   22.4080 N   0  0  0  0  0  0  0  0  0  0  0  0
  -23.4320  -28.8340   23.3520 O   0  0  0  0  0  0  0  0  0  0  0  0
  -20.9490  -29.8610   21.7170 H   0  0  0  0  0  0  0  0  0  0  0  0
  -18.0440  -28.1240   22.9580 C   0  0  0  0  0  0  0  0  0  0  0  0
  -20.6090  -28.3780   23.1930 C   0  0  0  0  0  3  0  0  0  0  0  0
  -20.6950  -26.9410   22.6300 C   0  0  0  0  0  2  0  0  0  0  0  0
  -19.5820  -26.6180   21.6280 C   0  0  0  0  0  2  0  0  0  0  0  0
  -18.2070  -26.7730   22.2840 C   0  0  0  0  0  2  0  0  0  0  0  0
  -19.1700  -28.8860   23.3700 C   0  0  0  0  0  0  0  0  0  0  0  0
  -18.9610  -30.1490   23.9630 C   0  0  0  0  0  3  0  0  0  0  0  0
  -17.6590  -30.6530   24.1460 C   0  0  0  0  0  3  0  0  0  0  0  0
  -16.5480  -29.8900   23.7440 C   0  0  0  0  0  3  0  0  0  0  0  0
  -16.7410  -28.6270   23.1570 C   0  0  0  0  0  3  0  0  0  0  0  0
  -25.9310  -32.5000   23.7900 C   0  0  0  0  0  3  0  0  0  0  0  0
  -26.4450  -31.7390   25.0740 C   0  0  1  0  0  0  0  0  0  0  0  0
  -25.3520  -31.5070   26.1440 C   0  0  0  0  0  1  0  0  0  0  0  0
  -27.0330  -30.3590   24.7010 C   0  0  0  0  0  1  0  0  0  0  0  0
  -27.5940  -32.5400   25.7300 C   0  0  0  0  0  1  0  0  0  0  0  0
  -25.6040  -33.8980   24.1310 N   0  0  0  0  0  0  0  0  0  0  0  0
  -25.9250  -34.9670   23.3870 C   0  0  0  0  0  0  0  0  0  0  0  0
  -26.5860  -34.8800   22.3500 O   0  0  0  0  0  0  0  0  0  0  0  0
  -25.0150  -34.0370   24.9380 H   0  0  0  0  0  0  0  0  0  0  0  0
  -24.1840  -36.7610   23.0780 C   0  0  0  0  0  1  0  0  0  0  0  0
  -25.4360  -36.3490   23.8680 C   0  0  0  0  0  3  0  0  0  0  0  0
  -27.5770  -37.2410   24.6830 C   0  0  0  0  0  1  0  0  0  0  0  0
  -26.4620  -37.4100   23.7540 N   0  0  0  0  0  0  0  0  0  0  0  0
  -26.0520  -38.3260   23.9130 H   0  0  0  0  0  0  0  0  0  0  0  0
  1  2  1  0
  2 56  1  0
  2 10  2  0
  3 10  1  0
  3 17  1  0
  4  3  2  0
  5  8  1  0
  6  5  1  0
  6 12  1  0
  8 13  1  0
  8  7  1  0
  9  1  1  0
 11  1  2  0
 11  4  1  0
 12  4  1  0
 12  7  1  0
 13 16  1  0
 14 13  1  0
 15 13  1  0
 18 26  1  0
 19 24  1  0
 20 21  1  0
 20 19  1  0
 22 21  1  0
 22 31  1  0
 22 23  1  0
 24 18  1  0
 24 23  1  0
 25 18  2  0
 26 17  1  0
 27 26  1  0
 28 29  2  0
 29 48  1  0
 30 29  1  0
 30 33  1  0
 31 28  1  0
 31 32  1  0
 32 30  2  0
 33 34  1  0
 34 35  2  0
 36 39  1  0
 36 35  1  0
 37 36  2  0
 38 37  1  0
 38 33  2  0
 39 40  1  0
 40 41  1  0
 41 42  2  0
 43 42  1  0
 43 47  1  0
 44 43  2  0
 45 40  2  0
 45 44  1  0
 46 45  1  0
 48 49  1  0
 49 52  1  0
 49 51  1  0
 50 48  2  0
 53 54  1  0
 53 28  1  0
 55 53  1  0
 57 56  1  0
 58 69  2  0
 59 57  1  0
 59 64  1  0
 60 68  1  0
 60 70  1  0
 61 67  1  0
 61 63  1  0
 62 68  1  0
 63 64  2  0
 63 62  1  0
 65 59  2  0
 66 65  1  0
 66 61  2  0
 67 60  1  0
 68 58  1  0
 70 72  2  0
 71 70  1  0
 73 71  1  0
 74 83  2  0
 74 79  1  0
 75 71  1  0
 75 79  1  0
 76 75  1  0
 77 78  1  0
 77 76  1  0
 78 74  1  0
 79 80  2  0
 80 81  1  0
 82 81  2  0
 83 82  1  0
 84 58  1  0
 84 89  1  0
 84 85  1  0
 85 88  1  1
 85 86  1  0
 87 85  1  0
 89 92  1  0
 90 94  1  0
 90 89  1  0
 91 90  2  0
 94 93  1  0
 96 94  1  0
 96 97  1  0
 96 95  1  0
M  ISO  4  18 100  26 100  56 101  57 101
M  END
>  <TORSDO>  (21) 
F 19

>  <SCORE>  (21) 
-16.527

>  <name>  (21) 
20

>  <ligand_id>  (21) 
20

>  <original_smiles>  (21) 
[H]c1c([H])c([H])c2c(c1[H])C([H])([H])C([H])([H])C([H])([H])C2([H])N([H])C(=O)C1([H])N(C(=O)C([H])(N([H])C(=O)C([H])(N([H])C([H])([H])[H])C([H])([H])[H])C(C([H])([H])[H])(C([H])([H])[H])C([H])([H])[H])C([H])([H])c2c([H])c(OC([H])([H])c3nc(C([H])([H])N([H])C(=O)N4C([H])([H])C([H])([H])C([H])([H])C([H])(n5nc(-c6c([H])c([H])c(Oc7c([H])c([H])c(F)c([H])c7F)c([H])c6[H])c(C(=O)N([H])[H])c5N([H])[H])C4([H])[H])c(N4C([H])([H])C([H])([H])C([H])([N+]([H])([H])[H])C4([H])[H])nc3C([H])([H])[H])c([H])c([H])c2C1([H])[H]

>  <smiles>  (21) 
[H]c1c([H])c([H])c2c(c1[H])C([H])([H])C([H])([H])C([H])([H])C2([H])N([H])C(=O)C1([H])N(C(=O)C([H])(N([H])C(=O)C([H])(N([H])C([H])([H])[H])C([H])([H])[H])C(C([H])([H])[H])(C([H])([H])[H])C([H])([H])[H])C([H])([H])c2c([H])c(OC([H])([H])c3nc(C([H])([H])N([H])C(=O)N4C([H])([H])C([H])([H])C([H])([H])C([H])(n5nc(-c6c([H])c([H])c(Oc7c([H])c([H])c(F)c([H])c7F)c([H])c6[H])c(C(=O)N([H])[H])c5N([H])[H])C4([H])[H])c(N4C([H])([H])C([H])([H])C([H])([N+]([H])([H])[H])C4([H])[H])nc3C([H])([H])[H])c([H])c([H])c2C1([H])[H]

$$$$
21:0:0
     RDKit          3D

 87 96  0  0  1  0  0  0  0  0999 V2000
  -28.9020  -22.2520   20.0940 C   0  0  0  0  0  3  0  0  0  0  0  0
  -28.8760  -23.1770   21.3080 C   0  0  0  0  0  3  0  0  0  0  0  0
  -27.9510  -23.8750   20.3140 C   0  0  2  0  0  0  0  0  0  0  0  0
  -30.1720  -23.8320   21.7350 C   0  0  0  0  0  1  0  0  0  0  0  0
  -26.4570  -23.6500   20.4250 C   0  0  0  0  0  1  0  0  0  0  0  0
  -29.6330  -19.5900   21.2440 C   0  0  0  0  0  2  0  0  0  0  0  0
  -28.7840  -20.3610   20.2490 C   0  0  0  0  0  3  0  0  0  0  0  0
  -29.7110  -18.7160   19.9990 C   0  0  0  0  0  3  0  0  0  0  0  0
  -30.3030  -15.6590   19.9590 C   0  0  0  0  0  0  0  0  0  0  0  0
  -30.3550  -13.1460   19.0880 C   0  0  0  0  0  2  0  0  0  0  0  0
  -29.3930  -12.8000   17.9160 C   0  0  0  0  0  2  0  0  0  0  0  0
  -27.9910  -12.4460   18.4380 C   0  0  0  0  0  2  0  0  0  0  0  0
  -27.5490  -13.4160   19.5590 C   0  0  0  0  0  3  0  0  0  0  0  0
  -28.6410  -13.6760   20.6220 C   0  0  0  0  0  2  0  0  0  0  0  0
  -29.7860  -14.2970   19.9200 N   0  0  0  0  0  0  0  0  0  0  0  0
  -31.5090  -15.6300   19.6560 O   0  0  0  0  0  0  0  0  0  0  0  0
  -29.5370  -16.9880   20.1600 N   0  0  0  0  0  0  0  0  0  0  0  0
  -28.5830  -16.7610   20.4060 H   0  0  0  0  0  0  0  0  0  0  0  0
  -25.2330  -13.9170   20.4780 C   0  0  0  0  0  0  0  0  0  0  0  0
  -24.2000  -13.1220   20.8830 C   0  0  0  0  0  0  0  0  0  0  0  0
  -24.6720  -11.7770   20.7820 C   0  0  0  0  0  0  0  0  0  0  0  0
  -26.2630  -13.0600   20.1430 N   0  0  0  0  0  0  0  0  0  0  0  0
  -25.9430  -11.7620   20.3920 N   0  0  0  0  0  0  0  0  0  0  0  0
  -23.9620  -10.5050   20.9740 C   0  0  0  0  0  0  0  0  0  0  0  0
  -24.4130   -9.5360   21.8960 C   0  0  0  0  0  3  0  0  0  0  0  0
  -23.6970   -8.3320   22.0800 C   0  0  0  0  0  3  0  0  0  0  0  0
  -22.5160   -8.0890   21.3390 C   0  0  0  0  0  0  0  0  0  0  0  0
  -22.0830   -9.0490   20.4060 C   0  0  0  0  0  3  0  0  0  0  0  0
  -22.8000  -10.2420   20.2210 C   0  0  0  0  0  3  0  0  0  0  0  0
  -21.7700   -6.9380   21.4310 O   0  0  0  0  0  0  0  0  0  0  0  0
  -21.6970   -6.2200   22.5970 C   0  0  0  0  0  0  0  0  0  0  0  0
  -21.1950   -6.7860   23.7890 C   0  0  0  0  0  3  0  0  0  0  0  0
  -21.0690   -5.9930   24.9470 C   0  0  0  0  0  3  0  0  0  0  0  0
  -21.4360   -4.6350   24.9130 C   0  0  0  0  0  0  0  0  0  0  0  0
  -21.9320   -4.0680   23.7270 C   0  0  0  0  0  3  0  0  0  0  0  0
  -22.0590   -4.8580   22.5710 C   0  0  0  0  0  0  0  0  0  0  0  0
  -22.5170   -4.3020   21.4240 F   0  0  0  0  0  0  0  0  0  0  0  0
  -21.3100   -3.8700   26.0240 F   0  0  0  0  0  0  0  0  0  0  0  0
  -22.8190  -13.5840   21.2420 C   0  0  0  0  0  0  0  0  0  0  0  0
  -22.1420  -12.8640   22.1280 N   0  0  0  0  0  0  0  0  0  0  0  0
  -22.3540  -14.6230   20.7740 O   0  0  0  0  0  0  0  0  0  0  0  0
  -22.5340  -12.0250   22.5300 H   0  0  0  0  0  0  0  0  0  0  0  0
  -21.2180  -13.1590   22.4120 H   0  0  0  0  0  0  0  0  0  0  0  0
  -25.3740  -15.2940   20.3330 N   0  0  0  0  0  0  0  0  0  0  0  0
  -24.6060  -15.9330   20.5010 H   0  0  0  0  0  0  0  0  0  0  0  0
  -26.1790  -15.7470   19.9190 H   0  0  0  0  0  0  0  0  0  0  0  0
  -28.1580  -25.6210   20.3380 O   0  0  0  0  0  0  0  0  0  0  0  0
  -24.6660  -31.8810   23.2620 C   0  0  0  0  0  0  0  0  0  0  0  0
  -27.1900  -26.8300   20.2800 C   0  0  0  0  0  0  0  0  0  0  0  0
  -23.4810  -30.4910   21.6180 C   0  0  0  0  0  3  0  0  0  0  0  0
  -24.9320  -28.8540   20.2060 C   0  0  0  0  0  0  0  0  0  0  0  0
  -26.0580  -30.6360   21.5080 C   0  0  0  0  0  2  0  0  0  0  0  0
  -26.1200  -29.2070   20.8540 C   0  0  0  0  0  0  0  0  0  0  0  0
  -27.2360  -28.2210   20.8640 C   0  0  0  0  0  3  0  0  0  0  0  0
  -25.9820  -26.7000   19.5480 C   0  0  0  0  0  3  0  0  0  0  0  0
  -24.8990  -27.6260   19.5290 C   0  0  0  0  0  3  0  0  0  0  0  0
  -23.7250  -29.8030   20.2450 C   0  0  0  0  0  2  0  0  0  0  0  0
  -24.7580  -31.0340   22.1830 N   0  0  0  0  0  0  0  0  0  0  0  0
  -23.5720  -32.1820   23.7690 O   0  0  0  0  0  0  0  0  0  0  0  0
  -22.7620  -29.5090   22.5820 C   0  0  0  0  0  0  0  0  0  0  0  0
  -21.4310  -29.3530   22.4470 N   0  0  0  0  0  0  0  0  0  0  0  0
  -23.4140  -28.8870   23.4230 O   0  0  0  0  0  0  0  0  0  0  0  0
  -20.9550  -29.9050   21.7490 H   0  0  0  0  0  0  0  0  0  0  0  0
  -18.0410  -28.1430   22.9380 C   0  0  0  0  0  0  0  0  0  0  0  0
  -20.5990  -28.4170   23.2160 C   0  0  0  0  0  3  0  0  0  0  0  0
  -20.7060  -26.9830   22.6470 C   0  0  0  0  0  2  0  0  0  0  0  0
  -19.6120  -26.6560   21.6250 C   0  0  0  0  0  2  0  0  0  0  0  0
  -18.2260  -26.7960   22.2590 C   0  0  0  0  0  2  0  0  0  0  0  0
  -19.1540  -28.9110   23.3710 C   0  0  0  0  0  0  0  0  0  0  0  0
  -18.9230  -30.1690   23.9710 C   0  0  0  0  0  3  0  0  0  0  0  0
  -17.6140  -30.6610   24.1350 C   0  0  0  0  0  3  0  0  0  0  0  0
  -16.5170  -29.8900   23.7130 C   0  0  0  0  0  3  0  0  0  0  0  0
  -16.7300  -28.6330   23.1210 C   0  0  0  0  0  3  0  0  0  0  0  0
  -25.9300  -32.5260   23.9070 C   0  0  0  0  0  3  0  0  0  0  0  0
  -25.6120  -33.9300   24.2340 N   0  0  0  0  0  0  0  0  0  0  0  0
  -25.9220  -34.9870   23.4730 C   0  0  0  0  0  0  0  0  0  0  0  0
  -26.5640  -34.8860   22.4240 O   0  0  0  0  0  0  0  0  0  0  0  0
  -25.0350  -34.0810   25.0480 H   0  0  0  0  0  0  0  0  0  0  0  0
  -24.1640  -36.7740   23.2050 C   0  0  0  0  0  1  0  0  0  0  0  0
  -25.4510  -36.3800   23.9480 C   0  0  0  0  0  3  0  0  0  0  0  0
  -27.6140  -37.3000   24.6610 C   0  0  0  0  0  1  0  0  0  0  0  0
  -26.4660  -37.4410   23.7690 N   0  0  0  0  0  0  0  0  0  0  0  0
  -26.0570  -38.3590   23.9190 H   0  0  0  0  0  0  0  0  0  0  0  0
  -26.4130  -31.7690   25.2060 C   0  0  1  0  0  0  0  0  0  0  0  0
  -25.2970  -31.5550   26.2580 C   0  0  0  0  0  1  0  0  0  0  0  0
  -26.9930  -30.3810   24.8580 C   0  0  0  0  0  1  0  0  0  0  0  0
  -27.5560  -32.5630   25.8810 C   0  0  0  0  0  1  0  0  0  0  0  0
  1  7  1  0
  1  3  1  0
  1  2  1  0
  2  4  1  0
  3 47  1  0
  3  5  1  1
  3  2  1  0
  7  6  1  0
  8 17  1  0
  8  7  1  0
  8  6  1  0
  9 17  1  0
 10 15  1  0
 11 12  1  0
 11 10  1  0
 13 12  1  0
 13 22  1  0
 13 14  1  0
 15  9  1  0
 15 14  1  0
 16  9  2  0
 17 18  1  0
 19 20  2  0
 20 39  1  0
 21 20  1  0
 21 24  1  0
 22 23  1  0
 22 19  1  0
 23 21  2  0
 24 25  1  0
 25 26  2  0
 27 30  1  0
 27 26  1  0
 28 27  2  0
 29 28  1  0
 29 24  2  0
 30 31  1  0
 31 32  1  0
 32 33  2  0
 34 33  1  0
 34 38  1  0
 35 34  2  0
 36 31  2  0
 36 35  1  0
 37 36  1  0
 39 40  1  0
 40 43  1  0
 40 42  1  0
 41 39  2  0
 44 19  1  0
 44 45  1  0
 46 44  1  0
 48 59  2  0
 49 47  1  0
 49 54  1  0
 50 58  1  0
 50 60  1  0
 51 57  1  0
 51 53  1  0
 52 58  1  0
 53 54  2  0
 53 52  1  0
 55 49  2  0
 56 55  1  0
 56 51  2  0
 57 50  1  0
 58 48  1  0
 60 62  2  0
 61 60  1  0
 63 61  1  0
 64 73  2  0
 64 69  1  0
 65 61  1  0
 65 69  1  0
 66 65  1  0
 67 68  1  0
 67 66  1  0
 68 64  1  0
 69 70  2  0
 70 71  1  0
 72 71  2  0
 73 72  1  0
 74 48  1  0
 74 75  1  0
 74 84  1  0
 75 78  1  0
 76 80  1  0
 76 75  1  0
 77 76  2  0
 80 79  1  0
 82 83  1  0
 82 80  1  0
 82 81  1  0
 84 87  1  1
 84 85  1  0
 86 84  1  0
M  ISO  4   3 101   9 100  17 100  47 101
M  END
>  <TORSDO>  (22) 
F 17

>  <SCORE>  (22) 
-16.475

>  <name>  (22) 
21

>  <ligand_id>  (22) 
21

>  <original_smiles>  (22) 
[H]c1c([H])c([H])c2c(c1[H])C([H])([H])C([H])([H])C([H])([H])C2([H])N([H])C(=O)C1([H])N(C(=O)C([H])(N([H])C(=O)C([H])(N([H])C([H])([H])[H])C([H])([H])[H])C(C([H])([H])[H])(C([H])([H])[H])C([H])([H])[H])C([H])([H])c2c([H])c(OC3(C([H])([H])[H])C([H])(C([H])([H])[H])C3([H])C3([H])C([H])([H])C3([H])N([H])C(=O)N3C([H])([H])C([H])([H])C([H])([H])C([H])(n4nc(-c5c([H])c([H])c(Oc6c([H])c([H])c(F)c([H])c6F)c([H])c5[H])c(C(=O)N([H])[H])c4N([H])[H])C3([H])[H])c([H])c([H])c2C1([H])[H]

>  <smiles>  (22) 
[H]c1c([H])c([H])c2c(c1[H])C([H])([H])C([H])([H])C([H])([H])C2([H])N([H])C(=O)C1([H])N(C(=O)C([H])(N([H])C(=O)C([H])(N([H])C([H])([H])[H])C([H])([H])[H])C(C([H])([H])[H])(C([H])([H])[H])C([H])([H])[H])C([H])([H])c2c([H])c(OC3(C([H])([H])[H])C([H])(C([H])([H])[H])C3([H])C3([H])C([H])([H])C3([H])N([H])C(=O)N3C([H])([H])C([H])([H])C([H])([H])C([H])(n4nc(-c5c([H])c([H])c(Oc6c([H])c([H])c(F)c([H])c6F)c([H])c5[H])c(C(=O)N([H])[H])c4N([H])[H])C3([H])[H])c([H])c([H])c2C1([H])[H]

$$$$
22:0:0
     RDKit          3D

 91100  0  0  1  0  0  0  0  0999 V2000
  -29.1700  -20.2660   20.2600 C   0  0  0  0  0  0  0  0  0  0  0  0
  -29.6010  -21.1150   19.1650 C   0  0  0  0  0  0  0  0  0  0  0  0
  -28.1240  -22.3460   21.0320 C   0  0  0  0  0  0  0  0  0  0  0  0
  -28.5460  -23.1930   19.9380 C   0  0  0  0  0  0  0  0  0  0  0  0
  -27.2100  -22.9110   22.1020 C   0  0  0  0  0  1  0  0  0  0  0  0
  -28.4270  -20.9830   21.1810 N   0  0  0  0  0  0  0  0  0  0  0  0
  -29.2840  -22.4780   19.0110 N   0  0  0  0  0  0  0  0  0  0  0  0
  -30.6180  -15.1130   20.4920 C   0  0  0  0  0  0  0  0  0  0  0  0
  -30.4460  -12.7160   19.6840 C   0  0  0  0  0  2  0  0  0  0  0  0
  -29.5750  -12.5670   18.4190 C   0  0  0  0  0  2  0  0  0  0  0  0
  -28.1010  -12.3770   18.8130 C   0  0  0  0  0  2  0  0  0  0  0  0
  -27.6420  -13.3750   19.9080 C   0  0  0  0  0  3  0  0  0  0  0  0
  -28.6540  -13.5130   21.0640 C   0  0  0  0  0  2  0  0  0  0  0  0
  -29.9330  -13.8920   20.4540 N   0  0  0  0  0  0  0  0  0  0  0  0
  -31.8390  -15.0300   20.3320 O   0  0  0  0  0  0  0  0  0  0  0  0
  -28.7710  -17.2360   20.3220 C   0  0  0  0  0  2  0  0  0  0  0  0
  -30.7790  -17.7450   20.1970 C   0  0  0  0  0  2  0  0  0  0  0  0
  -29.5230  -18.6420   20.5560 C   0  0  0  0  0  3  0  0  0  0  0  0
  -30.0570  -16.4430   20.4880 N   0  0  0  0  0  0  0  0  0  0  0  0
  -25.2540  -13.9740   20.5840 C   0  0  0  0  0  0  0  0  0  0  0  0
  -24.1740  -13.2110   20.9290 C   0  0  0  0  0  0  0  0  0  0  0  0
  -24.6270  -11.8560   20.9270 C   0  0  0  0  0  0  0  0  0  0  0  0
  -26.2940  -13.0860   20.3810 N   0  0  0  0  0  0  0  0  0  0  0  0
  -25.9270  -11.8070   20.6570 N   0  0  0  0  0  0  0  0  0  0  0  0
  -23.8820  -10.6030   21.1040 C   0  0  0  0  0  0  0  0  0  0  0  0
  -24.2840   -9.6310   22.0460 C   0  0  0  0  0  3  0  0  0  0  0  0
  -23.5370   -8.4440   22.2150 C   0  0  0  0  0  3  0  0  0  0  0  0
  -22.3750   -8.2210   21.4390 C   0  0  0  0  0  0  0  0  0  0  0  0
  -21.9930   -9.1810   20.4860 C   0  0  0  0  0  3  0  0  0  0  0  0
  -22.7400  -10.3580   20.3150 C   0  0  0  0  0  3  0  0  0  0  0  0
  -21.6020   -7.0880   21.5170 O   0  0  0  0  0  0  0  0  0  0  0  0
  -21.5310   -6.3420   22.6660 C   0  0  0  0  0  0  0  0  0  0  0  0
  -21.0910   -6.8950   23.8880 C   0  0  0  0  0  3  0  0  0  0  0  0
  -20.9680   -6.0750   25.0280 C   0  0  0  0  0  3  0  0  0  0  0  0
  -21.2720   -4.7040   24.9460 C   0  0  0  0  0  0  0  0  0  0  0  0
  -21.7040   -4.1500   23.7280 C   0  0  0  0  0  3  0  0  0  0  0  0
  -21.8290   -4.9650   22.5910 C   0  0  0  0  0  0  0  0  0  0  0  0
  -22.2250   -4.4230   21.4150 F   0  0  0  0  0  0  0  0  0  0  0  0
  -21.1460   -3.9150   26.0380 F   0  0  0  0  0  0  0  0  0  0  0  0
  -22.7730  -13.7050   21.1470 C   0  0  0  0  0  0  0  0  0  0  0  0
  -22.0140  -13.0310   22.0050 N   0  0  0  0  0  0  0  0  0  0  0  0
  -22.3620  -14.7210   20.5910 O   0  0  0  0  0  0  0  0  0  0  0  0
  -22.3620  -12.2080   22.4730 H   0  0  0  0  0  0  0  0  0  0  0  0
  -21.0720  -13.3420   22.1950 H   0  0  0  0  0  0  0  0  0  0  0  0
  -25.4370  -15.3400   20.3960 N   0  0  0  0  0  0  0  0  0  0  0  0
  -24.6740  -16.0040   20.4660 H   0  0  0  0  0  0  0  0  0  0  0  0
  -26.3020  -15.7590   20.0860 H   0  0  0  0  0  0  0  0  0  0  0  0
  -29.6040  -19.8210   16.9810 C   0  0  0  0  0  1  0  0  0  0  0  0
  -30.4440  -20.5510   18.0360 C   0  0  0  0  0  2  0  0  0  0  0  0
  -27.8570  -24.6650   19.5340 C   0  0  0  0  0  2  0  0  0  0  0  0
  -28.2160  -26.1590   19.8750 O   0  0  0  0  0  0  0  0  0  0  0  0
  -24.5050  -31.7410   23.0330 C   0  0  0  0  0  0  0  0  0  0  0  0
  -27.1780  -27.1760   19.8230 C   0  0  0  0  0  0  0  0  0  0  0  0
  -23.3360  -30.3680   21.3590 C   0  0  0  0  0  3  0  0  0  0  0  0
  -24.8150  -28.8910   19.8640 C   0  0  0  0  0  0  0  0  0  0  0  0
  -25.8850  -30.6980   21.1940 C   0  0  0  0  0  2  0  0  0  0  0  0
  -25.9900  -29.3320   20.4890 C   0  0  0  0  0  0  0  0  0  0  0  0
  -27.1710  -28.4890   20.4570 C   0  0  0  0  0  3  0  0  0  0  0  0
  -25.9780  -26.8670   19.1400 C   0  0  0  0  0  3  0  0  0  0  0  0
  -24.8250  -27.6760   19.1720 C   0  0  0  0  0  3  0  0  0  0  0  0
  -23.5660  -29.7540   19.9520 C   0  0  0  0  0  2  0  0  0  0  0  0
  -24.5960  -30.9570   21.9160 N   0  0  0  0  0  0  0  0  0  0  0  0
  -23.4150  -31.9760   23.5750 O   0  0  0  0  0  0  0  0  0  0  0  0
  -22.6940  -29.3070   22.2870 C   0  0  0  0  0  0  0  0  0  0  0  0
  -21.3670  -29.1170   22.1780 N   0  0  0  0  0  0  0  0  0  0  0  0
  -23.3910  -28.6580   23.0710 O   0  0  0  0  0  0  0  0  0  0  0  0
  -20.8580  -29.6920   21.5200 H   0  0  0  0  0  0  0  0  0  0  0  0
  -18.0080  -27.8710   22.7310 C   0  0  0  0  0  0  0  0  0  0  0  0
  -20.5740  -28.1380   22.9260 C   0  0  0  0  0  3  0  0  0  0  0  0
  -20.6620  -26.7360   22.2790 C   0  0  0  0  0  2  0  0  0  0  0  0
  -19.5310  -26.4600   21.2830 C   0  0  0  0  0  2  0  0  0  0  0  0
  -18.1690  -26.5620   21.9760 C   0  0  0  0  0  2  0  0  0  0  0  0
  -19.1370  -28.6180   23.1620 C   0  0  0  0  0  0  0  0  0  0  0  0
  -18.9300  -29.8450   23.8290 C   0  0  0  0  0  3  0  0  0  0  0  0
  -17.6270  -30.3250   24.0680 C   0  0  0  0  0  3  0  0  0  0  0  0
  -16.5150  -29.5730   23.6520 C   0  0  0  0  0  3  0  0  0  0  0  0
  -16.7060  -28.3490   22.9880 C   0  0  0  0  0  3  0  0  0  0  0  0
  -25.7700  -32.3950   23.6700 C   0  0  0  0  0  3  0  0  0  0  0  0
  -25.4150  -33.7680   24.0600 N   0  0  0  0  0  0  0  0  0  0  0  0
  -25.6910  -34.8640   23.3410 C   0  0  0  0  0  0  0  0  0  0  0  0
  -26.3430  -34.8270   22.2930 O   0  0  0  0  0  0  0  0  0  0  0  0
  -24.8380  -33.8700   24.8810 H   0  0  0  0  0  0  0  0  0  0  0  0
  -23.8920  -36.6050   23.0990 C   0  0  0  0  0  1  0  0  0  0  0  0
  -25.1650  -36.2140   23.8660 C   0  0  0  0  0  3  0  0  0  0  0  0
  -27.2810  -37.1460   24.6900 C   0  0  0  0  0  1  0  0  0  0  0  0
  -26.1550  -37.3090   23.7750 N   0  0  0  0  0  0  0  0  0  0  0  0
  -25.7170  -38.2070   23.9660 H   0  0  0  0  0  0  0  0  0  0  0  0
  -26.3150  -31.5960   24.9180 C   0  0  1  0  0  0  0  0  0  0  0  0
  -25.2350  -31.2970   25.9840 C   0  0  0  0  0  1  0  0  0  0  0  0
  -26.9340  -30.2470   24.4860 C   0  0  0  0  0  1  0  0  0  0  0  0
  -27.4500  -32.4000   25.5980 C   0  0  0  0  0  1  0  0  0  0  0  0
  1  6  1  0
  2  1  2  0
  3  6  2  0
  3  5  1  0
  4  3  1  0
  7  2  1  0
  7  4  2  0
  9 14  1  0
 10 11  1  0
 10  9  1  0
 12 11  1  0
 12 23  1  0
 12 13  1  0
 14  8  1  0
 14 13  1  0
 15  8  2  0
 16 19  1  0
 16 18  1  0
 17 19  1  0
 17 18  1  0
 18  1  1  0
 19  8  1  0
 20 21  2  0
 21 40  1  0
 22 21  1  0
 22 25  1  0
 23 20  1  0
 23 24  1  0
 24 22  2  0
 25 26  1  0
 26 27  2  0
 28 31  1  0
 28 27  1  0
 29 28  2  0
 30 29  1  0
 30 25  2  0
 31 32  1  0
 32 33  1  0
 33 34  2  0
 35 34  1  0
 35 39  1  0
 36 35  2  0
 37 32  2  0
 37 36  1  0
 38 37  1  0
 40 41  1  0
 41 44  1  0
 41 43  1  0
 42 40  2  0
 45 46  1  0
 45 20  1  0
 47 45  1  0
 48 49  1  0
 49  2  1  0
 50 51  1  0
 50  4  1  0
 52 63  2  0
 53 51  1  0
 53 58  1  0
 54 62  1  0
 54 64  1  0
 55 61  1  0
 55 57  1  0
 56 62  1  0
 57 56  1  0
 58 57  2  0
 59 60  1  0
 59 53  2  0
 60 55  2  0
 61 54  1  0
 62 52  1  0
 64 66  2  0
 65 64  1  0
 67 65  1  0
 68 77  2  0
 68 73  1  0
 69 65  1  0
 69 73  1  0
 70 69  1  0
 71 72  1  0
 71 70  1  0
 72 68  1  0
 73 74  2  0
 74 75  1  0
 76 75  2  0
 77 76  1  0
 78 52  1  0
 78 79  1  0
 78 88  1  0
 79 82  1  0
 80 84  1  0
 80 79  1  0
 81 80  2  0
 84 83  1  0
 86 84  1  0
 86 87  1  0
 86 85  1  0
 88 91  1  1
 88 89  1  0
 90 88  1  0
M  ISO  4   8 100  19 100  50 101  51 101
M  END
>  <TORSDO>  (23) 
F 18

>  <SCORE>  (23) 
-14.229

>  <name>  (23) 
22

>  <ligand_id>  (23) 
22

>  <original_smiles>  (23) 
[H]c1c([H])c([H])c2c(c1[H])C([H])([H])C([H])([H])C([H])([H])C2([H])N([H])C(=O)C1([H])N(C(=O)C([H])(N([H])C(=O)C([H])(N([H])C([H])([H])[H])C([H])([H])[H])C(C([H])([H])[H])(C([H])([H])[H])C([H])([H])[H])C([H])([H])c2c([H])c(OC([H])([H])c3nc(C([H])([H])C([H])([H])[H])c(C4([H])C([H])([H])N(C(=O)N5C([H])([H])C([H])([H])C([H])([H])C([H])(n6nc(-c7c([H])c([H])c(Oc8c([H])c([H])c(F)c([H])c8F)c([H])c7[H])c(C(=O)N([H])[H])c6N([H])[H])C5([H])[H])C4([H])[H])nc3C([H])([H])[H])c([H])c([H])c2C1([H])[H]

>  <smiles>  (23) 
[H]c1c([H])c([H])c2c(c1[H])C([H])([H])C([H])([H])C([H])([H])C2([H])N([H])C(=O)C1([H])N(C(=O)C([H])(N([H])C(=O)C([H])(N([H])C([H])([H])[H])C([H])([H])[H])C(C([H])([H])[H])(C([H])([H])[H])C([H])([H])[H])C([H])([H])c2c([H])c(OC([H])([H])c3nc(C([H])([H])C([H])([H])[H])c(C4([H])C([H])([H])N(C(=O)N5C([H])([H])C([H])([H])C([H])([H])C([H])(n6nc(-c7c([H])c([H])c(Oc8c([H])c([H])c(F)c([H])c8F)c([H])c7[H])c(C(=O)N([H])[H])c6N([H])[H])C5([H])[H])C4([H])[H])nc3C([H])([H])[H])c([H])c([H])c2C1([H])[H]

$$$$
23:0:0
     RDKit          3D

 90 99  0  0  1  0  0  0  0  0999 V2000
  -30.4970  -21.3710   20.9160 C   0  0  0  0  0  3  0  0  0  0  0  0
  -30.6970  -19.9480   21.0230 C   0  0  0  0  0  3  0  0  0  0  0  0
  -29.4380  -21.9740   20.1630 C   0  0  0  0  0  0  0  0  0  0  0  0
  -29.8480  -18.9970   20.3870 C   0  0  0  0  0  0  0  0  0  0  0  0
  -28.6670  -20.9520   19.4960 C   0  0  0  0  0  0  0  0  0  0  0  0
  -27.5630  -21.3570   18.5270 C   0  0  0  0  0  1  0  0  0  0  0  0
  -28.8440  -19.5710   19.6330 N   0  0  0  0  0  0  0  0  0  0  0  0
  -30.6190  -14.9170   20.0410 C   0  0  0  0  0  0  0  0  0  0  0  0
  -30.4200  -12.6630   18.8720 C   0  0  0  0  0  2  0  0  0  0  0  0
  -29.3970  -12.7270   17.7110 C   0  0  0  0  0  2  0  0  0  0  0  0
  -27.9470  -12.5380   18.2080 C   0  0  0  0  0  2  0  0  0  0  0  0
  -27.6500  -13.3610   19.4880 C   0  0  0  0  0  3  0  0  0  0  0  0
  -28.7710  -13.1860   20.5280 C   0  0  0  0  0  2  0  0  0  0  0  0
  -30.0230  -13.6600   19.9080 N   0  0  0  0  0  0  0  0  0  0  0  0
  -31.7220  -15.0990   19.5140 O   0  0  0  0  0  0  0  0  0  0  0  0
  -30.3210  -17.1600   22.3260 C   0  0  0  0  0  2  0  0  0  0  0  0
  -29.7650  -15.7560   22.1330 C   0  0  0  0  0  2  0  0  0  0  0  0
  -29.6570  -17.4920   21.0050 C   0  0  0  0  0  3  0  0  0  0  0  0
  -29.8800  -15.9500   20.6670 N   0  0  0  0  0  0  0  0  0  0  0  0
  -25.2990  -13.9440   20.3400 C   0  0  0  0  0  0  0  0  0  0  0  0
  -24.2530  -13.1670   20.7560 C   0  0  0  0  0  0  0  0  0  0  0  0
  -24.7140  -11.8160   20.6970 C   0  0  0  0  0  0  0  0  0  0  0  0
  -26.3310  -13.0660   20.0450 N   0  0  0  0  0  0  0  0  0  0  0  0
  -25.9880  -11.7810   20.3180 N   0  0  0  0  0  0  0  0  0  0  0  0
  -23.9990  -10.5510   20.9140 C   0  0  0  0  0  0  0  0  0  0  0  0
  -24.4560   -9.5930   21.8450 C   0  0  0  0  0  3  0  0  0  0  0  0
  -23.7380   -8.3960   22.0510 C   0  0  0  0  0  3  0  0  0  0  0  0
  -22.5470   -8.1510   21.3290 C   0  0  0  0  0  0  0  0  0  0  0  0
  -22.1080   -9.0970   20.3850 C   0  0  0  0  0  3  0  0  0  0  0  0
  -22.8280  -10.2860   20.1750 C   0  0  0  0  0  3  0  0  0  0  0  0
  -21.7980   -7.0050   21.4420 O   0  0  0  0  0  0  0  0  0  0  0  0
  -21.7520   -6.2860   22.6080 C   0  0  0  0  0  0  0  0  0  0  0  0
  -21.3380   -6.8670   23.8270 C   0  0  0  0  0  3  0  0  0  0  0  0
  -21.2440   -6.0750   24.9890 C   0  0  0  0  0  3  0  0  0  0  0  0
  -21.5490   -4.7020   24.9310 C   0  0  0  0  0  0  0  0  0  0  0  0
  -21.9530   -4.1200   23.7180 C   0  0  0  0  0  3  0  0  0  0  0  0
  -22.0520   -4.9090   22.5580 C   0  0  0  0  0  0  0  0  0  0  0  0
  -22.4240   -4.3380   21.3860 F   0  0  0  0  0  0  0  0  0  0  0  0
  -21.4520   -3.9400   26.0450 F   0  0  0  0  0  0  0  0  0  0  0  0
  -22.8690  -13.6440   21.0950 C   0  0  0  0  0  0  0  0  0  0  0  0
  -22.1850  -12.9520   21.9990 N   0  0  0  0  0  0  0  0  0  0  0  0
  -22.4050  -14.6680   20.5940 O   0  0  0  0  0  0  0  0  0  0  0  0
  -22.5760  -12.1290   22.4310 H   0  0  0  0  0  0  0  0  0  0  0  0
  -21.2580  -13.2520   22.2630 H   0  0  0  0  0  0  0  0  0  0  0  0
  -25.4570  -15.3160   20.1680 N   0  0  0  0  0  0  0  0  0  0  0  0
  -24.6970  -15.9690   20.3230 H   0  0  0  0  0  0  0  0  0  0  0  0
  -26.2980  -15.7570   19.8150 H   0  0  0  0  0  0  0  0  0  0  0  0
  -29.3840  -23.6150   19.9580 C   0  0  0  0  0  3  0  0  0  0  0  0
  -28.1990  -24.7270   20.3290 C   0  0  0  0  0  3  0  0  0  0  0  0
  -28.3880  -26.2620   20.2300 O   0  0  0  0  0  0  0  0  0  0  0  0
  -24.6550  -31.8660   23.2140 C   0  0  0  0  0  0  0  0  0  0  0  0
  -27.2840  -27.1840   20.2040 C   0  0  0  0  0  0  0  0  0  0  0  0
  -23.4610  -30.4370   21.5970 C   0  0  0  0  0  3  0  0  0  0  0  0
  -24.9190  -28.8660   20.1830 C   0  0  0  0  0  0  0  0  0  0  0  0
  -26.0080  -30.7440   21.4050 C   0  0  0  0  0  2  0  0  0  0  0  0
  -26.0960  -29.3480   20.7670 C   0  0  0  0  0  0  0  0  0  0  0  0
  -27.2810  -28.5240   20.7530 C   0  0  0  0  0  3  0  0  0  0  0  0
  -26.0780  -26.7930   19.5830 C   0  0  0  0  0  3  0  0  0  0  0  0
  -24.9190  -27.6010   19.5780 C   0  0  0  0  0  3  0  0  0  0  0  0
  -23.6780  -29.7430   20.2270 C   0  0  0  0  0  2  0  0  0  0  0  0
  -24.7300  -31.0350   22.1280 N   0  0  0  0  0  0  0  0  0  0  0  0
  -23.5680  -32.1430   23.7440 O   0  0  0  0  0  0  0  0  0  0  0  0
  -22.8000  -29.4320   22.5720 C   0  0  0  0  0  0  0  0  0  0  0  0
  -21.4710  -29.2510   22.4580 N   0  0  0  0  0  0  0  0  0  0  0  0
  -23.4830  -28.8200   23.3960 O   0  0  0  0  0  0  0  0  0  0  0  0
  -20.9760  -29.8020   21.7720 H   0  0  0  0  0  0  0  0  0  0  0  0
  -18.1060  -28.0190   22.9860 C   0  0  0  0  0  0  0  0  0  0  0  0
  -20.6630  -28.3130   23.2410 C   0  0  0  0  0  3  0  0  0  0  0  0
  -20.7750  -26.8750   22.6840 C   0  0  0  0  0  2  0  0  0  0  0  0
  -19.6760  -26.5260   21.6760 C   0  0  0  0  0  2  0  0  0  0  0  0
  -18.2940  -26.6630   22.3240 C   0  0  0  0  0  2  0  0  0  0  0  0
  -19.2180  -28.8010   23.4000 C   0  0  0  0  0  0  0  0  0  0  0  0
  -18.9870  -30.0670   23.9800 C   0  0  0  0  0  3  0  0  0  0  0  0
  -17.6770  -30.5550   24.1460 C   0  0  0  0  0  3  0  0  0  0  0  0
  -16.5790  -29.7730   23.7450 C   0  0  0  0  0  3  0  0  0  0  0  0
  -16.7940  -28.5060   23.1730 C   0  0  0  0  0  3  0  0  0  0  0  0
  -25.9310  -32.5220   23.8280 C   0  0  0  0  0  3  0  0  0  0  0  0
  -25.6040  -33.9180   24.1560 N   0  0  0  0  0  0  0  0  0  0  0  0
  -25.9360  -34.9750   23.4050 C   0  0  0  0  0  0  0  0  0  0  0  0
  -26.6120  -34.8760   22.3770 O   0  0  0  0  0  0  0  0  0  0  0  0
  -25.0000  -34.0700   24.9510 H   0  0  0  0  0  0  0  0  0  0  0  0
  -24.1980  -36.7580   23.0360 C   0  0  0  0  0  1  0  0  0  0  0  0
  -25.4330  -36.3610   23.8610 C   0  0  0  0  0  3  0  0  0  0  0  0
  -27.5540  -37.2490   24.7160 C   0  0  0  0  0  1  0  0  0  0  0  0
  -26.4600  -37.4200   23.7640 N   0  0  0  0  0  0  0  0  0  0  0  0
  -26.0480  -38.3360   23.9150 H   0  0  0  0  0  0  0  0  0  0  0  0
  -26.4590  -31.7660   25.1090 C   0  0  1  0  0  0  0  0  0  0  0  0
  -25.3730  -31.5200   26.1840 C   0  0  0  0  0  1  0  0  0  0  0  0
  -27.0570  -30.3940   24.7250 C   0  0  0  0  0  1  0  0  0  0  0  0
  -27.6040  -32.5760   25.7570 C   0  0  0  0  0  1  0  0  0  0  0  0
  1  2  1  0
  3  1  2  0
  4  2  2  0
  5  7  2  0
  5  3  1  0
  6  5  1  0
  7  4  1  0
  8 19  1  0
  9 14  1  0
 10 11  1  0
 10  9  1  0
 12 11  1  0
 12 23  1  0
 12 13  1  0
 14  8  1  0
 14 13  1  0
 15  8  2  0
 17 16  1  0
 18  4  1  0
 18 16  1  0
 19 18  1  0
 19 17  1  0
 20 21  2  0
 21 40  1  0
 22 21  1  0
 22 25  1  0
 23 24  1  0
 23 20  1  0
 24 22  2  0
 25 26  1  0
 26 27  2  0
 28 31  1  0
 28 27  1  0
 29 28  2  0
 30 29  1  0
 30 25  2  0
 31 32  1  0
 32 33  1  0
 33 34  2  0
 35 34  1  0
 35 39  1  0
 36 35  2  0
 37 32  2  0
 37 36  1  0
 38 37  1  0
 40 41  1  0
 41 44  1  0
 41 43  1  0
 42 40  2  0
 45 46  1  0
 45 20  1  0
 47 45  1  0
 48  3  1  0
 48 49  2  0
 50 49  1  0
 51 62  2  0
 52 50  1  0
 52 57  1  0
 53 61  1  0
 53 63  1  0
 54 60  1  0
 54 56  1  0
 55 61  1  0
 56 55  1  0
 57 56  2  0
 58 52  2  0
 59 58  1  0
 59 54  2  0
 60 53  1  0
 61 51  1  0
 63 65  2  0
 64 63  1  0
 66 64  1  0
 67 76  2  0
 67 72  1  0
 68 64  1  0
 68 72  1  0
 69 68  1  0
 70 71  1  0
 70 69  1  0
 71 67  1  0
 72 73  2  0
 73 74  1  0
 75 74  2  0
 76 75  1  0
 77 51  1  0
 77 78  1  0
 77 87  1  0
 78 81  1  0
 79 83  1  0
 79 78  1  0
 80 79  2  0
 83 82  1  0
 85 83  1  0
 85 86  1  0
 85 84  1  0
 87 90  1  1
 87 88  1  0
 89 87  1  0
M  ISO  4   8 100  19 100  49 101  50 101
M  END
>  <TORSDO>  (24) 
F 18

>  <SCORE>  (24) 
-13.764

>  <name>  (24) 
23

>  <ligand_id>  (24) 
23

>  <original_smiles>  (24) 
[H]c1c(C2([H])N(C(=O)N3C([H])([H])C([H])([H])C([H])([H])C([H])(n4nc(-c5c([H])c([H])c(Oc6c([H])c([H])c(F)c([H])c6F)c([H])c5[H])c(C(=O)N([H])[H])c4N([H])[H])C3([H])[H])C([H])([H])C2([H])[H])nc(C([H])([H])[H])c(C([H])([H])C([H])([H])Oc2c([H])c([H])c3c(c2[H])C([H])([H])N(C(=O)C([H])(N([H])C(=O)C([H])(N([H])C([H])([H])[H])C([H])([H])[H])C(C([H])([H])[H])(C([H])([H])[H])C([H])([H])[H])C([H])(C(=O)N([H])C2([H])c4c([H])c([H])c([H])c([H])c4C([H])([H])C([H])([H])C2([H])[H])C3([H])[H])c1[H]

>  <smiles>  (24) 
[H]c1c(C2([H])N(C(=O)N3C([H])([H])C([H])([H])C([H])([H])C([H])(n4nc(-c5c([H])c([H])c(Oc6c([H])c([H])c(F)c([H])c6F)c([H])c5[H])c(C(=O)N([H])[H])c4N([H])[H])C3([H])[H])C([H])([H])C2([H])[H])nc(C([H])([H])[H])c(C([H])([H])C([H])([H])Oc2c([H])c([H])c3c(c2[H])C([H])([H])N(C(=O)C([H])(N([H])C(=O)C([H])(N([H])C([H])([H])[H])C([H])([H])[H])C(C([H])([H])[H])(C([H])([H])[H])C([H])([H])[H])C([H])(C(=O)N([H])C2([H])c4c([H])c([H])c([H])c([H])c4C([H])([H])C([H])([H])C2([H])[H])C3([H])[H])c1[H]

$$$$
24:0:0
     RDKit          3D

 98107  0  0  1  0  0  0  0  0999 V2000
  -29.3740  -23.1790   21.2810 C   0  0  0  0  0  3  0  0  0  0  0  0
  -28.6150  -22.8560   19.0400 C   0  0  0  0  0  3  0  0  0  0  0  0
  -29.3370  -20.9850   20.3560 C   0  0  0  0  0  0  0  0  0  0  0  0
  -29.8040  -24.1530   22.3670 C   0  0  0  0  0  1  0  0  0  0  0  0
  -29.6010  -21.8950   21.4570 N   0  0  0  0  0  0  0  0  0  0  0  0
  -28.8180  -21.5580   19.1140 N   0  0  0  0  0  0  0  0  0  0  0  0
  -29.6510  -19.7140   20.5220 N   0  0  0  0  0  2  0  0  0  0  0  0
  -28.7960  -23.7520   20.1290 N   0  0  0  0  0  0  0  0  0  0  0  0
  -28.2420  -23.4030   17.8200 N   0  0  0  0  0  0  0  0  0  0  0  0
  -28.1680  -22.8570   16.9690 H   0  0  0  0  0  0  0  0  0  0  0  0
  -28.1210  -24.3890   17.6180 H   0  0  0  0  0  0  0  0  0  0  0  0
  -30.6890  -19.1160   18.3690 C   0  0  0  0  0  2  0  0  0  0  0  0
  -31.9140  -17.5820   19.7180 C   0  0  0  0  0  2  0  0  0  0  0  0
  -29.6670  -18.6440   19.4450 C   0  0  0  0  0  3  0  0  0  0  0  0
  -30.4110  -17.2170   19.7170 C   0  0  0  0  0  3  0  0  0  0  0  0
  -31.9990  -18.8670   19.0020 N   0  0  0  0  0  4  0  0  0  0  0  0
  -32.1470  -19.5910   19.6860 H   0  0  0  0  0  0  0  0  0  0  0  0
  -32.7590  -18.8840   18.3440 H   0  0  0  0  0  0  0  0  0  0  0  0
  -30.6360  -14.7150   20.3470 C   0  0  0  0  0  0  0  0  0  0  0  0
  -30.3380  -12.4440   19.3800 C   0  0  0  0  0  2  0  0  0  0  0  0
  -29.4360  -12.5910   18.1380 C   0  0  0  0  0  2  0  0  0  0  0  0
  -27.9530  -12.4550   18.5440 C   0  0  0  0  0  2  0  0  0  0  0  0
  -27.5940  -13.3090   19.7950 C   0  0  0  0  0  3  0  0  0  0  0  0
  -28.6500  -13.2100   20.9180 C   0  0  0  0  0  2  0  0  0  0  0  0
  -29.9500  -13.5250   20.3200 N   0  0  0  0  0  0  0  0  0  0  0  0
  -31.8260  -14.7170   20.0330 O   0  0  0  0  0  0  0  0  0  0  0  0
  -29.9540  -15.9280   20.4210 N   0  0  0  0  0  0  0  0  0  0  0  0
  -28.9900  -15.8820   20.7150 H   0  0  0  0  0  0  0  0  0  0  0  0
  -25.2060  -13.8990   20.5140 C   0  0  0  0  0  0  0  0  0  0  0  0
  -24.1410  -13.1260   20.8860 C   0  0  0  0  0  0  0  0  0  0  0  0
  -24.6010  -11.7740   20.8610 C   0  0  0  0  0  0  0  0  0  0  0  0
  -26.2490  -13.0180   20.2830 N   0  0  0  0  0  0  0  0  0  0  0  0
  -25.8920  -11.7350   20.5520 N   0  0  0  0  0  0  0  0  0  0  0  0
  -23.8690  -10.5150   21.0550 C   0  0  0  0  0  0  0  0  0  0  0  0
  -24.3060   -9.5430   21.9810 C   0  0  0  0  0  3  0  0  0  0  0  0
  -23.5730   -8.3490   22.1650 C   0  0  0  0  0  3  0  0  0  0  0  0
  -22.3910   -8.1210   21.4220 C   0  0  0  0  0  0  0  0  0  0  0  0
  -21.9730   -9.0820   20.4840 C   0  0  0  0  0  3  0  0  0  0  0  0
  -22.7060  -10.2660   20.2990 C   0  0  0  0  0  3  0  0  0  0  0  0
  -21.6300   -6.9810   21.5170 O   0  0  0  0  0  0  0  0  0  0  0  0
  -21.6020   -6.2240   22.6620 C   0  0  0  0  0  0  0  0  0  0  0  0
  -21.2200   -6.7710   23.9060 C   0  0  0  0  0  3  0  0  0  0  0  0
  -21.1390   -5.9450   25.0440 C   0  0  0  0  0  3  0  0  0  0  0  0
  -21.4260   -4.5700   24.9370 C   0  0  0  0  0  0  0  0  0  0  0  0
  -21.7970   -4.0210   23.6980 C   0  0  0  0  0  3  0  0  0  0  0  0
  -21.8810   -4.8460   22.5620 C   0  0  0  0  0  0  0  0  0  0  0  0
  -22.2220   -4.3080   21.3650 F   0  0  0  0  0  0  0  0  0  0  0  0
  -21.3390   -3.7730   26.0280 F   0  0  0  0  0  0  0  0  0  0  0  0
  -22.7450  -13.6070   21.1580 C   0  0  0  0  0  0  0  0  0  0  0  0
  -22.0170  -12.9170   22.0280 N   0  0  0  0  0  0  0  0  0  0  0  0
  -22.3100  -14.6310   20.6340 O   0  0  0  0  0  0  0  0  0  0  0  0
  -22.3830  -12.0890   22.4750 H   0  0  0  0  0  0  0  0  0  0  0  0
  -21.0780  -13.2190   22.2540 H   0  0  0  0  0  0  0  0  0  0  0  0
  -25.3670  -15.2710   20.3310 N   0  0  0  0  0  0  0  0  0  0  0  0
  -24.5860  -15.9130   20.4110 H   0  0  0  0  0  0  0  0  0  0  0  0
  -26.2160  -15.7150   20.0020 H   0  0  0  0  0  0  0  0  0  0  0  0
  -27.8480  -24.9290   20.3170 C   0  0  0  0  0  2  0  0  0  0  0  0
  -28.2540  -26.3660   20.1290 O   0  0  0  0  0  0  0  0  0  0  0  0
  -24.6200  -31.8860   23.2260 C   0  0  0  0  0  0  0  0  0  0  0  0
  -27.1800  -27.2920   20.1170 C   0  0  0  0  0  0  0  0  0  0  0  0
  -23.3990  -30.4920   21.6000 C   0  0  0  0  0  3  0  0  0  0  0  0
  -24.8300  -28.9450   20.1640 C   0  0  0  0  0  0  0  0  0  0  0  0
  -25.9470  -30.7900   21.4030 C   0  0  0  0  0  2  0  0  0  0  0  0
  -26.0160  -29.4110   20.7490 C   0  0  0  0  0  0  0  0  0  0  0  0
  -27.1960  -28.5970   20.7200 C   0  0  0  0  0  3  0  0  0  0  0  0
  -25.9700  -26.9160   19.4880 C   0  0  0  0  0  3  0  0  0  0  0  0
  -24.8100  -27.6980   19.5340 C   0  0  0  0  0  3  0  0  0  0  0  0
  -23.6000  -29.8230   20.2210 C   0  0  0  0  0  2  0  0  0  0  0  0
  -24.6740  -31.0770   22.1300 N   0  0  0  0  0  0  0  0  0  0  0  0
  -23.5410  -32.1650   23.7720 O   0  0  0  0  0  0  0  0  0  0  0  0
  -22.7420  -29.4740   22.5620 C   0  0  0  0  0  0  0  0  0  0  0  0
  -21.4160  -29.2900   22.4420 N   0  0  0  0  0  0  0  0  0  0  0  0
  -23.4230  -28.8540   23.3830 O   0  0  0  0  0  0  0  0  0  0  0  0
  -20.9200  -29.8420   21.7560 H   0  0  0  0  0  0  0  0  0  0  0  0
  -18.0440  -28.0810   22.9580 C   0  0  0  0  0  0  0  0  0  0  0  0
  -20.6020  -28.3530   23.2210 C   0  0  0  0  0  3  0  0  0  0  0  0
  -20.7100  -26.9190   22.6530 C   0  0  0  0  0  2  0  0  0  0  0  0
  -19.6090  -26.5880   21.6410 C   0  0  0  0  0  2  0  0  0  0  0  0
  -18.2260  -26.7290   22.2860 C   0  0  0  0  0  2  0  0  0  0  0  0
  -19.1600  -28.8510   23.3800 C   0  0  0  0  0  0  0  0  0  0  0  0
  -18.9370  -30.1160   23.9660 C   0  0  0  0  0  3  0  0  0  0  0  0
  -17.6310  -30.6140   24.1280 C   0  0  0  0  0  3  0  0  0  0  0  0
  -16.5300  -29.8420   23.7220 C   0  0  0  0  0  3  0  0  0  0  0  0
  -16.7360  -28.5750   23.1460 C   0  0  0  0  0  3  0  0  0  0  0  0
  -25.9100  -32.5170   23.8370 C   0  0  0  0  0  3  0  0  0  0  0  0
  -25.6030  -33.9130   24.1770 N   0  0  0  0  0  0  0  0  0  0  0  0
  -25.9270  -34.9700   23.4180 C   0  0  0  0  0  0  0  0  0  0  0  0
  -26.5820  -34.8720   22.3780 O   0  0  0  0  0  0  0  0  0  0  0  0
  -25.0240  -34.0640   24.9900 H   0  0  0  0  0  0  0  0  0  0  0  0
  -24.1930  -36.7610   23.0900 C   0  0  0  0  0  1  0  0  0  0  0  0
  -25.4420  -36.3550   23.8880 C   0  0  0  0  0  3  0  0  0  0  0  0
  -27.5850  -37.2340   24.6990 C   0  0  0  0  0  1  0  0  0  0  0  0
  -26.4720  -37.4090   23.7700 N   0  0  0  0  0  0  0  0  0  0  0  0
  -26.0670  -38.3270   23.9320 H   0  0  0  0  0  0  0  0  0  0  0  0
  -26.4380  -31.7410   25.1040 C   0  0  1  0  0  0  0  0  0  0  0  0
  -25.3580  -31.5050   26.1850 C   0  0  0  0  0  1  0  0  0  0  0  0
  -27.0150  -30.3610   24.7040 C   0  0  0  0  0  1  0  0  0  0  0  0
  -27.5970  -32.5310   25.7560 C   0  0  0  0  0  1  0  0  0  0  0  0
  1  5  1  0
  1  4  1  0
  2  9  1  0
  2  6  1  0
  2  8  1  0
  3  7  1  0
  3  5  2  0
  6  3  2  0
  8 57  1  0
  8  1  1  0
 10  9  1  0
 11  9  1  0
 12 16  1  0
 12 14  1  0
 14 15  1  0
 14  7  1  0
 15 13  1  0
 15 27  1  0
 16 17  1  0
 16 13  1  0
 18 16  1  0
 19 27  1  0
 20 25  1  0
 21 22  1  0
 21 20  1  0
 23 22  1  0
 23 32  1  0
 23 24  1  0
 25 19  1  0
 25 24  1  0
 26 19  2  0
 27 28  1  0
 29 30  2  0
 30 49  1  0
 31 30  1  0
 31 34  1  0
 32 29  1  0
 32 33  1  0
 33 31  2  0
 34 35  1  0
 35 36  2  0
 37 40  1  0
 37 36  1  0
 38 37  2  0
 39 38  1  0
 39 34  2  0
 40 41  1  0
 41 42  1  0
 42 43  2  0
 44 43  1  0
 44 48  1  0
 45 44  2  0
 46 41  2  0
 46 45  1  0
 47 46  1  0
 49 50  1  0
 50 53  1  0
 50 52  1  0
 51 49  2  0
 54 55  1  0
 54 29  1  0
 56 54  1  0
 58 57  1  0
 59 70  2  0
 60 58  1  0
 60 65  1  0
 61 69  1  0
 61 71  1  0
 62 68  1  0
 62 64  1  0
 63 69  1  0
 64 63  1  0
 65 64  2  0
 66 67  1  0
 66 60  2  0
 67 62  2  0
 68 61  1  0
 69 59  1  0
 71 73  2  0
 72 71  1  0
 74 72  1  0
 75 84  2  0
 75 80  1  0
 76 72  1  0
 76 80  1  0
 77 76  1  0
 78 79  1  0
 78 77  1  0
 79 75  1  0
 80 81  2  0
 81 82  1  0
 83 82  2  0
 84 83  1  0
 85 59  1  0
 85 86  1  0
 85 95  1  0
 86 89  1  0
 87 91  1  0
 87 86  1  0
 88 87  2  0
 91 90  1  0
 93 91  1  0
 93 94  1  0
 93 92  1  0
 95 98  1  1
 95 96  1  0
 97 95  1  0
M  ISO  4  19 100  27 100  57 101  58 101
M  END
>  <TORSDO>  (25) 
F 18

>  <SCORE>  (25) 
-14.882

>  <name>  (25) 
24

>  <ligand_id>  (25) 
24

>  <original_smiles>  (25) 
[H]c1c([H])c([H])c2c(c1[H])C([H])([H])C([H])([H])C([H])([H])C2([H])N([H])C(=O)C1([H])N(C(=O)C([H])(N([H])C(=O)C([H])(N([H])C([H])([H])[H])C([H])([H])[H])C(C([H])([H])[H])(C([H])([H])[H])C([H])([H])[H])C([H])([H])c2c([H])c(OC([H])([H])n3c(N([H])[H])nc(=NC4([H])C([H])(N([H])C(=O)N5C([H])([H])C([H])([H])C([H])([H])C([H])(n6nc(-c7c([H])c([H])c(Oc8c([H])c([H])c(F)c([H])c8F)c([H])c7[H])c(C(=O)N([H])[H])c6N([H])[H])C5([H])[H])C([H])([H])[N+]([H])([H])C4([H])[H])nc3C([H])([H])[H])c([H])c([H])c2C1([H])[H]

>  <smiles>  (25) 
[H]c1c([H])c([H])c2c(c1[H])C([H])([H])C([H])([H])C([H])([H])C2([H])N([H])C(=O)C1([H])N(C(=O)C([H])(N([H])C(=O)C([H])(N([H])C([H])([H])[H])C([H])([H])[H])C(C([H])([H])[H])(C([H])([H])[H])C([H])([H])[H])C([H])([H])c2c([H])c(OC([H])([H])n3c(N([H])[H])nc(=NC4([H])C([H])(N([H])C(=O)N5C([H])([H])C([H])([H])C([H])([H])C([H])(n6nc(-c7c([H])c([H])c(Oc8c([H])c([H])c(F)c([H])c8F)c([H])c7[H])c(C(=O)N([H])[H])c6N([H])[H])C5([H])[H])C([H])([H])[N+]([H])([H])C4([H])[H])nc3C([H])([H])[H])c([H])c([H])c2C1([H])[H]

$$$$
25:0:0
     RDKit          3D

 92101  0  0  1  0  0  0  0  0999 V2000
  -29.2320  -23.7210   18.7270 C   0  0  0  0  0  3  0  0  0  0  0  0
  -29.7170  -22.5420   18.1380 C   0  0  0  0  0  0  0  0  0  0  0  0
  -28.8100  -23.6710   20.0620 C   0  0  0  0  0  0  0  0  0  0  0  0
  -29.3960  -21.3330   20.0690 C   0  0  0  0  0  0  0  0  0  0  0  0
  -30.1890  -22.5310   16.6990 C   0  0  0  0  0  1  0  0  0  0  0  0
  -29.7820  -21.3670   18.8030 N   0  0  0  0  0  0  0  0  0  0  0  0
  -28.9210  -22.4400   20.7190 N   0  0  0  0  0  0  0  0  0  0  0  0
  -29.5620  -20.0640   20.7290 N   0  0  0  0  0  0  0  0  0  0  0  0
  -29.3320  -20.1030   21.7150 H   0  0  0  0  0  0  0  0  0  0  0  0
  -30.6130  -14.8630   20.3280 C   0  0  0  0  0  0  0  0  0  0  0  0
  -30.3930  -12.5620   19.3270 C   0  0  0  0  0  2  0  0  0  0  0  0
  -29.4370  -12.5470   18.1140 C   0  0  0  0  0  2  0  0  0  0  0  0
  -27.9850  -12.3210   18.5730 C   0  0  0  0  0  2  0  0  0  0  0  0
  -27.5950  -13.2400   19.7560 C   0  0  0  0  0  3  0  0  0  0  0  0
  -28.6760  -13.2420   20.8660 C   0  0  0  0  0  2  0  0  0  0  0  0
  -29.9420  -13.6480   20.2370 N   0  0  0  0  0  0  0  0  0  0  0  0
  -31.8250  -14.8640   20.0890 O   0  0  0  0  0  0  0  0  0  0  0  0
  -28.2610  -17.9160   20.3820 C   0  0  0  0  0  2  0  0  0  0  0  0
  -28.5460  -16.4040   20.2040 C   0  0  0  0  0  2  0  0  0  0  0  0
  -30.5610  -17.4950   20.6680 C   0  0  0  0  0  2  0  0  0  0  0  0
  -29.5730  -18.6520   20.1430 C   0  0  0  0  0  3  0  0  0  0  0  0
  -29.9500  -16.1020   20.5090 N   0  0  0  0  0  0  0  0  0  0  0  0
  -25.2200  -13.8420   20.5110 C   0  0  0  0  0  0  0  0  0  0  0  0
  -24.1600  -13.0690   20.8950 C   0  0  0  0  0  0  0  0  0  0  0  0
  -24.6250  -11.7190   20.8630 C   0  0  0  0  0  0  0  0  0  0  0  0
  -26.2630  -12.9600   20.2720 N   0  0  0  0  0  0  0  0  0  0  0  0
  -25.9150  -11.6800   20.5480 N   0  0  0  0  0  0  0  0  0  0  0  0
  -23.9040  -10.4580   21.0540 C   0  0  0  0  0  0  0  0  0  0  0  0
  -24.3480   -9.4880   21.9790 C   0  0  0  0  0  3  0  0  0  0  0  0
  -23.6250   -8.2900   22.1590 C   0  0  0  0  0  3  0  0  0  0  0  0
  -22.4450   -8.0550   21.4150 C   0  0  0  0  0  0  0  0  0  0  0  0
  -22.0210   -9.0140   20.4780 C   0  0  0  0  0  3  0  0  0  0  0  0
  -22.7440  -10.2030   20.2960 C   0  0  0  0  0  3  0  0  0  0  0  0
  -21.6920   -6.9100   21.5060 O   0  0  0  0  0  0  0  0  0  0  0  0
  -21.6600   -6.1610   22.6550 C   0  0  0  0  0  0  0  0  0  0  0  0
  -21.2530   -6.7090   23.8910 C   0  0  0  0  0  3  0  0  0  0  0  0
  -21.1670   -5.8850   25.0310 C   0  0  0  0  0  3  0  0  0  0  0  0
  -21.4810   -4.5170   24.9370 C   0  0  0  0  0  0  0  0  0  0  0  0
  -21.8840   -3.9680   23.7060 C   0  0  0  0  0  3  0  0  0  0  0  0
  -21.9710   -4.7890   22.5680 C   0  0  0  0  0  0  0  0  0  0  0  0
  -22.3390   -4.2520   21.3790 F   0  0  0  0  0  0  0  0  0  0  0  0
  -21.3910   -3.7230   26.0300 F   0  0  0  0  0  0  0  0  0  0  0  0
  -22.7640  -13.5470   21.1700 C   0  0  0  0  0  0  0  0  0  0  0  0
  -22.0410  -12.8510   22.0400 N   0  0  0  0  0  0  0  0  0  0  0  0
  -22.3250  -14.5730   20.6520 O   0  0  0  0  0  0  0  0  0  0  0  0
  -22.4100  -12.0230   22.4830 H   0  0  0  0  0  0  0  0  0  0  0  0
  -21.1050  -13.1550   22.2670 H   0  0  0  0  0  0  0  0  0  0  0  0
  -25.3640  -15.2120   20.3190 N   0  0  0  0  0  0  0  0  0  0  0  0
  -24.5860  -15.8510   20.4330 H   0  0  0  0  0  0  0  0  0  0  0  0
  -26.1960  -15.6600   19.9590 H   0  0  0  0  0  0  0  0  0  0  0  0
  -28.1310  -24.9640   20.7270 C   0  0  0  0  0  2  0  0  0  0  0  0
  -28.3410  -26.3700   20.2000 O   0  0  0  0  0  0  0  0  0  0  0  0
  -24.6090  -31.8660   23.2120 C   0  0  0  0  0  0  0  0  0  0  0  0
  -27.2420  -27.2650   20.1860 C   0  0  0  0  0  0  0  0  0  0  0  0
  -23.4190  -30.4670   21.5650 C   0  0  0  0  0  3  0  0  0  0  0  0
  -24.8820  -28.9100   20.1490 C   0  0  0  0  0  0  0  0  0  0  0  0
  -25.9630  -30.7780   21.3980 C   0  0  0  0  0  2  0  0  0  0  0  0
  -26.0510  -29.3940   20.7530 C   0  0  0  0  0  0  0  0  0  0  0  0
  -27.2360  -28.5860   20.7540 C   0  0  0  0  0  3  0  0  0  0  0  0
  -26.0520  -26.8510   19.5520 C   0  0  0  0  0  3  0  0  0  0  0  0
  -24.8880  -27.6470   19.5370 C   0  0  0  0  0  3  0  0  0  0  0  0
  -23.6440  -29.7890   20.1880 C   0  0  0  0  0  2  0  0  0  0  0  0
  -24.6830  -31.0560   22.1160 N   0  0  0  0  0  0  0  0  0  0  0  0
  -23.5210  -32.1440   23.7400 O   0  0  0  0  0  0  0  0  0  0  0  0
  -22.7480  -29.4530   22.5230 C   0  0  0  0  0  0  0  0  0  0  0  0
  -21.4200  -29.2870   22.3980 N   0  0  0  0  0  0  0  0  0  0  0  0
  -23.4220  -28.8170   23.3380 O   0  0  0  0  0  0  0  0  0  0  0  0
  -20.9340  -29.8500   21.7140 H   0  0  0  0  0  0  0  0  0  0  0  0
  -18.0340  -28.1150   22.9120 C   0  0  0  0  0  0  0  0  0  0  0  0
  -20.5960  -28.3500   23.1670 C   0  0  0  0  0  3  0  0  0  0  0  0
  -20.6810  -26.9230   22.5770 C   0  0  0  0  0  2  0  0  0  0  0  0
  -19.5690  -26.6200   21.5680 C   0  0  0  0  0  2  0  0  0  0  0  0
  -18.1930  -26.7700   22.2220 C   0  0  0  0  0  2  0  0  0  0  0  0
  -19.1610  -28.8630   23.3410 C   0  0  0  0  0  0  0  0  0  0  0  0
  -18.9580  -30.1220   23.9470 C   0  0  0  0  0  3  0  0  0  0  0  0
  -17.6580  -30.6310   24.1290 C   0  0  0  0  0  3  0  0  0  0  0  0
  -16.5440  -29.8800   23.7150 C   0  0  0  0  0  3  0  0  0  0  0  0
  -16.7330  -28.6240   23.1140 C   0  0  0  0  0  3  0  0  0  0  0  0
  -25.8860  -32.5030   23.8430 C   0  0  0  0  0  3  0  0  0  0  0  0
  -25.5670  -33.8980   24.1820 N   0  0  0  0  0  0  0  0  0  0  0  0
  -25.8920  -34.9590   23.4310 C   0  0  0  0  0  0  0  0  0  0  0  0
  -26.5590  -34.8660   22.3960 O   0  0  0  0  0  0  0  0  0  0  0  0
  -24.9740  -34.0430   24.9850 H   0  0  0  0  0  0  0  0  0  0  0  0
  -24.1530  -36.7470   23.0950 C   0  0  0  0  0  1  0  0  0  0  0  0
  -25.3990  -36.3420   23.8990 C   0  0  0  0  0  3  0  0  0  0  0  0
  -27.5320  -37.2320   24.7300 C   0  0  0  0  0  1  0  0  0  0  0  0
  -26.4270  -37.4010   23.7910 N   0  0  0  0  0  0  0  0  0  0  0  0
  -26.0160  -38.3180   23.9440 H   0  0  0  0  0  0  0  0  0  0  0  0
  -26.4000  -31.7280   25.1190 C   0  0  1  0  0  0  0  0  0  0  0  0
  -25.3040  -31.4840   26.1830 C   0  0  0  0  0  1  0  0  0  0  0  0
  -26.9880  -30.3540   24.7270 C   0  0  0  0  0  1  0  0  0  0  0  0
  -27.5450  -32.5230   25.7880 C   0  0  0  0  0  1  0  0  0  0  0  0
  1  3  1  0
  2  1  2  0
  2  6  1  0
  3  7  2  0
  3 51  1  0
  4  7  1  0
  4  8  1  0
  5  2  1  0
  6  4  2  0
  8  9  1  0
 10 22  1  0
 11 16  1  0
 12 13  1  0
 12 11  1  0
 14 13  1  0
 14 26  1  0
 14 15  1  0
 16 10  1  0
 16 15  1  0
 17 10  2  0
 19 18  1  0
 19 22  1  0
 21 18  1  0
 21 20  1  0
 21  8  1  0
 22 20  1  0
 23 24  2  0
 24 43  1  0
 25 24  1  0
 25 28  1  0
 26 23  1  0
 26 27  1  0
 27 25  2  0
 28 29  1  0
 29 30  2  0
 31 34  1  0
 31 30  1  0
 32 31  2  0
 33 32  1  0
 33 28  2  0
 34 35  1  0
 35 36  1  0
 36 37  2  0
 38 37  1  0
 38 42  1  0
 39 38  2  0
 40 35  2  0
 40 39  1  0
 41 40  1  0
 43 44  1  0
 44 47  1  0
 44 46  1  0
 45 43  2  0
 48 49  1  0
 48 23  1  0
 50 48  1  0
 52 51  1  0
 53 64  2  0
 54 52  1  0
 54 59  1  0
 55 63  1  0
 55 65  1  0
 56 62  1  0
 56 58  1  0
 57 63  1  0
 58 59  2  0
 58 57  1  0
 60 54  2  0
 61 60  1  0
 61 56  2  0
 62 55  1  0
 63 53  1  0
 65 67  2  0
 66 65  1  0
 68 66  1  0
 69 78  2  0
 69 74  1  0
 70 66  1  0
 70 74  1  0
 71 70  1  0
 72 73  1  0
 72 71  1  0
 73 69  1  0
 74 75  2  0
 75 76  1  0
 77 76  2  0
 78 77  1  0
 79 53  1  0
 79 80  1  0
 79 89  1  0
 80 83  1  0
 81 85  1  0
 81 80  1  0
 82 81  2  0
 85 84  1  0
 87 85  1  0
 87 88  1  0
 87 86  1  0
 89 92  1  1
 89 90  1  0
 91 89  1  0
M  ISO  4  10 100  22 100  51 101  52 101
M  END
>  <TORSDO>  (26) 
F 17

>  <SCORE>  (26) 
-15.300

>  <name>  (26) 
25

>  <ligand_id>  (26) 
25

>  <original_smiles>  (26) 
[H]c1c(C([H])([H])[H])nc(N([H])C2([H])C([H])([H])N(C(=O)N3C([H])([H])C([H])([H])C([H])([H])C([H])(n4nc(-c5c([H])c([H])c(Oc6c([H])c([H])c(F)c([H])c6F)c([H])c5[H])c(C(=O)N([H])[H])c4N([H])[H])C3([H])[H])C([H])([H])C2([H])[H])nc1C([H])([H])Oc1c([H])c([H])c2c(c1[H])C([H])([H])N(C(=O)C([H])(N([H])C(=O)C([H])(N([H])C([H])([H])[H])C([H])([H])[H])C(C([H])([H])[H])(C([H])([H])[H])C([H])([H])[H])C([H])(C(=O)N([H])C1([H])c3c([H])c([H])c([H])c([H])c3C([H])([H])C([H])([H])C1([H])[H])C2([H])[H]

>  <smiles>  (26) 
[H]c1c(C([H])([H])[H])nc(N([H])C2([H])C([H])([H])N(C(=O)N3C([H])([H])C([H])([H])C([H])([H])C([H])(n4nc(-c5c([H])c([H])c(Oc6c([H])c([H])c(F)c([H])c6F)c([H])c5[H])c(C(=O)N([H])[H])c4N([H])[H])C3([H])[H])C([H])([H])C2([H])[H])nc1C([H])([H])Oc1c([H])c([H])c2c(c1[H])C([H])([H])N(C(=O)C([H])(N([H])C(=O)C([H])(N([H])C([H])([H])[H])C([H])([H])[H])C(C([H])([H])[H])(C([H])([H])[H])C([H])([H])[H])C([H])(C(=O)N([H])C1([H])c3c([H])c([H])c([H])c([H])c3C([H])([H])C([H])([H])C1([H])[H])C2([H])[H]

$$$$
26:0:0
     RDKit          3D

 90 99  0  0  1  0  0  0  0  0999 V2000
  -28.7880  -21.2220   21.2550 C   0  0  0  0  0  3  0  0  0  0  0  0
  -29.2260  -20.4090   20.1600 C   0  0  0  0  0  0  0  0  0  0  0  0
  -29.4420  -21.2700   19.0370 C   0  0  0  0  0  0  0  0  0  0  0  0
  -28.7170  -23.3160   20.0930 C   0  0  0  0  0  0  0  0  0  0  0  0
  -29.9050  -20.6850   17.7170 C   0  0  0  0  0  1  0  0  0  0  0  0
  -28.5360  -22.5860   21.2150 N   0  0  0  0  0  0  0  0  0  0  0  0
  -29.1920  -22.6370   19.0200 N   0  0  0  0  0  0  0  0  0  0  0  0
  -30.6760  -15.0020   19.9450 C   0  0  0  0  0  0  0  0  0  0  0  0
  -30.4470  -12.6930   18.9270 C   0  0  0  0  0  2  0  0  0  0  0  0
  -29.4280  -12.6960   17.7660 C   0  0  0  0  0  2  0  0  0  0  0  0
  -27.9980  -12.4690   18.2940 C   0  0  0  0  0  2  0  0  0  0  0  0
  -27.6820  -13.3420   19.5370 C   0  0  0  0  0  3  0  0  0  0  0  0
  -28.8240  -13.2930   20.5770 C   0  0  0  0  0  2  0  0  0  0  0  0
  -30.0410  -13.7570   19.8930 N   0  0  0  0  0  0  0  0  0  0  0  0
  -31.8330  -15.0450   19.5110 O   0  0  0  0  0  0  0  0  0  0  0  0
  -28.7950  -18.0300   21.4340 C   0  0  0  0  0  2  0  0  0  0  0  0
  -28.9550  -16.4890   21.1870 C   0  0  0  0  0  2  0  0  0  0  0  0
  -30.3340  -17.6730   19.7020 C   0  0  0  0  0  2  0  0  0  0  0  0
  -29.1970  -18.7520   20.1410 C   0  0  0  0  0  3  0  0  0  0  0  0
  -29.9800  -16.2340   20.1600 N   0  0  0  0  0  0  0  0  0  0  0  0
  -25.3550  -13.8780   20.4600 C   0  0  0  0  0  0  0  0  0  0  0  0
  -24.3250  -13.0830   20.8810 C   0  0  0  0  0  0  0  0  0  0  0  0
  -24.7920  -11.7380   20.7660 C   0  0  0  0  0  0  0  0  0  0  0  0
  -26.3840  -13.0170   20.1170 N   0  0  0  0  0  0  0  0  0  0  0  0
  -26.0580  -11.7220   20.3640 N   0  0  0  0  0  0  0  0  0  0  0  0
  -24.0840  -10.4650   20.9580 C   0  0  0  0  0  0  0  0  0  0  0  0
  -24.5390   -9.4990   21.8830 C   0  0  0  0  0  3  0  0  0  0  0  0
  -23.8290   -8.2930   22.0650 C   0  0  0  0  0  3  0  0  0  0  0  0
  -22.6490   -8.0440   21.3250 C   0  0  0  0  0  0  0  0  0  0  0  0
  -22.2140   -8.9990   20.3890 C   0  0  0  0  0  3  0  0  0  0  0  0
  -22.9240  -10.1960   20.2030 C   0  0  0  0  0  3  0  0  0  0  0  0
  -21.9090   -6.8910   21.4170 O   0  0  0  0  0  0  0  0  0  0  0  0
  -21.8070   -6.1930   22.5940 C   0  0  0  0  0  0  0  0  0  0  0  0
  -21.2970   -6.7860   23.7710 C   0  0  0  0  0  3  0  0  0  0  0  0
  -21.1460   -6.0130   24.9390 C   0  0  0  0  0  3  0  0  0  0  0  0
  -21.4950   -4.6490   24.9330 C   0  0  0  0  0  0  0  0  0  0  0  0
  -21.9970   -4.0570   23.7610 C   0  0  0  0  0  3  0  0  0  0  0  0
  -22.1500   -4.8260   22.5950 C   0  0  0  0  0  0  0  0  0  0  0  0
  -22.6160   -4.2450   21.4630 F   0  0  0  0  0  0  0  0  0  0  0  0
  -21.3420   -3.9050   26.0530 F   0  0  0  0  0  0  0  0  0  0  0  0
  -22.9490  -13.5410   21.2680 C   0  0  0  0  0  0  0  0  0  0  0  0
  -22.2920  -12.8190   22.1690 N   0  0  0  0  0  0  0  0  0  0  0  0
  -22.4690  -14.5770   20.8100 O   0  0  0  0  0  0  0  0  0  0  0  0
  -22.6950  -11.9810   22.5610 H   0  0  0  0  0  0  0  0  0  0  0  0
  -21.3730  -13.1090   22.4700 H   0  0  0  0  0  0  0  0  0  0  0  0
  -25.4880  -15.2550   20.3110 N   0  0  0  0  0  0  0  0  0  0  0  0
  -24.7180  -15.8890   20.4900 H   0  0  0  0  0  0  0  0  0  0  0  0
  -26.2900  -15.7120   19.8980 H   0  0  0  0  0  0  0  0  0  0  0  0
  -27.9080  -24.7430   19.8690 C   0  0  0  0  0  2  0  0  0  0  0  0
  -28.2700  -26.2120   20.2260 O   0  0  0  0  0  0  0  0  0  0  0  0
  -24.6680  -31.8730   23.2910 C   0  0  0  0  0  0  0  0  0  0  0  0
  -27.2350  -27.2190   20.1620 C   0  0  0  0  0  0  0  0  0  0  0  0
  -23.4650  -30.5110   21.6290 C   0  0  0  0  0  3  0  0  0  0  0  0
  -24.9090  -28.9700   20.1710 C   0  0  0  0  0  0  0  0  0  0  0  0
  -26.0200  -30.7730   21.4700 C   0  0  0  0  0  2  0  0  0  0  0  0
  -26.0910  -29.3970   20.7900 C   0  0  0  0  0  0  0  0  0  0  0  0
  -27.2540  -28.5370   20.7740 C   0  0  0  0  0  3  0  0  0  0  0  0
  -26.0260  -26.9070   19.4940 C   0  0  0  0  0  3  0  0  0  0  0  0
  -24.8900  -27.7370   19.5100 C   0  0  0  0  0  3  0  0  0  0  0  0
  -23.6830  -29.8650   20.2360 C   0  0  0  0  0  2  0  0  0  0  0  0
  -24.7380  -31.0730   22.1840 N   0  0  0  0  0  0  0  0  0  0  0  0
  -23.5810  -32.1500   23.8230 O   0  0  0  0  0  0  0  0  0  0  0  0
  -22.7850  -29.4850   22.5700 C   0  0  0  0  0  0  0  0  0  0  0  0
  -21.4580  -29.3120   22.4320 N   0  0  0  0  0  0  0  0  0  0  0  0
  -23.4550  -28.8470   23.3870 O   0  0  0  0  0  0  0  0  0  0  0  0
  -20.9740  -29.8800   21.7510 H   0  0  0  0  0  0  0  0  0  0  0  0
  -18.0750  -28.1010   22.9040 C   0  0  0  0  0  0  0  0  0  0  0  0
  -20.6340  -28.3630   23.1860 C   0  0  0  0  0  3  0  0  0  0  0  0
  -20.7400  -26.9390   22.5930 C   0  0  0  0  0  2  0  0  0  0  0  0
  -19.6430  -26.6290   21.5690 C   0  0  0  0  0  2  0  0  0  0  0  0
  -18.2580  -26.7620   22.2080 C   0  0  0  0  0  2  0  0  0  0  0  0
  -19.1910  -28.8590   23.3490 C   0  0  0  0  0  0  0  0  0  0  0  0
  -18.9650  -30.1120   23.9600 C   0  0  0  0  0  3  0  0  0  0  0  0
  -17.6580  -30.6070   24.1300 C   0  0  0  0  0  3  0  0  0  0  0  0
  -16.5580  -29.8450   23.7000 C   0  0  0  0  0  3  0  0  0  0  0  0
  -16.7680  -28.5940   23.0930 C   0  0  0  0  0  3  0  0  0  0  0  0
  -25.9480  -32.4940   23.9290 C   0  0  0  0  0  3  0  0  0  0  0  0
  -25.6450  -33.8940   24.2650 N   0  0  0  0  0  0  0  0  0  0  0  0
  -25.9520  -34.9480   23.4980 C   0  0  0  0  0  0  0  0  0  0  0  0
  -26.5890  -34.8440   22.4460 O   0  0  0  0  0  0  0  0  0  0  0  0
  -25.0770  -34.0490   25.0850 H   0  0  0  0  0  0  0  0  0  0  0  0
  -24.2020  -36.7350   23.2190 C   0  0  0  0  0  1  0  0  0  0  0  0
  -25.4820  -36.3380   23.9720 C   0  0  0  0  0  3  0  0  0  0  0  0
  -27.6480  -37.2390   24.6980 C   0  0  0  0  0  1  0  0  0  0  0  0
  -26.5030  -37.3950   23.8050 N   0  0  0  0  0  0  0  0  0  0  0  0
  -26.1000  -38.3140   23.9640 H   0  0  0  0  0  0  0  0  0  0  0  0
  -26.4410  -31.7150   25.2090 C   0  0  1  0  0  0  0  0  0  0  0  0
  -25.3340  -31.4860   26.2650 C   0  0  0  0  0  1  0  0  0  0  0  0
  -27.0170  -30.3310   24.8270 C   0  0  0  0  0  1  0  0  0  0  0  0
  -27.5910  -32.4980   25.8850 C   0  0  0  0  0  1  0  0  0  0  0  0
  2  1  2  0
  3  2  1  0
  4  6  2  0
  5  3  1  0
  6  1  1  0
  7  3  2  0
  7  4  1  0
  8 20  1  0
  9 14  1  0
 10 11  1  0
 10  9  1  0
 12 11  1  0
 12 24  1  0
 12 13  1  0
 14  8  1  0
 14 13  1  0
 15  8  2  0
 17 16  1  0
 18 19  1  0
 18 20  1  0
 19  2  1  0
 19 16  1  0
 20 17  1  0
 21 22  2  0
 22 41  1  0
 23 22  1  0
 23 26  1  0
 24 25  1  0
 24 21  1  0
 25 23  2  0
 26 27  1  0
 27 28  2  0
 29 32  1  0
 29 28  1  0
 30 29  2  0
 31 30  1  0
 31 26  2  0
 32 33  1  0
 33 38  2  0
 33 34  1  0
 34 35  2  0
 36 35  1  0
 36 40  1  0
 37 36  2  0
 38 37  1  0
 39 38  1  0
 41 42  1  0
 42 45  1  0
 42 44  1  0
 43 41  2  0
 46 21  1  0
 46 47  1  0
 48 46  1  0
 49  4  1  0
 49 50  1  0
 51 62  2  0
 52 50  1  0
 52 57  1  0
 53 61  1  0
 53 63  1  0
 54 60  1  0
 54 56  1  0
 55 61  1  0
 56 55  1  0
 57 56  2  0
 58 59  1  0
 58 52  2  0
 59 54  2  0
 60 53  1  0
 61 51  1  0
 63 65  2  0
 64 63  1  0
 66 64  1  0
 67 76  2  0
 67 72  1  0
 68 64  1  0
 68 72  1  0
 69 68  1  0
 70 71  1  0
 70 69  1  0
 71 67  1  0
 72 73  2  0
 73 74  1  0
 75 74  2  0
 76 75  1  0
 77 51  1  0
 77 78  1  0
 77 87  1  0
 78 81  1  0
 79 83  1  0
 79 78  1  0
 80 79  2  0
 83 82  1  0
 85 86  1  0
 85 83  1  0
 85 84  1  0
 87 90  1  1
 87 88  1  0
 89 87  1  0
M  ISO  4   8 100  20 100  49 101  50 101
M  END
>  <TORSDO>  (27) 
F 17

>  <SCORE>  (27) 
-14.005

>  <name>  (27) 
26

>  <ligand_id>  (27) 
26

>  <original_smiles>  (27) 
[H]c1nc(C([H])([H])Oc2c([H])c([H])c3c(c2[H])C([H])([H])N(C(=O)C([H])(N([H])C(=O)C([H])(N([H])C([H])([H])[H])C([H])([H])[H])C(C([H])([H])[H])(C([H])([H])[H])C([H])([H])[H])C([H])(C(=O)N([H])C2([H])c4c([H])c([H])c([H])c([H])c4C([H])([H])C([H])([H])C2([H])[H])C3([H])[H])nc(C([H])([H])[H])c1C1([H])C([H])([H])N(C(=O)N2C([H])([H])C([H])([H])C([H])([H])C([H])(n3nc(-c4c([H])c([H])c(Oc5c([H])c([H])c(F)c([H])c5F)c([H])c4[H])c(C(=O)N([H])[H])c3N([H])[H])C2([H])[H])C([H])([H])C1([H])[H]

>  <smiles>  (27) 
[H]c1nc(C([H])([H])Oc2c([H])c([H])c3c(c2[H])C([H])([H])N(C(=O)C([H])(N([H])C(=O)C([H])(N([H])C([H])([H])[H])C([H])([H])[H])C(C([H])([H])[H])(C([H])([H])[H])C([H])([H])[H])C([H])(C(=O)N([H])C2([H])c4c([H])c([H])c([H])c([H])c4C([H])([H])C([H])([H])C2([H])[H])C3([H])[H])nc(C([H])([H])[H])c1C1([H])C([H])([H])N(C(=O)N2C([H])([H])C([H])([H])C([H])([H])C([H])(n3nc(-c4c([H])c([H])c(Oc5c([H])c([H])c(F)c([H])c5F)c([H])c4[H])c(C(=O)N([H])[H])c3N([H])[H])C2([H])[H])C([H])([H])C1([H])[H]

$$$$
27:0:0
     RDKit          3D

 89 97  0  0  1  0  0  0  0  0999 V2000
  -29.4530  -20.8620   21.3670 C   0  0  0  0  0  0  0  0  0  0  0  0
  -28.4020  -21.8780   19.1510 C   0  0  0  0  0  0  0  0  0  0  0  0
  -29.3410  -19.8570   20.3030 C   0  0  0  0  0  0  0  0  0  0  0  0
  -28.5180  -22.8890   20.2080 C   0  0  0  0  0  0  0  0  0  0  0  0
  -30.1030  -20.4600   22.6760 C   0  0  0  0  0  1  0  0  0  0  0  0
  -27.7370  -22.2660   17.8440 C   0  0  0  0  0  1  0  0  0  0  0  0
  -28.8030  -20.5070   19.1920 N   0  0  0  0  0  0  0  0  0  0  0  0
  -29.0500  -22.2380   21.3270 N   0  0  0  0  0  0  0  0  0  0  0  0
  -30.1210  -18.2960   20.2020 C   0  0  0  0  0  2  0  0  0  0  0  0
  -30.4650  -15.4290   20.1250 C   0  0  0  0  0  0  0  0  0  0  0  0
  -30.4150  -13.0060   19.2200 C   0  0  0  0  0  2  0  0  0  0  0  0
  -29.4550  -12.8090   18.0200 C   0  0  0  0  0  2  0  0  0  0  0  0
  -28.0240  -12.5230   18.5090 C   0  0  0  0  0  2  0  0  0  0  0  0
  -27.6030  -13.4760   19.6570 C   0  0  0  0  0  3  0  0  0  0  0  0
  -28.6870  -13.6200   20.7450 C   0  0  0  0  0  2  0  0  0  0  0  0
  -29.8930  -14.1310   20.0770 N   0  0  0  0  0  0  0  0  0  0  0  0
  -31.6750  -15.4390   19.8560 O   0  0  0  0  0  0  0  0  0  0  0  0
  -29.7190  -16.6930   20.2690 N   0  0  0  0  0  0  0  0  0  0  0  0
  -28.7350  -16.5430   20.4320 H   0  0  0  0  0  0  0  0  0  0  0  0
  -25.2630  -14.0000   20.5240 C   0  0  0  0  0  0  0  0  0  0  0  0
  -24.2180  -13.2050   20.9070 C   0  0  0  0  0  0  0  0  0  0  0  0
  -24.6880  -11.8600   20.8100 C   0  0  0  0  0  0  0  0  0  0  0  0
  -26.2970  -13.1380   20.2080 N   0  0  0  0  0  0  0  0  0  0  0  0
  -25.9670  -11.8430   20.4490 N   0  0  0  0  0  0  0  0  0  0  0  0
  -23.9730  -10.5870   20.9820 C   0  0  0  0  0  0  0  0  0  0  0  0
  -24.4070   -9.6140   21.9080 C   0  0  0  0  0  3  0  0  0  0  0  0
  -23.6880   -8.4100   22.0720 C   0  0  0  0  0  3  0  0  0  0  0  0
  -22.5220   -8.1700   21.3070 C   0  0  0  0  0  0  0  0  0  0  0  0
  -22.1070   -9.1330   20.3690 C   0  0  0  0  0  3  0  0  0  0  0  0
  -22.8270  -10.3290   20.2050 C   0  0  0  0  0  3  0  0  0  0  0  0
  -21.7750   -7.0190   21.3780 O   0  0  0  0  0  0  0  0  0  0  0  0
  -21.6770   -6.2950   22.5390 C   0  0  0  0  0  0  0  0  0  0  0  0
  -21.1190   -6.8450   23.7150 C   0  0  0  0  0  3  0  0  0  0  0  0
  -20.9740   -6.0450   24.8660 C   0  0  0  0  0  3  0  0  0  0  0  0
  -21.3770   -4.6960   24.8420 C   0  0  0  0  0  0  0  0  0  0  0  0
  -21.9280   -4.1470   23.6710 C   0  0  0  0  0  3  0  0  0  0  0  0
  -22.0740   -4.9430   22.5220 C   0  0  0  0  0  0  0  0  0  0  0  0
  -22.5860   -4.4030   21.3900 F   0  0  0  0  0  0  0  0  0  0  0  0
  -21.2310   -3.9260   25.9450 F   0  0  0  0  0  0  0  0  0  0  0  0
  -22.8300  -13.6670   21.2420 C   0  0  0  0  0  0  0  0  0  0  0  0
  -22.1380  -12.9410   22.1130 N   0  0  0  0  0  0  0  0  0  0  0  0
  -22.3700  -14.7040   20.7670 O   0  0  0  0  0  0  0  0  0  0  0  0
  -22.5260  -12.1020   22.5180 H   0  0  0  0  0  0  0  0  0  0  0  0
  -21.2070  -13.2300   22.3800 H   0  0  0  0  0  0  0  0  0  0  0  0
  -25.4130  -15.3770   20.3880 N   0  0  0  0  0  0  0  0  0  0  0  0
  -24.6470  -16.0210   20.5540 H   0  0  0  0  0  0  0  0  0  0  0  0
  -26.2350  -15.8300   20.0120 H   0  0  0  0  0  0  0  0  0  0  0  0
  -27.7030  -24.4390   20.2490 C   0  0  0  0  0  2  0  0  0  0  0  0
  -28.1060  -26.0260   20.2780 O   0  0  0  0  0  0  0  0  0  0  0  0
  -24.5980  -31.9770   23.3190 C   0  0  0  0  0  0  0  0  0  0  0  0
  -27.1090  -27.1330   20.2360 C   0  0  0  0  0  0  0  0  0  0  0  0
  -23.3810  -30.5910   21.6890 C   0  0  0  0  0  3  0  0  0  0  0  0
  -24.8100  -29.0040   20.2350 C   0  0  0  0  0  0  0  0  0  0  0  0
  -25.9460  -30.8110   21.5030 C   0  0  0  0  0  2  0  0  0  0  0  0
  -26.0070  -29.4080   20.8390 C   0  0  0  0  0  0  0  0  0  0  0  0
  -27.1530  -28.4930   20.8170 C   0  0  0  0  0  3  0  0  0  0  0  0
  -25.8810  -26.8860   19.5800 C   0  0  0  0  0  3  0  0  0  0  0  0
  -24.7710  -27.7640   19.5850 C   0  0  0  0  0  3  0  0  0  0  0  0
  -23.5910  -29.9200   20.3050 C   0  0  0  0  0  2  0  0  0  0  0  0
  -24.6650  -31.1520   22.2240 N   0  0  0  0  0  0  0  0  0  0  0  0
  -23.5170  -32.2610   23.8570 O   0  0  0  0  0  0  0  0  0  0  0  0
  -22.7030  -29.5870   22.6570 C   0  0  0  0  0  0  0  0  0  0  0  0
  -21.3830  -29.3730   22.5090 N   0  0  0  0  0  0  0  0  0  0  0  0
  -23.3740  -28.9980   23.5090 O   0  0  0  0  0  0  0  0  0  0  0  0
  -20.8940  -29.8990   21.7980 H   0  0  0  0  0  0  0  0  0  0  0  0
  -18.0380  -28.0410   22.9550 C   0  0  0  0  0  0  0  0  0  0  0  0
  -20.5760  -28.4210   23.2800 C   0  0  0  0  0  3  0  0  0  0  0  0
  -20.7530  -26.9800   22.7450 C   0  0  0  0  0  2  0  0  0  0  0  0
  -19.6940  -26.5870   21.7100 C   0  0  0  0  0  2  0  0  0  0  0  0
  -18.2900  -26.6870   22.3120 C   0  0  0  0  0  2  0  0  0  0  0  0
  -19.1110  -28.8610   23.3940 C   0  0  0  0  0  0  0  0  0  0  0  0
  -18.8200  -30.1240   23.9550 C   0  0  0  0  0  3  0  0  0  0  0  0
  -17.4900  -30.5680   24.0790 C   0  0  0  0  0  3  0  0  0  0  0  0
  -16.4320  -29.7460   23.6540 C   0  0  0  0  0  3  0  0  0  0  0  0
  -16.7060  -28.4830   23.0980 C   0  0  0  0  0  3  0  0  0  0  0  0
  -25.8790  -32.6160   23.9360 C   0  0  0  0  0  3  0  0  0  0  0  0
  -25.5710  -34.0190   24.2670 N   0  0  0  0  0  0  0  0  0  0  0  0
  -25.8650  -35.0710   23.4930 C   0  0  0  0  0  0  0  0  0  0  0  0
  -26.4870  -34.9660   22.4340 O   0  0  0  0  0  0  0  0  0  0  0  0
  -25.0120  -34.1730   25.0930 H   0  0  0  0  0  0  0  0  0  0  0  0
  -24.1030  -36.8540   23.2300 C   0  0  0  0  0  1  0  0  0  0  0  0
  -25.3950  -36.4630   23.9670 C   0  0  0  0  0  3  0  0  0  0  0  0
  -27.5610  -37.3830   24.6700 C   0  0  0  0  0  1  0  0  0  0  0  0
  -26.4100  -37.5250   23.7830 N   0  0  0  0  0  0  0  0  0  0  0  0
  -26.0000  -38.4420   23.9390 H   0  0  0  0  0  0  0  0  0  0  0  0
  -26.3910  -31.8550   25.2210 C   0  0  1  0  0  0  0  0  0  0  0  0
  -25.2910  -31.6080   26.2800 C   0  0  0  0  0  1  0  0  0  0  0  0
  -26.9950  -30.4830   24.8440 C   0  0  0  0  0  1  0  0  0  0  0  0
  -27.5280  -32.6640   25.8900 C   0  0  0  0  0  1  0  0  0  0  0  0
  1  5  1  0
  2  7  2  0
  2  4  1  0
  3  1  2  0
  4 48  1  0
  4  8  2  0
  6  2  1  0
  7  3  1  0
  8  1  1  0
  9 18  1  0
  9  3  1  0
 10 18  1  0
 11 16  1  0
 12 13  1  0
 12 11  1  0
 14 13  1  0
 14 23  1  0
 14 15  1  0
 16 10  1  0
 16 15  1  0
 17 10  2  0
 18 19  1  0
 20 21  2  0
 21 40  1  0
 22 21  1  0
 22 25  1  0
 23 24  1  0
 23 20  1  0
 24 22  2  0
 25 26  1  0
 26 27  2  0
 28 31  1  0
 28 27  1  0
 29 28  2  0
 30 29  1  0
 30 25  2  0
 31 32  1  0
 32 33  1  0
 33 34  2  0
 35 34  1  0
 35 39  1  0
 36 35  2  0
 37 32  2  0
 37 36  1  0
 38 37  1  0
 40 41  1  0
 41 44  1  0
 41 43  1  0
 42 40  2  0
 45 20  1  0
 45 46  1  0
 47 45  1  0
 48 49  1  0
 50 61  2  0
 51 49  1  0
 51 56  1  0
 52 60  1  0
 52 62  1  0
 53 59  1  0
 53 55  1  0
 54 60  1  0
 55 54  1  0
 56 55  2  0
 57 58  1  0
 57 51  2  0
 58 53  2  0
 59 52  1  0
 60 50  1  0
 62 64  2  0
 63 62  1  0
 65 63  1  0
 66 75  2  0
 66 71  1  0
 67 63  1  0
 67 71  1  0
 68 67  1  0
 69 70  1  0
 69 68  1  0
 70 66  1  0
 71 72  2  0
 72 73  1  0
 74 73  2  0
 75 74  1  0
 76 50  1  0
 76 77  1  0
 76 86  1  0
 77 80  1  0
 78 82  1  0
 78 77  1  0
 79 78  2  0
 82 81  1  0
 84 85  1  0
 84 82  1  0
 84 83  1  0
 86 89  1  1
 86 87  1  0
 88 86  1  0
M  ISO  4  10 100  18 100  48 101  49 101
M  END
>  <TORSDO>  (28) 
F 18

>  <SCORE>  (28) 
-15.520

>  <name>  (28) 
27

>  <ligand_id>  (28) 
27

>  <original_smiles>  (28) 
[H]c1c([H])c([H])c2c(c1[H])C([H])([H])C([H])([H])C([H])([H])C2([H])N([H])C(=O)C1([H])N(C(=O)C([H])(N([H])C(=O)C([H])(N([H])C([H])([H])[H])C([H])([H])[H])C(C([H])([H])[H])(C([H])([H])[H])C([H])([H])[H])C([H])([H])c2c([H])c(OC([H])([H])c3nc(C([H])([H])[H])c(C([H])([H])N([H])C(=O)N4C([H])([H])C([H])([H])C([H])([H])C([H])(n5nc(-c6c([H])c([H])c(Oc7c([H])c([H])c(F)c([H])c7F)c([H])c6[H])c(C(=O)N([H])[H])c5N([H])[H])C4([H])[H])nc3C([H])([H])[H])c([H])c([H])c2C1([H])[H]

>  <smiles>  (28) 
[H]c1c([H])c([H])c2c(c1[H])C([H])([H])C([H])([H])C([H])([H])C2([H])N([H])C(=O)C1([H])N(C(=O)C([H])(N([H])C(=O)C([H])(N([H])C([H])([H])[H])C([H])([H])[H])C(C([H])([H])[H])(C([H])([H])[H])C([H])([H])[H])C([H])([H])c2c([H])c(OC([H])([H])c3nc(C([H])([H])[H])c(C([H])([H])N([H])C(=O)N4C([H])([H])C([H])([H])C([H])([H])C([H])(n5nc(-c6c([H])c([H])c(Oc7c([H])c([H])c(F)c([H])c7F)c([H])c6[H])c(C(=O)N([H])[H])c5N([H])[H])C4([H])[H])nc3C([H])([H])[H])c([H])c([H])c2C1([H])[H]

$$$$
28:0:0
     RDKit          3D

 88 96  0  0  1  0  0  0  0  0999 V2000
  -28.7360  -20.5870   21.2640 C   0  0  0  0  0  3  0  0  0  0  0  0
  -29.3390  -19.7920   20.1950 C   0  0  0  0  0  0  0  0  0  0  0  0
  -29.1630  -22.0410   19.0750 C   0  0  0  0  0  0  0  0  0  0  0  0
  -28.5600  -22.8390   20.1490 C   0  0  0  0  0  0  0  0  0  0  0  0
  -29.4240  -22.6770   17.7230 C   0  0  0  0  0  1  0  0  0  0  0  0
  -28.3620  -21.9680   21.2310 N   0  0  0  0  0  0  0  0  0  0  0  0
  -29.5360  -20.6610   19.1160 N   0  0  0  0  0  0  0  0  0  0  0  0
  -30.1160  -18.2280   20.2660 C   0  0  0  0  0  2  0  0  0  0  0  0
  -30.4550  -15.3580   20.1930 C   0  0  0  0  0  0  0  0  0  0  0  0
  -30.4120  -12.9260   19.3140 C   0  0  0  0  0  2  0  0  0  0  0  0
  -29.4650  -12.7240   18.1040 C   0  0  0  0  0  2  0  0  0  0  0  0
  -28.0290  -12.4490   18.5830 C   0  0  0  0  0  2  0  0  0  0  0  0
  -27.5980  -13.4100   19.7190 C   0  0  0  0  0  3  0  0  0  0  0  0
  -28.6700  -13.5580   20.8190 C   0  0  0  0  0  2  0  0  0  0  0  0
  -29.8830  -14.0600   20.1530 N   0  0  0  0  0  0  0  0  0  0  0  0
  -31.6700  -15.3640   19.9470 O   0  0  0  0  0  0  0  0  0  0  0  0
  -29.7070  -16.6250   20.3040 N   0  0  0  0  0  0  0  0  0  0  0  0
  -28.7180  -16.4770   20.4420 H   0  0  0  0  0  0  0  0  0  0  0  0
  -25.2470  -13.9440   20.5480 C   0  0  0  0  0  0  0  0  0  0  0  0
  -24.1990  -13.1550   20.9310 C   0  0  0  0  0  0  0  0  0  0  0  0
  -24.6720  -11.8080   20.8630 C   0  0  0  0  0  0  0  0  0  0  0  0
  -26.2860  -13.0790   20.2580 N   0  0  0  0  0  0  0  0  0  0  0  0
  -25.9540  -11.7870   20.5160 N   0  0  0  0  0  0  0  0  0  0  0  0
  -23.9560  -10.5390   21.0450 C   0  0  0  0  0  0  0  0  0  0  0  0
  -24.3990   -9.5650   21.9660 C   0  0  0  0  0  3  0  0  0  0  0  0
  -23.6790   -8.3630   22.1380 C   0  0  0  0  0  3  0  0  0  0  0  0
  -22.5020   -8.1260   21.3890 C   0  0  0  0  0  0  0  0  0  0  0  0
  -22.0790   -9.0890   20.4550 C   0  0  0  0  0  3  0  0  0  0  0  0
  -22.8000  -10.2820   20.2810 C   0  0  0  0  0  3  0  0  0  0  0  0
  -21.7520   -6.9780   21.4720 O   0  0  0  0  0  0  0  0  0  0  0  0
  -21.6880   -6.2430   22.6280 C   0  0  0  0  0  0  0  0  0  0  0  0
  -21.1940   -6.7900   23.8340 C   0  0  0  0  0  3  0  0  0  0  0  0
  -21.0810   -5.9790   24.9800 C   0  0  0  0  0  3  0  0  0  0  0  0
  -21.4500   -4.6210   24.9220 C   0  0  0  0  0  0  0  0  0  0  0  0
  -21.9380   -4.0740   23.7220 C   0  0  0  0  0  3  0  0  0  0  0  0
  -22.0530   -4.8830   22.5790 C   0  0  0  0  0  0  0  0  0  0  0  0
  -22.5030   -4.3450   21.4190 F   0  0  0  0  0  0  0  0  0  0  0  0
  -21.3350   -3.8400   26.0210 F   0  0  0  0  0  0  0  0  0  0  0  0
  -22.8070  -13.6210   21.2430 C   0  0  0  0  0  0  0  0  0  0  0  0
  -22.1020  -12.9060   22.1120 N   0  0  0  0  0  0  0  0  0  0  0  0
  -22.3560  -14.6540   20.7520 O   0  0  0  0  0  0  0  0  0  0  0  0
  -22.4830  -12.0690   22.5300 H   0  0  0  0  0  0  0  0  0  0  0  0
  -21.1690  -13.1990   22.3630 H   0  0  0  0  0  0  0  0  0  0  0  0
  -25.3970  -15.3180   20.3920 N   0  0  0  0  0  0  0  0  0  0  0  0
  -24.6230  -15.9620   20.5220 H   0  0  0  0  0  0  0  0  0  0  0  0
  -26.2190  -15.7640   20.0070 H   0  0  0  0  0  0  0  0  0  0  0  0
  -27.7570  -24.3910   20.0260 C   0  0  0  0  0  2  0  0  0  0  0  0
  -28.1340  -25.9710   20.2380 O   0  0  0  0  0  0  0  0  0  0  0  0
  -24.6180  -31.9370   23.2370 C   0  0  0  0  0  0  0  0  0  0  0  0
  -27.1400  -27.0800   20.1820 C   0  0  0  0  0  0  0  0  0  0  0  0
  -23.4090  -30.5510   21.6050 C   0  0  0  0  0  3  0  0  0  0  0  0
  -24.8440  -28.9550   20.1650 C   0  0  0  0  0  0  0  0  0  0  0  0
  -25.9770  -30.7610   21.4390 C   0  0  0  0  0  2  0  0  0  0  0  0
  -26.0390  -29.3570   20.7770 C   0  0  0  0  0  0  0  0  0  0  0  0
  -27.1820  -28.4390   20.7620 C   0  0  0  0  0  3  0  0  0  0  0  0
  -25.9120  -26.8300   19.5250 C   0  0  0  0  0  3  0  0  0  0  0  0
  -24.8050  -27.7100   19.5210 C   0  0  0  0  0  3  0  0  0  0  0  0
  -23.6260  -29.8760   20.2240 C   0  0  0  0  0  2  0  0  0  0  0  0
  -24.6910  -31.1090   22.1470 N   0  0  0  0  0  0  0  0  0  0  0  0
  -23.5330  -32.2270   23.7660 O   0  0  0  0  0  0  0  0  0  0  0  0
  -22.7220  -29.5500   22.5710 C   0  0  0  0  0  0  0  0  0  0  0  0
  -21.3940  -29.3730   22.4410 N   0  0  0  0  0  0  0  0  0  0  0  0
  -23.3910  -28.9350   23.4050 O   0  0  0  0  0  0  0  0  0  0  0  0
  -20.9070  -29.9200   21.7440 H   0  0  0  0  0  0  0  0  0  0  0  0
  -18.0190  -28.1440   22.9480 C   0  0  0  0  0  0  0  0  0  0  0  0
  -20.5760  -28.4340   23.2150 C   0  0  0  0  0  3  0  0  0  0  0  0
  -20.6920  -26.9990   22.6470 C   0  0  0  0  0  2  0  0  0  0  0  0
  -19.5940  -26.6640   21.6320 C   0  0  0  0  0  2  0  0  0  0  0  0
  -18.2100  -26.7960   22.2730 C   0  0  0  0  0  2  0  0  0  0  0  0
  -19.1290  -28.9180   23.3750 C   0  0  0  0  0  0  0  0  0  0  0  0
  -18.8950  -30.1780   23.9690 C   0  0  0  0  0  3  0  0  0  0  0  0
  -17.5830  -30.6630   24.1370 C   0  0  0  0  0  3  0  0  0  0  0  0
  -16.4880  -29.8860   23.7240 C   0  0  0  0  0  3  0  0  0  0  0  0
  -16.7060  -28.6280   23.1340 C   0  0  0  0  0  3  0  0  0  0  0  0
  -25.8940  -32.5770   23.8640 C   0  0  0  0  0  3  0  0  0  0  0  0
  -25.5820  -33.9770   24.1990 N   0  0  0  0  0  0  0  0  0  0  0  0
  -25.8950  -35.0360   23.4390 C   0  0  0  0  0  0  0  0  0  0  0  0
  -26.5390  -34.9370   22.3920 O   0  0  0  0  0  0  0  0  0  0  0  0
  -25.0080  -34.1280   25.0160 H   0  0  0  0  0  0  0  0  0  0  0  0
  -24.1530  -36.8290   23.1480 C   0  0  0  0  0  1  0  0  0  0  0  0
  -25.4210  -36.4250   23.9180 C   0  0  0  0  0  3  0  0  0  0  0  0
  -27.5740  -37.3210   24.6860 C   0  0  0  0  0  1  0  0  0  0  0  0
  -26.4470  -37.4810   23.7720 N   0  0  0  0  0  0  0  0  0  0  0  0
  -26.0410  -38.4000   23.9250 H   0  0  0  0  0  0  0  0  0  0  0  0
  -26.4000  -31.8110   25.1490 C   0  0  1  0  0  0  0  0  0  0  0  0
  -25.3000  -31.5820   26.2120 C   0  0  0  0  0  1  0  0  0  0  0  0
  -26.9860  -30.4320   24.7760 C   0  0  0  0  0  1  0  0  0  0  0  0
  -27.5470  -32.6100   25.8120 C   0  0  0  0  0  1  0  0  0  0  0  0
  2  8  1  0
  2  1  2  0
  3  7  2  0
  3  4  1  0
  4  6  2  0
  5  3  1  0
  6  1  1  0
  7  2  1  0
  8 17  1  0
  9 17  1  0
 10 15  1  0
 11 12  1  0
 11 10  1  0
 13 12  1  0
 13 22  1  0
 13 14  1  0
 15  9  1  0
 15 14  1  0
 16  9  2  0
 17 18  1  0
 19 20  2  0
 20 39  1  0
 21 20  1  0
 21 24  1  0
 22 23  1  0
 22 19  1  0
 23 21  2  0
 24 25  1  0
 25 26  2  0
 27 30  1  0
 27 26  1  0
 28 27  2  0
 29 28  1  0
 29 24  2  0
 30 31  1  0
 31 32  1  0
 32 33  2  0
 34 33  1  0
 34 38  1  0
 35 34  2  0
 36 31  2  0
 36 35  1  0
 37 36  1  0
 39 40  1  0
 40 43  1  0
 40 42  1  0
 41 39  2  0
 44 45  1  0
 44 19  1  0
 46 44  1  0
 47  4  1  0
 47 48  1  0
 49 60  2  0
 50 48  1  0
 50 55  1  0
 51 59  1  0
 51 61  1  0
 52 58  1  0
 52 54  1  0
 53 59  1  0
 54 53  1  0
 55 54  2  0
 56 50  2  0
 57 56  1  0
 57 52  2  0
 58 51  1  0
 59 49  1  0
 61 63  2  0
 62 61  1  0
 64 62  1  0
 65 74  2  0
 65 70  1  0
 66 62  1  0
 66 70  1  0
 67 66  1  0
 68 69  1  0
 68 67  1  0
 69 65  1  0
 70 71  2  0
 71 72  1  0
 73 72  2  0
 74 73  1  0
 75 49  1  0
 75 76  1  0
 75 85  1  0
 76 79  1  0
 77 81  1  0
 77 76  1  0
 78 77  2  0
 81 80  1  0
 83 81  1  0
 83 84  1  0
 83 82  1  0
 85 88  1  1
 85 86  1  0
 87 85  1  0
M  ISO  4   9 100  17 100  47 101  48 101
M  END
>  <TORSDO>  (29) 
F 18

>  <SCORE>  (29) 
-15.796

>  <name>  (29) 
28

>  <ligand_id>  (29) 
28

>  <original_smiles>  (29) 
[H]c1nc(C([H])([H])Oc2c([H])c([H])c3c(c2[H])C([H])([H])N(C(=O)C([H])(N([H])C(=O)C([H])(N([H])C([H])([H])[H])C([H])([H])[H])C(C([H])([H])[H])(C([H])([H])[H])C([H])([H])[H])C([H])(C(=O)N([H])C2([H])c4c([H])c([H])c([H])c([H])c4C([H])([H])C([H])([H])C2([H])[H])C3([H])[H])c(C([H])([H])[H])nc1C([H])([H])N([H])C(=O)N1C([H])([H])C([H])([H])C([H])([H])C([H])(n2nc(-c3c([H])c([H])c(Oc4c([H])c([H])c(F)c([H])c4F)c([H])c3[H])c(C(=O)N([H])[H])c2N([H])[H])C1([H])[H]

>  <smiles>  (29) 
[H]c1nc(C([H])([H])Oc2c([H])c([H])c3c(c2[H])C([H])([H])N(C(=O)C([H])(N([H])C(=O)C([H])(N([H])C([H])([H])[H])C([H])([H])[H])C(C([H])([H])[H])(C([H])([H])[H])C([H])([H])[H])C([H])(C(=O)N([H])C2([H])c4c([H])c([H])c([H])c([H])c4C([H])([H])C([H])([H])C2([H])[H])C3([H])[H])c(C([H])([H])[H])nc1C([H])([H])N([H])C(=O)N1C([H])([H])C([H])([H])C([H])([H])C([H])(n2nc(-c3c([H])c([H])c(Oc4c([H])c([H])c(F)c([H])c4F)c([H])c3[H])c(C(=O)N([H])[H])c2N([H])[H])C1([H])[H]

$$$$
29:0:0
     RDKit          3D

 90 99  0  0  1  0  0  0  0  0999 V2000
  -29.4850  -19.9370   20.0770 C   0  0  0  0  0  0  0  0  0  0  0  0
  -29.5720  -20.8430   21.2230 C   0  0  0  0  0  0  0  0  0  0  0  0
  -28.6310  -22.0680   19.0430 C   0  0  0  0  0  0  0  0  0  0  0  0
  -28.7090  -22.9750   20.1810 C   0  0  0  0  0  0  0  0  0  0  0  0
  -30.1820  -20.3330   22.5120 C   0  0  0  0  0  1  0  0  0  0  0  0
  -28.0250  -22.5710   17.7490 C   0  0  0  0  0  1  0  0  0  0  0  0
  -29.0120  -20.6980   19.0040 N   0  0  0  0  0  0  0  0  0  0  0  0
  -29.1890  -22.2250   21.2680 N   0  0  0  0  0  0  0  0  0  0  0  0
  -30.5180  -15.4370   20.0100 C   0  0  0  0  0  0  0  0  0  0  0  0
  -30.4040  -13.0290   19.0840 C   0  0  0  0  0  2  0  0  0  0  0  0
  -29.4240  -12.8850   17.8950 C   0  0  0  0  0  2  0  0  0  0  0  0
  -27.9910  -12.6190   18.3980 C   0  0  0  0  0  2  0  0  0  0  0  0
  -27.6050  -13.5440   19.5800 C   0  0  0  0  0  3  0  0  0  0  0  0
  -28.7120  -13.6560   20.6490 C   0  0  0  0  0  2  0  0  0  0  0  0
  -29.9170  -14.1510   19.9620 N   0  0  0  0  0  0  0  0  0  0  0  0
  -31.7400  -15.4090   19.8040 O   0  0  0  0  0  0  0  0  0  0  0  0
  -29.8240  -17.9210   18.3510 C   0  0  0  0  0  2  0  0  0  0  0  0
  -28.8220  -16.9340   18.9510 C   0  0  0  0  0  2  0  0  0  0  0  0
  -30.1480  -18.3400   19.7870 C   0  0  0  0  0  3  0  0  0  0  0  0
  -29.7820  -16.7300   20.0410 N   0  0  0  0  0  0  0  0  0  0  0  0
  -25.2760  -14.1080   20.4450 C   0  0  0  0  0  0  0  0  0  0  0  0
  -24.2240  -13.3310   20.8380 C   0  0  0  0  0  0  0  0  0  0  0  0
  -24.6830  -11.9790   20.7670 C   0  0  0  0  0  0  0  0  0  0  0  0
  -26.3020  -13.2300   20.1440 N   0  0  0  0  0  0  0  0  0  0  0  0
  -25.9600  -11.9430   20.4050 N   0  0  0  0  0  0  0  0  0  0  0  0
  -23.9580  -10.7180   20.9610 C   0  0  0  0  0  0  0  0  0  0  0  0
  -24.3950   -9.7500   21.8940 C   0  0  0  0  0  3  0  0  0  0  0  0
  -23.6650   -8.5560   22.0790 C   0  0  0  0  0  3  0  0  0  0  0  0
  -22.4870   -8.3200   21.3320 C   0  0  0  0  0  0  0  0  0  0  0  0
  -22.0710   -9.2750   20.3880 C   0  0  0  0  0  3  0  0  0  0  0  0
  -22.8000  -10.4610   20.2010 C   0  0  0  0  0  3  0  0  0  0  0  0
  -21.7290   -7.1770   21.4270 O   0  0  0  0  0  0  0  0  0  0  0  0
  -21.6490   -6.4610   22.5940 C   0  0  0  0  0  0  0  0  0  0  0  0
  -21.1490   -7.0310   23.7850 C   0  0  0  0  0  3  0  0  0  0  0  0
  -21.0220   -6.2410   24.9440 C   0  0  0  0  0  3  0  0  0  0  0  0
  -21.3800   -4.8810   24.9130 C   0  0  0  0  0  0  0  0  0  0  0  0
  -21.8710   -4.3090   23.7260 C   0  0  0  0  0  3  0  0  0  0  0  0
  -22.0020   -5.0970   22.5700 C   0  0  0  0  0  0  0  0  0  0  0  0
  -22.4570   -4.5360   21.4240 F   0  0  0  0  0  0  0  0  0  0  0  0
  -21.2510   -4.1200   26.0250 F   0  0  0  0  0  0  0  0  0  0  0  0
  -22.8410  -13.8120   21.1680 C   0  0  0  0  0  0  0  0  0  0  0  0
  -22.1460  -13.1160   22.0610 N   0  0  0  0  0  0  0  0  0  0  0  0
  -22.3870  -14.8400   20.6680 O   0  0  0  0  0  0  0  0  0  0  0  0
  -22.5260  -12.2820   22.4840 H   0  0  0  0  0  0  0  0  0  0  0  0
  -21.2210  -13.4230   22.3260 H   0  0  0  0  0  0  0  0  0  0  0  0
  -25.4430  -15.4810   20.2900 N   0  0  0  0  0  0  0  0  0  0  0  0
  -24.6940  -16.1450   20.4570 H   0  0  0  0  0  0  0  0  0  0  0  0
  -26.3010  -15.9190   19.9850 H   0  0  0  0  0  0  0  0  0  0  0  0
  -27.9020  -24.5090   20.3460 C   0  0  0  0  0  2  0  0  0  0  0  0
  -28.2840  -26.0880   20.2140 O   0  0  0  0  0  0  0  0  0  0  0  0
  -24.6640  -31.9610   23.2520 C   0  0  0  0  0  0  0  0  0  0  0  0
  -27.2690  -27.1730   20.1790 C   0  0  0  0  0  0  0  0  0  0  0  0
  -23.4800  -30.5660   21.6070 C   0  0  0  0  0  3  0  0  0  0  0  0
  -24.9440  -29.0030   20.1660 C   0  0  0  0  0  0  0  0  0  0  0  0
  -26.0430  -30.8230   21.4500 C   0  0  0  0  0  2  0  0  0  0  0  0
  -26.1300  -29.4240   20.7810 C   0  0  0  0  0  0  0  0  0  0  0  0
  -27.2900  -28.5300   20.7630 C   0  0  0  0  0  3  0  0  0  0  0  0
  -26.0520  -26.9060   19.5130 C   0  0  0  0  0  3  0  0  0  0  0  0
  -24.9290  -27.7650   19.5110 C   0  0  0  0  0  3  0  0  0  0  0  0
  -23.7110  -29.9000   20.2240 C   0  0  0  0  0  2  0  0  0  0  0  0
  -24.7500  -31.1420   22.1560 N   0  0  0  0  0  0  0  0  0  0  0  0
  -23.5730  -32.2300   23.7790 O   0  0  0  0  0  0  0  0  0  0  0  0
  -22.8050  -29.5490   22.5650 C   0  0  0  0  0  0  0  0  0  0  0  0
  -21.4820  -29.3420   22.4220 N   0  0  0  0  0  0  0  0  0  0  0  0
  -23.4770  -28.9470   23.4050 O   0  0  0  0  0  0  0  0  0  0  0  0
  -20.9920  -29.8830   21.7230 H   0  0  0  0  0  0  0  0  0  0  0  0
  -18.1360  -28.0070   22.8620 C   0  0  0  0  0  0  0  0  0  0  0  0
  -20.6760  -28.3830   23.1850 C   0  0  0  0  0  3  0  0  0  0  0  0
  -20.8500  -26.9470   22.6360 C   0  0  0  0  0  2  0  0  0  0  0  0
  -19.7890  -26.5630   21.6000 C   0  0  0  0  0  2  0  0  0  0  0  0
  -18.3860  -26.6590   22.2050 C   0  0  0  0  0  2  0  0  0  0  0  0
  -19.2120  -28.8230   23.3060 C   0  0  0  0  0  0  0  0  0  0  0  0
  -18.9230  -30.0790   23.8820 C   0  0  0  0  0  3  0  0  0  0  0  0
  -17.5930  -30.5250   24.0110 C   0  0  0  0  0  3  0  0  0  0  0  0
  -16.5330  -29.7070   23.5800 C   0  0  0  0  0  3  0  0  0  0  0  0
  -16.8060  -28.4490   23.0150 C   0  0  0  0  0  3  0  0  0  0  0  0
  -25.9300  -32.6140   23.8850 C   0  0  0  0  0  3  0  0  0  0  0  0
  -25.6010  -34.0120   24.2180 N   0  0  0  0  0  0  0  0  0  0  0  0
  -25.8970  -35.0720   23.4560 C   0  0  0  0  0  0  0  0  0  0  0  0
  -26.5410  -34.9790   22.4070 O   0  0  0  0  0  0  0  0  0  0  0  0
  -25.0300  -34.1570   25.0380 H   0  0  0  0  0  0  0  0  0  0  0  0
  -24.1250  -36.8370   23.1680 C   0  0  0  0  0  1  0  0  0  0  0  0
  -25.4040  -36.4550   23.9300 C   0  0  0  0  0  3  0  0  0  0  0  0
  -27.5470  -37.3870   24.6820 C   0  0  0  0  0  1  0  0  0  0  0  0
  -26.4120  -37.5270   23.7760 N   0  0  0  0  0  0  0  0  0  0  0  0
  -25.9920  -38.4390   23.9320 H   0  0  0  0  0  0  0  0  0  0  0  0
  -26.4400  -31.8560   25.1710 C   0  0  1  0  0  0  0  0  0  0  0  0
  -25.3400  -31.6110   26.2310 C   0  0  0  0  0  1  0  0  0  0  0  0
  -27.0430  -30.4820   24.7980 C   0  0  0  0  0  1  0  0  0  0  0  0
  -27.5760  -32.6660   25.8400 C   0  0  0  0  0  1  0  0  0  0  0  0
  1  2  1  0
  2  8  2  0
  2  5  1  0
  3  4  2  0
  4 49  1  0
  4  8  1  0
  6  3  1  0
  7  3  1  0
  7  1  2  0
  9 20  1  0
 10 15  1  0
 11 12  1  0
 11 10  1  0
 13 12  1  0
 13 24  1  0
 13 14  1  0
 15  9  1  0
 15 14  1  0
 16  9  2  0
 17 18  1  0
 17 19  1  0
 18 20  1  0
 19 20  1  0
 19  1  1  0
 21 22  2  0
 22 41  1  0
 23 22  1  0
 23 26  1  0
 24 25  1  0
 24 21  1  0
 25 23  2  0
 26 27  1  0
 27 28  2  0
 29 32  1  0
 29 28  1  0
 30 29  2  0
 31 30  1  0
 31 26  2  0
 32 33  1  0
 33 34  1  0
 34 35  2  0
 36 35  1  0
 36 40  1  0
 37 36  2  0
 38 33  2  0
 38 37  1  0
 39 38  1  0
 41 42  1  0
 42 45  1  0
 42 44  1  0
 43 41  2  0
 46 21  1  0
 46 47  1  0
 48 46  1  0
 50 49  1  0
 51 62  2  0
 52 50  1  0
 52 57  1  0
 53 61  1  0
 53 63  1  0
 54 60  1  0
 54 56  1  0
 55 61  1  0
 56 55  1  0
 57 56  2  0
 58 52  2  0
 59 58  1  0
 59 54  2  0
 60 53  1  0
 61 51  1  0
 63 65  2  0
 64 63  1  0
 66 64  1  0
 67 76  2  0
 67 72  1  0
 68 64  1  0
 68 72  1  0
 69 68  1  0
 70 71  1  0
 70 69  1  0
 71 67  1  0
 72 73  2  0
 73 74  1  0
 75 74  2  0
 76 75  1  0
 77 51  1  0
 77 78  1  0
 77 87  1  0
 78 81  1  0
 79 83  1  0
 79 78  1  0
 80 79  2  0
 83 82  1  0
 85 83  1  0
 85 86  1  0
 85 84  1  0
 87 90  1  1
 87 88  1  0
 89 87  1  0
M  ISO  4   9 100  20 100  49 101  50 101
M  END
>  <TORSDO>  (30) 
F 17

>  <SCORE>  (30) 
-15.898

>  <name>  (30) 
29

>  <ligand_id>  (30) 
29

>  <original_smiles>  (30) 
[H]c1c([H])c([H])c2c(c1[H])C([H])([H])C([H])([H])C([H])([H])C2([H])N([H])C(=O)C1([H])N(C(=O)C([H])(N([H])C(=O)C([H])(N([H])C([H])([H])[H])C([H])([H])[H])C(C([H])([H])[H])(C([H])([H])[H])C([H])([H])[H])C([H])([H])c2c([H])c(OC([H])([H])c3nc(C([H])([H])[H])c(C4([H])N(C(=O)N5C([H])([H])C([H])([H])C([H])([H])C([H])(n6nc(-c7c([H])c([H])c(Oc8c([H])c([H])c(F)c([H])c8F)c([H])c7[H])c(C(=O)N([H])[H])c6N([H])[H])C5([H])[H])C([H])([H])C4([H])[H])nc3C([H])([H])[H])c([H])c([H])c2C1([H])[H]

>  <smiles>  (30) 
[H]c1c([H])c([H])c2c(c1[H])C([H])([H])C([H])([H])C([H])([H])C2([H])N([H])C(=O)C1([H])N(C(=O)C([H])(N([H])C(=O)C([H])(N([H])C([H])([H])[H])C([H])([H])[H])C(C([H])([H])[H])(C([H])([H])[H])C([H])([H])[H])C([H])([H])c2c([H])c(OC([H])([H])c3nc(C([H])([H])[H])c(C4([H])N(C(=O)N5C([H])([H])C([H])([H])C([H])([H])C([H])(n6nc(-c7c([H])c([H])c(Oc8c([H])c([H])c(F)c([H])c8F)c([H])c7[H])c(C(=O)N([H])[H])c6N([H])[H])C5([H])[H])C([H])([H])C4([H])[H])nc3C([H])([H])[H])c([H])c([H])c2C1([H])[H]

$$$$
30:0:0
     RDKit          3D

 90 99  0  0  1  0  0  0  0  0999 V2000
  -30.4150  -21.1340   21.1660 C   0  0  0  0  0  3  0  0  0  0  0  0
  -28.9750  -19.5670   20.0860 C   0  0  0  0  0  3  0  0  0  0  0  0
  -29.2190  -21.0620   20.4280 C   0  0  0  0  0  0  0  0  0  0  0  0
  -31.2620  -20.0080   21.3670 C   0  0  0  0  0  0  0  0  0  0  0  0
  -29.8360  -18.3160   20.4130 C   0  0  0  0  0  0  0  0  0  0  0  0
  -30.9810  -18.7070   21.0370 N   0  0  0  0  0  0  0  0  0  0  0  0
  -30.3540  -15.4070   20.1070 C   0  0  0  0  0  0  0  0  0  0  0  0
  -30.2940  -12.9680   19.1490 C   0  0  0  0  0  2  0  0  0  0  0  0
  -29.3340  -12.7630   17.9520 C   0  0  0  0  0  2  0  0  0  0  0  0
  -27.9020  -12.4640   18.4340 C   0  0  0  0  0  2  0  0  0  0  0  0
  -27.4890  -13.3740   19.6220 C   0  0  0  0  0  3  0  0  0  0  0  0
  -28.5870  -13.5370   20.6950 C   0  0  0  0  0  2  0  0  0  0  0  0
  -29.7700  -14.0960   20.0120 N   0  0  0  0  0  0  0  0  0  0  0  0
  -31.5760  -15.3620   19.8770 O   0  0  0  0  0  0  0  0  0  0  0  0
  -29.6000  -16.7070   20.1930 N   0  0  0  0  0  0  0  0  0  0  0  0
  -28.6130  -16.5050   20.1540 H   0  0  0  0  0  0  0  0  0  0  0  0
  -25.1540  -13.8810   20.5010 C   0  0  0  0  0  0  0  0  0  0  0  0
  -24.1190  -13.0870   20.9000 C   0  0  0  0  0  0  0  0  0  0  0  0
  -24.5930  -11.7400   20.8190 C   0  0  0  0  0  0  0  0  0  0  0  0
  -26.1920  -13.0220   20.1840 N   0  0  0  0  0  0  0  0  0  0  0  0
  -25.8720  -11.7270   20.4490 N   0  0  0  0  0  0  0  0  0  0  0  0
  -23.8850  -10.4690   21.0170 C   0  0  0  0  0  0  0  0  0  0  0  0
  -24.3470   -9.5010   21.9350 C   0  0  0  0  0  3  0  0  0  0  0  0
  -23.6320   -8.2980   22.1260 C   0  0  0  0  0  3  0  0  0  0  0  0
  -22.4420   -8.0540   21.4010 C   0  0  0  0  0  0  0  0  0  0  0  0
  -22.0000   -9.0110   20.4720 C   0  0  0  0  0  3  0  0  0  0  0  0
  -22.7140  -10.2060   20.2780 C   0  0  0  0  0  3  0  0  0  0  0  0
  -21.6940   -6.9050   21.5030 O   0  0  0  0  0  0  0  0  0  0  0  0
  -21.6720   -6.1580   22.6530 C   0  0  0  0  0  0  0  0  0  0  0  0
  -21.2420   -6.6980   23.8840 C   0  0  0  0  0  3  0  0  0  0  0  0
  -21.1690   -5.8740   25.0260 C   0  0  0  0  0  3  0  0  0  0  0  0
  -21.5190   -4.5130   24.9360 C   0  0  0  0  0  0  0  0  0  0  0  0
  -21.9460   -3.9740   23.7080 C   0  0  0  0  0  3  0  0  0  0  0  0
  -22.0180   -4.7950   22.5710 C   0  0  0  0  0  0  0  0  0  0  0  0
  -22.4080   -4.2660   21.3860 F   0  0  0  0  0  0  0  0  0  0  0  0
  -21.4440   -3.7180   26.0310 F   0  0  0  0  0  0  0  0  0  0  0  0
  -22.7290  -13.5470   21.2280 C   0  0  0  0  0  0  0  0  0  0  0  0
  -22.0360  -12.8260   22.1010 N   0  0  0  0  0  0  0  0  0  0  0  0
  -22.2670  -14.5820   20.7460 O   0  0  0  0  0  0  0  0  0  0  0  0
  -22.4230  -11.9920   22.5220 H   0  0  0  0  0  0  0  0  0  0  0  0
  -21.1020  -13.1100   22.3540 H   0  0  0  0  0  0  0  0  0  0  0  0
  -25.2940  -15.2570   20.3430 N   0  0  0  0  0  0  0  0  0  0  0  0
  -24.5280  -15.8950   20.5290 H   0  0  0  0  0  0  0  0  0  0  0  0
  -26.0800  -15.7010   19.8910 H   0  0  0  0  0  0  0  0  0  0  0  0
  -33.4720  -21.4490   21.5320 C   0  0  0  0  0  2  0  0  0  0  0  0
  -33.8720  -20.0720   21.0270 C   0  0  0  0  0  2  0  0  0  0  0  0
  -32.6500  -20.2290   21.9170 C   0  0  0  0  0  3  0  0  0  0  0  0
  -28.5080  -22.6070   19.9490 C   0  0  0  0  0  2  0  0  0  0  0  0
  -28.2150  -24.2340   20.7190 C   0  0  0  0  0  2  0  0  0  0  0  0
  -28.2630  -25.8590   20.3280 O   0  0  0  0  0  0  0  0  0  0  0  0
  -24.6200  -31.8490   23.2690 C   0  0  0  0  0  0  0  0  0  0  0  0
  -27.2210  -26.9330   20.3430 C   0  0  0  0  0  0  0  0  0  0  0  0
  -23.4550  -30.4440   21.6240 C   0  0  0  0  0  3  0  0  0  0  0  0
  -24.9220  -28.8260   20.2400 C   0  0  0  0  0  0  0  0  0  0  0  0
  -26.0220  -30.6550   21.5060 C   0  0  0  0  0  2  0  0  0  0  0  0
  -26.1040  -29.2350   20.8720 C   0  0  0  0  0  0  0  0  0  0  0  0
  -27.2490  -28.3160   20.8870 C   0  0  0  0  0  3  0  0  0  0  0  0
  -26.0070  -26.6760   19.6640 C   0  0  0  0  0  3  0  0  0  0  0  0
  -24.9060  -27.5700   19.6090 C   0  0  0  0  0  3  0  0  0  0  0  0
  -23.7050  -29.7540   20.2540 C   0  0  0  0  0  2  0  0  0  0  0  0
  -24.7230  -31.0090   22.1880 N   0  0  0  0  0  0  0  0  0  0  0  0
  -23.5210  -32.1380   23.7700 O   0  0  0  0  0  0  0  0  0  0  0  0
  -22.7480  -29.4520   22.5820 C   0  0  0  0  0  0  0  0  0  0  0  0
  -21.4210  -29.2870   22.4420 N   0  0  0  0  0  0  0  0  0  0  0  0
  -23.4040  -28.8270   23.4200 O   0  0  0  0  0  0  0  0  0  0  0  0
  -20.9460  -29.8350   21.7380 H   0  0  0  0  0  0  0  0  0  0  0  0
  -18.0300  -28.0900   22.9260 C   0  0  0  0  0  0  0  0  0  0  0  0
  -20.5880  -28.3540   23.2080 C   0  0  0  0  0  3  0  0  0  0  0  0
  -20.6930  -26.9230   22.6350 C   0  0  0  0  0  2  0  0  0  0  0  0
  -19.5960  -26.6000   21.6130 C   0  0  0  0  0  2  0  0  0  0  0  0
  -18.2120  -26.7440   22.2450 C   0  0  0  0  0  2  0  0  0  0  0  0
  -19.1450  -28.8530   23.3640 C   0  0  0  0  0  0  0  0  0  0  0  0
  -18.9180  -30.1100   23.9670 C   0  0  0  0  0  3  0  0  0  0  0  0
  -17.6110  -30.6040   24.1310 C   0  0  0  0  0  3  0  0  0  0  0  0
  -16.5100  -29.8390   23.7040 C   0  0  0  0  0  3  0  0  0  0  0  0
  -16.7210  -28.5850   23.1090 C   0  0  0  0  0  3  0  0  0  0  0  0
  -25.8760  -32.5020   23.9170 C   0  0  0  0  0  3  0  0  0  0  0  0
  -26.3480  -31.7630   25.2300 C   0  0  1  0  0  0  0  0  0  0  0  0
  -25.2230  -31.5480   26.2690 C   0  0  0  0  0  1  0  0  0  0  0  0
  -26.9440  -30.3750   24.9000 C   0  0  0  0  0  1  0  0  0  0  0  0
  -27.4780  -32.5720   25.9100 C   0  0  0  0  0  1  0  0  0  0  0  0
  -25.5560  -33.9100   24.2200 N   0  0  0  0  0  0  0  0  0  0  0  0
  -25.8930  -34.9580   23.4530 C   0  0  0  0  0  0  0  0  0  0  0  0
  -26.5720  -34.8410   22.4300 O   0  0  0  0  0  0  0  0  0  0  0  0
  -24.9690  -34.0750   25.0240 H   0  0  0  0  0  0  0  0  0  0  0  0
  -24.1740  -36.7580   23.0580 C   0  0  0  0  0  1  0  0  0  0  0  0
  -25.4020  -36.3560   23.8890 C   0  0  0  0  0  3  0  0  0  0  0  0
  -27.5220  -37.2610   24.7380 C   0  0  0  0  0  1  0  0  0  0  0  0
  -26.4350  -37.4060   23.7740 N   0  0  0  0  0  0  0  0  0  0  0  0
  -26.0270  -38.3290   23.8910 H   0  0  0  0  0  0  0  0  0  0  0  0
  1  4  1  0
  2  5  2  0
  2  3  1  0
  3  1  2  0
  4 47  1  0
  5  6  1  0
  6  4  2  0
  7 15  1  0
  8 13  1  0
  9 10  1  0
  9  8  1  0
 11 10  1  0
 11 20  1  0
 11 12  1  0
 13  7  1  0
 13 12  1  0
 14  7  2  0
 15  5  1  0
 16 15  1  0
 17 18  2  0
 18 37  1  0
 19 18  1  0
 19 22  1  0
 20 21  1  0
 20 17  1  0
 21 19  2  0
 22 23  1  0
 23 24  2  0
 25 28  1  0
 25 24  1  0
 26 25  2  0
 27 26  1  0
 27 22  2  0
 28 29  1  0
 29 30  1  0
 30 31  2  0
 32 31  1  0
 32 36  1  0
 33 32  2  0
 34 29  2  0
 34 33  1  0
 35 34  1  0
 37 38  1  0
 38 41  1  0
 38 40  1  0
 39 37  2  0
 42 17  1  0
 42 43  1  0
 44 42  1  0
 45 47  1  0
 46 45  1  0
 46 47  1  0
 48  3  1  0
 48 49  1  0
 50 52  1  0
 50 49  1  0
 51 62  2  0
 52 57  1  0
 53 61  1  0
 53 63  1  0
 54 60  1  0
 54 56  1  0
 55 61  1  0
 56 57  2  0
 56 55  1  0
 58 52  2  0
 59 58  1  0
 59 54  2  0
 60 53  1  0
 61 51  1  0
 63 65  2  0
 64 63  1  0
 66 64  1  0
 67 76  2  0
 67 72  1  0
 68 64  1  0
 68 72  1  0
 69 68  1  0
 70 71  1  0
 70 69  1  0
 71 67  1  0
 72 73  2  0
 73 74  1  0
 75 74  2  0
 76 75  1  0
 77 51  1  0
 77 82  1  0
 77 78  1  0
 78 81  1  1
 78 79  1  0
 80 78  1  0
 82 85  1  0
 83 87  1  0
 83 82  1  0
 84 83  2  0
 87 86  1  0
 89 87  1  0
 89 90  1  0
 89 88  1  0
M  ISO  4   7 100  15 100  49 101  50 101
M  END
>  <TORSDO>  (31) 
F 19

>  <SCORE>  (31) 
-15.764

>  <name>  (31) 
30

>  <ligand_id>  (31) 
30

>  <original_smiles>  (31) 
[H]c1c([H])c([H])c2c(c1[H])C([H])([H])C([H])([H])C([H])([H])C2([H])N([H])C(=O)C1([H])N(C(=O)C([H])(N([H])C(=O)C([H])(N([H])C([H])([H])[H])C([H])([H])[H])C(C([H])([H])[H])(C([H])([H])[H])C([H])([H])[H])C([H])([H])c2c([H])c(OC([H])([H])C([H])([H])c3c([H])c(N([H])C(=O)N4C([H])([H])C([H])([H])C([H])([H])C([H])(n5nc(-c6c([H])c([H])c(Oc7c([H])c([H])c(F)c([H])c7F)c([H])c6[H])c(C(=O)N([H])[H])c5N([H])[H])C4([H])[H])nc(C4([H])C([H])([H])C4([H])[H])c3[H])c([H])c([H])c2C1([H])[H]

>  <smiles>  (31) 
[H]c1c([H])c([H])c2c(c1[H])C([H])([H])C([H])([H])C([H])([H])C2([H])N([H])C(=O)C1([H])N(C(=O)C([H])(N([H])C(=O)C([H])(N([H])C([H])([H])[H])C([H])([H])[H])C(C([H])([H])[H])(C([H])([H])[H])C([H])([H])[H])C([H])([H])c2c([H])c(OC([H])([H])C([H])([H])c3c([H])c(N([H])C(=O)N4C([H])([H])C([H])([H])C([H])([H])C([H])(n5nc(-c6c([H])c([H])c(Oc7c([H])c([H])c(F)c([H])c7F)c([H])c6[H])c(C(=O)N([H])[H])c5N([H])[H])C4([H])[H])nc(C4([H])C([H])([H])C4([H])[H])c3[H])c([H])c([H])c2C1([H])[H]

$$$$
31:0:0
     RDKit          3D

 84 92  0  0  1  0  0  0  0  0999 V2000
  -28.9580  -22.1240   20.1530 C   0  0  0  0  0  3  0  0  0  0  0  0
  -30.2730  -15.7170   20.1110 C   0  0  0  0  0  0  0  0  0  0  0  0
  -30.3110  -13.1870   19.2480 C   0  0  0  0  0  2  0  0  0  0  0  0
  -29.3840  -12.7850   18.0690 C   0  0  0  0  0  2  0  0  0  0  0  0
  -27.9860  -12.4100   18.5800 C   0  0  0  0  0  2  0  0  0  0  0  0
  -27.5050  -13.4070   19.6590 C   0  0  0  0  0  3  0  0  0  0  0  0
  -28.5710  -13.7340   20.7310 C   0  0  0  0  0  2  0  0  0  0  0  0
  -29.7090  -14.3680   20.0230 N   0  0  0  0  0  0  0  0  0  0  0  0
  -31.5050  -15.6010   19.9510 O   0  0  0  0  0  0  0  0  0  0  0  0
  -27.8920  -19.1690   19.7630 C   0  0  0  0  0  3  0  0  0  0  0  0
  -28.1710  -17.5700   20.0820 C   0  0  0  0  0  3  0  0  0  0  0  0
  -30.0440  -18.7700   20.2880 C   0  0  0  0  0  3  0  0  0  0  0  0
  -28.9050  -20.1840   20.4290 C   0  0  0  0  0  0  0  0  0  0  0  0
  -29.6090  -17.1430   20.1950 N   0  0  0  0  0  0  0  0  0  0  0  0
  -25.1770  -13.9170   20.5310 C   0  0  0  0  0  0  0  0  0  0  0  0
  -24.1340  -13.1260   20.9190 C   0  0  0  0  0  0  0  0  0  0  0  0
  -24.6050  -11.7790   20.8400 C   0  0  0  0  0  0  0  0  0  0  0  0
  -26.2120  -13.0540   20.2260 N   0  0  0  0  0  0  0  0  0  0  0  0
  -25.8850  -11.7580   20.4780 N   0  0  0  0  0  0  0  0  0  0  0  0
  -23.8860  -10.5110   21.0250 C   0  0  0  0  0  0  0  0  0  0  0  0
  -24.3290   -9.5360   21.9450 C   0  0  0  0  0  3  0  0  0  0  0  0
  -23.6070   -8.3370   22.1230 C   0  0  0  0  0  3  0  0  0  0  0  0
  -22.4250   -8.1030   21.3790 C   0  0  0  0  0  0  0  0  0  0  0  0
  -22.0000   -9.0660   20.4480 C   0  0  0  0  0  3  0  0  0  0  0  0
  -22.7240  -10.2570   20.2680 C   0  0  0  0  0  3  0  0  0  0  0  0
  -21.6730   -6.9550   21.4650 O   0  0  0  0  0  0  0  0  0  0  0  0
  -21.6110   -6.2210   22.6220 C   0  0  0  0  0  0  0  0  0  0  0  0
  -21.1370   -6.7750   23.8320 C   0  0  0  0  0  3  0  0  0  0  0  0
  -21.0240   -5.9660   24.9790 C   0  0  0  0  0  3  0  0  0  0  0  0
  -21.3750   -4.6030   24.9190 C   0  0  0  0  0  0  0  0  0  0  0  0
  -21.8430   -4.0490   23.7140 C   0  0  0  0  0  3  0  0  0  0  0  0
  -21.9580   -4.8570   22.5690 C   0  0  0  0  0  0  0  0  0  0  0  0
  -22.3890   -4.3120   21.4040 F   0  0  0  0  0  0  0  0  0  0  0  0
  -21.2610   -3.8240   26.0190 F   0  0  0  0  0  0  0  0  0  0  0  0
  -22.7460  -13.5950   21.2420 C   0  0  0  0  0  0  0  0  0  0  0  0
  -22.0460  -12.8840   22.1170 N   0  0  0  0  0  0  0  0  0  0  0  0
  -22.2930  -14.6300   20.7540 O   0  0  0  0  0  0  0  0  0  0  0  0
  -22.4240  -12.0460   22.5340 H   0  0  0  0  0  0  0  0  0  0  0  0
  -21.1180  -13.1870   22.3780 H   0  0  0  0  0  0  0  0  0  0  0  0
  -25.3240  -15.2910   20.3790 N   0  0  0  0  0  0  0  0  0  0  0  0
  -24.5490  -15.9290   20.5230 H   0  0  0  0  0  0  0  0  0  0  0  0
  -26.1450  -15.7440   20.0010 H   0  0  0  0  0  0  0  0  0  0  0  0
  -27.9680  -23.7980   20.3400 C   0  0  0  0  0  3  0  0  0  0  0  0
  -28.1420  -25.5570   20.2770 O   0  0  0  0  0  0  0  0  0  0  0  0
  -24.6180  -31.8610   23.1840 C   0  0  0  0  0  0  0  0  0  0  0  0
  -27.1560  -26.7610   20.2430 C   0  0  0  0  0  0  0  0  0  0  0  0
  -23.4340  -30.4450   21.5620 C   0  0  0  0  0  3  0  0  0  0  0  0
  -24.8830  -28.7880   20.1660 C   0  0  0  0  0  0  0  0  0  0  0  0
  -26.0110  -30.5950   21.4350 C   0  0  0  0  0  2  0  0  0  0  0  0
  -26.0790  -29.1550   20.7940 C   0  0  0  0  0  0  0  0  0  0  0  0
  -27.2020  -28.1720   20.7950 C   0  0  0  0  0  3  0  0  0  0  0  0
  -25.9230  -26.6030   19.5610 C   0  0  0  0  0  3  0  0  0  0  0  0
  -24.8440  -27.5390   19.5240 C   0  0  0  0  0  3  0  0  0  0  0  0
  -23.6740  -29.7370   20.1970 C   0  0  0  0  0  2  0  0  0  0  0  0
  -24.7120  -31.0020   22.1110 N   0  0  0  0  0  0  0  0  0  0  0  0
  -23.5250  -32.1610   23.6940 O   0  0  0  0  0  0  0  0  0  0  0  0
  -22.7210  -29.4740   22.5420 C   0  0  0  0  0  0  0  0  0  0  0  0
  -21.3890  -29.3180   22.4230 N   0  0  0  0  0  0  0  0  0  0  0  0
  -23.3810  -28.8570   23.3830 O   0  0  0  0  0  0  0  0  0  0  0  0
  -20.9060  -29.8650   21.7220 H   0  0  0  0  0  0  0  0  0  0  0  0
  -18.0030  -28.1090   22.9590 C   0  0  0  0  0  0  0  0  0  0  0  0
  -20.5650  -28.3870   23.2060 C   0  0  0  0  0  3  0  0  0  0  0  0
  -20.6680  -26.9500   22.6420 C   0  0  0  0  0  2  0  0  0  0  0  0
  -19.5610  -26.6170   21.6360 C   0  0  0  0  0  2  0  0  0  0  0  0
  -18.1810  -26.7580   22.2850 C   0  0  0  0  0  2  0  0  0  0  0  0
  -19.1220  -28.8810   23.3760 C   0  0  0  0  0  0  0  0  0  0  0  0
  -18.8960  -30.1400   23.9710 C   0  0  0  0  0  3  0  0  0  0  0  0
  -17.5890  -30.6320   24.1490 C   0  0  0  0  0  3  0  0  0  0  0  0
  -16.4870  -29.8590   23.7430 C   0  0  0  0  0  3  0  0  0  0  0  0
  -16.6950  -28.5990   23.1550 C   0  0  0  0  0  3  0  0  0  0  0  0
  -25.8790  -32.5220   23.8190 C   0  0  0  0  0  3  0  0  0  0  0  0
  -25.5480  -33.9200   24.1550 N   0  0  0  0  0  0  0  0  0  0  0  0
  -25.8640  -34.9900   23.4130 C   0  0  0  0  0  0  0  0  0  0  0  0
  -26.5210  -34.9030   22.3720 O   0  0  0  0  0  0  0  0  0  0  0  0
  -24.9600  -34.0570   24.9650 H   0  0  0  0  0  0  0  0  0  0  0  0
  -24.1160  -36.7830   23.1150 C   0  0  0  0  0  1  0  0  0  0  0  0
  -25.3770  -36.3740   23.8940 C   0  0  0  0  0  3  0  0  0  0  0  0
  -27.5180  -37.2770   24.6940 C   0  0  0  0  0  1  0  0  0  0  0  0
  -26.3990  -37.4370   23.7700 N   0  0  0  0  0  0  0  0  0  0  0  0
  -25.9870  -38.3530   23.9240 H   0  0  0  0  0  0  0  0  0  0  0  0
  -26.3870  -31.7680   25.1110 C   0  0  1  0  0  0  0  0  0  0  0  0
  -25.2860  -31.5410   26.1740 C   0  0  0  0  0  1  0  0  0  0  0  0
  -26.9790  -30.3860   24.7530 C   0  0  0  0  0  1  0  0  0  0  0  0
  -27.5310  -32.5720   25.7720 C   0  0  0  0  0  1  0  0  0  0  0  0
  1 43  2  0
  1 13  1  0
  2 14  1  0
  3  8  1  0
  4  5  1  0
  4  3  1  0
  6  5  1  0
  6 18  1  0
  6  7  1  0
  8  2  1  0
  8  7  1  0
  9  2  2  0
 10 11  2  0
 10 13  1  0
 11 14  1  0
 12 13  2  0
 14 12  1  0
 15 16  2  0
 16 35  1  0
 17 16  1  0
 17 20  1  0
 18 19  1  0
 18 15  1  0
 19 17  2  0
 20 21  1  0
 21 22  2  0
 23 26  1  0
 23 22  1  0
 24 23  2  0
 25 24  1  0
 25 20  2  0
 26 27  1  0
 27 28  1  0
 28 29  2  0
 30 29  1  0
 30 34  1  0
 31 30  2  0
 32 27  2  0
 32 31  1  0
 33 32  1  0
 35 36  1  0
 36 39  1  0
 36 38  1  0
 37 35  2  0
 40 41  1  0
 40 15  1  0
 42 40  1  0
 44 43  1  0
 45 56  2  0
 46 44  1  0
 46 51  1  0
 47 55  1  0
 47 57  1  0
 48 54  1  0
 48 50  1  0
 49 55  1  0
 50 51  2  0
 50 49  1  0
 52 46  2  0
 53 52  1  0
 53 48  2  0
 54 47  1  0
 55 45  1  0
 57 59  2  0
 58 57  1  0
 60 58  1  0
 61 70  2  0
 61 66  1  0
 62 58  1  0
 62 66  1  0
 63 62  1  0
 64 65  1  0
 64 63  1  0
 65 61  1  0
 66 67  2  0
 67 68  1  0
 69 68  2  0
 70 69  1  0
 71 45  1  0
 71 72  1  0
 71 81  1  0
 72 75  1  0
 73 77  1  0
 73 72  1  0
 74 73  2  0
 77 76  1  0
 79 77  1  0
 79 80  1  0
 79 78  1  0
 81 84  1  1
 81 82  1  0
 83 81  1  0
M  ISO  4   2 100  14 100  43 101  44 101
M  END
>  <TORSDO>  (32) 
F 17

>  <SCORE>  (32) 
-16.609

>  <name>  (32) 
31

>  <ligand_id>  (32) 
31

>  <original_smiles>  (32) 
[H]c1c([H])c([H])c2c(c1[H])C([H])([H])C([H])([H])C([H])([H])C2([H])N([H])C(=O)C1([H])N(C(=O)C([H])(N([H])C(=O)C([H])(N([H])C([H])([H])[H])C([H])([H])[H])C(C([H])([H])[H])(C([H])([H])[H])C([H])([H])[H])C([H])([H])c2c([H])c(OC([H])([H])C([H])([H])C3([H])C([H])([H])N(C(=O)N4C([H])([H])C([H])([H])C([H])([H])C([H])(n5nc(-c6c([H])c([H])c(Oc7c([H])c([H])c(F)c([H])c7F)c([H])c6[H])c(C(=O)N([H])[H])c5N([H])[H])C4([H])[H])C([H])([H])C3([H])[H])c([H])c([H])c2C1([H])[H]

>  <smiles>  (32) 
[H]c1c([H])c([H])c2c(c1[H])C([H])([H])C([H])([H])C([H])([H])C2([H])N([H])C(=O)C1([H])N(C(=O)C([H])(N([H])C(=O)C([H])(N([H])C([H])([H])[H])C([H])([H])[H])C(C([H])([H])[H])(C([H])([H])[H])C([H])([H])[H])C([H])([H])c2c([H])c(OC([H])([H])C([H])([H])C3([H])C([H])([H])N(C(=O)N4C([H])([H])C([H])([H])C([H])([H])C([H])(n5nc(-c6c([H])c([H])c(Oc7c([H])c([H])c(F)c([H])c7F)c([H])c6[H])c(C(=O)N([H])[H])c5N([H])[H])C4([H])[H])C([H])([H])C3([H])[H])c([H])c([H])c2C1([H])[H]

$$$$
32:0:0
     RDKit          3D

 90 99  0  0  1  0  0  0  0  0999 V2000
  -29.4660  -22.6000   21.8240 C   0  0  0  0  0  3  0  0  0  0  0  0
  -30.2110  -20.3110   21.7580 C   0  0  0  0  0  0  0  0  0  0  0  0
  -28.7570  -22.5680   20.6050 C   0  0  0  0  0  0  0  0  0  0  0  0
  -29.5750  -19.9930   20.5220 C   0  0  0  0  0  0  0  0  0  0  0  0
  -30.1500  -21.5440   22.3540 N   0  0  0  0  0  0  0  0  0  0  0  0
  -28.8490  -21.1960   19.9910 N   0  0  0  0  0  0  0  0  0  0  0  0
  -30.5880  -18.1050   23.1620 C   0  0  0  0  0  2  0  0  0  0  0  0
  -31.1190  -19.2410   23.9910 C   0  0  0  0  0  2  0  0  0  0  0  0
  -31.1200  -19.3460   22.4760 C   0  0  0  0  0  3  0  0  0  0  0  0
  -29.9170  -18.3990   19.7840 C   0  0  0  0  0  2  0  0  0  0  0  0
  -30.5650  -15.4470   19.9790 C   0  0  0  0  0  0  0  0  0  0  0  0
  -30.5100  -12.9870   19.0770 C   0  0  0  0  0  2  0  0  0  0  0  0
  -29.5480  -12.7810   17.8750 C   0  0  0  0  0  2  0  0  0  0  0  0
  -28.1180  -12.5020   18.3610 C   0  0  0  0  0  2  0  0  0  0  0  0
  -27.7140  -13.4420   19.5240 C   0  0  0  0  0  3  0  0  0  0  0  0
  -28.8040  -13.5880   20.6110 C   0  0  0  0  0  2  0  0  0  0  0  0
  -30.0010  -14.1250   19.9440 N   0  0  0  0  0  0  0  0  0  0  0  0
  -31.7600  -15.4300   19.6480 O   0  0  0  0  0  0  0  0  0  0  0  0
  -29.8260  -16.7410   20.1840 N   0  0  0  0  0  0  0  0  0  0  0  0
  -28.8940  -16.5290   20.5080 H   0  0  0  0  0  0  0  0  0  0  0  0
  -25.3750  -13.9980   20.3620 C   0  0  0  0  0  0  0  0  0  0  0  0
  -24.3260  -13.2220   20.7630 C   0  0  0  0  0  0  0  0  0  0  0  0
  -24.7890  -11.8690   20.7130 C   0  0  0  0  0  0  0  0  0  0  0  0
  -26.4060  -13.1210   20.0790 N   0  0  0  0  0  0  0  0  0  0  0  0
  -26.0700  -11.8340   20.3570 N   0  0  0  0  0  0  0  0  0  0  0  0
  -24.0630  -10.6100   20.9250 C   0  0  0  0  0  0  0  0  0  0  0  0
  -24.4830   -9.6680   21.8880 C   0  0  0  0  0  3  0  0  0  0  0  0
  -23.7550   -8.4740   22.0870 C   0  0  0  0  0  3  0  0  0  0  0  0
  -22.5930   -8.2150   21.3230 C   0  0  0  0  0  0  0  0  0  0  0  0
  -22.1940   -9.1440   20.3460 C   0  0  0  0  0  3  0  0  0  0  0  0
  -22.9230  -10.3290   20.1470 C   0  0  0  0  0  3  0  0  0  0  0  0
  -21.8380   -7.0720   21.4280 O   0  0  0  0  0  0  0  0  0  0  0  0
  -21.7110   -6.4010   22.6180 C   0  0  0  0  0  0  0  0  0  0  0  0
  -21.2030   -7.0290   23.7780 C   0  0  0  0  0  3  0  0  0  0  0  0
  -21.0260   -6.2840   24.9610 C   0  0  0  0  0  3  0  0  0  0  0  0
  -21.3420   -4.9120   24.9840 C   0  0  0  0  0  0  0  0  0  0  0  0
  -21.8400   -4.2850   23.8280 C   0  0  0  0  0  3  0  0  0  0  0  0
  -22.0220   -5.0270   22.6480 C   0  0  0  0  0  0  0  0  0  0  0  0
  -22.4840   -4.4150   21.5330 F   0  0  0  0  0  0  0  0  0  0  0  0
  -21.1660   -4.1930   26.1170 F   0  0  0  0  0  0  0  0  0  0  0  0
  -22.9380  -13.7010   21.0790 C   0  0  0  0  0  0  0  0  0  0  0  0
  -22.2480  -13.0240   21.9880 N   0  0  0  0  0  0  0  0  0  0  0  0
  -22.4770  -14.7120   20.5520 O   0  0  0  0  0  0  0  0  0  0  0  0
  -22.6390  -12.2100   22.4380 H   0  0  0  0  0  0  0  0  0  0  0  0
  -21.3180  -13.3280   22.2410 H   0  0  0  0  0  0  0  0  0  0  0  0
  -25.5330  -15.3710   20.1820 N   0  0  0  0  0  0  0  0  0  0  0  0
  -24.7560  -16.0140   20.2970 H   0  0  0  0  0  0  0  0  0  0  0  0
  -26.3510  -15.8060   19.7790 H   0  0  0  0  0  0  0  0  0  0  0  0
  -27.8080  -24.0250   20.1990 C   0  0  0  0  0  2  0  0  0  0  0  0
  -28.0330  -25.6890   20.3520 O   0  0  0  0  0  0  0  0  0  0  0  0
  -24.5590  -31.8890   23.0480 C   0  0  0  0  0  0  0  0  0  0  0  0
  -27.0490  -26.8270   20.2090 C   0  0  0  0  0  0  0  0  0  0  0  0
  -23.3350  -30.4190   21.5000 C   0  0  0  0  0  3  0  0  0  0  0  0
  -24.7580  -28.7480   20.1170 C   0  0  0  0  0  0  0  0  0  0  0  0
  -25.9000  -30.6090   21.2970 C   0  0  0  0  0  2  0  0  0  0  0  0
  -25.9580  -29.1670   20.7010 C   0  0  0  0  0  0  0  0  0  0  0  0
  -27.0940  -28.2270   20.7220 C   0  0  0  0  0  3  0  0  0  0  0  0
  -25.8230  -26.5820   19.5490 C   0  0  0  0  0  3  0  0  0  0  0  0
  -24.7200  -27.4790   19.5150 C   0  0  0  0  0  3  0  0  0  0  0  0
  -23.5370  -29.6700   20.1540 C   0  0  0  0  0  2  0  0  0  0  0  0
  -24.6220  -31.0020   22.0000 N   0  0  0  0  0  0  0  0  0  0  0  0
  -23.4780  -32.2030   23.5740 O   0  0  0  0  0  0  0  0  0  0  0  0
  -22.6560  -29.4720   22.5240 C   0  0  0  0  0  0  0  0  0  0  0  0
  -21.3300  -29.2690   22.4060 N   0  0  0  0  0  0  0  0  0  0  0  0
  -23.3300  -28.9200   23.3960 O   0  0  0  0  0  0  0  0  0  0  0  0
  -20.8350  -29.7670   21.6800 H   0  0  0  0  0  0  0  0  0  0  0  0
  -17.9930  -27.9310   22.9130 C   0  0  0  0  0  0  0  0  0  0  0  0
  -20.5250  -28.3590   23.2300 C   0  0  0  0  0  3  0  0  0  0  0  0
  -20.7190  -26.8900   22.7870 C   0  0  0  0  0  2  0  0  0  0  0  0
  -19.6720  -26.4220   21.7710 C   0  0  0  0  0  2  0  0  0  0  0  0
  -18.2630  -26.5430   22.3580 C   0  0  0  0  0  2  0  0  0  0  0  0
  -19.0540  -28.7890   23.3060 C   0  0  0  0  0  0  0  0  0  0  0  0
  -18.7460  -30.0800   23.7870 C   0  0  0  0  0  3  0  0  0  0  0  0
  -17.4100  -30.5160   23.8760 C   0  0  0  0  0  3  0  0  0  0  0  0
  -16.3630  -29.6570   23.4980 C   0  0  0  0  0  3  0  0  0  0  0  0
  -16.6560  -28.3660   23.0240 C   0  0  0  0  0  3  0  0  0  0  0  0
  -25.8390  -32.5630   23.6290 C   0  0  0  0  0  3  0  0  0  0  0  0
  -26.4230  -31.8000   24.8820 C   0  0  1  0  0  0  0  0  0  0  0  0
  -25.3770  -31.5240   25.9870 C   0  0  0  0  0  1  0  0  0  0  0  0
  -27.0330  -30.4420   24.4680 C   0  0  0  0  0  1  0  0  0  0  0  0
  -27.5740  -32.6230   25.5070 C   0  0  0  0  0  1  0  0  0  0  0  0
  -25.5000  -33.9510   23.9960 N   0  0  0  0  0  0  0  0  0  0  0  0
  -25.8370  -35.0370   23.2900 C   0  0  0  0  0  0  0  0  0  0  0  0
  -26.5290  -34.9790   22.2710 O   0  0  0  0  0  0  0  0  0  0  0  0
  -24.8910  -34.0700   24.7930 H   0  0  0  0  0  0  0  0  0  0  0  0
  -24.1120  -36.8410   22.9610 C   0  0  0  0  0  1  0  0  0  0  0  0
  -25.3310  -36.4060   23.7910 C   0  0  0  0  0  3  0  0  0  0  0  0
  -27.4380  -37.2620   24.7210 C   0  0  0  0  0  1  0  0  0  0  0  0
  -26.3610  -37.4680   23.7550 N   0  0  0  0  0  0  0  0  0  0  0  0
  -25.9460  -38.3790   23.9320 H   0  0  0  0  0  0  0  0  0  0  0  0
  1  5  1  0
  2  5  2  0
  2  9  1  0
  3  1  2  0
  4  2  1  0
  6  4  2  0
  6  3  1  0
  7  8  1  0
  9  7  1  0
  9  8  1  0
 10 19  1  0
 10  4  1  0
 11 19  1  0
 12 17  1  0
 13 14  1  0
 13 12  1  0
 15 14  1  0
 15 24  1  0
 15 16  1  0
 17 11  1  0
 17 16  1  0
 18 11  2  0
 19 20  1  0
 21 22  2  0
 22 41  1  0
 23 22  1  0
 23 26  1  0
 24 25  1  0
 24 21  1  0
 25 23  2  0
 26 27  1  0
 27 28  2  0
 29 32  1  0
 29 28  1  0
 30 29  2  0
 31 30  1  0
 31 26  2  0
 32 33  1  0
 33 38  2  0
 33 34  1  0
 34 35  2  0
 35 36  1  0
 36 40  1  0
 37 36  2  0
 38 37  1  0
 39 38  1  0
 41 42  1  0
 42 45  1  0
 42 44  1  0
 43 41  2  0
 46 47  1  0
 46 21  1  0
 48 46  1  0
 49 50  1  0
 49  3  1  0
 51 62  2  0
 52 50  1  0
 52 57  1  0
 53 61  1  0
 53 63  1  0
 54 60  1  0
 54 56  1  0
 55 61  1  0
 56 57  2  0
 56 55  1  0
 58 52  2  0
 59 58  1  0
 59 54  2  0
 60 53  1  0
 61 51  1  0
 63 65  2  0
 64 63  1  0
 66 64  1  0
 67 76  2  0
 67 72  1  0
 68 64  1  0
 68 72  1  0
 69 68  1  0
 70 71  1  0
 70 69  1  0
 71 67  1  0
 72 73  2  0
 73 74  1  0
 75 74  2  0
 76 75  1  0
 77 51  1  0
 77 82  1  0
 77 78  1  0
 78 81  1  1
 78 79  1  0
 80 78  1  0
 82 85  1  0
 83 87  1  0
 83 82  1  0
 84 83  2  0
 87 86  1  0
 89 87  1  0
 89 90  1  0
 89 88  1  0
M  ISO  4  11 100  19 100  49 101  50 101
M  END
>  <TORSDO>  (33) 
F 19

>  <SCORE>  (33) 
-15.205

>  <name>  (33) 
32

>  <ligand_id>  (33) 
32

>  <original_smiles>  (33) 
[H]c1nc(C2([H])C([H])([H])C2([H])[H])c(C([H])([H])N([H])C(=O)N2C([H])([H])C([H])([H])C([H])([H])C([H])(n3nc(-c4c([H])c([H])c(Oc5c([H])c([H])c(F)c([H])c5F)c([H])c4[H])c(C(=O)N([H])[H])c3N([H])[H])C2([H])[H])nc1C([H])([H])Oc1c([H])c([H])c2c(c1[H])C([H])([H])N(C(=O)C([H])(N([H])C(=O)C([H])(N([H])C([H])([H])[H])C([H])([H])[H])C(C([H])([H])[H])(C([H])([H])[H])C([H])([H])[H])C([H])(C(=O)N([H])C1([H])c3c([H])c([H])c([H])c([H])c3C([H])([H])C([H])([H])C1([H])[H])C2([H])[H]

>  <smiles>  (33) 
[H]c1nc(C2([H])C([H])([H])C2([H])[H])c(C([H])([H])N([H])C(=O)N2C([H])([H])C([H])([H])C([H])([H])C([H])(n3nc(-c4c([H])c([H])c(Oc5c([H])c([H])c(F)c([H])c5F)c([H])c4[H])c(C(=O)N([H])[H])c3N([H])[H])C2([H])[H])nc1C([H])([H])Oc1c([H])c([H])c2c(c1[H])C([H])([H])N(C(=O)C([H])(N([H])C(=O)C([H])(N([H])C([H])([H])[H])C([H])([H])[H])C(C([H])([H])[H])(C([H])([H])[H])C([H])([H])[H])C([H])(C(=O)N([H])C1([H])c3c([H])c([H])c([H])c([H])c3C([H])([H])C([H])([H])C1([H])[H])C2([H])[H]

$$$$
33:0:0
     RDKit          3D

 91100  0  0  1  0  0  0  0  0999 V2000
  -28.8990  -23.3310   20.8470 C   0  0  0  0  0  2  0  0  0  0  0  0
  -27.8430  -23.8330   18.8610 C   0  0  0  0  0  2  0  0  0  0  0  0
  -28.5240  -21.8650   20.1880 C   0  0  0  0  0  3  0  0  0  0  0  0
  -27.9720  -24.5500   20.2410 C   0  0  0  0  0  3  0  0  0  0  0  0
  -28.3620  -22.4510   18.8740 O   0  0  0  0  0  0  0  0  0  0  0  0
  -30.4890  -15.1080   20.2960 C   0  0  0  0  0  0  0  0  0  0  0  0
  -30.3950  -12.7220   19.3910 C   0  0  0  0  0  2  0  0  0  0  0  0
  -29.4620  -12.6200   18.1630 C   0  0  0  0  0  2  0  0  0  0  0  0
  -28.0050  -12.3870   18.6060 C   0  0  0  0  0  2  0  0  0  0  0  0
  -27.5860  -13.3250   19.7660 C   0  0  0  0  0  3  0  0  0  0  0  0
  -28.6460  -13.3910   20.8870 C   0  0  0  0  0  2  0  0  0  0  0  0
  -29.8990  -13.8340   20.2610 N   0  0  0  0  0  0  0  0  0  0  0  0
  -31.7000  -15.1220   20.0330 O   0  0  0  0  0  0  0  0  0  0  0  0
  -29.0390  -19.0030   20.4030 C   0  0  0  0  0  3  0  0  0  0  0  0
  -29.4270  -20.4410   20.2410 C   0  0  0  0  0  0  0  0  0  0  0  0
  -29.9890  -17.8510   20.2990 C   0  0  0  0  0  0  0  0  0  0  0  0
  -31.5490  -19.5660   19.8920 C   0  0  0  0  0  0  0  0  0  0  0  0
  -33.0000  -19.8630   19.5860 C   0  0  0  0  0  1  0  0  0  0  0  0
  -30.7330  -20.6210   19.9650 N   0  0  0  0  0  0  0  0  0  0  0  0
  -31.2450  -18.2720   20.0440 N   0  0  0  0  0  0  0  0  0  0  0  0
  -29.7110  -16.3220   20.4280 N   0  0  0  0  0  0  0  0  0  0  0  0
  -28.7430  -16.1180   20.6130 H   0  0  0  0  0  0  0  0  0  0  0  0
  -25.2140  -13.8830   20.5380 C   0  0  0  0  0  0  0  0  0  0  0  0
  -24.1560  -13.1000   20.9100 C   0  0  0  0  0  0  0  0  0  0  0  0
  -24.6270  -11.7520   20.8610 C   0  0  0  0  0  0  0  0  0  0  0  0
  -26.2570  -13.0120   20.2780 N   0  0  0  0  0  0  0  0  0  0  0  0
  -25.9160  -11.7240   20.5400 N   0  0  0  0  0  0  0  0  0  0  0  0
  -23.9060  -10.4840   21.0430 C   0  0  0  0  0  0  0  0  0  0  0  0
  -24.3380   -9.5150   21.9750 C   0  0  0  0  0  3  0  0  0  0  0  0
  -23.6150   -8.3140   22.1470 C   0  0  0  0  0  3  0  0  0  0  0  0
  -22.4460   -8.0750   21.3860 C   0  0  0  0  0  0  0  0  0  0  0  0
  -22.0330   -9.0330   20.4430 C   0  0  0  0  0  3  0  0  0  0  0  0
  -22.7570  -10.2260   20.2700 C   0  0  0  0  0  3  0  0  0  0  0  0
  -21.6940   -6.9280   21.4670 O   0  0  0  0  0  0  0  0  0  0  0  0
  -21.6320   -6.1880   22.6200 C   0  0  0  0  0  0  0  0  0  0  0  0
  -21.1650   -6.7390   23.8340 C   0  0  0  0  0  3  0  0  0  0  0  0
  -21.0510   -5.9250   24.9790 C   0  0  0  0  0  3  0  0  0  0  0  0
  -21.3930   -4.5620   24.9110 C   0  0  0  0  0  0  0  0  0  0  0  0
  -21.8520   -4.0100   23.7020 C   0  0  0  0  0  3  0  0  0  0  0  0
  -21.9680   -4.8210   22.5600 C   0  0  0  0  0  0  0  0  0  0  0  0
  -22.3910   -4.2800   21.3910 F   0  0  0  0  0  0  0  0  0  0  0  0
  -21.2760   -3.7770   26.0080 F   0  0  0  0  0  0  0  0  0  0  0  0
  -22.7590  -13.5690   21.1920 C   0  0  0  0  0  0  0  0  0  0  0  0
  -22.0400  -12.8660   22.0580 N   0  0  0  0  0  0  0  0  0  0  0  0
  -22.3150  -14.5960   20.6790 O   0  0  0  0  0  0  0  0  0  0  0  0
  -22.4140  -12.0380   22.4970 H   0  0  0  0  0  0  0  0  0  0  0  0
  -21.1020  -13.1630   22.2900 H   0  0  0  0  0  0  0  0  0  0  0  0
  -25.3680  -15.2570   20.3710 N   0  0  0  0  0  0  0  0  0  0  0  0
  -24.5910  -15.8990   20.4930 H   0  0  0  0  0  0  0  0  0  0  0  0
  -26.1880  -15.7010   19.9820 H   0  0  0  0  0  0  0  0  0  0  0  0
  -28.2210  -26.1230   20.2810 O   0  0  0  0  0  0  0  0  0  0  0  0
  -24.6530  -31.9180   23.2580 C   0  0  0  0  0  0  0  0  0  0  0  0
  -27.1760  -27.1370   20.2230 C   0  0  0  0  0  0  0  0  0  0  0  0
  -23.4340  -30.5260   21.6290 C   0  0  0  0  0  3  0  0  0  0  0  0
  -24.8630  -28.9320   20.1970 C   0  0  0  0  0  0  0  0  0  0  0  0
  -25.9920  -30.7630   21.4490 C   0  0  0  0  0  2  0  0  0  0  0  0
  -26.0530  -29.3650   20.7980 C   0  0  0  0  0  0  0  0  0  0  0  0
  -27.2090  -28.4860   20.7880 C   0  0  0  0  0  3  0  0  0  0  0  0
  -25.9590  -26.8190   19.5840 C   0  0  0  0  0  3  0  0  0  0  0  0
  -24.8330  -27.6750   19.5720 C   0  0  0  0  0  3  0  0  0  0  0  0
  -23.6450  -29.8430   20.2500 C   0  0  0  0  0  2  0  0  0  0  0  0
  -24.7140  -31.0920   22.1660 N   0  0  0  0  0  0  0  0  0  0  0  0
  -23.5720  -32.2100   23.7920 O   0  0  0  0  0  0  0  0  0  0  0  0
  -22.7530  -29.5280   22.6000 C   0  0  0  0  0  0  0  0  0  0  0  0
  -21.4250  -29.3550   22.4720 N   0  0  0  0  0  0  0  0  0  0  0  0
  -23.4230  -28.9120   23.4320 O   0  0  0  0  0  0  0  0  0  0  0  0
  -20.9390  -29.9050   21.7780 H   0  0  0  0  0  0  0  0  0  0  0  0
  -18.0480  -28.1310   22.9670 C   0  0  0  0  0  0  0  0  0  0  0  0
  -20.6030  -28.4210   23.2500 C   0  0  0  0  0  3  0  0  0  0  0  0
  -20.7210  -26.9820   22.6950 C   0  0  0  0  0  2  0  0  0  0  0  0
  -19.6300  -26.6370   21.6770 C   0  0  0  0  0  2  0  0  0  0  0  0
  -18.2430  -26.7760   22.3090 C   0  0  0  0  0  2  0  0  0  0  0  0
  -19.1560  -28.9110   23.3940 C   0  0  0  0  0  0  0  0  0  0  0  0
  -18.9200  -30.1770   23.9710 C   0  0  0  0  0  3  0  0  0  0  0  0
  -17.6080  -30.6650   24.1250 C   0  0  0  0  0  3  0  0  0  0  0  0
  -16.5150  -29.8850   23.7120 C   0  0  0  0  0  3  0  0  0  0  0  0
  -16.7360  -28.6200   23.1380 C   0  0  0  0  0  3  0  0  0  0  0  0
  -25.9360  -32.5480   23.8770 C   0  0  0  0  0  3  0  0  0  0  0  0
  -25.6300  -33.9460   24.2230 N   0  0  0  0  0  0  0  0  0  0  0  0
  -25.9280  -35.0060   23.4600 C   0  0  0  0  0  0  0  0  0  0  0  0
  -26.5570  -34.9120   22.4030 O   0  0  0  0  0  0  0  0  0  0  0  0
  -25.0680  -34.0930   25.0480 H   0  0  0  0  0  0  0  0  0  0  0  0
  -24.1690  -36.7890   23.2060 C   0  0  0  0  0  1  0  0  0  0  0  0
  -25.4570  -36.3920   23.9460 C   0  0  0  0  0  3  0  0  0  0  0  0
  -27.6240  -37.3000   24.6590 C   0  0  0  0  0  1  0  0  0  0  0  0
  -26.4720  -37.4550   23.7750 N   0  0  0  0  0  0  0  0  0  0  0  0
  -26.0670  -38.3710   23.9410 H   0  0  0  0  0  0  0  0  0  0  0  0
  -26.4560  -31.7730   25.1510 C   0  0  1  0  0  0  0  0  0  0  0  0
  -25.3680  -31.5400   26.2260 C   0  0  0  0  0  1  0  0  0  0  0  0
  -27.0290  -30.3920   24.7570 C   0  0  0  0  0  1  0  0  0  0  0  0
  -27.6140  -32.5600   25.8060 C   0  0  0  0  0  1  0  0  0  0  0  0
  2  5  1  0
  2  4  1  0
  3 15  1  0
  3  1  1  0
  4 51  1  0
  4  1  1  0
  5  3  1  0
  6 21  1  0
  7 12  1  0
  8  9  1  0
  8  7  1  0
 10  9  1  0
 10 26  1  0
 10 11  1  0
 12  6  1  0
 12 11  1  0
 13  6  2  0
 15 14  2  0
 16 14  1  0
 16 21  1  0
 17 19  2  0
 17 20  1  0
 18 17  1  0
 19 15  1  0
 20 16  2  0
 21 22  1  0
 23 24  2  0
 24 43  1  0
 25 24  1  0
 25 28  1  0
 26 23  1  0
 26 27  1  0
 27 25  2  0
 28 29  1  0
 29 30  2  0
 31 34  1  0
 31 30  1  0
 32 31  2  0
 33 32  1  0
 33 28  2  0
 34 35  1  0
 35 36  1  0
 36 37  2  0
 38 37  1  0
 38 42  1  0
 39 38  2  0
 40 35  2  0
 40 39  1  0
 41 40  1  0
 43 44  1  0
 44 47  1  0
 44 46  1  0
 45 43  2  0
 48 49  1  0
 48 23  1  0
 50 48  1  0
 52 63  2  0
 53 51  1  0
 53 58  1  0
 54 62  1  0
 54 64  1  0
 55 61  1  0
 55 57  1  0
 56 62  1  0
 57 56  1  0
 58 57  2  0
 59 53  2  0
 60 59  1  0
 60 55  2  0
 61 54  1  0
 62 52  1  0
 64 66  2  0
 65 64  1  0
 67 65  1  0
 68 77  2  0
 68 73  1  0
 69 65  1  0
 69 73  1  0
 70 69  1  0
 71 72  1  0
 71 70  1  0
 72 68  1  0
 73 74  2  0
 74 75  1  0
 76 75  2  0
 77 76  1  0
 78 52  1  0
 78 79  1  0
 78 88  1  0
 79 82  1  0
 80 84  1  0
 80 79  1  0
 81 80  2  0
 84 83  1  0
 86 87  1  0
 86 84  1  0
 86 85  1  0
 88 91  1  1
 88 89  1  0
 90 88  1  0
M  ISO  4   4 101   6 100  21 100  51 101
M  END
>  <TORSDO>  (34) 
F 16

>  <SCORE>  (34) 
-15.603

>  <name>  (34) 
33

>  <ligand_id>  (34) 
33

>  <original_smiles>  (34) 
[H]c1c(N([H])C(=O)N2C([H])([H])C([H])([H])C([H])([H])C([H])(n3nc(-c4c([H])c([H])c(Oc5c([H])c([H])c(F)c([H])c5F)c([H])c4[H])c(C(=O)N([H])[H])c3N([H])[H])C2([H])[H])nc(C([H])([H])[H])nc1C1([H])OC([H])([H])C([H])(Oc2c([H])c([H])c3c(c2[H])C([H])([H])N(C(=O)C([H])(N([H])C(=O)C([H])(N([H])C([H])([H])[H])C([H])([H])[H])C(C([H])([H])[H])(C([H])([H])[H])C([H])([H])[H])C([H])(C(=O)N([H])C2([H])c4c([H])c([H])c([H])c([H])c4C([H])([H])C([H])([H])C2([H])[H])C3([H])[H])C1([H])[H]

>  <smiles>  (34) 
[H]c1c(N([H])C(=O)N2C([H])([H])C([H])([H])C([H])([H])C([H])(n3nc(-c4c([H])c([H])c(Oc5c([H])c([H])c(F)c([H])c5F)c([H])c4[H])c(C(=O)N([H])[H])c3N([H])[H])C2([H])[H])nc(C([H])([H])[H])nc1C1([H])OC([H])([H])C([H])(Oc2c([H])c([H])c3c(c2[H])C([H])([H])N(C(=O)C([H])(N([H])C(=O)C([H])(N([H])C([H])([H])[H])C([H])([H])[H])C(C([H])([H])[H])(C([H])([H])[H])C([H])([H])[H])C([H])(C(=O)N([H])C2([H])c4c([H])c([H])c([H])c([H])c4C([H])([H])C([H])([H])C2([H])[H])C3([H])[H])C1([H])[H]

$$$$
34:0:0
     RDKit          3D

 90 99  0  0  1  0  0  0  0  0999 V2000
  -29.7340  -21.3790   20.3080 C   0  0  0  0  0  0  0  0  0  0  0  0
  -30.3470  -19.8960   20.3160 C   0  0  0  0  0  0  0  0  0  0  0  0
  -29.7710  -21.9370   21.6280 C   0  0  0  0  0  0  0  0  0  0  0  0
  -30.5020  -20.0330   22.6430 C   0  0  0  0  0  0  0  0  0  0  0  0
  -29.5130  -23.3980   21.9780 C   0  0  0  0  0  1  0  0  0  0  0  0
  -30.9320  -19.3300   23.9110 C   0  0  0  0  0  1  0  0  0  0  0  0
  -30.6190  -19.3670   21.5250 N   0  0  0  0  0  0  0  0  0  0  0  0
  -30.1160  -21.2760   22.7380 N   0  0  0  0  0  0  0  0  0  0  0  0
  -31.4740  -15.6160   19.5050 C   0  0  0  0  0  0  0  0  0  0  0  0
  -31.2630  -13.1570   18.6900 C   0  0  0  0  0  2  0  0  0  0  0  0
  -30.2080  -12.9850   17.5660 C   0  0  0  0  0  2  0  0  0  0  0  0
  -28.8060  -12.7770   18.1630 C   0  0  0  0  0  2  0  0  0  0  0  0
  -28.5210  -13.7580   19.3270 C   0  0  0  0  0  3  0  0  0  0  0  0
  -29.6930  -13.8760   20.3280 C   0  0  0  0  0  2  0  0  0  0  0  0
  -30.8660  -14.3260   19.5620 N   0  0  0  0  0  0  0  0  0  0  0  0
  -32.6500  -15.5630   19.1110 O   0  0  0  0  0  0  0  0  0  0  0  0
  -30.0700  -17.6130   18.6530 C   0  0  0  0  0  2  0  0  0  0  0  0
  -30.9770  -18.5300   19.4390 C   0  0  0  0  0  3  0  0  0  0  0  0
  -30.7730  -16.9150   19.6960 N   0  0  0  0  0  0  0  0  0  0  0  0
  -26.3450  -14.4200   20.4780 C   0  0  0  0  0  0  0  0  0  0  0  0
  -25.2620  -13.7000   20.9020 C   0  0  0  0  0  0  0  0  0  0  0  0
  -25.5720  -12.3290   20.6430 C   0  0  0  0  0  0  0  0  0  0  0  0
  -27.2450  -13.4950   19.9820 N   0  0  0  0  0  0  0  0  0  0  0  0
  -26.8000  -12.2210   20.1440 N   0  0  0  0  0  0  0  0  0  0  0  0
  -24.7440  -11.1230   20.7870 C   0  0  0  0  0  0  0  0  0  0  0  0
  -25.1100  -10.0720   21.6560 C   0  0  0  0  0  3  0  0  0  0  0  0
  -24.2850   -8.9340   21.7940 C   0  0  0  0  0  3  0  0  0  0  0  0
  -23.0790   -8.8400   21.0600 C   0  0  0  0  0  0  0  0  0  0  0  0
  -22.7290   -9.8790   20.1790 C   0  0  0  0  0  3  0  0  0  0  0  0
  -23.5550  -11.0080   20.0400 C   0  0  0  0  0  3  0  0  0  0  0  0
  -22.2270   -7.7630   21.1110 O   0  0  0  0  0  0  0  0  0  0  0  0
  -22.0200   -7.0630   22.2720 C   0  0  0  0  0  0  0  0  0  0  0  0
  -21.5050   -7.6790   23.4330 C   0  0  0  0  0  3  0  0  0  0  0  0
  -21.2420   -6.9080   24.5830 C   0  0  0  0  0  3  0  0  0  0  0  0
  -21.4830   -5.5210   24.5710 C   0  0  0  0  0  0  0  0  0  0  0  0
  -21.9880   -4.9040   23.4130 C   0  0  0  0  0  3  0  0  0  0  0  0
  -22.2520   -5.6720   22.2670 C   0  0  0  0  0  0  0  0  0  0  0  0
  -22.7190   -5.0680   21.1480 F   0  0  0  0  0  0  0  0  0  0  0  0
  -21.2240   -4.7790   25.6730 F   0  0  0  0  0  0  0  0  0  0  0  0
  -23.9720  -14.2630   21.4260 C   0  0  0  0  0  0  0  0  0  0  0  0
  -23.3090  -13.5460   22.3240 N   0  0  0  0  0  0  0  0  0  0  0  0
  -23.5710  -15.3720   21.0750 O   0  0  0  0  0  0  0  0  0  0  0  0
  -23.6500  -12.6450   22.6290 H   0  0  0  0  0  0  0  0  0  0  0  0
  -22.4460  -13.9000   22.7130 H   0  0  0  0  0  0  0  0  0  0  0  0
  -26.6350  -15.7810   20.4460 N   0  0  0  0  0  0  0  0  0  0  0  0
  -25.9770  -16.4890   20.7520 H   0  0  0  0  0  0  0  0  0  0  0  0
  -27.5080  -16.1660   20.1100 H   0  0  0  0  0  0  0  0  0  0  0  0
  -29.1360  -22.6360   19.2400 C   0  0  0  0  0  2  0  0  0  0  0  0
  -28.1400  -24.1560   19.5080 C   0  0  0  0  0  2  0  0  0  0  0  0
  -28.3180  -25.8050   19.4240 O   0  0  0  0  0  0  0  0  0  0  0  0
  -24.6070  -31.4460   22.8590 C   0  0  0  0  0  0  0  0  0  0  0  0
  -27.2530  -26.8600   19.4650 C   0  0  0  0  0  0  0  0  0  0  0  0
  -23.4100  -30.0820   21.1980 C   0  0  0  0  0  3  0  0  0  0  0  0
  -24.8660  -28.6310   19.6240 C   0  0  0  0  0  0  0  0  0  0  0  0
  -25.9530  -30.4270   20.9510 C   0  0  0  0  0  2  0  0  0  0  0  0
  -26.0610  -29.0600   20.2150 C   0  0  0  0  0  0  0  0  0  0  0  0
  -27.2450  -28.1970   20.1110 C   0  0  0  0  0  3  0  0  0  0  0  0
  -26.0140  -26.5860   18.8410 C   0  0  0  0  0  3  0  0  0  0  0  0
  -24.8670  -27.4190   18.9140 C   0  0  0  0  0  3  0  0  0  0  0  0
  -23.6070  -29.4850   19.7760 C   0  0  0  0  0  2  0  0  0  0  0  0
  -24.6800  -30.6790   21.7230 N   0  0  0  0  0  0  0  0  0  0  0  0
  -23.5310  -31.6510   23.4420 O   0  0  0  0  0  0  0  0  0  0  0  0
  -22.8080  -29.0020   22.1360 C   0  0  0  0  0  0  0  0  0  0  0  0
  -21.4930  -28.7380   22.0210 N   0  0  0  0  0  0  0  0  0  0  0  0
  -23.5320  -28.4040   22.9360 O   0  0  0  0  0  0  0  0  0  0  0  0
  -20.9580  -29.2760   21.3550 H   0  0  0  0  0  0  0  0  0  0  0  0
  -18.2390  -27.1920   22.4670 C   0  0  0  0  0  0  0  0  0  0  0  0
  -20.7550  -27.7100   22.7670 C   0  0  0  0  0  3  0  0  0  0  0  0
  -21.0080  -26.3050   22.1730 C   0  0  0  0  0  2  0  0  0  0  0  0
  -19.9550  -25.8900   21.1390 C   0  0  0  0  0  2  0  0  0  0  0  0
  -18.5590  -25.8820   21.7680 C   0  0  0  0  0  2  0  0  0  0  0  0
  -19.2690  -28.0590   22.9200 C   0  0  0  0  0  0  0  0  0  0  0  0
  -18.9140  -29.2780   23.5360 C   0  0  0  0  0  3  0  0  0  0  0  0
  -17.5630  -29.6370   23.6990 C   0  0  0  0  0  3  0  0  0  0  0  0
  -16.5470  -28.7690   23.2610 C   0  0  0  0  0  3  0  0  0  0  0  0
  -16.8860  -27.5490   22.6500 C   0  0  0  0  0  3  0  0  0  0  0  0
  -25.8720  -32.1200   23.4730 C   0  0  0  0  0  3  0  0  0  0  0  0
  -25.4950  -33.4710   23.9240 N   0  0  0  0  0  0  0  0  0  0  0  0
  -25.8120  -34.6100   23.2950 C   0  0  0  0  0  0  0  0  0  0  0  0
  -26.5150  -34.6350   22.2810 O   0  0  0  0  0  0  0  0  0  0  0  0
  -24.8730  -33.5230   24.7180 H   0  0  0  0  0  0  0  0  0  0  0  0
  -24.0380  -36.3840   23.0740 C   0  0  0  0  0  1  0  0  0  0  0  0
  -25.2670  -35.9300   23.8770 C   0  0  0  0  0  3  0  0  0  0  0  0
  -27.3430  -36.7910   24.8690 C   0  0  0  0  0  1  0  0  0  0  0  0
  -26.2670  -37.0210   23.9100 N   0  0  0  0  0  0  0  0  0  0  0  0
  -25.8240  -37.9080   24.1360 H   0  0  0  0  0  0  0  0  0  0  0  0
  -26.4880  -31.3010   24.6740 C   0  0  1  0  0  0  0  0  0  0  0  0
  -25.4640  -30.9390   25.7750 C   0  0  0  0  0  1  0  0  0  0  0  0
  -27.1210  -29.9820   24.1750 C   0  0  0  0  0  1  0  0  0  0  0  0
  -27.6280  -32.1130   25.3320 C   0  0  0  0  0  1  0  0  0  0  0  0
  1  2  2  0
  1  3  1  0
  2  7  1  0
  3  5  1  0
  3  8  2  0
  4  8  1  0
  4  6  1  0
  7  4  2  0
  9 15  1  0
  9 19  1  0
 10 15  1  0
 11 12  1  0
 11 10  1  0
 13 12  1  0
 13 23  1  0
 13 14  1  0
 15 14  1  0
 16  9  2  0
 17 18  1  0
 17 19  1  0
 18 19  1  0
 18  2  1  0
 20 21  2  0
 21 40  1  0
 22 25  1  0
 22 21  1  0
 23 24  1  0
 23 20  1  0
 24 22  2  0
 25 26  1  0
 26 27  2  0
 28 31  1  0
 28 27  1  0
 29 28  2  0
 30 29  1  0
 30 25  2  0
 31 32  1  0
 32 33  1  0
 33 34  2  0
 35 34  1  0
 35 39  1  0
 36 35  2  0
 37 32  2  0
 37 36  1  0
 38 37  1  0
 40 41  1  0
 41 43  1  0
 41 44  1  0
 42 40  2  0
 45 20  1  0
 45 46  1  0
 47 45  1  0
 48 49  1  0
 48  1  1  0
 50 52  1  0
 50 49  1  0
 51 62  2  0
 52 57  1  0
 53 61  1  0
 53 63  1  0
 54 60  1  0
 54 56  1  0
 55 61  1  0
 56 55  1  0
 57 56  2  0
 58 59  1  0
 58 52  2  0
 59 54  2  0
 60 53  1  0
 61 51  1  0
 63 65  2  0
 64 63  1  0
 66 64  1  0
 67 76  2  0
 67 72  1  0
 68 64  1  0
 68 72  1  0
 69 68  1  0
 70 71  1  0
 70 69  1  0
 71 67  1  0
 72 73  2  0
 73 74  1  0
 75 74  2  0
 76 75  1  0
 77 51  1  0
 77 78  1  0
 77 87  1  0
 78 81  1  0
 79 83  1  0
 79 78  1  0
 80 79  2  0
 83 82  1  0
 83 85  1  0
 85 86  1  0
 85 84  1  0
 87 90  1  1
 87 88  1  0
 89 87  1  0
M  ISO  4   9 100  19 100  49 101  50 101
M  END
>  <TORSDO>  (35) 
F 18

>  <SCORE>  (35) 
-12.853

>  <name>  (35) 
34

>  <ligand_id>  (35) 
34

>  <original_smiles>  (35) 
[H]c1c([H])c([H])c2c(c1[H])C([H])([H])C([H])([H])C([H])([H])C2([H])N([H])C(=O)C1([H])N(C(=O)C([H])(N([H])C(=O)C([H])(N([H])C([H])([H])[H])C([H])([H])[H])C(C([H])([H])[H])(C([H])([H])[H])C([H])([H])[H])C([H])([H])c2c([H])c(OC([H])([H])C([H])([H])c3c(C([H])([H])[H])nc(C([H])([H])[H])nc3C3([H])N(C(=O)N4C([H])([H])C([H])([H])C([H])([H])C([H])(n5nc(-c6c([H])c([H])c(Oc7c([H])c([H])c(F)c([H])c7F)c([H])c6[H])c(C(=O)N([H])[H])c5N([H])[H])C4([H])[H])C3([H])[H])c([H])c([H])c2C1([H])[H]

>  <smiles>  (35) 
[H]c1c([H])c([H])c2c(c1[H])C([H])([H])C([H])([H])C([H])([H])C2([H])N([H])C(=O)C1([H])N(C(=O)C([H])(N([H])C(=O)C([H])(N([H])C([H])([H])[H])C([H])([H])[H])C(C([H])([H])[H])(C([H])([H])[H])C([H])([H])[H])C([H])([H])c2c([H])c(OC([H])([H])C([H])([H])c3c(C([H])([H])[H])nc(C([H])([H])[H])nc3C3([H])N(C(=O)N4C([H])([H])C([H])([H])C([H])([H])C([H])(n5nc(-c6c([H])c([H])c(Oc7c([H])c([H])c(F)c([H])c7F)c([H])c6[H])c(C(=O)N([H])[H])c5N([H])[H])C4([H])[H])C3([H])[H])c([H])c([H])c2C1([H])[H]

$$$$
35:0:0
     RDKit          3D

 89 97  0  0  1  0  0  0  0  0999 V2000
  -28.8440  -21.1400   20.6320 N   0  0  0  0  0  4  0  0  0  0  0  0
  -29.2140  -21.3110   21.5510 H   0  0  0  0  0  0  0  0  0  0  0  0
  -27.8710  -20.9140   20.7500 H   0  0  0  0  0  0  0  0  0  0  0  0
  -28.7110  -18.9990   19.2620 C   0  0  0  0  0  2  0  0  0  0  0  0
  -29.2440  -18.4460   20.5680 C   0  0  0  0  0  3  0  0  0  0  0  0
  -29.5860  -19.9200   20.0850 C   0  0  0  0  0  3  0  0  0  0  0  0
  -30.2620  -17.2300   20.5470 C   0  0  0  0  0  2  0  0  0  0  0  0
  -30.5840  -14.6690   20.3750 C   0  0  0  0  0  0  0  0  0  0  0  0
  -30.3550  -12.4300   19.3210 C   0  0  0  0  0  2  0  0  0  0  0  0
  -29.4030  -12.5420   18.1110 C   0  0  0  0  0  2  0  0  0  0  0  0
  -27.9350  -12.3810   18.5520 C   0  0  0  0  0  2  0  0  0  0  0  0
  -27.5830  -13.2530   19.7880 C   0  0  0  0  0  3  0  0  0  0  0  0
  -28.6490  -13.1230   20.8990 C   0  0  0  0  0  2  0  0  0  0  0  0
  -29.9470  -13.4590   20.3000 N   0  0  0  0  0  0  0  0  0  0  0  0
  -31.7630  -14.7880   20.0290 O   0  0  0  0  0  0  0  0  0  0  0  0
  -29.8190  -15.7830   20.6290 N   0  0  0  0  0  0  0  0  0  0  0  0
  -28.8490  -15.6140   20.8490 H   0  0  0  0  0  0  0  0  0  0  0  0
  -25.1970  -13.8530   20.5210 C   0  0  0  0  0  0  0  0  0  0  0  0
  -24.1310  -13.0800   20.8940 C   0  0  0  0  0  0  0  0  0  0  0  0
  -24.5960  -11.7290   20.8650 C   0  0  0  0  0  0  0  0  0  0  0  0
  -26.2400  -12.9730   20.2840 N   0  0  0  0  0  0  0  0  0  0  0  0
  -25.8850  -11.6910   20.5550 N   0  0  0  0  0  0  0  0  0  0  0  0
  -23.8710  -10.4670   21.0580 C   0  0  0  0  0  0  0  0  0  0  0  0
  -24.3160   -9.4910   21.9760 C   0  0  0  0  0  3  0  0  0  0  0  0
  -23.5890   -8.2950   22.1580 C   0  0  0  0  0  3  0  0  0  0  0  0
  -22.4030   -8.0660   21.4220 C   0  0  0  0  0  0  0  0  0  0  0  0
  -21.9770   -9.0310   20.4920 C   0  0  0  0  0  3  0  0  0  0  0  0
  -22.7040  -10.2180   20.3080 C   0  0  0  0  0  3  0  0  0  0  0  0
  -21.6460   -6.9220   21.5140 O   0  0  0  0  0  0  0  0  0  0  0  0
  -21.6280   -6.1610   22.6560 C   0  0  0  0  0  0  0  0  0  0  0  0
  -21.2460   -6.7000   23.9040 C   0  0  0  0  0  3  0  0  0  0  0  0
  -21.1740   -5.8660   25.0370 C   0  0  0  0  0  3  0  0  0  0  0  0
  -21.4730   -4.4960   24.9250 C   0  0  0  0  0  0  0  0  0  0  0  0
  -21.8480   -3.9560   23.6820 C   0  0  0  0  0  3  0  0  0  0  0  0
  -21.9210   -4.7870   22.5500 C   0  0  0  0  0  0  0  0  0  0  0  0
  -22.2630   -4.2580   21.3500 F   0  0  0  0  0  0  0  0  0  0  0  0
  -21.3970   -3.6920   26.0120 F   0  0  0  0  0  0  0  0  0  0  0  0
  -22.7350  -13.5580   21.1660 C   0  0  0  0  0  0  0  0  0  0  0  0
  -22.0090  -12.8610   22.0340 N   0  0  0  0  0  0  0  0  0  0  0  0
  -22.2960  -14.5840   20.6470 O   0  0  0  0  0  0  0  0  0  0  0  0
  -22.3780  -12.0310   22.4750 H   0  0  0  0  0  0  0  0  0  0  0  0
  -21.0730  -13.1600   22.2610 H   0  0  0  0  0  0  0  0  0  0  0  0
  -25.3590  -15.2230   20.3410 N   0  0  0  0  0  0  0  0  0  0  0  0
  -24.5850  -15.8690   20.4560 H   0  0  0  0  0  0  0  0  0  0  0  0
  -26.1950  -15.6680   19.9860 H   0  0  0  0  0  0  0  0  0  0  0  0
  -28.9560  -22.4510   19.8560 C   0  0  0  0  0  2  0  0  0  0  0  0
  -28.3980  -23.8120   20.5130 C   0  0  0  0  0  3  0  0  0  0  0  0
  -28.4790  -25.1540   19.6380 C   0  0  0  0  0  3  0  0  0  0  0  0
  -28.3600  -26.5020   20.2520 O   0  0  0  0  0  0  0  0  0  0  0  0
  -24.6010  -31.8790   23.2340 C   0  0  0  0  0  0  0  0  0  0  0  0
  -27.2120  -27.3090   20.1830 C   0  0  0  0  0  0  0  0  0  0  0  0
  -23.3940  -30.4760   21.5990 C   0  0  0  0  0  3  0  0  0  0  0  0
  -24.8420  -28.9180   20.1740 C   0  0  0  0  0  0  0  0  0  0  0  0
  -25.9320  -30.7930   21.4120 C   0  0  0  0  0  2  0  0  0  0  0  0
  -26.0090  -29.4110   20.7690 C   0  0  0  0  0  0  0  0  0  0  0  0
  -27.1920  -28.6160   20.7660 C   0  0  0  0  0  3  0  0  0  0  0  0
  -26.0170  -26.8620   19.5800 C   0  0  0  0  0  3  0  0  0  0  0  0
  -24.8480  -27.6500   19.5720 C   0  0  0  0  0  3  0  0  0  0  0  0
  -23.6040  -29.7920   20.2210 C   0  0  0  0  0  2  0  0  0  0  0  0
  -24.6610  -31.0680   22.1380 N   0  0  0  0  0  0  0  0  0  0  0  0
  -23.5200  -32.1580   23.7730 O   0  0  0  0  0  0  0  0  0  0  0  0
  -22.7350  -29.4640   22.5660 C   0  0  0  0  0  0  0  0  0  0  0  0
  -21.4090  -29.2860   22.4430 N   0  0  0  0  0  0  0  0  0  0  0  0
  -23.4160  -28.8410   23.3850 O   0  0  0  0  0  0  0  0  0  0  0  0
  -20.9170  -29.8370   21.7550 H   0  0  0  0  0  0  0  0  0  0  0  0
  -18.0370  -28.0790   22.9490 C   0  0  0  0  0  0  0  0  0  0  0  0
  -20.5940  -28.3500   23.2200 C   0  0  0  0  0  3  0  0  0  0  0  0
  -20.7000  -26.9140   22.6560 C   0  0  0  0  0  2  0  0  0  0  0  0
  -19.6020  -26.5880   21.6390 C   0  0  0  0  0  2  0  0  0  0  0  0
  -18.2200  -26.7260   22.2860 C   0  0  0  0  0  2  0  0  0  0  0  0
  -19.1530  -28.8490   23.3740 C   0  0  0  0  0  0  0  0  0  0  0  0
  -18.9300  -30.1150   23.9580 C   0  0  0  0  0  3  0  0  0  0  0  0
  -17.6240  -30.6120   24.1200 C   0  0  0  0  0  3  0  0  0  0  0  0
  -16.5230  -29.8410   23.7130 C   0  0  0  0  0  3  0  0  0  0  0  0
  -16.7300  -28.5760   23.1350 C   0  0  0  0  0  3  0  0  0  0  0  0
  -25.8880  -32.5140   23.8510 C   0  0  0  0  0  3  0  0  0  0  0  0
  -25.5780  -33.9130   24.1780 N   0  0  0  0  0  0  0  0  0  0  0  0
  -25.9080  -34.9650   23.4180 C   0  0  0  0  0  0  0  0  0  0  0  0
  -26.5750  -34.8610   22.3850 O   0  0  0  0  0  0  0  0  0  0  0  0
  -24.9830  -34.0670   24.9790 H   0  0  0  0  0  0  0  0  0  0  0  0
  -24.1770  -36.7570   23.0700 C   0  0  0  0  0  1  0  0  0  0  0  0
  -25.4230  -36.3540   23.8760 C   0  0  0  0  0  3  0  0  0  0  0  0
  -27.5610  -37.2410   24.6960 C   0  0  0  0  0  1  0  0  0  0  0  0
  -26.4540  -37.4080   23.7560 N   0  0  0  0  0  0  0  0  0  0  0  0
  -26.0500  -38.3280   23.9050 H   0  0  0  0  0  0  0  0  0  0  0  0
  -26.4080  -31.7480   25.1280 C   0  0  1  0  0  0  0  0  0  0  0  0
  -25.3180  -31.5160   26.2000 C   0  0  0  0  0  1  0  0  0  0  0  0
  -26.9900  -30.3670   24.7430 C   0  0  0  0  0  1  0  0  0  0  0  0
  -27.5610  -32.5440   25.7820 C   0  0  0  0  0  1  0  0  0  0  0  0
  1  3  1  0
  1  2  1  0
  4  6  1  0
  4  5  1  0
  5  7  1  0
  6  5  1  0
  6  1  1  0
  7 16  1  0
  8 16  1  0
  9 14  1  0
 10 11  1  0
 10  9  1  0
 12 11  1  0
 12 21  1  0
 12 13  1  0
 14  8  1  0
 14 13  1  0
 15  8  2  0
 16 17  1  0
 18 19  2  0
 19 38  1  0
 20 19  1  0
 20 23  1  0
 21 18  1  0
 21 22  1  0
 22 20  2  0
 23 24  1  0
 24 25  2  0
 26 29  1  0
 26 25  1  0
 27 26  2  0
 28 27  1  0
 28 23  2  0
 29 30  1  0
 30 31  1  0
 31 32  2  0
 33 32  1  0
 33 37  1  0
 34 33  2  0
 35 30  2  0
 35 34  1  0
 36 35  1  0
 38 39  1  0
 39 42  1  0
 39 41  1  0
 40 38  2  0
 43 44  1  0
 43 18  1  0
 45 43  1  0
 46 47  1  0
 46  1  1  0
 48 49  1  0
 48 47  2  0
 50 61  2  0
 51 49  1  0
 51 56  1  0
 52 60  1  0
 52 62  1  0
 53 59  1  0
 53 55  1  0
 54 60  1  0
 55 54  1  0
 56 55  2  0
 57 51  2  0
 58 57  1  0
 58 53  2  0
 59 52  1  0
 60 50  1  0
 62 64  2  0
 63 62  1  0
 65 63  1  0
 66 75  2  0
 66 71  1  0
 67 63  1  0
 67 71  1  0
 68 67  1  0
 69 70  1  0
 69 68  1  0
 70 66  1  0
 71 72  2  0
 72 73  1  0
 74 73  2  0
 75 74  1  0
 76 50  1  0
 76 77  1  0
 76 86  1  0
 77 80  1  0
 78 82  1  0
 78 77  1  0
 79 78  2  0
 82 81  1  0
 84 82  1  0
 84 85  1  0
 84 83  1  0
 86 89  1  1
 86 87  1  0
 88 86  1  0
M  ISO  4   8 100  16 100  48 101  49 101
M  END
>  <TORSDO>  (36) 
F 21

>  <SCORE>  (36) 
-13.311

>  <name>  (36) 
35

>  <ligand_id>  (36) 
35

>  <original_smiles>  (36) 
[H]c1c([H])c([H])c2c(c1[H])C([H])([H])C([H])([H])C([H])([H])C2([H])N([H])C(=O)C1([H])N(C(=O)C([H])(N([H])C(=O)C([H])(N([H])C([H])([H])[H])C([H])([H])[H])C(C([H])([H])[H])(C([H])([H])[H])C([H])([H])[H])C([H])([H])c2c([H])c(OC([H])([H])C([H])([H])C([H])([H])[N+]([H])([H])C3([H])C([H])([H])C3([H])C([H])([H])N([H])C(=O)N3C([H])([H])C([H])([H])C([H])([H])C([H])(n4nc(-c5c([H])c([H])c(Oc6c([H])c([H])c(F)c([H])c6F)c([H])c5[H])c(C(=O)N([H])[H])c4N([H])[H])C3([H])[H])c([H])c([H])c2C1([H])[H]

>  <smiles>  (36) 
[H]c1c([H])c([H])c2c(c1[H])C([H])([H])C([H])([H])C([H])([H])C2([H])N([H])C(=O)C1([H])N(C(=O)C([H])(N([H])C(=O)C([H])(N([H])C([H])([H])[H])C([H])([H])[H])C(C([H])([H])[H])(C([H])([H])[H])C([H])([H])[H])C([H])([H])c2c([H])c(OC([H])([H])C([H])([H])C([H])([H])[N+]([H])([H])C3([H])C([H])([H])C3([H])C([H])([H])N([H])C(=O)N3C([H])([H])C([H])([H])C([H])([H])C([H])(n4nc(-c5c([H])c([H])c(Oc6c([H])c([H])c(F)c([H])c6F)c([H])c5[H])c(C(=O)N([H])[H])c4N([H])[H])C3([H])[H])c([H])c([H])c2C1([H])[H]

$$$$
36:0:0
     RDKit          3D

 93102  0  0  1  0  0  0  0  0999 V2000
  -29.2670  -22.5100   20.6180 C   0  0  0  0  0  0  0  0  0  0  0  0
  -28.8990  -23.7440   20.0250 C   0  0  0  0  0  0  0  0  0  0  0  0
  -29.3910  -22.2510   18.4790 C   0  0  0  0  0  0  0  0  0  0  0  0
  -29.5780  -21.6600   17.1170 C   0  0  0  0  0  1  0  0  0  0  0  0
  -28.9520  -23.5100   18.6510 N   0  0  0  0  0  0  0  0  0  0  0  0
  -29.6930  -21.5750   19.6190 N   0  0  0  0  0  0  0  0  0  0  0  0
  -29.1800  -22.8640   23.1180 C   0  0  0  0  0  2  0  0  0  0  0  0
  -29.2930  -22.1260   22.0020 C   0  0  0  0  0  3  0  0  0  0  0  0
  -31.7630  -20.4570   20.5130 C   0  0  0  0  0  1  0  0  0  0  0  0
  -30.4680  -20.2350   19.7030 C   0  0  0  0  0  3  0  0  0  0  0  0
  -29.9030  -18.1290   21.2940 C   0  0  0  0  0  2  0  0  0  0  0  0
  -29.8060  -18.7890   19.9530 C   0  0  0  0  0  3  0  0  0  0  0  0
  -30.6150  -17.3960   20.1640 C   0  0  0  0  0  3  0  0  0  0  0  0
  -30.9440  -14.8170   19.8560 C   0  0  0  0  0  0  0  0  0  0  0  0
  -30.7060  -12.4910   18.9680 C   0  0  0  0  0  2  0  0  0  0  0  0
  -29.7050  -12.4840   17.7930 C   0  0  0  0  0  2  0  0  0  0  0  0
  -28.2620  -12.3250   18.3120 C   0  0  0  0  0  2  0  0  0  0  0  0
  -27.9410  -13.2840   19.4910 C   0  0  0  0  0  3  0  0  0  0  0  0
  -29.0570  -13.2660   20.5570 C   0  0  0  0  0  2  0  0  0  0  0  0
  -30.3150  -13.5920   19.8760 N   0  0  0  0  0  0  0  0  0  0  0  0
  -32.1170  -14.9030   19.4820 O   0  0  0  0  0  0  0  0  0  0  0  0
  -30.1840  -15.9570   20.0760 N   0  0  0  0  0  0  0  0  0  0  0  0
  -29.2170  -15.7760   20.2980 H   0  0  0  0  0  0  0  0  0  0  0  0
  -25.6320  -13.9170   20.4120 C   0  0  0  0  0  0  0  0  0  0  0  0
  -24.5690  -13.1610   20.8280 C   0  0  0  0  0  0  0  0  0  0  0  0
  -24.9860  -11.8000   20.7140 C   0  0  0  0  0  0  0  0  0  0  0  0
  -26.6270  -13.0170   20.0670 N   0  0  0  0  0  0  0  0  0  0  0  0
  -26.2500  -11.7360   20.3130 N   0  0  0  0  0  0  0  0  0  0  0  0
  -24.2330  -10.5520   20.9070 C   0  0  0  0  0  0  0  0  0  0  0  0
  -24.6400   -9.5830   21.8490 C   0  0  0  0  0  3  0  0  0  0  0  0
  -23.8890   -8.4010   22.0300 C   0  0  0  0  0  3  0  0  0  0  0  0
  -22.7180   -8.1800   21.2680 C   0  0  0  0  0  0  0  0  0  0  0  0
  -22.3300   -9.1380   20.3150 C   0  0  0  0  0  3  0  0  0  0  0  0
  -23.0820  -10.3110   20.1320 C   0  0  0  0  0  3  0  0  0  0  0  0
  -21.9400   -7.0510   21.3590 O   0  0  0  0  0  0  0  0  0  0  0  0
  -21.7980   -6.3680   22.5390 C   0  0  0  0  0  0  0  0  0  0  0  0
  -21.2370   -6.9720   23.6870 C   0  0  0  0  0  3  0  0  0  0  0  0
  -21.0440   -6.2120   24.8570 C   0  0  0  0  0  3  0  0  0  0  0  0
  -21.4020   -4.8510   24.8840 C   0  0  0  0  0  0  0  0  0  0  0  0
  -21.9550   -4.2470   23.7400 C   0  0  0  0  0  3  0  0  0  0  0  0
  -22.1490   -5.0030   22.5700 C   0  0  0  0  0  0  0  0  0  0  0  0
  -22.6620   -4.4110   21.4660 F   0  0  0  0  0  0  0  0  0  0  0  0
  -21.2080   -4.1200   26.0060 F   0  0  0  0  0  0  0  0  0  0  0  0
  -23.2110  -13.6680   21.2130 C   0  0  0  0  0  0  0  0  0  0  0  0
  -22.5210  -12.9610   22.1020 N   0  0  0  0  0  0  0  0  0  0  0  0
  -22.7710  -14.7250   20.7600 O   0  0  0  0  0  0  0  0  0  0  0  0
  -22.8920  -12.1070   22.4910 H   0  0  0  0  0  0  0  0  0  0  0  0
  -21.6090  -13.2800   22.3980 H   0  0  0  0  0  0  0  0  0  0  0  0
  -25.8260  -15.2880   20.2720 N   0  0  0  0  0  0  0  0  0  0  0  0
  -25.0860  -15.9570   20.4550 H   0  0  0  0  0  0  0  0  0  0  0  0
  -26.6500  -15.7140   19.8680 H   0  0  0  0  0  0  0  0  0  0  0  0
  -28.3970  -25.1200   20.6480 C   0  0  0  0  0  2  0  0  0  0  0  0
  -28.5600  -26.4510   19.9720 O   0  0  0  0  0  0  0  0  0  0  0  0
  -24.7120  -31.7210   23.1950 C   0  0  0  0  0  0  0  0  0  0  0  0
  -27.4460  -27.3160   19.9960 C   0  0  0  0  0  0  0  0  0  0  0  0
  -23.5450  -30.3380   21.5160 C   0  0  0  0  0  3  0  0  0  0  0  0
  -25.0400  -28.8750   20.0370 C   0  0  0  0  0  0  0  0  0  0  0  0
  -26.0760  -30.7350   21.3350 C   0  0  0  0  0  2  0  0  0  0  0  0
  -26.1980  -29.3770   20.6460 C   0  0  0  0  0  0  0  0  0  0  0  0
  -27.4080  -28.6120   20.6110 C   0  0  0  0  0  3  0  0  0  0  0  0
  -26.2650  -26.8760   19.3630 C   0  0  0  0  0  3  0  0  0  0  0  0
  -25.0770  -27.6330   19.3840 C   0  0  0  0  0  3  0  0  0  0  0  0
  -23.7760  -29.7110   20.1170 C   0  0  0  0  0  2  0  0  0  0  0  0
  -24.7970  -30.9480   22.0730 N   0  0  0  0  0  0  0  0  0  0  0  0
  -23.6220  -31.9480   23.7420 O   0  0  0  0  0  0  0  0  0  0  0  0
  -22.9180  -29.2730   22.4480 C   0  0  0  0  0  0  0  0  0  0  0  0
  -21.6030  -29.0380   22.3020 N   0  0  0  0  0  0  0  0  0  0  0  0
  -23.6140  -28.6600   23.2620 O   0  0  0  0  0  0  0  0  0  0  0  0
  -21.0970  -29.5850   21.6190 H   0  0  0  0  0  0  0  0  0  0  0  0
  -18.2830  -27.6600   22.7170 C   0  0  0  0  0  0  0  0  0  0  0  0
  -20.8180  -28.0470   23.0430 C   0  0  0  0  0  3  0  0  0  0  0  0
  -21.0060  -26.6320   22.4480 C   0  0  0  0  0  2  0  0  0  0  0  0
  -19.9420  -26.2680   21.4070 C   0  0  0  0  0  2  0  0  0  0  0  0
  -18.5420  -26.3320   22.0260 C   0  0  0  0  0  2  0  0  0  0  0  0
  -19.3510  -28.4720   23.1800 C   0  0  0  0  0  0  0  0  0  0  0  0
  -19.0560  -29.7120   23.7860 C   0  0  0  0  0  3  0  0  0  0  0  0
  -17.7230  -30.1420   23.9350 C   0  0  0  0  0  3  0  0  0  0  0  0
  -16.6680  -29.3270   23.4880 C   0  0  0  0  0  3  0  0  0  0  0  0
  -16.9490  -28.0870   22.8860 C   0  0  0  0  0  3  0  0  0  0  0  0
  -25.9750  -32.3750   23.8320 C   0  0  0  0  0  3  0  0  0  0  0  0
  -26.4960  -31.6070   25.1090 C   0  0  1  0  0  0  0  0  0  0  0  0
  -25.3970  -31.3360   26.1630 C   0  0  0  0  0  1  0  0  0  0  0  0
  -27.1140  -30.2450   24.7140 C   0  0  0  0  0  1  0  0  0  0  0  0
  -27.6200  -32.4220   25.7890 C   0  0  0  0  0  1  0  0  0  0  0  0
  -25.6350  -33.7660   24.1710 N   0  0  0  0  0  0  0  0  0  0  0  0
  -25.9450  -34.8310   23.4190 C   0  0  0  0  0  0  0  0  0  0  0  0
  -26.6150  -34.7490   22.3880 O   0  0  0  0  0  0  0  0  0  0  0  0
  -25.0370  -33.9010   24.9720 H   0  0  0  0  0  0  0  0  0  0  0  0
  -24.1800  -36.5910   23.0770 C   0  0  0  0  0  1  0  0  0  0  0  0
  -25.4280  -36.2060   23.8870 C   0  0  0  0  0  3  0  0  0  0  0  0
  -27.5390  -37.1340   24.7320 C   0  0  0  0  0  1  0  0  0  0  0  0
  -26.4400  -37.2810   23.7830 N   0  0  0  0  0  0  0  0  0  0  0  0
  -26.0120  -38.1920   23.9290 H   0  0  0  0  0  0  0  0  0  0  0  0
  1  8  1  0
  2  1  2  0
  2 52  1  0
  3  5  2  0
  3  6  1  0
  4  3  1  0
  5  2  1  0
  6 10  1  0
  6  1  1  0
  8  7  2  0
 10  9  1  0
 12 10  1  0
 12 13  1  0
 12 11  1  0
 13 22  1  0
 13 11  1  0
 14 20  1  0
 14 22  1  0
 15 20  1  0
 16 17  1  0
 16 15  1  0
 18 17  1  0
 18 27  1  0
 18 19  1  0
 20 19  1  0
 21 14  2  0
 22 23  1  0
 24 25  2  0
 25 44  1  0
 26 25  1  0
 26 29  1  0
 27 28  1  0
 27 24  1  0
 28 26  2  0
 29 30  1  0
 30 31  2  0
 32 35  1  0
 32 31  1  0
 33 32  2  0
 34 33  1  0
 34 29  2  0
 35 36  1  0
 36 41  2  0
 36 37  1  0
 37 38  2  0
 38 39  1  0
 39 43  1  0
 40 39  2  0
 41 40  1  0
 42 41  1  0
 44 45  1  0
 45 48  1  0
 45 47  1  0
 46 44  2  0
 49 24  1  0
 49 50  1  0
 51 49  1  0
 53 55  1  0
 53 52  1  0
 54 65  2  0
 55 60  1  0
 56 64  1  0
 56 66  1  0
 57 63  1  0
 57 59  1  0
 58 64  1  0
 59 58  1  0
 60 59  2  0
 61 62  1  0
 61 55  2  0
 62 57  2  0
 63 56  1  0
 64 54  1  0
 66 68  2  0
 67 66  1  0
 69 67  1  0
 70 79  2  0
 70 75  1  0
 71 67  1  0
 71 75  1  0
 72 71  1  0
 73 74  1  0
 73 72  1  0
 74 70  1  0
 75 76  2  0
 76 77  1  0
 78 77  2  0
 79 78  1  0
 80 54  1  0
 80 85  1  0
 80 81  1  0
 81 84  1  1
 81 82  1  0
 83 81  1  0
 85 88  1  0
 86 90  1  0
 86 85  1  0
 87 86  2  0
 90 89  1  0
 92 90  1  0
 92 93  1  0
 92 91  1  0
M  ISO  4  14 100  22 100  52 101  53 101
M  END
>  <TORSDO>  (37) 
F 20

>  <SCORE>  (37) 
-13.154

>  <name>  (37) 
36

>  <ligand_id>  (37) 
36

>  <original_smiles>  (37) 
[H]C([H])=C([H])c1c(C([H])([H])Oc2c([H])c([H])c3c(c2[H])C([H])([H])N(C(=O)C([H])(N([H])C(=O)C([H])(N([H])C([H])([H])[H])C([H])([H])[H])C(C([H])([H])[H])(C([H])([H])[H])C([H])([H])[H])C([H])(C(=O)N([H])C2([H])c4c([H])c([H])c([H])c([H])c4C([H])([H])C([H])([H])C2([H])[H])C3([H])[H])nc(C([H])([H])[H])n1C([H])(C([H])([H])[H])C1([H])C([H])([H])C1([H])N([H])C(=O)N1C([H])([H])C([H])([H])C([H])([H])C([H])(n2nc(-c3c([H])c([H])c(Oc4c([H])c([H])c(F)c([H])c4F)c([H])c3[H])c(C(=O)N([H])[H])c2N([H])[H])C1([H])[H]

>  <smiles>  (37) 
[H]C([H])=C([H])c1c(C([H])([H])Oc2c([H])c([H])c3c(c2[H])C([H])([H])N(C(=O)C([H])(N([H])C(=O)C([H])(N([H])C([H])([H])[H])C([H])([H])[H])C(C([H])([H])[H])(C([H])([H])[H])C([H])([H])[H])C([H])(C(=O)N([H])C2([H])c4c([H])c([H])c([H])c([H])c4C([H])([H])C([H])([H])C2([H])[H])C3([H])[H])nc(C([H])([H])[H])n1C([H])(C([H])([H])[H])C1([H])C([H])([H])C1([H])N([H])C(=O)N1C([H])([H])C([H])([H])C([H])([H])C([H])(n2nc(-c3c([H])c([H])c(Oc4c([H])c([H])c(F)c([H])c4F)c([H])c3[H])c(C(=O)N([H])[H])c2N([H])[H])C1([H])[H]

$$$$
37:0:0
     RDKit          3D

 89 98  0  0  1  0  0  0  0  0999 V2000
  -29.1170  -22.1430   21.4990 C   0  0  0  0  0  3  0  0  0  0  0  0
  -28.6900  -22.6420   20.2000 C   0  0  0  0  0  0  0  0  0  0  0  0
  -28.8850  -21.3080   19.5540 C   0  0  0  0  0  0  0  0  0  0  0  0
  -29.4920  -20.7810   21.5640 C   0  0  0  0  0  0  0  0  0  0  0  0
  -28.7630  -20.6410   18.2020 C   0  0  0  0  0  2  0  0  0  0  0  0
  -29.0750  -19.0650   18.3070 C   0  0  0  0  0  2  0  0  0  0  0  0
  -29.7840  -18.6780   19.6500 C   0  0  0  0  0  3  0  0  0  0  0  0
  -30.0040  -20.0000   22.7290 C   0  0  0  0  0  1  0  0  0  0  0  0
  -29.3570  -20.1480   20.3270 N   0  0  0  0  0  0  0  0  0  0  0  0
  -30.4180  -15.7130   19.9240 C   0  0  0  0  0  0  0  0  0  0  0  0
  -30.4660  -13.2040   19.1360 C   0  0  0  0  0  2  0  0  0  0  0  0
  -29.5170  -12.8750   17.9520 C   0  0  0  0  0  2  0  0  0  0  0  0
  -28.1050  -12.5440   18.4600 C   0  0  0  0  0  2  0  0  0  0  0  0
  -27.6520  -13.5290   19.5640 C   0  0  0  0  0  3  0  0  0  0  0  0
  -28.7330  -13.7950   20.6380 C   0  0  0  0  0  2  0  0  0  0  0  0
  -29.9010  -14.3660   19.9390 N   0  0  0  0  0  0  0  0  0  0  0  0
  -31.6210  -15.7040   19.6140 O   0  0  0  0  0  0  0  0  0  0  0  0
  -29.6470  -17.0140   20.0600 N   0  0  0  0  0  0  0  0  0  0  0  0
  -28.7090  -16.8160   20.3730 H   0  0  0  0  0  0  0  0  0  0  0  0
  -25.3340  -14.0330   20.4800 C   0  0  0  0  0  0  0  0  0  0  0  0
  -24.2980  -13.2360   20.8760 C   0  0  0  0  0  0  0  0  0  0  0  0
  -24.7650  -11.8900   20.7600 C   0  0  0  0  0  0  0  0  0  0  0  0
  -26.3620  -13.1750   20.1380 N   0  0  0  0  0  0  0  0  0  0  0  0
  -26.0380  -11.8770   20.3740 N   0  0  0  0  0  0  0  0  0  0  0  0
  -24.0510  -10.6180   20.9370 C   0  0  0  0  0  0  0  0  0  0  0  0
  -24.4550   -9.6700   21.9020 C   0  0  0  0  0  3  0  0  0  0  0  0
  -23.7370   -8.4660   22.0670 C   0  0  0  0  0  3  0  0  0  0  0  0
  -22.6000   -8.2020   21.2680 C   0  0  0  0  0  0  0  0  0  0  0  0
  -22.2150   -9.1390   20.2930 C   0  0  0  0  0  3  0  0  0  0  0  0
  -22.9340  -10.3330   20.1250 C   0  0  0  0  0  3  0  0  0  0  0  0
  -21.8570   -7.0480   21.3400 O   0  0  0  0  0  0  0  0  0  0  0  0
  -21.6530   -6.3960   22.5300 C   0  0  0  0  0  0  0  0  0  0  0  0
  -20.9880   -7.0120   23.6120 C   0  0  0  0  0  3  0  0  0  0  0  0
  -20.7380   -6.2830   24.7920 C   0  0  0  0  0  3  0  0  0  0  0  0
  -21.1440   -4.9390   24.8890 C   0  0  0  0  0  0  0  0  0  0  0  0
  -21.8020   -4.3220   23.8100 C   0  0  0  0  0  3  0  0  0  0  0  0
  -22.0520   -5.0490   22.6330 C   0  0  0  0  0  0  0  0  0  0  0  0
  -22.6680   -4.4430   21.5890 F   0  0  0  0  0  0  0  0  0  0  0  0
  -20.8980   -4.2360   26.0200 F   0  0  0  0  0  0  0  0  0  0  0  0
  -22.9170  -13.6960   21.2400 C   0  0  0  0  0  0  0  0  0  0  0  0
  -22.2410  -12.9690   22.1220 N   0  0  0  0  0  0  0  0  0  0  0  0
  -22.4490  -14.7360   20.7780 O   0  0  0  0  0  0  0  0  0  0  0  0
  -22.6350  -12.1270   22.5160 H   0  0  0  0  0  0  0  0  0  0  0  0
  -21.3160  -13.2590   22.4080 H   0  0  0  0  0  0  0  0  0  0  0  0
  -25.4800  -15.4120   20.3510 N   0  0  0  0  0  0  0  0  0  0  0  0
  -24.7140  -16.0520   20.5290 H   0  0  0  0  0  0  0  0  0  0  0  0
  -26.2920  -15.8670   19.9550 H   0  0  0  0  0  0  0  0  0  0  0  0
  -28.0000  -24.2990   19.8060 C   0  0  0  0  0  2  0  0  0  0  0  0
  -28.1870  -25.9180   20.2870 O   0  0  0  0  0  0  0  0  0  0  0  0
  -24.7220  -32.0000   23.3540 C   0  0  0  0  0  0  0  0  0  0  0  0
  -27.2160  -27.0890   20.2120 C   0  0  0  0  0  0  0  0  0  0  0  0
  -23.5060  -30.6380   21.7050 C   0  0  0  0  0  3  0  0  0  0  0  0
  -24.9340  -29.0450   20.2290 C   0  0  0  0  0  0  0  0  0  0  0  0
  -26.0770  -30.8160   21.5390 C   0  0  0  0  0  2  0  0  0  0  0  0
  -26.1330  -29.4100   20.8520 C   0  0  0  0  0  0  0  0  0  0  0  0
  -27.2610  -28.4550   20.8210 C   0  0  0  0  0  3  0  0  0  0  0  0
  -25.9900  -26.9100   19.5280 C   0  0  0  0  0  3  0  0  0  0  0  0
  -24.8940  -27.8190   19.5450 C   0  0  0  0  0  3  0  0  0  0  0  0
  -23.7210  -29.9780   20.3140 C   0  0  0  0  0  2  0  0  0  0  0  0
  -24.7920  -31.1800   22.2530 N   0  0  0  0  0  0  0  0  0  0  0  0
  -23.6390  -32.2850   23.8910 O   0  0  0  0  0  0  0  0  0  0  0  0
  -22.8150  -29.6320   22.6640 C   0  0  0  0  0  0  0  0  0  0  0  0
  -21.4920  -29.4280   22.5130 N   0  0  0  0  0  0  0  0  0  0  0  0
  -23.4780  -29.0330   23.5130 O   0  0  0  0  0  0  0  0  0  0  0  0
  -21.0060  -29.9640   21.8070 H   0  0  0  0  0  0  0  0  0  0  0  0
  -18.1470  -28.0780   22.9300 C   0  0  0  0  0  0  0  0  0  0  0  0
  -20.6820  -28.4690   23.2740 C   0  0  0  0  0  3  0  0  0  0  0  0
  -20.8680  -27.0330   22.7320 C   0  0  0  0  0  2  0  0  0  0  0  0
  -19.8190  -26.6420   21.6860 C   0  0  0  0  0  2  0  0  0  0  0  0
  -18.4100  -26.7300   22.2810 C   0  0  0  0  0  2  0  0  0  0  0  0
  -19.2140  -28.9010   23.3830 C   0  0  0  0  0  0  0  0  0  0  0  0
  -18.9120  -30.1570   23.9530 C   0  0  0  0  0  3  0  0  0  0  0  0
  -17.5780  -30.5920   24.0730 C   0  0  0  0  0  3  0  0  0  0  0  0
  -16.5270  -29.7680   23.6360 C   0  0  0  0  0  3  0  0  0  0  0  0
  -16.8120  -28.5130   23.0710 C   0  0  0  0  0  3  0  0  0  0  0  0
  -26.0000  -32.6330   23.9850 C   0  0  0  0  0  3  0  0  0  0  0  0
  -25.6980  -34.0370   24.3170 N   0  0  0  0  0  0  0  0  0  0  0  0
  -26.0030  -35.0940   23.5510 C   0  0  0  0  0  0  0  0  0  0  0  0
  -26.6300  -34.9870   22.4950 O   0  0  0  0  0  0  0  0  0  0  0  0
  -25.1350  -34.1930   25.1410 H   0  0  0  0  0  0  0  0  0  0  0  0
  -24.2510  -36.8870   23.3050 C   0  0  0  0  0  1  0  0  0  0  0  0
  -25.5460  -36.4870   24.0310 C   0  0  0  0  0  3  0  0  0  0  0  0
  -27.7200  -37.4000   24.7220 C   0  0  0  0  0  1  0  0  0  0  0  0
  -26.5650  -37.5430   23.8390 N   0  0  0  0  0  0  0  0  0  0  0  0
  -26.1630  -38.4640   23.9890 H   0  0  0  0  0  0  0  0  0  0  0  0
  -26.4950  -31.8690   25.2760 C   0  0  1  0  0  0  0  0  0  0  0  0
  -25.3850  -31.6360   26.3280 C   0  0  0  0  0  1  0  0  0  0  0  0
  -27.0860  -30.4890   24.9120 C   0  0  0  0  0  1  0  0  0  0  0  0
  -27.6340  -32.6680   25.9520 C   0  0  0  0  0  1  0  0  0  0  0  0
  1  4  2  0
  2  1  1  0
  3  2  2  0
  3  9  1  0
  4  8  1  0
  5  6  1  0
  5  3  1  0
  6  7  1  0
  7 18  1  0
  7  9  1  0
  9  4  1  0
 10 16  1  0
 10 18  1  0
 11 16  1  0
 12 13  1  0
 12 11  1  0
 14 13  1  0
 14 23  1  0
 14 15  1  0
 16 15  1  0
 17 10  2  0
 18 19  1  0
 20 21  2  0
 21 40  1  0
 22 21  1  0
 22 25  1  0
 23 24  1  0
 23 20  1  0
 24 22  2  0
 25 26  1  0
 26 27  2  0
 28 31  1  0
 28 27  1  0
 29 28  2  0
 30 29  1  0
 30 25  2  0
 31 32  1  0
 32 37  2  0
 32 33  1  0
 33 34  2  0
 34 35  1  0
 35 39  1  0
 36 35  2  0
 37 36  1  0
 38 37  1  0
 40 41  1  0
 41 44  1  0
 41 43  1  0
 42 40  2  0
 45 20  1  0
 45 46  1  0
 47 45  1  0
 48  2  1  0
 48 49  1  0
 50 61  2  0
 51 49  1  0
 51 56  1  0
 52 60  1  0
 52 62  1  0
 53 59  1  0
 53 55  1  0
 54 60  1  0
 55 54  1  0
 56 55  2  0
 57 58  1  0
 57 51  2  0
 58 53  2  0
 59 52  1  0
 60 50  1  0
 62 64  2  0
 63 62  1  0
 65 63  1  0
 66 75  2  0
 66 71  1  0
 67 63  1  0
 67 71  1  0
 68 67  1  0
 69 70  1  0
 69 68  1  0
 70 66  1  0
 71 72  2  0
 72 73  1  0
 74 73  2  0
 75 74  1  0
 76 50  1  0
 76 77  1  0
 76 86  1  0
 77 80  1  0
 78 82  1  0
 78 77  1  0
 79 78  2  0
 82 81  1  0
 84 85  1  0
 84 82  1  0
 84 83  1  0
 86 89  1  1
 86 87  1  0
 88 86  1  0
M  ISO  4  10 100  18 100  48 101  49 101
M  END
>  <TORSDO>  (38) 
F 17

>  <SCORE>  (38) 
-15.633

>  <name>  (38) 
37

>  <ligand_id>  (38) 
37

>  <original_smiles>  (38) 
[H]c1c([H])c([H])c2c(c1[H])C([H])([H])C([H])([H])C([H])([H])C2([H])N([H])C(=O)C1([H])N(C(=O)C([H])(N([H])C(=O)C([H])(N([H])C([H])([H])[H])C([H])([H])[H])C(C([H])([H])[H])(C([H])([H])[H])C([H])([H])[H])C([H])([H])c2c([H])c(OC([H])([H])c3c([H])c(C([H])([H])[H])n4c3C([H])([H])C([H])([H])C4([H])N([H])C(=O)N3C([H])([H])C([H])([H])C([H])([H])C([H])(n4nc(-c5c([H])c([H])c(Oc6c([H])c([H])c(F)c([H])c6F)c([H])c5[H])c(C(=O)N([H])[H])c4N([H])[H])C3([H])[H])c([H])c([H])c2C1([H])[H]

>  <smiles>  (38) 
[H]c1c([H])c([H])c2c(c1[H])C([H])([H])C([H])([H])C([H])([H])C2([H])N([H])C(=O)C1([H])N(C(=O)C([H])(N([H])C(=O)C([H])(N([H])C([H])([H])[H])C([H])([H])[H])C(C([H])([H])[H])(C([H])([H])[H])C([H])([H])[H])C([H])([H])c2c([H])c(OC([H])([H])c3c([H])c(C([H])([H])[H])n4c3C([H])([H])C([H])([H])C4([H])N([H])C(=O)N3C([H])([H])C([H])([H])C([H])([H])C([H])(n4nc(-c5c([H])c([H])c(Oc6c([H])c([H])c(F)c([H])c6F)c([H])c5[H])c(C(=O)N([H])[H])c4N([H])[H])C3([H])[H])c([H])c([H])c2C1([H])[H]

$$$$
38:0:0
     RDKit          3D

 94103  0  0  1  0  0  0  0  0999 V2000
  -28.2870  -19.3830   18.7000 C   0  0  0  0  0  2  0  0  0  0  0  0
  -29.5370  -20.0490   18.1040 C   0  0  0  0  0  2  0  0  0  0  0  0
  -28.2080  -20.3510   21.0940 C   0  0  0  0  0  2  0  0  0  0  0  0
  -28.0460  -21.8190   20.5300 C   0  0  0  0  0  2  0  0  0  0  0  0
  -30.4710  -21.6120   19.9600 C   0  0  0  0  0  2  0  0  0  0  0  0
  -28.6300  -19.1410   20.1760 C   0  0  0  0  0  3  0  0  0  0  0  0
  -30.1590  -18.8930   20.1640 C   0  0  0  0  0  3  0  0  0  0  0  0
  -30.5610  -20.1550   19.2630 C   0  0  1  0  0  0  0  0  0  0  0  0
  -29.2070  -22.4420   19.8120 N   0  0  2  0  0  4  0  0  0  0  0  0
  -28.9840  -22.3470   18.8320 H   0  0  0  0  0  0  0  0  0  0  0  0
  -33.1260  -20.0600   19.7400 C   0  0  0  0  0  1  0  0  0  0  0  0
  -32.0020  -20.0190   18.6890 C   0  0  0  0  0  2  0  0  0  0  0  0
  -30.6620  -17.4330   19.6180 C   0  0  0  0  0  2  0  0  0  0  0  0
  -30.9340  -14.8890   19.9690 C   0  0  0  0  0  0  0  0  0  0  0  0
  -30.6410  -12.6040   19.0240 C   0  0  0  0  0  2  0  0  0  0  0  0
  -29.6730  -12.6730   17.8220 C   0  0  0  0  0  2  0  0  0  0  0  0
  -28.2170  -12.5290   18.3010 C   0  0  0  0  0  2  0  0  0  0  0  0
  -27.8900  -13.4520   19.5050 C   0  0  0  0  0  3  0  0  0  0  0  0
  -28.9790  -13.3840   20.6000 C   0  0  0  0  0  2  0  0  0  0  0  0
  -30.2640  -13.6890   19.9610 N   0  0  0  0  0  0  0  0  0  0  0  0
  -32.1060  -14.9340   19.5870 O   0  0  0  0  0  0  0  0  0  0  0  0
  -30.2280  -16.0690   20.1530 N   0  0  0  0  0  0  0  0  0  0  0  0
  -29.2680  -15.9760   20.4490 H   0  0  0  0  0  0  0  0  0  0  0  0
  -25.5410  -14.0870   20.3120 C   0  0  0  0  0  0  0  0  0  0  0  0
  -24.4730  -13.3330   20.7170 C   0  0  0  0  0  0  0  0  0  0  0  0
  -24.9100  -11.9730   20.6680 C   0  0  0  0  0  0  0  0  0  0  0  0
  -26.5590  -13.1900   20.0400 N   0  0  0  0  0  0  0  0  0  0  0  0
  -26.1890  -11.9120   20.3180 N   0  0  0  0  0  0  0  0  0  0  0  0
  -24.1660  -10.7240   20.8780 C   0  0  0  0  0  0  0  0  0  0  0  0
  -24.5880   -9.7630   21.8230 C   0  0  0  0  0  3  0  0  0  0  0  0
  -23.8450   -8.5790   22.0200 C   0  0  0  0  0  3  0  0  0  0  0  0
  -22.6650   -8.3480   21.2730 C   0  0  0  0  0  0  0  0  0  0  0  0
  -22.2610   -9.2990   20.3190 C   0  0  0  0  0  3  0  0  0  0  0  0
  -23.0050  -10.4730   20.1190 C   0  0  0  0  0  3  0  0  0  0  0  0
  -21.8930   -7.2170   21.3810 O   0  0  0  0  0  0  0  0  0  0  0  0
  -21.8080   -6.5130   22.5550 C   0  0  0  0  0  0  0  0  0  0  0  0
  -21.3330   -7.1030   23.7460 C   0  0  0  0  0  3  0  0  0  0  0  0
  -21.1960   -6.3260   24.9130 C   0  0  0  0  0  3  0  0  0  0  0  0
  -21.5220   -4.9560   24.8890 C   0  0  0  0  0  0  0  0  0  0  0  0
  -21.9900   -4.3640   23.7020 C   0  0  0  0  0  3  0  0  0  0  0  0
  -22.1280   -5.1390   22.5380 C   0  0  0  0  0  0  0  0  0  0  0  0
  -22.5590   -4.5600   21.3910 F   0  0  0  0  0  0  0  0  0  0  0  0
  -21.3840   -4.2050   26.0060 F   0  0  0  0  0  0  0  0  0  0  0  0
  -23.0950  -13.8350   21.0320 C   0  0  0  0  0  0  0  0  0  0  0  0
  -22.3880  -13.1610   21.9330 N   0  0  0  0  0  0  0  0  0  0  0  0
  -22.6550  -14.8620   20.5170 O   0  0  0  0  0  0  0  0  0  0  0  0
  -22.7590  -12.3310   22.3700 H   0  0  0  0  0  0  0  0  0  0  0  0
  -21.4660  -13.4810   22.1890 H   0  0  0  0  0  0  0  0  0  0  0  0
  -25.7240  -15.4550   20.1300 N   0  0  0  0  0  0  0  0  0  0  0  0
  -24.9710  -16.1200   20.2660 H   0  0  0  0  0  0  0  0  0  0  0  0
  -26.5570  -15.8780   19.7420 H   0  0  0  0  0  0  0  0  0  0  0  0
  -29.3970  -23.9680   20.0380 C   0  0  0  0  0  3  0  0  0  0  0  0
  -28.2520  -25.0260   19.6210 C   0  0  0  0  0  3  0  0  0  0  0  0
  -28.4470  -26.5060   19.8240 O   0  0  0  0  0  0  0  0  0  0  0  0
  -24.6050  -31.7150   23.0910 C   0  0  0  0  0  0  0  0  0  0  0  0
  -27.3220  -27.3620   19.7980 C   0  0  0  0  0  0  0  0  0  0  0  0
  -23.4320  -30.3570   21.3970 C   0  0  0  0  0  3  0  0  0  0  0  0
  -24.9160  -28.9280   19.8800 C   0  0  0  0  0  0  0  0  0  0  0  0
  -25.9610  -30.7600   21.2080 C   0  0  0  0  0  2  0  0  0  0  0  0
  -26.0780  -29.4160   20.4910 C   0  0  0  0  0  0  0  0  0  0  0  0
  -27.2830  -28.6460   20.4400 C   0  0  0  0  0  3  0  0  0  0  0  0
  -26.1360  -26.9490   19.1490 C   0  0  0  0  0  3  0  0  0  0  0  0
  -24.9500  -27.7040   19.1970 C   0  0  0  0  0  3  0  0  0  0  0  0
  -23.6530  -29.7610   19.9830 C   0  0  0  0  0  2  0  0  0  0  0  0
  -24.6850  -30.9600   21.9550 N   0  0  0  0  0  0  0  0  0  0  0  0
  -23.5180  -31.9290   23.6480 O   0  0  0  0  0  0  0  0  0  0  0  0
  -22.8130  -29.2740   22.3120 C   0  0  0  0  0  0  0  0  0  0  0  0
  -21.4920  -29.0580   22.1900 N   0  0  0  0  0  0  0  0  0  0  0  0
  -23.5210  -28.6310   23.0920 O   0  0  0  0  0  0  0  0  0  0  0  0
  -20.9770  -29.6320   21.5370 H   0  0  0  0  0  0  0  0  0  0  0  0
  -18.1630  -27.7190   22.6630 C   0  0  0  0  0  0  0  0  0  0  0  0
  -20.7140  -28.0570   22.9220 C   0  0  0  0  0  3  0  0  0  0  0  0
  -20.8590  -26.6590   22.2800 C   0  0  0  0  0  2  0  0  0  0  0  0
  -19.7590  -26.3440   21.2610 C   0  0  0  0  0  2  0  0  0  0  0  0
  -18.3790  -26.4110   21.9220 C   0  0  0  0  0  2  0  0  0  0  0  0
  -19.2590  -28.5010   23.1180 C   0  0  0  0  0  0  0  0  0  0  0  0
  -19.0020  -29.7250   23.7720 C   0  0  0  0  0  3  0  0  0  0  0  0
  -17.6820  -30.1720   23.9720 C   0  0  0  0  0  3  0  0  0  0  0  0
  -16.6010  -29.3880   23.5320 C   0  0  0  0  0  3  0  0  0  0  0  0
  -16.8420  -28.1640   22.8840 C   0  0  0  0  0  3  0  0  0  0  0  0
  -25.8720  -32.3610   23.7320 C   0  0  0  0  0  3  0  0  0  0  0  0
  -26.4000  -31.5740   24.9930 C   0  0  1  0  0  0  0  0  0  0  0  0
  -25.3100  -31.2940   26.0540 C   0  0  0  0  0  1  0  0  0  0  0  0
  -27.0110  -30.2150   24.5770 C   0  0  0  0  0  1  0  0  0  0  0  0
  -27.5340  -32.3770   25.6750 C   0  0  0  0  0  1  0  0  0  0  0  0
  -25.5300  -33.7450   24.0930 N   0  0  0  0  0  0  0  0  0  0  0  0
  -25.8280  -34.8220   23.3550 C   0  0  0  0  0  0  0  0  0  0  0  0
  -26.4910  -34.7560   22.3160 O   0  0  0  0  0  0  0  0  0  0  0  0
  -24.9400  -33.8670   24.9040 H   0  0  0  0  0  0  0  0  0  0  0  0
  -24.0560  -36.5820   23.0550 C   0  0  0  0  0  1  0  0  0  0  0  0
  -25.3130  -36.1880   23.8470 C   0  0  0  0  0  3  0  0  0  0  0  0
  -27.4270  -37.1110   24.6900 C   0  0  0  0  0  1  0  0  0  0  0  0
  -26.3200  -37.2680   23.7510 N   0  0  0  0  0  0  0  0  0  0  0  0
  -25.8910  -38.1750   23.9130 H   0  0  0  0  0  0  0  0  0  0  0  0
  2  1  1  0
  2  8  1  0
  4  3  1  0
  6  1  1  0
  6  3  1  0
  7 13  1  0
  7  6  1  0
  8 12  1  6
  8  5  1  0
  8  7  1  0
  9  5  1  0
  9 52  1  0
  9  4  1  0
  9 10  1  6
 12 11  1  0
 13 22  1  0
 14 22  1  0
 15 20  1  0
 16 17  1  0
 16 15  1  0
 18 17  1  0
 18 27  1  0
 18 19  1  0
 20 14  1  0
 20 19  1  0
 21 14  2  0
 22 23  1  0
 24 25  2  0
 25 44  1  0
 26 25  1  0
 26 29  1  0
 27 24  1  0
 27 28  1  0
 28 26  2  0
 29 30  1  0
 30 31  2  0
 32 35  1  0
 32 31  1  0
 33 32  2  0
 34 33  1  0
 34 29  2  0
 35 36  1  0
 36 37  1  0
 37 38  2  0
 39 38  1  0
 39 43  1  0
 40 39  2  0
 41 36  2  0
 41 40  1  0
 42 41  1  0
 44 45  1  0
 45 48  1  0
 45 47  1  0
 46 44  2  0
 49 50  1  0
 49 24  1  0
 51 49  1  0
 53 54  1  0
 53 52  2  0
 55 66  2  0
 56 54  1  0
 56 61  1  0
 57 65  1  0
 57 67  1  0
 58 64  1  0
 58 60  1  0
 59 65  1  0
 60 59  1  0
 61 60  2  0
 62 63  1  0
 62 56  2  0
 63 58  2  0
 64 57  1  0
 65 55  1  0
 67 69  2  0
 68 67  1  0
 70 68  1  0
 71 80  2  0
 71 76  1  0
 72 68  1  0
 72 76  1  0
 73 72  1  0
 74 75  1  0
 74 73  1  0
 75 71  1  0
 76 77  2  0
 77 78  1  0
 79 78  2  0
 80 79  1  0
 81 55  1  0
 81 86  1  0
 81 82  1  0
 82 85  1  1
 82 83  1  0
 84 82  1  0
 86 89  1  0
 87 91  1  0
 87 86  1  0
 88 87  2  0
 91 90  1  0
 93 91  1  0
 93 94  1  0
 93 92  1  0
M  ISO  4  14 100  22 100  53 101  54 101
M  END
>  <TORSDO>  (39) 
F 20

>  <SCORE>  (39) 
-13.231

>  <name>  (39) 
38

>  <ligand_id>  (39) 
38

>  <original_smiles>  (39) 
[H]c1c([H])c([H])c2c(c1[H])C([H])([H])C([H])([H])C([H])([H])C2([H])N([H])C(=O)C1([H])N(C(=O)C([H])(N([H])C(=O)C([H])(N([H])C([H])([H])[H])C([H])([H])[H])C(C([H])([H])[H])(C([H])([H])[H])C([H])([H])[H])C([H])([H])c2c([H])c(OC([H])([H])C([H])([H])[N+]3([H])C([H])([H])C([H])([H])C4([H])C([H])([H])C([H])([H])C(C([H])([H])C([H])([H])[H])(C4([H])C([H])([H])N([H])C(=O)N4C([H])([H])C([H])([H])C([H])([H])C([H])(n5nc(-c6c([H])c([H])c(Oc7c([H])c([H])c(F)c([H])c7F)c([H])c6[H])c(C(=O)N([H])[H])c5N([H])[H])C4([H])[H])C3([H])[H])c([H])c([H])c2C1([H])[H]

>  <smiles>  (39) 
[H]c1c([H])c([H])c2c(c1[H])C([H])([H])C([H])([H])C([H])([H])C2([H])N([H])C(=O)C1([H])N(C(=O)C([H])(N([H])C(=O)C([H])(N([H])C([H])([H])[H])C([H])([H])[H])C(C([H])([H])[H])(C([H])([H])[H])C([H])([H])[H])C([H])([H])c2c([H])c(OC([H])([H])C([H])([H])[N+]3([H])C([H])([H])C([H])([H])C4([H])C([H])([H])C([H])([H])C(C([H])([H])C([H])([H])[H])(C4([H])C([H])([H])N([H])C(=O)N4C([H])([H])C([H])([H])C([H])([H])C([H])(n5nc(-c6c([H])c([H])c(Oc7c([H])c([H])c(F)c([H])c7F)c([H])c6[H])c(C(=O)N([H])[H])c5N([H])[H])C4([H])[H])C3([H])[H])c([H])c([H])c2C1([H])[H]

$$$$
39:0:0
     RDKit          3D

 96105  0  0  1  0  0  0  0  0999 V2000
  -29.1920  -19.6670   20.2720 C   0  0  0  0  0  0  0  0  0  0  0  0
  -28.0660  -19.6300   19.4530 C   0  0  0  0  0  3  0  0  0  0  0  0
  -29.5340  -18.2550   20.3950 C   0  0  0  0  0  0  0  0  0  0  0  0
  -27.3130  -17.8680   17.7390 C   0  0  0  0  0  1  0  0  0  0  0  0
  -28.9110  -17.5240   19.4900 N   0  0  0  0  0  2  0  0  0  0  0  0
  -28.0760  -18.3700   18.8710 N   0  0  0  0  0  0  0  0  0  0  0  0
  -26.8720  -21.7910   18.2700 C   0  0  0  0  0  2  0  0  0  0  0  0
  -26.7040  -21.8700   19.7730 C   0  0  0  0  0  2  0  0  0  0  0  0
  -26.8890  -20.5320   19.0990 C   0  0  0  0  0  3  0  0  0  0  0  0
  -29.9440  -20.7940   21.0260 C   0  0  0  0  0  2  0  0  0  0  0  0
  -29.3730  -22.2470   21.2550 C   0  0  0  0  0  2  0  0  0  0  0  0
  -29.3290  -23.2120   20.1040 N   0  0  0  0  0  4  0  0  0  0  0  0
  -28.7000  -22.8410   19.4110 H   0  0  0  0  0  0  0  0  0  0  0  0
  -30.2470  -23.2540   19.6840 H   0  0  0  0  0  0  0  0  0  0  0  0
  -28.9060  -24.6140   20.4810 C   0  0  0  0  0  2  0  0  0  0  0  0
  -28.7330  -25.6280   19.2980 C   0  0  0  0  0  2  0  0  0  0  0  0
  -28.5800  -27.0150   19.7220 O   0  0  0  0  0  0  0  0  0  0  0  0
  -24.5600  -31.8270   23.1620 C   0  0  0  0  0  0  0  0  0  0  0  0
  -27.3550  -27.6790   19.7570 C   0  0  0  0  0  0  0  0  0  0  0  0
  -23.3980  -30.5000   21.4300 C   0  0  0  0  0  3  0  0  0  0  0  0
  -24.9000  -29.1220   19.8920 C   0  0  0  0  0  0  0  0  0  0  0  0
  -25.9110  -30.9600   21.2490 C   0  0  0  0  0  2  0  0  0  0  0  0
  -26.0430  -29.6370   20.5110 C   0  0  0  0  0  0  0  0  0  0  0  0
  -27.2670  -28.9240   20.4380 C   0  0  0  0  0  3  0  0  0  0  0  0
  -26.1800  -27.1860   19.1410 C   0  0  0  0  0  3  0  0  0  0  0  0
  -24.9660  -27.8980   19.2070 C   0  0  0  0  0  3  0  0  0  0  0  0
  -23.6240  -29.9300   20.0050 C   0  0  0  0  0  2  0  0  0  0  0  0
  -24.6420  -31.1090   22.0060 N   0  0  0  0  0  0  0  0  0  0  0  0
  -23.4730  -32.0170   23.7250 O   0  0  0  0  0  0  0  0  0  0  0  0
  -22.7930  -29.3880   22.3170 C   0  0  0  0  0  0  0  0  0  0  0  0
  -21.4780  -29.1570   22.1770 N   0  0  0  0  0  0  0  0  0  0  0  0
  -23.5050  -28.7400   23.0880 O   0  0  0  0  0  0  0  0  0  0  0  0
  -20.9620  -29.7370   21.5310 H   0  0  0  0  0  0  0  0  0  0  0  0
  -18.1670  -27.7610   22.5670 C   0  0  0  0  0  0  0  0  0  0  0  0
  -20.7070  -28.1320   22.8790 C   0  0  0  0  0  3  0  0  0  0  0  0
  -20.8870  -26.7480   22.2140 C   0  0  0  0  0  2  0  0  0  0  0  0
  -19.8100  -26.4340   21.1710 C   0  0  0  0  0  2  0  0  0  0  0  0
  -18.4180  -26.4670   21.8090 C   0  0  0  0  0  2  0  0  0  0  0  0
  -19.2420  -28.5500   23.0550 C   0  0  0  0  0  0  0  0  0  0  0  0
  -18.9550  -29.7610   23.7200 C   0  0  0  0  0  3  0  0  0  0  0  0
  -17.6240  -30.1850   23.9040 C   0  0  0  0  0  3  0  0  0  0  0  0
  -16.5640  -29.3910   23.4330 C   0  0  0  0  0  3  0  0  0  0  0  0
  -16.8360  -28.1820   22.7700 C   0  0  0  0  0  3  0  0  0  0  0  0
  -25.8230  -32.4640   23.8200 C   0  0  0  0  0  3  0  0  0  0  0  0
  -25.4880  -33.8500   24.1770 N   0  0  0  0  0  0  0  0  0  0  0  0
  -25.8480  -34.9270   23.4660 C   0  0  0  0  0  0  0  0  0  0  0  0
  -26.5680  -34.8580   22.4660 O   0  0  0  0  0  0  0  0  0  0  0  0
  -24.8560  -33.9760   24.9530 H   0  0  0  0  0  0  0  0  0  0  0  0
  -24.1150  -36.7090   23.0890 C   0  0  0  0  0  1  0  0  0  0  0  0
  -25.3280  -36.2970   23.9400 C   0  0  0  0  0  3  0  0  0  0  0  0
  -27.4170  -37.1810   24.8780 C   0  0  0  0  0  1  0  0  0  0  0  0
  -26.3520  -37.3630   23.8970 N   0  0  0  0  0  0  0  0  0  0  0  0
  -25.9290  -38.2750   24.0530 H   0  0  0  0  0  0  0  0  0  0  0  0
  -26.3310  -31.6720   25.0880 C   0  0  1  0  0  0  0  0  0  0  0  0
  -25.2250  -31.4010   26.1350 C   0  0  0  0  0  1  0  0  0  0  0  0
  -26.9350  -30.3110   24.6750 C   0  0  0  0  0  1  0  0  0  0  0  0
  -27.4610  -32.4660   25.7840 C   0  0  0  0  0  1  0  0  0  0  0  0
  -30.4850  -17.4810   21.3290 C   0  0  0  0  0  2  0  0  0  0  0  0
  -31.0030  -14.9700   21.1310 C   0  0  0  0  0  0  0  0  0  0  0  0
  -30.8680  -12.7780   19.9910 C   0  0  0  0  0  2  0  0  0  0  0  0
  -30.0510  -12.9530   18.6920 C   0  0  0  0  0  2  0  0  0  0  0  0
  -28.5390  -12.8150   18.9680 C   0  0  0  0  0  2  0  0  0  0  0  0
  -28.0710  -13.6590   20.1840 C   0  0  0  0  0  3  0  0  0  0  0  0
  -29.0070  -13.4520   21.3950 C   0  0  0  0  0  2  0  0  0  0  0  0
  -30.3770  -13.7700   20.9620 N   0  0  0  0  0  0  0  0  0  0  0  0
  -32.1960  -15.1320   20.8550 O   0  0  0  0  0  0  0  0  0  0  0  0
  -30.1920  -16.0200   21.4150 N   0  0  0  0  0  0  0  0  0  0  0  0
  -29.2170  -15.8010   21.5570 H   0  0  0  0  0  0  0  0  0  0  0  0
  -25.6360  -14.2890   20.7090 C   0  0  0  0  0  0  0  0  0  0  0  0
  -24.5200  -13.5310   20.9350 C   0  0  0  0  0  0  0  0  0  0  0  0
  -24.9530  -12.1720   20.8840 C   0  0  0  0  0  0  0  0  0  0  0  0
  -26.6770  -13.3930   20.5260 N   0  0  0  0  0  0  0  0  0  0  0  0
  -26.2660  -12.1120   20.6980 N   0  0  0  0  0  0  0  0  0  0  0  0
  -24.1860  -10.9230   20.9500 C   0  0  0  0  0  0  0  0  0  0  0  0
  -24.5540   -9.8790   21.8240 C   0  0  0  0  0  3  0  0  0  0  0  0
  -23.7910   -8.6930   21.8810 C   0  0  0  0  0  3  0  0  0  0  0  0
  -22.6460   -8.5470   21.0630 C   0  0  0  0  0  0  0  0  0  0  0  0
  -22.2960   -9.5830   20.1790 C   0  0  0  0  0  3  0  0  0  0  0  0
  -23.0610  -10.7600   20.1180 C   0  0  0  0  0  3  0  0  0  0  0  0
  -21.8560   -7.4220   21.0340 O   0  0  0  0  0  0  0  0  0  0  0  0
  -21.7960   -6.5580   22.0960 C   0  0  0  0  0  0  0  0  0  0  0  0
  -21.4160   -6.9880   23.3860 C   0  0  0  0  0  3  0  0  0  0  0  0
  -21.3000   -6.0540   24.4350 C   0  0  0  0  0  3  0  0  0  0  0  0
  -21.5540   -4.6890   24.1940 C   0  0  0  0  0  0  0  0  0  0  0  0
  -21.9250   -4.2580   22.9090 C   0  0  0  0  0  3  0  0  0  0  0  0
  -22.0440   -5.1900   21.8630 C   0  0  0  0  0  0  0  0  0  0  0  0
  -22.3830   -4.7650   20.6220 F   0  0  0  0  0  0  0  0  0  0  0  0
  -21.4320   -3.7910   25.1990 F   0  0  0  0  0  0  0  0  0  0  0  0
  -23.1150  -14.0370   21.0910 C   0  0  0  0  0  0  0  0  0  0  0  0
  -22.2930  -13.3380   21.8680 N   0  0  0  0  0  0  0  0  0  0  0  0
  -22.7520  -15.0880   20.5630 O   0  0  0  0  0  0  0  0  0  0  0  0
  -22.5960  -12.4910   22.3250 H   0  0  0  0  0  0  0  0  0  0  0  0
  -21.3450  -13.6580   22.0100 H   0  0  0  0  0  0  0  0  0  0  0  0
  -25.8470  -15.6560   20.6280 N   0  0  0  0  0  0  0  0  0  0  0  0
  -25.0830  -16.3140   20.7220 H   0  0  0  0  0  0  0  0  0  0  0  0
  -26.7300  -16.1050   20.3980 H   0  0  0  0  0  0  0  0  0  0  0  0
  1  3  2  0
  1 10  1  0
  2  9  1  0
  2  1  1  0
  3 58  1  0
  4  6  1  0
  5  3  1  0
  6  2  1  0
  6  5  1  0
  7  9  1  0
  7  8  1  0
  9  8  1  0
 10 11  1  0
 12 15  1  0
 12 11  1  0
 13 12  1  0
 14 12  1  0
 16 17  1  0
 16 15  1  0
 17 19  1  0
 18 29  2  0
 19 24  1  0
 20 28  1  0
 20 30  1  0
 21 27  1  0
 21 23  1  0
 22 28  1  0
 23 22  1  0
 24 23  2  0
 25 26  1  0
 25 19  2  0
 26 21  2  0
 27 20  1  0
 28 18  1  0
 30 32  2  0
 31 30  1  0
 33 31  1  0
 34 43  2  0
 34 39  1  0
 35 31  1  0
 35 39  1  0
 36 35  1  0
 37 38  1  0
 37 36  1  0
 38 34  1  0
 39 40  2  0
 40 41  1  0
 42 41  2  0
 43 42  1  0
 44 18  1  0
 44 45  1  0
 44 54  1  0
 45 48  1  0
 46 50  1  0
 46 45  1  0
 47 46  2  0
 50 49  1  0
 52 50  1  0
 52 53  1  0
 52 51  1  0
 54 57  1  1
 54 55  1  0
 56 54  1  0
 58 67  1  0
 59 67  1  0
 60 65  1  0
 61 62  1  0
 61 60  1  0
 63 62  1  0
 63 72  1  0
 63 64  1  0
 65 59  1  0
 65 64  1  0
 66 59  2  0
 67 68  1  0
 69 70  2  0
 70 89  1  0
 71 70  1  0
 71 74  1  0
 72 73  1  0
 72 69  1  0
 73 71  2  0
 74 75  1  0
 75 76  2  0
 77 76  1  0
 78 77  2  0
 79 78  1  0
 79 74  2  0
 80 77  1  0
 80 81  1  0
 81 82  1  0
 82 83  2  0
 84 83  1  0
 84 88  1  0
 85 84  2  0
 86 81  2  0
 86 85  1  0
 87 86  1  0
 89 90  1  0
 90 93  1  0
 90 92  1  0
 91 89  2  0
 94 69  1  0
 94 95  1  0
 96 94  1  0
M  ISO  4  16 101  17 101  59 100  67 100
M  END
>  <TORSDO>  (40) 
F 23

>  <SCORE>  (40) 
-11.301

>  <name>  (40) 
39

>  <ligand_id>  (40) 
39

>  <original_smiles>  (40) 
[H]c1c([H])c([H])c2c(c1[H])C([H])([H])C([H])([H])C([H])([H])C2([H])N([H])C(=O)C1([H])N(C(=O)C([H])(N([H])C(=O)C([H])(N([H])C([H])([H])[H])C([H])([H])[H])C(C([H])([H])[H])(C([H])([H])[H])C([H])([H])[H])C([H])([H])c2c([H])c(OC([H])([H])C([H])([H])[N+]([H])([H])C([H])([H])C([H])([H])c3c(C([H])([H])N([H])C(=O)N4C([H])([H])C([H])([H])C([H])([H])C([H])(n5nc(-c6c([H])c([H])c(Oc7c([H])c([H])c(F)c([H])c7F)c([H])c6[H])c(C(=O)N([H])[H])c5N([H])[H])C4([H])[H])nn(C([H])([H])[H])c3C3([H])C([H])([H])C3([H])[H])c([H])c([H])c2C1([H])[H]

>  <smiles>  (40) 
[H]c1c([H])c([H])c2c(c1[H])C([H])([H])C([H])([H])C([H])([H])C2([H])N([H])C(=O)C1([H])N(C(=O)C([H])(N([H])C(=O)C([H])(N([H])C([H])([H])[H])C([H])([H])[H])C(C([H])([H])[H])(C([H])([H])[H])C([H])([H])[H])C([H])([H])c2c([H])c(OC([H])([H])C([H])([H])[N+]([H])([H])C([H])([H])C([H])([H])c3c(C([H])([H])N([H])C(=O)N4C([H])([H])C([H])([H])C([H])([H])C([H])(n5nc(-c6c([H])c([H])c(Oc7c([H])c([H])c(F)c([H])c7F)c([H])c6[H])c(C(=O)N([H])[H])c5N([H])[H])C4([H])[H])nn(C([H])([H])[H])c3C3([H])C([H])([H])C3([H])[H])c([H])c([H])c2C1([H])[H]

$$$$
40:0:0
     RDKit          3D

 89 98  0  0  1  0  0  0  0  0999 V2000
  -28.5110  -21.4820   20.6630 N   0  0  0  0  0  4  0  0  0  0  0  0
  -28.5730  -21.5070   21.6650 H   0  0  0  0  0  0  0  0  0  0  0  0
  -27.5270  -21.3640   20.4850 H   0  0  0  0  0  0  0  0  0  0  0  0
  -30.5490  -15.2000   20.2590 C   0  0  0  0  0  0  0  0  0  0  0  0
  -30.3980  -12.8010   19.3590 C   0  0  0  0  0  2  0  0  0  0  0  0
  -29.4690  -12.6200   18.1370 C   0  0  0  0  0  2  0  0  0  0  0  0
  -28.0270  -12.3650   18.6020 C   0  0  0  0  0  2  0  0  0  0  0  0
  -27.5900  -13.3400   19.7210 C   0  0  0  0  0  3  0  0  0  0  0  0
  -28.6490  -13.4980   20.8320 C   0  0  0  0  0  2  0  0  0  0  0  0
  -29.8830  -13.9550   20.1770 N   0  0  0  0  0  0  0  0  0  0  0  0
  -31.7700  -15.1040   20.0910 O   0  0  0  0  0  0  0  0  0  0  0  0
  -28.1770  -18.7180   20.2130 C   0  0  0  0  0  2  0  0  0  0  0  0
  -30.2840  -19.2970   21.0120 C   0  0  0  0  0  2  0  0  0  0  0  0
  -28.6920  -17.1760   19.8430 C   0  0  0  0  0  2  0  0  0  0  0  0
  -30.8520  -17.8100   20.5640 C   0  0  0  0  0  2  0  0  0  0  0  0
  -29.1260  -20.0380   20.1730 C   0  0  0  0  0  3  0  0  0  0  0  0
  -29.9720  -16.5570   20.3970 N   0  0  0  0  0  0  0  0  0  0  0  0
  -25.2200  -13.8810   20.4960 C   0  0  0  0  0  0  0  0  0  0  0  0
  -24.1680  -13.0940   20.8720 C   0  0  0  0  0  0  0  0  0  0  0  0
  -24.6470  -11.7480   20.8340 C   0  0  0  0  0  0  0  0  0  0  0  0
  -26.2700  -13.0170   20.2470 N   0  0  0  0  0  0  0  0  0  0  0  0
  -25.9380  -11.7270   20.5200 N   0  0  0  0  0  0  0  0  0  0  0  0
  -23.9330  -10.4780   21.0150 C   0  0  0  0  0  0  0  0  0  0  0  0
  -24.3540   -9.5150   21.9600 C   0  0  0  0  0  3  0  0  0  0  0  0
  -23.6330   -8.3150   22.1290 C   0  0  0  0  0  3  0  0  0  0  0  0
  -22.4750   -8.0660   21.3530 C   0  0  0  0  0  0  0  0  0  0  0  0
  -22.0730   -9.0160   20.3990 C   0  0  0  0  0  3  0  0  0  0  0  0
  -22.7970  -10.2080   20.2260 C   0  0  0  0  0  3  0  0  0  0  0  0
  -21.7240   -6.9160   21.4350 O   0  0  0  0  0  0  0  0  0  0  0  0
  -21.6430   -6.1960   22.6000 C   0  0  0  0  0  0  0  0  0  0  0  0
  -21.1440   -6.7580   23.7940 C   0  0  0  0  0  3  0  0  0  0  0  0
  -21.0120   -5.9580   24.9480 C   0  0  0  0  0  3  0  0  0  0  0  0
  -21.3640   -4.5980   24.9040 C   0  0  0  0  0  0  0  0  0  0  0  0
  -21.8540   -4.0330   23.7120 C   0  0  0  0  0  3  0  0  0  0  0  0
  -21.9880   -4.8300   22.5620 C   0  0  0  0  0  0  0  0  0  0  0  0
  -22.4410   -4.2750   21.4120 F   0  0  0  0  0  0  0  0  0  0  0  0
  -21.2290   -3.8250   26.0090 F   0  0  0  0  0  0  0  0  0  0  0  0
  -22.7680  -13.5580   21.1440 C   0  0  0  0  0  0  0  0  0  0  0  0
  -22.0410  -12.8480   22.0040 N   0  0  0  0  0  0  0  0  0  0  0  0
  -22.3250  -14.5850   20.6350 O   0  0  0  0  0  0  0  0  0  0  0  0
  -22.4090  -12.0140   22.4350 H   0  0  0  0  0  0  0  0  0  0  0  0
  -21.1050  -13.1450   22.2360 H   0  0  0  0  0  0  0  0  0  0  0  0
  -25.3610  -15.2520   20.3150 N   0  0  0  0  0  0  0  0  0  0  0  0
  -24.5750  -15.8860   20.4180 H   0  0  0  0  0  0  0  0  0  0  0  0
  -26.1800  -15.6930   19.9210 H   0  0  0  0  0  0  0  0  0  0  0  0
  -29.3230  -23.9530   21.1430 C   0  0  0  0  0  2  0  0  0  0  0  0
  -28.7680  -22.9970   20.1080 C   0  0  0  0  0  3  0  0  0  0  0  0
  -27.9990  -24.4760   20.5890 C   0  0  0  0  0  3  0  0  0  0  0  0
  -28.2280  -26.0460   20.3130 O   0  0  0  0  0  0  0  0  0  0  0  0
  -24.6280  -31.8880   23.2330 C   0  0  0  0  0  0  0  0  0  0  0  0
  -27.1840  -27.0720   20.2720 C   0  0  0  0  0  0  0  0  0  0  0  0
  -23.4290  -30.4860   21.6010 C   0  0  0  0  0  3  0  0  0  0  0  0
  -24.8730  -28.8830   20.1940 C   0  0  0  0  0  0  0  0  0  0  0  0
  -25.9830  -30.7300   21.4340 C   0  0  0  0  0  2  0  0  0  0  0  0
  -26.0570  -29.3210   20.7990 C   0  0  0  0  0  0  0  0  0  0  0  0
  -27.2110  -28.4370   20.8120 C   0  0  0  0  0  3  0  0  0  0  0  0
  -25.9710  -26.7520   19.6250 C   0  0  0  0  0  3  0  0  0  0  0  0
  -24.8500  -27.6170   19.5850 C   0  0  0  0  0  3  0  0  0  0  0  0
  -23.6500  -29.7920   20.2280 C   0  0  0  0  0  2  0  0  0  0  0  0
  -24.7020  -31.0620   22.1450 N   0  0  0  0  0  0  0  0  0  0  0  0
  -23.5430  -32.1720   23.7630 O   0  0  0  0  0  0  0  0  0  0  0  0
  -22.7460  -29.4910   22.5760 C   0  0  0  0  0  0  0  0  0  0  0  0
  -21.4180  -29.3160   22.4500 N   0  0  0  0  0  0  0  0  0  0  0  0
  -23.4140  -28.8730   23.4060 O   0  0  0  0  0  0  0  0  0  0  0  0
  -20.9280  -29.8590   21.7520 H   0  0  0  0  0  0  0  0  0  0  0  0
  -18.0420  -28.0990   22.9600 C   0  0  0  0  0  0  0  0  0  0  0  0
  -20.6000  -28.3810   23.2300 C   0  0  0  0  0  3  0  0  0  0  0  0
  -20.7120  -26.9440   22.6670 C   0  0  0  0  0  2  0  0  0  0  0  0
  -19.6140  -26.6030   21.6550 C   0  0  0  0  0  2  0  0  0  0  0  0
  -18.2290  -26.7470   22.2900 C   0  0  0  0  0  2  0  0  0  0  0  0
  -19.1550  -28.8700   23.3840 C   0  0  0  0  0  0  0  0  0  0  0  0
  -18.9240  -30.1360   23.9680 C   0  0  0  0  0  3  0  0  0  0  0  0
  -17.6150  -30.6270   24.1320 C   0  0  0  0  0  3  0  0  0  0  0  0
  -16.5180  -29.8530   23.7200 C   0  0  0  0  0  3  0  0  0  0  0  0
  -16.7300  -28.5890   23.1410 C   0  0  0  0  0  3  0  0  0  0  0  0
  -25.9050  -32.5320   23.8570 C   0  0  0  0  0  3  0  0  0  0  0  0
  -25.5940  -33.9320   24.1870 N   0  0  0  0  0  0  0  0  0  0  0  0
  -25.9190  -34.9900   23.4290 C   0  0  0  0  0  0  0  0  0  0  0  0
  -26.5820  -34.8870   22.3940 O   0  0  0  0  0  0  0  0  0  0  0  0
  -25.0210  -34.0890   25.0030 H   0  0  0  0  0  0  0  0  0  0  0  0
  -24.1940  -36.7830   23.0860 C   0  0  0  0  0  1  0  0  0  0  0  0
  -25.4370  -36.3760   23.8930 C   0  0  0  0  0  3  0  0  0  0  0  0
  -27.5740  -37.2590   24.7190 C   0  0  0  0  0  1  0  0  0  0  0  0
  -26.4700  -37.4300   23.7780 N   0  0  0  0  0  0  0  0  0  0  0  0
  -26.0630  -38.3490   23.9310 H   0  0  0  0  0  0  0  0  0  0  0  0
  -26.4170  -31.7720   25.1430 C   0  0  1  0  0  0  0  0  0  0  0  0
  -25.3210  -31.5500   26.2120 C   0  0  0  0  0  1  0  0  0  0  0  0
  -26.9990  -30.3890   24.7700 C   0  0  0  0  0  1  0  0  0  0  0  0
  -27.5660  -32.5730   25.8000 C   0  0  0  0  0  1  0  0  0  0  0  0
  1  2  1  0
  3  1  1  0
  4 17  1  0
  5 10  1  0
  6  7  1  0
  6  5  1  0
  8  7  1  0
  8 21  1  0
  8  9  1  0
 10  4  1  0
 10  9  1  0
 11  4  2  0
 14 12  1  0
 14 17  1  0
 15 13  1  0
 16 12  1  0
 16  1  1  0
 16 13  1  0
 17 15  1  0
 18 19  2  0
 19 38  1  0
 20 19  1  0
 20 23  1  0
 21 18  1  0
 21 22  1  0
 22 20  2  0
 23 24  1  0
 24 25  2  0
 26 29  1  0
 26 25  1  0
 27 26  2  0
 28 27  1  0
 28 23  2  0
 29 30  1  0
 30 31  1  0
 31 32  2  0
 33 32  1  0
 33 37  1  0
 34 33  2  0
 35 30  2  0
 35 34  1  0
 36 35  1  0
 38 39  1  0
 39 42  1  0
 39 41  1  0
 40 38  2  0
 43 44  1  0
 43 18  1  0
 45 43  1  0
 47 48  1  0
 47  1  1  0
 47 46  1  0
 48 49  1  0
 48 46  1  0
 50 61  2  0
 51 49  1  0
 51 56  1  0
 52 60  1  0
 52 62  1  0
 53 59  1  0
 53 55  1  0
 54 60  1  0
 55 56  2  0
 55 54  1  0
 57 51  2  0
 58 57  1  0
 58 53  2  0
 59 52  1  0
 60 50  1  0
 62 64  2  0
 63 62  1  0
 65 63  1  0
 66 75  2  0
 66 71  1  0
 67 63  1  0
 67 71  1  0
 68 67  1  0
 69 70  1  0
 69 68  1  0
 70 66  1  0
 71 72  2  0
 72 73  1  0
 74 73  2  0
 75 74  1  0
 76 50  1  0
 76 77  1  0
 76 86  1  0
 77 80  1  0
 78 82  1  0
 78 77  1  0
 79 78  2  0
 82 81  1  0
 84 82  1  0
 84 85  1  0
 84 83  1  0
 86 89  1  1
 86 87  1  0
 88 86  1  0
M  ISO  4   4 100  17 100  48 101  49 101
M  END
>  <TORSDO>  (41) 
F 17

>  <SCORE>  (41) 
-15.120

>  <name>  (41) 
40

>  <ligand_id>  (41) 
40

>  <original_smiles>  (41) 
[H]c1c([H])c([H])c2c(c1[H])C([H])([H])C([H])([H])C([H])([H])C2([H])N([H])C(=O)C1([H])N(C(=O)C([H])(N([H])C(=O)C([H])(N([H])C([H])([H])[H])C([H])([H])[H])C(C([H])([H])[H])(C([H])([H])[H])C([H])([H])[H])C([H])([H])c2c([H])c(OC3([H])C([H])([H])C3([H])[N+]([H])([H])C3([H])C([H])([H])C([H])([H])N(C(=O)N4C([H])([H])C([H])([H])C([H])([H])C([H])(n5nc(-c6c([H])c([H])c(Oc7c([H])c([H])c(F)c([H])c7F)c([H])c6[H])c(C(=O)N([H])[H])c5N([H])[H])C4([H])[H])C([H])([H])C3([H])[H])c([H])c([H])c2C1([H])[H]

>  <smiles>  (41) 
[H]c1c([H])c([H])c2c(c1[H])C([H])([H])C([H])([H])C([H])([H])C2([H])N([H])C(=O)C1([H])N(C(=O)C([H])(N([H])C(=O)C([H])(N([H])C([H])([H])[H])C([H])([H])[H])C(C([H])([H])[H])(C([H])([H])[H])C([H])([H])[H])C([H])([H])c2c([H])c(OC3([H])C([H])([H])C3([H])[N+]([H])([H])C3([H])C([H])([H])C([H])([H])N(C(=O)N4C([H])([H])C([H])([H])C([H])([H])C([H])(n5nc(-c6c([H])c([H])c(Oc7c([H])c([H])c(F)c([H])c7F)c([H])c6[H])c(C(=O)N([H])[H])c5N([H])[H])C4([H])[H])C([H])([H])C3([H])[H])c([H])c([H])c2C1([H])[H]

$$$$
41:0:0
     RDKit          3D

 89 98  0  0  1  0  0  0  0  0999 V2000
  -28.9990  -23.9230   19.1310 C   0  0  0  0  0  3  0  0  0  0  0  0
  -28.2990  -22.4880   21.2950 C   0  0  0  0  0  3  0  0  0  0  0  0
  -29.3090  -22.4960   19.1910 C   0  0  0  0  0  0  0  0  0  0  0  0
  -28.9810  -21.6620   20.3170 C   0  0  0  0  0  0  0  0  0  0  0  0
  -28.3500  -24.6680   20.1730 C   0  0  0  0  0  0  0  0  0  0  0  0
  -30.0960  -21.8790   18.0510 C   0  0  0  0  0  1  0  0  0  0  0  0
  -28.0160  -23.8660   21.2430 N   0  0  0  0  0  0  0  0  0  0  0  0
  -28.3190  -26.1550   20.2510 O   0  0  0  0  0  0  0  0  0  0  0  0
  -24.6550  -31.8600   23.2460 C   0  0  0  0  0  0  0  0  0  0  0  0
  -27.2210  -27.1020   20.2370 C   0  0  0  0  0  0  0  0  0  0  0  0
  -23.4510  -30.4600   21.6110 C   0  0  0  0  0  3  0  0  0  0  0  0
  -24.8930  -28.8640   20.1950 C   0  0  0  0  0  0  0  0  0  0  0  0
  -26.0040  -30.7120   21.4450 C   0  0  0  0  0  2  0  0  0  0  0  0
  -26.0730  -29.3110   20.8030 C   0  0  0  0  0  0  0  0  0  0  0  0
  -27.2330  -28.4460   20.8060 C   0  0  0  0  0  3  0  0  0  0  0  0
  -26.0180  -26.7610   19.5870 C   0  0  0  0  0  3  0  0  0  0  0  0
  -24.8800  -27.6030   19.5720 C   0  0  0  0  0  3  0  0  0  0  0  0
  -23.6690  -29.7680   20.2380 C   0  0  0  0  0  2  0  0  0  0  0  0
  -24.7240  -31.0360   22.1550 N   0  0  0  0  0  0  0  0  0  0  0  0
  -23.5710  -32.1490   23.7760 O   0  0  0  0  0  0  0  0  0  0  0  0
  -22.7720  -29.4610   22.5820 C   0  0  0  0  0  0  0  0  0  0  0  0
  -21.4440  -29.2840   22.4540 N   0  0  0  0  0  0  0  0  0  0  0  0
  -23.4420  -28.8430   23.4140 O   0  0  0  0  0  0  0  0  0  0  0  0
  -20.9580  -29.8340   21.7590 H   0  0  0  0  0  0  0  0  0  0  0  0
  -18.0690  -28.0590   22.9410 C   0  0  0  0  0  0  0  0  0  0  0  0
  -20.6230  -28.3480   23.2280 C   0  0  0  0  0  3  0  0  0  0  0  0
  -20.7430  -26.9100   22.6710 C   0  0  0  0  0  2  0  0  0  0  0  0
  -19.6540  -26.5660   21.6500 C   0  0  0  0  0  2  0  0  0  0  0  0
  -18.2650  -26.7040   22.2800 C   0  0  0  0  0  2  0  0  0  0  0  0
  -19.1770  -28.8370   23.3710 C   0  0  0  0  0  0  0  0  0  0  0  0
  -18.9390  -30.1030   23.9500 C   0  0  0  0  0  3  0  0  0  0  0  0
  -17.6270  -30.5900   24.1030 C   0  0  0  0  0  3  0  0  0  0  0  0
  -16.5350  -29.8090   23.6880 C   0  0  0  0  0  3  0  0  0  0  0  0
  -16.7570  -28.5450   23.1120 C   0  0  0  0  0  3  0  0  0  0  0  0
  -25.9340  -32.4980   23.8700 C   0  0  0  0  0  3  0  0  0  0  0  0
  -25.6190  -33.8950   24.2110 N   0  0  0  0  0  0  0  0  0  0  0  0
  -25.9220  -34.9560   23.4510 C   0  0  0  0  0  0  0  0  0  0  0  0
  -26.5620  -34.8620   22.4000 O   0  0  0  0  0  0  0  0  0  0  0  0
  -25.0460  -34.0390   25.0290 H   0  0  0  0  0  0  0  0  0  0  0  0
  -24.1630  -36.7350   23.1760 C   0  0  0  0  0  1  0  0  0  0  0  0
  -25.4410  -36.3400   23.9320 C   0  0  0  0  0  3  0  0  0  0  0  0
  -27.5970  -37.2540   24.6750 C   0  0  0  0  0  1  0  0  0  0  0  0
  -26.4570  -37.4050   23.7740 N   0  0  0  0  0  0  0  0  0  0  0  0
  -26.0470  -38.3210   23.9330 H   0  0  0  0  0  0  0  0  0  0  0  0
  -26.4520  -31.7260   25.1470 C   0  0  1  0  0  0  0  0  0  0  0  0
  -25.3590  -31.4880   26.2160 C   0  0  0  0  0  1  0  0  0  0  0  0
  -27.0390  -30.3500   24.7590 C   0  0  0  0  0  1  0  0  0  0  0  0
  -27.6010  -32.5230   25.8110 C   0  0  0  0  0  1  0  0  0  0  0  0
  -29.6170  -20.1350   20.6460 C   0  0  0  0  0  2  0  0  0  0  0  0
  -30.5120  -15.0160   20.1030 C   0  0  0  0  0  0  0  0  0  0  0  0
  -30.3310  -12.6530   19.1670 C   0  0  0  0  0  2  0  0  0  0  0  0
  -29.3640  -12.5830   17.9640 C   0  0  0  0  0  2  0  0  0  0  0  0
  -27.9170  -12.3750   18.4480 C   0  0  0  0  0  2  0  0  0  0  0  0
  -27.5480  -13.3100   19.6300 C   0  0  0  0  0  3  0  0  0  0  0  0
  -28.6400  -13.3560   20.7170 C   0  0  0  0  0  2  0  0  0  0  0  0
  -29.8750  -13.7720   20.0470 N   0  0  0  0  0  0  0  0  0  0  0  0
  -31.7180  -15.0050   19.8250 O   0  0  0  0  0  0  0  0  0  0  0  0
  -29.3790  -17.2470   21.1460 C   0  0  0  0  0  2  0  0  0  0  0  0
  -30.2930  -17.5500   19.3840 C   0  0  0  0  0  2  0  0  0  0  0  0
  -29.2960  -18.5220   20.1630 C   0  0  0  0  0  3  0  0  0  0  0  0
  -29.7980  -16.2730   20.0560 N   0  0  0  0  0  0  0  0  0  0  0  0
  -25.2090  -13.8940   20.4770 C   0  0  0  0  0  0  0  0  0  0  0  0
  -24.1510  -13.1230   20.8710 C   0  0  0  0  0  0  0  0  0  0  0  0
  -24.6000  -11.7680   20.8000 C   0  0  0  0  0  0  0  0  0  0  0  0
  -26.2320  -13.0110   20.1800 N   0  0  0  0  0  0  0  0  0  0  0  0
  -25.8790  -11.7250   20.4430 N   0  0  0  0  0  0  0  0  0  0  0  0
  -23.8670  -10.5110   20.9950 C   0  0  0  0  0  0  0  0  0  0  0  0
  -24.3040   -9.5340   21.9170 C   0  0  0  0  0  3  0  0  0  0  0  0
  -23.5680   -8.3430   22.1010 C   0  0  0  0  0  3  0  0  0  0  0  0
  -22.3830   -8.1180   21.3620 C   0  0  0  0  0  0  0  0  0  0  0  0
  -21.9640   -9.0830   20.4290 C   0  0  0  0  0  3  0  0  0  0  0  0
  -22.7010  -10.2660   20.2430 C   0  0  0  0  0  3  0  0  0  0  0  0
  -21.6170   -6.9820   21.4570 O   0  0  0  0  0  0  0  0  0  0  0  0
  -21.5560   -6.2490   22.6150 C   0  0  0  0  0  0  0  0  0  0  0  0
  -21.1030   -6.8100   23.8300 C   0  0  0  0  0  3  0  0  0  0  0  0
  -20.9900   -6.0030   24.9790 C   0  0  0  0  0  3  0  0  0  0  0  0
  -21.3210   -4.6360   24.9170 C   0  0  0  0  0  0  0  0  0  0  0  0
  -21.7670   -4.0750   23.7070 C   0  0  0  0  0  3  0  0  0  0  0  0
  -21.8810   -4.8790   22.5590 C   0  0  0  0  0  0  0  0  0  0  0  0
  -22.2920   -4.3280   21.3920 F   0  0  0  0  0  0  0  0  0  0  0  0
  -21.2050   -3.8600   26.0190 F   0  0  0  0  0  0  0  0  0  0  0  0
  -22.7690  -13.6110   21.1950 C   0  0  0  0  0  0  0  0  0  0  0  0
  -22.0650  -12.9130   22.0790 N   0  0  0  0  0  0  0  0  0  0  0  0
  -22.3260  -14.6460   20.7020 O   0  0  0  0  0  0  0  0  0  0  0  0
  -22.4380  -12.0770   22.5030 H   0  0  0  0  0  0  0  0  0  0  0  0
  -21.1390  -13.2220   22.3400 H   0  0  0  0  0  0  0  0  0  0  0  0
  -25.3820  -15.2660   20.3180 N   0  0  0  0  0  0  0  0  0  0  0  0
  -24.6330  -15.9300   20.4800 H   0  0  0  0  0  0  0  0  0  0  0  0
  -26.2330  -15.7000   19.9830 H   0  0  0  0  0  0  0  0  0  0  0  0
  1  3  2  0
  1  5  1  0
  3  4  1  0
  4 49  1  0
  4  2  2  0
  5  8  1  0
  5  7  2  0
  6  3  1  0
  7  2  1  0
  9 20  2  0
 10  8  1  0
 10 15  1  0
 11 19  1  0
 11 21  1  0
 12 18  1  0
 12 14  1  0
 13 19  1  0
 14 15  2  0
 14 13  1  0
 16 10  2  0
 17 16  1  0
 17 12  2  0
 18 11  1  0
 19  9  1  0
 21 23  2  0
 22 21  1  0
 24 22  1  0
 25 34  2  0
 25 30  1  0
 26 22  1  0
 26 30  1  0
 27 26  1  0
 28 29  1  0
 28 27  1  0
 29 25  1  0
 30 31  2  0
 31 32  1  0
 33 32  2  0
 34 33  1  0
 35  9  1  0
 35 36  1  0
 35 45  1  0
 36 39  1  0
 37 41  1  0
 37 36  1  0
 38 37  2  0
 41 40  1  0
 43 41  1  0
 43 44  1  0
 43 42  1  0
 45 48  1  1
 45 46  1  0
 47 45  1  0
 51 56  1  0
 52 53  1  0
 52 51  1  0
 54 53  1  0
 54 65  1  0
 54 55  1  0
 56 50  1  0
 56 55  1  0
 57 50  2  0
 59 61  1  0
 59 60  1  0
 60 49  1  0
 60 58  1  0
 61 50  1  0
 61 58  1  0
 62 63  2  0
 63 82  1  0
 64 63  1  0
 64 67  1  0
 65 66  1  0
 65 62  1  0
 66 64  2  0
 67 68  1  0
 68 69  2  0
 70 73  1  0
 70 69  1  0
 71 70  2  0
 72 71  1  0
 72 67  2  0
 73 74  1  0
 74 75  1  0
 75 76  2  0
 77 76  1  0
 77 81  1  0
 78 77  2  0
 79 74  2  0
 79 78  1  0
 80 79  1  0
 82 83  1  0
 83 86  1  0
 83 85  1  0
 84 82  2  0
 87 62  1  0
 87 88  1  0
 89 87  1  0
M  ISO  4   5 101   8 101  50 100  61 100
M  END
>  <TORSDO>  (42) 
F 17

>  <SCORE>  (42) 
-15.782

>  <name>  (42) 
41

>  <ligand_id>  (42) 
41

>  <original_smiles>  (42) 
[H]c1nc(Oc2c([H])c([H])c3c(c2[H])C([H])([H])N(C(=O)C([H])(N([H])C(=O)C([H])(N([H])C([H])([H])[H])C([H])([H])[H])C(C([H])([H])[H])(C([H])([H])[H])C([H])([H])[H])C([H])(C(=O)N([H])C2([H])c4c([H])c([H])c([H])c([H])c4C([H])([H])C([H])([H])C2([H])[H])C3([H])[H])c([H])c(C([H])([H])[H])c1C([H])([H])C1([H])C([H])([H])N(C(=O)N2C([H])([H])C([H])([H])C([H])([H])C([H])(n3nc(-c4c([H])c([H])c(Oc5c([H])c([H])c(F)c([H])c5F)c([H])c4[H])c(C(=O)N([H])[H])c3N([H])[H])C2([H])[H])C1([H])[H]

>  <smiles>  (42) 
[H]c1nc(Oc2c([H])c([H])c3c(c2[H])C([H])([H])N(C(=O)C([H])(N([H])C(=O)C([H])(N([H])C([H])([H])[H])C([H])([H])[H])C(C([H])([H])[H])(C([H])([H])[H])C([H])([H])[H])C([H])(C(=O)N([H])C2([H])c4c([H])c([H])c([H])c([H])c4C([H])([H])C([H])([H])C2([H])[H])C3([H])[H])c([H])c(C([H])([H])[H])c1C([H])([H])C1([H])C([H])([H])N(C(=O)N2C([H])([H])C([H])([H])C([H])([H])C([H])(n3nc(-c4c([H])c([H])c(Oc5c([H])c([H])c(F)c([H])c5F)c([H])c4[H])c(C(=O)N([H])[H])c3N([H])[H])C2([H])[H])C1([H])[H]

$$$$
42:0:0
     RDKit          3D

 89 97  0  0  1  0  0  0  0  0999 V2000
  -28.9270  -23.2280   18.5650 C   0  0  0  0  0  3  0  0  0  0  0  0
  -28.5950  -23.1910   19.9320 C   0  0  0  0  0  0  0  0  0  0  0  0
  -29.2460  -20.8960   18.4410 C   0  0  0  0  0  0  0  0  0  0  0  0
  -29.0280  -20.6840   19.8320 C   0  0  0  0  0  0  0  0  0  0  0  0
  -29.3840  -19.7500   17.4570 C   0  0  0  0  0  1  0  0  0  0  0  0
  -29.2410  -22.1200   17.8470 N   0  0  0  0  0  0  0  0  0  0  0  0
  -28.6660  -21.8830   20.5450 N   0  0  0  0  0  0  0  0  0  0  0  0
  -28.9610  -19.1080   20.4230 C   0  0  0  0  0  3  0  0  0  0  0  0
  -30.0000  -17.7740   20.1170 C   0  0  0  0  0  3  0  0  0  0  0  0
  -30.4830  -15.0190   20.2230 C   0  0  0  0  0  0  0  0  0  0  0  0
  -30.3690  -12.6550   19.2730 C   0  0  0  0  0  2  0  0  0  0  0  0
  -29.4270  -12.6180   18.0470 C   0  0  0  0  0  2  0  0  0  0  0  0
  -27.9670  -12.4030   18.4890 C   0  0  0  0  0  2  0  0  0  0  0  0
  -27.5770  -13.3030   19.6930 C   0  0  0  0  0  3  0  0  0  0  0  0
  -28.6430  -13.3120   20.8050 C   0  0  0  0  0  2  0  0  0  0  0  0
  -29.8980  -13.7460   20.1810 N   0  0  0  0  0  0  0  0  0  0  0  0
  -31.6790  -15.0790   19.9170 O   0  0  0  0  0  0  0  0  0  0  0  0
  -29.7090  -16.2170   20.3910 N   0  0  0  0  0  0  0  0  0  0  0  0
  -28.7470  -16.0240   20.6300 H   0  0  0  0  0  0  0  0  0  0  0  0
  -25.2080  -13.8640   20.4560 C   0  0  0  0  0  0  0  0  0  0  0  0
  -24.1510  -13.0820   20.8370 C   0  0  0  0  0  0  0  0  0  0  0  0
  -24.6220  -11.7330   20.7990 C   0  0  0  0  0  0  0  0  0  0  0  0
  -26.2500  -12.9900   20.2030 N   0  0  0  0  0  0  0  0  0  0  0  0
  -25.9090  -11.7050   20.4730 N   0  0  0  0  0  0  0  0  0  0  0  0
  -23.9030  -10.4670   20.9950 C   0  0  0  0  0  0  0  0  0  0  0  0
  -24.3380   -9.5070   21.9350 C   0  0  0  0  0  3  0  0  0  0  0  0
  -23.6160   -8.3080   22.1180 C   0  0  0  0  0  3  0  0  0  0  0  0
  -22.4480   -8.0590   21.3600 C   0  0  0  0  0  0  0  0  0  0  0  0
  -22.0330   -9.0070   20.4090 C   0  0  0  0  0  3  0  0  0  0  0  0
  -22.7550  -10.1990   20.2230 C   0  0  0  0  0  3  0  0  0  0  0  0
  -21.6980   -6.9110   21.4540 O   0  0  0  0  0  0  0  0  0  0  0  0
  -21.6400   -6.1810   22.6140 C   0  0  0  0  0  0  0  0  0  0  0  0
  -21.1870   -6.7440   23.8250 C   0  0  0  0  0  3  0  0  0  0  0  0
  -21.0790   -5.9410   24.9780 C   0  0  0  0  0  3  0  0  0  0  0  0
  -21.4110   -4.5760   24.9190 C   0  0  0  0  0  0  0  0  0  0  0  0
  -21.8560   -4.0110   23.7120 C   0  0  0  0  0  3  0  0  0  0  0  0
  -21.9680   -4.8100   22.5620 C   0  0  0  0  0  0  0  0  0  0  0  0
  -22.3800   -4.2570   21.3950 F   0  0  0  0  0  0  0  0  0  0  0  0
  -21.3010   -3.8020   26.0250 F   0  0  0  0  0  0  0  0  0  0  0  0
  -22.7540  -13.5530   21.1170 C   0  0  0  0  0  0  0  0  0  0  0  0
  -22.0350  -12.8510   21.9870 N   0  0  0  0  0  0  0  0  0  0  0  0
  -22.3090  -14.5770   20.6010 O   0  0  0  0  0  0  0  0  0  0  0  0
  -22.4090  -12.0220   22.4240 H   0  0  0  0  0  0  0  0  0  0  0  0
  -21.0960  -13.1450   22.2150 H   0  0  0  0  0  0  0  0  0  0  0  0
  -25.3630  -15.2340   20.2730 N   0  0  0  0  0  0  0  0  0  0  0  0
  -24.5930  -15.8860   20.3800 H   0  0  0  0  0  0  0  0  0  0  0  0
  -26.1870  -15.6590   19.8660 H   0  0  0  0  0  0  0  0  0  0  0  0
  -27.9840  -24.5900   20.6100 C   0  0  0  0  0  2  0  0  0  0  0  0
  -28.2530  -26.0940   20.2030 O   0  0  0  0  0  0  0  0  0  0  0  0
  -24.6310  -31.8510   23.2130 C   0  0  0  0  0  0  0  0  0  0  0  0
  -27.2110  -27.1040   20.2030 C   0  0  0  0  0  0  0  0  0  0  0  0
  -23.4370  -30.4490   21.5760 C   0  0  0  0  0  3  0  0  0  0  0  0
  -24.8900  -28.8730   20.1560 C   0  0  0  0  0  0  0  0  0  0  0  0
  -25.9940  -30.7180   21.4110 C   0  0  0  0  0  2  0  0  0  0  0  0
  -26.0720  -29.3180   20.7660 C   0  0  0  0  0  0  0  0  0  0  0  0
  -27.2370  -28.4530   20.7640 C   0  0  0  0  0  3  0  0  0  0  0  0
  -26.0050  -26.7740   19.5520 C   0  0  0  0  0  3  0  0  0  0  0  0
  -24.8730  -27.6170   19.5280 C   0  0  0  0  0  3  0  0  0  0  0  0
  -23.6640  -29.7730   20.1980 C   0  0  0  0  0  2  0  0  0  0  0  0
  -24.7070  -31.0300   22.1210 N   0  0  0  0  0  0  0  0  0  0  0  0
  -23.5440  -32.1300   23.7420 O   0  0  0  0  0  0  0  0  0  0  0  0
  -22.7570  -29.4410   22.5400 C   0  0  0  0  0  0  0  0  0  0  0  0
  -21.4270  -29.2770   22.4230 N   0  0  0  0  0  0  0  0  0  0  0  0
  -23.4310  -28.8100   23.3580 O   0  0  0  0  0  0  0  0  0  0  0  0
  -20.9380  -29.8400   21.7410 H   0  0  0  0  0  0  0  0  0  0  0  0
  -18.0440  -28.0820   22.9430 C   0  0  0  0  0  0  0  0  0  0  0  0
  -20.6060  -28.3420   23.1990 C   0  0  0  0  0  3  0  0  0  0  0  0
  -20.7020  -26.9080   22.6250 C   0  0  0  0  0  2  0  0  0  0  0  0
  -19.5950  -26.5870   21.6160 C   0  0  0  0  0  2  0  0  0  0  0  0
  -18.2150  -26.7340   22.2660 C   0  0  0  0  0  2  0  0  0  0  0  0
  -19.1660  -28.8440   23.3680 C   0  0  0  0  0  0  0  0  0  0  0  0
  -18.9470  -30.1060   23.9630 C   0  0  0  0  0  3  0  0  0  0  0  0
  -17.6410  -30.6030   24.1370 C   0  0  0  0  0  3  0  0  0  0  0  0
  -16.5360  -29.8390   23.7260 C   0  0  0  0  0  3  0  0  0  0  0  0
  -16.7390  -28.5800   23.1320 C   0  0  0  0  0  3  0  0  0  0  0  0
  -25.9040  -32.4950   23.8420 C   0  0  0  0  0  3  0  0  0  0  0  0
  -26.4140  -31.7310   25.1250 C   0  0  1  0  0  0  0  0  0  0  0  0
  -25.3150  -31.5010   26.1890 C   0  0  0  0  0  1  0  0  0  0  0  0
  -26.9950  -30.3490   24.7480 C   0  0  0  0  0  1  0  0  0  0  0  0
  -27.5640  -32.5290   25.7840 C   0  0  0  0  0  1  0  0  0  0  0  0
  -25.5840  -33.8950   24.1700 N   0  0  0  0  0  0  0  0  0  0  0  0
  -25.9170  -34.9510   23.4170 C   0  0  0  0  0  0  0  0  0  0  0  0
  -26.5870  -34.8510   22.3850 O   0  0  0  0  0  0  0  0  0  0  0  0
  -24.9810  -34.0440   24.9670 H   0  0  0  0  0  0  0  0  0  0  0  0
  -24.1900  -36.7510   23.0700 C   0  0  0  0  0  1  0  0  0  0  0  0
  -25.4330  -36.3420   23.8770 C   0  0  0  0  0  3  0  0  0  0  0  0
  -27.5690  -37.2290   24.7060 C   0  0  0  0  0  1  0  0  0  0  0  0
  -26.4650  -37.3950   23.7640 N   0  0  0  0  0  0  0  0  0  0  0  0
  -26.0590  -38.3150   23.9090 H   0  0  0  0  0  0  0  0  0  0  0  0
  1  2  1  0
  2  7  2  0
  2 48  1  0
  3  4  2  0
  4  8  1  0
  4  7  1  0
  5  3  1  0
  6  3  1  0
  6  1  2  0
  9 18  1  0
  9  8  2  0
 10 18  1  0
 11 16  1  0
 12 13  1  0
 12 11  1  0
 14 13  1  0
 14 23  1  0
 14 15  1  0
 16 10  1  0
 16 15  1  0
 17 10  2  0
 18 19  1  0
 20 21  2  0
 21 40  1  0
 22 21  1  0
 22 25  1  0
 23 20  1  0
 23 24  1  0
 24 22  2  0
 25 26  1  0
 26 27  2  0
 28 31  1  0
 28 27  1  0
 29 28  2  0
 30 29  1  0
 30 25  2  0
 31 32  1  0
 32 33  1  0
 33 34  2  0
 35 34  1  0
 35 39  1  0
 36 35  2  0
 37 32  2  0
 37 36  1  0
 38 37  1  0
 40 41  1  0
 41 44  1  0
 41 43  1  0
 42 40  2  0
 45 46  1  0
 45 20  1  0
 47 45  1  0
 49 48  1  0
 50 61  2  0
 51 49  1  0
 51 56  1  0
 52 60  1  0
 52 62  1  0
 53 59  1  0
 53 55  1  0
 54 60  1  0
 55 54  1  0
 56 55  2  0
 57 51  2  0
 58 57  1  0
 58 53  2  0
 59 52  1  0
 60 50  1  0
 62 64  2  0
 63 62  1  0
 65 63  1  0
 66 75  2  0
 66 71  1  0
 67 63  1  0
 67 71  1  0
 68 67  1  0
 69 70  1  0
 69 68  1  0
 70 66  1  0
 71 72  2  0
 72 73  1  0
 74 73  2  0
 75 74  1  0
 76 50  1  0
 76 81  1  0
 76 77  1  0
 77 80  1  1
 77 78  1  0
 79 77  1  0
 81 84  1  0
 82 86  1  0
 82 81  1  0
 83 82  2  0
 86 85  1  0
 88 86  1  0
 88 89  1  0
 88 87  1  0
M  ISO  4  10 100  18 100  48 101  49 101
M  END
>  <TORSDO>  (43) 
F 19

>  <SCORE>  (43) 
-14.927

>  <name>  (43) 
42

>  <ligand_id>  (43) 
42

>  <original_smiles>  (43) 
[H]c1nc(C([H])([H])[H])c(C([H])([H])C([H])([H])N([H])C(=O)N2C([H])([H])C([H])([H])C([H])([H])C([H])(n3nc(-c4c([H])c([H])c(Oc5c([H])c([H])c(F)c([H])c5F)c([H])c4[H])c(C(=O)N([H])[H])c3N([H])[H])C2([H])[H])nc1C([H])([H])Oc1c([H])c([H])c2c(c1[H])C([H])([H])N(C(=O)C([H])(N([H])C(=O)C([H])(N([H])C([H])([H])[H])C([H])([H])[H])C(C([H])([H])[H])(C([H])([H])[H])C([H])([H])[H])C([H])(C(=O)N([H])C1([H])c3c([H])c([H])c([H])c([H])c3C([H])([H])C([H])([H])C1([H])[H])C2([H])[H]

>  <smiles>  (43) 
[H]c1nc(C([H])([H])[H])c(C([H])([H])C([H])([H])N([H])C(=O)N2C([H])([H])C([H])([H])C([H])([H])C([H])(n3nc(-c4c([H])c([H])c(Oc5c([H])c([H])c(F)c([H])c5F)c([H])c4[H])c(C(=O)N([H])[H])c3N([H])[H])C2([H])[H])nc1C([H])([H])Oc1c([H])c([H])c2c(c1[H])C([H])([H])N(C(=O)C([H])(N([H])C(=O)C([H])(N([H])C([H])([H])[H])C([H])([H])[H])C(C([H])([H])[H])(C([H])([H])[H])C([H])([H])[H])C([H])(C(=O)N([H])C1([H])c3c([H])c([H])c([H])c([H])c3C([H])([H])C([H])([H])C1([H])[H])C2([H])[H]

$$$$
43:0:0
     RDKit          3D

 92101  0  0  1  0  0  0  0  0999 V2000
  -30.6510  -14.7210   20.4260 C   0  0  0  0  0  0  0  0  0  0  0  0
  -30.3540  -12.4720   19.4010 C   0  0  0  0  0  2  0  0  0  0  0  0
  -29.4460  -12.5930   18.1610 C   0  0  0  0  0  2  0  0  0  0  0  0
  -27.9720  -12.4060   18.5680 C   0  0  0  0  0  2  0  0  0  0  0  0
  -27.5870  -13.2810   19.7910 C   0  0  0  0  0  3  0  0  0  0  0  0
  -28.6360  -13.2190   20.9250 C   0  0  0  0  0  2  0  0  0  0  0  0
  -29.9410  -13.5410   20.3350 N   0  0  0  0  0  0  0  0  0  0  0  0
  -31.8550  -14.7120   20.1550 O   0  0  0  0  0  0  0  0  0  0  0  0
  -30.3570  -22.8750   19.2440 C   0  0  0  0  0  3  0  0  0  0  0  0
  -29.1130  -22.6790   19.8850 C   0  0  0  0  0  0  0  0  0  0  0  0
  -30.8990  -20.6330   19.4740 C   0  0  0  0  0  0  0  0  0  0  0  0
  -29.6770  -20.3510   20.1610 C   0  0  0  0  0  0  0  0  0  0  0  0
  -30.1240  -18.3760   21.7010 C   0  0  0  0  0  3  0  0  0  0  0  0
  -28.8010  -18.0450   19.6290 C   0  0  0  0  0  3  0  0  0  0  0  0
  -30.8300  -16.9920   21.4120 C   0  0  0  0  0  3  0  0  0  0  0  0
  -28.8590  -16.5000   20.0100 C   0  0  0  0  0  3  0  0  0  0  0  0
  -31.9090  -19.5730   19.0760 C   0  0  0  0  0  1  0  0  0  0  0  0
  -31.2380  -21.8700   19.0430 N   0  0  0  0  0  0  0  0  0  0  0  0
  -28.7840  -21.4050   20.3540 N   0  0  0  0  0  0  0  0  0  0  0  0
  -29.3710  -19.0030   20.5940 N   0  0  0  0  0  0  0  0  0  0  0  0
  -30.0330  -15.9340   20.7380 N   0  0  0  0  0  0  0  0  0  0  0  0
  -25.2070  -13.8970   20.5120 C   0  0  0  0  0  0  0  0  0  0  0  0
  -24.1360  -13.1310   20.8770 C   0  0  0  0  0  0  0  0  0  0  0  0
  -24.5920  -11.7770   20.8520 C   0  0  0  0  0  0  0  0  0  0  0  0
  -26.2460  -13.0070   20.2780 N   0  0  0  0  0  0  0  0  0  0  0  0
  -25.8850  -11.7300   20.5470 N   0  0  0  0  0  0  0  0  0  0  0  0
  -23.8610  -10.5200   21.0400 C   0  0  0  0  0  0  0  0  0  0  0  0
  -24.2830   -9.5540   21.9760 C   0  0  0  0  0  3  0  0  0  0  0  0
  -23.5530   -8.3610   22.1500 C   0  0  0  0  0  3  0  0  0  0  0  0
  -22.3840   -8.1280   21.3860 C   0  0  0  0  0  0  0  0  0  0  0  0
  -21.9830   -9.0820   20.4360 C   0  0  0  0  0  3  0  0  0  0  0  0
  -22.7150  -10.2670   20.2600 C   0  0  0  0  0  3  0  0  0  0  0  0
  -21.6210   -6.9910   21.4720 O   0  0  0  0  0  0  0  0  0  0  0  0
  -21.5540   -6.2540   22.6260 C   0  0  0  0  0  0  0  0  0  0  0  0
  -21.1160   -6.8140   23.8450 C   0  0  0  0  0  3  0  0  0  0  0  0
  -20.9970   -6.0020   24.9900 C   0  0  0  0  0  3  0  0  0  0  0  0
  -21.3060   -4.6310   24.9200 C   0  0  0  0  0  0  0  0  0  0  0  0
  -21.7410   -4.0720   23.7070 C   0  0  0  0  0  3  0  0  0  0  0  0
  -21.8640   -4.8800   22.5630 C   0  0  0  0  0  0  0  0  0  0  0  0
  -22.2620   -4.3310   21.3920 F   0  0  0  0  0  0  0  0  0  0  0  0
  -21.1830   -3.8510   26.0200 F   0  0  0  0  0  0  0  0  0  0  0  0
  -22.7400  -13.6180   21.1290 C   0  0  0  0  0  0  0  0  0  0  0  0
  -21.9930  -12.9350   21.9890 N   0  0  0  0  0  0  0  0  0  0  0  0
  -22.3180  -14.6470   20.5980 O   0  0  0  0  0  0  0  0  0  0  0  0
  -22.3400  -12.1120   22.4540 H   0  0  0  0  0  0  0  0  0  0  0  0
  -21.0560  -13.2510   22.1960 H   0  0  0  0  0  0  0  0  0  0  0  0
  -25.3700  -15.2680   20.3350 N   0  0  0  0  0  0  0  0  0  0  0  0
  -24.5940  -15.9110   20.4360 H   0  0  0  0  0  0  0  0  0  0  0  0
  -26.2100  -15.7160   20.0000 H   0  0  0  0  0  0  0  0  0  0  0  0
  -28.1400  -23.9290   19.8990 C   0  0  0  0  0  2  0  0  0  0  0  0
  -28.5710  -25.2190   20.7350 C   0  0  0  0  0  2  0  0  0  0  0  0
  -28.5160  -26.6030   20.2160 O   0  0  0  0  0  0  0  0  0  0  0  0
  -24.6510  -31.9020   23.2640 C   0  0  0  0  0  0  0  0  0  0  0  0
  -27.3500  -27.3620   20.2710 C   0  0  0  0  0  0  0  0  0  0  0  0
  -23.4820  -30.4780   21.6180 C   0  0  0  0  0  3  0  0  0  0  0  0
  -24.9640  -28.9210   20.2340 C   0  0  0  0  0  0  0  0  0  0  0  0
  -26.0190  -30.8260   21.4650 C   0  0  0  0  0  2  0  0  0  0  0  0
  -26.1220  -29.4450   20.8270 C   0  0  0  0  0  0  0  0  0  0  0  0
  -27.3200  -28.6790   20.8230 C   0  0  0  0  0  3  0  0  0  0  0  0
  -26.1690  -26.8700   19.6840 C   0  0  0  0  0  3  0  0  0  0  0  0
  -24.9890  -27.6370   19.6570 C   0  0  0  0  0  3  0  0  0  0  0  0
  -23.7180  -29.7780   20.2530 C   0  0  0  0  0  2  0  0  0  0  0  0
  -24.7350  -31.0870   22.1720 N   0  0  0  0  0  0  0  0  0  0  0  0
  -23.5570  -32.1780   23.7800 O   0  0  0  0  0  0  0  0  0  0  0  0
  -22.8180  -29.4660   22.5810 C   0  0  0  0  0  0  0  0  0  0  0  0
  -21.4920  -29.2900   22.4490 N   0  0  0  0  0  0  0  0  0  0  0  0
  -23.4940  -28.8400   23.4020 O   0  0  0  0  0  0  0  0  0  0  0  0
  -21.0060  -29.8500   21.7620 H   0  0  0  0  0  0  0  0  0  0  0  0
  -18.1100  -28.1090   22.9470 C   0  0  0  0  0  0  0  0  0  0  0  0
  -20.6700  -28.3520   23.2160 C   0  0  0  0  0  3  0  0  0  0  0  0
  -20.7620  -26.9220   22.6340 C   0  0  0  0  0  2  0  0  0  0  0  0
  -19.6580  -26.6120   21.6170 C   0  0  0  0  0  2  0  0  0  0  0  0
  -18.2790  -26.7620   22.2630 C   0  0  0  0  0  2  0  0  0  0  0  0
  -19.2330  -28.8620   23.3810 C   0  0  0  0  0  0  0  0  0  0  0  0
  -19.0230  -30.1230   23.9810 C   0  0  0  0  0  3  0  0  0  0  0  0
  -17.7220  -30.6340   24.1450 C   0  0  0  0  0  3  0  0  0  0  0  0
  -16.6140  -29.8770   23.7260 C   0  0  0  0  0  3  0  0  0  0  0  0
  -16.8080  -28.6160   23.1360 C   0  0  0  0  0  3  0  0  0  0  0  0
  -25.9200  -32.5490   23.9040 C   0  0  0  0  0  3  0  0  0  0  0  0
  -25.5930  -33.9470   24.2140 N   0  0  0  0  0  0  0  0  0  0  0  0
  -25.9280  -34.9950   23.4480 C   0  0  0  0  0  0  0  0  0  0  0  0
  -26.6090  -34.8850   22.4250 O   0  0  0  0  0  0  0  0  0  0  0  0
  -24.9830  -34.1070   25.0010 H   0  0  0  0  0  0  0  0  0  0  0  0
  -24.1840  -36.7670   23.0760 C   0  0  0  0  0  1  0  0  0  0  0  0
  -25.4300  -36.3830   23.8920 C   0  0  0  0  0  3  0  0  0  0  0  0
  -27.5550  -37.2980   24.7110 C   0  0  0  0  0  1  0  0  0  0  0  0
  -26.4520  -37.4450   23.7640 N   0  0  0  0  0  0  0  0  0  0  0  0
  -26.0370  -38.3630   23.8980 H   0  0  0  0  0  0  0  0  0  0  0  0
  -26.4170  -31.7970   25.1990 C   0  0  1  0  0  0  0  0  0  0  0  0
  -25.3050  -31.5710   26.2500 C   0  0  0  0  0  1  0  0  0  0  0  0
  -27.0120  -30.4180   24.8360 C   0  0  0  0  0  1  0  0  0  0  0  0
  -27.5520  -32.6050   25.8720 C   0  0  0  0  0  1  0  0  0  0  0  0
  1 21  1  0
  2  7  1  0
  3  4  1  0
  3  2  1  0
  5  4  1  0
  5 25  1  0
  5  6  1  0
  7  1  1  0
  7  6  1  0
  8  1  2  0
  9 10  1  0
 10 50  1  0
 10 19  2  0
 11 12  2  0
 12 19  1  0
 12 20  1  0
 14 16  2  0
 14 20  1  0
 15 13  2  0
 16 21  1  0
 17 11  1  0
 18  9  2  0
 18 11  1  0
 20 13  1  0
 21 15  1  0
 22 23  2  0
 23 42  1  0
 24 23  1  0
 24 27  1  0
 25 22  1  0
 25 26  1  0
 26 24  2  0
 27 28  1  0
 28 29  2  0
 30 33  1  0
 30 29  1  0
 31 30  2  0
 32 31  1  0
 32 27  2  0
 33 34  1  0
 34 35  1  0
 35 36  2  0
 37 36  1  0
 37 41  1  0
 38 37  2  0
 39 34  2  0
 39 38  1  0
 40 39  1  0
 42 43  1  0
 43 46  1  0
 43 45  1  0
 44 42  2  0
 47 48  1  0
 47 22  1  0
 49 47  1  0
 50 51  1  0
 52 54  1  0
 52 51  1  0
 53 64  2  0
 54 59  1  0
 55 63  1  0
 55 65  1  0
 56 62  1  0
 56 58  1  0
 57 63  1  0
 58 57  1  0
 59 58  2  0
 60 54  2  0
 61 60  1  0
 61 56  2  0
 62 55  1  0
 63 53  1  0
 65 67  2  0
 66 65  1  0
 68 66  1  0
 69 78  2  0
 69 74  1  0
 70 66  1  0
 70 74  1  0
 71 70  1  0
 72 73  1  0
 72 71  1  0
 73 69  1  0
 74 75  2  0
 75 76  1  0
 77 76  2  0
 78 77  1  0
 79 53  1  0
 79 80  1  0
 79 89  1  0
 80 83  1  0
 81 85  1  0
 81 80  1  0
 82 81  2  0
 85 84  1  0
 87 85  1  0
 87 88  1  0
 87 86  1  0
 89 92  1  1
 89 90  1  0
 91 89  1  0
M  ISO  4   1 100  21 100  51 101  52 101
M  END
>  <TORSDO>  (44) 
F 17

>  <SCORE>  (44) 
-15.101

>  <name>  (44) 
43

>  <ligand_id>  (44) 
43

>  <original_smiles>  (44) 
[H]c1nc(C([H])([H])[H])c(N2C([H])([H])C([H])([H])N(C(=O)N3C([H])([H])C([H])([H])C([H])([H])C([H])(n4nc(-c5c([H])c([H])c(Oc6c([H])c([H])c(F)c([H])c6F)c([H])c5[H])c(C(=O)N([H])[H])c4N([H])[H])C3([H])[H])C([H])([H])C2([H])[H])nc1C([H])([H])C([H])([H])Oc1c([H])c([H])c2c(c1[H])C([H])([H])N(C(=O)C([H])(N([H])C(=O)C([H])(N([H])C([H])([H])[H])C([H])([H])[H])C(C([H])([H])[H])(C([H])([H])[H])C([H])([H])[H])C([H])(C(=O)N([H])C1([H])c3c([H])c([H])c([H])c([H])c3C([H])([H])C([H])([H])C1([H])[H])C2([H])[H]

>  <smiles>  (44) 
[H]c1nc(C([H])([H])[H])c(N2C([H])([H])C([H])([H])N(C(=O)N3C([H])([H])C([H])([H])C([H])([H])C([H])(n4nc(-c5c([H])c([H])c(Oc6c([H])c([H])c(F)c([H])c6F)c([H])c5[H])c(C(=O)N([H])[H])c4N([H])[H])C3([H])[H])C([H])([H])C2([H])[H])nc1C([H])([H])C([H])([H])Oc1c([H])c([H])c2c(c1[H])C([H])([H])N(C(=O)C([H])(N([H])C(=O)C([H])(N([H])C([H])([H])[H])C([H])([H])[H])C(C([H])([H])[H])(C([H])([H])[H])C([H])([H])[H])C([H])(C(=O)N([H])C1([H])c3c([H])c([H])c([H])c([H])c3C([H])([H])C([H])([H])C1([H])[H])C2([H])[H]

$$$$
44:0:0
     RDKit          3D

 87 96  0  0  1  0  0  0  0  0999 V2000
  -30.3520  -15.6420   20.3170 C   0  0  0  0  0  0  0  0  0  0  0  0
  -30.3900  -13.1000   19.5210 C   0  0  0  0  0  2  0  0  0  0  0  0
  -29.5290  -12.6710   18.3040 C   0  0  0  0  0  2  0  0  0  0  0  0
  -28.1000  -12.3280   18.7450 C   0  0  0  0  0  2  0  0  0  0  0  0
  -27.5700  -13.3500   19.7760 C   0  0  0  0  0  3  0  0  0  0  0  0
  -28.5790  -13.7070   20.8940 C   0  0  0  0  0  2  0  0  0  0  0  0
  -29.7570  -14.3090   20.2270 N   0  0  0  0  0  0  0  0  0  0  0  0
  -31.5860  -15.4870   20.2020 O   0  0  0  0  0  0  0  0  0  0  0  0
  -29.8590  -21.3660   20.0500 C   0  0  0  0  0  3  0  0  0  0  0  0
  -28.5970  -22.0980   20.1700 C   0  0  0  0  0  0  0  0  0  0  0  0
  -28.5440  -19.5710   20.3370 C   0  0  0  0  0  0  0  0  0  0  0  0
  -28.4180  -17.9130   20.4410 C   0  0  0  0  0  3  0  0  0  0  0  0
  -30.5940  -18.4830   20.1250 C   0  0  0  0  0  2  0  0  0  0  0  0
  -29.7740  -19.8870   20.1570 N   0  0  0  0  0  0  0  0  0  0  0  0
  -27.8490  -20.8290   20.3480 N   0  0  0  0  0  0  0  0  0  0  0  0
  -29.7860  -17.1030   20.2900 N   0  0  0  0  0  0  0  0  0  0  0  0
  -26.8420  -20.8470   20.4570 H   0  0  0  0  0  0  0  0  0  0  0  0
  -25.1980  -13.8770   20.5030 C   0  0  0  0  0  0  0  0  0  0  0  0
  -24.1360  -13.0940   20.8570 C   0  0  0  0  0  0  0  0  0  0  0  0
  -24.6140  -11.7470   20.8460 C   0  0  0  0  0  0  0  0  0  0  0  0
  -26.2500  -13.0100   20.2830 N   0  0  0  0  0  0  0  0  0  0  0  0
  -25.9140  -11.7220   20.5590 N   0  0  0  0  0  0  0  0  0  0  0  0
  -23.8900  -10.4830   21.0310 C   0  0  0  0  0  0  0  0  0  0  0  0
  -24.3070   -9.5220   21.9790 C   0  0  0  0  0  3  0  0  0  0  0  0
  -23.5780   -8.3260   22.1550 C   0  0  0  0  0  3  0  0  0  0  0  0
  -22.4170   -8.0810   21.3830 C   0  0  0  0  0  0  0  0  0  0  0  0
  -22.0200   -9.0290   20.4240 C   0  0  0  0  0  3  0  0  0  0  0  0
  -22.7500  -10.2160   20.2470 C   0  0  0  0  0  3  0  0  0  0  0  0
  -21.6620   -6.9370   21.4680 O   0  0  0  0  0  0  0  0  0  0  0  0
  -21.5930   -6.2030   22.6260 C   0  0  0  0  0  0  0  0  0  0  0  0
  -21.1510   -6.7690   23.8410 C   0  0  0  0  0  3  0  0  0  0  0  0
  -21.0290   -5.9620   24.9900 C   0  0  0  0  0  3  0  0  0  0  0  0
  -21.3390   -4.5910   24.9240 C   0  0  0  0  0  0  0  0  0  0  0  0
  -21.7740   -4.0240   23.7130 C   0  0  0  0  0  3  0  0  0  0  0  0
  -21.8970   -4.8280   22.5670 C   0  0  0  0  0  0  0  0  0  0  0  0
  -22.2960   -4.2720   21.3970 F   0  0  0  0  0  0  0  0  0  0  0  0
  -21.2160   -3.8140   26.0270 F   0  0  0  0  0  0  0  0  0  0  0  0
  -22.7310  -13.5660   21.0880 C   0  0  0  0  0  0  0  0  0  0  0  0
  -21.9910  -12.8820   21.9510 N   0  0  0  0  0  0  0  0  0  0  0  0
  -22.3000  -14.5780   20.5370 O   0  0  0  0  0  0  0  0  0  0  0  0
  -22.3540  -12.0640   22.4190 H   0  0  0  0  0  0  0  0  0  0  0  0
  -21.0460  -13.1810   22.1510 H   0  0  0  0  0  0  0  0  0  0  0  0
  -25.3530  -15.2480   20.3150 N   0  0  0  0  0  0  0  0  0  0  0  0
  -24.5760  -15.8940   20.3970 H   0  0  0  0  0  0  0  0  0  0  0  0
  -26.1980  -15.6820   19.9690 H   0  0  0  0  0  0  0  0  0  0  0  0
  -27.8510  -23.8120   20.0000 C   0  0  0  0  0  2  0  0  0  0  0  0
  -28.1620  -25.5240   20.1970 O   0  0  0  0  0  0  0  0  0  0  0  0
  -24.7100  -31.8200   23.1450 C   0  0  0  0  0  0  0  0  0  0  0  0
  -27.2100  -26.7490   20.1370 C   0  0  0  0  0  0  0  0  0  0  0  0
  -23.5110  -30.4260   21.5140 C   0  0  0  0  0  3  0  0  0  0  0  0
  -24.9480  -28.7810   20.0910 C   0  0  0  0  0  0  0  0  0  0  0  0
  -26.0890  -30.5670   21.3780 C   0  0  0  0  0  2  0  0  0  0  0  0
  -26.1470  -29.1360   20.7200 C   0  0  0  0  0  0  0  0  0  0  0  0
  -27.2630  -28.1480   20.7120 C   0  0  0  0  0  3  0  0  0  0  0  0
  -25.9780  -26.6050   19.4500 C   0  0  0  0  0  3  0  0  0  0  0  0
  -24.9010  -27.5420   19.4320 C   0  0  0  0  0  3  0  0  0  0  0  0
  -23.7410  -29.7320   20.1410 C   0  0  0  0  0  2  0  0  0  0  0  0
  -24.7940  -30.9700   22.0650 N   0  0  0  0  0  0  0  0  0  0  0  0
  -23.6200  -32.1220   23.6610 O   0  0  0  0  0  0  0  0  0  0  0  0
  -22.7980  -29.4480   22.4870 C   0  0  0  0  0  0  0  0  0  0  0  0
  -21.4630  -29.3050   22.3770 N   0  0  0  0  0  0  0  0  0  0  0  0
  -23.4590  -28.8160   23.3150 O   0  0  0  0  0  0  0  0  0  0  0  0
  -20.9800  -29.8650   21.6890 H   0  0  0  0  0  0  0  0  0  0  0  0
  -18.0720  -28.1220   22.9270 C   0  0  0  0  0  0  0  0  0  0  0  0
  -20.6370  -28.3720   23.1550 C   0  0  0  0  0  3  0  0  0  0  0  0
  -20.7200  -26.9410   22.5750 C   0  0  0  0  0  2  0  0  0  0  0  0
  -19.6030  -26.6310   21.5730 C   0  0  0  0  0  2  0  0  0  0  0  0
  -18.2310  -26.7780   22.2360 C   0  0  0  0  0  2  0  0  0  0  0  0
  -19.2000  -28.8780   23.3440 C   0  0  0  0  0  0  0  0  0  0  0  0
  -18.9930  -30.1330   23.9570 C   0  0  0  0  0  3  0  0  0  0  0  0
  -17.6920  -30.6330   24.1510 C   0  0  0  0  0  3  0  0  0  0  0  0
  -16.5790  -29.8770   23.7470 C   0  0  0  0  0  3  0  0  0  0  0  0
  -16.7700  -28.6220   23.1410 C   0  0  0  0  0  3  0  0  0  0  0  0
  -25.9780  -32.4680   23.7790 C   0  0  0  0  0  3  0  0  0  0  0  0
  -25.6510  -33.8610   24.1410 N   0  0  0  0  0  0  0  0  0  0  0  0
  -25.9650  -34.9430   23.4140 C   0  0  0  0  0  0  0  0  0  0  0  0
  -26.6160  -34.8720   22.3700 O   0  0  0  0  0  0  0  0  0  0  0  0
  -25.0670  -33.9870   24.9550 H   0  0  0  0  0  0  0  0  0  0  0  0
  -24.2140  -36.7390   23.1620 C   0  0  0  0  0  1  0  0  0  0  0  0
  -25.4830  -36.3190   23.9230 C   0  0  0  0  0  3  0  0  0  0  0  0
  -27.6340  -37.2050   24.7130 C   0  0  0  0  0  1  0  0  0  0  0  0
  -26.5030  -37.3840   23.8050 N   0  0  0  0  0  0  0  0  0  0  0  0
  -26.0940  -38.2960   23.9850 H   0  0  0  0  0  0  0  0  0  0  0  0
  -26.4960  -31.6920   25.0540 C   0  0  1  0  0  0  0  0  0  0  0  0
  -25.4040  -31.4510   26.1240 C   0  0  0  0  0  1  0  0  0  0  0  0
  -27.0780  -30.3140   24.6680 C   0  0  0  0  0  1  0  0  0  0  0  0
  -27.6490  -32.4840   25.7160 C   0  0  0  0  0  1  0  0  0  0  0  0
  2  7  1  0
  3  4  1  0
  3  2  1  0
  5  4  1  0
  5 21  1  0
  5  6  1  0
  7  1  1  0
  7  6  1  0
  8  1  2  0
  9 14  1  0
  9 10  2  0
 10 15  1  0
 11 15  1  0
 11 12  2  0
 13 14  1  0
 13 16  1  0
 14 11  1  0
 15 17  1  0
 16  1  1  0
 16 12  1  0
 18 19  2  0
 19 38  1  0
 20 19  1  0
 20 23  1  0
 21 18  1  0
 21 22  1  0
 22 20  2  0
 23 24  1  0
 24 25  2  0
 26 29  1  0
 26 25  1  0
 27 26  2  0
 28 27  1  0
 28 23  2  0
 29 30  1  0
 30 31  1  0
 31 32  2  0
 33 32  1  0
 33 37  1  0
 34 33  2  0
 35 30  2  0
 35 34  1  0
 36 35  1  0
 38 39  1  0
 39 42  1  0
 39 41  1  0
 40 38  2  0
 43 44  1  0
 43 18  1  0
 45 43  1  0
 46 10  1  0
 46 47  1  0
 48 59  2  0
 49 47  1  0
 49 54  1  0
 50 58  1  0
 50 60  1  0
 51 57  1  0
 51 53  1  0
 52 58  1  0
 53 52  1  0
 54 53  2  0
 55 49  2  0
 56 55  1  0
 56 51  2  0
 57 50  1  0
 58 48  1  0
 60 62  2  0
 61 60  1  0
 63 61  1  0
 64 73  2  0
 64 69  1  0
 65 61  1  0
 65 69  1  0
 66 65  1  0
 67 68  1  0
 67 66  1  0
 68 64  1  0
 69 70  2  0
 70 71  1  0
 72 71  2  0
 73 72  1  0
 74 48  1  0
 74 75  1  0
 74 84  1  0
 75 78  1  0
 76 80  1  0
 76 75  1  0
 77 76  2  0
 80 79  1  0
 82 80  1  0
 82 83  1  0
 82 81  1  0
 84 87  1  1
 84 85  1  0
 86 84  1  0
M  ISO  4   1 100  16 100  46 101  47 101
M  END
>  <TORSDO>  (45) 
F 16

>  <SCORE>  (45) 
-16.747

>  <name>  (45) 
44

>  <ligand_id>  (45) 
44

>  <original_smiles>  (45) 
[H]c1c([H])c([H])c2c(c1[H])C([H])([H])C([H])([H])C([H])([H])C2([H])N([H])C(=O)C1([H])N(C(=O)C([H])(N([H])C(=O)C([H])(N([H])C([H])([H])[H])C([H])([H])[H])C(C([H])([H])[H])(C([H])([H])[H])C([H])([H])[H])C([H])([H])c2c([H])c(OC([H])([H])c3c([H])n4c([n+]3[H])C([H])([H])N(C(=O)N3C([H])([H])C([H])([H])C([H])([H])C([H])(n5nc(-c6c([H])c([H])c(Oc7c([H])c([H])c(F)c([H])c7F)c([H])c6[H])c(C(=O)N([H])[H])c5N([H])[H])C3([H])[H])C4([H])[H])c([H])c([H])c2C1([H])[H]

>  <smiles>  (45) 
[H]c1c([H])c([H])c2c(c1[H])C([H])([H])C([H])([H])C([H])([H])C2([H])N([H])C(=O)C1([H])N(C(=O)C([H])(N([H])C(=O)C([H])(N([H])C([H])([H])[H])C([H])([H])[H])C(C([H])([H])[H])(C([H])([H])[H])C([H])([H])[H])C([H])([H])c2c([H])c(OC([H])([H])c3c([H])n4c([n+]3[H])C([H])([H])N(C(=O)N3C([H])([H])C([H])([H])C([H])([H])C([H])(n5nc(-c6c([H])c([H])c(Oc7c([H])c([H])c(F)c([H])c7F)c([H])c6[H])c(C(=O)N([H])[H])c5N([H])[H])C3([H])[H])C4([H])[H])c([H])c([H])c2C1([H])[H]

$$$$
45:0:0
     RDKit          3D

 90 99  0  0  1  0  0  0  0  0999 V2000
  -29.8050  -22.1270   18.4780 C   0  0  0  0  0  3  0  0  0  0  0  0
  -28.3900  -20.1850   19.6330 C   0  0  0  0  0  0  0  0  0  0  0  0
  -28.6560  -22.6600   19.1990 C   0  0  0  0  0  0  0  0  0  0  0  0
  -29.5560  -19.6640   18.9160 C   0  0  0  0  0  0  0  0  0  0  0  0
  -30.2250  -20.7670   18.3700 N   0  0  0  0  0  0  0  0  0  0  0  0
  -27.9800  -21.5550   19.7400 N   0  0  0  0  0  0  0  0  0  0  0  0
  -27.2020  -17.8600   19.8540 C   0  0  0  0  0  2  0  0  0  0  0  0
  -26.1190  -18.9060   19.9030 C   0  0  0  0  0  2  0  0  0  0  0  0
  -27.5110  -19.2400   20.3950 C   0  0  0  0  0  3  0  0  0  0  0  0
  -30.3270  -18.0950   18.9730 C   0  0  0  0  0  2  0  0  0  0  0  0
  -30.6710  -15.2290   19.1380 C   0  0  0  0  0  0  0  0  0  0  0  0
  -30.5590  -12.7250   18.4960 C   0  0  0  0  0  2  0  0  0  0  0  0
  -29.5080  -12.4150   17.4010 C   0  0  0  0  0  2  0  0  0  0  0  0
  -28.1210  -12.1910   18.0270 C   0  0  0  0  0  2  0  0  0  0  0  0
  -27.7910  -13.2510   19.1080 C   0  0  0  0  0  3  0  0  0  0  0  0
  -28.9600  -13.4990   20.0850 C   0  0  0  0  0  2  0  0  0  0  0  0
  -30.1040  -13.9340   19.2700 N   0  0  0  0  0  0  0  0  0  0  0  0
  -31.8590  -15.2050   18.7870 O   0  0  0  0  0  0  0  0  0  0  0  0
  -29.9290  -16.5030   19.1970 N   0  0  0  0  0  0  0  0  0  0  0  0
  -28.9570  -16.3720   19.4290 H   0  0  0  0  0  0  0  0  0  0  0  0
  -25.5930  -13.8880   20.2310 C   0  0  0  0  0  0  0  0  0  0  0  0
  -24.5520  -13.1470   20.7150 C   0  0  0  0  0  0  0  0  0  0  0  0
  -24.9300  -11.7780   20.5510 C   0  0  0  0  0  0  0  0  0  0  0  0
  -26.5360  -12.9750   19.7940 N   0  0  0  0  0  0  0  0  0  0  0  0
  -26.1600  -11.6960   20.0520 N   0  0  0  0  0  0  0  0  0  0  0  0
  -24.1660  -10.5450   20.7840 C   0  0  0  0  0  0  0  0  0  0  0  0
  -24.5990   -9.5690   21.7070 C   0  0  0  0  0  3  0  0  0  0  0  0
  -23.8340   -8.4030   21.9290 C   0  0  0  0  0  3  0  0  0  0  0  0
  -22.6200   -8.2070   21.2300 C   0  0  0  0  0  0  0  0  0  0  0  0
  -22.2030   -9.1720   20.2960 C   0  0  0  0  0  3  0  0  0  0  0  0
  -22.9690  -10.3290   20.0720 C   0  0  0  0  0  3  0  0  0  0  0  0
  -21.8240   -7.0950   21.3630 O   0  0  0  0  0  0  0  0  0  0  0  0
  -21.7060   -6.4340   22.5590 C   0  0  0  0  0  0  0  0  0  0  0  0
  -21.2450   -7.0810   23.7260 C   0  0  0  0  0  3  0  0  0  0  0  0
  -21.0730   -6.3460   24.9170 C   0  0  0  0  0  3  0  0  0  0  0  0
  -21.3500   -4.9670   24.9400 C   0  0  0  0  0  0  0  0  0  0  0  0
  -21.8020   -4.3190   23.7770 C   0  0  0  0  0  3  0  0  0  0  0  0
  -21.9760   -5.0500   22.5890 C   0  0  0  0  0  0  0  0  0  0  0  0
  -22.3920   -4.4180   21.4660 F   0  0  0  0  0  0  0  0  0  0  0  0
  -21.1770   -4.2590   26.0820 F   0  0  0  0  0  0  0  0  0  0  0  0
  -23.2380  -13.6790   21.2060 C   0  0  0  0  0  0  0  0  0  0  0  0
  -22.6170  -12.9930   22.1580 N   0  0  0  0  0  0  0  0  0  0  0  0
  -22.7790  -14.7370   20.7790 O   0  0  0  0  0  0  0  0  0  0  0  0
  -23.0050  -12.1350   22.5220 H   0  0  0  0  0  0  0  0  0  0  0  0
  -21.7400  -13.3300   22.5300 H   0  0  0  0  0  0  0  0  0  0  0  0
  -25.8060  -15.2570   20.0940 N   0  0  0  0  0  0  0  0  0  0  0  0
  -25.0930  -15.9360   20.3390 H   0  0  0  0  0  0  0  0  0  0  0  0
  -26.5960  -15.6670   19.6170 H   0  0  0  0  0  0  0  0  0  0  0  0
  -27.9250  -24.2400   19.0300 C   0  0  0  0  0  2  0  0  0  0  0  0
  -28.1830  -25.7580   19.5860 O   0  0  0  0  0  0  0  0  0  0  0  0
  -24.4680  -31.3930   22.9430 C   0  0  0  0  0  0  0  0  0  0  0  0
  -27.1530  -26.8340   19.5880 C   0  0  0  0  0  0  0  0  0  0  0  0
  -23.3050  -30.0710   21.2240 C   0  0  0  0  0  3  0  0  0  0  0  0
  -24.7930  -28.6220   19.6850 C   0  0  0  0  0  0  0  0  0  0  0  0
  -25.8610  -30.3830   21.0740 C   0  0  0  0  0  2  0  0  0  0  0  0
  -25.9730  -29.0260   20.3240 C   0  0  0  0  0  0  0  0  0  0  0  0
  -27.1480  -28.1530   20.2540 C   0  0  0  0  0  3  0  0  0  0  0  0
  -25.9400  -26.5840   18.9080 C   0  0  0  0  0  3  0  0  0  0  0  0
  -24.8000  -27.4240   18.9580 C   0  0  0  0  0  3  0  0  0  0  0  0
  -23.5440  -29.4930   19.8030 C   0  0  0  0  0  2  0  0  0  0  0  0
  -24.5660  -30.6390   21.8030 N   0  0  0  0  0  0  0  0  0  0  0  0
  -23.3760  -31.6110   23.4910 O   0  0  0  0  0  0  0  0  0  0  0  0
  -22.6550  -28.9890   22.1240 C   0  0  0  0  0  0  0  0  0  0  0  0
  -21.3240  -28.8130   22.0230 N   0  0  0  0  0  0  0  0  0  0  0  0
  -23.3520  -28.3110   22.8820 O   0  0  0  0  0  0  0  0  0  0  0  0
  -20.8120  -29.4130   21.3920 H   0  0  0  0  0  0  0  0  0  0  0  0
  -17.9640  -27.5690   22.5940 C   0  0  0  0  0  0  0  0  0  0  0  0
  -20.5370  -27.8040   22.7410 C   0  0  0  0  0  3  0  0  0  0  0  0
  -20.5960  -26.4370   22.0210 C   0  0  0  0  0  2  0  0  0  0  0  0
  -19.4380  -26.2200   21.0420 C   0  0  0  0  0  2  0  0  0  0  0  0
  -18.0940  -26.2970   21.7740 C   0  0  0  0  0  2  0  0  0  0  0  0
  -19.1100  -28.2850   23.0350 C   0  0  0  0  0  0  0  0  0  0  0  0
  -18.9290  -29.4770   23.7690 C   0  0  0  0  0  3  0  0  0  0  0  0
  -17.6370  -29.9550   24.0630 C   0  0  0  0  0  3  0  0  0  0  0  0
  -16.5080  -29.2360   23.6350 C   0  0  0  0  0  3  0  0  0  0  0  0
  -16.6730  -28.0440   22.9070 C   0  0  0  0  0  3  0  0  0  0  0  0
  -25.7250  -32.0340   23.6090 C   0  0  0  0  0  3  0  0  0  0  0  0
  -26.2240  -31.2400   24.8780 C   0  0  1  0  0  0  0  0  0  0  0  0
  -25.1140  -30.9630   25.9200 C   0  0  0  0  0  1  0  0  0  0  0  0
  -26.8350  -29.8780   24.4750 C   0  0  0  0  0  1  0  0  0  0  0  0
  -27.3510  -32.0340   25.5810 C   0  0  0  0  0  1  0  0  0  0  0  0
  -25.3840  -33.4180   23.9780 N   0  0  0  0  0  0  0  0  0  0  0  0
  -25.7210  -34.5070   23.2740 C   0  0  0  0  0  0  0  0  0  0  0  0
  -26.4130  -34.4500   22.2550 O   0  0  0  0  0  0  0  0  0  0  0  0
  -24.7690  -33.5340   24.7700 H   0  0  0  0  0  0  0  0  0  0  0  0
  -23.9850  -36.3030   22.9560 C   0  0  0  0  0  1  0  0  0  0  0  0
  -25.2110  -35.8740   23.7760 C   0  0  0  0  0  3  0  0  0  0  0  0
  -27.3160  -36.7460   24.6930 C   0  0  0  0  0  1  0  0  0  0  0  0
  -26.2360  -36.9400   23.7290 N   0  0  0  0  0  0  0  0  0  0  0  0
  -25.8170  -37.8500   23.9020 H   0  0  0  0  0  0  0  0  0  0  0  0
  1  3  1  0
  2  6  1  0
  2  9  1  0
  3  6  2  0
  4 10  1  0
  4  2  2  0
  5  1  2  0
  5  4  1  0
  7  8  1  0
  7  9  1  0
  8  9  1  0
 10 19  1  0
 11 19  1  0
 11 17  1  0
 12 17  1  0
 13 14  1  0
 13 12  1  0
 15 14  1  0
 15 24  1  0
 15 16  1  0
 17 16  1  0
 18 11  2  0
 19 20  1  0
 21 22  2  0
 22 41  1  0
 23 22  1  0
 23 26  1  0
 24 25  1  0
 24 21  1  0
 25 23  2  0
 26 27  1  0
 27 28  2  0
 29 32  1  0
 29 28  1  0
 30 29  2  0
 31 30  1  0
 31 26  2  0
 32 33  1  0
 33 38  2  0
 33 34  1  0
 34 35  2  0
 35 36  1  0
 36 40  1  0
 37 36  2  0
 38 37  1  0
 39 38  1  0
 41 42  1  0
 42 44  1  0
 42 45  1  0
 43 41  2  0
 46 21  1  0
 46 47  1  0
 48 46  1  0
 49  3  1  0
 49 50  1  0
 50 52  1  0
 51 62  2  0
 52 57  1  0
 53 61  1  0
 53 63  1  0
 54 60  1  0
 54 56  1  0
 55 61  1  0
 56 55  1  0
 57 56  2  0
 58 59  1  0
 58 52  2  0
 59 54  2  0
 60 53  1  0
 61 51  1  0
 63 65  2  0
 64 63  1  0
 66 64  1  0
 67 76  2  0
 67 72  1  0
 68 64  1  0
 68 72  1  0
 69 68  1  0
 70 71  1  0
 70 69  1  0
 71 67  1  0
 72 73  2  0
 73 74  1  0
 75 74  2  0
 76 75  1  0
 77 51  1  0
 77 82  1  0
 77 78  1  0
 78 81  1  1
 78 79  1  0
 80 78  1  0
 82 85  1  0
 83 87  1  0
 83 82  1  0
 84 83  2  0
 87 86  1  0
 89 87  1  0
 89 90  1  0
 89 88  1  0
M  ISO  4  11 100  19 100  49 101  50 101
M  END
>  <TORSDO>  (46) 
F 19

>  <SCORE>  (46) 
-12.831

>  <name>  (46) 
45

>  <ligand_id>  (46) 
45

>  <original_smiles>  (46) 
[H]c1nc(C([H])([H])N([H])C(=O)N2C([H])([H])C([H])([H])C([H])([H])C([H])(n3nc(-c4c([H])c([H])c(Oc5c([H])c([H])c(F)c([H])c5F)c([H])c4[H])c(C(=O)N([H])[H])c3N([H])[H])C2([H])[H])c(C2([H])C([H])([H])C2([H])[H])nc1C([H])([H])Oc1c([H])c([H])c2c(c1[H])C([H])([H])N(C(=O)C([H])(N([H])C(=O)C([H])(N([H])C([H])([H])[H])C([H])([H])[H])C(C([H])([H])[H])(C([H])([H])[H])C([H])([H])[H])C([H])(C(=O)N([H])C1([H])c3c([H])c([H])c([H])c([H])c3C([H])([H])C([H])([H])C1([H])[H])C2([H])[H]

>  <smiles>  (46) 
[H]c1nc(C([H])([H])N([H])C(=O)N2C([H])([H])C([H])([H])C([H])([H])C([H])(n3nc(-c4c([H])c([H])c(Oc5c([H])c([H])c(F)c([H])c5F)c([H])c4[H])c(C(=O)N([H])[H])c3N([H])[H])C2([H])[H])c(C2([H])C([H])([H])C2([H])[H])nc1C([H])([H])Oc1c([H])c([H])c2c(c1[H])C([H])([H])N(C(=O)C([H])(N([H])C(=O)C([H])(N([H])C([H])([H])[H])C([H])([H])[H])C(C([H])([H])[H])(C([H])([H])[H])C([H])([H])[H])C([H])(C(=O)N([H])C1([H])c3c([H])c([H])c([H])c([H])c3C([H])([H])C([H])([H])C1([H])[H])C2([H])[H]

$$$$
46:0:0
     RDKit          3D

 90 99  0  0  1  0  0  0  0  0999 V2000
  -29.5670  -20.5200   20.3360 C   0  0  0  0  0  0  0  0  0  0  0  0
  -30.9100  -20.9910   20.4200 C   0  0  0  0  0  0  0  0  0  0  0  0
  -30.3310  -23.2950   20.4010 C   0  0  0  0  0  0  0  0  0  0  0  0
  -28.9410  -23.0560   20.2970 C   0  0  0  0  0  0  0  0  0  0  0  0
  -32.1100  -20.0630   20.4560 C   0  0  0  0  0  1  0  0  0  0  0  0
  -30.9040  -24.7000   20.4490 C   0  0  0  0  0  1  0  0  0  0  0  0
  -28.6040  -21.6240   20.2690 N   0  0  0  0  0  0  0  0  0  0  0  0
  -31.2580  -22.3050   20.4550 N   0  0  0  0  0  0  0  0  0  0  0  0
  -30.4590  -15.2020   20.2590 C   0  0  0  0  0  0  0  0  0  0  0  0
  -30.3860  -12.8000   19.3430 C   0  0  0  0  0  2  0  0  0  0  0  0
  -29.4480  -12.6530   18.1210 C   0  0  0  0  0  2  0  0  0  0  0  0
  -28.0010  -12.3960   18.5770 C   0  0  0  0  0  2  0  0  0  0  0  0
  -27.5740  -13.3370   19.7340 C   0  0  0  0  0  3  0  0  0  0  0  0
  -28.6390  -13.4450   20.8430 C   0  0  0  0  0  2  0  0  0  0  0  0
  -29.8690  -13.9230   20.1960 N   0  0  0  0  0  0  0  0  0  0  0  0
  -31.6740  -15.2080   20.0180 O   0  0  0  0  0  0  0  0  0  0  0  0
  -29.8930  -17.6570   19.3250 C   0  0  0  0  0  2  0  0  0  0  0  0
  -29.7470  -17.6120   21.3200 C   0  0  0  0  0  2  0  0  0  0  0  0
  -29.3200  -18.8070   20.3070 C   0  0  0  0  0  3  0  0  0  0  0  0
  -29.7120  -16.4670   20.2890 N   0  0  0  0  0  0  0  0  0  0  0  0
  -25.2120  -13.8760   20.5340 C   0  0  0  0  0  0  0  0  0  0  0  0
  -24.1580  -13.0870   20.9010 C   0  0  0  0  0  0  0  0  0  0  0  0
  -24.6310  -11.7400   20.8390 C   0  0  0  0  0  0  0  0  0  0  0  0
  -26.2550  -13.0100   20.2570 N   0  0  0  0  0  0  0  0  0  0  0  0
  -25.9170  -11.7180   20.5090 N   0  0  0  0  0  0  0  0  0  0  0  0
  -23.9120  -10.4710   21.0150 C   0  0  0  0  0  0  0  0  0  0  0  0
  -24.3370   -9.5030   21.9520 C   0  0  0  0  0  3  0  0  0  0  0  0
  -23.6150   -8.3010   22.1170 C   0  0  0  0  0  3  0  0  0  0  0  0
  -22.4540   -8.0580   21.3450 C   0  0  0  0  0  0  0  0  0  0  0  0
  -22.0490   -9.0140   20.3970 C   0  0  0  0  0  3  0  0  0  0  0  0
  -22.7710  -10.2070   20.2300 C   0  0  0  0  0  3  0  0  0  0  0  0
  -21.7050   -6.9080   21.4200 O   0  0  0  0  0  0  0  0  0  0  0  0
  -21.6090   -6.1860   22.5820 C   0  0  0  0  0  0  0  0  0  0  0  0
  -21.0930   -6.7490   23.7700 C   0  0  0  0  0  3  0  0  0  0  0  0
  -20.9470   -5.9520   24.9230 C   0  0  0  0  0  3  0  0  0  0  0  0
  -21.3060   -4.5910   24.8870 C   0  0  0  0  0  0  0  0  0  0  0  0
  -21.8140   -4.0260   23.7040 C   0  0  0  0  0  3  0  0  0  0  0  0
  -21.9610   -4.8210   22.5540 C   0  0  0  0  0  0  0  0  0  0  0  0
  -22.4310   -4.2670   21.4100 F   0  0  0  0  0  0  0  0  0  0  0  0
  -21.1590   -3.8220   25.9910 F   0  0  0  0  0  0  0  0  0  0  0  0
  -22.7620  -13.5530   21.1970 C   0  0  0  0  0  0  0  0  0  0  0  0
  -22.0510  -12.8420   22.0650 N   0  0  0  0  0  0  0  0  0  0  0  0
  -22.3130  -14.5820   20.6950 O   0  0  0  0  0  0  0  0  0  0  0  0
  -22.4290  -12.0090   22.4930 H   0  0  0  0  0  0  0  0  0  0  0  0
  -21.1140  -13.1340   22.3050 H   0  0  0  0  0  0  0  0  0  0  0  0
  -25.3680  -15.2520   20.3830 N   0  0  0  0  0  0  0  0  0  0  0  0
  -24.6060  -15.9040   20.5280 H   0  0  0  0  0  0  0  0  0  0  0  0
  -26.2230  -15.7010   20.0800 H   0  0  0  0  0  0  0  0  0  0  0  0
  -27.8940  -24.4110   20.1740 C   0  0  0  0  0  2  0  0  0  0  0  0
  -28.1980  -25.9970   20.3100 O   0  0  0  0  0  0  0  0  0  0  0  0
  -24.6490  -31.9020   23.2560 C   0  0  0  0  0  0  0  0  0  0  0  0
  -27.1820  -27.0650   20.2460 C   0  0  0  0  0  0  0  0  0  0  0  0
  -23.4460  -30.5150   21.6140 C   0  0  0  0  0  3  0  0  0  0  0  0
  -24.8880  -28.9120   20.1970 C   0  0  0  0  0  0  0  0  0  0  0  0
  -26.0110  -30.7290   21.4670 C   0  0  0  0  0  2  0  0  0  0  0  0
  -26.0750  -29.3250   20.8130 C   0  0  0  0  0  0  0  0  0  0  0  0
  -27.2210  -28.4200   20.8150 C   0  0  0  0  0  3  0  0  0  0  0  0
  -25.9660  -26.7860   19.5850 C   0  0  0  0  0  3  0  0  0  0  0  0
  -24.8530  -27.6600   19.5630 C   0  0  0  0  0  3  0  0  0  0  0  0
  -23.6720  -29.8320   20.2380 C   0  0  0  0  0  2  0  0  0  0  0  0
  -24.7230  -31.0730   22.1660 N   0  0  0  0  0  0  0  0  0  0  0  0
  -23.5620  -32.1980   23.7770 O   0  0  0  0  0  0  0  0  0  0  0  0
  -22.7480  -29.5200   22.5780 C   0  0  0  0  0  0  0  0  0  0  0  0
  -21.4180  -29.3600   22.4480 N   0  0  0  0  0  0  0  0  0  0  0  0
  -23.4090  -28.8930   23.4090 O   0  0  0  0  0  0  0  0  0  0  0  0
  -20.9400  -29.9190   21.7550 H   0  0  0  0  0  0  0  0  0  0  0  0
  -18.0270  -28.1790   22.9480 C   0  0  0  0  0  0  0  0  0  0  0  0
  -20.5880  -28.4290   23.2180 C   0  0  0  0  0  3  0  0  0  0  0  0
  -20.6820  -26.9950   22.6470 C   0  0  0  0  0  2  0  0  0  0  0  0
  -19.5800  -26.6780   21.6300 C   0  0  0  0  0  2  0  0  0  0  0  0
  -18.1970  -26.8290   22.2720 C   0  0  0  0  0  2  0  0  0  0  0  0
  -19.1490  -28.9370   23.3790 C   0  0  0  0  0  0  0  0  0  0  0  0
  -18.9350  -30.1980   23.9750 C   0  0  0  0  0  3  0  0  0  0  0  0
  -17.6310  -30.7020   24.1450 C   0  0  0  0  0  3  0  0  0  0  0  0
  -16.5240  -29.9430   23.7290 C   0  0  0  0  0  3  0  0  0  0  0  0
  -16.7230  -28.6830   23.1360 C   0  0  0  0  0  3  0  0  0  0  0  0
  -25.9250  -32.5330   23.8890 C   0  0  0  0  0  3  0  0  0  0  0  0
  -25.6160  -33.9330   24.2260 N   0  0  0  0  0  0  0  0  0  0  0  0
  -25.9200  -34.9920   23.4620 C   0  0  0  0  0  0  0  0  0  0  0  0
  -26.5550  -34.8920   22.4090 O   0  0  0  0  0  0  0  0  0  0  0  0
  -25.0470  -34.0850   25.0450 H   0  0  0  0  0  0  0  0  0  0  0  0
  -24.1630  -36.7750   23.1980 C   0  0  0  0  0  1  0  0  0  0  0  0
  -25.4490  -36.3800   23.9410 C   0  0  0  0  0  3  0  0  0  0  0  0
  -27.6140  -37.2920   24.6580 C   0  0  0  0  0  1  0  0  0  0  0  0
  -26.4660  -37.4400   23.7670 N   0  0  0  0  0  0  0  0  0  0  0  0
  -26.0590  -38.3590   23.9270 H   0  0  0  0  0  0  0  0  0  0  0  0
  -26.4260  -31.7620   25.1730 C   0  0  1  0  0  0  0  0  0  0  0  0
  -25.3220  -31.5340   26.2330 C   0  0  0  0  0  1  0  0  0  0  0  0
  -27.0060  -30.3800   24.7970 C   0  0  0  0  0  1  0  0  0  0  0  0
  -27.5750  -32.5530   25.8440 C   0  0  0  0  0  1  0  0  0  0  0  0
  1  2  1  0
  2  8  2  0
  2  5  1  0
  3  6  1  0
  3  8  1  0
  4  3  2  0
  7  4  1  0
  7  1  2  0
  9 20  1  0
 10 15  1  0
 11 12  1  0
 11 10  1  0
 13 12  1  0
 13 24  1  0
 13 14  1  0
 15  9  1  0
 15 14  1  0
 16  9  2  0
 17 20  1  0
 17 19  1  0
 19  1  1  0
 19 18  1  0
 20 18  1  0
 21 22  2  0
 22 41  1  0
 23 22  1  0
 23 26  1  0
 24 25  1  0
 24 21  1  0
 25 23  2  0
 26 27  1  0
 27 28  2  0
 29 32  1  0
 29 28  1  0
 30 29  2  0
 31 30  1  0
 31 26  2  0
 32 33  1  0
 33 34  1  0
 34 35  2  0
 36 35  1  0
 36 40  1  0
 37 36  2  0
 38 33  2  0
 38 37  1  0
 39 38  1  0
 41 42  1  0
 42 45  1  0
 42 44  1  0
 43 41  2  0
 46 47  1  0
 46 21  1  0
 48 46  1  0
 49  4  1  0
 49 50  1  0
 51 62  2  0
 52 50  1  0
 52 57  1  0
 53 61  1  0
 53 63  1  0
 54 60  1  0
 54 56  1  0
 55 61  1  0
 56 57  2  0
 56 55  1  0
 58 52  2  0
 59 58  1  0
 59 54  2  0
 60 53  1  0
 61 51  1  0
 63 65  2  0
 64 63  1  0
 66 64  1  0
 67 76  2  0
 67 72  1  0
 68 64  1  0
 68 72  1  0
 69 68  1  0
 70 71  1  0
 70 69  1  0
 71 67  1  0
 72 73  2  0
 73 74  1  0
 75 74  2  0
 76 75  1  0
 77 51  1  0
 77 78  1  0
 77 87  1  0
 78 81  1  0
 79 83  1  0
 79 78  1  0
 80 79  2  0
 83 82  1  0
 85 86  1  0
 85 83  1  0
 85 84  1  0
 87 90  1  1
 87 88  1  0
 89 87  1  0
M  ISO  4   9 100  20 100  49 101  50 101
M  END
>  <TORSDO>  (47) 
F 17

>  <SCORE>  (47) 
-16.368

>  <name>  (47) 
46

>  <ligand_id>  (47) 
46

>  <original_smiles>  (47) 
[H]c1c([H])c([H])c2c(c1[H])C([H])([H])C([H])([H])C([H])([H])C2([H])N([H])C(=O)C1([H])N(C(=O)C([H])(N([H])C(=O)C([H])(N([H])C([H])([H])[H])C([H])([H])[H])C(C([H])([H])[H])(C([H])([H])[H])C([H])([H])[H])C([H])([H])c2c([H])c(OC([H])([H])c3nc(C4([H])C([H])([H])N(C(=O)N5C([H])([H])C([H])([H])C([H])([H])C([H])(n6nc(-c7c([H])c([H])c(Oc8c([H])c([H])c(F)c([H])c8F)c([H])c7[H])c(C(=O)N([H])[H])c6N([H])[H])C5([H])[H])C4([H])[H])c(C([H])([H])[H])nc3C([H])([H])[H])c([H])c([H])c2C1([H])[H]

>  <smiles>  (47) 
[H]c1c([H])c([H])c2c(c1[H])C([H])([H])C([H])([H])C([H])([H])C2([H])N([H])C(=O)C1([H])N(C(=O)C([H])(N([H])C(=O)C([H])(N([H])C([H])([H])[H])C([H])([H])[H])C(C([H])([H])[H])(C([H])([H])[H])C([H])([H])[H])C([H])([H])c2c([H])c(OC([H])([H])c3nc(C4([H])C([H])([H])N(C(=O)N5C([H])([H])C([H])([H])C([H])([H])C([H])(n6nc(-c7c([H])c([H])c(Oc8c([H])c([H])c(F)c([H])c8F)c([H])c7[H])c(C(=O)N([H])[H])c6N([H])[H])C5([H])[H])C4([H])[H])c(C([H])([H])[H])nc3C([H])([H])[H])c([H])c([H])c2C1([H])[H]

$$$$
47:0:0
     RDKit          3D

 90 98  0  0  1  0  0  0  0  0999 V2000
  -30.6660  -15.4710   20.3730 C   0  0  0  0  0  0  0  0  0  0  0  0
  -30.5550  -13.0550   19.4380 C   0  0  0  0  0  2  0  0  0  0  0  0
  -29.6670  -12.9580   18.1710 C   0  0  0  0  0  2  0  0  0  0  0  0
  -28.1940  -12.7440   18.5610 C   0  0  0  0  0  2  0  0  0  0  0  0
  -27.7590  -13.6880   19.7100 C   0  0  0  0  0  3  0  0  0  0  0  0
  -28.7760  -13.7210   20.8680 C   0  0  0  0  0  2  0  0  0  0  0  0
  -30.0540  -14.1860   20.3070 N   0  0  0  0  0  0  0  0  0  0  0  0
  -31.8820  -15.4190   20.1120 O   0  0  0  0  0  0  0  0  0  0  0  0
  -29.2420  -19.5950   20.3990 C   0  0  0  0  0  3  0  0  0  0  0  0
  -27.9280  -19.5760   19.8810 C   0  0  0  0  0  3  0  0  0  0  0  0
  -29.9710  -18.2500   20.0270 C   0  0  0  0  0  3  0  0  0  0  0  0
  -28.6550  -18.2850   18.1570 C   0  0  0  0  0  0  0  0  0  0  0  0
  -26.8020  -20.4490   20.4060 C   0  0  0  0  0  1  0  0  0  0  0  0
  -28.3990  -17.8110   16.7400 C   0  0  0  0  0  1  0  0  0  0  0  0
  -27.6430  -18.8790   18.7680 N   0  0  0  0  0  0  0  0  0  0  0  0
  -29.8490  -18.0350   18.6990 N   0  0  0  0  0  2  0  0  0  0  0  0
  -29.9680  -16.7580   20.6340 N   0  0  0  0  0  0  0  0  0  0  0  0
  -29.1140  -16.5760   21.1380 H   0  0  0  0  0  0  0  0  0  0  0  0
  -25.3830  -14.3150   20.3890 C   0  0  0  0  0  0  0  0  0  0  0  0
  -24.2880  -13.5720   20.7270 C   0  0  0  0  0  0  0  0  0  0  0  0
  -24.7190  -12.2080   20.7220 C   0  0  0  0  0  0  0  0  0  0  0  0
  -26.4070  -13.4110   20.1770 N   0  0  0  0  0  0  0  0  0  0  0  0
  -26.0190  -12.1380   20.4570 N   0  0  0  0  0  0  0  0  0  0  0  0
  -23.9500  -10.9690   20.8960 C   0  0  0  0  0  0  0  0  0  0  0  0
  -24.3390   -9.9860   21.8310 C   0  0  0  0  0  3  0  0  0  0  0  0
  -23.5720   -8.8110   21.9990 C   0  0  0  0  0  3  0  0  0  0  0  0
  -22.4000   -8.6130   21.2300 C   0  0  0  0  0  0  0  0  0  0  0  0
  -22.0260   -9.5870   20.2860 C   0  0  0  0  0  3  0  0  0  0  0  0
  -22.7980  -10.7510   20.1140 C   0  0  0  0  0  3  0  0  0  0  0  0
  -21.6070   -7.4930   21.3070 O   0  0  0  0  0  0  0  0  0  0  0  0
  -21.5580   -6.7210   22.4420 C   0  0  0  0  0  0  0  0  0  0  0  0
  -21.1990   -7.2630   23.6970 C   0  0  0  0  0  3  0  0  0  0  0  0
  -21.0840   -6.4230   24.8210 C   0  0  0  0  0  3  0  0  0  0  0  0
  -21.3240   -5.0420   24.6960 C   0  0  0  0  0  0  0  0  0  0  0  0
  -21.6760   -4.4970   23.4490 C   0  0  0  0  0  3  0  0  0  0  0  0
  -21.7860   -5.3350   22.3240 C   0  0  0  0  0  0  0  0  0  0  0  0
  -22.0990   -4.8010   21.1170 F   0  0  0  0  0  0  0  0  0  0  0  0
  -21.2110   -4.2320   25.7740 F   0  0  0  0  0  0  0  0  0  0  0  0
  -22.8960  -14.0890   20.9420 C   0  0  0  0  0  0  0  0  0  0  0  0
  -22.1210  -13.4290   21.7950 N   0  0  0  0  0  0  0  0  0  0  0  0
  -22.5030  -15.1140   20.3850 O   0  0  0  0  0  0  0  0  0  0  0  0
  -22.4500  -12.5950   22.2630 H   0  0  0  0  0  0  0  0  0  0  0  0
  -21.1860  -13.7640   21.9820 H   0  0  0  0  0  0  0  0  0  0  0  0
  -25.5940  -15.6790   20.2100 N   0  0  0  0  0  0  0  0  0  0  0  0
  -26.4340  -16.0760   19.8100 H   0  0  0  0  0  0  0  0  0  0  0  0
  -24.8420  -16.3540   20.2970 H   0  0  0  0  0  0  0  0  0  0  0  0
  -29.6730  -21.2140   20.9230 C   0  0  0  0  0  2  0  0  0  0  0  0
  -29.2820  -22.9000   20.3410 C   0  0  0  0  0  2  0  0  0  0  0  0
  -28.7870  -24.4850   21.0890 C   0  0  0  0  0  2  0  0  0  0  0  0
  -28.8510  -26.1090   20.7400 O   0  0  0  0  0  0  0  0  0  0  0  0
  -24.8290  -31.9990   23.3880 C   0  0  0  0  0  0  0  0  0  0  0  0
  -27.7680  -27.1400   20.6850 C   0  0  0  0  0  0  0  0  0  0  0  0
  -23.8000  -30.4940   21.7400 C   0  0  0  0  0  3  0  0  0  0  0  0
  -25.3950  -28.9160   20.4560 C   0  0  0  0  0  0  0  0  0  0  0  0
  -26.3600  -30.8230   21.7240 C   0  0  0  0  0  2  0  0  0  0  0  0
  -26.5310  -29.3960   21.1190 C   0  0  0  0  0  0  0  0  0  0  0  0
  -27.7180  -28.5330   21.1940 C   0  0  0  0  0  3  0  0  0  0  0  0
  -26.5890  -26.8060   19.9790 C   0  0  0  0  0  3  0  0  0  0  0  0
  -25.4490  -27.6450   19.8630 C   0  0  0  0  0  3  0  0  0  0  0  0
  -24.1400  -29.7890   20.4000 C   0  0  0  0  0  2  0  0  0  0  0  0
  -25.0160  -31.1330   22.3380 N   0  0  0  0  0  0  0  0  0  0  0  0
  -23.6980  -32.2500   23.8350 O   0  0  0  0  0  0  0  0  0  0  0  0
  -23.1000  -29.4930   22.6960 C   0  0  0  0  0  0  0  0  0  0  0  0
  -21.7800  -29.2860   22.5260 N   0  0  0  0  0  0  0  0  0  0  0  0
  -23.7520  -28.9020   23.5600 O   0  0  0  0  0  0  0  0  0  0  0  0
  -21.3080  -29.8180   21.8090 H   0  0  0  0  0  0  0  0  0  0  0  0
  -18.4040  -28.0300   22.9700 C   0  0  0  0  0  0  0  0  0  0  0  0
  -20.9550  -28.3370   23.2810 C   0  0  0  0  0  3  0  0  0  0  0  0
  -21.0880  -26.9060   22.7080 C   0  0  0  0  0  2  0  0  0  0  0  0
  -20.0090  -26.5660   21.6740 C   0  0  0  0  0  2  0  0  0  0  0  0
  -18.6160  -26.6870   22.2950 C   0  0  0  0  0  2  0  0  0  0  0  0
  -19.5030  -28.8150   23.4170 C   0  0  0  0  0  0  0  0  0  0  0  0
  -19.2470  -30.0710   24.0090 C   0  0  0  0  0  3  0  0  0  0  0  0
  -17.9290  -30.5460   24.1530 C   0  0  0  0  0  3  0  0  0  0  0  0
  -16.8480  -29.7590   23.7200 C   0  0  0  0  0  3  0  0  0  0  0  0
  -17.0860  -28.5030   23.1370 C   0  0  0  0  0  3  0  0  0  0  0  0
  -26.0250  -32.7280   24.0690 C   0  0  0  0  0  3  0  0  0  0  0  0
  -25.6370  -34.1320   24.3000 N   0  0  0  0  0  0  0  0  0  0  0  0
  -25.9770  -35.1610   23.5140 C   0  0  0  0  0  0  0  0  0  0  0  0
  -26.7090  -35.0310   22.5290 O   0  0  0  0  0  0  0  0  0  0  0  0
  -24.9900  -34.3050   25.0550 H   0  0  0  0  0  0  0  0  0  0  0  0
  -24.2040  -36.8680   22.9780 C   0  0  0  0  0  1  0  0  0  0  0  0
  -25.4180  -36.5550   23.8700 C   0  0  0  0  0  3  0  0  0  0  0  0
  -27.4750  -37.5660   24.7580 C   0  0  0  0  0  1  0  0  0  0  0  0
  -26.4190  -37.6390   23.7510 N   0  0  0  0  0  0  0  0  0  0  0  0
  -25.9770  -38.5520   23.8220 H   0  0  0  0  0  0  0  0  0  0  0  0
  -26.4640  -32.0550   25.4290 C   0  0  1  0  0  0  0  0  0  0  0  0
  -25.2920  -31.8170   26.4130 C   0  0  0  0  0  1  0  0  0  0  0  0
  -27.1390  -30.6880   25.1740 C   0  0  0  0  0  1  0  0  0  0  0  0
  -27.5190  -32.9410   26.1330 C   0  0  0  0  0  1  0  0  0  0  0  0
  1 17  1  0
  2  7  1  0
  3  4  1  0
  3  2  1  0
  5  4  1  0
  5 22  1  0
  5  6  1  0
  7  1  1  0
  7  6  1  0
  8  1  2  0
  9 47  1  0
 10  9  1  0
 10 13  1  0
 11  9  1  0
 11 17  1  0
 12 16  1  0
 12 15  2  0
 14 12  1  0
 15 10  1  0
 16 11  1  0
 17 18  1  0
 19 20  2  0
 20 39  1  0
 21 20  1  0
 21 24  1  0
 22 19  1  0
 22 23  1  0
 23 21  2  0
 24 25  1  0
 25 26  2  0
 27 30  1  0
 27 26  1  0
 28 27  2  0
 29 28  1  0
 29 24  2  0
 30 31  1  0
 31 32  1  0
 32 33  2  0
 34 33  1  0
 34 38  1  0
 35 34  2  0
 36 31  2  0
 36 35  1  0
 37 36  1  0
 39 40  1  0
 40 43  1  0
 40 42  1  0
 41 39  2  0
 44 46  1  0
 44 19  1  0
 45 44  1  0
 48 47  1  0
 48 49  1  0
 50 49  1  0
 51 62  2  0
 52 50  1  0
 52 57  1  0
 53 61  1  0
 53 63  1  0
 54 56  1  0
 55 61  1  0
 56 57  2  0
 56 55  1  0
 58 52  2  0
 59 58  1  0
 59 54  2  0
 60 54  1  0
 60 53  1  0
 61 51  1  0
 63 65  2  0
 64 63  1  0
 66 64  1  0
 67 76  2  0
 67 72  1  0
 68 64  1  0
 68 72  1  0
 69 68  1  0
 70 71  1  0
 70 69  1  0
 71 67  1  0
 72 73  2  0
 73 74  1  0
 75 74  2  0
 76 75  1  0
 77 51  1  0
 77 78  1  0
 77 87  1  0
 78 81  1  0
 79 83  1  0
 79 78  1  0
 80 79  2  0
 83 82  1  0
 85 86  1  0
 85 83  1  0
 85 84  1  0
 87 90  1  1
 87 88  1  0
 89 87  1  0
M  ISO  4   1 100  17 100  49 101  50 101
M  END
>  <TORSDO>  (48) 
F 18

>  <SCORE>  (48) 
-13.638

>  <name>  (48) 
47

>  <ligand_id>  (48) 
47

>  <original_smiles>  (48) 
[H]c1c([H])c([H])c2c(c1[H])C([H])([H])C([H])([H])C([H])([H])C2([H])N([H])C(=O)C1([H])N(C(=O)C([H])(N([H])C(=O)C([H])(N([H])C([H])([H])[H])C([H])([H])[H])C(C([H])([H])[H])(C([H])([H])[H])C([H])([H])[H])C([H])([H])c2c([H])c(OC([H])([H])C([H])([H])C([H])([H])c3c(N([H])C(=O)N4C([H])([H])C([H])([H])C([H])([H])C([H])(n5nc(-c6c([H])c([H])c(Oc7c([H])c([H])c(F)c([H])c7F)c([H])c6[H])c(C(=O)N([H])[H])c5N([H])[H])C4([H])[H])nc(C([H])([H])[H])nc3C([H])([H])[H])c([H])c([H])c2C1([H])[H]

>  <smiles>  (48) 
[H]c1c([H])c([H])c2c(c1[H])C([H])([H])C([H])([H])C([H])([H])C2([H])N([H])C(=O)C1([H])N(C(=O)C([H])(N([H])C(=O)C([H])(N([H])C([H])([H])[H])C([H])([H])[H])C(C([H])([H])[H])(C([H])([H])[H])C([H])([H])[H])C([H])([H])c2c([H])c(OC([H])([H])C([H])([H])C([H])([H])c3c(N([H])C(=O)N4C([H])([H])C([H])([H])C([H])([H])C([H])(n5nc(-c6c([H])c([H])c(Oc7c([H])c([H])c(F)c([H])c7F)c([H])c6[H])c(C(=O)N([H])[H])c5N([H])[H])C4([H])[H])nc(C([H])([H])[H])nc3C([H])([H])[H])c([H])c([H])c2C1([H])[H]

$$$$
48:0:0
     RDKit          3D

 93102  0  0  1  0  0  0  0  0999 V2000
  -31.1310  -23.5190   18.9870 C   0  0  0  0  0  0  0  0  0  0  0  0
  -29.1950  -23.9540   19.9980 C   0  0  0  0  0  0  0  0  0  0  0  0
  -29.8770  -21.8060   19.6500 C   0  0  0  0  0  0  0  0  0  0  0  0
  -32.3930  -24.0210   18.3120 C   0  0  0  0  0  1  0  0  0  0  0  0
  -30.2980  -24.4460   19.4410 N   0  0  0  0  0  4  0  0  0  0  0  0
  -30.9750  -22.1990   19.0370 N   0  0  0  0  0  0  0  0  0  0  0  0
  -28.9350  -22.6240   20.1560 N   0  0  0  0  0  2  0  0  0  0  0  0
  -29.7170  -20.4040   19.5810 N   0  0  0  0  0  0  0  0  0  0  0  0
  -30.3580  -20.0360   18.8890 H   0  0  0  0  0  0  0  0  0  0  0  0
  -28.1700  -25.0370   22.0630 C   0  0  0  0  0  1  0  0  0  0  0  0
  -28.1690  -25.0330   20.5270 C   0  0  0  0  0  3  0  0  0  0  0  0
  -28.3560  -26.4640   20.1310 O   0  0  0  0  0  0  0  0  0  0  0  0
  -24.6440  -31.8780   23.2110 C   0  0  0  0  0  0  0  0  0  0  0  0
  -27.2340  -27.3130   20.1380 C   0  0  0  0  0  0  0  0  0  0  0  0
  -23.4260  -30.4770   21.5820 C   0  0  0  0  0  3  0  0  0  0  0  0
  -24.8660  -28.9210   20.1530 C   0  0  0  0  0  0  0  0  0  0  0  0
  -25.9650  -30.7920   21.3830 C   0  0  0  0  0  2  0  0  0  0  0  0
  -26.0400  -29.4110   20.7400 C   0  0  0  0  0  0  0  0  0  0  0  0
  -27.2280  -28.6180   20.7250 C   0  0  0  0  0  3  0  0  0  0  0  0
  -26.0380  -26.8800   19.5240 C   0  0  0  0  0  3  0  0  0  0  0  0
  -24.8660  -27.6590   19.5400 C   0  0  0  0  0  3  0  0  0  0  0  0
  -23.6290  -29.7970   20.2040 C   0  0  0  0  0  2  0  0  0  0  0  0
  -24.6970  -31.0670   22.1140 N   0  0  0  0  0  0  0  0  0  0  0  0
  -23.5650  -32.1600   23.7520 O   0  0  0  0  0  0  0  0  0  0  0  0
  -22.7690  -29.4650   22.5510 C   0  0  0  0  0  0  0  0  0  0  0  0
  -21.4420  -29.2930   22.4340 N   0  0  0  0  0  0  0  0  0  0  0  0
  -23.4520  -28.8390   23.3660 O   0  0  0  0  0  0  0  0  0  0  0  0
  -20.9510  -29.8470   21.7450 H   0  0  0  0  0  0  0  0  0  0  0  0
  -18.0650  -28.1040   22.9570 C   0  0  0  0  0  0  0  0  0  0  0  0
  -20.6250  -28.3620   23.2130 C   0  0  0  0  0  3  0  0  0  0  0  0
  -20.7240  -26.9270   22.6430 C   0  0  0  0  0  2  0  0  0  0  0  0
  -19.6150  -26.6020   21.6360 C   0  0  0  0  0  2  0  0  0  0  0  0
  -18.2370  -26.7520   22.2870 C   0  0  0  0  0  2  0  0  0  0  0  0
  -19.1870  -28.8660   23.3780 C   0  0  0  0  0  0  0  0  0  0  0  0
  -18.9750  -30.1310   23.9670 C   0  0  0  0  0  3  0  0  0  0  0  0
  -17.6720  -30.6360   24.1380 C   0  0  0  0  0  3  0  0  0  0  0  0
  -16.5640  -29.8710   23.7350 C   0  0  0  0  0  3  0  0  0  0  0  0
  -16.7610  -28.6070   23.1500 C   0  0  0  0  0  3  0  0  0  0  0  0
  -25.9330  -32.5120   23.8210 C   0  0  0  0  0  3  0  0  0  0  0  0
  -25.6230  -33.9060   24.1670 N   0  0  0  0  0  0  0  0  0  0  0  0
  -25.9390  -34.9680   23.4140 C   0  0  0  0  0  0  0  0  0  0  0  0
  -26.5970  -34.8760   22.3730 O   0  0  0  0  0  0  0  0  0  0  0  0
  -25.0300  -34.0480   24.9720 H   0  0  0  0  0  0  0  0  0  0  0  0
  -24.1970  -36.7560   23.1040 C   0  0  0  0  0  1  0  0  0  0  0  0
  -25.4530  -36.3500   23.8910 C   0  0  0  0  0  3  0  0  0  0  0  0
  -27.5970  -37.2350   24.6910 C   0  0  0  0  0  1  0  0  0  0  0  0
  -26.4780  -37.4080   23.7700 N   0  0  0  0  0  0  0  0  0  0  0  0
  -26.0700  -38.3260   23.9360 H   0  0  0  0  0  0  0  0  0  0  0  0
  -26.4670  -31.7310   25.0850 C   0  0  1  0  0  0  0  0  0  0  0  0
  -25.3890  -31.4840   26.1650 C   0  0  0  0  0  1  0  0  0  0  0  0
  -27.0470  -30.3570   24.6780 C   0  0  0  0  0  1  0  0  0  0  0  0
  -27.6250  -32.5220   25.7370 C   0  0  0  0  0  1  0  0  0  0  0  0
  -29.5480  -19.4130   20.6830 C   0  0  0  0  0  2  0  0  0  0  0  0
  -30.5960  -14.6690   20.4090 C   0  0  0  0  0  0  0  0  0  0  0  0
  -30.3640  -12.4190   19.3670 C   0  0  0  0  0  2  0  0  0  0  0  0
  -29.4310  -12.5420   18.1430 C   0  0  0  0  0  2  0  0  0  0  0  0
  -27.9560  -12.3910   18.5670 C   0  0  0  0  0  2  0  0  0  0  0  0
  -27.5920  -13.2630   19.8010 C   0  0  0  0  0  3  0  0  0  0  0  0
  -28.6460  -13.1320   20.9210 C   0  0  0  0  0  2  0  0  0  0  0  0
  -29.9530  -13.4570   20.3350 N   0  0  0  0  0  0  0  0  0  0  0  0
  -31.7760  -14.7830   20.0670 O   0  0  0  0  0  0  0  0  0  0  0  0
  -29.3890  -16.8010   19.6750 C   0  0  0  0  0  2  0  0  0  0  0  0
  -30.1730  -16.8990   21.5970 C   0  0  0  0  0  2  0  0  0  0  0  0
  -30.1210  -17.9320   20.4440 C   0  0  0  0  0  3  0  0  0  0  0  0
  -29.8250  -15.7830   20.6760 N   0  0  0  0  0  0  0  0  0  0  0  0
  -25.1990  -13.8700   20.5010 C   0  0  0  0  0  0  0  0  0  0  0  0
  -24.1270  -13.1030   20.8700 C   0  0  0  0  0  0  0  0  0  0  0  0
  -24.5870  -11.7500   20.8540 C   0  0  0  0  0  0  0  0  0  0  0  0
  -26.2420  -12.9840   20.2810 N   0  0  0  0  0  0  0  0  0  0  0  0
  -25.8800  -11.7050   20.5560 N   0  0  0  0  0  0  0  0  0  0  0  0
  -23.8540  -10.4910   21.0480 C   0  0  0  0  0  0  0  0  0  0  0  0
  -24.2900   -9.5190   21.9770 C   0  0  0  0  0  3  0  0  0  0  0  0
  -23.5600   -8.3250   22.1610 C   0  0  0  0  0  3  0  0  0  0  0  0
  -22.3770   -8.0960   21.4170 C   0  0  0  0  0  0  0  0  0  0  0  0
  -21.9590   -9.0550   20.4800 C   0  0  0  0  0  3  0  0  0  0  0  0
  -22.6890  -10.2420   20.2940 C   0  0  0  0  0  3  0  0  0  0  0  0
  -21.6170   -6.9550   21.5130 O   0  0  0  0  0  0  0  0  0  0  0  0
  -21.5920   -6.1980   22.6570 C   0  0  0  0  0  0  0  0  0  0  0  0
  -21.2210   -6.7450   23.9040 C   0  0  0  0  0  3  0  0  0  0  0  0
  -21.1440   -5.9160   25.0420 C   0  0  0  0  0  3  0  0  0  0  0  0
  -21.4250   -4.5410   24.9320 C   0  0  0  0  0  0  0  0  0  0  0  0
  -21.7890   -3.9940   23.6900 C   0  0  0  0  0  3  0  0  0  0  0  0
  -21.8690   -4.8200   22.5550 C   0  0  0  0  0  0  0  0  0  0  0  0
  -22.1990   -4.2830   21.3560 F   0  0  0  0  0  0  0  0  0  0  0  0
  -21.3430   -3.7420   26.0220 F   0  0  0  0  0  0  0  0  0  0  0  0
  -22.7300  -13.5850   21.1290 C   0  0  0  0  0  0  0  0  0  0  0  0
  -21.9940  -12.9020   21.9990 N   0  0  0  0  0  0  0  0  0  0  0  0
  -22.3000  -14.6060   20.5950 O   0  0  0  0  0  0  0  0  0  0  0  0
  -22.3510  -12.0760   22.4540 H   0  0  0  0  0  0  0  0  0  0  0  0
  -21.0550  -13.2090   22.2100 H   0  0  0  0  0  0  0  0  0  0  0  0
  -25.3730  -15.2380   20.3160 N   0  0  0  0  0  0  0  0  0  0  0  0
  -24.6190  -15.9060   20.4280 H   0  0  0  0  0  0  0  0  0  0  0  0
  -26.2470  -15.6660   20.0370 H   0  0  0  0  0  0  0  0  0  0  0  0
  1  6  1  0
  1  5  2  0
  2  7  1  0
  2 11  1  0
  3  7  1  0
  4  1  1  0
  5  2  2  0
  6  3  2  0
  8  3  1  0
  8 53  1  0
  9  8  1  0
 11 10  1  0
 12 14  1  0
 12 11  1  0
 13 24  2  0
 14 19  1  0
 15 23  1  0
 15 25  1  0
 16 22  1  0
 16 18  1  0
 17 23  1  0
 18 17  1  0
 19 18  2  0
 20 21  1  0
 20 14  2  0
 21 16  2  0
 22 15  1  0
 23 13  1  0
 25 27  2  0
 26 25  1  0
 28 26  1  0
 29 38  2  0
 29 34  1  0
 30 26  1  0
 30 34  1  0
 31 30  1  0
 32 33  1  0
 32 31  1  0
 33 29  1  0
 34 35  2  0
 35 36  1  0
 37 36  2  0
 38 37  1  0
 39 13  1  0
 39 40  1  0
 39 49  1  0
 40 43  1  0
 41 45  1  0
 41 40  1  0
 42 41  2  0
 45 44  1  0
 47 45  1  0
 47 48  1  0
 47 46  1  0
 49 52  1  1
 49 50  1  0
 51 49  1  0
 54 65  1  0
 55 60  1  0
 56 57  1  0
 56 55  1  0
 58 57  1  0
 58 69  1  0
 58 59  1  0
 60 54  1  0
 60 59  1  0
 61 54  2  0
 62 64  1  0
 62 65  1  0
 64 53  1  0
 64 63  1  0
 65 63  1  0
 66 67  2  0
 67 86  1  0
 68 67  1  0
 68 71  1  0
 69 66  1  0
 69 70  1  0
 70 68  2  0
 71 72  1  0
 72 73  2  0
 74 77  1  0
 74 73  1  0
 75 74  2  0
 76 75  1  0
 76 71  2  0
 77 78  1  0
 78 79  1  0
 79 80  2  0
 81 80  1  0
 81 85  1  0
 82 81  2  0
 83 78  2  0
 83 82  1  0
 84 83  1  0
 86 87  1  0
 87 90  1  0
 87 89  1  0
 88 86  2  0
 91 92  1  0
 91 66  1  0
 93 91  1  0
M  ISO  4  11 101  12 101  54 100  65 100
M  END
>  <TORSDO>  (49) 
F 18

>  <SCORE>  (49) 
-14.730

>  <name>  (49) 
48

>  <ligand_id>  (49) 
48

>  <original_smiles>  (49) 
[H]c1c([H])c([H])c2c(c1[H])C([H])([H])C([H])([H])C([H])([H])C2([H])N([H])C(=O)C1([H])N(C(=O)C([H])(N([H])C(=O)C([H])(N([H])C([H])([H])[H])C([H])([H])[H])C(C([H])([H])[H])(C([H])([H])[H])C([H])([H])[H])C([H])([H])c2c([H])c(OC([H])(c3nc(N([H])C([H])([H])C4([H])C([H])([H])N(C(=O)N5C([H])([H])C([H])([H])C([H])([H])C([H])(n6nc(-c7c([H])c([H])c(Oc8c([H])c([H])c(F)c([H])c8F)c([H])c7[H])c(C(=O)N([H])[H])c6N([H])[H])C5([H])[H])C4([H])[H])nc(C([H])([H])[H])n3)C([H])([H])[H])c([H])c([H])c2C1([H])[H]

>  <smiles>  (49) 
[H]c1c([H])c([H])c2c(c1[H])C([H])([H])C([H])([H])C([H])([H])C2([H])N([H])C(=O)C1([H])N(C(=O)C([H])(N([H])C(=O)C([H])(N([H])C([H])([H])[H])C([H])([H])[H])C(C([H])([H])[H])(C([H])([H])[H])C([H])([H])[H])C([H])([H])c2c([H])c(OC([H])(c3nc(N([H])C([H])([H])C4([H])C([H])([H])N(C(=O)N5C([H])([H])C([H])([H])C([H])([H])C([H])(n6nc(-c7c([H])c([H])c(Oc8c([H])c([H])c(F)c([H])c8F)c([H])c7[H])c(C(=O)N([H])[H])c6N([H])[H])C5([H])[H])C4([H])[H])nc(C([H])([H])[H])n3)C([H])([H])[H])c([H])c([H])c2C1([H])[H]

$$$$
49:0:0
     RDKit          3D

 95104  0  0  1  0  0  0  0  0999 V2000
  -31.2840  -19.0260   22.0240 C   0  0  0  0  0  3  0  0  0  0  0  0
  -29.9680  -20.6160   20.7830 C   0  0  0  0  0  0  0  0  0  0  0  0
  -31.0190  -20.3670   21.6810 C   0  0  0  0  0  0  0  0  0  0  0  0
  -29.2730  -19.5270   20.2670 C   0  0  0  0  0  0  0  0  0  0  0  0
  -30.5170  -17.9810   21.4570 C   0  0  0  0  0  0  0  0  0  0  0  0
  -28.2400  -19.9750   19.2660 C   0  0  0  0  0  2  0  0  0  0  0  0
  -28.2500  -21.5280   19.3750 C   0  0  0  0  0  2  0  0  0  0  0  0
  -29.5180  -21.9450   20.1750 C   0  0  0  0  0  3  0  0  0  0  0  0
  -29.5070  -18.2240   20.5760 N   0  0  0  0  0  0  0  0  0  0  0  0
  -31.9500  -21.6570   22.3530 Cl  0  0  0  0  0  0  0  0  0  0  0  0
  -29.2600  -23.0400   21.1590 N   0  0  0  0  0  4  0  0  0  0  0  0
  -29.9460  -22.9020   21.8870 H   0  0  0  0  0  0  0  0  0  0  0  0
  -28.3600  -22.9280   21.5980 H   0  0  0  0  0  0  0  0  0  0  0  0
  -29.4710  -24.4580   20.7120 C   0  0  0  0  0  2  0  0  0  0  0  0
  -28.1910  -25.2100   20.2580 C   0  0  0  0  0  2  0  0  0  0  0  0
  -28.3600  -26.6510   20.2560 O   0  0  0  0  0  0  0  0  0  0  0  0
  -24.5800  -31.9230   23.2500 C   0  0  0  0  0  0  0  0  0  0  0  0
  -27.2030  -27.4150   20.2150 C   0  0  0  0  0  0  0  0  0  0  0  0
  -23.3710  -30.5120   21.6200 C   0  0  0  0  0  3  0  0  0  0  0  0
  -24.8200  -28.9590   20.2060 C   0  0  0  0  0  0  0  0  0  0  0  0
  -25.9020  -30.8530   21.4240 C   0  0  0  0  0  2  0  0  0  0  0  0
  -25.9840  -29.4760   20.7910 C   0  0  0  0  0  0  0  0  0  0  0  0
  -27.1780  -28.7130   20.7880 C   0  0  0  0  0  3  0  0  0  0  0  0
  -26.0170  -26.9270   19.6170 C   0  0  0  0  0  3  0  0  0  0  0  0
  -24.8350  -27.6870   19.6140 C   0  0  0  0  0  3  0  0  0  0  0  0
  -23.5810  -29.8250   20.2460 C   0  0  0  0  0  2  0  0  0  0  0  0
  -24.6360  -31.1110   22.1560 N   0  0  0  0  0  0  0  0  0  0  0  0
  -23.4970  -32.2040   23.7840 O   0  0  0  0  0  0  0  0  0  0  0  0
  -22.7150  -29.5000   22.5860 C   0  0  0  0  0  0  0  0  0  0  0  0
  -21.3880  -29.3250   22.4610 N   0  0  0  0  0  0  0  0  0  0  0  0
  -23.3940  -28.8740   23.4040 O   0  0  0  0  0  0  0  0  0  0  0  0
  -20.9010  -29.8800   21.7710 H   0  0  0  0  0  0  0  0  0  0  0  0
  -18.0060  -28.1590   22.9730 C   0  0  0  0  0  0  0  0  0  0  0  0
  -20.5660  -28.3970   23.2380 C   0  0  0  0  0  3  0  0  0  0  0  0
  -20.6560  -26.9630   22.6680 C   0  0  0  0  0  2  0  0  0  0  0  0
  -19.5490  -26.6440   21.6570 C   0  0  0  0  0  2  0  0  0  0  0  0
  -18.1690  -26.8050   22.3040 C   0  0  0  0  0  2  0  0  0  0  0  0
  -19.1310  -28.9140   23.3960 C   0  0  0  0  0  0  0  0  0  0  0  0
  -18.9260  -30.1830   23.9810 C   0  0  0  0  0  3  0  0  0  0  0  0
  -17.6260  -30.6960   24.1480 C   0  0  0  0  0  3  0  0  0  0  0  0
  -16.5140  -29.9380   23.7400 C   0  0  0  0  0  3  0  0  0  0  0  0
  -16.7050  -28.6720   23.1580 C   0  0  0  0  0  3  0  0  0  0  0  0
  -25.8660  -32.5540   23.8670 C   0  0  0  0  0  3  0  0  0  0  0  0
  -26.3850  -31.7870   25.1450 C   0  0  1  0  0  0  0  0  0  0  0  0
  -25.2940  -31.5530   26.2150 C   0  0  0  0  0  1  0  0  0  0  0  0
  -26.9670  -30.4090   24.7520 C   0  0  0  0  0  1  0  0  0  0  0  0
  -27.5360  -32.5820   25.8020 C   0  0  0  0  0  1  0  0  0  0  0  0
  -25.5590  -33.9540   24.1910 N   0  0  0  0  0  0  0  0  0  0  0  0
  -25.8960  -35.0030   23.4270 C   0  0  0  0  0  0  0  0  0  0  0  0
  -26.5690  -34.8940   22.3980 O   0  0  0  0  0  0  0  0  0  0  0  0
  -24.9620  -34.1140   24.9890 H   0  0  0  0  0  0  0  0  0  0  0  0
  -24.1760  -36.7990   23.0550 C   0  0  0  0  0  1  0  0  0  0  0  0
  -25.4100  -36.3940   23.8780 C   0  0  0  0  0  3  0  0  0  0  0  0
  -27.5410  -37.2730   24.7210 C   0  0  0  0  0  1  0  0  0  0  0  0
  -26.4470  -37.4430   23.7690 N   0  0  0  0  0  0  0  0  0  0  0  0
  -26.0430  -38.3650   23.9120 H   0  0  0  0  0  0  0  0  0  0  0  0
  -30.8240  -16.5430   21.9000 C   0  0  0  0  0  2  0  0  0  0  0  0
  -30.6970  -14.4960   20.4760 C   0  0  0  0  0  0  0  0  0  0  0  0
  -30.3590  -12.3810   19.2340 C   0  0  0  0  0  2  0  0  0  0  0  0
  -29.4000  -12.5950   18.0440 C   0  0  0  0  0  2  0  0  0  0  0  0
  -27.9340  -12.4430   18.4920 C   0  0  0  0  0  2  0  0  0  0  0  0
  -27.6110  -13.2600   19.7710 C   0  0  0  0  0  3  0  0  0  0  0  0
  -28.6770  -13.0240   20.8620 C   0  0  0  0  0  2  0  0  0  0  0  0
  -29.9920  -13.3460   20.2830 N   0  0  0  0  0  0  0  0  0  0  0  0
  -31.7970  -14.6940   19.9530 O   0  0  0  0  0  0  0  0  0  0  0  0
  -30.1190  -15.4260   21.2530 N   0  0  0  0  0  0  0  0  0  0  0  0
  -29.1760  -15.2520   21.5640 H   0  0  0  0  0  0  0  0  0  0  0  0
  -25.2150  -13.8570   20.4940 C   0  0  0  0  0  0  0  0  0  0  0  0
  -24.1530  -13.0800   20.8690 C   0  0  0  0  0  0  0  0  0  0  0  0
  -24.6200  -11.7300   20.8370 C   0  0  0  0  0  0  0  0  0  0  0  0
  -26.2630  -12.9800   20.2590 N   0  0  0  0  0  0  0  0  0  0  0  0
  -25.9090  -11.6960   20.5230 N   0  0  0  0  0  0  0  0  0  0  0  0
  -23.9000  -10.4650   21.0320 C   0  0  0  0  0  0  0  0  0  0  0  0
  -24.3440   -9.4980   21.9600 C   0  0  0  0  0  3  0  0  0  0  0  0
  -23.6240   -8.2960   22.1430 C   0  0  0  0  0  3  0  0  0  0  0  0
  -22.4460   -8.0550   21.3970 C   0  0  0  0  0  0  0  0  0  0  0  0
  -22.0220   -9.0110   20.4580 C   0  0  0  0  0  3  0  0  0  0  0  0
  -22.7410  -10.2030   20.2730 C   0  0  0  0  0  3  0  0  0  0  0  0
  -21.6970   -6.9070   21.4890 O   0  0  0  0  0  0  0  0  0  0  0  0
  -21.6620   -6.1610   22.6390 C   0  0  0  0  0  0  0  0  0  0  0  0
  -21.2500   -6.7100   23.8720 C   0  0  0  0  0  3  0  0  0  0  0  0
  -21.1630   -5.8900   25.0150 C   0  0  0  0  0  3  0  0  0  0  0  0
  -21.4770   -4.5210   24.9250 C   0  0  0  0  0  0  0  0  0  0  0  0
  -21.8840   -3.9710   23.6970 C   0  0  0  0  0  3  0  0  0  0  0  0
  -21.9730   -4.7880   22.5560 C   0  0  0  0  0  0  0  0  0  0  0  0
  -22.3440   -4.2480   21.3700 F   0  0  0  0  0  0  0  0  0  0  0  0
  -21.3870   -3.7310   26.0210 F   0  0  0  0  0  0  0  0  0  0  0  0
  -22.7540  -13.5520   21.1490 C   0  0  0  0  0  0  0  0  0  0  0  0
  -22.0340  -12.8500   22.0170 N   0  0  0  0  0  0  0  0  0  0  0  0
  -22.3110  -14.5760   20.6340 O   0  0  0  0  0  0  0  0  0  0  0  0
  -22.4060  -12.0210   22.4550 H   0  0  0  0  0  0  0  0  0  0  0  0
  -21.0970  -13.1480   22.2480 H   0  0  0  0  0  0  0  0  0  0  0  0
  -25.3740  -15.2280   20.3160 N   0  0  0  0  0  0  0  0  0  0  0  0
  -24.6080  -15.8820   20.4320 H   0  0  0  0  0  0  0  0  0  0  0  0
  -26.2270  -15.6690   19.9950 H   0  0  0  0  0  0  0  0  0  0  0  0
  2  3  2  0
  3  1  1  0
  3 10  1  0
  4  9  2  0
  4  2  1  0
  5 57  1  0
  5  1  2  0
  6  7  1  0
  6  4  1  0
  7  8  1  0
  8  2  1  0
  8 11  1  0
  9  5  1  0
 11 13  1  0
 11 12  1  0
 14 11  1  0
 15 14  1  0
 16 15  1  0
 17 28  2  0
 18 16  1  0
 18 23  1  0
 19 27  1  0
 19 29  1  0
 20 26  1  0
 20 22  1  0
 21 27  1  0
 22 21  1  0
 23 22  2  0
 24 18  2  0
 25 24  1  0
 25 20  2  0
 26 19  1  0
 27 17  1  0
 29 31  2  0
 30 29  1  0
 32 30  1  0
 33 42  2  0
 33 38  1  0
 34 30  1  0
 34 38  1  0
 35 34  1  0
 36 37  1  0
 36 35  1  0
 37 33  1  0
 38 39  2  0
 39 40  1  0
 41 40  2  0
 42 41  1  0
 43 17  1  0
 43 48  1  0
 43 44  1  0
 44 47  1  1
 44 45  1  0
 46 44  1  0
 48 51  1  0
 49 53  1  0
 49 48  1  0
 50 49  2  0
 53 52  1  0
 55 53  1  0
 55 56  1  0
 55 54  1  0
 58 66  1  0
 59 64  1  0
 60 61  1  0
 60 59  1  0
 62 61  1  0
 62 71  1  0
 62 63  1  0
 64 58  1  0
 64 63  1  0
 65 58  2  0
 66 67  1  0
 66 57  1  0
 68 69  2  0
 69 88  1  0
 70 69  1  0
 70 73  1  0
 71 68  1  0
 71 72  1  0
 72 70  2  0
 73 74  1  0
 74 75  2  0
 76 79  1  0
 76 75  1  0
 77 76  2  0
 78 77  1  0
 78 73  2  0
 79 80  1  0
 80 81  1  0
 81 82  2  0
 83 82  1  0
 83 87  1  0
 84 83  2  0
 85 80  2  0
 85 84  1  0
 86 85  1  0
 88 89  1  0
 89 92  1  0
 89 91  1  0
 90 88  2  0
 93 94  1  0
 93 68  1  0
 95 93  1  0
M  ISO  4  15 101  16 101  58 100  66 100
M  END
>  <TORSDO>  (50) 
F 20

>  <SCORE>  (50) 
-14.273

>  <name>  (50) 
49

>  <ligand_id>  (50) 
49

>  <original_smiles>  (50) 
[H]c1c([H])c([H])c2c(c1[H])C([H])([H])C([H])([H])C([H])([H])C2([H])N([H])C(=O)C1([H])N(C(=O)C([H])(N([H])C(=O)C([H])(N([H])C([H])([H])[H])C([H])([H])[H])C(C([H])([H])[H])(C([H])([H])[H])C([H])([H])[H])C([H])([H])c2c([H])c(OC([H])([H])C([H])([H])[N+]([H])([H])C3([H])c4c(nc(C([H])([H])N([H])C(=O)N5C([H])([H])C([H])([H])C([H])([H])C([H])(n6nc(-c7c([H])c([H])c(Oc8c([H])c([H])c(F)c([H])c8F)c([H])c7[H])c(C(=O)N([H])[H])c6N([H])[H])C5([H])[H])c([H])c4Cl)C([H])([H])C3([H])[H])c([H])c([H])c2C1([H])[H]

>  <smiles>  (50) 
[H]c1c([H])c([H])c2c(c1[H])C([H])([H])C([H])([H])C([H])([H])C2([H])N([H])C(=O)C1([H])N(C(=O)C([H])(N([H])C(=O)C([H])(N([H])C([H])([H])[H])C([H])([H])[H])C(C([H])([H])[H])(C([H])([H])[H])C([H])([H])[H])C([H])([H])c2c([H])c(OC([H])([H])C([H])([H])[N+]([H])([H])C3([H])c4c(nc(C([H])([H])N([H])C(=O)N5C([H])([H])C([H])([H])C([H])([H])C([H])(n6nc(-c7c([H])c([H])c(Oc8c([H])c([H])c(F)c([H])c8F)c([H])c7[H])c(C(=O)N([H])[H])c6N([H])[H])C5([H])[H])c([H])c4Cl)C([H])([H])C3([H])[H])c([H])c([H])c2C1([H])[H]

$$$$
50:0:0
     RDKit          3D

 87 96  0  0  1  0  0  0  0  0999 V2000
  -29.4040  -23.4310   20.5640 C   0  0  0  0  0  2  0  0  0  0  0  0
  -28.7890  -22.3170   19.7890 C   0  0  0  0  0  3  0  0  0  0  0  0
  -27.9910  -23.9570   20.2460 C   0  0  0  0  0  3  0  0  0  0  0  0
  -30.3910  -15.5520   20.2030 C   0  0  0  0  0  0  0  0  0  0  0  0
  -30.3460  -13.0590   19.3440 C   0  0  0  0  0  2  0  0  0  0  0  0
  -29.4280  -12.7050   18.1470 C   0  0  0  0  0  2  0  0  0  0  0  0
  -28.0060  -12.3860   18.6320 C   0  0  0  0  0  2  0  0  0  0  0  0
  -27.5360  -13.3840   19.7160 C   0  0  0  0  0  3  0  0  0  0  0  0
  -28.5950  -13.6750   20.8030 C   0  0  0  0  0  2  0  0  0  0  0  0
  -29.7640  -14.2500   20.1020 N   0  0  0  0  0  0  0  0  0  0  0  0
  -31.6200  -15.3960   20.0780 O   0  0  0  0  0  0  0  0  0  0  0  0
  -30.6690  -18.2940   20.5690 C   0  0  0  0  0  2  0  0  0  0  0  0
  -28.4760  -17.7690   20.2120 C   0  0  0  0  0  2  0  0  0  0  0  0
  -30.3500  -19.9370   20.1780 C   0  0  0  0  0  2  0  0  0  0  0  0
  -28.1790  -19.4480   19.8560 C   0  0  0  0  0  2  0  0  0  0  0  0
  -29.8410  -16.9980   20.2580 N   0  0  0  0  0  0  0  0  0  0  0  0
  -28.9960  -20.6900   20.3780 N   0  0  2  0  0  4  0  0  0  0  0  0
  -28.8330  -20.7330   21.3720 H   0  0  0  0  0  0  0  0  0  0  0  0
  -25.1950  -13.9160   20.5470 C   0  0  0  0  0  0  0  0  0  0  0  0
  -24.1410  -13.1330   20.9220 C   0  0  0  0  0  0  0  0  0  0  0  0
  -24.6080  -11.7840   20.8630 C   0  0  0  0  0  0  0  0  0  0  0  0
  -26.2310  -13.0470   20.2670 N   0  0  0  0  0  0  0  0  0  0  0  0
  -25.8940  -11.7560   20.5260 N   0  0  0  0  0  0  0  0  0  0  0  0
  -23.8820  -10.5190   21.0450 C   0  0  0  0  0  0  0  0  0  0  0  0
  -24.3160   -9.5420   21.9690 C   0  0  0  0  0  3  0  0  0  0  0  0
  -23.5840   -8.3470   22.1450 C   0  0  0  0  0  3  0  0  0  0  0  0
  -22.4050   -8.1210   21.3960 C   0  0  0  0  0  0  0  0  0  0  0  0
  -21.9890   -9.0860   20.4620 C   0  0  0  0  0  3  0  0  0  0  0  0
  -22.7220  -10.2710   20.2840 C   0  0  0  0  0  3  0  0  0  0  0  0
  -21.6460   -6.9790   21.4810 O   0  0  0  0  0  0  0  0  0  0  0  0
  -21.5880   -6.2360   22.6340 C   0  0  0  0  0  0  0  0  0  0  0  0
  -21.1400   -6.7880   23.8530 C   0  0  0  0  0  3  0  0  0  0  0  0
  -21.0300   -5.9720   24.9970 C   0  0  0  0  0  3  0  0  0  0  0  0
  -21.3580   -4.6060   24.9220 C   0  0  0  0  0  0  0  0  0  0  0  0
  -21.7990   -4.0520   23.7070 C   0  0  0  0  0  3  0  0  0  0  0  0
  -21.9100   -4.8660   22.5650 C   0  0  0  0  0  0  0  0  0  0  0  0
  -22.3150   -4.3230   21.3920 F   0  0  0  0  0  0  0  0  0  0  0  0
  -21.2450   -3.8200   26.0180 F   0  0  0  0  0  0  0  0  0  0  0  0
  -22.7490  -13.6090   21.2170 C   0  0  0  0  0  0  0  0  0  0  0  0
  -22.0310  -12.9040   22.0830 N   0  0  0  0  0  0  0  0  0  0  0  0
  -22.3090  -14.6430   20.7160 O   0  0  0  0  0  0  0  0  0  0  0  0
  -22.4010  -12.0700   22.5140 H   0  0  0  0  0  0  0  0  0  0  0  0
  -21.0980  -13.2070   22.3230 H   0  0  0  0  0  0  0  0  0  0  0  0
  -25.3540  -15.2900   20.3860 N   0  0  0  0  0  0  0  0  0  0  0  0
  -24.5890  -15.9410   20.5280 H   0  0  0  0  0  0  0  0  0  0  0  0
  -26.1960  -15.7320   20.0460 H   0  0  0  0  0  0  0  0  0  0  0  0
  -28.1780  -25.6740   20.2760 O   0  0  0  0  0  0  0  0  0  0  0  0
  -24.6330  -31.8580   23.1930 C   0  0  0  0  0  0  0  0  0  0  0  0
  -27.1800  -26.8350   20.2320 C   0  0  0  0  0  0  0  0  0  0  0  0
  -23.4480  -30.4490   21.5620 C   0  0  0  0  0  3  0  0  0  0  0  0
  -24.9000  -28.8070   20.1630 C   0  0  0  0  0  0  0  0  0  0  0  0
  -26.0230  -30.6190   21.4350 C   0  0  0  0  0  2  0  0  0  0  0  0
  -26.0910  -29.1900   20.7890 C   0  0  0  0  0  0  0  0  0  0  0  0
  -27.2220  -28.2300   20.7910 C   0  0  0  0  0  3  0  0  0  0  0  0
  -25.9520  -26.6390   19.5580 C   0  0  0  0  0  3  0  0  0  0  0  0
  -24.8630  -27.5560   19.5260 C   0  0  0  0  0  3  0  0  0  0  0  0
  -23.6880  -29.7480   20.1960 C   0  0  0  0  0  2  0  0  0  0  0  0
  -24.7240  -31.0070   22.1160 N   0  0  0  0  0  0  0  0  0  0  0  0
  -23.5400  -32.1560   23.7030 O   0  0  0  0  0  0  0  0  0  0  0  0
  -22.7390  -29.4690   22.5370 C   0  0  0  0  0  0  0  0  0  0  0  0
  -21.4060  -29.3170   22.4180 N   0  0  0  0  0  0  0  0  0  0  0  0
  -23.3990  -28.8440   23.3710 O   0  0  0  0  0  0  0  0  0  0  0  0
  -20.9240  -29.8720   21.7230 H   0  0  0  0  0  0  0  0  0  0  0  0
  -18.0170  -28.1230   22.9470 C   0  0  0  0  0  0  0  0  0  0  0  0
  -20.5790  -28.3860   23.1960 C   0  0  0  0  0  3  0  0  0  0  0  0
  -20.6730  -26.9510   22.6260 C   0  0  0  0  0  2  0  0  0  0  0  0
  -19.5660  -26.6280   21.6170 C   0  0  0  0  0  2  0  0  0  0  0  0
  -18.1870  -26.7750   22.2690 C   0  0  0  0  0  2  0  0  0  0  0  0
  -19.1400  -28.8860   23.3680 C   0  0  0  0  0  0  0  0  0  0  0  0
  -18.9230  -30.1460   23.9680 C   0  0  0  0  0  3  0  0  0  0  0  0
  -17.6180  -30.6440   24.1470 C   0  0  0  0  0  3  0  0  0  0  0  0
  -16.5110  -29.8800   23.7390 C   0  0  0  0  0  3  0  0  0  0  0  0
  -16.7110  -28.6210   23.1450 C   0  0  0  0  0  3  0  0  0  0  0  0
  -25.8960  -32.5120   23.8290 C   0  0  0  0  0  3  0  0  0  0  0  0
  -26.3960  -31.7580   25.1240 C   0  0  1  0  0  0  0  0  0  0  0  0
  -25.2890  -31.5360   26.1840 C   0  0  0  0  0  1  0  0  0  0  0  0
  -26.9840  -30.3750   24.7700 C   0  0  0  0  0  1  0  0  0  0  0  0
  -27.5380  -32.5630   25.7900 C   0  0  0  0  0  1  0  0  0  0  0  0
  -25.5700  -33.9130   24.1580 N   0  0  0  0  0  0  0  0  0  0  0  0
  -25.8890  -34.9760   23.4090 C   0  0  0  0  0  0  0  0  0  0  0  0
  -26.5490  -34.8820   22.3710 O   0  0  0  0  0  0  0  0  0  0  0  0
  -24.9790  -34.0580   24.9640 H   0  0  0  0  0  0  0  0  0  0  0  0
  -24.1460  -36.7690   23.1000 C   0  0  0  0  0  1  0  0  0  0  0  0
  -25.4050  -36.3640   23.8820 C   0  0  0  0  0  3  0  0  0  0  0  0
  -27.5490  -37.2670   24.6740 C   0  0  0  0  0  1  0  0  0  0  0  0
  -26.4300  -37.4240   23.7480 N   0  0  0  0  0  0  0  0  0  0  0  0
  -26.0200  -38.3420   23.8980 H   0  0  0  0  0  0  0  0  0  0  0  0
  2  3  1  0
  2 17  1  0
  2  1  1  0
  3 47  1  0
  3  1  1  0
  4 16  1  0
  5 10  1  0
  6  7  1  0
  6  5  1  0
  8  7  1  0
  8 22  1  0
  8  9  1  0
 10  4  1  0
 10  9  1  0
 11  4  2  0
 13 16  1  0
 14 17  1  0
 14 12  1  0
 15 13  1  0
 15 17  1  0
 16 12  1  0
 17 18  1  1
 19 20  2  0
 20 39  1  0
 21 20  1  0
 21 24  1  0
 22 23  1  0
 22 19  1  0
 23 21  2  0
 24 25  1  0
 25 26  2  0
 27 30  1  0
 27 26  1  0
 28 27  2  0
 29 28  1  0
 29 24  2  0
 30 31  1  0
 31 32  1  0
 32 33  2  0
 34 33  1  0
 34 38  1  0
 35 34  2  0
 36 31  2  0
 36 35  1  0
 37 36  1  0
 39 40  1  0
 40 43  1  0
 40 42  1  0
 41 39  2  0
 44 45  1  0
 44 19  1  0
 46 44  1  0
 48 59  2  0
 49 47  1  0
 49 54  1  0
 50 58  1  0
 50 60  1  0
 51 57  1  0
 51 53  1  0
 52 58  1  0
 53 54  2  0
 53 52  1  0
 55 49  2  0
 56 55  1  0
 56 51  2  0
 57 50  1  0
 58 48  1  0
 60 62  2  0
 61 60  1  0
 63 61  1  0
 64 73  2  0
 64 69  1  0
 65 61  1  0
 65 69  1  0
 66 65  1  0
 67 68  1  0
 67 66  1  0
 68 64  1  0
 69 70  2  0
 70 71  1  0
 72 71  2  0
 73 72  1  0
 74 48  1  0
 74 79  1  0
 74 75  1  0
 75 78  1  1
 75 76  1  0
 77 75  1  0
 79 82  1  0
 80 84  1  0
 80 79  1  0
 81 80  2  0
 84 83  1  0
 86 84  1  0
 86 87  1  0
 86 85  1  0
M  ISO  4   3 101   4 100  16 100  47 101
M  END
>  <TORSDO>  (51) 
F 16

>  <SCORE>  (51) 
-16.719

>  <name>  (51) 
50

>  <ligand_id>  (51) 
50

>  <original_smiles>  (51) 
[H]c1c([H])c([H])c2c(c1[H])C([H])([H])C([H])([H])C([H])([H])C2([H])N([H])C(=O)C1([H])N(C(=O)C([H])(N([H])C(=O)C([H])(N([H])C([H])([H])[H])C([H])([H])[H])C(C([H])([H])[H])(C([H])([H])[H])C([H])([H])[H])C([H])([H])c2c([H])c(OC3([H])C([H])([H])C3([H])[N+]3([H])C([H])([H])C([H])([H])N(C(=O)N4C([H])([H])C([H])([H])C([H])([H])C([H])(n5nc(-c6c([H])c([H])c(Oc7c([H])c([H])c(F)c([H])c7F)c([H])c6[H])c(C(=O)N([H])[H])c5N([H])[H])C4([H])[H])C([H])([H])C3([H])[H])c([H])c([H])c2C1([H])[H]

>  <smiles>  (51) 
[H]c1c([H])c([H])c2c(c1[H])C([H])([H])C([H])([H])C([H])([H])C2([H])N([H])C(=O)C1([H])N(C(=O)C([H])(N([H])C(=O)C([H])(N([H])C([H])([H])[H])C([H])([H])[H])C(C([H])([H])[H])(C([H])([H])[H])C([H])([H])[H])C([H])([H])c2c([H])c(OC3([H])C([H])([H])C3([H])[N+]3([H])C([H])([H])C([H])([H])N(C(=O)N4C([H])([H])C([H])([H])C([H])([H])C([H])(n5nc(-c6c([H])c([H])c(Oc7c([H])c([H])c(F)c([H])c7F)c([H])c6[H])c(C(=O)N([H])[H])c5N([H])[H])C4([H])[H])C([H])([H])C3([H])[H])c([H])c([H])c2C1([H])[H]

$$$$
51:0:0
     RDKit          3D

 96105  0  0  1  0  0  0  0  0999 V2000
  -30.9410  -18.1170   21.2160 C   0  0  0  0  0  0  0  0  0  0  0  0
  -30.0460  -18.1610   20.0980 C   0  0  0  0  0  0  0  0  0  0  0  0
  -29.7400  -19.5910   19.6170 C   0  0  0  0  0  0  0  0  0  0  0  0
  -31.8990  -19.1560   21.3250 C   0  0  0  0  0  0  0  0  0  0  0  0
  -30.9210  -20.3860   19.6330 C   0  0  0  0  0  0  0  0  0  0  0  0
  -32.9670  -19.2550   22.3990 C   0  0  0  0  0  1  0  0  0  0  0  0
  -31.1180  -21.6280   18.7910 C   0  0  0  0  0  1  0  0  0  0  0  0
  -31.9670  -20.1560   20.4360 N   0  0  0  0  0  0  0  0  0  0  0  0
  -30.4660  -15.5320   19.6030 C   0  0  0  0  0  0  0  0  0  0  0  0
  -30.4770  -13.0710   18.9190 C   0  0  0  0  0  2  0  0  0  0  0  0
  -29.5020  -12.7710   17.7620 C   0  0  0  0  0  2  0  0  0  0  0  0
  -28.0830  -12.4970   18.2980 C   0  0  0  0  0  2  0  0  0  0  0  0
  -27.6540  -13.5250   19.3780 C   0  0  0  0  0  3  0  0  0  0  0  0
  -28.7580  -13.7740   20.4230 C   0  0  0  0  0  2  0  0  0  0  0  0
  -29.9370  -14.2370   19.6810 N   0  0  0  0  0  0  0  0  0  0  0  0
  -31.6620  -15.5910   19.2890 O   0  0  0  0  0  0  0  0  0  0  0  0
  -29.6630  -16.7350   19.6510 N   0  0  0  0  0  0  0  0  0  0  0  0
  -28.6720  -16.5940   19.5450 H   0  0  0  0  0  0  0  0  0  0  0  0
  -25.3400  -14.0410   20.3450 C   0  0  0  0  0  0  0  0  0  0  0  0
  -24.3230  -13.2350   20.7730 C   0  0  0  0  0  0  0  0  0  0  0  0
  -24.8010  -11.8940   20.6530 C   0  0  0  0  0  0  0  0  0  0  0  0
  -26.3700  -13.1880   19.9830 N   0  0  0  0  0  0  0  0  0  0  0  0
  -26.0620  -11.8930   20.2360 N   0  0  0  0  0  0  0  0  0  0  0  0
  -24.1120  -10.6140   20.8500 C   0  0  0  0  0  0  0  0  0  0  0  0
  -24.5470   -9.6730   21.8130 C   0  0  0  0  0  3  0  0  0  0  0  0
  -23.8430   -8.4640   21.9980 C   0  0  0  0  0  3  0  0  0  0  0  0
  -22.6950   -8.1820   21.2220 C   0  0  0  0  0  0  0  0  0  0  0  0
  -22.2780   -9.1130   20.2520 C   0  0  0  0  0  3  0  0  0  0  0  0
  -22.9810  -10.3150   20.0650 C   0  0  0  0  0  3  0  0  0  0  0  0
  -21.9660   -7.0210   21.3180 O   0  0  0  0  0  0  0  0  0  0  0  0
  -21.7900   -6.3810   22.5170 C   0  0  0  0  0  0  0  0  0  0  0  0
  -21.1650   -7.0150   23.6160 C   0  0  0  0  0  3  0  0  0  0  0  0
  -20.9390   -6.2960   24.8060 C   0  0  0  0  0  3  0  0  0  0  0  0
  -21.3280   -4.9460   24.8980 C   0  0  0  0  0  0  0  0  0  0  0  0
  -21.9430   -4.3140   23.8060 C   0  0  0  0  0  3  0  0  0  0  0  0
  -22.1720   -5.0290   22.6170 C   0  0  0  0  0  0  0  0  0  0  0  0
  -22.7460   -4.4090   21.5580 F   0  0  0  0  0  0  0  0  0  0  0  0
  -21.1030   -4.2520   26.0400 F   0  0  0  0  0  0  0  0  0  0  0  0
  -22.9450  -13.6840   21.1680 C   0  0  0  0  0  0  0  0  0  0  0  0
  -22.2960  -12.9670   22.0730 N   0  0  0  0  0  0  0  0  0  0  0  0
  -22.4610  -14.7180   20.7090 O   0  0  0  0  0  0  0  0  0  0  0  0
  -22.6970  -12.1350   22.4840 H   0  0  0  0  0  0  0  0  0  0  0  0
  -21.3780  -13.2670   22.3740 H   0  0  0  0  0  0  0  0  0  0  0  0
  -25.4590  -15.4200   20.2080 N   0  0  0  0  0  0  0  0  0  0  0  0
  -24.6830  -16.0350   20.4300 H   0  0  0  0  0  0  0  0  0  0  0  0
  -26.2390  -15.9080   19.7880 H   0  0  0  0  0  0  0  0  0  0  0  0
  -31.6570  -16.5740   23.3840 C   0  0  0  0  0  2  0  0  0  0  0  0
  -31.3050  -15.6490   22.2540 C   0  0  0  0  0  2  0  0  0  0  0  0
  -30.7120  -17.0420   22.2860 C   0  0  0  0  0  3  0  0  0  0  0  0
  -28.4720  -20.3840   19.4800 N   0  0  0  0  0  0  0  0  0  0  0  0
  -27.6570  -19.8040   19.6590 H   0  0  0  0  0  0  0  0  0  0  0  0
  -26.6140  -21.5700   18.3420 C   0  0  0  0  0  1  0  0  0  0  0  0
  -28.0310  -21.8040   18.8800 C   0  0  0  0  0  3  0  0  0  0  0  0
  -28.0250  -23.3710   19.6140 C   0  0  0  0  0  2  0  0  0  0  0  0
  -27.3090  -24.8260   18.9950 C   0  0  0  0  0  2  0  0  0  0  0  0
  -27.5590  -26.3700   19.2990 O   0  0  0  0  0  0  0  0  0  0  0  0
  -24.6170  -31.9470   23.2310 C   0  0  0  0  0  0  0  0  0  0  0  0
  -26.5420  -27.4100   19.4470 C   0  0  0  0  0  0  0  0  0  0  0  0
  -23.1400  -30.7230   21.6820 C   0  0  0  0  0  3  0  0  0  0  0  0
  -24.3030  -29.2430   19.9230 C   0  0  0  0  0  0  0  0  0  0  0  0
  -25.6540  -30.9240   21.1630 C   0  0  0  0  0  2  0  0  0  0  0  0
  -25.5780  -29.5910   20.3870 C   0  0  0  0  0  0  0  0  0  0  0  0
  -26.6900  -28.6910   20.1390 C   0  0  0  0  0  3  0  0  0  0  0  0
  -25.2400  -27.1920   18.9430 C   0  0  0  0  0  3  0  0  0  0  0  0
  -24.1490  -28.0600   19.1850 C   0  0  0  0  0  3  0  0  0  0  0  0
  -23.1310  -30.1650   20.2350 C   0  0  0  0  0  2  0  0  0  0  0  0
  -24.4990  -31.2180   22.0780 N   0  0  0  0  0  0  0  0  0  0  0  0
  -23.6290  -32.2120   23.9350 O   0  0  0  0  0  0  0  0  0  0  0  0
  -22.5710  -29.6570   22.6520 C   0  0  0  0  0  0  0  0  0  0  0  0
  -21.2710  -29.3360   22.5220 N   0  0  0  0  0  0  0  0  0  0  0  0
  -23.3050  -29.1190   23.4850 O   0  0  0  0  0  0  0  0  0  0  0  0
  -20.7310  -29.8240   21.8220 H   0  0  0  0  0  0  0  0  0  0  0  0
  -18.1270  -27.5620   22.8360 C   0  0  0  0  0  0  0  0  0  0  0  0
  -20.5580  -28.3190   23.2990 C   0  0  0  0  0  3  0  0  0  0  0  0
  -20.9750  -26.8950   22.8610 C   0  0  0  0  0  2  0  0  0  0  0  0
  -20.0570  -26.3000   21.7890 C   0  0  0  0  0  2  0  0  0  0  0  0
  -18.6140  -26.2270   22.2960 C   0  0  0  0  0  2  0  0  0  0  0  0
  -19.0410  -28.5490   23.2920 C   0  0  0  0  0  0  0  0  0  0  0  0
  -18.5360  -29.7840   23.7550 C   0  0  0  0  0  3  0  0  0  0  0  0
  -17.1520  -30.0380   23.7670 C   0  0  0  0  0  3  0  0  0  0  0  0
  -16.2520  -29.0520   23.3310 C   0  0  0  0  0  3  0  0  0  0  0  0
  -16.7390  -27.8150   22.8700 C   0  0  0  0  0  3  0  0  0  0  0  0
  -25.9940  -32.4980   23.7090 C   0  0  0  0  0  3  0  0  0  0  0  0
  -25.7970  -33.8880   24.1480 N   0  0  0  0  0  0  0  0  0  0  0  0
  -26.1160  -34.9710   23.4270 C   0  0  0  0  0  0  0  0  0  0  0  0
  -26.6740  -34.9010   22.3290 O   0  0  0  0  0  0  0  0  0  0  0  0
  -25.3000  -34.0220   25.0160 H   0  0  0  0  0  0  0  0  0  0  0  0
  -24.4810  -36.8800   23.3550 C   0  0  0  0  0  1  0  0  0  0  0  0
  -25.7630  -36.3510   24.0170 C   0  0  0  0  0  3  0  0  0  0  0  0
  -28.0100  -37.0590   24.7080 C   0  0  0  0  0  1  0  0  0  0  0  0
  -26.8460  -37.3490   23.8740 N   0  0  0  0  0  0  0  0  0  0  0  0
  -26.5110  -38.2800   24.1110 H   0  0  0  0  0  0  0  0  0  0  0  0
  -26.6310  -31.6440   24.8740 C   0  0  1  0  0  0  0  0  0  0  0  0
  -25.6610  -31.3780   26.0490 C   0  0  0  0  0  1  0  0  0  0  0  0
  -27.1190  -30.2750   24.3480 C   0  0  0  0  0  1  0  0  0  0  0  0
  -27.8790  -32.3680   25.4310 C   0  0  0  0  0  1  0  0  0  0  0  0
  1  4  1  0
  1 49  1  0
  2  1  2  0
  3  5  2  0
  3  2  1  0
  4  6  1  0
  5  8  1  0
  7  5  1  0
  8  4  2  0
  9 17  1  0
  9 15  1  0
 10 15  1  0
 11 12  1  0
 11 10  1  0
 13 12  1  0
 13 22  1  0
 13 14  1  0
 15 14  1  0
 16  9  2  0
 17  2  1  0
 18 17  1  0
 19 20  2  0
 20 39  1  0
 21 20  1  0
 21 24  1  0
 22 23  1  0
 22 19  1  0
 23 21  2  0
 24 25  1  0
 25 26  2  0
 27 30  1  0
 27 26  1  0
 28 27  2  0
 29 28  1  0
 29 24  2  0
 30 31  1  0
 31 36  2  0
 31 32  1  0
 32 33  2  0
 33 34  1  0
 34 38  1  0
 35 34  2  0
 36 35  1  0
 37 36  1  0
 39 40  1  0
 40 43  1  0
 40 42  1  0
 41 39  2  0
 44 19  1  0
 44 45  1  0
 46 44  1  0
 48 49  1  0
 48 47  1  0
 49 47  1  0
 50  3  1  0
 50 51  1  0
 53 52  1  0
 53 50  1  0
 53 54  1  0
 55 56  1  0
 55 54  1  0
 56 58  1  0
 57 68  2  0
 58 63  1  0
 59 67  1  0
 59 69  1  0
 60 66  1  0
 60 62  1  0
 61 67  1  0
 62 61  1  0
 63 62  2  0
 64 65  1  0
 64 58  2  0
 65 60  2  0
 66 59  1  0
 67 57  1  0
 69 71  2  0
 70 69  1  0
 72 70  1  0
 73 82  2  0
 73 78  1  0
 74 70  1  0
 75 74  1  0
 76 77  1  0
 76 75  1  0
 77 73  1  0
 78 74  1  0
 78 79  2  0
 79 80  1  0
 81 80  2  0
 82 81  1  0
 83 57  1  0
 83 84  1  0
 83 93  1  0
 84 87  1  0
 85 89  1  0
 85 84  1  0
 86 85  2  0
 89 88  1  0
 91 89  1  0
 91 92  1  0
 91 90  1  0
 93 96  1  1
 93 94  1  0
 95 93  1  0
M  ISO  4   9 100  17 100  55 101  56 101
M  END
>  <TORSDO>  (52) 
F 21

>  <SCORE>  (52) 
-11.222

>  <name>  (52) 
51

>  <ligand_id>  (52) 
51

>  <original_smiles>  (52) 
[H]c1c([H])c([H])c2c(c1[H])C([H])([H])C([H])([H])C([H])([H])C2([H])N([H])C(=O)C1([H])N(C(=O)C([H])(N([H])C(=O)C([H])(N([H])C([H])([H])[H])C([H])([H])[H])C(C([H])([H])[H])(C([H])([H])[H])C([H])([H])[H])C([H])([H])c2c([H])c(OC([H])([H])C([H])([H])C([H])(N([H])c3c(C([H])([H])[H])nc(C([H])([H])[H])c(C4([H])C([H])([H])C4([H])[H])c3N([H])C(=O)N3C([H])([H])C([H])([H])C([H])([H])C([H])(n4nc(-c5c([H])c([H])c(Oc6c([H])c([H])c(F)c([H])c6F)c([H])c5[H])c(C(=O)N([H])[H])c4N([H])[H])C3([H])[H])C([H])([H])[H])c([H])c([H])c2C1([H])[H]

>  <smiles>  (52) 
[H]c1c([H])c([H])c2c(c1[H])C([H])([H])C([H])([H])C([H])([H])C2([H])N([H])C(=O)C1([H])N(C(=O)C([H])(N([H])C(=O)C([H])(N([H])C([H])([H])[H])C([H])([H])[H])C(C([H])([H])[H])(C([H])([H])[H])C([H])([H])[H])C([H])([H])c2c([H])c(OC([H])([H])C([H])([H])C([H])(N([H])c3c(C([H])([H])[H])nc(C([H])([H])[H])c(C4([H])C([H])([H])C4([H])[H])c3N([H])C(=O)N3C([H])([H])C([H])([H])C([H])([H])C([H])(n4nc(-c5c([H])c([H])c(Oc6c([H])c([H])c(F)c([H])c6F)c([H])c5[H])c(C(=O)N([H])[H])c4N([H])[H])C3([H])[H])C([H])([H])[H])c([H])c([H])c2C1([H])[H]

$$$$
52:0:0
     RDKit          3D

 93102  0  0  1  0  0  0  0  0999 V2000
  -29.1110  -23.6230   19.8130 C   0  0  0  0  0  0  0  0  0  0  0  0
  -28.7670  -22.1880   20.1610 C   0  0  0  0  0  0  0  0  0  0  0  0
  -28.2270  -24.8030   20.1410 C   0  0  0  0  0  0  0  0  0  0  0  0
  -26.8410  -23.1800   21.0550 C   0  0  0  0  0  0  0  0  0  0  0  0
  -30.4230  -23.9600   19.1290 C   0  0  0  0  0  1  0  0  0  0  0  0
  -25.5390  -22.9160   21.7830 C   0  0  0  0  0  1  0  0  0  0  0  0
  -27.5840  -22.1020   20.7930 N   0  0  0  0  0  0  0  0  0  0  0  0
  -27.0940  -24.4600   20.7770 N   0  0  0  0  0  0  0  0  0  0  0  0
  -29.2720  -19.4500   20.5570 C   0  0  0  0  0  0  0  0  0  0  0  0
  -28.3530  -19.1220   21.4790 C   0  0  0  0  0  2  0  0  0  0  0  0
  -30.5110  -18.9760   18.6400 C   0  0  0  0  0  2  0  0  0  0  0  0
  -30.3580  -20.5450   18.8550 C   0  0  0  0  0  2  0  0  0  0  0  0
  -30.2730  -18.2820   20.0000 C   0  0  0  0  0  3  0  0  0  0  0  0
  -29.4210  -20.8100   19.9560 N   0  0  0  0  0  0  0  0  0  0  0  0
  -30.8120  -15.4650   19.8560 C   0  0  0  0  0  0  0  0  0  0  0  0
  -30.7430  -13.0690   18.9380 C   0  0  0  0  0  2  0  0  0  0  0  0
  -29.7410  -12.9210   17.7670 C   0  0  0  0  0  2  0  0  0  0  0  0
  -28.3220  -12.6450   18.2940 C   0  0  0  0  0  2  0  0  0  0  0  0
  -27.9420  -13.5740   19.4750 C   0  0  0  0  0  3  0  0  0  0  0  0
  -29.0620  -13.6780   20.5320 C   0  0  0  0  0  2  0  0  0  0  0  0
  -30.2570  -14.1710   19.8330 N   0  0  0  0  0  0  0  0  0  0  0  0
  -32.0070  -15.5250   19.5380 O   0  0  0  0  0  0  0  0  0  0  0  0
  -30.0220  -16.6720   20.0340 N   0  0  0  0  0  0  0  0  0  0  0  0
  -29.0570  -16.4470   20.2270 H   0  0  0  0  0  0  0  0  0  0  0  0
  -25.6240  -14.0800   20.4220 C   0  0  0  0  0  0  0  0  0  0  0  0
  -24.5970  -13.2750   20.8290 C   0  0  0  0  0  0  0  0  0  0  0  0
  -25.0700  -11.9320   20.6980 C   0  0  0  0  0  0  0  0  0  0  0  0
  -26.6530  -13.2270   20.0610 N   0  0  0  0  0  0  0  0  0  0  0  0
  -26.3360  -11.9270   20.2940 N   0  0  0  0  0  0  0  0  0  0  0  0
  -24.3680  -10.6540   20.8770 C   0  0  0  0  0  0  0  0  0  0  0  0
  -24.7760   -9.7150   21.8480 C   0  0  0  0  0  3  0  0  0  0  0  0
  -24.0700   -8.5040   22.0150 C   0  0  0  0  0  3  0  0  0  0  0  0
  -22.9410   -8.2230   21.2080 C   0  0  0  0  0  0  0  0  0  0  0  0
  -22.5520   -9.1520   20.2280 C   0  0  0  0  0  3  0  0  0  0  0  0
  -23.2590  -10.3550   20.0590 C   0  0  0  0  0  3  0  0  0  0  0  0
  -22.2100   -7.0620   21.2820 O   0  0  0  0  0  0  0  0  0  0  0  0
  -21.9930   -6.4230   22.4770 C   0  0  0  0  0  0  0  0  0  0  0  0
  -21.3450   -7.0620   23.5560 C   0  0  0  0  0  3  0  0  0  0  0  0
  -21.0790   -6.3460   24.7410 C   0  0  0  0  0  3  0  0  0  0  0  0
  -21.4520   -4.9920   24.8460 C   0  0  0  0  0  0  0  0  0  0  0  0
  -22.0930   -4.3530   23.7700 C   0  0  0  0  0  3  0  0  0  0  0  0
  -22.3590   -5.0660   22.5880 C   0  0  0  0  0  0  0  0  0  0  0  0
  -22.9580   -4.4400   21.5470 F   0  0  0  0  0  0  0  0  0  0  0  0
  -21.1900   -4.3030   25.9810 F   0  0  0  0  0  0  0  0  0  0  0  0
  -23.2200  -13.7230   21.2170 C   0  0  0  0  0  0  0  0  0  0  0  0
  -22.5590  -12.9800   22.0990 N   0  0  0  0  0  0  0  0  0  0  0  0
  -22.7390  -14.7670   20.7780 O   0  0  0  0  0  0  0  0  0  0  0  0
  -22.9620  -12.1350   22.4760 H   0  0  0  0  0  0  0  0  0  0  0  0
  -21.6370  -13.2610   22.4020 H   0  0  0  0  0  0  0  0  0  0  0  0
  -25.7620  -15.4590   20.2980 N   0  0  0  0  0  0  0  0  0  0  0  0
  -24.9950  -16.0940   20.4920 H   0  0  0  0  0  0  0  0  0  0  0  0
  -26.5640  -15.9240   19.8940 H   0  0  0  0  0  0  0  0  0  0  0  0
  -28.3900  -26.2920   19.9440 O   0  0  0  0  0  0  0  0  0  0  0  0
  -24.7680  -31.9520   23.2660 C   0  0  0  0  0  0  0  0  0  0  0  0
  -27.3520  -27.3340   19.9930 C   0  0  0  0  0  0  0  0  0  0  0  0
  -23.5810  -30.6510   21.5440 C   0  0  0  0  0  3  0  0  0  0  0  0
  -25.0370  -29.1490   20.0380 C   0  0  0  0  0  0  0  0  0  0  0  0
  -26.1410  -30.8990   21.4160 C   0  0  0  0  0  2  0  0  0  0  0  0
  -26.2170  -29.5360   20.6890 C   0  0  0  0  0  0  0  0  0  0  0  0
  -27.3700  -28.6470   20.6500 C   0  0  0  0  0  3  0  0  0  0  0  0
  -26.1500  -27.0870   19.2930 C   0  0  0  0  0  3  0  0  0  0  0  0
  -25.0220  -27.9410   19.3250 C   0  0  0  0  0  3  0  0  0  0  0  0
  -23.8140  -30.0520   20.1300 C   0  0  0  0  0  2  0  0  0  0  0  0
  -24.8500  -31.1890   22.1300 N   0  0  0  0  0  0  0  0  0  0  0  0
  -23.6770  -32.2070   23.8010 O   0  0  0  0  0  0  0  0  0  0  0  0
  -22.8910  -29.5950   22.4460 C   0  0  0  0  0  0  0  0  0  0  0  0
  -21.5640  -29.4300   22.3030 N   0  0  0  0  0  0  0  0  0  0  0  0
  -23.5570  -28.9260   23.2410 O   0  0  0  0  0  0  0  0  0  0  0  0
  -21.0810  -30.0210   21.6410 H   0  0  0  0  0  0  0  0  0  0  0  0
  -18.1730  -28.2300   22.7670 C   0  0  0  0  0  0  0  0  0  0  0  0
  -20.7390  -28.4490   23.0150 C   0  0  0  0  0  3  0  0  0  0  0  0
  -20.8180  -27.0600   22.3370 C   0  0  0  0  0  2  0  0  0  0  0  0
  -19.6990  -26.8220   21.3190 C   0  0  0  0  0  2  0  0  0  0  0  0
  -18.3270  -26.9330   21.9900 C   0  0  0  0  0  2  0  0  0  0  0  0
  -19.3060  -28.9490   23.2350 C   0  0  0  0  0  0  0  0  0  0  0  0
  -19.1070  -30.1640   23.9250 C   0  0  0  0  0  3  0  0  0  0  0  0
  -17.8100  -30.6600   24.1490 C   0  0  0  0  0  3  0  0  0  0  0  0
  -16.6920  -29.9380   23.6960 C   0  0  0  0  0  3  0  0  0  0  0  0
  -16.8750  -28.7240   23.0110 C   0  0  0  0  0  3  0  0  0  0  0  0
  -26.0380  -32.5560   23.9370 C   0  0  0  0  0  3  0  0  0  0  0  0
  -25.7270  -33.9400   24.3280 N   0  0  0  0  0  0  0  0  0  0  0  0
  -26.0450  -35.0290   23.6150 C   0  0  0  0  0  0  0  0  0  0  0  0
  -26.6950  -34.9720   22.5680 O   0  0  0  0  0  0  0  0  0  0  0  0
  -25.1470  -34.0580   25.1460 H   0  0  0  0  0  0  0  0  0  0  0  0
  -24.2900  -36.8230   23.4020 C   0  0  0  0  0  1  0  0  0  0  0  0
  -25.5680  -36.3970   24.1440 C   0  0  0  0  0  3  0  0  0  0  0  0
  -27.7220  -37.2790   24.9270 C   0  0  0  0  0  1  0  0  0  0  0  0
  -26.5860  -37.4640   24.0270 N   0  0  0  0  0  0  0  0  0  0  0  0
  -26.1770  -38.3750   24.2150 H   0  0  0  0  0  0  0  0  0  0  0  0
  -26.5270  -31.7310   25.1930 C   0  0  1  0  0  0  0  0  0  0  0  0
  -25.4130  -31.4530   26.2290 C   0  0  0  0  0  1  0  0  0  0  0  0
  -27.1160  -30.3680   24.7630 C   0  0  0  0  0  1  0  0  0  0  0  0
  -27.6670  -32.4950   25.9080 C   0  0  0  0  0  1  0  0  0  0  0  0
  1  3  1  0
  1  2  2  0
  2  7  1  0
  3  8  2  0
  4  6  1  0
  5  1  1  0
  7  4  2  0
  8  4  1  0
  9 10  2  0
 11 12  1  0
 11 13  1  0
 12 14  1  0
 13 23  1  0
 13  9  1  0
 14  2  1  0
 14  9  1  0
 15 23  1  0
 16 21  1  0
 17 18  1  0
 17 16  1  0
 19 18  1  0
 19 28  1  0
 19 20  1  0
 21 15  1  0
 21 20  1  0
 22 15  2  0
 23 24  1  0
 25 26  2  0
 26 45  1  0
 27 26  1  0
 27 30  1  0
 28 29  1  0
 28 25  1  0
 29 27  2  0
 30 31  1  0
 31 32  2  0
 33 36  1  0
 33 32  1  0
 34 33  2  0
 35 34  1  0
 35 30  2  0
 36 37  1  0
 37 42  2  0
 37 38  1  0
 38 39  2  0
 39 40  1  0
 40 44  1  0
 41 40  2  0
 42 41  1  0
 43 42  1  0
 45 46  1  0
 46 49  1  0
 46 48  1  0
 47 45  2  0
 50 25  1  0
 50 51  1  0
 52 50  1  0
 53 55  1  0
 53  3  1  0
 54 65  2  0
 55 60  1  0
 56 64  1  0
 56 66  1  0
 57 63  1  0
 57 59  1  0
 58 64  1  0
 59 58  1  0
 60 59  2  0
 61 62  1  0
 61 55  2  0
 62 57  2  0
 63 56  1  0
 64 54  1  0
 66 68  2  0
 67 66  1  0
 69 67  1  0
 70 79  2  0
 70 75  1  0
 71 67  1  0
 71 75  1  0
 72 71  1  0
 73 74  1  0
 73 72  1  0
 74 70  1  0
 75 76  2  0
 76 77  1  0
 78 77  2  0
 79 78  1  0
 80 54  1  0
 80 81  1  0
 80 90  1  0
 81 84  1  0
 82 86  1  0
 82 81  1  0
 83 82  2  0
 86 85  1  0
 88 86  1  0
 88 89  1  0
 88 87  1  0
 90 93  1  1
 90 91  1  0
 92 90  1  0
M  ISO  4   3 101  15 100  23 100  53 101
M  END
>  <TORSDO>  (53) 
F 17

>  <SCORE>  (53) 
-12.518

>  <name>  (53) 
52

>  <ligand_id>  (53) 
52

>  <original_smiles>  (53) 
[H]C([H])=C1N(c2nc(C([H])([H])[H])nc(Oc3c([H])c([H])c4c(c3[H])C([H])([H])N(C(=O)C([H])(N([H])C(=O)C([H])(N([H])C([H])([H])[H])C([H])([H])[H])C(C([H])([H])[H])(C([H])([H])[H])C([H])([H])[H])C([H])(C(=O)N([H])C3([H])c5c([H])c([H])c([H])c([H])c5C([H])([H])C([H])([H])C3([H])[H])C4([H])[H])c2C([H])([H])[H])C([H])([H])C([H])([H])C1([H])N([H])C(=O)N1C([H])([H])C([H])([H])C([H])([H])C([H])(n2nc(-c3c([H])c([H])c(Oc4c([H])c([H])c(F)c([H])c4F)c([H])c3[H])c(C(=O)N([H])[H])c2N([H])[H])C1([H])[H]

>  <smiles>  (53) 
[H]C([H])=C1N(c2nc(C([H])([H])[H])nc(Oc3c([H])c([H])c4c(c3[H])C([H])([H])N(C(=O)C([H])(N([H])C(=O)C([H])(N([H])C([H])([H])[H])C([H])([H])[H])C(C([H])([H])[H])(C([H])([H])[H])C([H])([H])[H])C([H])(C(=O)N([H])C3([H])c5c([H])c([H])c([H])c([H])c5C([H])([H])C([H])([H])C3([H])[H])C4([H])[H])c2C([H])([H])[H])C([H])([H])C([H])([H])C1([H])N([H])C(=O)N1C([H])([H])C([H])([H])C([H])([H])C([H])(n2nc(-c3c([H])c([H])c(Oc4c([H])c([H])c(F)c([H])c4F)c([H])c3[H])c(C(=O)N([H])[H])c2N([H])[H])C1([H])[H]

$$$$
53:0:0
     RDKit          3D

 90 99  0  0  1  0  0  0  0  0999 V2000
  -29.1900  -21.6020   20.4870 C   0  0  0  0  0  0  0  0  0  0  0  0
  -30.9750  -20.6830   21.5420 C   0  0  0  0  0  0  0  0  0  0  0  0
  -29.6790  -19.2080   20.4470 C   0  0  0  0  0  0  0  0  0  0  0  0
  -32.2080  -20.9220   22.3850 C   0  0  0  0  0  1  0  0  0  0  0  0
  -30.2900  -21.7760   21.2120 N   0  0  0  0  0  4  0  0  0  0  0  0
  -28.8650  -20.2950   20.0590 N   0  0  0  0  0  0  0  0  0  0  0  0
  -30.7320  -19.4130   21.2250 N   0  0  0  0  0  2  0  0  0  0  0  0
  -28.5520  -24.1410   21.3060 C   0  0  0  0  0  2  0  0  0  0  0  0
  -28.2490  -23.0020   20.4050 C   0  0  0  0  0  3  0  0  0  0  0  0
  -28.3980  -24.6390   19.8710 C   0  0  0  0  0  3  0  0  0  0  0  0
  -28.2770  -26.1570   20.3180 O   0  0  0  0  0  0  0  0  0  0  0  0
  -24.6320  -31.8750   23.2260 C   0  0  0  0  0  0  0  0  0  0  0  0
  -27.1940  -27.1140   20.2120 C   0  0  0  0  0  0  0  0  0  0  0  0
  -23.4280  -30.4770   21.5890 C   0  0  0  0  0  3  0  0  0  0  0  0
  -24.8680  -28.8790   20.1690 C   0  0  0  0  0  0  0  0  0  0  0  0
  -25.9830  -30.7210   21.4290 C   0  0  0  0  0  2  0  0  0  0  0  0
  -26.0470  -29.3240   20.7790 C   0  0  0  0  0  0  0  0  0  0  0  0
  -27.2040  -28.4550   20.7840 C   0  0  0  0  0  3  0  0  0  0  0  0
  -25.9920  -26.7690   19.5630 C   0  0  0  0  0  3  0  0  0  0  0  0
  -24.8560  -27.6180   19.5440 C   0  0  0  0  0  3  0  0  0  0  0  0
  -23.6450  -29.7850   20.2150 C   0  0  0  0  0  2  0  0  0  0  0  0
  -24.7010  -31.0490   22.1360 N   0  0  0  0  0  0  0  0  0  0  0  0
  -23.5470  -32.1670   23.7530 O   0  0  0  0  0  0  0  0  0  0  0  0
  -22.7420  -29.4810   22.5600 C   0  0  0  0  0  0  0  0  0  0  0  0
  -21.4140  -29.3140   22.4310 N   0  0  0  0  0  0  0  0  0  0  0  0
  -23.4090  -28.8600   23.3920 O   0  0  0  0  0  0  0  0  0  0  0  0
  -20.9330  -29.8660   21.7350 H   0  0  0  0  0  0  0  0  0  0  0  0
  -18.0320  -28.1130   22.9230 C   0  0  0  0  0  0  0  0  0  0  0  0
  -20.5880  -28.3840   23.2050 C   0  0  0  0  0  3  0  0  0  0  0  0
  -20.6960  -26.9470   22.6450 C   0  0  0  0  0  2  0  0  0  0  0  0
  -19.6020  -26.6120   21.6260 C   0  0  0  0  0  2  0  0  0  0  0  0
  -18.2160  -26.7590   22.2590 C   0  0  0  0  0  2  0  0  0  0  0  0
  -19.1450  -28.8820   23.3530 C   0  0  0  0  0  0  0  0  0  0  0  0
  -18.9180  -30.1480   23.9360 C   0  0  0  0  0  3  0  0  0  0  0  0
  -17.6090  -30.6450   24.0930 C   0  0  0  0  0  3  0  0  0  0  0  0
  -16.5110  -29.8730   23.6770 C   0  0  0  0  0  3  0  0  0  0  0  0
  -16.7220  -28.6090   23.0980 C   0  0  0  0  0  3  0  0  0  0  0  0
  -25.9110  -32.5090   23.8540 C   0  0  0  0  0  3  0  0  0  0  0  0
  -25.6000  -33.9070   24.1940 N   0  0  0  0  0  0  0  0  0  0  0  0
  -25.9210  -34.9680   23.4410 C   0  0  0  0  0  0  0  0  0  0  0  0
  -26.5750  -34.8710   22.3990 O   0  0  0  0  0  0  0  0  0  0  0  0
  -25.0130  -34.0530   25.0020 H   0  0  0  0  0  0  0  0  0  0  0  0
  -24.1770  -36.7610   23.1480 C   0  0  0  0  0  1  0  0  0  0  0  0
  -25.4440  -36.3530   23.9180 C   0  0  0  0  0  3  0  0  0  0  0  0
  -27.5960  -37.2490   24.6910 C   0  0  0  0  0  1  0  0  0  0  0  0
  -26.4700  -37.4100   23.7760 N   0  0  0  0  0  0  0  0  0  0  0  0
  -26.0640  -38.3300   23.9290 H   0  0  0  0  0  0  0  0  0  0  0  0
  -26.4230  -31.7350   25.1330 C   0  0  1  0  0  0  0  0  0  0  0  0
  -25.3300  -31.5050   26.2010 C   0  0  0  0  0  1  0  0  0  0  0  0
  -27.0000  -30.3530   24.7490 C   0  0  0  0  0  1  0  0  0  0  0  0
  -27.5780  -32.5250   25.7940 C   0  0  0  0  0  1  0  0  0  0  0  0
  -29.6650  -17.6680   19.8100 C   0  0  0  0  0  2  0  0  0  0  0  0
  -30.4870  -15.0390   20.2780 C   0  0  0  0  0  0  0  0  0  0  0  0
  -30.3770  -12.6600   19.3820 C   0  0  0  0  0  2  0  0  0  0  0  0
  -29.4490  -12.6110   18.1450 C   0  0  0  0  0  2  0  0  0  0  0  0
  -27.9830  -12.4030   18.5710 C   0  0  0  0  0  2  0  0  0  0  0  0
  -27.5790  -13.3190   19.7550 C   0  0  0  0  0  3  0  0  0  0  0  0
  -28.6360  -13.3390   20.8820 C   0  0  0  0  0  2  0  0  0  0  0  0
  -29.9080  -13.7610   20.2800 N   0  0  0  0  0  0  0  0  0  0  0  0
  -31.6610  -15.1040   19.8980 O   0  0  0  0  0  0  0  0  0  0  0  0
  -29.7140  -16.2230   20.4950 N   0  0  0  0  0  0  0  0  0  0  0  0
  -28.8450  -16.0310   20.9700 H   0  0  0  0  0  0  0  0  0  0  0  0
  -25.2030  -13.8960   20.5000 C   0  0  0  0  0  0  0  0  0  0  0  0
  -24.1400  -13.1210   20.8790 C   0  0  0  0  0  0  0  0  0  0  0  0
  -24.6040  -11.7710   20.8490 C   0  0  0  0  0  0  0  0  0  0  0  0
  -26.2440  -13.0160   20.2570 N   0  0  0  0  0  0  0  0  0  0  0  0
  -25.8940  -11.7330   20.5330 N   0  0  0  0  0  0  0  0  0  0  0  0
  -23.8750  -10.5110   21.0440 C   0  0  0  0  0  0  0  0  0  0  0  0
  -24.3150   -9.5380   21.9690 C   0  0  0  0  0  3  0  0  0  0  0  0
  -23.5870   -8.3420   22.1540 C   0  0  0  0  0  3  0  0  0  0  0  0
  -22.4010   -8.1120   21.4150 C   0  0  0  0  0  0  0  0  0  0  0  0
  -21.9790   -9.0740   20.4790 C   0  0  0  0  0  3  0  0  0  0  0  0
  -22.7080  -10.2610   20.2930 C   0  0  0  0  0  3  0  0  0  0  0  0
  -21.6420   -6.9710   21.5090 O   0  0  0  0  0  0  0  0  0  0  0  0
  -21.6170   -6.2160   22.6550 C   0  0  0  0  0  0  0  0  0  0  0  0
  -21.2280   -6.7620   23.8980 C   0  0  0  0  0  3  0  0  0  0  0  0
  -21.1490   -5.9340   25.0360 C   0  0  0  0  0  3  0  0  0  0  0  0
  -21.4480   -4.5620   24.9320 C   0  0  0  0  0  0  0  0  0  0  0  0
  -21.8300   -4.0160   23.6940 C   0  0  0  0  0  3  0  0  0  0  0  0
  -21.9110   -4.8410   22.5580 C   0  0  0  0  0  0  0  0  0  0  0  0
  -22.2580   -4.3050   21.3630 F   0  0  0  0  0  0  0  0  0  0  0  0
  -21.3660   -3.7660   26.0230 F   0  0  0  0  0  0  0  0  0  0  0  0
  -22.7450  -13.6020   21.1520 C   0  0  0  0  0  0  0  0  0  0  0  0
  -22.0150  -12.9150   22.0240 N   0  0  0  0  0  0  0  0  0  0  0  0
  -22.3090  -14.6250   20.6260 O   0  0  0  0  0  0  0  0  0  0  0  0
  -22.3760  -12.0880   22.4740 H   0  0  0  0  0  0  0  0  0  0  0  0
  -21.0780  -13.2240   22.2440 H   0  0  0  0  0  0  0  0  0  0  0  0
  -25.3670  -15.2660   20.3140 N   0  0  0  0  0  0  0  0  0  0  0  0
  -24.5990  -15.9190   20.4190 H   0  0  0  0  0  0  0  0  0  0  0  0
  -26.1970  -15.6920   19.9230 H   0  0  0  0  0  0  0  0  0  0  0  0
  1  5  2  0
  2  4  1  0
  3  7  1  0
  5  2  2  0
  6  3  2  0
  6  1  1  0
  7  2  1  0
  9  1  1  0
  9  8  1  0
 10 11  1  0
 10  9  1  0
 10  8  1  0
 12 23  2  0
 13 11  1  0
 13 18  1  0
 14 22  1  0
 14 24  1  0
 15 21  1  0
 15 17  1  0
 16 22  1  0
 17 18  2  0
 17 16  1  0
 19 13  2  0
 20 19  1  0
 20 15  2  0
 21 14  1  0
 22 12  1  0
 24 26  2  0
 25 24  1  0
 27 25  1  0
 28 37  2  0
 28 33  1  0
 29 25  1  0
 29 33  1  0
 30 29  1  0
 31 32  1  0
 31 30  1  0
 32 28  1  0
 33 34  2  0
 34 35  1  0
 36 35  2  0
 37 36  1  0
 38 12  1  0
 38 39  1  0
 38 48  1  0
 39 42  1  0
 40 44  1  0
 40 39  1  0
 41 40  2  0
 44 43  1  0
 46 44  1  0
 46 47  1  0
 46 45  1  0
 48 51  1  1
 48 49  1  0
 50 48  1  0
 52  3  1  0
 52 61  1  0
 53 59  1  0
 53 61  1  0
 54 59  1  0
 55 56  1  0
 55 54  1  0
 57 56  1  0
 57 66  1  0
 57 58  1  0
 59 58  1  0
 60 53  2  0
 61 62  1  0
 63 64  2  0
 64 83  1  0
 65 64  1  0
 65 68  1  0
 66 63  1  0
 66 67  1  0
 67 65  2  0
 68 69  1  0
 69 70  2  0
 71 74  1  0
 71 70  1  0
 72 71  2  0
 73 72  1  0
 73 68  2  0
 74 75  1  0
 75 76  1  0
 76 77  2  0
 78 77  1  0
 78 82  1  0
 79 78  2  0
 80 75  2  0
 80 79  1  0
 81 80  1  0
 83 84  1  0
 84 87  1  0
 84 86  1  0
 85 83  2  0
 88 89  1  0
 88 63  1  0
 90 88  1  0
M  ISO  4  10 101  11 101  53 100  61 100
M  END
>  <TORSDO>  (54) 
F 18

>  <SCORE>  (54) 
-14.816

>  <name>  (54) 
53

>  <ligand_id>  (54) 
53

>  <original_smiles>  (54) 
[H]c1c([H])c([H])c2c(c1[H])C([H])([H])C([H])([H])C([H])([H])C2([H])N([H])C(=O)C1([H])N(C(=O)C([H])(N([H])C(=O)C([H])(N([H])C([H])([H])[H])C([H])([H])[H])C(C([H])([H])[H])(C([H])([H])[H])C([H])([H])[H])C([H])([H])c2c([H])c(OC3([H])C([H])([H])C3([H])c3nc(C([H])([H])[H])nc(C([H])([H])N([H])C(=O)N4C([H])([H])C([H])([H])C([H])([H])C([H])(n5nc(-c6c([H])c([H])c(Oc7c([H])c([H])c(F)c([H])c7F)c([H])c6[H])c(C(=O)N([H])[H])c5N([H])[H])C4([H])[H])n3)c([H])c([H])c2C1([H])[H]

>  <smiles>  (54) 
[H]c1c([H])c([H])c2c(c1[H])C([H])([H])C([H])([H])C([H])([H])C2([H])N([H])C(=O)C1([H])N(C(=O)C([H])(N([H])C(=O)C([H])(N([H])C([H])([H])[H])C([H])([H])[H])C(C([H])([H])[H])(C([H])([H])[H])C([H])([H])[H])C([H])([H])c2c([H])c(OC3([H])C([H])([H])C3([H])c3nc(C([H])([H])[H])nc(C([H])([H])N([H])C(=O)N4C([H])([H])C([H])([H])C([H])([H])C([H])(n5nc(-c6c([H])c([H])c(Oc7c([H])c([H])c(F)c([H])c7F)c([H])c6[H])c(C(=O)N([H])[H])c5N([H])[H])C4([H])[H])n3)c([H])c([H])c2C1([H])[H]

$$$$
54:0:0
     RDKit          3D

 91100  0  0  1  0  0  0  0  0999 V2000
  -28.7030  -22.1300   20.5440 C   0  0  0  0  0  3  0  0  0  0  0  0
  -28.4540  -23.5030   20.0680 C   0  0  0  0  0  0  0  0  0  0  0  0
  -28.8620  -21.0160   19.6140 C   0  0  0  0  0  0  0  0  0  0  0  0
  -28.4950  -22.5930   17.9320 C   0  0  0  0  0  0  0  0  0  0  0  0
  -28.2220  -22.8140   16.4480 C   0  0  0  0  0  1  0  0  0  0  0  0
  -28.3690  -23.6620   18.7260 N   0  0  0  0  0  0  0  0  0  0  0  0
  -28.7320  -21.3330   18.3120 N   0  0  0  0  0  0  0  0  0  0  0  0
  -28.8380  -19.5600   19.8000 N   0  0  0  0  0  0  0  0  0  0  0  0
  -28.4410  -19.1930   18.9420 H   0  0  0  0  0  0  0  0  0  0  0  0
  -30.8180  -15.0340   20.3270 C   0  0  0  0  0  0  0  0  0  0  0  0
  -30.6340  -12.6940   19.4060 C   0  0  0  0  0  2  0  0  0  0  0  0
  -29.7230  -12.6830   18.1570 C   0  0  0  0  0  2  0  0  0  0  0  0
  -28.2520  -12.4900   18.5800 C   0  0  0  0  0  2  0  0  0  0  0  0
  -27.8450  -13.4180   19.7510 C   0  0  0  0  0  3  0  0  0  0  0  0
  -28.8850  -13.4460   20.8880 C   0  0  0  0  0  2  0  0  0  0  0  0
  -30.1660  -13.8120   20.2710 N   0  0  0  0  0  0  0  0  0  0  0  0
  -32.0370  -15.0230   20.1210 O   0  0  0  0  0  0  0  0  0  0  0  0
  -29.1090  -17.0910   20.8390 C   0  0  0  0  0  2  0  0  0  0  0  0
  -30.5520  -17.5090   19.3840 C   0  0  0  0  0  2  0  0  0  0  0  0
  -29.7670  -18.4610   20.3620 C   0  0  0  0  0  3  0  0  0  0  0  0
  -30.1270  -16.2610   20.1150 N   0  0  0  0  0  0  0  0  0  0  0  0
  -25.4620  -14.0270   20.4590 C   0  0  0  0  0  0  0  0  0  0  0  0
  -24.3850  -13.2620   20.8170 C   0  0  0  0  0  0  0  0  0  0  0  0
  -24.8380  -11.9060   20.7970 C   0  0  0  0  0  0  0  0  0  0  0  0
  -26.5000  -13.1380   20.2370 N   0  0  0  0  0  0  0  0  0  0  0  0
  -26.1320  -11.8590   20.5070 N   0  0  0  0  0  0  0  0  0  0  0  0
  -24.0980  -10.6510   20.9780 C   0  0  0  0  0  0  0  0  0  0  0  0
  -24.4820   -9.6990   21.9470 C   0  0  0  0  0  3  0  0  0  0  0  0
  -23.7360   -8.5100   22.1190 C   0  0  0  0  0  3  0  0  0  0  0  0
  -22.5960   -8.2660   21.3170 C   0  0  0  0  0  0  0  0  0  0  0  0
  -22.2300   -9.2080   20.3370 C   0  0  0  0  0  3  0  0  0  0  0  0
  -22.9760  -10.3860   20.1660 C   0  0  0  0  0  3  0  0  0  0  0  0
  -21.8360   -7.1220   21.3890 O   0  0  0  0  0  0  0  0  0  0  0  0
  -21.7160   -6.4120   22.5570 C   0  0  0  0  0  0  0  0  0  0  0  0
  -21.1810   -6.9920   23.7270 C   0  0  0  0  0  3  0  0  0  0  0  0
  -21.0090   -6.2090   24.8850 C   0  0  0  0  0  3  0  0  0  0  0  0
  -21.3580   -4.8450   24.8750 C   0  0  0  0  0  0  0  0  0  0  0  0
  -21.8870   -4.2640   23.7070 C   0  0  0  0  0  3  0  0  0  0  0  0
  -22.0610   -5.0450   22.5510 C   0  0  0  0  0  0  0  0  0  0  0  0
  -22.5490   -4.4750   21.4240 F   0  0  0  0  0  0  0  0  0  0  0  0
  -21.1870   -4.0900   25.9850 F   0  0  0  0  0  0  0  0  0  0  0  0
  -22.9900  -13.7530   21.0630 C   0  0  0  0  0  0  0  0  0  0  0  0
  -22.2420  -13.0720   21.9220 N   0  0  0  0  0  0  0  0  0  0  0  0
  -22.5720  -14.7780   20.5290 O   0  0  0  0  0  0  0  0  0  0  0  0
  -22.5990  -12.2410   22.3670 H   0  0  0  0  0  0  0  0  0  0  0  0
  -21.3000  -13.3760   22.1300 H   0  0  0  0  0  0  0  0  0  0  0  0
  -25.6420  -15.3930   20.2660 N   0  0  0  0  0  0  0  0  0  0  0  0
  -24.8680  -16.0480   20.3100 H   0  0  0  0  0  0  0  0  0  0  0  0
  -26.4840  -15.7920   19.8760 H   0  0  0  0  0  0  0  0  0  0  0  0
  -28.0020  -24.8070   20.9470 C   0  0  0  0  0  2  0  0  0  0  0  0
  -28.3450  -26.2850   20.6500 O   0  0  0  0  0  0  0  0  0  0  0  0
  -24.5390  -31.9770   23.3740 C   0  0  0  0  0  0  0  0  0  0  0  0
  -27.2990  -27.2550   20.5780 C   0  0  0  0  0  0  0  0  0  0  0  0
  -23.4380  -30.5280   21.7090 C   0  0  0  0  0  3  0  0  0  0  0  0
  -24.9670  -28.9450   20.4000 C   0  0  0  0  0  0  0  0  0  0  0  0
  -25.9900  -30.8330   21.6640 C   0  0  0  0  0  2  0  0  0  0  0  0
  -26.1110  -29.4280   21.0500 C   0  0  0  0  0  0  0  0  0  0  0  0
  -27.2890  -28.5990   21.1180 C   0  0  0  0  0  3  0  0  0  0  0  0
  -26.1300  -26.8610   19.9010 C   0  0  0  0  0  3  0  0  0  0  0  0
  -24.9860  -27.6730   19.8150 C   0  0  0  0  0  3  0  0  0  0  0  0
  -23.7320  -29.8230   20.3580 C   0  0  0  0  0  2  0  0  0  0  0  0
  -24.6730  -31.1350   22.3050 N   0  0  0  0  0  0  0  0  0  0  0  0
  -23.4240  -32.2610   23.8370 O   0  0  0  0  0  0  0  0  0  0  0  0
  -22.7260  -29.5340   22.6610 C   0  0  0  0  0  0  0  0  0  0  0  0
  -21.4010  -29.3670   22.4930 N   0  0  0  0  0  0  0  0  0  0  0  0
  -23.3670  -28.9160   23.5160 O   0  0  0  0  0  0  0  0  0  0  0  0
  -20.9440  -29.9190   21.7810 H   0  0  0  0  0  0  0  0  0  0  0  0
  -17.9900  -28.2380   22.9440 C   0  0  0  0  0  0  0  0  0  0  0  0
  -20.5510  -28.4410   23.2440 C   0  0  0  0  0  3  0  0  0  0  0  0
  -20.6300  -27.0120   22.6580 C   0  0  0  0  0  2  0  0  0  0  0  0
  -19.5370  -26.7280   21.6270 C   0  0  0  0  0  2  0  0  0  0  0  0
  -18.1470  -26.8950   22.2510 C   0  0  0  0  0  2  0  0  0  0  0  0
  -19.1190  -28.9710   23.3960 C   0  0  0  0  0  0  0  0  0  0  0  0
  -18.9210  -30.2320   23.9990 C   0  0  0  0  0  3  0  0  0  0  0  0
  -17.6240  -30.7600   24.1500 C   0  0  0  0  0  3  0  0  0  0  0  0
  -16.5100  -30.0210   23.7150 C   0  0  0  0  0  3  0  0  0  0  0  0
  -16.6940  -28.7620   23.1190 C   0  0  0  0  0  3  0  0  0  0  0  0
  -25.7760  -32.6410   24.0510 C   0  0  0  0  0  3  0  0  0  0  0  0
  -25.4480  -34.0540   24.2940 N   0  0  0  0  0  0  0  0  0  0  0  0
  -25.8290  -35.0740   23.5120 C   0  0  0  0  0  0  0  0  0  0  0  0
  -26.5620  -34.9240   22.5310 O   0  0  0  0  0  0  0  0  0  0  0  0
  -24.8100  -34.2440   25.0530 H   0  0  0  0  0  0  0  0  0  0  0  0
  -24.1390  -36.8570   22.9640 C   0  0  0  0  0  1  0  0  0  0  0  0
  -25.3190  -36.4840   23.8750 C   0  0  0  0  0  3  0  0  0  0  0  0
  -27.3900  -37.4050   24.8180 C   0  0  0  0  0  1  0  0  0  0  0  0
  -26.3640  -37.5270   23.7860 N   0  0  0  0  0  0  0  0  0  0  0  0
  -25.9540  -38.4540   23.8570 H   0  0  0  0  0  0  0  0  0  0  0  0
  -26.1980  -31.9390   25.4010 C   0  0  1  0  0  0  0  0  0  0  0  0
  -25.0290  -31.7390   26.3940 C   0  0  0  0  0  1  0  0  0  0  0  0
  -26.8250  -30.5540   25.1250 C   0  0  0  0  0  1  0  0  0  0  0  0
  -27.2860  -32.7800   26.1110 C   0  0  0  0  0  1  0  0  0  0  0  0
  2  1  2  0
  2 50  1  0
  3  8  1  0
  3  1  1  0
  4  7  1  0
  4  6  2  0
  5  4  1  0
  6  2  1  0
  7  3  2  0
  9  8  1  0
 11 16  1  0
 12 13  1  0
 12 11  1  0
 14 13  1  0
 14 25  1  0
 14 15  1  0
 16 10  1  0
 16 15  1  0
 17 10  2  0
 19 21  1  0
 19 20  1  0
 20  8  1  0
 20 18  1  0
 21 10  1  0
 21 18  1  0
 22 23  2  0
 23 42  1  0
 24 23  1  0
 24 27  1  0
 25 22  1  0
 25 26  1  0
 26 24  2  0
 27 28  1  0
 28 29  2  0
 30 33  1  0
 30 29  1  0
 31 30  2  0
 32 31  1  0
 32 27  2  0
 33 34  1  0
 34 35  1  0
 35 36  2  0
 37 36  1  0
 37 41  1  0
 38 37  2  0
 39 34  2  0
 39 38  1  0
 40 39  1  0
 42 43  1  0
 43 46  1  0
 43 45  1  0
 44 42  2  0
 47 48  1  0
 47 22  1  0
 49 47  1  0
 51 50  1  0
 52 63  2  0
 53 51  1  0
 53 58  1  0
 54 62  1  0
 54 64  1  0
 55 57  1  0
 56 62  1  0
 57 58  2  0
 57 56  1  0
 59 53  2  0
 60 59  1  0
 60 55  2  0
 61 55  1  0
 61 54  1  0
 62 52  1  0
 64 66  2  0
 65 64  1  0
 67 65  1  0
 68 77  2  0
 68 73  1  0
 69 65  1  0
 69 73  1  0
 70 69  1  0
 71 72  1  0
 71 70  1  0
 72 68  1  0
 73 74  2  0
 74 75  1  0
 76 75  2  0
 77 76  1  0
 78 52  1  0
 78 79  1  0
 78 88  1  0
 79 82  1  0
 80 84  1  0
 80 79  1  0
 81 80  2  0
 84 83  1  0
 86 87  1  0
 86 84  1  0
 86 85  1  0
 88 91  1  1
 88 89  1  0
 90 88  1  0
M  ISO  4  10 100  21 100  50 101  51 101
M  END
>  <TORSDO>  (55) 
F 17

>  <SCORE>  (55) 
-13.966

>  <name>  (55) 
54

>  <ligand_id>  (55) 
54

>  <original_smiles>  (55) 
[H]c1c(N([H])C2([H])C([H])([H])N(C(=O)N3C([H])([H])C([H])([H])C([H])([H])C([H])(n4nc(-c5c([H])c([H])c(Oc6c([H])c([H])c(F)c([H])c6F)c([H])c5[H])c(C(=O)N([H])[H])c4N([H])[H])C3([H])[H])C2([H])[H])nc(C([H])([H])[H])nc1C([H])([H])Oc1c([H])c([H])c2c(c1[H])C([H])([H])N(C(=O)C([H])(N([H])C(=O)C([H])(N([H])C([H])([H])[H])C([H])([H])[H])C(C([H])([H])[H])(C([H])([H])[H])C([H])([H])[H])C([H])(C(=O)N([H])C1([H])c3c([H])c([H])c([H])c([H])c3C([H])([H])C([H])([H])C1([H])[H])C2([H])[H]

>  <smiles>  (55) 
[H]c1c(N([H])C2([H])C([H])([H])N(C(=O)N3C([H])([H])C([H])([H])C([H])([H])C([H])(n4nc(-c5c([H])c([H])c(Oc6c([H])c([H])c(F)c([H])c6F)c([H])c5[H])c(C(=O)N([H])[H])c4N([H])[H])C3([H])[H])C2([H])[H])nc(C([H])([H])[H])nc1C([H])([H])Oc1c([H])c([H])c2c(c1[H])C([H])([H])N(C(=O)C([H])(N([H])C(=O)C([H])(N([H])C([H])([H])[H])C([H])([H])[H])C(C([H])([H])[H])(C([H])([H])[H])C([H])([H])[H])C([H])(C(=O)N([H])C1([H])c3c([H])c([H])c([H])c([H])c3C([H])([H])C([H])([H])C1([H])[H])C2([H])[H]

$$$$
55:0:0
     RDKit          3D

 97106  0  0  1  0  0  0  0  0999 V2000
  -29.9800  -21.7560   20.8200 C   0  0  0  0  0  0  0  0  0  0  0  0
  -30.2300  -20.5050   20.1340 C   0  0  0  0  0  0  0  0  0  0  0  0
  -29.3400  -22.8690   20.1230 C   0  0  0  0  0  0  0  0  0  0  0  0
  -29.6740  -20.1810   18.8660 C   0  0  0  0  0  0  0  0  0  0  0  0
  -28.8330  -22.7590   18.7870 C   0  0  0  0  0  0  0  0  0  0  0  0
  -32.3470  -20.3640   21.4750 C   0  0  0  0  0  2  0  0  0  0  0  0
  -31.2970  -19.5610   20.7080 C   0  0  0  0  0  3  0  0  0  0  0  0
  -30.3770  -21.7240   22.3620 C   0  0  1  0  0  0  0  0  0  0  0  0
  -29.1590  -24.2330   20.7880 C   0  0  0  0  0  1  0  0  0  0  0  0
  -30.8030  -18.3210   21.4860 C   0  0  0  0  0  1  0  0  0  0  0  0
  -30.1920  -22.9950   23.2490 C   0  0  0  0  0  1  0  0  0  0  0  0
  -29.3450  -20.7940   23.0560 C   0  0  0  0  0  1  0  0  0  0  0  0
  -32.8100  -22.0940   23.0980 C   0  0  0  0  0  1  0  0  0  0  0  0
  -29.0030  -21.3670   18.2600 N   0  0  0  0  0  0  0  0  0  0  0  0
  -31.7680  -21.1630   22.5800 N   0  0  2  0  0  4  0  0  0  0  0  0
  -31.6350  -20.4960   23.3220 H   0  0  0  0  0  0  0  0  0  0  0  0
  -29.9860  -18.5450   18.2030 C   0  0  0  0  0  2  0  0  0  0  0  0
  -30.8530  -15.7100   18.8270 C   0  0  0  0  0  0  0  0  0  0  0  0
  -31.0090  -13.1010   18.5660 C   0  0  0  0  0  2  0  0  0  0  0  0
  -29.9960  -12.4940   17.5600 C   0  0  0  0  0  2  0  0  0  0  0  0
  -28.6540  -12.2130   18.2500 C   0  0  0  0  0  2  0  0  0  0  0  0
  -28.2200  -13.3890   19.1580 C   0  0  0  0  0  3  0  0  0  0  0  0
  -29.3550  -13.9250   20.0590 C   0  0  0  0  0  2  0  0  0  0  0  0
  -30.4370  -14.3770   19.1650 N   0  0  0  0  0  0  0  0  0  0  0  0
  -32.0150  -15.7250   18.3930 O   0  0  0  0  0  0  0  0  0  0  0  0
  -29.9890  -16.9400   18.7910 N   0  0  0  0  0  0  0  0  0  0  0  0
  -29.0910  -16.7340   19.1970 H   0  0  0  0  0  0  0  0  0  0  0  0
  -26.1580  -13.9980   20.5180 C   0  0  0  0  0  0  0  0  0  0  0  0
  -25.1090  -13.2600   20.9930 C   0  0  0  0  0  0  0  0  0  0  0  0
  -25.3810  -11.9050   20.6270 C   0  0  0  0  0  0  0  0  0  0  0  0
  -27.0020  -13.0960   19.8990 N   0  0  0  0  0  0  0  0  0  0  0  0
  -26.5600  -11.8170   20.0230 N   0  0  0  0  0  0  0  0  0  0  0  0
  -24.5510  -10.7000   20.7670 C   0  0  0  0  0  0  0  0  0  0  0  0
  -24.9060   -9.6550   21.6460 C   0  0  0  0  0  3  0  0  0  0  0  0
  -24.0790   -8.5200   21.7800 C   0  0  0  0  0  3  0  0  0  0  0  0
  -22.8790   -8.4240   21.0340 C   0  0  0  0  0  0  0  0  0  0  0  0
  -22.5410   -9.4580   20.1440 C   0  0  0  0  0  3  0  0  0  0  0  0
  -23.3700  -10.5850   20.0090 C   0  0  0  0  0  3  0  0  0  0  0  0
  -22.0290   -7.3440   21.0790 O   0  0  0  0  0  0  0  0  0  0  0  0
  -21.7180   -6.7240   22.2610 C   0  0  0  0  0  0  0  0  0  0  0  0
  -21.1230   -7.4210   23.3360 C   0  0  0  0  0  3  0  0  0  0  0  0
  -20.7530   -6.7290   24.5060 C   0  0  0  0  0  3  0  0  0  0  0  0
  -20.9680   -5.3400   24.6010 C   0  0  0  0  0  0  0  0  0  0  0  0
  -21.5560   -4.6440   23.5300 C   0  0  0  0  0  3  0  0  0  0  0  0
  -21.9250   -5.3330   22.3620 C   0  0  0  0  0  0  0  0  0  0  0  0
  -22.4700   -4.6510   21.3250 F   0  0  0  0  0  0  0  0  0  0  0  0
  -20.6080   -4.6740   25.7230 F   0  0  0  0  0  0  0  0  0  0  0  0
  -23.8780  -13.8030   21.6550 C   0  0  0  0  0  0  0  0  0  0  0  0
  -23.2960  -13.0400   22.5760 N   0  0  0  0  0  0  0  0  0  0  0  0
  -23.4550  -14.9280   21.4000 O   0  0  0  0  0  0  0  0  0  0  0  0
  -23.6530  -12.1210   22.7910 H   0  0  0  0  0  0  0  0  0  0  0  0
  -22.4840  -13.3830   23.0700 H   0  0  0  0  0  0  0  0  0  0  0  0
  -26.4500  -15.3580   20.5340 N   0  0  0  0  0  0  0  0  0  0  0  0
  -25.7990  -16.0300   20.9250 H   0  0  0  0  0  0  0  0  0  0  0  0
  -27.2040  -15.7920   20.0210 H   0  0  0  0  0  0  0  0  0  0  0  0
  -27.8950  -24.1430   18.1140 C   0  0  0  0  0  2  0  0  0  0  0  0
  -27.9260  -25.8380   18.2010 O   0  0  0  0  0  0  0  0  0  0  0  0
  -24.8930  -31.1750   22.6570 C   0  0  0  0  0  0  0  0  0  0  0  0
  -26.8930  -26.9180   18.4390 C   0  0  0  0  0  0  0  0  0  0  0  0
  -23.4180  -29.9480   21.1090 C   0  0  0  0  0  3  0  0  0  0  0  0
  -24.5770  -28.6690   19.1710 C   0  0  0  0  0  0  0  0  0  0  0  0
  -25.8830  -30.3440   20.4610 C   0  0  0  0  0  2  0  0  0  0  0  0
  -25.8580  -29.0480   19.5860 C   0  0  0  0  0  0  0  0  0  0  0  0
  -26.9990  -28.1940   19.2050 C   0  0  0  0  0  3  0  0  0  0  0  0
  -25.5670  -26.7250   17.9870 C   0  0  0  0  0  3  0  0  0  0  0  0
  -24.4540  -27.5370   18.3480 C   0  0  0  0  0  3  0  0  0  0  0  0
  -23.3660  -29.4880   19.6260 C   0  0  0  0  0  2  0  0  0  0  0  0
  -24.7620  -30.5120   21.4600 N   0  0  0  0  0  0  0  0  0  0  0  0
  -23.9360  -31.3080   23.4380 O   0  0  0  0  0  0  0  0  0  0  0  0
  -22.9910  -28.7790   22.0380 C   0  0  0  0  0  0  0  0  0  0  0  0
  -21.7420  -28.2940   21.9060 N   0  0  0  0  0  0  0  0  0  0  0  0
  -23.7940  -28.3090   22.8480 O   0  0  0  0  0  0  0  0  0  0  0  0
  -21.1300  -28.7260   21.2280 H   0  0  0  0  0  0  0  0  0  0  0  0
  -18.9580  -25.9700   22.0650 C   0  0  0  0  0  0  0  0  0  0  0  0
  -21.1910  -27.1480   22.6420 C   0  0  0  0  0  3  0  0  0  0  0  0
  -21.8720  -25.8280   22.2030 C   0  0  0  0  0  2  0  0  0  0  0  0
  -21.1170  -25.1110   21.0760 C   0  0  0  0  0  2  0  0  0  0  0  0
  -19.6970  -24.7600   21.5190 C   0  0  0  0  0  2  0  0  0  0  0  0
  -19.6590  -27.0960   22.5790 C   0  0  0  0  0  0  0  0  0  0  0  0
  -18.9190  -28.2050   23.0420 C   0  0  0  0  0  3  0  0  0  0  0  0
  -17.5110  -28.2050   22.9970 C   0  0  0  0  0  3  0  0  0  0  0  0
  -16.8260  -27.0840   22.4980 C   0  0  0  0  0  3  0  0  0  0  0  0
  -17.5470  -25.9670   22.0430 C   0  0  0  0  0  3  0  0  0  0  0  0
  -26.2470  -31.8120   23.0990 C   0  0  0  0  0  3  0  0  0  0  0  0
  -25.9460  -33.0520   23.8410 N   0  0  0  0  0  0  0  0  0  0  0  0
  -26.1330  -34.2930   23.3730 C   0  0  0  0  0  0  0  0  0  0  0  0
  -26.6370  -34.5160   22.2700 O   0  0  0  0  0  0  0  0  0  0  0  0
  -25.4790  -32.9400   24.7290 H   0  0  0  0  0  0  0  0  0  0  0  0
  -24.3420  -36.0160   23.7860 C   0  0  0  0  0  1  0  0  0  0  0  0
  -25.6980  -35.4740   24.2670 C   0  0  0  0  0  3  0  0  0  0  0  0
  -27.9100  -36.2370   25.0160 C   0  0  0  0  0  1  0  0  0  0  0  0
  -26.6810  -36.5800   24.3070 N   0  0  0  0  0  0  0  0  0  0  0  0
  -26.2790  -37.4020   24.7490 H   0  0  0  0  0  0  0  0  0  0  0  0
  -27.1180  -30.8460   23.9960 C   0  0  1  0  0  0  0  0  0  0  0  0
  -26.3480  -30.2410   25.1940 C   0  0  0  0  0  1  0  0  0  0  0  0
  -27.6840  -29.6740   23.1630 C   0  0  0  0  0  1  0  0  0  0  0  0
  -28.3360  -31.6160   24.5560 C   0  0  0  0  0  1  0  0  0  0  0  0
  1  8  1  0
  2  7  1  0
  2  1  1  0
  3  9  1  0
  3  1  2  0
  4  2  2  0
  5  3  1  0
  6 15  1  0
  7  6  1  0
  7 10  1  0
  8 15  1  0
  8 12  1  1
  8 11  1  0
 14  5  2  0
 14  4  1  0
 15 13  1  0
 15 16  1  1
 17 26  1  0
 17  4  1  0
 18 24  1  0
 19 24  1  0
 20 21  1  0
 20 19  1  0
 22 21  1  0
 22 31  1  0
 22 23  1  0
 24 23  1  0
 25 18  2  0
 26 18  1  0
 26 27  1  0
 28 53  1  0
 28 29  2  0
 29 48  1  0
 30 33  1  0
 30 29  1  0
 31 32  1  0
 31 28  1  0
 32 30  2  0
 33 34  1  0
 34 35  2  0
 36 39  1  0
 36 35  1  0
 37 36  2  0
 38 37  1  0
 38 33  2  0
 39 40  1  0
 40 45  2  0
 40 41  1  0
 41 42  2  0
 42 43  1  0
 43 47  1  0
 44 43  2  0
 45 44  1  0
 46 45  1  0
 48 49  1  0
 49 51  1  0
 49 52  1  0
 50 48  2  0
 53 54  1  0
 55 53  1  0
 56 57  1  0
 56  5  1  0
 57 59  1  0
 58 69  2  0
 59 64  1  0
 60 68  1  0
 60 70  1  0
 61 63  1  0
 61 67  1  0
 62 68  1  0
 63 62  1  0
 64 63  2  0
 65 66  1  0
 65 59  2  0
 66 61  2  0
 67 60  1  0
 68 58  1  0
 70 72  2  0
 71 70  1  0
 73 71  1  0
 74 79  1  0
 75 71  1  0
 76 75  1  0
 77 78  1  0
 77 76  1  0
 78 74  1  0
 79 75  1  0
 79 80  2  0
 81 80  1  0
 82 81  2  0
 83 74  2  0
 83 82  1  0
 84 58  1  0
 84 85  1  0
 84 94  1  0
 85 88  1  0
 86 85  1  0
 86 90  1  0
 87 86  2  0
 90 89  1  0
 90 92  1  0
 92 93  1  0
 92 91  1  0
 94 97  1  1
 94 95  1  0
 96 94  1  0
M  ISO  4  18 100  26 100  56 101  57 101
M  END
>  <TORSDO>  (56) 
F 18

>  <SCORE>  (56) 
-9.565

>  <name>  (56) 
55

>  <ligand_id>  (56) 
55

>  <original_smiles>  (56) 
[H]c1c([H])c([H])c2c(c1[H])C([H])([H])C([H])([H])C([H])([H])C2([H])N([H])C(=O)C1([H])N(C(=O)C([H])(N([H])C(=O)C([H])(N([H])C([H])([H])[H])C([H])([H])[H])C(C([H])([H])[H])(C([H])([H])[H])C([H])([H])[H])C([H])([H])c2c([H])c(OC([H])([H])c3nc(C([H])([H])N([H])C(=O)N4C([H])([H])C([H])([H])C([H])([H])C([H])(n5nc(-c6c([H])c([H])c(Oc7c([H])c([H])c(F)c([H])c7F)c([H])c6[H])c(C(=O)N([H])[H])c5N([H])[H])C4([H])[H])c4c(c3C([H])([H])[H])C(C([H])([H])[H])(C([H])([H])[H])[N+]([H])(C([H])([H])[H])C([H])([H])C4([H])C([H])([H])[H])c([H])c([H])c2C1([H])[H]

>  <smiles>  (56) 
[H]c1c([H])c([H])c2c(c1[H])C([H])([H])C([H])([H])C([H])([H])C2([H])N([H])C(=O)C1([H])N(C(=O)C([H])(N([H])C(=O)C([H])(N([H])C([H])([H])[H])C([H])([H])[H])C(C([H])([H])[H])(C([H])([H])[H])C([H])([H])[H])C([H])([H])c2c([H])c(OC([H])([H])c3nc(C([H])([H])N([H])C(=O)N4C([H])([H])C([H])([H])C([H])([H])C([H])(n5nc(-c6c([H])c([H])c(Oc7c([H])c([H])c(F)c([H])c7F)c([H])c6[H])c(C(=O)N([H])[H])c5N([H])[H])C4([H])[H])c4c(c3C([H])([H])[H])C(C([H])([H])[H])(C([H])([H])[H])[N+]([H])(C([H])([H])[H])C([H])([H])C4([H])C([H])([H])[H])c([H])c([H])c2C1([H])[H]

$$$$
56:0:0
     RDKit          3D

 90 99  0  0  1  0  0  0  0  0999 V2000
  -30.0230  -23.4700   19.5320 C   0  0  0  0  0  3  0  0  0  0  0  0
  -30.8390  -22.3580   19.2600 C   0  0  0  0  0  0  0  0  0  0  0  0
  -28.8020  -23.2800   20.1840 C   0  0  0  0  0  0  0  0  0  0  0  0
  -29.3590  -20.8410   20.2180 C   0  0  0  0  0  0  0  0  0  0  0  0
  -32.1460  -22.5390   18.5150 C   0  0  0  0  0  1  0  0  0  0  0  0
  -30.5140  -21.0910   19.6090 N   0  0  0  0  0  0  0  0  0  0  0  0
  -28.4970  -21.9180   20.4980 N   0  0  0  0  0  0  0  0  0  0  0  0
  -28.6880  -18.3610   19.3680 C   0  0  0  0  0  2  0  0  0  0  0  0
  -29.0920  -19.2190   20.5280 C   0  0  0  0  0  3  0  0  0  0  0  0
  -29.8730  -17.7560   20.1110 C   0  0  0  0  0  3  0  0  0  0  0  0
  -30.4590  -15.0460   20.2760 C   0  0  0  0  0  0  0  0  0  0  0  0
  -30.3710  -12.6830   19.3430 C   0  0  0  0  0  2  0  0  0  0  0  0
  -29.4270  -12.6150   18.1180 C   0  0  0  0  0  2  0  0  0  0  0  0
  -27.9680  -12.3920   18.5640 C   0  0  0  0  0  2  0  0  0  0  0  0
  -27.5650  -13.3110   19.7460 C   0  0  0  0  0  3  0  0  0  0  0  0
  -28.6270  -13.3370   20.8650 C   0  0  0  0  0  2  0  0  0  0  0  0
  -29.8860  -13.7710   20.2460 N   0  0  0  0  0  0  0  0  0  0  0  0
  -31.6510  -15.1170   19.9570 O   0  0  0  0  0  0  0  0  0  0  0  0
  -29.6560  -16.2250   20.4420 N   0  0  0  0  0  0  0  0  0  0  0  0
  -28.7140  -16.0090   20.7290 H   0  0  0  0  0  0  0  0  0  0  0  0
  -25.1940  -13.8770   20.5190 C   0  0  0  0  0  0  0  0  0  0  0  0
  -24.1350  -13.0990   20.8950 C   0  0  0  0  0  0  0  0  0  0  0  0
  -24.6000  -11.7480   20.8450 C   0  0  0  0  0  0  0  0  0  0  0  0
  -26.2340  -13.0010   20.2550 N   0  0  0  0  0  0  0  0  0  0  0  0
  -25.8880  -11.7150   20.5190 N   0  0  0  0  0  0  0  0  0  0  0  0
  -23.8760  -10.4830   21.0300 C   0  0  0  0  0  0  0  0  0  0  0  0
  -24.3010   -9.5170   21.9680 C   0  0  0  0  0  3  0  0  0  0  0  0
  -23.5720   -8.3200   22.1420 C   0  0  0  0  0  3  0  0  0  0  0  0
  -22.4070   -8.0820   21.3770 C   0  0  0  0  0  0  0  0  0  0  0  0
  -22.0000   -9.0370   20.4300 C   0  0  0  0  0  3  0  0  0  0  0  0
  -22.7280  -10.2250   20.2530 C   0  0  0  0  0  3  0  0  0  0  0  0
  -21.6520   -6.9370   21.4580 O   0  0  0  0  0  0  0  0  0  0  0  0
  -21.5760   -6.2050   22.6150 C   0  0  0  0  0  0  0  0  0  0  0  0
  -21.1060   -6.7660   23.8220 C   0  0  0  0  0  3  0  0  0  0  0  0
  -20.9790   -5.9620   24.9720 C   0  0  0  0  0  3  0  0  0  0  0  0
  -21.3110   -4.5940   24.9150 C   0  0  0  0  0  0  0  0  0  0  0  0
  -21.7770   -4.0330   23.7120 C   0  0  0  0  0  3  0  0  0  0  0  0
  -21.9030   -4.8350   22.5660 C   0  0  0  0  0  0  0  0  0  0  0  0
  -22.3300   -4.2820   21.4040 F   0  0  0  0  0  0  0  0  0  0  0  0
  -21.1840   -3.8190   26.0180 F   0  0  0  0  0  0  0  0  0  0  0  0
  -22.7390  -13.5730   21.1800 C   0  0  0  0  0  0  0  0  0  0  0  0
  -22.0190  -12.8710   22.0450 N   0  0  0  0  0  0  0  0  0  0  0  0
  -22.2970  -14.6030   20.6720 O   0  0  0  0  0  0  0  0  0  0  0  0
  -22.3900  -12.0390   22.4790 H   0  0  0  0  0  0  0  0  0  0  0  0
  -21.0840  -13.1710   22.2810 H   0  0  0  0  0  0  0  0  0  0  0  0
  -25.3540  -15.2500   20.3480 N   0  0  0  0  0  0  0  0  0  0  0  0
  -24.5870  -15.9000   20.4840 H   0  0  0  0  0  0  0  0  0  0  0  0
  -26.1680  -15.6790   19.9270 H   0  0  0  0  0  0  0  0  0  0  0  0
  -27.8180  -24.5960   20.4150 C   0  0  0  0  0  2  0  0  0  0  0  0
  -28.1950  -26.1170   20.2460 O   0  0  0  0  0  0  0  0  0  0  0  0
  -24.6480  -31.8880   23.2390 C   0  0  0  0  0  0  0  0  0  0  0  0
  -27.1710  -27.1410   20.2010 C   0  0  0  0  0  0  0  0  0  0  0  0
  -23.4350  -30.4980   21.6070 C   0  0  0  0  0  3  0  0  0  0  0  0
  -24.8670  -28.9260   20.1680 C   0  0  0  0  0  0  0  0  0  0  0  0
  -25.9900  -30.7490   21.4280 C   0  0  0  0  0  2  0  0  0  0  0  0
  -26.0530  -29.3540   20.7800 C   0  0  0  0  0  0  0  0  0  0  0  0
  -27.2080  -28.4790   20.7790 C   0  0  0  0  0  3  0  0  0  0  0  0
  -25.9670  -26.8390   19.5270 C   0  0  0  0  0  3  0  0  0  0  0  0
  -24.8430  -27.6850   19.5200 C   0  0  0  0  0  3  0  0  0  0  0  0
  -23.6460  -29.8300   20.2230 C   0  0  0  0  0  2  0  0  0  0  0  0
  -24.7120  -31.0670   22.1460 N   0  0  0  0  0  0  0  0  0  0  0  0
  -23.5660  -32.1760   23.7720 O   0  0  0  0  0  0  0  0  0  0  0  0
  -22.7580  -29.4900   22.5710 C   0  0  0  0  0  0  0  0  0  0  0  0
  -21.4290  -29.3230   22.4480 N   0  0  0  0  0  0  0  0  0  0  0  0
  -23.4310  -28.8600   23.3890 O   0  0  0  0  0  0  0  0  0  0  0  0
  -20.9420  -29.8830   21.7630 H   0  0  0  0  0  0  0  0  0  0  0  0
  -18.0460  -28.1310   22.9590 C   0  0  0  0  0  0  0  0  0  0  0  0
  -20.6060  -28.3890   23.2210 C   0  0  0  0  0  3  0  0  0  0  0  0
  -20.7030  -26.9560   22.6480 C   0  0  0  0  0  2  0  0  0  0  0  0
  -19.5990  -26.6340   21.6360 C   0  0  0  0  0  2  0  0  0  0  0  0
  -18.2190  -26.7810   22.2840 C   0  0  0  0  0  2  0  0  0  0  0  0
  -19.1660  -28.8930   23.3840 C   0  0  0  0  0  0  0  0  0  0  0  0
  -18.9490  -30.1560   23.9770 C   0  0  0  0  0  3  0  0  0  0  0  0
  -17.6450  -30.6570   24.1480 C   0  0  0  0  0  3  0  0  0  0  0  0
  -16.5400  -29.8920   23.7370 C   0  0  0  0  0  3  0  0  0  0  0  0
  -16.7400  -28.6310   23.1470 C   0  0  0  0  0  3  0  0  0  0  0  0
  -25.9310  -32.5190   23.8590 C   0  0  0  0  0  3  0  0  0  0  0  0
  -25.6230  -33.9150   24.2050 N   0  0  0  0  0  0  0  0  0  0  0  0
  -25.9250  -34.9760   23.4440 C   0  0  0  0  0  0  0  0  0  0  0  0
  -26.5640  -34.8830   22.3920 O   0  0  0  0  0  0  0  0  0  0  0  0
  -25.0530  -34.0610   25.0260 H   0  0  0  0  0  0  0  0  0  0  0  0
  -24.1730  -36.7620   23.1710 C   0  0  0  0  0  1  0  0  0  0  0  0
  -25.4490  -36.3600   23.9270 C   0  0  0  0  0  3  0  0  0  0  0  0
  -27.6080  -37.2610   24.6730 C   0  0  0  0  0  1  0  0  0  0  0  0
  -26.4690  -37.4210   23.7740 N   0  0  0  0  0  0  0  0  0  0  0  0
  -26.0610  -38.3380   23.9360 H   0  0  0  0  0  0  0  0  0  0  0  0
  -26.4510  -31.7390   25.1300 C   0  0  1  0  0  0  0  0  0  0  0  0
  -25.3640  -31.5000   26.2030 C   0  0  0  0  0  1  0  0  0  0  0  0
  -27.0260  -30.3600   24.7320 C   0  0  0  0  0  1  0  0  0  0  0  0
  -27.6070  -32.5260   25.7900 C   0  0  0  0  0  1  0  0  0  0  0  0
  1  3  1  0
  2  1  2  0
  2  6  1  0
  3 49  1  0
  3  7  2  0
  4  7  1  0
  5  2  1  0
  6  4  2  0
  8 10  1  0
  8  9  1  0
  9  4  1  0
 10 19  1  0
 10  9  1  0
 11 19  1  0
 12 17  1  0
 13 14  1  0
 13 12  1  0
 15 14  1  0
 15 24  1  0
 15 16  1  0
 17 11  1  0
 17 16  1  0
 18 11  2  0
 19 20  1  0
 21 22  2  0
 22 41  1  0
 23 22  1  0
 23 26  1  0
 24 21  1  0
 24 25  1  0
 25 23  2  0
 26 27  1  0
 27 28  2  0
 29 32  1  0
 29 28  1  0
 30 29  2  0
 31 30  1  0
 31 26  2  0
 32 33  1  0
 33 34  1  0
 34 35  2  0
 36 35  1  0
 36 40  1  0
 37 36  2  0
 38 33  2  0
 38 37  1  0
 39 38  1  0
 41 42  1  0
 42 45  1  0
 42 44  1  0
 43 41  2  0
 46 47  1  0
 46 21  1  0
 48 46  1  0
 50 49  1  0
 51 62  2  0
 52 50  1  0
 52 57  1  0
 53 61  1  0
 53 63  1  0
 54 60  1  0
 54 56  1  0
 55 61  1  0
 56 55  1  0
 57 56  2  0
 58 52  2  0
 59 58  1  0
 59 54  2  0
 60 53  1  0
 61 51  1  0
 63 65  2  0
 64 63  1  0
 66 64  1  0
 67 76  2  0
 67 72  1  0
 68 64  1  0
 68 72  1  0
 69 68  1  0
 70 71  1  0
 70 69  1  0
 71 67  1  0
 72 73  2  0
 73 74  1  0
 75 74  2  0
 76 75  1  0
 77 51  1  0
 77 78  1  0
 77 87  1  0
 78 81  1  0
 79 83  1  0
 79 78  1  0
 80 79  2  0
 83 82  1  0
 85 83  1  0
 85 86  1  0
 85 84  1  0
 87 90  1  1
 87 88  1  0
 89 87  1  0
M  ISO  4  11 100  19 100  49 101  50 101
M  END
>  <TORSDO>  (57) 
F 18

>  <SCORE>  (57) 
-14.544

>  <name>  (57) 
56

>  <ligand_id>  (57) 
56

>  <original_smiles>  (57) 
[H]c1c(C([H])([H])[H])nc(C2([H])C([H])([H])C2([H])N([H])C(=O)N2C([H])([H])C([H])([H])C([H])([H])C([H])(n3nc(-c4c([H])c([H])c(Oc5c([H])c([H])c(F)c([H])c5F)c([H])c4[H])c(C(=O)N([H])[H])c3N([H])[H])C2([H])[H])nc1C([H])([H])Oc1c([H])c([H])c2c(c1[H])C([H])([H])N(C(=O)C([H])(N([H])C(=O)C([H])(N([H])C([H])([H])[H])C([H])([H])[H])C(C([H])([H])[H])(C([H])([H])[H])C([H])([H])[H])C([H])(C(=O)N([H])C1([H])c3c([H])c([H])c([H])c([H])c3C([H])([H])C([H])([H])C1([H])[H])C2([H])[H]

>  <smiles>  (57) 
[H]c1c(C([H])([H])[H])nc(C2([H])C([H])([H])C2([H])N([H])C(=O)N2C([H])([H])C([H])([H])C([H])([H])C([H])(n3nc(-c4c([H])c([H])c(Oc5c([H])c([H])c(F)c([H])c5F)c([H])c4[H])c(C(=O)N([H])[H])c3N([H])[H])C2([H])[H])nc1C([H])([H])Oc1c([H])c([H])c2c(c1[H])C([H])([H])N(C(=O)C([H])(N([H])C(=O)C([H])(N([H])C([H])([H])[H])C([H])([H])[H])C(C([H])([H])[H])(C([H])([H])[H])C([H])([H])[H])C([H])(C(=O)N([H])C1([H])c3c([H])c([H])c([H])c([H])c3C([H])([H])C([H])([H])C1([H])[H])C2([H])[H]

$$$$
57:0:0
     RDKit          3D

 91100  0  0  1  0  0  0  0  0999 V2000
  -27.8200  -22.5750   20.1140 C   0  0  0  0  0  3  0  0  0  0  0  0
  -29.4350  -20.8220   20.1290 C   0  0  0  0  0  0  0  0  0  0  0  0
  -28.7840  -23.6250   19.9480 C   0  0  0  0  0  0  0  0  0  0  0  0
  -30.4050  -21.8800   20.0090 C   0  0  0  0  0  0  0  0  0  0  0  0
  -31.8920  -21.5840   19.9330 C   0  0  0  0  0  1  0  0  0  0  0  0
  -28.1280  -21.2270   20.2130 N   0  0  0  0  0  0  0  0  0  0  0  0
  -30.0910  -23.2230   19.9180 N   0  0  0  0  0  0  0  0  0  0  0  0
  -30.6430  -14.8000   20.1230 C   0  0  0  0  0  0  0  0  0  0  0  0
  -30.3660  -12.5270   19.1220 C   0  0  0  0  0  2  0  0  0  0  0  0
  -29.3930  -12.5890   17.9260 C   0  0  0  0  0  2  0  0  0  0  0  0
  -27.9420  -12.4150   18.4090 C   0  0  0  0  0  2  0  0  0  0  0  0
  -27.6050  -13.3110   19.6330 C   0  0  0  0  0  3  0  0  0  0  0  0
  -28.7000  -13.2560   20.7170 C   0  0  0  0  0  2  0  0  0  0  0  0
  -29.9680  -13.5990   20.0660 N   0  0  0  0  0  0  0  0  0  0  0  0
  -31.8360  -14.8260   19.8020 O   0  0  0  0  0  0  0  0  0  0  0  0
  -29.6880  -18.4070   21.4340 C   0  0  0  0  0  2  0  0  0  0  0  0
  -29.1620  -18.3010   19.0850 C   0  0  0  0  0  2  0  0  0  0  0  0
  -30.3270  -16.9450   21.3670 C   0  0  0  0  0  2  0  0  0  0  0  0
  -29.7810  -16.8350   19.0020 C   0  0  0  0  0  2  0  0  0  0  0  0
  -29.8190  -19.2470   20.1310 C   0  0  0  0  0  3  0  0  0  0  0  0
  -29.9470  -16.0160   20.2510 N   0  0  0  0  0  0  0  0  0  0  0  0
  -25.2500  -13.8900   20.4620 C   0  0  0  0  0  0  0  0  0  0  0  0
  -24.1960  -13.1120   20.8540 C   0  0  0  0  0  0  0  0  0  0  0  0
  -24.6540  -11.7600   20.7870 C   0  0  0  0  0  0  0  0  0  0  0  0
  -26.2820  -13.0130   20.1730 N   0  0  0  0  0  0  0  0  0  0  0  0
  -25.9340  -11.7260   20.4340 N   0  0  0  0  0  0  0  0  0  0  0  0
  -23.9300  -10.4970   20.9820 C   0  0  0  0  0  0  0  0  0  0  0  0
  -24.3700   -9.5280   21.9110 C   0  0  0  0  0  3  0  0  0  0  0  0
  -23.6450   -8.3310   22.0940 C   0  0  0  0  0  3  0  0  0  0  0  0
  -22.4660   -8.0940   21.3480 C   0  0  0  0  0  0  0  0  0  0  0  0
  -22.0450   -9.0500   20.4070 C   0  0  0  0  0  3  0  0  0  0  0  0
  -22.7720  -10.2390   20.2220 C   0  0  0  0  0  3  0  0  0  0  0  0
  -21.7120   -6.9480   21.4400 O   0  0  0  0  0  0  0  0  0  0  0  0
  -21.6420   -6.2250   22.6040 C   0  0  0  0  0  0  0  0  0  0  0  0
  -21.1560   -6.7880   23.8030 C   0  0  0  0  0  3  0  0  0  0  0  0
  -21.0350   -5.9890   24.9580 C   0  0  0  0  0  3  0  0  0  0  0  0
  -21.3900   -4.6290   24.9140 C   0  0  0  0  0  0  0  0  0  0  0  0
  -21.8710   -4.0640   23.7190 C   0  0  0  0  0  3  0  0  0  0  0  0
  -21.9930   -4.8600   22.5660 C   0  0  0  0  0  0  0  0  0  0  0  0
  -22.4350   -4.3060   21.4120 F   0  0  0  0  0  0  0  0  0  0  0  0
  -21.2680   -3.8590   26.0210 F   0  0  0  0  0  0  0  0  0  0  0  0
  -22.8100  -13.5880   21.1790 C   0  0  0  0  0  0  0  0  0  0  0  0
  -22.1080  -12.8800   22.0570 N   0  0  0  0  0  0  0  0  0  0  0  0
  -22.3590  -14.6230   20.6900 O   0  0  0  0  0  0  0  0  0  0  0  0
  -22.4870  -12.0430   22.4750 H   0  0  0  0  0  0  0  0  0  0  0  0
  -21.1800  -13.1810   22.3170 H   0  0  0  0  0  0  0  0  0  0  0  0
  -25.4140  -15.2630   20.3040 N   0  0  0  0  0  0  0  0  0  0  0  0
  -24.6610  -15.9230   20.4650 H   0  0  0  0  0  0  0  0  0  0  0  0
  -26.2680  -15.7060   19.9870 H   0  0  0  0  0  0  0  0  0  0  0  0
  -28.4090  -25.0970   19.4110 C   0  0  0  0  0  2  0  0  0  0  0  0
  -28.3150  -26.3640   20.2360 O   0  0  0  0  0  0  0  0  0  0  0  0
  -24.6310  -31.8940   23.2270 C   0  0  0  0  0  0  0  0  0  0  0  0
  -27.2200  -27.2710   20.1510 C   0  0  0  0  0  0  0  0  0  0  0  0
  -23.4280  -30.5080   21.5810 C   0  0  0  0  0  3  0  0  0  0  0  0
  -24.8740  -28.9570   20.1490 C   0  0  0  0  0  0  0  0  0  0  0  0
  -25.9780  -30.7940   21.4130 C   0  0  0  0  0  2  0  0  0  0  0  0
  -26.0500  -29.4150   20.7530 C   0  0  0  0  0  0  0  0  0  0  0  0
  -27.2220  -28.5830   20.7460 C   0  0  0  0  0  3  0  0  0  0  0  0
  -26.0040  -26.8860   19.5340 C   0  0  0  0  0  3  0  0  0  0  0  0
  -24.8590  -27.7010   19.5310 C   0  0  0  0  0  3  0  0  0  0  0  0
  -23.6460  -29.8440   20.1980 C   0  0  0  0  0  2  0  0  0  0  0  0
  -24.6990  -31.0830   22.1300 N   0  0  0  0  0  0  0  0  0  0  0  0
  -23.5460  -32.1740   23.7570 O   0  0  0  0  0  0  0  0  0  0  0  0
  -22.7560  -29.4890   22.5340 C   0  0  0  0  0  0  0  0  0  0  0  0
  -21.4290  -29.3170   22.4030 N   0  0  0  0  0  0  0  0  0  0  0  0
  -23.4280  -28.8580   23.3530 O   0  0  0  0  0  0  0  0  0  0  0  0
  -20.9450  -29.8770   21.7160 H   0  0  0  0  0  0  0  0  0  0  0  0
  -18.0430  -28.1430   22.9090 C   0  0  0  0  0  0  0  0  0  0  0  0
  -20.6050  -28.3790   23.1690 C   0  0  0  0  0  3  0  0  0  0  0  0
  -20.6910  -26.9520   22.5810 C   0  0  0  0  0  2  0  0  0  0  0  0
  -19.5820  -26.6470   21.5700 C   0  0  0  0  0  2  0  0  0  0  0  0
  -18.2050  -26.7990   22.2200 C   0  0  0  0  0  2  0  0  0  0  0  0
  -19.1690  -28.8920   23.3400 C   0  0  0  0  0  0  0  0  0  0  0  0
  -18.9630  -30.1510   23.9460 C   0  0  0  0  0  3  0  0  0  0  0  0
  -17.6630  -30.6600   24.1230 C   0  0  0  0  0  3  0  0  0  0  0  0
  -16.5500  -29.9090   23.7060 C   0  0  0  0  0  3  0  0  0  0  0  0
  -16.7410  -28.6510   23.1050 C   0  0  0  0  0  3  0  0  0  0  0  0
  -25.9110  -32.5220   23.8550 C   0  0  0  0  0  3  0  0  0  0  0  0
  -25.6020  -33.9190   24.1940 N   0  0  0  0  0  0  0  0  0  0  0  0
  -25.9220  -34.9770   23.4380 C   0  0  0  0  0  0  0  0  0  0  0  0
  -26.5800  -34.8790   22.3980 O   0  0  0  0  0  0  0  0  0  0  0  0
  -25.0150  -34.0680   25.0020 H   0  0  0  0  0  0  0  0  0  0  0  0
  -24.1880  -36.7720   23.1130 C   0  0  0  0  0  1  0  0  0  0  0  0
  -25.4390  -36.3630   23.9080 C   0  0  0  0  0  3  0  0  0  0  0  0
  -27.5770  -37.2520   24.7260 C   0  0  0  0  0  1  0  0  0  0  0  0
  -26.4690  -37.4170   23.7900 N   0  0  0  0  0  0  0  0  0  0  0  0
  -26.0620  -38.3370   23.9390 H   0  0  0  0  0  0  0  0  0  0  0  0
  -26.4220  -31.7450   25.1310 C   0  0  1  0  0  0  0  0  0  0  0  0
  -25.3240  -31.5030   26.1930 C   0  0  0  0  0  1  0  0  0  0  0  0
  -27.0060  -30.3680   24.7380 C   0  0  0  0  0  1  0  0  0  0  0  0
  -27.5690  -32.5360   25.8020 C   0  0  0  0  0  1  0  0  0  0  0  0
  1  6  1  0
  2  6  2  0
  3  1  2  0
  4  2  1  0
  5  4  1  0
  7  3  1  0
  7  4  2  0
  8 21  1  0
  9 14  1  0
 10 11  1  0
 10  9  1  0
 12 11  1  0
 12 25  1  0
 12 13  1  0
 14  8  1  0
 14 13  1  0
 15  8  2  0
 17 20  1  0
 18 16  1  0
 19 17  1  0
 19 21  1  0
 20  2  1  0
 20 16  1  0
 21 18  1  0
 22 23  2  0
 23 42  1  0
 24 23  1  0
 24 27  1  0
 25 26  1  0
 25 22  1  0
 26 24  2  0
 27 28  1  0
 28 29  2  0
 30 33  1  0
 30 29  1  0
 31 30  2  0
 32 31  1  0
 32 27  2  0
 33 34  1  0
 34 35  1  0
 35 36  2  0
 37 36  1  0
 37 41  1  0
 38 37  2  0
 39 34  2  0
 39 38  1  0
 40 39  1  0
 42 43  1  0
 43 46  1  0
 43 45  1  0
 44 42  2  0
 47 22  1  0
 47 48  1  0
 49 47  1  0
 50  3  1  0
 50 51  1  0
 52 63  2  0
 53 51  1  0
 53 58  1  0
 54 62  1  0
 54 64  1  0
 55 61  1  0
 55 57  1  0
 56 62  1  0
 57 56  1  0
 58 57  2  0
 59 53  2  0
 60 59  1  0
 60 55  2  0
 61 54  1  0
 62 52  1  0
 64 66  2  0
 65 64  1  0
 67 65  1  0
 68 77  2  0
 68 73  1  0
 69 65  1  0
 69 73  1  0
 70 69  1  0
 71 72  1  0
 71 70  1  0
 72 68  1  0
 73 74  2  0
 74 75  1  0
 76 75  2  0
 77 76  1  0
 78 52  1  0
 78 79  1  0
 78 88  1  0
 79 82  1  0
 80 84  1  0
 80 79  1  0
 81 80  2  0
 84 83  1  0
 86 84  1  0
 86 87  1  0
 86 85  1  0
 88 91  1  1
 88 89  1  0
 90 88  1  0
M  ISO  4   8 100  21 100  50 101  51 101
M  END
>  <TORSDO>  (58) 
F 17

>  <SCORE>  (58) 
-15.003

>  <name>  (58) 
57

>  <ligand_id>  (58) 
57

>  <original_smiles>  (58) 
[H]c1nc(C2([H])C([H])([H])C([H])([H])N(C(=O)N3C([H])([H])C([H])([H])C([H])([H])C([H])(n4nc(-c5c([H])c([H])c(Oc6c([H])c([H])c(F)c([H])c6F)c([H])c5[H])c(C(=O)N([H])[H])c4N([H])[H])C3([H])[H])C([H])([H])C2([H])[H])c(C([H])([H])[H])nc1C([H])([H])Oc1c([H])c([H])c2c(c1[H])C([H])([H])N(C(=O)C([H])(N([H])C(=O)C([H])(N([H])C([H])([H])[H])C([H])([H])[H])C(C([H])([H])[H])(C([H])([H])[H])C([H])([H])[H])C([H])(C(=O)N([H])C1([H])c3c([H])c([H])c([H])c([H])c3C([H])([H])C([H])([H])C1([H])[H])C2([H])[H]

>  <smiles>  (58) 
[H]c1nc(C2([H])C([H])([H])C([H])([H])N(C(=O)N3C([H])([H])C([H])([H])C([H])([H])C([H])(n4nc(-c5c([H])c([H])c(Oc6c([H])c([H])c(F)c([H])c6F)c([H])c5[H])c(C(=O)N([H])[H])c4N([H])[H])C3([H])[H])C([H])([H])C2([H])[H])c(C([H])([H])[H])nc1C([H])([H])Oc1c([H])c([H])c2c(c1[H])C([H])([H])N(C(=O)C([H])(N([H])C(=O)C([H])(N([H])C([H])([H])[H])C([H])([H])[H])C(C([H])([H])[H])(C([H])([H])[H])C([H])([H])[H])C([H])(C(=O)N([H])C1([H])c3c([H])c([H])c([H])c([H])c3C([H])([H])C([H])([H])C1([H])[H])C2([H])[H]

$$$$
58:0:0
     RDKit          3D

 85 92  0  0  1  0  0  0  0  0999 V2000
  -29.5030  -18.8770   19.9690 C   0  0  0  0  0  0  0  0  0  0  0  0
  -29.1890  -19.6270   21.3200 C   0  0  0  0  0  3  0  0  0  0  0  0
  -28.5720  -21.1760   21.1600 C   0  0  0  0  0  2  0  0  0  0  0  0
  -29.3070  -20.4680   19.1210 C   0  0  0  0  0  3  0  0  0  0  0  0
  -29.0650  -22.1020   19.9270 C   0  0  0  0  0  2  0  0  0  0  0  0
  -30.5480  -20.5880   18.2330 C   0  0  0  0  0  1  0  0  0  0  0  0
  -29.7090  -17.4310   19.5860 N   0  0  0  0  0  2  0  0  0  0  0  0
  -30.3930  -15.9640   19.9620 C   0  0  0  0  0  0  0  0  0  0  0  0
  -30.5200  -13.3770   19.2500 C   0  0  0  0  0  2  0  0  0  0  0  0
  -29.6260  -12.9170   18.0600 C   0  0  0  0  0  2  0  0  0  0  0  0
  -28.2110  -12.5440   18.5280 C   0  0  0  0  0  2  0  0  0  0  0  0
  -27.6730  -13.5840   19.5310 C   0  0  0  0  0  3  0  0  0  0  0  0
  -28.7060  -13.9680   20.6150 C   0  0  0  0  0  2  0  0  0  0  0  0
  -29.8700  -14.5920   19.9400 N   0  0  0  0  0  0  0  0  0  0  0  0
  -31.6300  -15.8360   19.9650 O   0  0  0  0  0  0  0  0  0  0  0  0
  -25.3430  -14.1150   20.3890 C   0  0  0  0  0  0  0  0  0  0  0  0
  -24.2860  -13.3370   20.7750 C   0  0  0  0  0  0  0  0  0  0  0  0
  -24.7480  -11.9870   20.7220 C   0  0  0  0  0  0  0  0  0  0  0  0
  -26.3730  -13.2400   20.0980 N   0  0  0  0  0  0  0  0  0  0  0  0
  -26.0310  -11.9500   20.3680 N   0  0  0  0  0  0  0  0  0  0  0  0
  -24.0100  -10.7280   20.9210 C   0  0  0  0  0  0  0  0  0  0  0  0
  -24.4150   -9.7740   21.8810 C   0  0  0  0  0  3  0  0  0  0  0  0
  -23.6740   -8.5860   22.0690 C   0  0  0  0  0  3  0  0  0  0  0  0
  -22.5140   -8.3420   21.2950 C   0  0  0  0  0  0  0  0  0  0  0  0
  -22.1260   -9.2840   20.3290 C   0  0  0  0  0  3  0  0  0  0  0  0
  -22.8680  -10.4620   20.1370 C   0  0  0  0  0  3  0  0  0  0  0  0
  -21.7500   -7.2050   21.3870 O   0  0  0  0  0  0  0  0  0  0  0  0
  -21.6330   -6.5120   22.5650 C   0  0  0  0  0  0  0  0  0  0  0  0
  -21.0670   -7.0950   23.7190 C   0  0  0  0  0  3  0  0  0  0  0  0
  -20.8970   -6.3250   24.8860 C   0  0  0  0  0  3  0  0  0  0  0  0
  -21.2880   -4.9730   24.9020 C   0  0  0  0  0  0  0  0  0  0  0  0
  -21.8510   -4.3890   23.7540 C   0  0  0  0  0  3  0  0  0  0  0  0
  -22.0200   -5.1560   22.5870 C   0  0  0  0  0  0  0  0  0  0  0  0
  -22.5420   -4.5840   21.4760 F   0  0  0  0  0  0  0  0  0  0  0  0
  -21.1210   -4.2310   26.0210 F   0  0  0  0  0  0  0  0  0  0  0  0
  -22.8980  -13.8250   21.0690 C   0  0  0  0  0  0  0  0  0  0  0  0
  -22.1810  -13.1490   21.9620 N   0  0  0  0  0  0  0  0  0  0  0  0
  -22.4550  -14.8430   20.5410 O   0  0  0  0  0  0  0  0  0  0  0  0
  -22.5480  -12.3270   22.4150 H   0  0  0  0  0  0  0  0  0  0  0  0
  -21.2510  -13.4640   22.1980 H   0  0  0  0  0  0  0  0  0  0  0  0
  -25.5130  -15.4840   20.2350 N   0  0  0  0  0  0  0  0  0  0  0  0
  -24.7630  -16.1520   20.3820 H   0  0  0  0  0  0  0  0  0  0  0  0
  -26.3810  -15.9120   19.9330 H   0  0  0  0  0  0  0  0  0  0  0  0
  -28.3550  -23.9190   19.4720 C   0  0  0  0  0  1  0  0  0  0  0  0
  -28.3620  -25.6780   19.8380 O   0  0  0  0  0  0  0  0  0  0  0  0
  -24.5430  -31.6850   23.0180 C   0  0  0  0  0  0  0  0  0  0  0  0
  -27.3510  -26.8800   19.7880 C   0  0  0  0  0  0  0  0  0  0  0  0
  -23.4410  -30.3240   21.2880 C   0  0  0  0  0  3  0  0  0  0  0  0
  -24.9870  -28.8260   19.8030 C   0  0  0  0  0  0  0  0  0  0  0  0
  -26.0080  -30.5990   21.2080 C   0  0  0  0  0  2  0  0  0  0  0  0
  -26.1540  -29.2030   20.4770 C   0  0  0  0  0  0  0  0  0  0  0  0
  -27.3140  -28.2560   20.4460 C   0  0  0  0  0  3  0  0  0  0  0  0
  -26.1470  -26.7350   19.0570 C   0  0  0  0  0  3  0  0  0  0  0  0
  -25.0240  -27.6220   19.0680 C   0  0  0  0  0  3  0  0  0  0  0  0
  -23.7280  -29.7050   19.8860 C   0  0  0  0  0  2  0  0  0  0  0  0
  -24.6850  -30.9010   21.8940 N   0  0  0  0  0  0  0  0  0  0  0  0
  -23.4340  -31.9010   23.5370 O   0  0  0  0  0  0  0  0  0  0  0  0
  -22.7590  -29.2690   22.2030 C   0  0  0  0  0  0  0  0  0  0  0  0
  -21.4290  -29.0890   22.0880 N   0  0  0  0  0  0  0  0  0  0  0  0
  -23.4430  -28.6060   22.9880 O   0  0  0  0  0  0  0  0  0  0  0  0
  -20.9250  -29.6790   21.4390 H   0  0  0  0  0  0  0  0  0  0  0  0
  -18.0730  -27.7960   22.6200 C   0  0  0  0  0  0  0  0  0  0  0  0
  -20.6390  -28.0760   22.8020 C   0  0  0  0  0  3  0  0  0  0  0  0
  -20.7300  -26.7020   22.0960 C   0  0  0  0  0  2  0  0  0  0  0  0
  -19.5900  -26.4610   21.1000 C   0  0  0  0  0  2  0  0  0  0  0  0
  -18.2360  -26.5220   21.8090 C   0  0  0  0  0  2  0  0  0  0  0  0
  -19.2000  -28.5340   23.0740 C   0  0  0  0  0  0  0  0  0  0  0  0
  -18.9860  -29.7260   23.8000 C   0  0  0  0  0  3  0  0  0  0  0  0
  -17.6830  -30.1800   24.0750 C   0  0  0  0  0  3  0  0  0  0  0  0
  -16.5720  -29.4390   23.6350 C   0  0  0  0  0  3  0  0  0  0  0  0
  -16.7700  -28.2480   22.9120 C   0  0  0  0  0  3  0  0  0  0  0  0
  -25.7690  -32.3590   23.7090 C   0  0  0  0  0  3  0  0  0  0  0  0
  -25.3750  -33.7190   24.1270 N   0  0  0  0  0  0  0  0  0  0  0  0
  -25.6470  -34.8450   23.4530 C   0  0  0  0  0  0  0  0  0  0  0  0
  -26.3130  -34.8500   22.4150 O   0  0  0  0  0  0  0  0  0  0  0  0
  -24.7730  -33.7800   24.9340 H   0  0  0  0  0  0  0  0  0  0  0  0
  -23.8200  -36.5700   23.2630 C   0  0  0  0  0  1  0  0  0  0  0  0
  -25.1000  -36.1740   24.0160 C   0  0  0  0  0  3  0  0  0  0  0  0
  -27.1950  -37.1360   24.8700 C   0  0  0  0  0  1  0  0  0  0  0  0
  -26.0700  -37.2910   23.9510 N   0  0  0  0  0  0  0  0  0  0  0  0
  -25.6140  -38.1760   24.1530 H   0  0  0  0  0  0  0  0  0  0  0  0
  -26.2930  -31.5510   24.9610 C   0  0  1  0  0  0  0  0  0  0  0  0
  -25.1950  -31.2270   26.0020 C   0  0  0  0  0  1  0  0  0  0  0  0
  -26.9350  -30.2120   24.5360 C   0  0  0  0  0  1  0  0  0  0  0  0
  -27.4040  -32.3550   25.6780 C   0  0  0  0  0  1  0  0  0  0  0  0
  1  2  2  0
  3  2  1  0
  4  6  1  0
  4  5  1  0
  4  1  1  0
  5  3  1  0
  7  8  1  0
  7  1  1  0
  8 15  2  0
  9 14  1  0
 10 11  1  0
 10  9  1  0
 12 11  1  0
 12 19  1  0
 12 13  1  0
 14  8  1  0
 14 13  1  0
 16 17  2  0
 17 36  1  0
 18 17  1  0
 18 21  1  0
 19 20  1  0
 19 16  1  0
 20 18  2  0
 21 22  1  0
 22 23  2  0
 24 27  1  0
 24 23  1  0
 25 24  2  0
 26 25  1  0
 26 21  2  0
 27 28  1  0
 28 33  2  0
 28 29  1  0
 29 30  2  0
 30 31  1  0
 31 35  1  0
 32 31  2  0
 33 32  1  0
 34 33  1  0
 36 37  1  0
 37 40  1  0
 37 39  1  0
 38 36  2  0
 41 42  1  0
 41 16  1  0
 43 41  1  0
 44 45  1  0
 46 57  2  0
 47 45  1  0
 47 52  1  0
 48 56  1  0
 48 58  1  0
 49 55  1  0
 49 51  1  0
 50 56  1  0
 51 50  1  0
 52 51  2  0
 53 54  1  0
 53 47  2  0
 54 49  2  0
 55 48  1  0
 56 46  1  0
 58 60  2  0
 59 58  1  0
 61 59  1  0
 62 71  2  0
 62 67  1  0
 63 59  1  0
 63 67  1  0
 64 63  1  0
 65 66  1  0
 65 64  1  0
 66 62  1  0
 67 68  2  0
 68 69  1  0
 70 69  2  0
 71 70  1  0
 72 46  1  0
 72 73  1  0
 72 82  1  0
 73 76  1  0
 74 78  1  0
 74 73  1  0
 75 74  2  0
 78 77  1  0
 80 78  1  0
 80 81  1  0
 80 79  1  0
 82 85  1  1
 82 83  1  0
 84 82  1  0
M  ISO  4   7 100   8 100  44 101  45 101
M  END
>  <TORSDO>  (59) 
F 17

>  <SCORE>  (59) 
-15.076

>  <name>  (59) 
58

>  <ligand_id>  (59) 
58

>  <original_smiles>  (59) 
[H]c1c([H])c([H])c2c(c1[H])C([H])([H])C([H])([H])C([H])([H])C2([H])N([H])C(=O)C1([H])N(C(=O)C([H])(N([H])C(=O)C([H])(N([H])C([H])([H])[H])C([H])([H])[H])C(C([H])([H])[H])(C([H])([H])[H])C([H])([H])[H])C([H])([H])c2c([H])c(OC([H])([H])C3([H])C([H])([H])C([H])([H])C(=NC(=O)N4C([H])([H])C([H])([H])C([H])([H])C([H])(n5nc(-c6c([H])c([H])c(Oc7c([H])c([H])c(F)c([H])c7F)c([H])c6[H])c(C(=O)N([H])[H])c5N([H])[H])C4([H])[H])C3([H])C([H])([H])[H])c([H])c([H])c2C1([H])[H]

>  <smiles>  (59) 
[H]c1c([H])c([H])c2c(c1[H])C([H])([H])C([H])([H])C([H])([H])C2([H])N([H])C(=O)C1([H])N(C(=O)C([H])(N([H])C(=O)C([H])(N([H])C([H])([H])[H])C([H])([H])[H])C(C([H])([H])[H])(C([H])([H])[H])C([H])([H])[H])C([H])([H])c2c([H])c(OC([H])([H])C3([H])C([H])([H])C([H])([H])C(=NC(=O)N4C([H])([H])C([H])([H])C([H])([H])C([H])(n5nc(-c6c([H])c([H])c(Oc7c([H])c([H])c(F)c([H])c7F)c([H])c6[H])c(C(=O)N([H])[H])c5N([H])[H])C4([H])[H])C3([H])C([H])([H])[H])c([H])c([H])c2C1([H])[H]

$$$$
59:0:0
     RDKit          3D

 99108  0  0  1  0  0  0  0  0999 V2000
  -30.4710  -22.1700   20.3730 C   0  0  0  0  0  0  0  0  0  0  0  0
  -29.6410  -22.8690   19.4760 C   0  0  0  0  0  0  0  0  0  0  0  0
  -30.5780  -22.7190   21.6670 C   0  0  0  0  0  0  0  0  0  0  0  0
  -29.1930  -24.4370   21.0820 C   0  0  0  0  0  0  0  0  0  0  0  0
  -29.4390  -22.4360   18.0350 C   0  0  0  0  0  1  0  0  0  0  0  0
  -29.0030  -23.9930   19.8430 N   0  0  0  0  0  0  0  0  0  0  0  0
  -29.9340  -23.8490   22.0110 N   0  0  0  0  0  0  0  0  0  0  0  0
  -31.5600  -21.9800   22.8800 Cl  0  0  0  0  0  0  0  0  0  0  0  0
  -31.3170  -20.9850   19.9240 C   0  0  0  0  0  2  0  0  0  0  0  0
  -29.7060  -17.8050   21.2430 C   0  0  0  0  0  2  0  0  0  0  0  0
  -30.3300  -19.2230   21.2580 C   0  0  0  0  0  2  0  0  0  0  0  0
  -31.5450  -18.7510   19.2390 C   0  0  0  0  0  2  0  0  0  0  0  0
  -30.6410  -16.7910   20.5530 C   0  0  0  0  0  3  0  0  0  0  0  0
  -30.9380  -17.3390   19.1240 C   0  0  0  0  0  3  0  0  0  0  0  0
  -30.6300  -19.6890   19.8960 N   0  0  0  0  0  0  0  0  0  0  0  0
  -30.7660  -14.3240   20.1980 C   0  0  0  0  0  0  0  0  0  0  0  0
  -30.3700  -12.2340   18.9870 C   0  0  0  0  0  2  0  0  0  0  0  0
  -29.3830  -12.4990   17.8340 C   0  0  0  0  0  2  0  0  0  0  0  0
  -27.9320  -12.3420   18.3250 C   0  0  0  0  0  2  0  0  0  0  0  0
  -27.6480  -13.1240   19.6370 C   0  0  0  0  0  3  0  0  0  0  0  0
  -28.7550  -12.8850   20.6890 C   0  0  0  0  0  2  0  0  0  0  0  0
  -30.0500  -13.1820   20.0630 N   0  0  0  0  0  0  0  0  0  0  0  0
  -31.8960  -14.4670   19.7310 O   0  0  0  0  0  0  0  0  0  0  0  0
  -30.0930  -15.4150   20.5930 N   0  0  0  0  0  0  0  0  0  0  0  0
  -29.1430  -15.2890   20.9080 H   0  0  0  0  0  0  0  0  0  0  0  0
  -25.2680  -13.6660   20.4520 C   0  0  0  0  0  0  0  0  0  0  0  0
  -24.2320  -12.8630   20.8500 C   0  0  0  0  0  0  0  0  0  0  0  0
  -24.7210  -11.5220   20.7770 C   0  0  0  0  0  0  0  0  0  0  0  0
  -26.3220  -12.8110   20.1660 N   0  0  0  0  0  0  0  0  0  0  0  0
  -25.9990  -11.5170   20.4190 N   0  0  0  0  0  0  0  0  0  0  0  0
  -24.0300  -10.2420   20.9730 C   0  0  0  0  0  0  0  0  0  0  0  0
  -24.4790   -9.2980   21.9230 C   0  0  0  0  0  3  0  0  0  0  0  0
  -23.7860   -8.0810   22.1060 C   0  0  0  0  0  3  0  0  0  0  0  0
  -22.6320   -7.8000   21.3380 C   0  0  0  0  0  0  0  0  0  0  0  0
  -22.2030   -8.7330   20.3770 C   0  0  0  0  0  3  0  0  0  0  0  0
  -22.8960   -9.9400   20.1920 C   0  0  0  0  0  3  0  0  0  0  0  0
  -21.9110   -6.6340   21.4290 O   0  0  0  0  0  0  0  0  0  0  0  0
  -21.8200   -5.9330   22.6050 C   0  0  0  0  0  0  0  0  0  0  0  0
  -21.2310   -6.4910   23.7610 C   0  0  0  0  0  3  0  0  0  0  0  0
  -21.0960   -5.7120   24.9270 C   0  0  0  0  0  3  0  0  0  0  0  0
  -21.5390   -4.3750   24.9380 C   0  0  0  0  0  0  0  0  0  0  0  0
  -22.1210   -3.8170   23.7870 C   0  0  0  0  0  3  0  0  0  0  0  0
  -22.2580   -4.5930   22.6220 C   0  0  0  0  0  0  0  0  0  0  0  0
  -22.7990   -4.0440   21.5090 F   0  0  0  0  0  0  0  0  0  0  0  0
  -21.4030   -3.6250   26.0560 F   0  0  0  0  0  0  0  0  0  0  0  0
  -22.8360  -13.3050   21.1830 C   0  0  0  0  0  0  0  0  0  0  0  0
  -22.1620  -12.5860   22.0730 N   0  0  0  0  0  0  0  0  0  0  0  0
  -22.3530  -14.3230   20.6900 O   0  0  0  0  0  0  0  0  0  0  0  0
  -22.5650  -11.7620   22.4940 H   0  0  0  0  0  0  0  0  0  0  0  0
  -21.2280  -12.8640   22.3400 H   0  0  0  0  0  0  0  0  0  0  0  0
  -25.3950  -15.0410   20.2900 N   0  0  0  0  0  0  0  0  0  0  0  0
  -24.6170  -15.6730   20.4400 H   0  0  0  0  0  0  0  0  0  0  0  0
  -26.2150  -15.5060   19.9210 H   0  0  0  0  0  0  0  0  0  0  0  0
  -31.5260  -16.3280   16.9200 C   0  0  0  0  0  1  0  0  0  0  0  0
  -31.8680  -16.4940   18.3470 N   0  0  0  0  0  4  0  0  0  0  0  0
  -31.8910  -15.5800   18.8020 H   0  0  0  0  0  0  0  0  0  0  0  0
  -32.7990  -16.8700   18.4220 H   0  0  0  0  0  0  0  0  0  0  0  0
  -28.5120  -25.7470   21.4520 C   0  0  0  0  0  2  0  0  0  0  0  0
  -28.5380  -26.6940   20.3800 O   0  0  0  0  0  0  0  0  0  0  0  0
  -24.5970  -31.8210   23.3080 C   0  0  0  0  0  0  0  0  0  0  0  0
  -27.3960  -27.4410   20.3240 C   0  0  0  0  0  0  0  0  0  0  0  0
  -23.4750  -30.4370   21.5890 C   0  0  0  0  0  3  0  0  0  0  0  0
  -25.0020  -28.9150   20.2250 C   0  0  0  0  0  0  0  0  0  0  0  0
  -26.0030  -30.8060   21.5230 C   0  0  0  0  0  2  0  0  0  0  0  0
  -26.1230  -29.4430   20.8790 C   0  0  0  0  0  0  0  0  0  0  0  0
  -27.3260  -28.7100   20.9330 C   0  0  0  0  0  3  0  0  0  0  0  0
  -26.2680  -26.9160   19.6640 C   0  0  0  0  0  3  0  0  0  0  0  0
  -25.0660  -27.6480   19.6170 C   0  0  0  0  0  3  0  0  0  0  0  0
  -23.7550  -29.7690   20.2150 C   0  0  0  0  0  2  0  0  0  0  0  0
  -24.7060  -31.0340   22.2000 N   0  0  0  0  0  0  0  0  0  0  0  0
  -23.4900  -32.0880   23.7950 O   0  0  0  0  0  0  0  0  0  0  0  0
  -22.7750  -29.4060   22.5040 C   0  0  0  0  0  0  0  0  0  0  0  0
  -21.4540  -29.2510   22.3250 N   0  0  0  0  0  0  0  0  0  0  0  0
  -23.4200  -28.7520   23.3260 O   0  0  0  0  0  0  0  0  0  0  0  0
  -20.9980  -29.8320   21.6350 H   0  0  0  0  0  0  0  0  0  0  0  0
  -18.0340  -28.1540   22.7150 C   0  0  0  0  0  0  0  0  0  0  0  0
  -20.5930  -28.3130   23.0440 C   0  0  0  0  0  3  0  0  0  0  0  0
  -20.6590  -26.9020   22.4140 C   0  0  0  0  0  2  0  0  0  0  0  0
  -19.5680  -26.6570   21.3680 C   0  0  0  0  0  2  0  0  0  0  0  0
  -18.1790  -26.8260   21.9910 C   0  0  0  0  0  2  0  0  0  0  0  0
  -19.1690  -28.8590   23.1950 C   0  0  0  0  0  0  0  0  0  0  0  0
  -18.9840  -30.1070   23.8270 C   0  0  0  0  0  3  0  0  0  0  0  0
  -17.6940  -30.6490   23.9870 C   0  0  0  0  0  3  0  0  0  0  0  0
  -16.5720  -29.9380   23.5260 C   0  0  0  0  0  3  0  0  0  0  0  0
  -16.7430  -28.6930   22.8950 C   0  0  0  0  0  3  0  0  0  0  0  0
  -25.8520  -32.4400   24.0000 C   0  0  0  0  0  3  0  0  0  0  0  0
  -26.2510  -31.7050   25.3390 C   0  0  1  0  0  0  0  0  0  0  0  0
  -25.0730  -31.5260   26.3240 C   0  0  0  0  0  1  0  0  0  0  0  0
  -26.8340  -30.3040   25.0370 C   0  0  0  0  0  1  0  0  0  0  0  0
  -27.3630  -32.5000   26.0620 C   0  0  0  0  0  1  0  0  0  0  0  0
  -25.5640  -33.8580   24.2500 N   0  0  0  0  0  0  0  0  0  0  0  0
  -25.9770  -34.8660   23.4710 C   0  0  0  0  0  0  0  0  0  0  0  0
  -26.7110  -34.6990   22.4920 O   0  0  0  0  0  0  0  0  0  0  0  0
  -24.9230  -34.0640   25.0030 H   0  0  0  0  0  0  0  0  0  0  0  0
  -24.3370  -36.6870   22.9110 C   0  0  0  0  0  1  0  0  0  0  0  0
  -25.4980  -36.2840   23.8330 C   0  0  0  0  0  3  0  0  0  0  0  0
  -27.5790  -37.1540   24.8010 C   0  0  0  0  0  1  0  0  0  0  0  0
  -26.5680  -37.3030   23.7570 N   0  0  0  0  0  0  0  0  0  0  0  0
  -26.1800  -38.2390   23.8240 H   0  0  0  0  0  0  0  0  0  0  0  0
  1  3  1  0
  2  6  1  0
  2  1  2  0
  3  7  2  0
  3  8  1  0
  4 58  1  0
  4  7  1  0
  5  2  1  0
  6  4  2  0
  9  1  1  0
 10 11  1  0
 12 15  1  0
 13 24  1  0
 13 10  1  0
 14 55  1  0
 14 12  1  0
 14 13  1  0
 15  9  1  0
 15 11  1  0
 16 24  1  0
 17 22  1  0
 18 19  1  0
 18 17  1  0
 20 19  1  0
 20 29  1  0
 20 21  1  0
 22 16  1  0
 22 21  1  0
 23 16  2  0
 24 25  1  0
 26 27  2  0
 27 46  1  0
 28 27  1  0
 28 31  1  0
 29 30  1  0
 29 26  1  0
 30 28  2  0
 31 32  1  0
 32 33  2  0
 34 37  1  0
 34 33  1  0
 35 34  2  0
 36 35  1  0
 36 31  2  0
 37 38  1  0
 38 43  2  0
 38 39  1  0
 39 40  2  0
 40 41  1  0
 41 45  1  0
 42 41  2  0
 43 42  1  0
 44 43  1  0
 46 47  1  0
 47 50  1  0
 47 49  1  0
 48 46  2  0
 51 52  1  0
 51 26  1  0
 53 51  1  0
 54 55  1  0
 55 57  1  0
 55 56  1  0
 59 58  1  0
 60 71  2  0
 61 59  1  0
 61 66  1  0
 62 70  1  0
 62 72  1  0
 63 65  1  0
 64 70  1  0
 65 66  2  0
 65 64  1  0
 67 61  2  0
 68 67  1  0
 68 63  2  0
 69 63  1  0
 69 62  1  0
 70 60  1  0
 72 74  2  0
 73 72  1  0
 75 73  1  0
 76 85  2  0
 76 81  1  0
 77 73  1  0
 77 81  1  0
 78 77  1  0
 79 80  1  0
 79 78  1  0
 80 76  1  0
 81 82  2  0
 82 83  1  0
 84 83  2  0
 85 84  1  0
 86 60  1  0
 86 91  1  0
 86 87  1  0
 87 90  1  1
 87 88  1  0
 89 87  1  0
 91 94  1  0
 92 96  1  0
 92 91  1  0
 93 92  2  0
 96 95  1  0
 98 99  1  0
 98 96  1  0
 98 97  1  0
M  ISO  4  16 100  24 100  58 101  59 101
M  END
>  <TORSDO>  (60) 
F 20

>  <SCORE>  (60) 
-13.281

>  <name>  (60) 
59

>  <ligand_id>  (60) 
59

>  <original_smiles>  (60) 
[H]c1c([H])c([H])c2c(c1[H])C([H])([H])C([H])([H])C([H])([H])C2([H])N([H])C(=O)C1([H])N(C(=O)C([H])(N([H])C(=O)C([H])(N([H])C([H])([H])[H])C([H])([H])[H])C(C([H])([H])[H])(C([H])([H])[H])C([H])([H])[H])C([H])([H])c2c([H])c(OC([H])([H])c3nc(Cl)c(C([H])([H])N4C([H])([H])C([H])([H])C([H])(N([H])C(=O)N5C([H])([H])C([H])([H])C([H])([H])C([H])(n6nc(-c7c([H])c([H])c(Oc8c([H])c([H])c(F)c([H])c8F)c([H])c7[H])c(C(=O)N([H])[H])c6N([H])[H])C5([H])[H])C([H])([N+]([H])([H])C([H])([H])[H])C4([H])[H])c(C([H])([H])[H])n3)c([H])c([H])c2C1([H])[H]

>  <smiles>  (60) 
[H]c1c([H])c([H])c2c(c1[H])C([H])([H])C([H])([H])C([H])([H])C2([H])N([H])C(=O)C1([H])N(C(=O)C([H])(N([H])C(=O)C([H])(N([H])C([H])([H])[H])C([H])([H])[H])C(C([H])([H])[H])(C([H])([H])[H])C([H])([H])[H])C([H])([H])c2c([H])c(OC([H])([H])c3nc(Cl)c(C([H])([H])N4C([H])([H])C([H])([H])C([H])(N([H])C(=O)N5C([H])([H])C([H])([H])C([H])([H])C([H])(n6nc(-c7c([H])c([H])c(Oc8c([H])c([H])c(F)c([H])c8F)c([H])c7[H])c(C(=O)N([H])[H])c6N([H])[H])C5([H])[H])C([H])([N+]([H])([H])C([H])([H])[H])C4([H])[H])c(C([H])([H])[H])n3)c([H])c([H])c2C1([H])[H]

$$$$
60:0:0
     RDKit          3D

 91100  0  0  1  0  0  0  0  0999 V2000
  -27.4740  -20.1240   19.4970 C   0  0  0  0  0  3  0  0  0  0  0  0
  -28.7890  -20.1100   19.9920 C   0  0  0  0  0  0  0  0  0  0  0  0
  -26.8500  -21.3380   19.2290 C   0  0  0  0  0  0  0  0  0  0  0  0
  -28.7210  -22.4980   19.9030 C   0  0  0  0  0  0  0  0  0  0  0  0
  -25.4190  -21.4120   18.7430 C   0  0  0  0  0  1  0  0  0  0  0  0
  -29.4080  -21.3400   20.2020 N   0  0  0  0  0  0  0  0  0  0  0  0
  -27.4800  -22.4980   19.4290 N   0  0  0  0  0  0  0  0  0  0  0  0
  -29.1130  -17.8190   19.1490 C   0  0  0  0  0  2  0  0  0  0  0  0
  -29.3000  -18.6600   20.4050 C   0  0  0  0  0  3  0  0  0  0  0  0
  -30.2860  -17.4490   19.9550 C   0  0  0  0  0  3  0  0  0  0  0  0
  -30.9380  -14.9240   20.0940 C   0  0  0  0  0  0  0  0  0  0  0  0
  -30.6550  -12.6760   19.0570 C   0  0  0  0  0  2  0  0  0  0  0  0
  -29.6920  -12.8160   17.8550 C   0  0  0  0  0  2  0  0  0  0  0  0
  -28.2260  -12.6900   18.3120 C   0  0  0  0  0  2  0  0  0  0  0  0
  -27.9090  -13.5660   19.5510 C   0  0  0  0  0  3  0  0  0  0  0  0
  -28.9860  -13.4000   20.6510 C   0  0  0  0  0  2  0  0  0  0  0  0
  -30.2920  -13.7110   20.0500 N   0  0  0  0  0  0  0  0  0  0  0  0
  -32.0890  -15.0450   19.6640 O   0  0  0  0  0  0  0  0  0  0  0  0
  -30.1640  -16.0210   20.3930 N   0  0  0  0  0  0  0  0  0  0  0  0
  -29.2680  -15.7770   20.7870 H   0  0  0  0  0  0  0  0  0  0  0  0
  -25.5480  -14.2290   20.3190 C   0  0  0  0  0  0  0  0  0  0  0  0
  -24.4660  -13.4850   20.7030 C   0  0  0  0  0  0  0  0  0  0  0  0
  -24.8860  -12.1210   20.6510 C   0  0  0  0  0  0  0  0  0  0  0  0
  -26.5620  -13.3200   20.0590 N   0  0  0  0  0  0  0  0  0  0  0  0
  -26.1690  -12.0470   20.3190 N   0  0  0  0  0  0  0  0  0  0  0  0
  -24.1250  -10.8800   20.8420 C   0  0  0  0  0  0  0  0  0  0  0  0
  -24.5320   -9.8990   21.7740 C   0  0  0  0  0  3  0  0  0  0  0  0
  -23.7730   -8.7230   21.9540 C   0  0  0  0  0  3  0  0  0  0  0  0
  -22.5920   -8.5200   21.2020 C   0  0  0  0  0  0  0  0  0  0  0  0
  -22.2030   -9.4880   20.2600 C   0  0  0  0  0  3  0  0  0  0  0  0
  -22.9630  -10.6550   20.0780 C   0  0  0  0  0  3  0  0  0  0  0  0
  -21.8050   -7.3970   21.2910 O   0  0  0  0  0  0  0  0  0  0  0  0
  -21.7370   -6.6550   22.4430 C   0  0  0  0  0  0  0  0  0  0  0  0
  -21.2710   -7.2060   23.6570 C   0  0  0  0  0  3  0  0  0  0  0  0
  -21.1520   -6.3900   24.7990 C   0  0  0  0  0  3  0  0  0  0  0  0
  -21.4880   -5.0240   24.7290 C   0  0  0  0  0  0  0  0  0  0  0  0
  -21.9470   -4.4730   23.5200 C   0  0  0  0  0  3  0  0  0  0  0  0
  -22.0680   -5.2860   22.3800 C   0  0  0  0  0  0  0  0  0  0  0  0
  -22.4910   -4.7460   21.2110 F   0  0  0  0  0  0  0  0  0  0  0  0
  -21.3660   -4.2390   25.8240 F   0  0  0  0  0  0  0  0  0  0  0  0
  -23.0900  -14.0020   21.0040 C   0  0  0  0  0  0  0  0  0  0  0  0
  -22.3590  -13.3250   21.8820 N   0  0  0  0  0  0  0  0  0  0  0  0
  -22.6720  -15.0430   20.4970 O   0  0  0  0  0  0  0  0  0  0  0  0
  -22.7100  -12.4830   22.3150 H   0  0  0  0  0  0  0  0  0  0  0  0
  -21.4340  -13.6520   22.1260 H   0  0  0  0  0  0  0  0  0  0  0  0
  -25.7480  -15.5950   20.1470 N   0  0  0  0  0  0  0  0  0  0  0  0
  -24.9890  -16.2600   20.2490 H   0  0  0  0  0  0  0  0  0  0  0  0
  -26.5790  -16.0030   19.7410 H   0  0  0  0  0  0  0  0  0  0  0  0
  -29.2570  -23.9680   20.1830 C   0  0  0  0  0  3  0  0  0  0  0  0
  -28.2880  -25.1920   19.7540 C   0  0  0  0  0  3  0  0  0  0  0  0
  -28.5180  -26.6490   20.0260 O   0  0  0  0  0  0  0  0  0  0  0  0
  -24.6060  -31.8600   23.1840 C   0  0  0  0  0  0  0  0  0  0  0  0
  -27.3890  -27.5000   19.9740 C   0  0  0  0  0  0  0  0  0  0  0  0
  -23.4610  -30.4890   21.4810 C   0  0  0  0  0  3  0  0  0  0  0  0
  -24.9740  -29.0530   20.0030 C   0  0  0  0  0  0  0  0  0  0  0  0
  -25.9920  -30.8950   21.3330 C   0  0  0  0  0  2  0  0  0  0  0  0
  -26.1230  -29.5470   20.6320 C   0  0  0  0  0  0  0  0  0  0  0  0
  -27.3330  -28.7830   20.6100 C   0  0  0  0  0  3  0  0  0  0  0  0
  -26.2130  -27.0790   19.3070 C   0  0  0  0  0  3  0  0  0  0  0  0
  -25.0230  -27.8260   19.3290 C   0  0  0  0  0  3  0  0  0  0  0  0
  -23.7080  -29.8790   20.0770 C   0  0  0  0  0  2  0  0  0  0  0  0
  -24.7040  -31.0970   22.0560 N   0  0  0  0  0  0  0  0  0  0  0  0
  -23.5110  -32.0800   23.7210 O   0  0  0  0  0  0  0  0  0  0  0  0
  -22.8250  -29.4140   22.3960 C   0  0  0  0  0  0  0  0  0  0  0  0
  -21.5020  -29.2100   22.2640 N   0  0  0  0  0  0  0  0  0  0  0  0
  -23.5200  -28.7680   23.1840 O   0  0  0  0  0  0  0  0  0  0  0  0
  -20.9970  -29.7830   21.6030 H   0  0  0  0  0  0  0  0  0  0  0  0
  -18.1480  -27.9580   22.7730 C   0  0  0  0  0  0  0  0  0  0  0  0
  -20.7110  -28.2180   22.9940 C   0  0  0  0  0  3  0  0  0  0  0  0
  -20.8070  -26.8280   22.3240 C   0  0  0  0  0  2  0  0  0  0  0  0
  -19.6800  -26.5590   21.3230 C   0  0  0  0  0  2  0  0  0  0  0  0
  -18.3140  -26.6550   22.0090 C   0  0  0  0  0  2  0  0  0  0  0  0
  -19.2740  -28.6980   23.2220 C   0  0  0  0  0  0  0  0  0  0  0  0
  -19.0640  -29.9190   23.8980 C   0  0  0  0  0  3  0  0  0  0  0  0
  -17.7610  -30.3990   24.1290 C   0  0  0  0  0  3  0  0  0  0  0  0
  -16.6500  -29.6560   23.6950 C   0  0  0  0  0  3  0  0  0  0  0  0
  -16.8450  -28.4370   23.0220 C   0  0  0  0  0  3  0  0  0  0  0  0
  -25.8630  -32.5110   23.8400 C   0  0  0  0  0  3  0  0  0  0  0  0
  -26.3610  -31.7400   25.1240 C   0  0  1  0  0  0  0  0  0  0  0  0
  -25.2450  -31.4640   26.1560 C   0  0  0  0  0  1  0  0  0  0  0  0
  -26.9910  -30.3810   24.7360 C   0  0  0  0  0  1  0  0  0  0  0  0
  -27.4710  -32.5570   25.8270 C   0  0  0  0  0  1  0  0  0  0  0  0
  -25.5210  -33.9010   24.1720 N   0  0  0  0  0  0  0  0  0  0  0  0
  -25.8400  -34.9650   23.4230 C   0  0  0  0  0  0  0  0  0  0  0  0
  -26.5240  -34.8800   22.3990 O   0  0  0  0  0  0  0  0  0  0  0  0
  -24.9140  -34.0390   24.9680 H   0  0  0  0  0  0  0  0  0  0  0  0
  -24.0850  -36.7290   23.0540 C   0  0  0  0  0  1  0  0  0  0  0  0
  -25.3210  -36.3410   23.8820 C   0  0  0  0  0  3  0  0  0  0  0  0
  -27.4150  -37.2710   24.7640 C   0  0  0  0  0  1  0  0  0  0  0  0
  -26.3360  -37.4130   23.7910 N   0  0  0  0  0  0  0  0  0  0  0  0
  -25.9080  -38.3260   23.9240 H   0  0  0  0  0  0  0  0  0  0  0  0
  1  2  2  0
  2  6  1  0
  3  7  2  0
  3  1  1  0
  4 49  1  0
  4  6  2  0
  5  3  1  0
  7  4  1  0
  8 10  1  0
  8  9  1  0
  9  2  1  0
 10 19  1  0
 10  9  1  0
 11 19  1  0
 12 17  1  0
 13 14  1  0
 13 12  1  0
 15 14  1  0
 15 24  1  0
 15 16  1  0
 17 11  1  0
 17 16  1  0
 18 11  2  0
 19 20  1  0
 21 22  2  0
 22 41  1  0
 23 22  1  0
 23 26  1  0
 24 21  1  0
 24 25  1  0
 25 23  2  0
 26 27  1  0
 27 28  2  0
 29 32  1  0
 29 28  1  0
 30 29  2  0
 31 30  1  0
 31 26  2  0
 32 33  1  0
 33 34  1  0
 34 35  2  0
 36 35  1  0
 36 40  1  0
 37 36  2  0
 38 33  2  0
 38 37  1  0
 39 38  1  0
 41 42  1  0
 42 45  1  0
 42 44  1  0
 43 41  2  0
 46 47  1  0
 46 21  1  0
 48 46  1  0
 50 51  1  0
 50 49  2  0
 52 63  2  0
 53 51  1  0
 53 58  1  0
 54 62  1  0
 54 64  1  0
 55 61  1  0
 55 57  1  0
 56 62  1  0
 57 56  1  0
 58 57  2  0
 59 60  1  0
 59 53  2  0
 60 55  2  0
 61 54  1  0
 62 52  1  0
 64 66  2  0
 65 64  1  0
 67 65  1  0
 68 77  2  0
 68 73  1  0
 69 65  1  0
 69 73  1  0
 70 69  1  0
 71 72  1  0
 71 70  1  0
 72 68  1  0
 73 74  2  0
 74 75  1  0
 76 75  2  0
 77 76  1  0
 78 52  1  0
 78 83  1  0
 78 79  1  0
 79 82  1  1
 79 80  1  0
 81 79  1  0
 83 86  1  0
 84 88  1  0
 84 83  1  0
 85 84  2  0
 88 87  1  0
 90 88  1  0
 90 91  1  0
 90 89  1  0
M  ISO  4  11 100  19 100  50 101  51 101
M  END
>  <TORSDO>  (61) 
F 19

>  <SCORE>  (61) 
-13.529

>  <name>  (61) 
60

>  <ligand_id>  (61) 
60

>  <original_smiles>  (61) 
[H]c1c(C([H])([H])[H])nc(C([H])([H])C([H])([H])Oc2c([H])c([H])c3c(c2[H])C([H])([H])N(C(=O)C([H])(N([H])C(=O)C([H])(N([H])C([H])([H])[H])C([H])([H])[H])C(C([H])([H])[H])(C([H])([H])[H])C([H])([H])[H])C([H])(C(=O)N([H])C2([H])c4c([H])c([H])c([H])c([H])c4C([H])([H])C([H])([H])C2([H])[H])C3([H])[H])nc1C1([H])C([H])([H])C1([H])N([H])C(=O)N1C([H])([H])C([H])([H])C([H])([H])C([H])(n2nc(-c3c([H])c([H])c(Oc4c([H])c([H])c(F)c([H])c4F)c([H])c3[H])c(C(=O)N([H])[H])c2N([H])[H])C1([H])[H]

>  <smiles>  (61) 
[H]c1c(C([H])([H])[H])nc(C([H])([H])C([H])([H])Oc2c([H])c([H])c3c(c2[H])C([H])([H])N(C(=O)C([H])(N([H])C(=O)C([H])(N([H])C([H])([H])[H])C([H])([H])[H])C(C([H])([H])[H])(C([H])([H])[H])C([H])([H])[H])C([H])(C(=O)N([H])C2([H])c4c([H])c([H])c([H])c([H])c4C([H])([H])C([H])([H])C2([H])[H])C3([H])[H])nc1C1([H])C([H])([H])C1([H])N([H])C(=O)N1C([H])([H])C([H])([H])C([H])([H])C([H])(n2nc(-c3c([H])c([H])c(Oc4c([H])c([H])c(F)c([H])c4F)c([H])c3[H])c(C(=O)N([H])[H])c2N([H])[H])C1([H])[H]

$$$$
61:0:0
     RDKit          3D

 90 99  0  0  1  0  0  0  0  0999 V2000
  -29.6090  -22.7460   21.3230 C   0  0  0  0  0  0  0  0  0  0  0  0
  -28.5580  -23.0750   20.3950 C   0  0  0  0  0  0  0  0  0  0  0  0
  -30.3270  -23.7240   22.2020 C   0  0  0  0  0  1  0  0  0  0  0  0
  -29.8920  -21.4370   21.3750 N   0  0  0  0  0  0  0  0  0  0  0  0
  -28.2300  -21.8370   19.9080 N   0  0  0  0  0  0  0  0  0  0  0  0
  -29.0650  -20.8150   20.4820 N   0  0  0  0  0  0  0  0  0  0  0  0
  -28.8020  -18.8060   18.8370 C   0  0  0  0  0  2  0  0  0  0  0  0
  -30.2270  -18.2260   18.8800 C   0  0  0  0  0  2  0  0  0  0  0  0
  -28.9450  -19.2330   20.3020 C   0  0  0  0  0  3  0  0  0  0  0  0
  -30.0230  -17.8800   20.3600 C   0  0  0  0  0  3  0  0  0  0  0  0
  -30.4450  -15.0890   20.2980 C   0  0  0  0  0  0  0  0  0  0  0  0
  -30.3550  -12.7100   19.3660 C   0  0  0  0  0  2  0  0  0  0  0  0
  -29.4190  -12.6200   18.1370 C   0  0  0  0  0  2  0  0  0  0  0  0
  -27.9640  -12.3900   18.5790 C   0  0  0  0  0  2  0  0  0  0  0  0
  -27.5480  -13.3150   19.7520 C   0  0  0  0  0  3  0  0  0  0  0  0
  -28.6090  -13.3680   20.8710 C   0  0  0  0  0  2  0  0  0  0  0  0
  -29.8600  -13.8140   20.2480 N   0  0  0  0  0  0  0  0  0  0  0  0
  -31.6490  -15.1330   20.0190 O   0  0  0  0  0  0  0  0  0  0  0  0
  -29.6750  -16.3020   20.4600 N   0  0  0  0  0  0  0  0  0  0  0  0
  -28.7020  -16.1140   20.6530 H   0  0  0  0  0  0  0  0  0  0  0  0
  -25.1760  -13.8660   20.5180 C   0  0  0  0  0  0  0  0  0  0  0  0
  -24.1230  -13.0800   20.8980 C   0  0  0  0  0  0  0  0  0  0  0  0
  -24.6000  -11.7330   20.8590 C   0  0  0  0  0  0  0  0  0  0  0  0
  -26.2220  -12.9980   20.2620 N   0  0  0  0  0  0  0  0  0  0  0  0
  -25.8880  -11.7100   20.5360 N   0  0  0  0  0  0  0  0  0  0  0  0
  -23.8840  -10.4650   21.0510 C   0  0  0  0  0  0  0  0  0  0  0  0
  -24.3320   -9.4940   21.9720 C   0  0  0  0  0  3  0  0  0  0  0  0
  -23.6120   -8.2930   22.1540 C   0  0  0  0  0  3  0  0  0  0  0  0
  -22.4310   -8.0540   21.4140 C   0  0  0  0  0  0  0  0  0  0  0  0
  -22.0020   -9.0140   20.4820 C   0  0  0  0  0  3  0  0  0  0  0  0
  -22.7220  -10.2060   20.2970 C   0  0  0  0  0  3  0  0  0  0  0  0
  -21.6820   -6.9050   21.5060 O   0  0  0  0  0  0  0  0  0  0  0  0
  -21.6600   -6.1520   22.6510 C   0  0  0  0  0  0  0  0  0  0  0  0
  -21.2490   -6.6890   23.8900 C   0  0  0  0  0  3  0  0  0  0  0  0
  -21.1740   -5.8600   25.0280 C   0  0  0  0  0  3  0  0  0  0  0  0
  -21.5010   -4.4940   24.9270 C   0  0  0  0  0  0  0  0  0  0  0  0
  -21.9060   -3.9570   23.6930 C   0  0  0  0  0  3  0  0  0  0  0  0
  -21.9840   -4.7830   22.5580 C   0  0  0  0  0  0  0  0  0  0  0  0
  -22.3540   -4.2550   21.3660 F   0  0  0  0  0  0  0  0  0  0  0  0
  -21.4220   -3.6960   26.0170 F   0  0  0  0  0  0  0  0  0  0  0  0
  -22.7250  -13.5460   21.1790 C   0  0  0  0  0  0  0  0  0  0  0  0
  -22.0110  -12.8480   22.0540 N   0  0  0  0  0  0  0  0  0  0  0  0
  -22.2770  -14.5680   20.6590 O   0  0  0  0  0  0  0  0  0  0  0  0
  -22.3850  -12.0200   22.4970 H   0  0  0  0  0  0  0  0  0  0  0  0
  -21.0740  -13.1470   22.2850 H   0  0  0  0  0  0  0  0  0  0  0  0
  -25.3200  -15.2380   20.3440 N   0  0  0  0  0  0  0  0  0  0  0  0
  -24.5360  -15.8710   20.4630 H   0  0  0  0  0  0  0  0  0  0  0  0
  -26.1300  -15.6900   19.9390 H   0  0  0  0  0  0  0  0  0  0  0  0
  -27.7680  -24.5230   20.0490 C   0  0  0  0  0  2  0  0  0  0  0  0
  -28.1440  -26.0420   20.3190 O   0  0  0  0  0  0  0  0  0  0  0  0
  -24.6200  -31.8960   23.2320 C   0  0  0  0  0  0  0  0  0  0  0  0
  -27.1450  -27.1050   20.2140 C   0  0  0  0  0  0  0  0  0  0  0  0
  -23.4110  -30.5090   21.5960 C   0  0  0  0  0  3  0  0  0  0  0  0
  -24.8470  -28.9220   20.1640 C   0  0  0  0  0  0  0  0  0  0  0  0
  -25.9700  -30.7390   21.4340 C   0  0  0  0  0  2  0  0  0  0  0  0
  -26.0330  -29.3400   20.7840 C   0  0  0  0  0  0  0  0  0  0  0  0
  -27.1800  -28.4470   20.7940 C   0  0  0  0  0  3  0  0  0  0  0  0
  -25.9420  -26.8220   19.5280 C   0  0  0  0  0  3  0  0  0  0  0  0
  -24.8220  -27.6800   19.5130 C   0  0  0  0  0  3  0  0  0  0  0  0
  -23.6290  -29.8340   20.2150 C   0  0  0  0  0  2  0  0  0  0  0  0
  -24.6880  -31.0710   22.1420 N   0  0  0  0  0  0  0  0  0  0  0  0
  -23.5370  -32.1890   23.7600 O   0  0  0  0  0  0  0  0  0  0  0  0
  -22.7230  -29.5070   22.5600 C   0  0  0  0  0  0  0  0  0  0  0  0
  -21.3930  -29.3450   22.4360 N   0  0  0  0  0  0  0  0  0  0  0  0
  -23.3900  -28.8800   23.3870 O   0  0  0  0  0  0  0  0  0  0  0  0
  -20.9090  -29.9070   21.7500 H   0  0  0  0  0  0  0  0  0  0  0  0
  -18.0060  -28.1530   22.9420 C   0  0  0  0  0  0  0  0  0  0  0  0
  -20.5660  -28.4130   23.2110 C   0  0  0  0  0  3  0  0  0  0  0  0
  -20.6660  -26.9780   22.6440 C   0  0  0  0  0  2  0  0  0  0  0  0
  -19.5660  -26.6520   21.6300 C   0  0  0  0  0  2  0  0  0  0  0  0
  -18.1830  -26.8010   22.2710 C   0  0  0  0  0  2  0  0  0  0  0  0
  -19.1260  -28.9170   23.3690 C   0  0  0  0  0  0  0  0  0  0  0  0
  -18.9060  -30.1800   23.9580 C   0  0  0  0  0  3  0  0  0  0  0  0
  -17.6000  -30.6820   24.1230 C   0  0  0  0  0  3  0  0  0  0  0  0
  -16.4960  -29.9170   23.7080 C   0  0  0  0  0  3  0  0  0  0  0  0
  -16.7010  -28.6540   23.1240 C   0  0  0  0  0  3  0  0  0  0  0  0
  -25.9010  -32.5270   23.8560 C   0  0  0  0  0  3  0  0  0  0  0  0
  -25.5930  -33.9260   24.1990 N   0  0  0  0  0  0  0  0  0  0  0  0
  -25.9040  -34.9860   23.4400 C   0  0  0  0  0  0  0  0  0  0  0  0
  -26.5460  -34.8880   22.3930 O   0  0  0  0  0  0  0  0  0  0  0  0
  -25.0190  -34.0730   25.0160 H   0  0  0  0  0  0  0  0  0  0  0  0
  -24.1560  -36.7780   23.1620 C   0  0  0  0  0  1  0  0  0  0  0  0
  -25.4300  -36.3730   23.9220 C   0  0  0  0  0  3  0  0  0  0  0  0
  -27.5910  -37.2700   24.6710 C   0  0  0  0  0  1  0  0  0  0  0  0
  -26.4530  -37.4310   23.7690 N   0  0  0  0  0  0  0  0  0  0  0  0
  -26.0480  -38.3500   23.9300 H   0  0  0  0  0  0  0  0  0  0  0  0
  -26.4120  -31.7520   25.1340 C   0  0  1  0  0  0  0  0  0  0  0  0
  -25.3180  -31.5200   26.2030 C   0  0  0  0  0  1  0  0  0  0  0  0
  -26.9870  -30.3710   24.7460 C   0  0  0  0  0  1  0  0  0  0  0  0
  -27.5660  -32.5400   25.7980 C   0  0  0  0  0  1  0  0  0  0  0  0
  1  4  2  0
  1  3  1  0
  2  1  1  0
  5  2  2  0
  5  6  1  0
  6  4  1  0
  7  8  1  0
  8 10  1  0
  9  7  1  0
  9 10  1  0
  9  6  1  0
 10 19  1  0
 11 19  1  0
 12 17  1  0
 13 14  1  0
 13 12  1  0
 15 14  1  0
 15 24  1  0
 15 16  1  0
 17 11  1  0
 17 16  1  0
 18 11  2  0
 19 20  1  0
 21 22  2  0
 22 41  1  0
 23 22  1  0
 23 26  1  0
 24 21  1  0
 24 25  1  0
 25 23  2  0
 26 27  1  0
 27 28  2  0
 29 32  1  0
 29 28  1  0
 30 29  2  0
 31 30  1  0
 31 26  2  0
 32 33  1  0
 33 34  1  0
 34 35  2  0
 36 35  1  0
 36 40  1  0
 37 36  2  0
 38 33  2  0
 38 37  1  0
 39 38  1  0
 41 42  1  0
 42 45  1  0
 42 44  1  0
 43 41  2  0
 46 47  1  0
 46 21  1  0
 48 46  1  0
 49 50  1  0
 49  2  1  0
 51 62  2  0
 52 50  1  0
 52 57  1  0
 53 61  1  0
 53 63  1  0
 54 60  1  0
 54 56  1  0
 55 61  1  0
 56 57  2  0
 56 55  1  0
 58 52  2  0
 59 58  1  0
 59 54  2  0
 60 53  1  0
 61 51  1  0
 63 65  2  0
 64 63  1  0
 66 64  1  0
 67 76  2  0
 67 72  1  0
 68 64  1  0
 68 72  1  0
 69 68  1  0
 70 71  1  0
 70 69  1  0
 71 67  1  0
 72 73  2  0
 73 74  1  0
 75 74  2  0
 76 75  1  0
 77 51  1  0
 77 78  1  0
 77 87  1  0
 78 81  1  0
 79 83  1  0
 79 78  1  0
 80 79  2  0
 83 82  1  0
 85 83  1  0
 85 86  1  0
 85 84  1  0
 87 90  1  1
 87 88  1  0
 89 87  1  0
M  ISO  4  11 100  19 100  49 101  50 101
M  END
>  <TORSDO>  (62) 
F 18

>  <SCORE>  (62) 
-14.749

>  <name>  (62) 
61

>  <ligand_id>  (62) 
61

>  <original_smiles>  (62) 
[H]c1c([H])c([H])c2c(c1[H])C([H])([H])C([H])([H])C([H])([H])C2([H])N([H])C(=O)C1([H])N(C(=O)C([H])(N([H])C(=O)C([H])(N([H])C([H])([H])[H])C([H])([H])[H])C(C([H])([H])[H])(C([H])([H])[H])C([H])([H])[H])C([H])([H])c2c([H])c(OC([H])([H])c3nn(C4([H])C([H])([H])C([H])([H])C4([H])N([H])C(=O)N4C([H])([H])C([H])([H])C([H])([H])C([H])(n5nc(-c6c([H])c([H])c(Oc7c([H])c([H])c(F)c([H])c7F)c([H])c6[H])c(C(=O)N([H])[H])c5N([H])[H])C4([H])[H])nc3C([H])([H])[H])c([H])c([H])c2C1([H])[H]

>  <smiles>  (62) 
[H]c1c([H])c([H])c2c(c1[H])C([H])([H])C([H])([H])C([H])([H])C2([H])N([H])C(=O)C1([H])N(C(=O)C([H])(N([H])C(=O)C([H])(N([H])C([H])([H])[H])C([H])([H])[H])C(C([H])([H])[H])(C([H])([H])[H])C([H])([H])[H])C([H])([H])c2c([H])c(OC([H])([H])c3nn(C4([H])C([H])([H])C([H])([H])C4([H])N([H])C(=O)N4C([H])([H])C([H])([H])C([H])([H])C([H])(n5nc(-c6c([H])c([H])c(Oc7c([H])c([H])c(F)c([H])c7F)c([H])c6[H])c(C(=O)N([H])[H])c5N([H])[H])C4([H])[H])nc3C([H])([H])[H])c([H])c([H])c2C1([H])[H]

$$$$
62:0:0
     RDKit          3D

 91100  0  0  1  0  0  0  0  0999 V2000
  -29.5040  -22.1810   21.0180 C   0  0  0  0  0  3  0  0  0  0  0  0
  -29.8690  -20.7410   21.0010 C   0  0  0  0  0  0  0  0  0  0  0  0
  -29.2840  -19.7060   20.2080 C   0  0  0  0  0  0  0  0  0  0  0  0
  -28.4800  -22.7710   20.1690 C   0  0  0  0  0  0  0  0  0  0  0  0
  -28.2710  -20.3520   19.3950 C   0  0  0  0  0  0  0  0  0  0  0  0
  -31.0020  -20.1040   21.7760 C   0  0  0  0  0  2  0  0  0  0  0  0
  -30.9560  -18.5520   21.5110 C   0  0  0  0  0  2  0  0  0  0  0  0
  -30.1180  -18.2010   20.2410 C   0  0  2  0  0  0  0  0  0  0  0  0
  -27.5030  -19.5200   18.3890 C   0  0  0  0  0  1  0  0  0  0  0  0
  -31.0340  -18.2940   19.0020 C   0  0  0  0  0  1  0  0  0  0  0  0
  -27.9160  -21.7330   19.4060 N   0  0  0  0  0  0  0  0  0  0  0  0
  -30.4350  -15.2970   20.2610 C   0  0  0  0  0  0  0  0  0  0  0  0
  -30.3810  -12.8710   19.3720 C   0  0  0  0  0  2  0  0  0  0  0  0
  -29.4570  -12.6740   18.1460 C   0  0  0  0  0  2  0  0  0  0  0  0
  -28.0110  -12.4030   18.5950 C   0  0  0  0  0  2  0  0  0  0  0  0
  -27.5630  -13.3590   19.7290 C   0  0  0  0  0  3  0  0  0  0  0  0
  -28.6190  -13.5090   20.8460 C   0  0  0  0  0  2  0  0  0  0  0  0
  -29.8430  -14.0090   20.2010 N   0  0  0  0  0  0  0  0  0  0  0  0
  -31.6570  -15.2650   20.0620 O   0  0  0  0  0  0  0  0  0  0  0  0
  -29.7100  -16.5900   20.3330 N   0  0  0  0  0  0  0  0  0  0  0  0
  -28.7190  -16.4480   20.4550 H   0  0  0  0  0  0  0  0  0  0  0  0
  -25.1930  -13.8940   20.5040 C   0  0  0  0  0  0  0  0  0  0  0  0
  -24.1390  -13.1060   20.8730 C   0  0  0  0  0  0  0  0  0  0  0  0
  -24.6160  -11.7600   20.8320 C   0  0  0  0  0  0  0  0  0  0  0  0
  -26.2410  -13.0290   20.2470 N   0  0  0  0  0  0  0  0  0  0  0  0
  -25.9070  -11.7390   20.5130 N   0  0  0  0  0  0  0  0  0  0  0  0
  -23.9010  -10.4900   21.0160 C   0  0  0  0  0  0  0  0  0  0  0  0
  -24.3220   -9.5330   21.9640 C   0  0  0  0  0  3  0  0  0  0  0  0
  -23.6020   -8.3310   22.1360 C   0  0  0  0  0  3  0  0  0  0  0  0
  -22.4470   -8.0770   21.3590 C   0  0  0  0  0  0  0  0  0  0  0  0
  -22.0450   -9.0230   20.3990 C   0  0  0  0  0  3  0  0  0  0  0  0
  -22.7660  -10.2160   20.2250 C   0  0  0  0  0  3  0  0  0  0  0  0
  -21.7000   -6.9260   21.4400 O   0  0  0  0  0  0  0  0  0  0  0  0
  -21.6100   -6.2060   22.6040 C   0  0  0  0  0  0  0  0  0  0  0  0
  -21.0980   -6.7730   23.7930 C   0  0  0  0  0  3  0  0  0  0  0  0
  -20.9580   -5.9780   24.9480 C   0  0  0  0  0  3  0  0  0  0  0  0
  -21.3220   -4.6180   24.9160 C   0  0  0  0  0  0  0  0  0  0  0  0
  -21.8260   -4.0520   23.7320 C   0  0  0  0  0  3  0  0  0  0  0  0
  -21.9680   -4.8430   22.5790 C   0  0  0  0  0  0  0  0  0  0  0  0
  -22.4350   -4.2870   21.4360 F   0  0  0  0  0  0  0  0  0  0  0  0
  -21.1800   -3.8510   26.0220 F   0  0  0  0  0  0  0  0  0  0  0  0
  -22.7380  -13.5700   21.1470 C   0  0  0  0  0  0  0  0  0  0  0  0
  -22.0180  -12.8700   22.0160 N   0  0  0  0  0  0  0  0  0  0  0  0
  -22.2910  -14.5900   20.6240 O   0  0  0  0  0  0  0  0  0  0  0  0
  -22.3940  -12.0460   22.4620 H   0  0  0  0  0  0  0  0  0  0  0  0
  -21.0790  -13.1640   22.2400 H   0  0  0  0  0  0  0  0  0  0  0  0
  -25.3420  -15.2680   20.3370 N   0  0  0  0  0  0  0  0  0  0  0  0
  -24.5710  -15.9140   20.4680 H   0  0  0  0  0  0  0  0  0  0  0  0
  -26.1770  -15.7170   19.9870 H   0  0  0  0  0  0  0  0  0  0  0  0
  -27.7340  -24.3520   20.1150 C   0  0  0  0  0  2  0  0  0  0  0  0
  -28.1470  -25.9220   20.3060 O   0  0  0  0  0  0  0  0  0  0  0  0
  -24.6460  -31.9030   23.2930 C   0  0  0  0  0  0  0  0  0  0  0  0
  -27.1590  -27.0350   20.2520 C   0  0  0  0  0  0  0  0  0  0  0  0
  -23.4380  -30.5180   21.6560 C   0  0  0  0  0  3  0  0  0  0  0  0
  -24.8710  -28.9180   20.2250 C   0  0  0  0  0  0  0  0  0  0  0  0
  -26.0040  -30.7190   21.5000 C   0  0  0  0  0  2  0  0  0  0  0  0
  -26.0650  -29.3140   20.8420 C   0  0  0  0  0  0  0  0  0  0  0  0
  -27.2060  -28.3930   20.8340 C   0  0  0  0  0  3  0  0  0  0  0  0
  -25.9360  -26.7930   19.5850 C   0  0  0  0  0  3  0  0  0  0  0  0
  -24.8300  -27.6770   19.5760 C   0  0  0  0  0  3  0  0  0  0  0  0
  -23.6570  -29.8410   20.2770 C   0  0  0  0  0  2  0  0  0  0  0  0
  -24.7180  -31.0730   22.2040 N   0  0  0  0  0  0  0  0  0  0  0  0
  -23.5600  -32.1980   23.8180 O   0  0  0  0  0  0  0  0  0  0  0  0
  -22.7410  -29.5230   22.6200 C   0  0  0  0  0  0  0  0  0  0  0  0
  -21.4120  -29.3510   22.4840 N   0  0  0  0  0  0  0  0  0  0  0  0
  -23.4010  -28.9050   23.4590 O   0  0  0  0  0  0  0  0  0  0  0  0
  -20.9320  -29.9010   21.7870 H   0  0  0  0  0  0  0  0  0  0  0  0
  -18.0310  -28.1270   22.9650 C   0  0  0  0  0  0  0  0  0  0  0  0
  -20.5870  -28.4150   23.2550 C   0  0  0  0  0  3  0  0  0  0  0  0
  -20.7050  -26.9770   22.6970 C   0  0  0  0  0  2  0  0  0  0  0  0
  -19.6170  -26.6360   21.6730 C   0  0  0  0  0  2  0  0  0  0  0  0
  -18.2270  -26.7740   22.3000 C   0  0  0  0  0  2  0  0  0  0  0  0
  -19.1380  -28.9030   23.3990 C   0  0  0  0  0  0  0  0  0  0  0  0
  -18.8990  -30.1670   23.9820 C   0  0  0  0  0  3  0  0  0  0  0  0
  -17.5870  -30.6530   24.1350 C   0  0  0  0  0  3  0  0  0  0  0  0
  -16.4960  -29.8730   23.7170 C   0  0  0  0  0  3  0  0  0  0  0  0
  -16.7190  -28.6120   23.1370 C   0  0  0  0  0  3  0  0  0  0  0  0
  -25.9240  -32.5350   23.9230 C   0  0  0  0  0  3  0  0  0  0  0  0
  -25.6210  -33.9390   24.2500 N   0  0  0  0  0  0  0  0  0  0  0  0
  -25.9310  -34.9910   23.4790 C   0  0  0  0  0  0  0  0  0  0  0  0
  -26.5660  -34.8810   22.4280 O   0  0  0  0  0  0  0  0  0  0  0  0
  -25.0560  -34.0990   25.0720 H   0  0  0  0  0  0  0  0  0  0  0  0
  -24.1840  -36.7830   23.1930 C   0  0  0  0  0  1  0  0  0  0  0  0
  -25.4640  -36.3840   23.9480 C   0  0  0  0  0  3  0  0  0  0  0  0
  -27.6310  -37.2870   24.6700 C   0  0  0  0  0  1  0  0  0  0  0  0
  -26.4870  -37.4390   23.7750 N   0  0  0  0  0  0  0  0  0  0  0  0
  -26.0850  -38.3600   23.9300 H   0  0  0  0  0  0  0  0  0  0  0  0
  -26.4200  -31.7730   25.2150 C   0  0  1  0  0  0  0  0  0  0  0  0
  -25.3160  -31.5610   26.2760 C   0  0  0  0  0  1  0  0  0  0  0  0
  -26.9920  -30.3840   24.8500 C   0  0  0  0  0  1  0  0  0  0  0  0
  -27.5740  -32.5610   25.8770 C   0  0  0  0  0  1  0  0  0  0  0  0
  2  1  1  0
  2  6  1  0
  3  8  1  0
  3  2  2  0
  4  1  2  0
  5 11  2  0
  5  3  1  0
  7  6  1  0
  8 10  1  6
  8 20  1  0
  8  7  1  0
  9  5  1  0
 11  4  1  0
 12 20  1  0
 13 18  1  0
 14 15  1  0
 14 13  1  0
 16 15  1  0
 16 25  1  0
 16 17  1  0
 18 12  1  0
 18 17  1  0
 19 12  2  0
 20 21  1  0
 22 23  2  0
 23 42  1  0
 24 23  1  0
 24 27  1  0
 25 22  1  0
 25 26  1  0
 26 24  2  0
 27 28  1  0
 28 29  2  0
 30 33  1  0
 30 29  1  0
 31 30  2  0
 32 31  1  0
 32 27  2  0
 33 34  1  0
 34 35  1  0
 35 36  2  0
 37 36  1  0
 37 41  1  0
 38 37  2  0
 39 34  2  0
 39 38  1  0
 40 39  1  0
 42 43  1  0
 43 46  1  0
 43 45  1  0
 44 42  2  0
 47 48  1  0
 47 22  1  0
 49 47  1  0
 50  4  1  0
 50 51  1  0
 52 63  2  0
 53 51  1  0
 53 58  1  0
 54 62  1  0
 54 64  1  0
 55 61  1  0
 55 57  1  0
 56 62  1  0
 57 56  1  0
 58 57  2  0
 59 53  2  0
 60 59  1  0
 60 55  2  0
 61 54  1  0
 62 52  1  0
 64 66  2  0
 65 64  1  0
 67 65  1  0
 68 77  2  0
 68 73  1  0
 69 65  1  0
 69 73  1  0
 70 69  1  0
 71 72  1  0
 71 70  1  0
 72 68  1  0
 73 74  2  0
 74 75  1  0
 76 75  2  0
 77 76  1  0
 78 52  1  0
 78 79  1  0
 78 88  1  0
 79 82  1  0
 80 84  1  0
 80 79  1  0
 81 80  2  0
 84 83  1  0
 86 87  1  0
 86 84  1  0
 86 85  1  0
 88 91  1  1
 88 89  1  0
 90 88  1  0
M  ISO  4  12 100  20 100  50 101  51 101
M  END
>  <TORSDO>  (63) 
F 17

>  <SCORE>  (63) 
-16.110

>  <name>  (63) 
62

>  <ligand_id>  (63) 
62

>  <original_smiles>  (63) 
[H]c1c([H])c([H])c2c(c1[H])C([H])([H])C([H])([H])C([H])([H])C2([H])N([H])C(=O)C1([H])N(C(=O)C([H])(N([H])C(=O)C([H])(N([H])C([H])([H])[H])C([H])([H])[H])C(C([H])([H])[H])(C([H])([H])[H])C([H])([H])[H])C([H])([H])c2c([H])c(OC([H])([H])c3nc(C([H])([H])[H])c4c(c3[H])C([H])([H])C([H])([H])C4(N([H])C(=O)N3C([H])([H])C([H])([H])C([H])([H])C([H])(n4nc(-c5c([H])c([H])c(Oc6c([H])c([H])c(F)c([H])c6F)c([H])c5[H])c(C(=O)N([H])[H])c4N([H])[H])C3([H])[H])C([H])([H])[H])c([H])c([H])c2C1([H])[H]

>  <smiles>  (63) 
[H]c1c([H])c([H])c2c(c1[H])C([H])([H])C([H])([H])C([H])([H])C2([H])N([H])C(=O)C1([H])N(C(=O)C([H])(N([H])C(=O)C([H])(N([H])C([H])([H])[H])C([H])([H])[H])C(C([H])([H])[H])(C([H])([H])[H])C([H])([H])[H])C([H])([H])c2c([H])c(OC([H])([H])c3nc(C([H])([H])[H])c4c(c3[H])C([H])([H])C([H])([H])C4(N([H])C(=O)N3C([H])([H])C([H])([H])C([H])([H])C([H])(n4nc(-c5c([H])c([H])c(Oc6c([H])c([H])c(F)c([H])c6F)c([H])c5[H])c(C(=O)N([H])[H])c4N([H])[H])C3([H])[H])C([H])([H])[H])c([H])c([H])c2C1([H])[H]

$$$$
63:0:0
     RDKit          3D

 94102  0  0  1  0  0  0  0  0999 V2000
  -30.1270  -20.7190   20.1540 C   0  0  0  0  0  3  0  0  0  0  0  0
  -30.6620  -14.7200   20.2020 C   0  0  0  0  0  0  0  0  0  0  0  0
  -30.3950  -12.5520   19.0640 C   0  0  0  0  0  2  0  0  0  0  0  0
  -29.4230  -12.7910   17.8870 C   0  0  0  0  0  2  0  0  0  0  0  0
  -27.9580  -12.6330   18.3480 C   0  0  0  0  0  2  0  0  0  0  0  0
  -27.6480  -13.3910   19.6670 C   0  0  0  0  0  3  0  0  0  0  0  0
  -28.7480  -13.1590   20.7260 C   0  0  0  0  0  2  0  0  0  0  0  0
  -30.0430  -13.5070   20.1250 N   0  0  0  0  0  0  0  0  0  0  0  0
  -31.8060  -14.9000   19.7640 O   0  0  0  0  0  0  0  0  0  0  0  0
  -28.9840  -16.8320   18.6540 C   0  0  0  0  0  3  0  0  0  0  0  0
  -29.1350  -19.2180   18.2930 C   0  0  0  0  0  0  0  0  0  0  0  0
  -28.7160  -17.9500   17.8660 C   0  0  0  0  0  0  0  0  0  0  0  0
  -29.7170  -19.3370   19.5780 C   0  0  0  0  0  0  0  0  0  0  0  0
  -29.6640  -16.9710   19.8800 C   0  0  0  0  0  0  0  0  0  0  0  0
  -28.9710  -20.3920   17.3370 C   0  0  0  0  0  1  0  0  0  0  0  0
  -29.9650  -18.2240   20.3460 N   0  0  0  0  0  0  0  0  0  0  0  0
  -29.8900  -15.7570   20.6180 N   0  0  0  0  0  0  0  0  0  0  0  0
  -28.0610  -17.7940   16.6900 F   0  0  0  0  0  0  0  0  0  0  0  0
  -29.0720  -15.4520   21.1250 H   0  0  0  0  0  0  0  0  0  0  0  0
  -25.2690  -13.9520   20.4600 C   0  0  0  0  0  0  0  0  0  0  0  0
  -24.2240  -13.1590   20.8510 C   0  0  0  0  0  0  0  0  0  0  0  0
  -24.7010  -11.8160   20.7780 C   0  0  0  0  0  0  0  0  0  0  0  0
  -26.3160  -13.0860   20.1790 N   0  0  0  0  0  0  0  0  0  0  0  0
  -25.9810  -11.7950   20.4270 N   0  0  0  0  0  0  0  0  0  0  0  0
  -23.9990  -10.5410   20.9600 C   0  0  0  0  0  0  0  0  0  0  0  0
  -24.4350   -9.5890   21.9060 C   0  0  0  0  0  3  0  0  0  0  0  0
  -23.7310   -8.3780   22.0770 C   0  0  0  0  0  3  0  0  0  0  0  0
  -22.5780   -8.1120   21.3020 C   0  0  0  0  0  0  0  0  0  0  0  0
  -22.1620   -9.0540   20.3440 C   0  0  0  0  0  3  0  0  0  0  0  0
  -22.8670  -10.2550   20.1720 C   0  0  0  0  0  3  0  0  0  0  0  0
  -21.8430   -6.9550   21.3850 O   0  0  0  0  0  0  0  0  0  0  0  0
  -21.7410   -6.2490   22.5570 C   0  0  0  0  0  0  0  0  0  0  0  0
  -21.1940   -6.8220   23.7250 C   0  0  0  0  0  3  0  0  0  0  0  0
  -21.0380   -6.0380   24.8860 C   0  0  0  0  0  3  0  0  0  0  0  0
  -21.4230   -4.6850   24.8800 C   0  0  0  0  0  0  0  0  0  0  0  0
  -21.9630   -4.1120   23.7160 C   0  0  0  0  0  3  0  0  0  0  0  0
  -22.1170   -4.8920   22.5560 C   0  0  0  0  0  0  0  0  0  0  0  0
  -22.6190   -4.3290   21.4310 F   0  0  0  0  0  0  0  0  0  0  0  0
  -21.2660   -3.9300   25.9930 F   0  0  0  0  0  0  0  0  0  0  0  0
  -22.8320  -13.6160   21.1760 C   0  0  0  0  0  0  0  0  0  0  0  0
  -22.1320  -12.8910   22.0410 N   0  0  0  0  0  0  0  0  0  0  0  0
  -22.3720  -14.6540   20.6990 O   0  0  0  0  0  0  0  0  0  0  0  0
  -22.5130  -12.0580   22.4650 H   0  0  0  0  0  0  0  0  0  0  0  0
  -21.1990  -13.1850   22.2980 H   0  0  0  0  0  0  0  0  0  0  0  0
  -25.4010  -15.3280   20.3070 N   0  0  0  0  0  0  0  0  0  0  0  0
  -24.6130  -15.9500   20.4530 H   0  0  0  0  0  0  0  0  0  0  0  0
  -26.2120  -15.8000   19.9330 H   0  0  0  0  0  0  0  0  0  0  0  0
  -28.9700  -21.7630   20.3560 C   0  0  0  0  0  3  0  0  0  0  0  0
  -29.4540  -23.0620   22.4070 C   0  0  0  0  0  1  0  0  0  0  0  0
  -29.3820  -23.1000   20.9200 N   0  0  2  0  0  4  0  0  0  0  0  0
  -30.3370  -23.2420   20.6270 H   0  0  0  0  0  0  0  0  0  0  0  0
  -28.6200  -24.2720   20.3320 C   0  0  0  0  0  2  0  0  0  0  0  0
  -28.6920  -25.6440   21.0940 C   0  0  0  0  0  2  0  0  0  0  0  0
  -28.5430  -26.8310   20.2710 O   0  0  0  0  0  0  0  0  0  0  0  0
  -24.5940  -31.9840   23.3170 C   0  0  0  0  0  0  0  0  0  0  0  0
  -27.3530  -27.5380   20.3180 C   0  0  0  0  0  0  0  0  0  0  0  0
  -23.4380  -30.5540   21.6670 C   0  0  0  0  0  3  0  0  0  0  0  0
  -24.9350  -29.0270   20.2760 C   0  0  0  0  0  0  0  0  0  0  0  0
  -25.9620  -30.9480   21.5030 C   0  0  0  0  0  2  0  0  0  0  0  0
  -26.0790  -29.5700   20.8720 C   0  0  0  0  0  0  0  0  0  0  0  0
  -27.2930  -28.8400   20.8770 C   0  0  0  0  0  3  0  0  0  0  0  0
  -26.1930  -27.0120   19.7110 C   0  0  0  0  0  3  0  0  0  0  0  0
  -24.9900  -27.7500   19.6860 C   0  0  0  0  0  3  0  0  0  0  0  0
  -23.6790  -29.8750   20.2930 C   0  0  0  0  0  2  0  0  0  0  0  0
  -24.6810  -31.1790   22.2190 N   0  0  0  0  0  0  0  0  0  0  0  0
  -23.5010  -32.2390   23.8430 O   0  0  0  0  0  0  0  0  0  0  0  0
  -22.7910  -29.5260   22.6230 C   0  0  0  0  0  0  0  0  0  0  0  0
  -21.4700  -29.3170   22.4810 N   0  0  0  0  0  0  0  0  0  0  0  0
  -23.4750  -28.9160   23.4510 O   0  0  0  0  0  0  0  0  0  0  0  0
  -20.9780  -29.8600   21.7840 H   0  0  0  0  0  0  0  0  0  0  0  0
  -18.1100  -28.0710   22.9570 C   0  0  0  0  0  0  0  0  0  0  0  0
  -20.6610  -28.3690   23.2480 C   0  0  0  0  0  3  0  0  0  0  0  0
  -20.7910  -26.9380   22.6780 C   0  0  0  0  0  2  0  0  0  0  0  0
  -19.7020  -26.5960   21.6560 C   0  0  0  0  0  2  0  0  0  0  0  0
  -18.3120  -26.7230   22.2850 C   0  0  0  0  0  2  0  0  0  0  0  0
  -19.2140  -28.8510   23.3960 C   0  0  0  0  0  0  0  0  0  0  0  0
  -18.9710  -30.1110   23.9840 C   0  0  0  0  0  3  0  0  0  0  0  0
  -17.6570  -30.5930   24.1350 C   0  0  0  0  0  3  0  0  0  0  0  0
  -16.5680  -29.8100   23.7120 C   0  0  0  0  0  3  0  0  0  0  0  0
  -16.7960  -28.5510   23.1310 C   0  0  0  0  0  3  0  0  0  0  0  0
  -25.8610  -32.6430   23.9500 C   0  0  0  0  0  3  0  0  0  0  0  0
  -26.3780  -31.8920   25.2390 C   0  0  1  0  0  0  0  0  0  0  0  0
  -25.2730  -31.6150   26.2870 C   0  0  0  0  0  1  0  0  0  0  0  0
  -27.0210  -30.5360   24.8610 C   0  0  0  0  0  1  0  0  0  0  0  0
  -27.4870  -32.7300   25.9200 C   0  0  0  0  0  1  0  0  0  0  0  0
  -25.5260  -34.0390   24.2620 N   0  0  0  0  0  0  0  0  0  0  0  0
  -25.8460  -35.0870   23.4920 C   0  0  0  0  0  0  0  0  0  0  0  0
  -26.5270  -34.9840   22.4690 O   0  0  0  0  0  0  0  0  0  0  0  0
  -24.9230  -34.1910   25.0570 H   0  0  0  0  0  0  0  0  0  0  0  0
  -24.0910  -36.8450   23.0990 C   0  0  0  0  0  1  0  0  0  0  0  0
  -25.3310  -36.4710   23.9280 C   0  0  0  0  0  3  0  0  0  0  0  0
  -27.4400  -37.4060   24.7700 C   0  0  0  0  0  1  0  0  0  0  0  0
  -26.3450  -37.5410   23.8130 N   0  0  0  0  0  0  0  0  0  0  0  0
  -25.9200  -38.4550   23.9440 H   0  0  0  0  0  0  0  0  0  0  0  0
  1 48  2  0
  2 17  1  0
  3  8  1  0
  4  5  1  0
  4  3  1  0
  6  5  1  0
  6 23  1  0
  6  7  1  0
  8  2  1  0
  8  7  1  0
  9  2  2  0
 10 14  1  0
 11 13  2  0
 12 11  1  0
 12 10  2  0
 13  1  1  0
 13 16  1  0
 14 16  2  0
 14 17  1  0
 15 11  1  0
 17 19  1  0
 18 12  1  0
 20 21  2  0
 21 40  1  0
 22 21  1  0
 22 25  1  0
 23 24  1  0
 23 20  1  0
 24 22  2  0
 25 26  1  0
 26 27  2  0
 28 31  1  0
 28 27  1  0
 29 28  2  0
 30 29  1  0
 30 25  2  0
 31 32  1  0
 32 33  1  0
 33 34  2  0
 35 34  1  0
 35 39  1  0
 36 35  2  0
 37 32  2  0
 37 36  1  0
 38 37  1  0
 40 41  1  0
 41 44  1  0
 41 43  1  0
 42 40  2  0
 45 46  1  0
 45 20  1  0
 47 45  1  0
 48 50  1  0
 50 49  1  0
 50 51  1  6
 52 50  1  0
 52 53  1  0
 54 56  1  0
 54 53  1  0
 55 66  2  0
 56 61  1  0
 57 65  1  0
 57 67  1  0
 58 64  1  0
 58 60  1  0
 59 65  1  0
 60 61  2  0
 60 59  1  0
 62 56  2  0
 63 62  1  0
 63 58  2  0
 64 57  1  0
 65 55  1  0
 67 69  2  0
 68 67  1  0
 70 68  1  0
 71 80  2  0
 71 76  1  0
 72 68  1  0
 72 76  1  0
 73 72  1  0
 74 75  1  0
 74 73  1  0
 75 71  1  0
 76 77  2  0
 77 78  1  0
 79 78  2  0
 80 79  1  0
 81 55  1  0
 81 86  1  0
 81 82  1  0
 82 85  1  1
 82 83  1  0
 84 82  1  0
 86 89  1  0
 87 91  1  0
 87 86  1  0
 88 87  2  0
 91 90  1  0
 93 91  1  0
 93 94  1  0
 93 92  1  0
M  ISO  4   2 100  17 100  53 101  54 101
M  END
>  <TORSDO>  (64) 
F 20

>  <SCORE>  (64) 
-13.631

>  <name>  (64) 
63

>  <ligand_id>  (64) 
63

>  <original_smiles>  (64) 
[H]c1c([H])c([H])c2c(c1[H])C([H])([H])C([H])([H])C([H])([H])C2([H])N([H])C(=O)C1([H])N(C(=O)C([H])(N([H])C(=O)C([H])(N([H])C([H])([H])[H])C([H])([H])[H])C(C([H])([H])[H])(C([H])([H])[H])C([H])([H])[H])C([H])([H])c2c([H])c(OC([H])([H])C([H])([H])[N+]([H])(C([H])([H])[H])C([H])([H])C([H])([H])c3nc(N([H])C(=O)N4C([H])([H])C([H])([H])C([H])([H])C([H])(n5nc(-c6c([H])c([H])c(Oc7c([H])c([H])c(F)c([H])c7F)c([H])c6[H])c(C(=O)N([H])[H])c5N([H])[H])C4([H])[H])c([H])c(F)c3C([H])([H])[H])c([H])c([H])c2C1([H])[H]

>  <smiles>  (64) 
[H]c1c([H])c([H])c2c(c1[H])C([H])([H])C([H])([H])C([H])([H])C2([H])N([H])C(=O)C1([H])N(C(=O)C([H])(N([H])C(=O)C([H])(N([H])C([H])([H])[H])C([H])([H])[H])C(C([H])([H])[H])(C([H])([H])[H])C([H])([H])[H])C([H])([H])c2c([H])c(OC([H])([H])C([H])([H])[N+]([H])(C([H])([H])[H])C([H])([H])C([H])([H])c3nc(N([H])C(=O)N4C([H])([H])C([H])([H])C([H])([H])C([H])(n5nc(-c6c([H])c([H])c(Oc7c([H])c([H])c(F)c([H])c7F)c([H])c6[H])c(C(=O)N([H])[H])c5N([H])[H])C4([H])[H])c([H])c(F)c3C([H])([H])[H])c([H])c([H])c2C1([H])[H]

$$$$
64:0:0
     RDKit          3D

 96105  0  0  1  0  0  0  0  0999 V2000
  -30.3860  -19.6370   21.9030 C   0  0  0  0  0  3  0  0  0  0  0  0
  -31.5300  -20.3550   21.5050 C   0  0  0  0  0  0  0  0  0  0  0  0
  -32.2010  -20.0120   20.2720 C   0  0  0  0  0  0  0  0  0  0  0  0
  -29.9620  -18.5340   21.1700 C   0  0  0  0  0  0  0  0  0  0  0  0
  -31.8610  -18.6310   19.8160 C   0  0  0  0  0  0  0  0  0  0  0  0
  -28.7020  -17.7680   21.5130 C   0  0  0  0  0  1  0  0  0  0  0  0
  -30.7100  -18.0250   20.1920 N   0  0  0  0  0  0  0  0  0  0  0  0
  -33.3530  -21.6290   22.9540 C   0  0  0  0  0  2  0  0  0  0  0  0
  -32.3720  -20.9990   23.9040 C   0  0  0  0  0  2  0  0  0  0  0  0
  -31.9190  -21.4110   22.5110 C   0  0  0  0  0  3  0  0  0  0  0  0
  -33.0020  -21.0200   19.5590 N   0  0  0  0  0  0  0  0  0  0  0  0
  -33.4000  -20.7200   18.6730 H   0  0  0  0  0  0  0  0  0  0  0  0
  -34.8950  -22.6060   19.7580 C   0  0  0  0  0  1  0  0  0  0  0  0
  -33.3820  -22.4530   19.9830 C   0  0  0  0  0  3  0  0  0  0  0  0
  -32.6600  -23.7970   19.3910 C   0  0  0  0  0  2  0  0  0  0  0  0
  -32.1950  -24.9820   20.4300 C   0  0  0  0  0  2  0  0  0  0  0  0
  -31.9930  -26.4430   20.1020 O   0  0  0  0  0  0  0  0  0  0  0  0
  -26.8750  -29.7870   24.0820 C   0  0  0  0  0  0  0  0  0  0  0  0
  -30.7190  -27.0480   20.2170 C   0  0  0  0  0  0  0  0  0  0  0  0
  -26.1820  -28.8800   21.8930 C   0  0  0  0  0  3  0  0  0  0  0  0
  -28.0770  -28.1840   20.3130 C   0  0  0  0  0  0  0  0  0  0  0  0
  -28.6020  -29.6480   22.2640 C   0  0  0  0  0  2  0  0  0  0  0  0
  -29.0460  -28.6120   21.2300 C   0  0  0  0  0  0  0  0  0  0  0  0
  -30.3700  -28.0640   21.1700 C   0  0  0  0  0  3  0  0  0  0  0  0
  -29.7160  -26.6780   19.2980 C   0  0  0  0  0  3  0  0  0  0  0  0
  -28.4170  -27.2290   19.3410 C   0  0  0  0  0  3  0  0  0  0  0  0
  -26.6820  -28.7730   20.4270 C   0  0  0  0  0  2  0  0  0  0  0  0
  -27.2280  -29.4400   22.8090 N   0  0  0  0  0  0  0  0  0  0  0  0
  -25.7060  -29.6730   24.4820 O   0  0  0  0  0  0  0  0  0  0  0  0
  -25.6520  -27.4980   22.3450 C   0  0  0  0  0  0  0  0  0  0  0  0
  -24.4760  -27.1000   21.8290 N   0  0  0  0  0  0  0  0  0  0  0  0
  -26.3040  -26.7980   23.1220 O   0  0  0  0  0  0  0  0  0  0  0  0
  -23.9950  -27.7320   21.2050 H   0  0  0  0  0  0  0  0  0  0  0  0
  -21.5460  -25.1190   21.0530 C   0  0  0  0  0  0  0  0  0  0  0  0
  -23.8160  -25.8160   22.0780 C   0  0  0  0  0  3  0  0  0  0  0  0
  -24.4350  -24.6960   21.2100 C   0  0  0  0  0  2  0  0  0  0  0  0
  -23.6980  -24.4830   19.8860 C   0  0  0  0  0  2  0  0  0  0  0  0
  -22.2320  -24.1220   20.1340 C   0  0  0  0  0  2  0  0  0  0  0  0
  -22.2920  -25.9240   21.9540 C   0  0  0  0  0  0  0  0  0  0  0  0
  -21.6080  -26.8580   22.7640 C   0  0  0  0  0  3  0  0  0  0  0  0
  -20.2090  -26.9910   22.6850 C   0  0  0  0  0  3  0  0  0  0  0  0
  -19.4750  -26.1800   21.8030 C   0  0  0  0  0  3  0  0  0  0  0  0
  -20.1430  -25.2450   20.9930 C   0  0  0  0  0  3  0  0  0  0  0  0
  -27.9140  -30.3630   25.0930 C   0  0  0  0  0  3  0  0  0  0  0  0
  -27.4020  -31.6550   25.5730 N   0  0  0  0  0  0  0  0  0  0  0  0
  -27.8250  -32.8510   25.1430 C   0  0  0  0  0  0  0  0  0  0  0  0
  -28.7510  -32.9800   24.3360 O   0  0  0  0  0  0  0  0  0  0  0  0
  -26.6050  -31.6240   26.1920 H   0  0  0  0  0  0  0  0  0  0  0  0
  -26.1100  -34.6270   24.6610 C   0  0  0  0  0  1  0  0  0  0  0  0
  -27.1140  -34.1010   25.6970 C   0  0  0  0  0  3  0  0  0  0  0  0
  -28.8400  -34.8720   27.2650 C   0  0  0  0  0  1  0  0  0  0  0  0
  -28.0430  -35.1860   26.0830 N   0  0  0  0  0  0  0  0  0  0  0  0
  -27.5370  -36.0480   26.2630 H   0  0  0  0  0  0  0  0  0  0  0  0
  -28.1990  -29.3960   26.3060 C   0  0  1  0  0  0  0  0  0  0  0  0
  -26.9200  -28.9080   27.0280 C   0  0  0  0  0  1  0  0  0  0  0  0
  -28.9800  -28.1490   25.8350 C   0  0  0  0  0  1  0  0  0  0  0  0
  -29.0960  -30.1110   27.3440 C   0  0  0  0  0  1  0  0  0  0  0  0
  -32.7050  -17.4980   19.0830 C   0  0  0  0  0  2  0  0  0  0  0  0
  -33.1060  -14.8410   19.4170 C   0  0  0  0  0  0  0  0  0  0  0  0
  -32.7160  -12.4320   18.8480 C   0  0  0  0  0  2  0  0  0  0  0  0
  -31.7110  -12.3440   17.6770 C   0  0  0  0  0  2  0  0  0  0  0  0
  -30.2580  -12.3690   18.1920 C   0  0  0  0  0  2  0  0  0  0  0  0
  -30.0170  -13.4860   19.2420 C   0  0  0  0  0  3  0  0  0  0  0  0
  -31.1280  -13.5160   20.3140 C   0  0  0  0  0  2  0  0  0  0  0  0
  -32.4110  -13.6650   19.6150 N   0  0  0  0  0  0  0  0  0  0  0  0
  -34.2630  -14.8020   18.9910 O   0  0  0  0  0  0  0  0  0  0  0  0
  -32.4090  -16.0370   19.5020 N   0  0  0  0  0  0  0  0  0  0  0  0
  -31.4950  -15.9770   19.9250 H   0  0  0  0  0  0  0  0  0  0  0  0
  -27.8350  -14.4350   20.1980 C   0  0  0  0  0  0  0  0  0  0  0  0
  -26.6830  -13.8350   20.6290 C   0  0  0  0  0  0  0  0  0  0  0  0
  -26.9000  -12.4280   20.5050 C   0  0  0  0  0  0  0  0  0  0  0  0
  -28.6860  -13.4050   19.8350 N   0  0  0  0  0  0  0  0  0  0  0  0
  -28.1360  -12.1870   20.0820 N   0  0  0  0  0  0  0  0  0  0  0  0
  -25.9820  -11.3000   20.7090 C   0  0  0  0  0  0  0  0  0  0  0  0
  -26.1770  -10.3720   21.7550 C   0  0  0  0  0  3  0  0  0  0  0  0
  -25.2710   -9.3050   21.9430 C   0  0  0  0  0  3  0  0  0  0  0  0
  -24.1560   -9.1600   21.0840 C   0  0  0  0  0  0  0  0  0  0  0  0
  -23.9800  -10.0740   20.0290 C   0  0  0  0  0  3  0  0  0  0  0  0
  -24.8860  -11.1320   19.8400 C   0  0  0  0  0  3  0  0  0  0  0  0
  -23.2390   -8.1420   21.1740 O   0  0  0  0  0  0  0  0  0  0  0  0
  -22.7270   -7.7380   22.3820 C   0  0  0  0  0  0  0  0  0  0  0  0
  -21.9930   -8.6150   23.2110 C   0  0  0  0  0  3  0  0  0  0  0  0
  -21.4260   -8.1410   24.4110 C   0  0  0  0  0  3  0  0  0  0  0  0
  -21.5830   -6.7920   24.7780 C   0  0  0  0  0  0  0  0  0  0  0  0
  -22.3060   -5.9150   23.9510 C   0  0  0  0  0  3  0  0  0  0  0  0
  -22.8740   -6.3870   22.7550 C   0  0  0  0  0  0  0  0  0  0  0  0
  -23.5540   -5.5340   21.9510 F   0  0  0  0  0  0  0  0  0  0  0  0
  -21.0310   -6.3330   25.9260 F   0  0  0  0  0  0  0  0  0  0  0  0
  -25.4170  -14.5270   21.0420 C   0  0  0  0  0  0  0  0  0  0  0  0
  -24.6680  -13.9340   21.9640 N   0  0  0  0  0  0  0  0  0  0  0  0
  -25.1110  -15.6280   20.5830 O   0  0  0  0  0  0  0  0  0  0  0  0
  -24.9290  -13.0410   22.3550 H   0  0  0  0  0  0  0  0  0  0  0  0
  -23.8180  -14.3790   22.2830 H   0  0  0  0  0  0  0  0  0  0  0  0
  -28.2230  -15.7640   20.0650 N   0  0  0  0  0  0  0  0  0  0  0  0
  -27.6040  -16.5370   20.2890 H   0  0  0  0  0  0  0  0  0  0  0  0
  -29.1320  -16.0690   19.7460 H   0  0  0  0  0  0  0  0  0  0  0  0
  2  1  1  0
  2 10  1  0
  3  2  2  0
  4  6  1  0
  4  1  2  0
  5  7  2  0
  5  3  1  0
  7  4  1  0
  8  9  1  0
 10  8  1  0
 10  9  1  0
 11 14  1  0
 11  3  1  0
 12 11  1  0
 14 13  1  0
 15 14  1  0
 15 16  1  0
 17 19  1  0
 17 16  1  0
 18 29  2  0
 19 24  1  0
 20 30  1  0
 20 28  1  0
 21 27  1  0
 21 23  1  0
 22 28  1  0
 23 22  1  0
 24 23  2  0
 25 26  1  0
 25 19  2  0
 26 21  2  0
 27 20  1  0
 28 18  1  0
 30 32  2  0
 31 30  1  0
 33 31  1  0
 34 39  1  0
 35 31  1  0
 36 35  1  0
 37 38  1  0
 37 36  1  0
 38 34  1  0
 39 35  1  0
 39 40  2  0
 41 40  1  0
 42 41  2  0
 43 34  2  0
 43 42  1  0
 44 18  1  0
 44 45  1  0
 44 54  1  0
 45 48  1  0
 46 45  1  0
 46 50  1  0
 47 46  2  0
 50 49  1  0
 50 52  1  0
 52 53  1  0
 52 51  1  0
 54 55  1  1
 54 57  1  0
 56 54  1  0
 58 67  1  0
 58  5  1  0
 59 67  1  0
 59 65  1  0
 60 65  1  0
 61 62  1  0
 61 60  1  0
 63 62  1  0
 63 72  1  0
 63 64  1  0
 65 64  1  0
 66 59  2  0
 67 68  1  0
 69 70  2  0
 70 89  1  0
 71 70  1  0
 71 74  1  0
 72 73  1  0
 72 69  1  0
 73 71  2  0
 74 75  1  0
 75 76  2  0
 77 80  1  0
 77 76  1  0
 78 77  2  0
 79 78  1  0
 79 74  2  0
 80 81  1  0
 81 86  2  0
 81 82  1  0
 82 83  2  0
 83 84  1  0
 84 88  1  0
 85 84  2  0
 86 85  1  0
 87 86  1  0
 89 90  1  0
 90 93  1  0
 90 92  1  0
 91 89  2  0
 94 69  1  0
 94 95  1  0
 96 94  1  0
M  ISO  4  16 101  17 101  59 100  67 100
M  END
>  <TORSDO>  (65) 
F 22

>  <SCORE>  (65) 
-5.389

>  <name>  (65) 
64

>  <ligand_id>  (65) 
64

>  <original_smiles>  (65) 
[H]c1c([H])c([H])c2c(c1[H])C([H])([H])C([H])([H])C([H])([H])C2([H])N([H])C(=O)C1([H])N(C(=O)C([H])(N([H])C(=O)C([H])(N([H])C([H])([H])[H])C([H])([H])[H])C(C([H])([H])[H])(C([H])([H])[H])C([H])([H])[H])C([H])([H])c2c([H])c(OC([H])([H])C([H])([H])C([H])(N([H])c3c(C([H])([H])N([H])C(=O)N4C([H])([H])C([H])([H])C([H])([H])C([H])(n5nc(-c6c([H])c([H])c(Oc7c([H])c([H])c(F)c([H])c7F)c([H])c6[H])c(C(=O)N([H])[H])c5N([H])[H])C4([H])[H])nc(C([H])([H])[H])c([H])c3C3([H])C([H])([H])C3([H])[H])C([H])([H])[H])c([H])c([H])c2C1([H])[H]

>  <smiles>  (65) 
[H]c1c([H])c([H])c2c(c1[H])C([H])([H])C([H])([H])C([H])([H])C2([H])N([H])C(=O)C1([H])N(C(=O)C([H])(N([H])C(=O)C([H])(N([H])C([H])([H])[H])C([H])([H])[H])C(C([H])([H])[H])(C([H])([H])[H])C([H])([H])[H])C([H])([H])c2c([H])c(OC([H])([H])C([H])([H])C([H])(N([H])c3c(C([H])([H])N([H])C(=O)N4C([H])([H])C([H])([H])C([H])([H])C([H])(n5nc(-c6c([H])c([H])c(Oc7c([H])c([H])c(F)c([H])c7F)c([H])c6[H])c(C(=O)N([H])[H])c5N([H])[H])C4([H])[H])nc(C([H])([H])[H])c([H])c3C3([H])C([H])([H])C3([H])[H])C([H])([H])[H])c([H])c([H])c2C1([H])[H]

$$$$
65:0:0
     RDKit          3D

 90 99  0  0  1  0  0  0  0  0999 V2000
  -30.5730  -15.1660   20.4080 C   0  0  0  0  0  0  0  0  0  0  0  0
  -30.4010  -12.7730   19.4960 C   0  0  0  0  0  2  0  0  0  0  0  0
  -29.5160  -12.6080   18.2410 C   0  0  0  0  0  2  0  0  0  0  0  0
  -28.0510  -12.3820   18.6490 C   0  0  0  0  0  2  0  0  0  0  0  0
  -27.5930  -13.3540   19.7680 C   0  0  0  0  0  3  0  0  0  0  0  0
  -28.6200  -13.5030   20.9130 C   0  0  0  0  0  2  0  0  0  0  0  0
  -29.8770  -13.9420   20.2900 N   0  0  0  0  0  0  0  0  0  0  0  0
  -31.7950  -15.0350   20.2450 O   0  0  0  0  0  0  0  0  0  0  0  0
  -28.7380  -17.3180   20.6490 C   0  0  0  0  0  2  0  0  0  0  0  0
  -30.9450  -17.7950   20.4050 C   0  0  0  0  0  2  0  0  0  0  0  0
  -28.1900  -20.3140   20.5530 C   0  0  0  0  0  2  0  0  0  0  0  0
  -28.7720  -18.8560   20.0280 C   0  0  0  0  0  3  0  0  0  0  0  0
  -30.2190  -19.1350   19.8480 C   0  0  0  0  0  3  0  0  0  0  0  0
  -30.4130  -20.6930   20.3130 C   0  0  0  0  0  3  0  0  0  0  0  0
  -30.0550  -16.5470   20.4400 N   0  0  0  0  0  0  0  0  0  0  0  0
  -29.1000  -21.4890   20.1070 N   0  0  2  0  0  4  0  0  0  0  0  0
  -28.9950  -21.5550   19.1040 H   0  0  0  0  0  0  0  0  0  0  0  0
  -25.2070  -13.9270   20.4540 C   0  0  0  0  0  0  0  0  0  0  0  0
  -24.1350  -13.1560   20.8100 C   0  0  0  0  0  0  0  0  0  0  0  0
  -24.6020  -11.8050   20.8190 C   0  0  0  0  0  0  0  0  0  0  0  0
  -26.2550  -13.0480   20.2550 N   0  0  0  0  0  0  0  0  0  0  0  0
  -25.9030  -11.7670   20.5430 N   0  0  0  0  0  0  0  0  0  0  0  0
  -23.8700  -10.5460   21.0090 C   0  0  0  0  0  0  0  0  0  0  0  0
  -24.2810   -9.5870   21.9600 C   0  0  0  0  0  3  0  0  0  0  0  0
  -23.5460   -8.3960   22.1420 C   0  0  0  0  0  3  0  0  0  0  0  0
  -22.3850   -8.1540   21.3710 C   0  0  0  0  0  0  0  0  0  0  0  0
  -21.9920   -9.1010   20.4080 C   0  0  0  0  0  3  0  0  0  0  0  0
  -22.7280  -10.2830   20.2260 C   0  0  0  0  0  3  0  0  0  0  0  0
  -21.6220   -7.0140   21.4610 O   0  0  0  0  0  0  0  0  0  0  0  0
  -21.5570   -6.2800   22.6190 C   0  0  0  0  0  0  0  0  0  0  0  0
  -21.1360   -6.8510   23.8390 C   0  0  0  0  0  3  0  0  0  0  0  0
  -21.0180   -6.0460   24.9890 C   0  0  0  0  0  3  0  0  0  0  0  0
  -21.3090   -4.6700   24.9200 C   0  0  0  0  0  0  0  0  0  0  0  0
  -21.7210   -4.0990   23.7030 C   0  0  0  0  0  3  0  0  0  0  0  0
  -21.8410   -4.9020   22.5550 C   0  0  0  0  0  0  0  0  0  0  0  0
  -22.2190   -4.3410   21.3810 F   0  0  0  0  0  0  0  0  0  0  0  0
  -21.1880   -3.8940   26.0220 F   0  0  0  0  0  0  0  0  0  0  0  0
  -22.7300  -13.6390   21.0260 C   0  0  0  0  0  0  0  0  0  0  0  0
  -21.9750  -12.9650   21.8860 N   0  0  0  0  0  0  0  0  0  0  0  0
  -22.3090  -14.6500   20.4660 O   0  0  0  0  0  0  0  0  0  0  0  0
  -22.3260  -12.1500   22.3680 H   0  0  0  0  0  0  0  0  0  0  0  0
  -21.0280  -13.2700   22.0660 H   0  0  0  0  0  0  0  0  0  0  0  0
  -25.3740  -15.2920   20.2490 N   0  0  0  0  0  0  0  0  0  0  0  0
  -24.6080  -15.9540   20.3250 H   0  0  0  0  0  0  0  0  0  0  0  0
  -26.2280  -15.7120   19.9060 H   0  0  0  0  0  0  0  0  0  0  0  0
  -32.9640  -20.6590   19.9300 C   0  0  0  0  0  1  0  0  0  0  0  0
  -31.6200  -21.3310   19.5900 C   0  0  0  0  0  2  0  0  0  0  0  0
  -28.9620  -23.0440   20.6520 C   0  0  0  0  0  3  0  0  0  0  0  0
  -28.1610  -24.4420   19.9560 C   0  0  0  0  0  3  0  0  0  0  0  0
  -28.2970  -26.0220   20.2770 O   0  0  0  0  0  0  0  0  0  0  0  0
  -24.6700  -31.8550   23.1810 C   0  0  0  0  0  0  0  0  0  0  0  0
  -27.2610  -27.0610   20.1670 C   0  0  0  0  0  0  0  0  0  0  0  0
  -23.4840  -30.4560   21.5380 C   0  0  0  0  0  3  0  0  0  0  0  0
  -24.9410  -28.8760   20.1110 C   0  0  0  0  0  0  0  0  0  0  0  0
  -26.0430  -30.7020   21.3910 C   0  0  0  0  0  2  0  0  0  0  0  0
  -26.1200  -29.3020   20.7330 C   0  0  0  0  0  0  0  0  0  0  0  0
  -27.2750  -28.4150   20.7370 C   0  0  0  0  0  3  0  0  0  0  0  0
  -26.0570  -26.7700   19.4860 C   0  0  0  0  0  3  0  0  0  0  0  0
  -24.9330  -27.6300   19.4630 C   0  0  0  0  0  3  0  0  0  0  0  0
  -23.7130  -29.7790   20.1590 C   0  0  0  0  0  2  0  0  0  0  0  0
  -24.7530  -31.0300   22.0900 N   0  0  0  0  0  0  0  0  0  0  0  0
  -23.5800  -32.1340   23.7050 O   0  0  0  0  0  0  0  0  0  0  0  0
  -22.7960  -29.4520   22.4990 C   0  0  0  0  0  0  0  0  0  0  0  0
  -21.4650  -29.2970   22.3840 N   0  0  0  0  0  0  0  0  0  0  0  0
  -23.4650  -28.8160   23.3170 O   0  0  0  0  0  0  0  0  0  0  0  0
  -20.9770  -29.8590   21.6990 H   0  0  0  0  0  0  0  0  0  0  0  0
  -18.0760  -28.1200   22.9180 C   0  0  0  0  0  0  0  0  0  0  0  0
  -20.6410  -28.3620   23.1560 C   0  0  0  0  0  3  0  0  0  0  0  0
  -20.7240  -26.9340   22.5670 C   0  0  0  0  0  2  0  0  0  0  0  0
  -19.6080  -26.6300   21.5620 C   0  0  0  0  0  2  0  0  0  0  0  0
  -18.2350  -26.7780   22.2240 C   0  0  0  0  0  2  0  0  0  0  0  0
  -19.2060  -28.8700   23.3420 C   0  0  0  0  0  0  0  0  0  0  0  0
  -19.0020  -30.1260   23.9550 C   0  0  0  0  0  3  0  0  0  0  0  0
  -17.7020  -30.6320   24.1460 C   0  0  0  0  0  3  0  0  0  0  0  0
  -16.5860  -29.8780   23.7360 C   0  0  0  0  0  3  0  0  0  0  0  0
  -16.7760  -28.6250   23.1280 C   0  0  0  0  0  3  0  0  0  0  0  0
  -25.9400  -32.4990   23.8160 C   0  0  0  0  0  3  0  0  0  0  0  0
  -25.6100  -33.8910   24.1670 N   0  0  0  0  0  0  0  0  0  0  0  0
  -25.9240  -34.9640   23.4290 C   0  0  0  0  0  0  0  0  0  0  0  0
  -26.5850  -34.8860   22.3900 O   0  0  0  0  0  0  0  0  0  0  0  0
  -25.0210  -34.0230   24.9760 H   0  0  0  0  0  0  0  0  0  0  0  0
  -24.1680  -36.7470   23.1330 C   0  0  0  0  0  1  0  0  0  0  0  0
  -25.4280  -36.3420   23.9150 C   0  0  0  0  0  3  0  0  0  0  0  0
  -27.5670  -37.2440   24.7210 C   0  0  0  0  0  1  0  0  0  0  0  0
  -26.4460  -37.4100   23.7990 N   0  0  0  0  0  0  0  0  0  0  0  0
  -26.0320  -38.3230   23.9630 H   0  0  0  0  0  0  0  0  0  0  0  0
  -26.4560  -31.7230   25.0910 C   0  0  1  0  0  0  0  0  0  0  0  0
  -25.3620  -31.4730   26.1570 C   0  0  0  0  0  1  0  0  0  0  0  0
  -27.0450  -30.3480   24.7010 C   0  0  0  0  0  1  0  0  0  0  0  0
  -27.6010  -32.5200   25.7610 C   0  0  0  0  0  1  0  0  0  0  0  0
  1 15  1  0
  2  7  1  0
  3  4  1  0
  3  2  1  0
  5  4  1  0
  5 21  1  0
  5  6  1  0
  7  1  1  0
  7  6  1  0
  8  1  2  0
 10 15  1  0
 12 11  1  0
 12  9  1  0
 13 12  1  0
 13 14  1  0
 13 10  1  0
 14 47  1  0
 15  9  1  0
 16 14  1  0
 16 11  1  0
 16 48  1  0
 16 17  1  6
 18 19  2  0
 19 20  1  0
 19 38  1  0
 20 23  1  0
 21 18  1  0
 21 22  1  0
 22 20  2  0
 23 24  1  0
 24 25  2  0
 26 29  1  0
 26 25  1  0
 27 26  2  0
 28 27  1  0
 28 23  2  0
 29 30  1  0
 30 31  1  0
 31 32  2  0
 33 32  1  0
 33 37  1  0
 34 33  2  0
 35 30  2  0
 35 34  1  0
 36 35  1  0
 38 39  1  0
 39 42  1  0
 39 41  1  0
 40 38  2  0
 43 44  1  0
 43 18  1  0
 45 43  1  0
 47 46  1  0
 49 50  1  0
 49 48  2  0
 51 62  2  0
 52 50  1  0
 52 57  1  0
 53 61  1  0
 53 63  1  0
 54 60  1  0
 54 56  1  0
 55 61  1  0
 56 57  2  0
 56 55  1  0
 58 52  2  0
 59 58  1  0
 59 54  2  0
 60 53  1  0
 61 51  1  0
 63 65  2  0
 64 63  1  0
 66 64  1  0
 67 76  2  0
 67 72  1  0
 68 64  1  0
 68 72  1  0
 69 68  1  0
 70 71  1  0
 70 69  1  0
 71 67  1  0
 72 73  2  0
 73 74  1  0
 75 74  2  0
 76 75  1  0
 77 51  1  0
 77 78  1  0
 77 87  1  0
 78 81  1  0
 79 83  1  0
 79 78  1  0
 80 79  2  0
 83 82  1  0
 85 83  1  0
 85 86  1  0
 85 84  1  0
 87 90  1  1
 87 88  1  0
 89 87  1  0
M  ISO  4   1 100  15 100  49 101  50 101
M  END
>  <TORSDO>  (66) 
F 18

>  <SCORE>  (66) 
-15.470

>  <name>  (66) 
65

>  <ligand_id>  (66) 
65

>  <original_smiles>  (66) 
[H]c1c([H])c([H])c2c(c1[H])C([H])([H])C([H])([H])C([H])([H])C2([H])N([H])C(=O)C1([H])N(C(=O)C([H])(N([H])C(=O)C([H])(N([H])C([H])([H])[H])C([H])([H])[H])C(C([H])([H])[H])(C([H])([H])[H])C([H])([H])[H])C([H])([H])c2c([H])c(OC([H])([H])C([H])([H])[N+]3([H])C([H])([H])C4([H])C([H])([H])N(C(=O)N5C([H])([H])C([H])([H])C([H])([H])C([H])(n6nc(-c7c([H])c([H])c(Oc8c([H])c([H])c(F)c([H])c8F)c([H])c7[H])c(C(=O)N([H])[H])c6N([H])[H])C5([H])[H])C([H])([H])C4([H])C3([H])C([H])([H])C([H])([H])[H])c([H])c([H])c2C1([H])[H]

>  <smiles>  (66) 
[H]c1c([H])c([H])c2c(c1[H])C([H])([H])C([H])([H])C([H])([H])C2([H])N([H])C(=O)C1([H])N(C(=O)C([H])(N([H])C(=O)C([H])(N([H])C([H])([H])[H])C([H])([H])[H])C(C([H])([H])[H])(C([H])([H])[H])C([H])([H])[H])C([H])([H])c2c([H])c(OC([H])([H])C([H])([H])[N+]3([H])C([H])([H])C4([H])C([H])([H])N(C(=O)N5C([H])([H])C([H])([H])C([H])([H])C([H])(n6nc(-c7c([H])c([H])c(Oc8c([H])c([H])c(F)c([H])c8F)c([H])c7[H])c(C(=O)N([H])[H])c6N([H])[H])C5([H])[H])C([H])([H])C4([H])C3([H])C([H])([H])C([H])([H])[H])c([H])c([H])c2C1([H])[H]

$$$$
66:0:0
     RDKit          3D

 89 98  0  0  1  0  0  0  0  0999 V2000
  -30.3880  -15.6180   20.3140 C   0  0  0  0  0  0  0  0  0  0  0  0
  -30.3840  -13.1220   19.4400 C   0  0  0  0  0  2  0  0  0  0  0  0
  -29.4830  -12.7800   18.2270 C   0  0  0  0  0  2  0  0  0  0  0  0
  -28.0550  -12.4530   18.6860 C   0  0  0  0  0  2  0  0  0  0  0  0
  -27.5660  -13.4390   19.7720 C   0  0  0  0  0  3  0  0  0  0  0  0
  -28.6090  -13.7180   20.8780 C   0  0  0  0  0  2  0  0  0  0  0  0
  -29.7870  -14.3030   20.2010 N   0  0  0  0  0  0  0  0  0  0  0  0
  -31.6200  -15.4750   20.1990 O   0  0  0  0  0  0  0  0  0  0  0  0
  -29.7020  -20.8630   18.6010 C   0  0  0  0  0  2  0  0  0  0  0  0
  -29.6310  -19.6250   19.3350 C   0  0  0  0  0  0  0  0  0  0  0  0
  -29.1070  -19.7880   20.5720 C   0  0  0  0  0  0  0  0  0  0  0  0
  -28.7140  -22.3840   20.2460 C   0  0  0  0  0  0  0  0  0  0  0  0
  -29.2110  -18.2080   21.1490 C   0  0  0  0  0  2  0  0  0  0  0  0
  -30.0390  -18.0780   19.0140 C   0  0  2  0  0  0  0  0  0  0  0  0
  -31.5300  -18.0720   18.6110 C   0  0  0  0  0  1  0  0  0  0  0  0
  -29.2180  -17.6160   17.7930 C   0  0  0  0  0  1  0  0  0  0  0  0
  -29.2750  -22.1290   19.0320 N   0  0  0  0  0  0  0  0  0  0  0  0
  -28.6390  -21.1330   21.0050 N   0  0  0  0  0  2  0  0  0  0  0  0
  -29.7610  -17.0300   20.1620 N   0  0  0  0  0  0  0  0  0  0  0  0
  -25.2040  -13.9600   20.5480 C   0  0  0  0  0  0  0  0  0  0  0  0
  -24.1480  -13.1720   20.9110 C   0  0  0  0  0  0  0  0  0  0  0  0
  -24.6270  -11.8260   20.8750 C   0  0  0  0  0  0  0  0  0  0  0  0
  -26.2530  -13.0960   20.2980 N   0  0  0  0  0  0  0  0  0  0  0  0
  -25.9220  -11.8050   20.5650 N   0  0  0  0  0  0  0  0  0  0  0  0
  -23.9090  -10.5570   21.0560 C   0  0  0  0  0  0  0  0  0  0  0  0
  -24.3400   -9.5890   21.9890 C   0  0  0  0  0  3  0  0  0  0  0  0
  -23.6140   -8.3890   22.1620 C   0  0  0  0  0  3  0  0  0  0  0  0
  -22.4450   -8.1500   21.4020 C   0  0  0  0  0  0  0  0  0  0  0  0
  -22.0340   -9.1060   20.4580 C   0  0  0  0  0  3  0  0  0  0  0  0
  -22.7580  -10.2970   20.2840 C   0  0  0  0  0  3  0  0  0  0  0  0
  -21.6940   -7.0010   21.4850 O   0  0  0  0  0  0  0  0  0  0  0  0
  -21.6350   -6.2600   22.6380 C   0  0  0  0  0  0  0  0  0  0  0  0
  -21.1740   -6.8090   23.8550 C   0  0  0  0  0  3  0  0  0  0  0  0
  -21.0640   -5.9930   24.9990 C   0  0  0  0  0  3  0  0  0  0  0  0
  -21.4060   -4.6290   24.9260 C   0  0  0  0  0  0  0  0  0  0  0  0
  -21.8610   -4.0790   23.7140 C   0  0  0  0  0  3  0  0  0  0  0  0
  -21.9720   -4.8930   22.5730 C   0  0  0  0  0  0  0  0  0  0  0  0
  -22.3900   -4.3530   21.4030 F   0  0  0  0  0  0  0  0  0  0  0  0
  -21.2940   -3.8430   26.0220 F   0  0  0  0  0  0  0  0  0  0  0  0
  -22.7470  -13.6380   21.1720 C   0  0  0  0  0  0  0  0  0  0  0  0
  -22.0210  -12.9390   22.0360 N   0  0  0  0  0  0  0  0  0  0  0  0
  -22.3050  -14.6590   20.6450 O   0  0  0  0  0  0  0  0  0  0  0  0
  -22.3920  -12.1130   22.4830 H   0  0  0  0  0  0  0  0  0  0  0  0
  -21.0810  -13.2340   22.2560 H   0  0  0  0  0  0  0  0  0  0  0  0
  -25.3580  -15.3330   20.3780 N   0  0  0  0  0  0  0  0  0  0  0  0
  -24.5900  -15.9840   20.4980 H   0  0  0  0  0  0  0  0  0  0  0  0
  -26.2080  -15.7790   20.0570 H   0  0  0  0  0  0  0  0  0  0  0  0
  -27.9150  -24.0130   20.5440 C   0  0  0  0  0  2  0  0  0  0  0  0
  -28.2170  -25.7060   20.3810 O   0  0  0  0  0  0  0  0  0  0  0  0
  -24.6590  -31.9380   23.2510 C   0  0  0  0  0  0  0  0  0  0  0  0
  -27.2360  -26.8870   20.3500 C   0  0  0  0  0  0  0  0  0  0  0  0
  -23.4920  -30.5200   21.6180 C   0  0  0  0  0  3  0  0  0  0  0  0
  -24.9580  -28.8690   20.2460 C   0  0  0  0  0  0  0  0  0  0  0  0
  -26.0690  -30.6850   21.5170 C   0  0  0  0  0  2  0  0  0  0  0  0
  -26.1450  -29.2500   20.8840 C   0  0  0  0  0  0  0  0  0  0  0  0
  -27.2750  -28.2870   20.9020 C   0  0  0  0  0  3  0  0  0  0  0  0
  -26.0120  -26.6980   19.6630 C   0  0  0  0  0  3  0  0  0  0  0  0
  -24.9260  -27.6170   19.6130 C   0  0  0  0  0  3  0  0  0  0  0  0
  -23.7460  -29.8090   20.2590 C   0  0  0  0  0  2  0  0  0  0  0  0
  -24.7630  -31.0790   22.1820 N   0  0  0  0  0  0  0  0  0  0  0  0
  -23.5590  -32.2400   23.7460 O   0  0  0  0  0  0  0  0  0  0  0  0
  -22.7720  -29.5480   22.5920 C   0  0  0  0  0  0  0  0  0  0  0  0
  -21.4420  -29.3810   22.4470 N   0  0  0  0  0  0  0  0  0  0  0  0
  -23.4180  -28.9390   23.4470 O   0  0  0  0  0  0  0  0  0  0  0  0
  -20.9720  -29.9210   21.7350 H   0  0  0  0  0  0  0  0  0  0  0  0
  -18.0510  -28.1790   22.9370 C   0  0  0  0  0  0  0  0  0  0  0  0
  -20.6080  -28.4530   23.2200 C   0  0  0  0  0  3  0  0  0  0  0  0
  -20.7160  -27.0140   22.6630 C   0  0  0  0  0  2  0  0  0  0  0  0
  -19.6240  -26.6790   21.6420 C   0  0  0  0  0  2  0  0  0  0  0  0
  -18.2370  -26.8260   22.2710 C   0  0  0  0  0  2  0  0  0  0  0  0
  -19.1630  -28.9500   23.3690 C   0  0  0  0  0  0  0  0  0  0  0  0
  -18.9330  -30.2130   23.9550 C   0  0  0  0  0  3  0  0  0  0  0  0
  -17.6230  -30.7060   24.1110 C   0  0  0  0  0  3  0  0  0  0  0  0
  -16.5260  -29.9340   23.6940 C   0  0  0  0  0  3  0  0  0  0  0  0
  -16.7400  -28.6710   23.1130 C   0  0  0  0  0  3  0  0  0  0  0  0
  -25.9150  -32.5960   23.8980 C   0  0  0  0  0  3  0  0  0  0  0  0
  -25.5890  -34.0010   24.2110 N   0  0  0  0  0  0  0  0  0  0  0  0
  -25.9190  -35.0570   23.4550 C   0  0  0  0  0  0  0  0  0  0  0  0
  -26.5890  -34.9510   22.4250 O   0  0  0  0  0  0  0  0  0  0  0  0
  -24.9970  -34.1560   25.0140 H   0  0  0  0  0  0  0  0  0  0  0  0
  -24.1810  -36.8480   23.1070 C   0  0  0  0  0  1  0  0  0  0  0  0
  -25.4310  -36.4490   23.9090 C   0  0  0  0  0  3  0  0  0  0  0  0
  -27.5650  -37.3580   24.7190 C   0  0  0  0  0  1  0  0  0  0  0  0
  -26.4580  -37.5060   23.7780 N   0  0  0  0  0  0  0  0  0  0  0  0
  -26.0490  -38.4270   23.9130 H   0  0  0  0  0  0  0  0  0  0  0  0
  -26.3960  -31.8540   25.2070 C   0  0  1  0  0  0  0  0  0  0  0  0
  -25.2750  -31.6370   26.2510 C   0  0  0  0  0  1  0  0  0  0  0  0
  -26.9920  -30.4680   24.8700 C   0  0  0  0  0  1  0  0  0  0  0  0
  -27.5280  -32.6650   25.8810 C   0  0  0  0  0  1  0  0  0  0  0  0
  2  7  1  0
  3  4  1  0
  3  2  1  0
  5  4  1  0
  5 23  1  0
  5  6  1  0
  7  1  1  0
  7  6  1  0
  8  1  2  0
  9 17  1  0
  9 10  1  0
 10 11  2  0
 11 18  1  0
 11 13  1  0
 12 48  1  0
 12 18  1  0
 14 10  1  0
 14 19  1  0
 14 15  1  6
 16 14  1  0
 17 12  2  0
 19  1  1  0
 19 13  1  0
 20 21  2  0
 21 40  1  0
 22 21  1  0
 22 25  1  0
 23 20  1  0
 23 24  1  0
 24 22  2  0
 25 26  1  0
 26 27  2  0
 28 31  1  0
 28 27  1  0
 29 28  2  0
 30 29  1  0
 30 25  2  0
 31 32  1  0
 32 33  1  0
 33 34  2  0
 35 34  1  0
 35 39  1  0
 36 35  2  0
 37 32  2  0
 37 36  1  0
 38 37  1  0
 40 41  1  0
 41 44  1  0
 41 43  1  0
 42 40  2  0
 45 46  1  0
 45 20  1  0
 47 45  1  0
 49 48  1  0
 50 61  2  0
 51 49  1  0
 51 56  1  0
 52 60  1  0
 52 62  1  0
 53 59  1  0
 53 55  1  0
 54 60  1  0
 55 56  2  0
 55 54  1  0
 57 51  2  0
 58 57  1  0
 58 53  2  0
 59 52  1  0
 60 50  1  0
 62 64  2  0
 63 62  1  0
 65 63  1  0
 66 75  2  0
 66 71  1  0
 67 63  1  0
 67 71  1  0
 68 67  1  0
 69 70  1  0
 69 68  1  0
 70 66  1  0
 71 72  2  0
 72 73  1  0
 74 73  2  0
 75 74  1  0
 76 50  1  0
 76 77  1  0
 76 86  1  0
 77 80  1  0
 78 82  1  0
 78 77  1  0
 79 78  2  0
 82 81  1  0
 84 82  1  0
 84 85  1  0
 84 83  1  0
 86 89  1  1
 86 87  1  0
 88 86  1  0
M  ISO  4   1 100  19 100  48 101  49 101
M  END
>  <TORSDO>  (67) 
F 16

>  <SCORE>  (67) 
-16.329

>  <name>  (67) 
66

>  <ligand_id>  (67) 
66

>  <original_smiles>  (67) 
[H]c1nc(C([H])([H])Oc2c([H])c([H])c3c(c2[H])C([H])([H])N(C(=O)C([H])(N([H])C(=O)C([H])(N([H])C([H])([H])[H])C([H])([H])[H])C(C([H])([H])[H])(C([H])([H])[H])C([H])([H])[H])C([H])(C(=O)N([H])C2([H])c4c([H])c([H])c([H])c([H])c4C([H])([H])C([H])([H])C2([H])[H])C3([H])[H])nc2c1C(C([H])([H])[H])(C([H])([H])[H])N(C(=O)N1C([H])([H])C([H])([H])C([H])([H])C([H])(n3nc(-c4c([H])c([H])c(Oc5c([H])c([H])c(F)c([H])c5F)c([H])c4[H])c(C(=O)N([H])[H])c3N([H])[H])C1([H])[H])C2([H])[H]

>  <smiles>  (67) 
[H]c1nc(C([H])([H])Oc2c([H])c([H])c3c(c2[H])C([H])([H])N(C(=O)C([H])(N([H])C(=O)C([H])(N([H])C([H])([H])[H])C([H])([H])[H])C(C([H])([H])[H])(C([H])([H])[H])C([H])([H])[H])C([H])(C(=O)N([H])C2([H])c4c([H])c([H])c([H])c([H])c4C([H])([H])C([H])([H])C2([H])[H])C3([H])[H])nc2c1C(C([H])([H])[H])(C([H])([H])[H])N(C(=O)N1C([H])([H])C([H])([H])C([H])([H])C([H])(n3nc(-c4c([H])c([H])c(Oc5c([H])c([H])c(F)c([H])c5F)c([H])c4[H])c(C(=O)N([H])[H])c3N([H])[H])C1([H])[H])C2([H])[H]

$$$$
67:0:0
     RDKit          3D

 88 96  0  0  1  0  0  0  0  0999 V2000
  -30.3790  -15.4120   20.3410 C   0  0  0  0  0  0  0  0  0  0  0  0
  -30.3980  -12.9200   19.5390 C   0  0  0  0  0  2  0  0  0  0  0  0
  -29.5160  -12.6730   18.2880 C   0  0  0  0  0  2  0  0  0  0  0  0
  -28.0610  -12.3880   18.6940 C   0  0  0  0  0  2  0  0  0  0  0  0
  -27.5750  -13.3580   19.8010 C   0  0  0  0  0  3  0  0  0  0  0  0
  -28.5960  -13.5560   20.9430 C   0  0  0  0  0  2  0  0  0  0  0  0
  -29.8300  -14.0820   20.3320 N   0  0  0  0  0  0  0  0  0  0  0  0
  -31.5960  -15.3800   20.0830 O   0  0  0  0  0  0  0  0  0  0  0  0
  -30.5800  -18.6270   19.0820 C   0  0  0  0  0  3  0  0  0  0  0  0
  -30.7040  -19.9430   18.5770 C   0  0  0  0  0  0  0  0  0  0  0  0
  -29.7250  -18.3100   20.1510 C   0  0  0  0  0  0  0  0  0  0  0  0
  -29.2170  -20.9440   20.0840 C   0  0  0  0  0  0  0  0  0  0  0  0
  -31.6250  -20.2130   17.4050 C   0  0  0  0  0  1  0  0  0  0  0  0
  -30.0610  -21.0350   19.0620 N   0  0  0  0  0  0  0  0  0  0  0  0
  -29.0690  -19.5760   20.6140 N   0  0  0  0  0  0  0  0  0  0  0  0
  -29.6230  -16.7070   20.5120 N   0  0  0  0  0  0  0  0  0  0  0  0
  -28.7220  -16.5010   20.9110 H   0  0  0  0  0  0  0  0  0  0  0  0
  -25.1930  -13.9060   20.5100 C   0  0  0  0  0  0  0  0  0  0  0  0
  -24.1280  -13.1300   20.8660 C   0  0  0  0  0  0  0  0  0  0  0  0
  -24.5990  -11.7800   20.8520 C   0  0  0  0  0  0  0  0  0  0  0  0
  -26.2420  -13.0320   20.2880 N   0  0  0  0  0  0  0  0  0  0  0  0
  -25.8960  -11.7470   20.5620 N   0  0  0  0  0  0  0  0  0  0  0  0
  -23.8690  -10.5170   21.0390 C   0  0  0  0  0  0  0  0  0  0  0  0
  -24.2860   -9.5540   21.9830 C   0  0  0  0  0  3  0  0  0  0  0  0
  -23.5530   -8.3600   22.1600 C   0  0  0  0  0  3  0  0  0  0  0  0
  -22.3890   -8.1210   21.3890 C   0  0  0  0  0  0  0  0  0  0  0  0
  -21.9920   -9.0740   20.4350 C   0  0  0  0  0  3  0  0  0  0  0  0
  -22.7260  -10.2590   20.2570 C   0  0  0  0  0  3  0  0  0  0  0  0
  -21.6300   -6.9780   21.4730 O   0  0  0  0  0  0  0  0  0  0  0  0
  -21.5610   -6.2420   22.6280 C   0  0  0  0  0  0  0  0  0  0  0  0
  -21.1290   -6.8080   23.8470 C   0  0  0  0  0  3  0  0  0  0  0  0
  -21.0080   -5.9990   24.9940 C   0  0  0  0  0  3  0  0  0  0  0  0
  -21.3080   -4.6260   24.9240 C   0  0  0  0  0  0  0  0  0  0  0  0
  -21.7320   -4.0590   23.7090 C   0  0  0  0  0  3  0  0  0  0  0  0
  -21.8550   -4.8650   22.5640 C   0  0  0  0  0  0  0  0  0  0  0  0
  -22.2450   -4.3090   21.3910 F   0  0  0  0  0  0  0  0  0  0  0  0
  -21.1830   -3.8480   26.0240 F   0  0  0  0  0  0  0  0  0  0  0  0
  -22.7260  -13.6070   21.1040 C   0  0  0  0  0  0  0  0  0  0  0  0
  -21.9840  -12.9200   21.9650 N   0  0  0  0  0  0  0  0  0  0  0  0
  -22.2980  -14.6250   20.5620 O   0  0  0  0  0  0  0  0  0  0  0  0
  -22.3430  -12.0970   22.4260 H   0  0  0  0  0  0  0  0  0  0  0  0
  -21.0410  -13.2240   22.1670 H   0  0  0  0  0  0  0  0  0  0  0  0
  -25.3550  -15.2770   20.3280 N   0  0  0  0  0  0  0  0  0  0  0  0
  -24.5810  -15.9260   20.4190 H   0  0  0  0  0  0  0  0  0  0  0  0
  -26.1960  -15.7160   19.9790 H   0  0  0  0  0  0  0  0  0  0  0  0
  -28.7470  -22.5560   20.6780 C   0  0  0  0  0  2  0  0  0  0  0  0
  -28.2150  -24.1620   19.9450 C   0  0  0  0  0  2  0  0  0  0  0  0
  -28.2220  -25.7970   20.3570 O   0  0  0  0  0  0  0  0  0  0  0  0
  -24.6280  -31.8540   23.1730 C   0  0  0  0  0  0  0  0  0  0  0  0
  -27.2140  -26.9100   20.2220 C   0  0  0  0  0  0  0  0  0  0  0  0
  -23.4540  -30.4400   21.5370 C   0  0  0  0  0  3  0  0  0  0  0  0
  -24.9160  -28.8200   20.1340 C   0  0  0  0  0  0  0  0  0  0  0  0
  -26.0200  -30.6420   21.4150 C   0  0  0  0  0  2  0  0  0  0  0  0
  -26.0960  -29.2210   20.7700 C   0  0  0  0  0  0  0  0  0  0  0  0
  -27.2330  -28.2870   20.7900 C   0  0  0  0  0  3  0  0  0  0  0  0
  -26.0050  -26.6750   19.5250 C   0  0  0  0  0  3  0  0  0  0  0  0
  -24.9000  -27.5700   19.4910 C   0  0  0  0  0  3  0  0  0  0  0  0
  -23.6960  -29.7440   20.1690 C   0  0  0  0  0  2  0  0  0  0  0  0
  -24.7220  -31.0080   22.0950 N   0  0  0  0  0  0  0  0  0  0  0  0
  -23.5330  -32.1470   23.6800 O   0  0  0  0  0  0  0  0  0  0  0  0
  -22.7490  -29.4560   22.5080 C   0  0  0  0  0  0  0  0  0  0  0  0
  -21.4160  -29.3040   22.3890 N   0  0  0  0  0  0  0  0  0  0  0  0
  -23.4100  -28.8280   23.3390 O   0  0  0  0  0  0  0  0  0  0  0  0
  -20.9360  -29.8580   21.6940 H   0  0  0  0  0  0  0  0  0  0  0  0
  -18.0250  -28.1240   22.9180 C   0  0  0  0  0  0  0  0  0  0  0  0
  -20.5880  -28.3740   23.1650 C   0  0  0  0  0  3  0  0  0  0  0  0
  -20.6760  -26.9400   22.5900 C   0  0  0  0  0  2  0  0  0  0  0  0
  -19.5650  -26.6260   21.5820 C   0  0  0  0  0  2  0  0  0  0  0  0
  -18.1890  -26.7770   22.2340 C   0  0  0  0  0  2  0  0  0  0  0  0
  -19.1510  -28.8800   23.3410 C   0  0  0  0  0  0  0  0  0  0  0  0
  -18.9400  -30.1390   23.9450 C   0  0  0  0  0  3  0  0  0  0  0  0
  -17.6380  -30.6430   24.1250 C   0  0  0  0  0  3  0  0  0  0  0  0
  -16.5270  -29.8840   23.7160 C   0  0  0  0  0  3  0  0  0  0  0  0
  -16.7220  -28.6260   23.1210 C   0  0  0  0  0  3  0  0  0  0  0  0
  -25.8910  -32.5090   23.8110 C   0  0  0  0  0  3  0  0  0  0  0  0
  -25.5600  -33.9070   24.1480 N   0  0  0  0  0  0  0  0  0  0  0  0
  -25.8870  -34.9740   23.4060 C   0  0  0  0  0  0  0  0  0  0  0  0
  -26.5580  -34.8850   22.3760 O   0  0  0  0  0  0  0  0  0  0  0  0
  -24.9600  -34.0470   24.9470 H   0  0  0  0  0  0  0  0  0  0  0  0
  -24.1450  -36.7640   23.0810 C   0  0  0  0  0  1  0  0  0  0  0  0
  -25.3950  -36.3580   23.8800 C   0  0  0  0  0  3  0  0  0  0  0  0
  -27.5270  -37.2540   24.7080 C   0  0  0  0  0  1  0  0  0  0  0  0
  -26.4220  -37.4180   23.7670 N   0  0  0  0  0  0  0  0  0  0  0  0
  -26.0120  -38.3370   23.9140 H   0  0  0  0  0  0  0  0  0  0  0  0
  -26.3960  -31.7490   25.1010 C   0  0  1  0  0  0  0  0  0  0  0  0
  -25.2910  -31.5170   26.1600 C   0  0  0  0  0  1  0  0  0  0  0  0
  -26.9860  -30.3700   24.7350 C   0  0  0  0  0  1  0  0  0  0  0  0
  -27.5390  -32.5500   25.7680 C   0  0  0  0  0  1  0  0  0  0  0  0
  1 16  1  0
  2  7  1  0
  3  4  1  0
  3  2  1  0
  5  4  1  0
  5 21  1  0
  5  6  1  0
  7  1  1  0
  7  6  1  0
  8  1  2  0
  9 11  1  0
 10 14  1  0
 10  9  2  0
 11 16  1  0
 11 15  2  0
 12 15  1  0
 12 46  1  0
 13 10  1  0
 14 12  2  0
 16 17  1  0
 18 19  2  0
 19 38  1  0
 20 19  1  0
 20 23  1  0
 21 18  1  0
 21 22  1  0
 22 20  2  0
 23 24  1  0
 24 25  2  0
 26 29  1  0
 26 25  1  0
 27 26  2  0
 28 27  1  0
 28 23  2  0
 29 30  1  0
 30 31  1  0
 31 32  2  0
 33 32  1  0
 33 37  1  0
 34 33  2  0
 35 30  2  0
 35 34  1  0
 36 35  1  0
 38 39  1  0
 39 42  1  0
 39 41  1  0
 40 38  2  0
 43 44  1  0
 43 18  1  0
 45 43  1  0
 47 48  1  0
 47 46  1  0
 49 60  2  0
 50 48  1  0
 50 55  1  0
 51 59  1  0
 51 61  1  0
 52 58  1  0
 52 54  1  0
 53 59  1  0
 54 55  2  0
 54 53  1  0
 56 50  2  0
 57 56  1  0
 57 52  2  0
 58 51  1  0
 59 49  1  0
 61 63  2  0
 62 61  1  0
 64 62  1  0
 65 74  2  0
 65 70  1  0
 66 62  1  0
 66 70  1  0
 67 66  1  0
 68 69  1  0
 68 67  1  0
 69 65  1  0
 70 71  2  0
 71 72  1  0
 73 72  2  0
 74 73  1  0
 75 49  1  0
 75 76  1  0
 75 85  1  0
 76 79  1  0
 77 81  1  0
 77 76  1  0
 78 77  2  0
 81 80  1  0
 83 81  1  0
 83 84  1  0
 83 82  1  0
 85 88  1  1
 85 86  1  0
 87 85  1  0
M  ISO  4   1 100  16 100  47 101  48 101
M  END
>  <TORSDO>  (68) 
F 17

>  <SCORE>  (68) 
-16.595

>  <name>  (68) 
67

>  <ligand_id>  (68) 
67

>  <original_smiles>  (68) 
[H]c1c(N([H])C(=O)N2C([H])([H])C([H])([H])C([H])([H])C([H])(n3nc(-c4c([H])c([H])c(Oc5c([H])c([H])c(F)c([H])c5F)c([H])c4[H])c(C(=O)N([H])[H])c3N([H])[H])C2([H])[H])nc(C([H])([H])C([H])([H])Oc2c([H])c([H])c3c(c2[H])C([H])([H])N(C(=O)C([H])(N([H])C(=O)C([H])(N([H])C([H])([H])[H])C([H])([H])[H])C(C([H])([H])[H])(C([H])([H])[H])C([H])([H])[H])C([H])(C(=O)N([H])C2([H])c4c([H])c([H])c([H])c([H])c4C([H])([H])C([H])([H])C2([H])[H])C3([H])[H])nc1C([H])([H])[H]

>  <smiles>  (68) 
[H]c1c(N([H])C(=O)N2C([H])([H])C([H])([H])C([H])([H])C([H])(n3nc(-c4c([H])c([H])c(Oc5c([H])c([H])c(F)c([H])c5F)c([H])c4[H])c(C(=O)N([H])[H])c3N([H])[H])C2([H])[H])nc(C([H])([H])C([H])([H])Oc2c([H])c([H])c3c(c2[H])C([H])([H])N(C(=O)C([H])(N([H])C(=O)C([H])(N([H])C([H])([H])[H])C([H])([H])[H])C(C([H])([H])[H])(C([H])([H])[H])C([H])([H])[H])C([H])(C(=O)N([H])C2([H])c4c([H])c([H])c([H])c([H])c4C([H])([H])C([H])([H])C2([H])[H])C3([H])[H])nc1C([H])([H])[H]

$$$$
68:0:0
     RDKit          3D

 88 97  0  0  1  0  0  0  0  0999 V2000
  -27.5320  -23.0600   21.6770 C   0  0  0  0  0  3  0  0  0  0  0  0
  -28.2420  -21.9110   21.2330 C   0  0  0  0  0  0  0  0  0  0  0  0
  -29.1700  -21.9910   20.1730 C   0  0  0  0  0  3  0  0  0  0  0  0
  -28.4950  -24.5870   20.2190 C   0  0  0  0  0  0  0  0  0  0  0  0
  -27.9480  -20.5780   21.9000 C   0  0  0  0  0  1  0  0  0  0  0  0
  -27.6390  -24.3220   21.1920 N   0  0  0  0  0  0  0  0  0  0  0  0
  -29.2540  -23.4210   19.7150 N   0  0  0  0  0  0  0  0  0  0  0  0
  -28.6130  -26.0820   19.9190 O   0  0  0  0  0  0  0  0  0  0  0  0
  -24.9260  -31.9540   23.2530 C   0  0  0  0  0  0  0  0  0  0  0  0
  -27.5780  -27.1900   20.0370 C   0  0  0  0  0  0  0  0  0  0  0  0
  -23.7660  -30.6080   21.5530 C   0  0  0  0  0  3  0  0  0  0  0  0
  -25.2500  -29.0850   20.0680 C   0  0  0  0  0  0  0  0  0  0  0  0
  -26.3330  -30.8550   21.4260 C   0  0  0  0  0  2  0  0  0  0  0  0
  -26.4320  -29.4650   20.7160 C   0  0  0  0  0  0  0  0  0  0  0  0
  -27.5880  -28.5430   20.6760 C   0  0  0  0  0  3  0  0  0  0  0  0
  -26.3610  -26.9950   19.3420 C   0  0  0  0  0  3  0  0  0  0  0  0
  -25.2430  -27.8730   19.3620 C   0  0  0  0  0  3  0  0  0  0  0  0
  -24.0160  -29.9900   20.1490 C   0  0  0  0  0  2  0  0  0  0  0  0
  -25.0310  -31.1670   22.1310 N   0  0  0  0  0  0  0  0  0  0  0  0
  -23.8300  -32.1990   23.7830 O   0  0  0  0  0  0  0  0  0  0  0  0
  -23.0880  -29.5580   22.4730 C   0  0  0  0  0  0  0  0  0  0  0  0
  -21.7600  -29.3760   22.3460 N   0  0  0  0  0  0  0  0  0  0  0  0
  -23.7670  -28.9080   23.2720 O   0  0  0  0  0  0  0  0  0  0  0  0
  -21.2610  -29.9540   21.6840 H   0  0  0  0  0  0  0  0  0  0  0  0
  -18.4090  -28.0520   22.7930 C   0  0  0  0  0  0  0  0  0  0  0  0
  -20.9600  -28.3850   23.0750 C   0  0  0  0  0  3  0  0  0  0  0  0
  -21.1040  -26.9790   22.4450 C   0  0  0  0  0  2  0  0  0  0  0  0
  -20.0150  -26.6660   21.4140 C   0  0  0  0  0  2  0  0  0  0  0  0
  -18.6270  -26.7400   22.0570 C   0  0  0  0  0  2  0  0  0  0  0  0
  -19.5020  -28.8320   23.2570 C   0  0  0  0  0  0  0  0  0  0  0  0
  -19.2400  -30.0570   23.9080 C   0  0  0  0  0  3  0  0  0  0  0  0
  -17.9190  -30.5050   24.0960 C   0  0  0  0  0  3  0  0  0  0  0  0
  -16.8410  -29.7250   23.6450 C   0  0  0  0  0  3  0  0  0  0  0  0
  -17.0870  -28.5000   23.0000 C   0  0  0  0  0  3  0  0  0  0  0  0
  -26.1800  -32.6010   23.9150 C   0  0  0  0  0  3  0  0  0  0  0  0
  -25.8280  -33.9750   24.3170 N   0  0  0  0  0  0  0  0  0  0  0  0
  -26.1580  -35.0840   23.6400 C   0  0  0  0  0  0  0  0  0  0  0  0
  -26.8550  -35.0570   22.6230 O   0  0  0  0  0  0  0  0  0  0  0  0
  -25.2110  -34.0680   25.1110 H   0  0  0  0  0  0  0  0  0  0  0  0
  -24.4130  -36.8800   23.3630 C   0  0  0  0  0  1  0  0  0  0  0  0
  -25.6400  -36.4350   24.1760 C   0  0  0  0  0  3  0  0  0  0  0  0
  -27.7370  -37.2980   25.1190 C   0  0  0  0  0  1  0  0  0  0  0  0
  -26.6580  -37.5080   24.1580 N   0  0  0  0  0  0  0  0  0  0  0  0
  -26.2330  -38.4100   24.3520 H   0  0  0  0  0  0  0  0  0  0  0  0
  -26.7020  -31.7920   25.1680 C   0  0  1  0  0  0  0  0  0  0  0  0
  -25.6000  -31.4720   26.2070 C   0  0  0  0  0  1  0  0  0  0  0  0
  -27.3370  -30.4510   24.7370 C   0  0  0  0  0  1  0  0  0  0  0  0
  -27.8130  -32.5940   25.8850 C   0  0  0  0  0  1  0  0  0  0  0  0
  -29.8280  -20.4340   19.5440 C   0  0  0  0  0  2  0  0  0  0  0  0
  -31.0010  -15.8550   19.8260 C   0  0  0  0  0  0  0  0  0  0  0  0
  -30.9530  -13.3790   18.9260 C   0  0  0  0  0  2  0  0  0  0  0  0
  -29.9810  -13.0770   17.7570 C   0  0  0  0  0  2  0  0  0  0  0  0
  -28.5630  -12.7900   18.2780 C   0  0  0  0  0  2  0  0  0  0  0  0
  -28.1500  -13.7790   19.3940 C   0  0  0  0  0  3  0  0  0  0  0  0
  -29.2490  -13.9930   20.4550 C   0  0  0  0  0  2  0  0  0  0  0  0
  -30.4130  -14.5440   19.7350 N   0  0  0  0  0  0  0  0  0  0  0  0
  -32.2250  -15.7910   19.6180 O   0  0  0  0  0  0  0  0  0  0  0  0
  -29.3080  -17.7490   20.6700 C   0  0  0  0  0  2  0  0  0  0  0  0
  -30.3420  -18.8020   20.2220 C   0  0  0  0  0  3  0  0  0  0  0  0
  -30.2730  -17.1920   19.7800 N   0  0  0  0  0  0  0  0  0  0  0  0
  -25.8400  -14.3490   20.2970 C   0  0  0  0  0  0  0  0  0  0  0  0
  -24.7850  -13.5810   20.7000 C   0  0  0  0  0  0  0  0  0  0  0  0
  -25.2270  -12.2240   20.6140 C   0  0  0  0  0  0  0  0  0  0  0  0
  -26.8520  -13.4640   19.9750 N   0  0  0  0  0  0  0  0  0  0  0  0
  -26.5010  -12.1770   20.2350 N   0  0  0  0  0  0  0  0  0  0  0  0
  -24.4870  -10.9710   20.8090 C   0  0  0  0  0  0  0  0  0  0  0  0
  -24.8710  -10.0280   21.7880 C   0  0  0  0  0  3  0  0  0  0  0  0
  -24.1280   -8.8420   21.9710 C   0  0  0  0  0  3  0  0  0  0  0  0
  -22.9850   -8.5900   21.1770 C   0  0  0  0  0  0  0  0  0  0  0  0
  -22.6180   -9.5210   20.1890 C   0  0  0  0  0  3  0  0  0  0  0  0
  -23.3630  -10.6980   20.0030 C   0  0  0  0  0  3  0  0  0  0  0  0
  -22.2170   -7.4540   21.2680 O   0  0  0  0  0  0  0  0  0  0  0  0
  -22.0110   -6.8190   22.4660 C   0  0  0  0  0  0  0  0  0  0  0  0
  -21.4140   -7.4760   23.5650 C   0  0  0  0  0  3  0  0  0  0  0  0
  -21.1580   -6.7660   24.7550 C   0  0  0  0  0  3  0  0  0  0  0  0
  -21.4860   -5.3990   24.8450 C   0  0  0  0  0  0  0  0  0  0  0  0
  -22.0740   -4.7430   23.7500 C   0  0  0  0  0  3  0  0  0  0  0  0
  -22.3320   -5.4490   22.5630 C   0  0  0  0  0  0  0  0  0  0  0  0
  -22.8800   -4.8060   21.5040 F   0  0  0  0  0  0  0  0  0  0  0  0
  -21.2330   -4.7150   25.9850 F   0  0  0  0  0  0  0  0  0  0  0  0
  -23.4120  -14.0750   21.0470 C   0  0  0  0  0  0  0  0  0  0  0  0
  -22.7230  -13.3880   21.9490 N   0  0  0  0  0  0  0  0  0  0  0  0
  -22.9630  -15.1090   20.5520 O   0  0  0  0  0  0  0  0  0  0  0  0
  -23.1010  -12.5510   22.3690 H   0  0  0  0  0  0  0  0  0  0  0  0
  -21.8030  -13.7010   22.2250 H   0  0  0  0  0  0  0  0  0  0  0  0
  -26.0180  -15.7210   20.1420 N   0  0  0  0  0  0  0  0  0  0  0  0
  -25.2670  -16.3830   20.3020 H   0  0  0  0  0  0  0  0  0  0  0  0
  -26.8510  -16.1470   19.7590 H   0  0  0  0  0  0  0  0  0  0  0  0
  2  1  2  0
  2  5  1  0
  3 49  1  0
  3  2  1  0
  4  6  2  0
  6  1  1  0
  7  3  1  0
  7  4  2  0
  8 10  1  0
  8  4  1  0
  9 20  2  0
 10 15  1  0
 11 19  1  0
 11 21  1  0
 12 18  1  0
 12 14  1  0
 13 19  1  0
 14 13  1  0
 15 14  2  0
 16 17  1  0
 16 10  2  0
 17 12  2  0
 18 11  1  0
 19  9  1  0
 21 23  2  0
 22 21  1  0
 24 22  1  0
 25 34  2  0
 25 30  1  0
 26 22  1  0
 26 30  1  0
 27 26  1  0
 28 29  1  0
 28 27  1  0
 29 25  1  0
 30 31  2  0
 31 32  1  0
 33 32  2  0
 34 33  1  0
 35  9  1  0
 35 36  1  0
 35 45  1  0
 36 39  1  0
 37 41  1  0
 37 36  1  0
 38 37  2  0
 41 40  1  0
 43 41  1  0
 43 44  1  0
 43 42  1  0
 45 48  1  1
 45 46  1  0
 47 45  1  0
 51 56  1  0
 52 53  1  0
 52 51  1  0
 54 53  1  0
 54 64  1  0
 54 55  1  0
 56 50  1  0
 56 55  1  0
 57 50  2  0
 59 49  1  0
 59 58  1  0
 60 50  1  0
 60 59  1  0
 60 58  1  0
 61 62  2  0
 62 81  1  0
 63 62  1  0
 63 66  1  0
 64 65  1  0
 64 61  1  0
 65 63  2  0
 66 67  1  0
 67 68  2  0
 69 72  1  0
 69 68  1  0
 70 69  2  0
 71 70  1  0
 71 66  2  0
 72 73  1  0
 73 78  2  0
 73 74  1  0
 74 75  2  0
 75 76  1  0
 76 80  1  0
 77 76  2  0
 78 77  1  0
 79 78  1  0
 81 82  1  0
 82 85  1  0
 82 84  1  0
 83 81  2  0
 86 61  1  0
 86 87  1  0
 88 86  1  0
M  ISO  4   4 101   8 101  50 100  60 100
M  END
>  <TORSDO>  (69) 
F 17

>  <SCORE>  (69) 
-12.776

>  <name>  (69) 
68

>  <ligand_id>  (69) 
68

>  <original_smiles>  (69) 
[H]c1nc(Oc2c([H])c([H])c3c(c2[H])C([H])([H])N(C(=O)C([H])(N([H])C(=O)C([H])(N([H])C([H])([H])[H])C([H])([H])[H])C(C([H])([H])[H])(C([H])([H])[H])C([H])([H])[H])C([H])(C(=O)N([H])C2([H])c4c([H])c([H])c([H])c([H])c4C([H])([H])C([H])([H])C2([H])[H])C3([H])[H])nc(C([H])([H])C2([H])N(C(=O)N3C([H])([H])C([H])([H])C([H])([H])C([H])(n4nc(-c5c([H])c([H])c(Oc6c([H])c([H])c(F)c([H])c6F)c([H])c5[H])c(C(=O)N([H])[H])c4N([H])[H])C3([H])[H])C2([H])[H])c1C([H])([H])[H]

>  <smiles>  (69) 
[H]c1nc(Oc2c([H])c([H])c3c(c2[H])C([H])([H])N(C(=O)C([H])(N([H])C(=O)C([H])(N([H])C([H])([H])[H])C([H])([H])[H])C(C([H])([H])[H])(C([H])([H])[H])C([H])([H])[H])C([H])(C(=O)N([H])C2([H])c4c([H])c([H])c([H])c([H])c4C([H])([H])C([H])([H])C2([H])[H])C3([H])[H])nc(C([H])([H])C2([H])N(C(=O)N3C([H])([H])C([H])([H])C([H])([H])C([H])(n4nc(-c5c([H])c([H])c(Oc6c([H])c([H])c(F)c([H])c6F)c([H])c5[H])c(C(=O)N([H])[H])c4N([H])[H])C3([H])[H])C2([H])[H])c1C([H])([H])[H]

$$$$
69:0:0
     RDKit          3D

 91100  0  0  1  0  0  0  0  0999 V2000
  -28.8700  -23.0970   21.6070 C   0  0  0  0  0  3  0  0  0  0  0  0
  -29.1800  -21.7350   21.9300 C   0  0  0  0  0  3  0  0  0  0  0  0
  -28.6230  -23.4990   20.2680 C   0  0  0  0  0  0  0  0  0  0  0  0
  -28.7600  -22.4100   19.3290 C   0  0  0  0  0  0  0  0  0  0  0  0
  -29.2610  -20.7200   20.9390 C   0  0  0  0  0  0  0  0  0  0  0  0
  -29.0650  -21.0960   19.6520 N   0  0  0  0  0  0  0  0  0  0  0  0
  -28.8680  -21.4960   16.8990 C   0  0  0  0  0  1  0  0  0  0  0  0
  -28.4450  -22.6300   17.8510 C   0  0  0  0  0  2  0  0  0  0  0  0
  -27.9020  -24.8890   19.8800 C   0  0  0  0  0  2  0  0  0  0  0  0
  -28.2510  -26.3060   20.2860 O   0  0  0  0  0  0  0  0  0  0  0  0
  -24.6160  -31.8920   23.2430 C   0  0  0  0  0  0  0  0  0  0  0  0
  -27.2080  -27.2770   20.1750 C   0  0  0  0  0  0  0  0  0  0  0  0
  -23.4200  -30.5050   21.5950 C   0  0  0  0  0  3  0  0  0  0  0  0
  -24.8730  -28.9770   20.1470 C   0  0  0  0  0  0  0  0  0  0  0  0
  -25.9680  -30.8000   21.4310 C   0  0  0  0  0  2  0  0  0  0  0  0
  -26.0460  -29.4220   20.7710 C   0  0  0  0  0  0  0  0  0  0  0  0
  -27.2140  -28.5860   20.7800 C   0  0  0  0  0  3  0  0  0  0  0  0
  -26.0140  -26.9370   19.4880 C   0  0  0  0  0  3  0  0  0  0  0  0
  -24.8660  -27.7440   19.4890 C   0  0  0  0  0  3  0  0  0  0  0  0
  -23.6400  -29.8580   20.2040 C   0  0  0  0  0  2  0  0  0  0  0  0
  -24.6870  -31.0830   22.1450 N   0  0  0  0  0  0  0  0  0  0  0  0
  -23.5280  -32.1680   23.7710 O   0  0  0  0  0  0  0  0  0  0  0  0
  -22.7530  -29.4780   22.5430 C   0  0  0  0  0  0  0  0  0  0  0  0
  -21.4250  -29.3020   22.4150 N   0  0  0  0  0  0  0  0  0  0  0  0
  -23.4290  -28.8450   23.3580 O   0  0  0  0  0  0  0  0  0  0  0  0
  -20.9380  -29.8700   21.7350 H   0  0  0  0  0  0  0  0  0  0  0  0
  -18.0470  -28.0950   22.9110 C   0  0  0  0  0  0  0  0  0  0  0  0
  -20.6060  -28.3600   23.1810 C   0  0  0  0  0  3  0  0  0  0  0  0
  -20.7090  -26.9300   22.6020 C   0  0  0  0  0  2  0  0  0  0  0  0
  -19.6070  -26.6090   21.5860 C   0  0  0  0  0  2  0  0  0  0  0  0
  -18.2250  -26.7490   22.2300 C   0  0  0  0  0  2  0  0  0  0  0  0
  -19.1640  -28.8580   23.3440 C   0  0  0  0  0  0  0  0  0  0  0  0
  -18.9430  -30.1180   23.9410 C   0  0  0  0  0  3  0  0  0  0  0  0
  -17.6360  -30.6150   24.1120 C   0  0  0  0  0  3  0  0  0  0  0  0
  -16.5340  -29.8510   23.6910 C   0  0  0  0  0  3  0  0  0  0  0  0
  -16.7400  -28.5930   23.0990 C   0  0  0  0  0  3  0  0  0  0  0  0
  -25.8920  -32.5280   23.8690 C   0  0  0  0  0  3  0  0  0  0  0  0
  -26.4020  -31.7610   25.1510 C   0  0  1  0  0  0  0  0  0  0  0  0
  -25.3030  -31.5180   26.2130 C   0  0  0  0  0  1  0  0  0  0  0  0
  -26.9940  -30.3840   24.7680 C   0  0  0  0  0  1  0  0  0  0  0  0
  -27.5450  -32.5610   25.8190 C   0  0  0  0  0  1  0  0  0  0  0  0
  -25.5750  -33.9250   24.1980 N   0  0  0  0  0  0  0  0  0  0  0  0
  -25.9120  -34.9810   23.4450 C   0  0  0  0  0  0  0  0  0  0  0  0
  -26.5880  -34.8800   22.4170 O   0  0  0  0  0  0  0  0  0  0  0  0
  -24.9720  -34.0780   24.9930 H   0  0  0  0  0  0  0  0  0  0  0  0
  -24.1850  -36.7780   23.0820 C   0  0  0  0  0  1  0  0  0  0  0  0
  -25.4210  -36.3680   23.9010 C   0  0  0  0  0  3  0  0  0  0  0  0
  -27.5510  -37.2490   24.7530 C   0  0  0  0  0  1  0  0  0  0  0  0
  -26.4560  -37.4220   23.8010 N   0  0  0  0  0  0  0  0  0  0  0  0
  -26.0480  -38.3420   23.9460 H   0  0  0  0  0  0  0  0  0  0  0  0
  -29.4710  -19.3510   21.3010 O   0  0  0  0  0  0  0  0  0  0  0  0
  -30.7220  -14.8160   20.2720 C   0  0  0  0  0  0  0  0  0  0  0  0
  -30.3800  -12.5580   19.2590 C   0  0  0  0  0  2  0  0  0  0  0  0
  -29.4380  -12.6220   18.0380 C   0  0  0  0  0  2  0  0  0  0  0  0
  -27.9790  -12.4570   18.4910 C   0  0  0  0  0  2  0  0  0  0  0  0
  -27.6240  -13.3550   19.7060 C   0  0  0  0  0  3  0  0  0  0  0  0
  -28.7000  -13.3220   20.8140 C   0  0  0  0  0  2  0  0  0  0  0  0
  -29.9860  -13.6490   20.1890 N   0  0  0  0  0  0  0  0  0  0  0  0
  -31.9010  -14.7870   19.9150 O   0  0  0  0  0  0  0  0  0  0  0  0
  -30.9690  -17.3390   20.7730 C   0  0  0  0  0  2  0  0  0  0  0  0
  -28.9350  -16.8220   20.6090 C   0  0  0  0  0  2  0  0  0  0  0  0
  -29.7140  -18.1810   20.4020 C   0  0  0  0  0  3  0  0  0  0  0  0
  -30.2120  -16.0580   20.6560 N   0  0  0  0  0  0  0  0  0  0  0  0
  -25.2470  -13.9400   20.4560 C   0  0  0  0  0  0  0  0  0  0  0  0
  -24.1860  -13.1660   20.8380 C   0  0  0  0  0  0  0  0  0  0  0  0
  -24.6520  -11.8140   20.8130 C   0  0  0  0  0  0  0  0  0  0  0  0
  -26.2900  -13.0630   20.2170 N   0  0  0  0  0  0  0  0  0  0  0  0
  -25.9410  -11.7790   20.4980 N   0  0  0  0  0  0  0  0  0  0  0  0
  -23.9270  -10.5530   21.0160 C   0  0  0  0  0  0  0  0  0  0  0  0
  -24.3730   -9.5850   21.9430 C   0  0  0  0  0  3  0  0  0  0  0  0
  -23.6470   -8.3890   22.1360 C   0  0  0  0  0  3  0  0  0  0  0  0
  -22.4600   -8.1540   21.4040 C   0  0  0  0  0  0  0  0  0  0  0  0
  -22.0330   -9.1110   20.4650 C   0  0  0  0  0  3  0  0  0  0  0  0
  -22.7600  -10.2970   20.2700 C   0  0  0  0  0  3  0  0  0  0  0  0
  -21.7040   -7.0110   21.5050 O   0  0  0  0  0  0  0  0  0  0  0  0
  -21.6800   -6.2630   22.6540 C   0  0  0  0  0  0  0  0  0  0  0  0
  -21.2930   -6.8150   23.8940 C   0  0  0  0  0  3  0  0  0  0  0  0
  -21.2190   -5.9970   25.0380 C   0  0  0  0  0  3  0  0  0  0  0  0
  -21.5190   -4.6250   24.9430 C   0  0  0  0  0  0  0  0  0  0  0  0
  -21.8990   -4.0700   23.7080 C   0  0  0  0  0  3  0  0  0  0  0  0
  -21.9760   -4.8880   22.5670 C   0  0  0  0  0  0  0  0  0  0  0  0
  -22.3230   -4.3460   21.3740 F   0  0  0  0  0  0  0  0  0  0  0  0
  -21.4400   -3.8350   26.0400 F   0  0  0  0  0  0  0  0  0  0  0  0
  -22.7910  -13.6430   21.1170 C   0  0  0  0  0  0  0  0  0  0  0  0
  -22.0720  -12.9540   21.9950 N   0  0  0  0  0  0  0  0  0  0  0  0
  -22.3480  -14.6620   20.5880 O   0  0  0  0  0  0  0  0  0  0  0  0
  -22.4480  -12.1320   22.4440 H   0  0  0  0  0  0  0  0  0  0  0  0
  -21.1360  -13.2560   22.2260 H   0  0  0  0  0  0  0  0  0  0  0  0
  -25.4060  -15.3100   20.2670 N   0  0  0  0  0  0  0  0  0  0  0  0
  -24.6380  -15.9600   20.3860 H   0  0  0  0  0  0  0  0  0  0  0  0
  -26.2440  -15.7480   19.9090 H   0  0  0  0  0  0  0  0  0  0  0  0
  1  2  2  0
  3  1  1  0
  4  6  1  0
  4  3  2  0
  5 51  1  0
  5  2  1  0
  6  5  2  0
  7  8  1  0
  8  4  1  0
  9  3  1  0
  9 10  1  0
 11 22  2  0
 12 10  1  0
 12 17  1  0
 13 21  1  0
 13 23  1  0
 14 20  1  0
 14 16  1  0
 15 21  1  0
 16 17  2  0
 16 15  1  0
 18 19  1  0
 18 12  2  0
 19 14  2  0
 20 13  1  0
 21 11  1  0
 23 25  2  0
 24 23  1  0
 26 24  1  0
 27 36  2  0
 27 32  1  0
 28 24  1  0
 28 32  1  0
 29 28  1  0
 30 31  1  0
 30 29  1  0
 31 27  1  0
 32 33  2  0
 33 34  1  0
 35 34  2  0
 36 35  1  0
 37 11  1  0
 37 42  1  0
 37 38  1  0
 38 41  1  1
 38 39  1  0
 40 38  1  0
 42 45  1  0
 43 47  1  0
 43 42  1  0
 44 43  2  0
 47 46  1  0
 49 47  1  0
 49 50  1  0
 49 48  1  0
 52 63  1  0
 53 58  1  0
 54 55  1  0
 54 53  1  0
 56 55  1  0
 56 67  1  0
 56 57  1  0
 58 52  1  0
 58 57  1  0
 59 52  2  0
 61 63  1  0
 62 61  1  0
 62 60  1  0
 62 51  1  0
 63 60  1  0
 64 65  2  0
 65 84  1  0
 66 65  1  0
 66 69  1  0
 67 64  1  0
 67 68  1  0
 68 66  2  0
 69 70  1  0
 70 71  2  0
 72 75  1  0
 72 71  1  0
 73 72  2  0
 74 73  1  0
 74 69  2  0
 75 76  1  0
 76 77  1  0
 77 78  2  0
 79 78  1  0
 79 83  1  0
 80 79  2  0
 81 76  2  0
 81 80  1  0
 82 81  1  0
 84 85  1  0
 85 88  1  0
 85 87  1  0
 86 84  2  0
 89 90  1  0
 89 64  1  0
 91 89  1  0
M  ISO  4   9 101  10 101  52 100  63 100
M  END
>  <TORSDO>  (70) 
F 19

>  <SCORE>  (70) 
-14.354

>  <name>  (70) 
69

>  <ligand_id>  (70) 
69

>  <original_smiles>  (70) 
[H]c1c(OC2([H])C([H])([H])N(C(=O)N3C([H])([H])C([H])([H])C([H])([H])C([H])(n4nc(-c5c([H])c([H])c(Oc6c([H])c([H])c(F)c([H])c6F)c([H])c5[H])c(C(=O)N([H])[H])c4N([H])[H])C3([H])[H])C2([H])[H])nc(C([H])([H])C([H])([H])[H])c(C([H])([H])Oc2c([H])c([H])c3c(c2[H])C([H])([H])N(C(=O)C([H])(N([H])C(=O)C([H])(N([H])C([H])([H])[H])C([H])([H])[H])C(C([H])([H])[H])(C([H])([H])[H])C([H])([H])[H])C([H])(C(=O)N([H])C2([H])c4c([H])c([H])c([H])c([H])c4C([H])([H])C([H])([H])C2([H])[H])C3([H])[H])c1[H]

>  <smiles>  (70) 
[H]c1c(OC2([H])C([H])([H])N(C(=O)N3C([H])([H])C([H])([H])C([H])([H])C([H])(n4nc(-c5c([H])c([H])c(Oc6c([H])c([H])c(F)c([H])c6F)c([H])c5[H])c(C(=O)N([H])[H])c4N([H])[H])C3([H])[H])C2([H])[H])nc(C([H])([H])C([H])([H])[H])c(C([H])([H])Oc2c([H])c([H])c3c(c2[H])C([H])([H])N(C(=O)C([H])(N([H])C(=O)C([H])(N([H])C([H])([H])[H])C([H])([H])[H])C(C([H])([H])[H])(C([H])([H])[H])C([H])([H])[H])C([H])(C(=O)N([H])C2([H])c4c([H])c([H])c([H])c([H])c4C([H])([H])C([H])([H])C2([H])[H])C3([H])[H])c1[H]

$$$$
70:0:0
     RDKit          3D

 95105  0  0  1  0  0  0  0  0999 V2000
  -27.8770  -20.3980   20.7110 C   0  0  0  0  0  3  0  0  0  0  0  0
  -27.5210  -21.7650   20.6040 C   0  0  0  0  0  0  0  0  0  0  0  0
  -29.1760  -19.9640   20.3700 C   0  0  0  0  0  0  0  0  0  0  0  0
  -28.4800  -22.7200   20.1470 C   0  0  0  0  0  0  0  0  0  0  0  0
  -26.0980  -22.1490   20.9910 C   0  0  0  0  0  2  0  0  0  0  0  0
  -26.7260  -24.4760   20.6830 C   0  0  0  0  0  2  0  0  0  0  0  0
  -28.0130  -24.2280   19.8480 C   0  0  0  0  0  3  0  0  0  0  0  0
  -30.0670  -20.9150   19.9360 N   0  0  0  0  0  0  0  0  0  0  0  0
  -29.7190  -22.2330   19.7920 N   0  0  0  0  0  0  0  0  0  0  0  0
  -25.6980  -23.4500   20.4460 N   0  0  0  0  0  4  0  0  0  0  0  0
  -24.8410  -23.7240   20.8990 H   0  0  0  0  0  0  0  0  0  0  0  0
  -25.5030  -23.3630   19.4620 H   0  0  0  0  0  0  0  0  0  0  0  0
  -31.0830  -15.0170   19.9730 C   0  0  0  0  0  0  0  0  0  0  0  0
  -30.7920  -12.7490   18.9740 C   0  0  0  0  0  2  0  0  0  0  0  0
  -29.7930  -12.8290   17.7990 C   0  0  0  0  0  2  0  0  0  0  0  0
  -28.3450  -12.6860   18.3040 C   0  0  0  0  0  2  0  0  0  0  0  0
  -28.0490  -13.5940   19.5280 C   0  0  0  0  0  3  0  0  0  0  0  0
  -29.1570  -13.4820   20.5970 C   0  0  0  0  0  2  0  0  0  0  0  0
  -30.4330  -13.8060   19.9460 N   0  0  0  0  0  0  0  0  0  0  0  0
  -32.1900  -15.1450   19.4400 O   0  0  0  0  0  0  0  0  0  0  0  0
  -30.4090  -18.1250   21.8700 C   0  0  0  0  0  2  0  0  0  0  0  0
  -30.5680  -16.5810   21.8160 C   0  0  0  0  0  2  0  0  0  0  0  0
  -30.0900  -17.3830   19.6380 C   0  0  0  0  0  2  0  0  0  0  0  0
  -29.5440  -18.4420   20.6620 C   0  0  0  0  0  3  0  0  0  0  0  0
  -30.3870  -16.1260   20.4220 N   0  0  0  0  0  0  0  0  0  0  0  0
  -25.7320  -14.2340   20.4320 C   0  0  0  0  0  0  0  0  0  0  0  0
  -24.6620  -13.4800   20.8310 C   0  0  0  0  0  0  0  0  0  0  0  0
  -25.0700  -12.1160   20.7030 C   0  0  0  0  0  0  0  0  0  0  0  0
  -26.7240  -13.3330   20.0850 N   0  0  0  0  0  0  0  0  0  0  0  0
  -26.3350  -12.0500   20.3070 N   0  0  0  0  0  0  0  0  0  0  0  0
  -24.3110  -10.8720   20.8770 C   0  0  0  0  0  0  0  0  0  0  0  0
  -24.7210   -9.8780   21.7920 C   0  0  0  0  0  3  0  0  0  0  0  0
  -23.9620   -8.6990   21.9570 C   0  0  0  0  0  3  0  0  0  0  0  0
  -22.7790   -8.5050   21.2040 C   0  0  0  0  0  0  0  0  0  0  0  0
  -22.3870   -9.4880   20.2790 C   0  0  0  0  0  3  0  0  0  0  0  0
  -23.1460  -10.6590   20.1120 C   0  0  0  0  0  3  0  0  0  0  0  0
  -21.9940   -7.3810   21.2780 O   0  0  0  0  0  0  0  0  0  0  0  0
  -21.8580   -6.6720   22.4460 C   0  0  0  0  0  0  0  0  0  0  0  0
  -21.3490   -7.2650   23.6210 C   0  0  0  0  0  3  0  0  0  0  0  0
  -21.1610   -6.4830   24.7800 C   0  0  0  0  0  3  0  0  0  0  0  0
  -21.4720   -5.1110   24.7610 C   0  0  0  0  0  0  0  0  0  0  0  0
  -21.9740   -4.5170   23.5890 C   0  0  0  0  0  3  0  0  0  0  0  0
  -22.1630   -5.2960   22.4330 C   0  0  0  0  0  0  0  0  0  0  0  0
  -22.6270   -4.7160   21.3010 F   0  0  0  0  0  0  0  0  0  0  0  0
  -21.2850   -4.3580   25.8700 F   0  0  0  0  0  0  0  0  0  0  0  0
  -23.3050  -13.9910   21.2190 C   0  0  0  0  0  0  0  0  0  0  0  0
  -22.6180  -13.2860   22.1110 N   0  0  0  0  0  0  0  0  0  0  0  0
  -22.8670  -15.0480   20.7680 O   0  0  0  0  0  0  0  0  0  0  0  0
  -22.9880  -12.4290   22.4960 H   0  0  0  0  0  0  0  0  0  0  0  0
  -21.7100  -13.6080   22.4140 H   0  0  0  0  0  0  0  0  0  0  0  0
  -25.9380  -15.6060   20.3130 N   0  0  0  0  0  0  0  0  0  0  0  0
  -25.2050  -16.2800   20.5020 H   0  0  0  0  0  0  0  0  0  0  0  0
  -26.7850  -16.0280   19.9560 H   0  0  0  0  0  0  0  0  0  0  0  0
  -28.9600  -25.4970   20.1190 C   0  0  0  0  0  2  0  0  0  0  0  0
  -28.7540  -26.8760   19.5610 O   0  0  0  0  0  0  0  0  0  0  0  0
  -24.6370  -31.7010   23.0630 C   0  0  0  0  0  0  0  0  0  0  0  0
  -27.5650  -27.6090   19.6620 C   0  0  0  0  0  0  0  0  0  0  0  0
  -23.5380  -30.3650   21.3000 C   0  0  0  0  0  3  0  0  0  0  0  0
  -25.0960  -29.0500   19.7550 C   0  0  0  0  0  0  0  0  0  0  0  0
  -26.0460  -30.8770   21.1640 C   0  0  0  0  0  2  0  0  0  0  0  0
  -26.2230  -29.5630   20.4110 C   0  0  0  0  0  0  0  0  0  0  0  0
  -27.4590  -28.8520   20.3590 C   0  0  0  0  0  3  0  0  0  0  0  0
  -26.4310  -27.1780   18.9430 C   0  0  0  0  0  3  0  0  0  0  0  0
  -25.2020  -27.8630   19.0120 C   0  0  0  0  0  3  0  0  0  0  0  0
  -23.8000  -29.8270   19.8680 C   0  0  0  0  0  2  0  0  0  0  0  0
  -24.7570  -30.9960   21.8990 N   0  0  0  0  0  0  0  0  0  0  0  0
  -23.5360  -31.8520   23.6130 O   0  0  0  0  0  0  0  0  0  0  0  0
  -22.9520  -29.2240   22.1660 C   0  0  0  0  0  0  0  0  0  0  0  0
  -21.6350  -28.9860   22.0400 N   0  0  0  0  0  0  0  0  0  0  0  0
  -23.6800  -28.5600   22.9080 O   0  0  0  0  0  0  0  0  0  0  0  0
  -21.1030  -29.5790   21.4190 H   0  0  0  0  0  0  0  0  0  0  0  0
  -18.3340  -27.5750   22.4890 C   0  0  0  0  0  0  0  0  0  0  0  0
  -20.8840  -27.9330   22.7260 C   0  0  0  0  0  3  0  0  0  0  0  0
  -21.0380  -26.5760   22.0010 C   0  0  0  0  0  2  0  0  0  0  0  0
  -19.9240  -26.3060   20.9850 C   0  0  0  0  0  2  0  0  0  0  0  0
  -18.5550  -26.3150   21.6720 C   0  0  0  0  0  2  0  0  0  0  0  0
  -19.4270  -28.3450   22.9710 C   0  0  0  0  0  0  0  0  0  0  0  0
  -19.1650  -29.5270   23.6970 C   0  0  0  0  0  3  0  0  0  0  0  0
  -17.8420  -29.9410   23.9450 C   0  0  0  0  0  3  0  0  0  0  0  0
  -16.7650  -29.1680   23.4780 C   0  0  0  0  0  3  0  0  0  0  0  0
  -17.0120  -27.9870   22.7560 C   0  0  0  0  0  3  0  0  0  0  0  0
  -25.8720  -32.3670   23.7450 C   0  0  0  0  0  3  0  0  0  0  0  0
  -25.4940  -33.7420   24.1010 N   0  0  0  0  0  0  0  0  0  0  0  0
  -25.7810  -34.8250   23.3660 C   0  0  0  0  0  0  0  0  0  0  0  0
  -26.4620  -34.7750   22.3380 O   0  0  0  0  0  0  0  0  0  0  0  0
  -24.8870  -33.8510   24.9000 H   0  0  0  0  0  0  0  0  0  0  0  0
  -23.9610  -36.5330   23.0520 C   0  0  0  0  0  1  0  0  0  0  0  0
  -25.2260  -36.1790   23.8490 C   0  0  0  0  0  3  0  0  0  0  0  0
  -27.3110  -37.1640   24.6930 C   0  0  0  0  0  1  0  0  0  0  0  0
  -26.2030  -37.2860   23.7490 N   0  0  0  0  0  0  0  0  0  0  0  0
  -25.7490  -38.1810   23.9050 H   0  0  0  0  0  0  0  0  0  0  0  0
  -26.3770  -31.5830   25.0170 C   0  0  1  0  0  0  0  0  0  0  0  0
  -25.2630  -31.2790   26.0440 C   0  0  0  0  0  1  0  0  0  0  0  0
  -27.0230  -30.2370   24.6110 C   0  0  0  0  0  1  0  0  0  0  0  0
  -27.4790  -32.4010   25.7340 C   0  0  0  0  0  1  0  0  0  0  0  0
  2  1  1  0
  2  5  1  0
  3  1  2  0
  4  2  2  0
  7 54  1  0
  7  4  1  0
  7  6  1  0
  8  3  1  0
  9  8  2  0
  9  4  1  0
 10  6  1  0
 10 11  1  0
 10  5  1  0
 12 10  1  0
 13 25  1  0
 14 19  1  0
 15 16  1  0
 15 14  1  0
 17 16  1  0
 17 29  1  0
 17 18  1  0
 19 13  1  0
 19 18  1  0
 20 13  2  0
 22 21  1  0
 23 25  1  0
 23 24  1  0
 24  3  1  0
 24 21  1  0
 25 22  1  0
 26 27  2  0
 27 46  1  0
 28 27  1  0
 28 31  1  0
 29 30  1  0
 29 26  1  0
 30 28  2  0
 31 32  1  0
 32 33  2  0
 34 37  1  0
 34 33  1  0
 35 34  2  0
 36 35  1  0
 36 31  2  0
 37 38  1  0
 38 39  1  0
 39 40  2  0
 41 40  1  0
 41 45  1  0
 42 41  2  0
 43 38  2  0
 43 42  1  0
 44 43  1  0
 46 47  1  0
 47 50  1  0
 47 49  1  0
 48 46  2  0
 51 26  1  0
 51 52  1  0
 53 51  1  0
 55 57  1  0
 55 54  1  0
 56 67  2  0
 57 62  1  0
 58 66  1  0
 58 68  1  0
 59 65  1  0
 59 61  1  0
 60 66  1  0
 61 60  1  0
 62 61  2  0
 63 64  1  0
 63 57  2  0
 64 59  2  0
 65 58  1  0
 66 56  1  0
 68 70  2  0
 69 68  1  0
 71 69  1  0
 72 81  2  0
 72 77  1  0
 73 69  1  0
 73 77  1  0
 74 73  1  0
 75 76  1  0
 75 74  1  0
 76 72  1  0
 77 78  2  0
 78 79  1  0
 80 79  2  0
 81 80  1  0
 82 56  1  0
 82 83  1  0
 82 92  1  0
 83 86  1  0
 84 88  1  0
 84 83  1  0
 85 84  2  0
 88 87  1  0
 90 88  1  0
 90 91  1  0
 90 89  1  0
 92 95  1  1
 92 93  1  0
 94 92  1  0
M  ISO  4  13 100  25 100  54 101  55 101
M  END
>  <TORSDO>  (71) 
F 17

>  <SCORE>  (71) 
-12.512

>  <name>  (71) 
70

>  <ligand_id>  (71) 
70

>  <original_smiles>  (71) 
[H]c1c([H])c([H])c2c(c1[H])C([H])([H])C([H])([H])C([H])([H])C2([H])N([H])C(=O)C1([H])N(C(=O)C([H])(N([H])C(=O)C([H])(N([H])C([H])([H])[H])C([H])([H])[H])C(C([H])([H])[H])(C([H])([H])[H])C([H])([H])[H])C([H])([H])c2c([H])c(OC([H])([H])C3([H])c4nnc(C5([H])C([H])([H])N(C(=O)N6C([H])([H])C([H])([H])C([H])([H])C([H])(n7nc(-c8c([H])c([H])c(Oc9c([H])c([H])c(F)c([H])c9F)c([H])c8[H])c(C(=O)N([H])[H])c7N([H])[H])C6([H])[H])C([H])([H])C5([H])[H])c([H])c4C([H])([H])[N+]([H])([H])C3([H])[H])c([H])c([H])c2C1([H])[H]

>  <smiles>  (71) 
[H]c1c([H])c([H])c2c(c1[H])C([H])([H])C([H])([H])C([H])([H])C2([H])N([H])C(=O)C1([H])N(C(=O)C([H])(N([H])C(=O)C([H])(N([H])C([H])([H])[H])C([H])([H])[H])C(C([H])([H])[H])(C([H])([H])[H])C([H])([H])[H])C([H])([H])c2c([H])c(OC([H])([H])C3([H])c4nnc(C5([H])C([H])([H])N(C(=O)N6C([H])([H])C([H])([H])C([H])([H])C([H])(n7nc(-c8c([H])c([H])c(Oc9c([H])c([H])c(F)c([H])c9F)c([H])c8[H])c(C(=O)N([H])[H])c7N([H])[H])C6([H])[H])C([H])([H])C5([H])[H])c([H])c4C([H])([H])[N+]([H])([H])C3([H])[H])c([H])c([H])c2C1([H])[H]

$$$$
71:0:0
     RDKit          3D

 93101  0  0  1  0  0  0  0  0999 V2000
  -28.8190  -20.8260   18.6920 C   0  0  0  0  0  0  0  0  0  0  0  0
  -28.9930  -19.5380   18.1170 C   0  0  0  0  0  0  0  0  0  0  0  0
  -29.1560  -20.9760   20.0600 C   0  0  0  0  0  0  0  0  0  0  0  0
  -29.7400  -18.6350   20.0930 C   0  0  0  0  0  0  0  0  0  0  0  0
  -28.6730  -19.2460   16.6590 C   0  0  0  0  0  1  0  0  0  0  0  0
  -29.4370  -18.4740   18.8150 N   0  0  0  0  0  0  0  0  0  0  0  0
  -29.6050  -19.8470   20.7290 N   0  0  0  0  0  0  0  0  0  0  0  0
  -28.9140  -22.2020   20.8030 N   0  0  0  0  0  0  0  0  0  0  0  0
  -28.9580  -22.0220   21.7990 H   0  0  0  0  0  0  0  0  0  0  0  0
  -26.6960  -22.0730   18.0240 C   0  0  0  0  0  1  0  0  0  0  0  0
  -28.2170  -21.9540   17.8510 C   0  0  0  0  0  2  0  0  0  0  0  0
  -30.4060  -17.3570   20.7820 C   0  0  0  0  0  2  0  0  0  0  0  0
  -30.7120  -14.7800   20.2220 C   0  0  0  0  0  0  0  0  0  0  0  0
  -30.4830  -12.5130   19.1700 C   0  0  0  0  0  2  0  0  0  0  0  0
  -29.5010  -12.5720   17.9800 C   0  0  0  0  0  2  0  0  0  0  0  0
  -28.0480  -12.3890   18.4590 C   0  0  0  0  0  2  0  0  0  0  0  0
  -27.7070  -13.2710   19.6890 C   0  0  0  0  0  3  0  0  0  0  0  0
  -28.8040  -13.1890   20.7740 C   0  0  0  0  0  2  0  0  0  0  0  0
  -30.0730  -13.5610   20.1360 N   0  0  0  0  0  0  0  0  0  0  0  0
  -31.9000  -14.8660   19.9030 O   0  0  0  0  0  0  0  0  0  0  0  0
  -29.9640  -15.9160   20.4930 N   0  0  0  0  0  0  0  0  0  0  0  0
  -28.9740  -15.7680   20.6030 H   0  0  0  0  0  0  0  0  0  0  0  0
  -25.3470  -13.8520   20.5040 C   0  0  0  0  0  0  0  0  0  0  0  0
  -24.2910  -13.0750   20.8950 C   0  0  0  0  0  0  0  0  0  0  0  0
  -24.7510  -11.7240   20.8290 C   0  0  0  0  0  0  0  0  0  0  0  0
  -26.3810  -12.9750   20.2220 N   0  0  0  0  0  0  0  0  0  0  0  0
  -26.0320  -11.6890   20.4820 N   0  0  0  0  0  0  0  0  0  0  0  0
  -24.0270  -10.4600   21.0200 C   0  0  0  0  0  0  0  0  0  0  0  0
  -24.4570   -9.4970   21.9600 C   0  0  0  0  0  3  0  0  0  0  0  0
  -23.7340   -8.2980   22.1380 C   0  0  0  0  0  3  0  0  0  0  0  0
  -22.5660   -8.0540   21.3770 C   0  0  0  0  0  0  0  0  0  0  0  0
  -22.1550   -9.0050   20.4270 C   0  0  0  0  0  3  0  0  0  0  0  0
  -22.8790  -10.1950   20.2470 C   0  0  0  0  0  3  0  0  0  0  0  0
  -21.8150   -6.9070   21.4650 O   0  0  0  0  0  0  0  0  0  0  0  0
  -21.7280   -6.1910   22.6330 C   0  0  0  0  0  0  0  0  0  0  0  0
  -21.2030   -6.7540   23.8160 C   0  0  0  0  0  3  0  0  0  0  0  0
  -21.0670   -5.9620   24.9730 C   0  0  0  0  0  3  0  0  0  0  0  0
  -21.4460   -4.6070   24.9480 C   0  0  0  0  0  0  0  0  0  0  0  0
  -21.9630   -4.0430   23.7690 C   0  0  0  0  0  3  0  0  0  0  0  0
  -22.1000   -4.8320   22.6140 C   0  0  0  0  0  0  0  0  0  0  0  0
  -22.5790   -4.2760   21.4750 F   0  0  0  0  0  0  0  0  0  0  0  0
  -21.3080   -3.8440   26.0570 F   0  0  0  0  0  0  0  0  0  0  0  0
  -22.9030  -13.5500   21.2120 C   0  0  0  0  0  0  0  0  0  0  0  0
  -22.1930  -12.8380   22.0800 N   0  0  0  0  0  0  0  0  0  0  0  0
  -22.4560  -14.5880   20.7230 O   0  0  0  0  0  0  0  0  0  0  0  0
  -22.5670  -11.9990   22.4960 H   0  0  0  0  0  0  0  0  0  0  0  0
  -21.2630  -13.1390   22.3330 H   0  0  0  0  0  0  0  0  0  0  0  0
  -25.5070  -15.2250   20.3400 N   0  0  0  0  0  0  0  0  0  0  0  0
  -24.7370  -15.8730   20.4720 H   0  0  0  0  0  0  0  0  0  0  0  0
  -26.3260  -15.6620   19.9400 H   0  0  0  0  0  0  0  0  0  0  0  0
  -29.2840  -23.6580   20.4980 C   0  0  0  0  0  3  0  0  0  0  0  0
  -28.1250  -24.8000   20.3510 C   0  0  0  0  0  3  0  0  0  0  0  0
  -28.3800  -26.2980   20.4170 O   0  0  0  0  0  0  0  0  0  0  0  0
  -24.5710  -31.8610   23.2210 C   0  0  0  0  0  0  0  0  0  0  0  0
  -27.2850  -27.2030   20.3220 C   0  0  0  0  0  0  0  0  0  0  0  0
  -23.4270  -30.4300   21.5710 C   0  0  0  0  0  3  0  0  0  0  0  0
  -24.9270  -28.8630   20.2090 C   0  0  0  0  0  0  0  0  0  0  0  0
  -25.9750  -30.7420   21.4630 C   0  0  0  0  0  2  0  0  0  0  0  0
  -26.0820  -29.3480   20.8370 C   0  0  0  0  0  0  0  0  0  0  0  0
  -27.2640  -28.5330   20.8790 C   0  0  0  0  0  3  0  0  0  0  0  0
  -26.1010  -26.7940   19.6650 C   0  0  0  0  0  3  0  0  0  0  0  0
  -24.9440  -27.5950   19.6140 C   0  0  0  0  0  3  0  0  0  0  0  0
  -23.6890  -29.7390   20.2080 C   0  0  0  0  0  2  0  0  0  0  0  0
  -24.6760  -31.0310   22.1420 N   0  0  0  0  0  0  0  0  0  0  0  0
  -23.4690  -32.1410   23.7170 O   0  0  0  0  0  0  0  0  0  0  0  0
  -22.7370  -29.4270   22.5270 C   0  0  0  0  0  0  0  0  0  0  0  0
  -21.4120  -29.2510   22.3720 N   0  0  0  0  0  0  0  0  0  0  0  0
  -23.3940  -28.8080   23.3660 O   0  0  0  0  0  0  0  0  0  0  0  0
  -20.9410  -29.8030   21.6690 H   0  0  0  0  0  0  0  0  0  0  0  0
  -18.0100  -28.1170   22.8700 C   0  0  0  0  0  0  0  0  0  0  0  0
  -20.5750  -28.3220   23.1350 C   0  0  0  0  0  3  0  0  0  0  0  0
  -20.6450  -26.8950   22.5440 C   0  0  0  0  0  2  0  0  0  0  0  0
  -19.5340  -26.6070   21.5290 C   0  0  0  0  0  2  0  0  0  0  0  0
  -18.1570  -26.7720   22.1780 C   0  0  0  0  0  2  0  0  0  0  0  0
  -19.1450  -28.8520   23.3050 C   0  0  0  0  0  0  0  0  0  0  0  0
  -18.9530  -30.1110   23.9120 C   0  0  0  0  0  3  0  0  0  0  0  0
  -17.6590  -30.6370   24.0890 C   0  0  0  0  0  3  0  0  0  0  0  0
  -16.5390  -29.9000   23.6690 C   0  0  0  0  0  3  0  0  0  0  0  0
  -16.7160  -28.6420   23.0660 C   0  0  0  0  0  3  0  0  0  0  0  0
  -25.8280  -32.5130   23.8730 C   0  0  0  0  0  3  0  0  0  0  0  0
  -26.3190  -31.7550   25.1680 C   0  0  1  0  0  0  0  0  0  0  0  0
  -25.2000  -31.5000   26.2040 C   0  0  0  0  0  1  0  0  0  0  0  0
  -26.9370  -30.3860   24.7990 C   0  0  0  0  0  1  0  0  0  0  0  0
  -27.4360  -32.5710   25.8590 C   0  0  0  0  0  1  0  0  0  0  0  0
  -25.4920  -33.9090   24.1910 N   0  0  0  0  0  0  0  0  0  0  0  0
  -25.8130  -34.9630   23.4290 C   0  0  0  0  0  0  0  0  0  0  0  0
  -26.4930  -34.8640   22.4050 O   0  0  0  0  0  0  0  0  0  0  0  0
  -24.8860  -34.0580   24.9840 H   0  0  0  0  0  0  0  0  0  0  0  0
  -24.0690  -36.7360   23.0430 C   0  0  0  0  0  1  0  0  0  0  0  0
  -25.3010  -36.3470   23.8760 C   0  0  0  0  0  3  0  0  0  0  0  0
  -27.4030  -37.2690   24.7480 C   0  0  0  0  0  1  0  0  0  0  0  0
  -26.3220  -37.4130   23.7760 N   0  0  0  0  0  0  0  0  0  0  0  0
  -25.9020  -38.3300   23.9030 H   0  0  0  0  0  0  0  0  0  0  0  0
  1  3  1  0
  2  1  2  0
  2  6  1  0
  3  7  2  0
  3  8  1  0
  4  7  1  0
  4 12  1  0
  5  2  1  0
  6  4  2  0
  8  9  1  0
 11 10  1  0
 11  1  1  0
 13 21  1  0
 14 19  1  0
 15 16  1  0
 15 14  1  0
 17 16  1  0
 17 26  1  0
 17 18  1  0
 19 13  1  0
 19 18  1  0
 20 13  2  0
 21 22  1  0
 21 12  1  0
 23 24  2  0
 24 43  1  0
 25 24  1  0
 25 28  1  0
 26 27  1  0
 26 23  1  0
 27 25  2  0
 28 29  1  0
 29 30  2  0
 31 34  1  0
 31 30  1  0
 32 31  2  0
 33 32  1  0
 33 28  2  0
 34 35  1  0
 35 36  1  0
 36 37  2  0
 38 37  1  0
 38 42  1  0
 39 38  2  0
 40 35  2  0
 40 39  1  0
 41 40  1  0
 43 44  1  0
 44 47  1  0
 44 46  1  0
 45 43  2  0
 48 49  1  0
 48 23  1  0
 50 48  1  0
 51  8  1  0
 52 53  1  0
 52 51  2  0
 54 65  2  0
 55 53  1  0
 55 60  1  0
 56 64  1  0
 56 66  1  0
 57 59  1  0
 58 64  1  0
 59 60  2  0
 59 58  1  0
 61 55  2  0
 62 61  1  0
 62 57  2  0
 63 57  1  0
 63 56  1  0
 64 54  1  0
 66 68  2  0
 67 66  1  0
 69 67  1  0
 70 79  2  0
 70 75  1  0
 71 67  1  0
 71 75  1  0
 72 71  1  0
 73 74  1  0
 73 72  1  0
 74 70  1  0
 75 76  2  0
 76 77  1  0
 78 77  2  0
 79 78  1  0
 80 54  1  0
 80 85  1  0
 80 81  1  0
 81 84  1  1
 81 82  1  0
 83 81  1  0
 85 88  1  0
 86 90  1  0
 86 85  1  0
 87 86  2  0
 90 89  1  0
 92 90  1  0
 92 93  1  0
 92 91  1  0
M  ISO  4  13 100  21 100  52 101  53 101
M  END
>  <TORSDO>  (72) 
F 20

>  <SCORE>  (72) 
-14.111

>  <name>  (72) 
71

>  <ligand_id>  (72) 
71

>  <original_smiles>  (72) 
[H]c1c([H])c([H])c2c(c1[H])C([H])([H])C([H])([H])C([H])([H])C2([H])N([H])C(=O)C1([H])N(C(=O)C([H])(N([H])C(=O)C([H])(N([H])C([H])([H])[H])C([H])([H])[H])C(C([H])([H])[H])(C([H])([H])[H])C([H])([H])[H])C([H])([H])c2c([H])c(OC([H])([H])C([H])([H])N([H])c3nc(C([H])([H])N([H])C(=O)N4C([H])([H])C([H])([H])C([H])([H])C([H])(n5nc(-c6c([H])c([H])c(Oc7c([H])c([H])c(F)c([H])c7F)c([H])c6[H])c(C(=O)N([H])[H])c5N([H])[H])C4([H])[H])nc(C([H])([H])[H])c3C([H])([H])C([H])([H])[H])c([H])c([H])c2C1([H])[H]

>  <smiles>  (72) 
[H]c1c([H])c([H])c2c(c1[H])C([H])([H])C([H])([H])C([H])([H])C2([H])N([H])C(=O)C1([H])N(C(=O)C([H])(N([H])C(=O)C([H])(N([H])C([H])([H])[H])C([H])([H])[H])C(C([H])([H])[H])(C([H])([H])[H])C([H])([H])[H])C([H])([H])c2c([H])c(OC([H])([H])C([H])([H])N([H])c3nc(C([H])([H])N([H])C(=O)N4C([H])([H])C([H])([H])C([H])([H])C([H])(n5nc(-c6c([H])c([H])c(Oc7c([H])c([H])c(F)c([H])c7F)c([H])c6[H])c(C(=O)N([H])[H])c5N([H])[H])C4([H])[H])nc(C([H])([H])[H])c3C([H])([H])C([H])([H])[H])c([H])c([H])c2C1([H])[H]

$$$$
72:0:0
     RDKit          3D

 90 99  0  0  1  0  0  0  0  0999 V2000
  -28.4440  -20.3300   20.4160 C   0  0  0  0  0  3  0  0  0  0  0  0
  -30.4480  -20.4950   19.3790 C   0  0  0  0  0  3  0  0  0  0  0  0
  -29.3560  -21.3280   19.8910 C   0  0  0  0  0  0  0  0  0  0  0  0
  -28.6240  -18.8550   20.4220 C   0  0  0  0  0  0  0  0  0  0  0  0
  -29.7840  -18.1200   19.9170 C   0  0  0  0  0  0  0  0  0  0  0  0
  -27.4900  -18.0650   21.0590 C   0  0  0  0  0  1  0  0  0  0  0  0
  -30.6490  -19.0790   19.3930 N   0  0  0  0  0  0  0  0  0  0  0  0
  -30.6610  -15.3210   19.6220 C   0  0  0  0  0  0  0  0  0  0  0  0
  -30.5550  -12.9040   18.6930 C   0  0  0  0  0  2  0  0  0  0  0  0
  -29.4970  -12.7580   17.5690 C   0  0  0  0  0  2  0  0  0  0  0  0
  -28.1010  -12.4880   18.1590 C   0  0  0  0  0  2  0  0  0  0  0  0
  -27.7910  -13.4100   19.3660 C   0  0  0  0  0  3  0  0  0  0  0  0
  -28.9620  -13.4940   20.3710 C   0  0  0  0  0  2  0  0  0  0  0  0
  -30.1240  -14.0040   19.6270 N   0  0  0  0  0  0  0  0  0  0  0  0
  -31.8300  -15.3730   19.2070 O   0  0  0  0  0  0  0  0  0  0  0  0
  -29.8560  -16.5100   19.9520 N   0  0  0  0  0  0  0  0  0  0  0  0
  -29.0010  -16.1560   20.3490 H   0  0  0  0  0  0  0  0  0  0  0  0
  -25.5420  -13.9530   20.4410 C   0  0  0  0  0  0  0  0  0  0  0  0
  -24.5150  -13.1690   20.8880 C   0  0  0  0  0  0  0  0  0  0  0  0
  -24.9420  -11.8170   20.7070 C   0  0  0  0  0  0  0  0  0  0  0  0
  -26.5250  -13.0810   20.0090 N   0  0  0  0  0  0  0  0  0  0  0  0
  -26.1840  -11.7850   20.2340 N   0  0  0  0  0  0  0  0  0  0  0  0
  -24.2120  -10.5570   20.8960 C   0  0  0  0  0  0  0  0  0  0  0  0
  -24.6360   -9.5910   21.8350 C   0  0  0  0  0  3  0  0  0  0  0  0
  -23.9060   -8.3970   22.0130 C   0  0  0  0  0  3  0  0  0  0  0  0
  -22.7360   -8.1600   21.2520 C   0  0  0  0  0  0  0  0  0  0  0  0
  -22.3310   -9.1130   20.3030 C   0  0  0  0  0  3  0  0  0  0  0  0
  -23.0620  -10.2990   20.1220 C   0  0  0  0  0  3  0  0  0  0  0  0
  -21.9760   -7.0180   21.3410 O   0  0  0  0  0  0  0  0  0  0  0  0
  -21.7780   -6.3750   22.5370 C   0  0  0  0  0  0  0  0  0  0  0  0
  -21.1530   -7.0120   23.6310 C   0  0  0  0  0  3  0  0  0  0  0  0
  -20.9070   -6.2930   24.8190 C   0  0  0  0  0  3  0  0  0  0  0  0
  -21.2760   -4.9380   24.9110 C   0  0  0  0  0  0  0  0  0  0  0  0
  -21.8930   -4.3000   23.8210 C   0  0  0  0  0  3  0  0  0  0  0  0
  -22.1400   -5.0170   22.6360 C   0  0  0  0  0  0  0  0  0  0  0  0
  -22.7160   -4.3910   21.5810 F   0  0  0  0  0  0  0  0  0  0  0  0
  -21.0330   -4.2440   26.0480 F   0  0  0  0  0  0  0  0  0  0  0  0
  -23.1740  -13.6490   21.3560 C   0  0  0  0  0  0  0  0  0  0  0  0
  -22.5420  -12.9160   22.2670 N   0  0  0  0  0  0  0  0  0  0  0  0
  -22.6980  -14.7080   20.9490 O   0  0  0  0  0  0  0  0  0  0  0  0
  -22.9420  -12.0600   22.6190 H   0  0  0  0  0  0  0  0  0  0  0  0
  -21.6450  -13.2190   22.6190 H   0  0  0  0  0  0  0  0  0  0  0  0
  -25.7110  -15.3300   20.3340 N   0  0  0  0  0  0  0  0  0  0  0  0
  -24.9540  -15.9670   20.5540 H   0  0  0  0  0  0  0  0  0  0  0  0
  -26.4530  -15.7670   19.8040 H   0  0  0  0  0  0  0  0  0  0  0  0
  -30.7990  -23.6320   20.1010 C   0  0  0  0  0  2  0  0  0  0  0  0
  -30.1220  -23.4030   21.4110 C   0  0  0  0  0  2  0  0  0  0  0  0
  -29.3830  -23.0700   20.1230 C   0  0  2  0  0  0  0  0  0  0  0  0
  -28.2680  -24.3670   19.7410 C   0  0  0  0  0  2  0  0  0  0  0  0
  -28.4150  -25.9770   20.0150 O   0  0  0  0  0  0  0  0  0  0  0  0
  -24.6820  -31.6840   23.1740 C   0  0  0  0  0  0  0  0  0  0  0  0
  -27.3630  -27.0210   19.9810 C   0  0  0  0  0  0  0  0  0  0  0  0
  -23.5230  -30.3220   21.4810 C   0  0  0  0  0  3  0  0  0  0  0  0
  -25.0120  -28.8150   19.9990 C   0  0  0  0  0  0  0  0  0  0  0  0
  -26.0790  -30.6170   21.3400 C   0  0  0  0  0  2  0  0  0  0  0  0
  -26.1870  -29.2380   20.6330 C   0  0  0  0  0  0  0  0  0  0  0  0
  -27.3590  -28.3620   20.5990 C   0  0  0  0  0  3  0  0  0  0  0  0
  -26.1550  -26.7390   19.3080 C   0  0  0  0  0  3  0  0  0  0  0  0
  -25.0180  -27.5880   19.3150 C   0  0  0  0  0  3  0  0  0  0  0  0
  -23.7690  -29.6990   20.0790 C   0  0  0  0  0  2  0  0  0  0  0  0
  -24.7820  -30.8980   22.0530 N   0  0  0  0  0  0  0  0  0  0  0  0
  -23.5870  -31.9230   23.7060 O   0  0  0  0  0  0  0  0  0  0  0  0
  -22.8580  -29.2700   22.4070 C   0  0  0  0  0  0  0  0  0  0  0  0
  -21.5440  -29.0320   22.2340 N   0  0  0  0  0  0  0  0  0  0  0  0
  -23.5330  -28.6690   23.2480 O   0  0  0  0  0  0  0  0  0  0  0  0
  -21.0530  -29.5710   21.5350 H   0  0  0  0  0  0  0  0  0  0  0  0
  -18.2170  -27.6430   22.6240 C   0  0  0  0  0  0  0  0  0  0  0  0
  -20.7510  -28.0370   22.9640 C   0  0  0  0  0  3  0  0  0  0  0  0
  -20.9440  -26.6240   22.3640 C   0  0  0  0  0  2  0  0  0  0  0  0
  -19.8880  -26.2660   21.3140 C   0  0  0  0  0  2  0  0  0  0  0  0
  -18.4840  -26.3220   21.9220 C   0  0  0  0  0  2  0  0  0  0  0  0
  -19.2820  -28.4560   23.0990 C   0  0  0  0  0  0  0  0  0  0  0  0
  -18.9760  -29.6890   23.7150 C   0  0  0  0  0  3  0  0  0  0  0  0
  -17.6410  -30.1110   23.8600 C   0  0  0  0  0  3  0  0  0  0  0  0
  -16.5920  -29.2960   23.4010 C   0  0  0  0  0  3  0  0  0  0  0  0
  -16.8800  -28.0640   22.7870 C   0  0  0  0  0  3  0  0  0  0  0  0
  -25.9390  -32.3330   23.8290 C   0  0  0  0  0  3  0  0  0  0  0  0
  -25.6100  -33.7330   24.1500 N   0  0  0  0  0  0  0  0  0  0  0  0
  -25.9130  -34.7870   23.3800 C   0  0  0  0  0  0  0  0  0  0  0  0
  -26.5630  -34.6850   22.3370 O   0  0  0  0  0  0  0  0  0  0  0  0
  -25.0290  -33.8840   24.9610 H   0  0  0  0  0  0  0  0  0  0  0  0
  -24.1370  -36.5470   23.0810 C   0  0  0  0  0  1  0  0  0  0  0  0
  -25.4210  -36.1760   23.8390 C   0  0  0  0  0  3  0  0  0  0  0  0
  -27.5630  -37.1300   24.5740 C   0  0  0  0  0  1  0  0  0  0  0  0
  -26.4280  -37.2470   23.6630 N   0  0  0  0  0  0  0  0  0  0  0  0
  -26.0070  -38.1620   23.7960 H   0  0  0  0  0  0  0  0  0  0  0  0
  -26.4180  -31.5770   25.1310 C   0  0  1  0  0  0  0  0  0  0  0  0
  -25.2910  -31.3360   26.1640 C   0  0  0  0  0  1  0  0  0  0  0  0
  -27.0270  -30.2010   24.7770 C   0  0  0  0  0  1  0  0  0  0  0  0
  -27.5370  -32.3880   25.8270 C   0  0  0  0  0  1  0  0  0  0  0  0
  1  4  1  0
  2  7  2  0
  2  3  1  0
  3 48  1  0
  3  1  2  0
  4  6  1  0
  5 16  1  0
  5  4  2  0
  7  5  1  0
  8 14  1  0
  8 16  1  0
  9 14  1  0
 10 11  1  0
 10  9  1  0
 12 11  1  0
 12 21  1  0
 12 13  1  0
 14 13  1  0
 15  8  2  0
 16 17  1  0
 18 19  2  0
 19 38  1  0
 20 19  1  0
 20 23  1  0
 21 22  1  0
 21 18  1  0
 22 20  2  0
 23 24  1  0
 24 25  2  0
 26 29  1  0
 26 25  1  0
 27 26  2  0
 28 27  1  0
 28 23  2  0
 29 30  1  0
 30 35  2  0
 30 31  1  0
 31 32  2  0
 32 33  1  0
 33 37  1  0
 34 33  2  0
 35 34  1  0
 36 35  1  0
 38 39  1  0
 39 42  1  0
 39 41  1  0
 40 38  2  0
 43 18  1  0
 43 44  1  0
 45 43  1  0
 46 48  1  0
 46 47  1  0
 48 47  1  0
 49 50  1  0
 48 49  1  6
 51 62  2  0
 52 50  1  0
 52 57  1  0
 53 61  1  0
 53 63  1  0
 54 60  1  0
 54 56  1  0
 55 61  1  0
 56 55  1  0
 57 56  2  0
 58 59  1  0
 58 52  2  0
 59 54  2  0
 60 53  1  0
 61 51  1  0
 63 65  2  0
 64 63  1  0
 66 64  1  0
 67 76  2  0
 67 72  1  0
 68 64  1  0
 68 72  1  0
 69 68  1  0
 70 71  1  0
 70 69  1  0
 71 67  1  0
 72 73  2  0
 73 74  1  0
 75 74  2  0
 76 75  1  0
 77 51  1  0
 77 78  1  0
 77 87  1  0
 78 81  1  0
 79 83  1  0
 79 78  1  0
 80 79  2  0
 83 82  1  0
 85 86  1  0
 85 83  1  0
 85 84  1  0
 87 90  1  1
 87 88  1  0
 89 87  1  0
M  ISO  4   8 100  16 100  49 101  50 101
M  END
>  <TORSDO>  (73) 
F 18

>  <SCORE>  (73) 
-13.519

>  <name>  (73) 
72

>  <ligand_id>  (73) 
72

>  <original_smiles>  (73) 
[H]c1nc(N([H])C(=O)N2C([H])([H])C([H])([H])C([H])([H])C([H])(n3nc(-c4c([H])c([H])c(Oc5c([H])c([H])c(F)c([H])c5F)c([H])c4[H])c(C(=O)N([H])[H])c3N([H])[H])C2([H])[H])c(C([H])([H])[H])c([H])c1C1(C([H])([H])Oc2c([H])c([H])c3c(c2[H])C([H])([H])N(C(=O)C([H])(N([H])C(=O)C([H])(N([H])C([H])([H])[H])C([H])([H])[H])C(C([H])([H])[H])(C([H])([H])[H])C([H])([H])[H])C([H])(C(=O)N([H])C2([H])c4c([H])c([H])c([H])c([H])c4C([H])([H])C([H])([H])C2([H])[H])C3([H])[H])C([H])([H])C1([H])[H]

>  <smiles>  (73) 
[H]c1nc(N([H])C(=O)N2C([H])([H])C([H])([H])C([H])([H])C([H])(n3nc(-c4c([H])c([H])c(Oc5c([H])c([H])c(F)c([H])c5F)c([H])c4[H])c(C(=O)N([H])[H])c3N([H])[H])C2([H])[H])c(C([H])([H])[H])c([H])c1C1(C([H])([H])Oc2c([H])c([H])c3c(c2[H])C([H])([H])N(C(=O)C([H])(N([H])C(=O)C([H])(N([H])C([H])([H])[H])C([H])([H])[H])C(C([H])([H])[H])(C([H])([H])[H])C([H])([H])[H])C([H])(C(=O)N([H])C2([H])c4c([H])c([H])c([H])c([H])c4C([H])([H])C([H])([H])C2([H])[H])C3([H])[H])C([H])([H])C1([H])[H]

$$$$
73:0:0
     RDKit          3D

 87 95  0  0  1  0  0  0  0  0999 V2000
  -30.6370  -19.2500   19.0410 C   0  0  0  0  0  3  0  0  0  0  0  0
  -29.7640  -18.4170   19.8310 C   0  0  0  0  0  0  0  0  0  0  0  0
  -28.9440  -19.5550   20.2850 C   0  0  0  0  0  0  0  0  0  0  0  0
  -27.8030  -19.4290   21.2370 C   0  0  0  0  0  1  0  0  0  0  0  0
  -30.3780  -20.6110   19.0410 N   0  0  0  0  0  0  0  0  0  0  0  0
  -29.2790  -20.9610   19.8030 N   0  0  0  0  0  0  0  0  0  0  0  0
  -30.4990  -15.4940   19.7650 C   0  0  0  0  0  0  0  0  0  0  0  0
  -30.4600  -13.0150   18.9080 C   0  0  0  0  0  2  0  0  0  0  0  0
  -29.4840  -12.7780   17.7250 C   0  0  0  0  0  2  0  0  0  0  0  0
  -28.0610  -12.4960   18.2360 C   0  0  0  0  0  2  0  0  0  0  0  0
  -27.6640  -13.4630   19.3790 C   0  0  0  0  0  3  0  0  0  0  0  0
  -28.7650  -13.6300   20.4500 C   0  0  0  0  0  2  0  0  0  0  0  0
  -29.9550  -14.1630   19.7620 N   0  0  0  0  0  0  0  0  0  0  0  0
  -31.6930  -15.4910   19.4230 O   0  0  0  0  0  0  0  0  0  0  0  0
  -29.7320  -16.7680   20.0220 N   0  0  0  0  0  0  0  0  0  0  0  0
  -28.8510  -16.4900   20.4260 H   0  0  0  0  0  0  0  0  0  0  0  0
  -25.3390  -14.0300   20.2470 C   0  0  0  0  0  0  0  0  0  0  0  0
  -24.2920  -13.2600   20.6690 C   0  0  0  0  0  0  0  0  0  0  0  0
  -24.7490  -11.9070   20.6180 C   0  0  0  0  0  0  0  0  0  0  0  0
  -26.3630  -13.1490   19.9540 N   0  0  0  0  0  0  0  0  0  0  0  0
  -26.0250  -11.8650   20.2440 N   0  0  0  0  0  0  0  0  0  0  0  0
  -24.0240  -10.6500   20.8450 C   0  0  0  0  0  0  0  0  0  0  0  0
  -24.4750   -9.6930   21.7810 C   0  0  0  0  0  3  0  0  0  0  0  0
  -23.7460   -8.5030   21.9970 C   0  0  0  0  0  3  0  0  0  0  0  0
  -22.5510   -8.2620   21.2770 C   0  0  0  0  0  0  0  0  0  0  0  0
  -22.1180   -9.2070   20.3320 C   0  0  0  0  0  3  0  0  0  0  0  0
  -22.8480  -10.3880   20.1130 C   0  0  0  0  0  3  0  0  0  0  0  0
  -21.7920   -7.1240   21.4030 O   0  0  0  0  0  0  0  0  0  0  0  0
  -21.7610   -6.4030   22.5710 C   0  0  0  0  0  0  0  0  0  0  0  0
  -21.3350   -6.9770   23.7890 C   0  0  0  0  0  3  0  0  0  0  0  0
  -21.2520   -6.1830   24.9500 C   0  0  0  0  0  3  0  0  0  0  0  0
  -21.5840   -4.8170   24.8940 C   0  0  0  0  0  0  0  0  0  0  0  0
  -22.0040   -4.2420   23.6810 C   0  0  0  0  0  3  0  0  0  0  0  0
  -22.0880   -5.0340   22.5220 C   0  0  0  0  0  0  0  0  0  0  0  0
  -22.4720   -4.4700   21.3520 F   0  0  0  0  0  0  0  0  0  0  0  0
  -21.4990   -4.0510   26.0080 F   0  0  0  0  0  0  0  0  0  0  0  0
  -22.9120  -13.7460   21.0020 C   0  0  0  0  0  0  0  0  0  0  0  0
  -22.2240  -13.0650   21.9100 N   0  0  0  0  0  0  0  0  0  0  0  0
  -22.4570  -14.7690   20.4900 O   0  0  0  0  0  0  0  0  0  0  0  0
  -22.6080  -12.2390   22.3440 H   0  0  0  0  0  0  0  0  0  0  0  0
  -21.3000  -13.3740   22.1750 H   0  0  0  0  0  0  0  0  0  0  0  0
  -25.4980  -15.4000   20.0570 N   0  0  0  0  0  0  0  0  0  0  0  0
  -24.7320  -16.0510   20.1900 H   0  0  0  0  0  0  0  0  0  0  0  0
  -26.3100  -15.8270   19.6310 H   0  0  0  0  0  0  0  0  0  0  0  0
  -28.9250  -22.6010   20.2290 C   0  0  0  0  0  3  0  0  0  0  0  0
  -28.3010  -24.1700   19.4650 C   0  0  0  0  0  3  0  0  0  0  0  0
  -28.3400  -25.8250   19.8250 O   0  0  0  0  0  0  0  0  0  0  0  0
  -24.6330  -31.6880   22.9600 C   0  0  0  0  0  0  0  0  0  0  0  0
  -27.3050  -26.9300   19.7640 C   0  0  0  0  0  0  0  0  0  0  0  0
  -23.4720  -30.3150   21.2800 C   0  0  0  0  0  3  0  0  0  0  0  0
  -24.9570  -28.7910   19.7920 C   0  0  0  0  0  0  0  0  0  0  0  0
  -26.0340  -30.5850   21.1350 C   0  0  0  0  0  2  0  0  0  0  0  0
  -26.1380  -29.1940   20.4270 C   0  0  0  0  0  0  0  0  0  0  0  0
  -27.2990  -28.2850   20.3900 C   0  0  0  0  0  3  0  0  0  0  0  0
  -26.0910  -26.7020   19.0760 C   0  0  0  0  0  3  0  0  0  0  0  0
  -24.9630  -27.5710   19.0950 C   0  0  0  0  0  3  0  0  0  0  0  0
  -23.7150  -29.6820   19.8800 C   0  0  0  0  0  2  0  0  0  0  0  0
  -24.7350  -30.8910   21.8450 N   0  0  0  0  0  0  0  0  0  0  0  0
  -23.5390  -31.9310   23.4940 O   0  0  0  0  0  0  0  0  0  0  0  0
  -22.8060  -29.2730   22.2170 C   0  0  0  0  0  0  0  0  0  0  0  0
  -21.4720  -29.1100   22.1260 N   0  0  0  0  0  0  0  0  0  0  0  0
  -23.4970  -28.6120   22.9960 O   0  0  0  0  0  0  0  0  0  0  0  0
  -20.9650  -29.6960   21.4770 H   0  0  0  0  0  0  0  0  0  0  0  0
  -18.1060  -27.8910   22.7230 C   0  0  0  0  0  0  0  0  0  0  0  0
  -20.6780  -28.1280   22.8740 C   0  0  0  0  0  3  0  0  0  0  0  0
  -20.7380  -26.7360   22.2010 C   0  0  0  0  0  2  0  0  0  0  0  0
  -19.5850  -26.4880   21.2250 C   0  0  0  0  0  2  0  0  0  0  0  0
  -18.2380  -26.5920   21.9450 C   0  0  0  0  0  2  0  0  0  0  0  0
  -19.2500  -28.6200   23.1450 C   0  0  0  0  0  0  0  0  0  0  0  0
  -19.0670  -29.8360   23.8390 C   0  0  0  0  0  3  0  0  0  0  0  0
  -17.7750  -30.3240   24.1110 C   0  0  0  0  0  3  0  0  0  0  0  0
  -16.6460  -29.5920   23.7020 C   0  0  0  0  0  3  0  0  0  0  0  0
  -16.8130  -28.3770   23.0150 C   0  0  0  0  0  3  0  0  0  0  0  0
  -25.8870  -32.3480   23.6100 C   0  0  0  0  0  3  0  0  0  0  0  0
  -25.5280  -33.7250   23.9990 N   0  0  0  0  0  0  0  0  0  0  0  0
  -25.8570  -34.8280   23.3150 C   0  0  0  0  0  0  0  0  0  0  0  0
  -26.5530  -34.7970   22.2980 O   0  0  0  0  0  0  0  0  0  0  0  0
  -24.9090  -33.8210   24.7910 H   0  0  0  0  0  0  0  0  0  0  0  0
  -24.1100  -36.6200   23.0150 C   0  0  0  0  0  1  0  0  0  0  0  0
  -25.3330  -36.1830   23.8380 C   0  0  0  0  0  3  0  0  0  0  0  0
  -27.4190  -37.0610   24.7940 C   0  0  0  0  0  1  0  0  0  0  0  0
  -26.3500  -37.2570   23.8190 N   0  0  0  0  0  0  0  0  0  0  0  0
  -25.9230  -38.1620   23.9940 H   0  0  0  0  0  0  0  0  0  0  0  0
  -26.4210  -31.5560   24.8690 C   0  0  1  0  0  0  0  0  0  0  0  0
  -25.3330  -31.2620   25.9290 C   0  0  0  0  0  1  0  0  0  0  0  0
  -27.0390  -30.2030   24.4500 C   0  0  0  0  0  1  0  0  0  0  0  0
  -27.5510  -32.3600   25.5540 C   0  0  0  0  0  1  0  0  0  0  0  0
  1  5  2  0
  1  2  1  0
  2 15  1  0
  2  3  2  0
  3  4  1  0
  5  6  1  0
  6 45  1  0
  6  3  1  0
  7 15  1  0
  8 13  1  0
  9 10  1  0
  9  8  1  0
 11 10  1  0
 11 20  1  0
 11 12  1  0
 13  7  1  0
 13 12  1  0
 14  7  2  0
 15 16  1  0
 17 18  2  0
 18 37  1  0
 19 18  1  0
 19 22  1  0
 20 21  1  0
 20 17  1  0
 21 19  2  0
 22 23  1  0
 23 24  2  0
 25 28  1  0
 25 24  1  0
 26 25  2  0
 27 26  1  0
 27 22  2  0
 28 29  1  0
 29 30  1  0
 30 31  2  0
 32 31  1  0
 32 36  1  0
 33 32  2  0
 34 29  2  0
 34 33  1  0
 35 34  1  0
 37 38  1  0
 38 41  1  0
 38 40  1  0
 39 37  2  0
 42 43  1  0
 42 17  1  0
 44 42  1  0
 46 47  1  0
 46 45  2  0
 48 59  2  0
 49 47  1  0
 49 54  1  0
 50 58  1  0
 50 60  1  0
 51 57  1  0
 51 53  1  0
 52 58  1  0
 53 52  1  0
 54 53  2  0
 55 56  1  0
 55 49  2  0
 56 51  2  0
 57 50  1  0
 58 48  1  0
 60 62  2  0
 61 60  1  0
 63 61  1  0
 64 73  2  0
 64 69  1  0
 65 61  1  0
 65 69  1  0
 66 65  1  0
 67 68  1  0
 67 66  1  0
 68 64  1  0
 69 70  2  0
 70 71  1  0
 72 71  2  0
 73 72  1  0
 74 48  1  0
 74 75  1  0
 74 84  1  0
 75 78  1  0
 76 80  1  0
 76 75  1  0
 77 76  2  0
 80 79  1  0
 82 80  1  0
 82 83  1  0
 82 81  1  0
 84 87  1  1
 84 85  1  0
 86 84  1  0
M  ISO  4   7 100  15 100  46 101  47 101
M  END
>  <TORSDO>  (74) 
F 18

>  <SCORE>  (74) 
-13.961

>  <name>  (74) 
73

>  <ligand_id>  (74) 
73

>  <original_smiles>  (74) 
[H]c1nn(C([H])([H])C([H])([H])Oc2c([H])c([H])c3c(c2[H])C([H])([H])N(C(=O)C([H])(N([H])C(=O)C([H])(N([H])C([H])([H])[H])C([H])([H])[H])C(C([H])([H])[H])(C([H])([H])[H])C([H])([H])[H])C([H])(C(=O)N([H])C2([H])c4c([H])c([H])c([H])c([H])c4C([H])([H])C([H])([H])C2([H])[H])C3([H])[H])c(C([H])([H])[H])c1N([H])C(=O)N1C([H])([H])C([H])([H])C([H])([H])C([H])(n2nc(-c3c([H])c([H])c(Oc4c([H])c([H])c(F)c([H])c4F)c([H])c3[H])c(C(=O)N([H])[H])c2N([H])[H])C1([H])[H]

>  <smiles>  (74) 
[H]c1nn(C([H])([H])C([H])([H])Oc2c([H])c([H])c3c(c2[H])C([H])([H])N(C(=O)C([H])(N([H])C(=O)C([H])(N([H])C([H])([H])[H])C([H])([H])[H])C(C([H])([H])[H])(C([H])([H])[H])C([H])([H])[H])C([H])(C(=O)N([H])C2([H])c4c([H])c([H])c([H])c([H])c4C([H])([H])C([H])([H])C2([H])[H])C3([H])[H])c(C([H])([H])[H])c1N([H])C(=O)N1C([H])([H])C([H])([H])C([H])([H])C([H])(n2nc(-c3c([H])c([H])c(Oc4c([H])c([H])c(F)c([H])c4F)c([H])c3[H])c(C(=O)N([H])[H])c2N([H])[H])C1([H])[H]

$$$$
74:0:0
     RDKit          3D

 91100  0  0  1  0  0  0  0  0999 V2000
  -30.3760  -15.4480   20.3780 C   0  0  0  0  0  0  0  0  0  0  0  0
  -30.3870  -12.9760   19.4950 C   0  0  0  0  0  2  0  0  0  0  0  0
  -29.4870  -12.6640   18.2730 C   0  0  0  0  0  2  0  0  0  0  0  0
  -28.0460  -12.3580   18.7190 C   0  0  0  0  0  2  0  0  0  0  0  0
  -27.5560  -13.3580   19.7930 C   0  0  0  0  0  3  0  0  0  0  0  0
  -28.5870  -13.5910   20.9180 C   0  0  0  0  0  2  0  0  0  0  0  0
  -29.7930  -14.1390   20.2690 N   0  0  0  0  0  0  0  0  0  0  0  0
  -31.6160  -15.3740   20.2940 O   0  0  0  0  0  0  0  0  0  0  0  0
  -28.4360  -20.9180   18.2550 C   0  0  0  0  0  3  0  0  0  0  0  0
  -28.7310  -19.7350   18.9990 C   0  0  0  0  0  3  0  0  0  0  0  0
  -28.4560  -22.2480   18.7890 C   0  0  0  0  0  0  0  0  0  0  0  0
  -29.1550  -19.8540   20.3180 C   0  0  0  0  0  0  0  0  0  0  0  0
  -28.6450  -22.5080   20.1700 C   0  0  0  0  0  0  0  0  0  0  0  0
  -28.5330  -18.3180   18.4120 C   0  0  0  0  0  3  0  0  0  0  0  0
  -29.7150  -18.3140   20.9390 C   0  0  0  0  0  3  0  0  0  0  0  0
  -29.5330  -17.1640   18.8060 C   0  0  0  0  0  3  0  0  0  0  0  0
  -29.0360  -21.2420   20.8740 N   0  0  0  0  0  0  0  0  0  0  0  0
  -29.6710  -16.7880   20.2380 N   0  0  0  0  0  0  0  0  0  0  0  0
  -25.1840  -13.9120   20.5340 C   0  0  0  0  0  0  0  0  0  0  0  0
  -24.1170  -13.1360   20.8930 C   0  0  0  0  0  0  0  0  0  0  0  0
  -24.5850  -11.7860   20.8700 C   0  0  0  0  0  0  0  0  0  0  0  0
  -26.2270  -13.0360   20.3000 N   0  0  0  0  0  0  0  0  0  0  0  0
  -25.8810  -11.7510   20.5720 N   0  0  0  0  0  0  0  0  0  0  0  0
  -23.8550  -10.5250   21.0520 C   0  0  0  0  0  0  0  0  0  0  0  0
  -24.2740   -9.5540   21.9890 C   0  0  0  0  0  3  0  0  0  0  0  0
  -23.5410   -8.3610   22.1620 C   0  0  0  0  0  3  0  0  0  0  0  0
  -22.3730   -8.1270   21.3980 C   0  0  0  0  0  0  0  0  0  0  0  0
  -21.9710   -9.0860   20.4500 C   0  0  0  0  0  3  0  0  0  0  0  0
  -22.7060  -10.2710   20.2750 C   0  0  0  0  0  3  0  0  0  0  0  0
  -21.6110   -6.9870   21.4810 O   0  0  0  0  0  0  0  0  0  0  0  0
  -21.5470   -6.2460   22.6340 C   0  0  0  0  0  0  0  0  0  0  0  0
  -21.1180   -6.8070   23.8570 C   0  0  0  0  0  3  0  0  0  0  0  0
  -21.0000   -5.9930   25.0020 C   0  0  0  0  0  3  0  0  0  0  0  0
  -21.3010   -4.6190   24.9250 C   0  0  0  0  0  0  0  0  0  0  0  0
  -21.7220   -4.0580   23.7060 C   0  0  0  0  0  3  0  0  0  0  0  0
  -21.8410   -4.8700   22.5630 C   0  0  0  0  0  0  0  0  0  0  0  0
  -22.2270   -4.3190   21.3870 F   0  0  0  0  0  0  0  0  0  0  0  0
  -21.1810   -3.8370   26.0210 F   0  0  0  0  0  0  0  0  0  0  0  0
  -22.7180  -13.6150   21.1420 C   0  0  0  0  0  0  0  0  0  0  0  0
  -21.9770  -12.9300   22.0050 N   0  0  0  0  0  0  0  0  0  0  0  0
  -22.2870  -14.6350   20.6040 O   0  0  0  0  0  0  0  0  0  0  0  0
  -22.3370  -12.1070   22.4650 H   0  0  0  0  0  0  0  0  0  0  0  0
  -21.0370  -13.2340   22.2120 H   0  0  0  0  0  0  0  0  0  0  0  0
  -25.3510  -15.2830   20.3570 N   0  0  0  0  0  0  0  0  0  0  0  0
  -24.5870  -15.9420   20.4680 H   0  0  0  0  0  0  0  0  0  0  0  0
  -26.2130  -15.7190   20.0590 H   0  0  0  0  0  0  0  0  0  0  0  0
  -28.1560  -24.1380   20.7680 C   0  0  0  0  0  2  0  0  0  0  0  0
  -28.2690  -25.7540   20.2680 O   0  0  0  0  0  0  0  0  0  0  0  0
  -24.6540  -31.8570   23.1980 C   0  0  0  0  0  0  0  0  0  0  0  0
  -27.2460  -26.8770   20.2840 C   0  0  0  0  0  0  0  0  0  0  0  0
  -23.4770  -30.4300   21.5770 C   0  0  0  0  0  3  0  0  0  0  0  0
  -24.9400  -28.7960   20.1920 C   0  0  0  0  0  0  0  0  0  0  0  0
  -26.0490  -30.6330   21.4410 C   0  0  0  0  0  2  0  0  0  0  0  0
  -26.1290  -29.2030   20.8100 C   0  0  0  0  0  0  0  0  0  0  0  0
  -27.2750  -28.2700   20.8190 C   0  0  0  0  0  3  0  0  0  0  0  0
  -26.0220  -26.6410   19.6160 C   0  0  0  0  0  3  0  0  0  0  0  0
  -24.9160  -27.5360   19.5710 C   0  0  0  0  0  3  0  0  0  0  0  0
  -23.7210  -29.7220   20.2140 C   0  0  0  0  0  2  0  0  0  0  0  0
  -24.7490  -31.0030   22.1250 N   0  0  0  0  0  0  0  0  0  0  0  0
  -23.5590  -32.1480   23.7080 O   0  0  0  0  0  0  0  0  0  0  0  0
  -22.7770  -29.4500   22.5550 C   0  0  0  0  0  0  0  0  0  0  0  0
  -21.4460  -29.2860   22.4340 N   0  0  0  0  0  0  0  0  0  0  0  0
  -23.4410  -28.8350   23.3930 O   0  0  0  0  0  0  0  0  0  0  0  0
  -20.9630  -29.8300   21.7330 H   0  0  0  0  0  0  0  0  0  0  0  0
  -18.0640  -28.0690   22.9640 C   0  0  0  0  0  0  0  0  0  0  0  0
  -20.6250  -28.3530   23.2150 C   0  0  0  0  0  3  0  0  0  0  0  0
  -20.7320  -26.9140   22.6540 C   0  0  0  0  0  2  0  0  0  0  0  0
  -19.6270  -26.5760   21.6470 C   0  0  0  0  0  2  0  0  0  0  0  0
  -18.2470  -26.7170   22.2950 C   0  0  0  0  0  2  0  0  0  0  0  0
  -19.1800  -28.8440   23.3810 C   0  0  0  0  0  0  0  0  0  0  0  0
  -18.9520  -30.1060   23.9700 C   0  0  0  0  0  3  0  0  0  0  0  0
  -17.6440  -30.5950   24.1440 C   0  0  0  0  0  3  0  0  0  0  0  0
  -16.5440  -29.8200   23.7380 C   0  0  0  0  0  3  0  0  0  0  0  0
  -16.7540  -28.5580   23.1560 C   0  0  0  0  0  3  0  0  0  0  0  0
  -25.9130  -32.5200   23.8300 C   0  0  0  0  0  3  0  0  0  0  0  0
  -25.5780  -33.9170   24.1640 N   0  0  0  0  0  0  0  0  0  0  0  0
  -25.8950  -34.9840   23.4180 C   0  0  0  0  0  0  0  0  0  0  0  0
  -26.5610  -34.8970   22.3840 O   0  0  0  0  0  0  0  0  0  0  0  0
  -24.9840  -34.0560   24.9690 H   0  0  0  0  0  0  0  0  0  0  0  0
  -24.1440  -36.7670   23.0950 C   0  0  0  0  0  1  0  0  0  0  0  0
  -25.3960  -36.3660   23.8900 C   0  0  0  0  0  3  0  0  0  0  0  0
  -27.5300  -37.2720   24.7050 C   0  0  0  0  0  1  0  0  0  0  0  0
  -26.4160  -37.4340   23.7750 N   0  0  0  0  0  0  0  0  0  0  0  0
  -25.9990  -38.3480   23.9330 H   0  0  0  0  0  0  0  0  0  0  0  0
  -26.4250  -31.7690   25.1220 C   0  0  1  0  0  0  0  0  0  0  0  0
  -25.3300  -31.5380   26.1900 C   0  0  0  0  0  1  0  0  0  0  0  0
  -27.0200  -30.3910   24.7600 C   0  0  0  0  0  1  0  0  0  0  0  0
  -27.5680  -32.5780   25.7790 C   0  0  0  0  0  1  0  0  0  0  0  0
  -28.2830  -23.2970   17.9290 O   0  0  0  0  0  0  0  0  0  0  0  0
  -29.3070  -25.1160   16.7100 C   0  0  0  0  0  1  0  0  0  0  0  0
  -29.5340  -23.8840   17.5780 C   0  0  0  0  0  2  0  0  0  0  0  0
  2  7  1  0
  3  4  1  0
  3  2  1  0
  5  4  1  0
  5 22  1  0
  5  6  1  0
  7  1  1  0
  7  6  1  0
  8  1  2  0
  9 11  2  0
 10  9  1  0
 10 12  1  0
 11 13  1  0
 12 17  1  0
 12 15  2  0
 13 47  1  0
 13 17  2  0
 14 16  2  0
 14 10  1  0
 16 18  1  0
 18  1  1  0
 18 15  1  0
 19 20  2  0
 20 39  1  0
 21 20  1  0
 21 24  1  0
 22 19  1  0
 22 23  1  0
 23 21  2  0
 24 25  1  0
 25 26  2  0
 27 30  1  0
 27 26  1  0
 28 27  2  0
 29 28  1  0
 29 24  2  0
 30 31  1  0
 31 32  1  0
 32 33  2  0
 34 33  1  0
 34 38  1  0
 35 34  2  0
 36 31  2  0
 36 35  1  0
 37 36  1  0
 39 40  1  0
 40 43  1  0
 40 42  1  0
 41 39  2  0
 44 45  1  0
 44 19  1  0
 46 44  1  0
 48 50  1  0
 48 47  1  0
 49 60  2  0
 50 55  1  0
 51 59  1  0
 51 61  1  0
 52 58  1  0
 52 54  1  0
 53 59  1  0
 54 55  2  0
 54 53  1  0
 56 50  2  0
 57 56  1  0
 57 52  2  0
 58 51  1  0
 59 49  1  0
 61 63  2  0
 62 61  1  0
 64 62  1  0
 65 74  2  0
 65 70  1  0
 66 62  1  0
 66 70  1  0
 67 66  1  0
 68 69  1  0
 68 67  1  0
 69 65  1  0
 70 71  2  0
 71 72  1  0
 73 72  2  0
 74 73  1  0
 75 49  1  0
 75 76  1  0
 75 85  1  0
 76 79  1  0
 77 81  1  0
 77 76  1  0
 78 77  2  0
 81 80  1  0
 83 81  1  0
 83 84  1  0
 83 82  1  0
 85 88  1  1
 85 86  1  0
 87 85  1  0
 89 11  1  0
 90 91  1  0
 91 89  1  0
M  ISO  4   1 100  18 100  47 101  48 101
M  END
>  <TORSDO>  (75) 
F 18

>  <SCORE>  (75) 
-15.799

>  <name>  (75) 
74

>  <ligand_id>  (75) 
74

>  <original_smiles>  (75) 
[H]c1c([H])c([H])c2c(c1[H])C([H])([H])C([H])([H])C([H])([H])C2([H])N([H])C(=O)C1([H])N(C(=O)C([H])(N([H])C(=O)C([H])(N([H])C([H])([H])[H])C([H])([H])[H])C(C([H])([H])[H])(C([H])([H])[H])C([H])([H])[H])C([H])([H])c2c([H])c(OC([H])([H])c3nc4c(c([H])c3OC([H])([H])C([H])([H])[H])C([H])([H])C([H])([H])N(C(=O)N3C([H])([H])C([H])([H])C([H])([H])C([H])(n5nc(-c6c([H])c([H])c(Oc7c([H])c([H])c(F)c([H])c7F)c([H])c6[H])c(C(=O)N([H])[H])c5N([H])[H])C3([H])[H])C4([H])[H])c([H])c([H])c2C1([H])[H]

>  <smiles>  (75) 
[H]c1c([H])c([H])c2c(c1[H])C([H])([H])C([H])([H])C([H])([H])C2([H])N([H])C(=O)C1([H])N(C(=O)C([H])(N([H])C(=O)C([H])(N([H])C([H])([H])[H])C([H])([H])[H])C(C([H])([H])[H])(C([H])([H])[H])C([H])([H])[H])C([H])([H])c2c([H])c(OC([H])([H])c3nc4c(c([H])c3OC([H])([H])C([H])([H])[H])C([H])([H])C([H])([H])N(C(=O)N3C([H])([H])C([H])([H])C([H])([H])C([H])(n5nc(-c6c([H])c([H])c(Oc7c([H])c([H])c(F)c([H])c7F)c([H])c6[H])c(C(=O)N([H])[H])c5N([H])[H])C3([H])[H])C4([H])[H])c([H])c([H])c2C1([H])[H]

$$$$
75:0:0
     RDKit          3D

 89 97  0  0  1  0  0  0  0  0999 V2000
  -31.0070  -15.8930   19.6730 C   0  0  0  0  0  0  0  0  0  0  0  0
  -31.2110  -13.1920   19.4190 C   0  0  0  0  0  2  0  0  0  0  0  0
  -30.4050  -12.4220   18.3280 C   0  0  0  0  0  2  0  0  0  0  0  0
  -28.9950  -12.0850   18.8240 C   0  0  0  0  0  2  0  0  0  0  0  0
  -28.3910  -13.2780   19.5950 C   0  0  0  0  0  3  0  0  0  0  0  0
  -29.3530  -13.9400   20.6170 C   0  0  0  0  0  2  0  0  0  0  0  0
  -30.4980  -14.5030   19.8480 N   0  0  0  0  0  0  0  0  0  0  0  0
  -32.2470  -15.7450   19.5750 O   0  0  0  0  0  0  0  0  0  0  0  0
  -27.4110  -20.2470   19.8070 C   0  0  0  0  0  0  0  0  0  0  0  0
  -30.3990  -20.1670   17.8890 C   0  0  0  0  0  2  0  0  0  0  0  0
  -30.5830  -18.3670   18.0820 C   0  0  0  0  0  2  0  0  0  0  0  0
  -29.7730  -18.6150   20.1140 C   0  0  0  0  0  2  0  0  0  0  0  0
  -27.7720  -20.8550   17.5860 C   0  0  0  0  0  2  0  0  0  0  0  0
  -28.8720  -20.0280   19.4830 C   0  0  0  0  0  3  0  0  0  0  0  0
  -29.1250  -21.2860   18.2800 C   0  0  0  0  0  3  0  0  0  0  0  0
  -26.8170  -20.6890   18.6960 N   0  0  0  0  0  0  0  0  0  0  0  0
  -30.3230  -17.3160   19.3070 N   0  0  0  0  0  0  0  0  0  0  0  0
  -26.8790  -20.0250   20.8940 O   0  0  0  0  0  0  0  0  0  0  0  0
  -25.8310  -20.9060   18.6200 H   0  0  0  0  0  0  0  0  0  0  0  0
  -26.0850  -13.9230   20.4150 C   0  0  0  0  0  0  0  0  0  0  0  0
  -24.9860  -13.2000   20.7820 C   0  0  0  0  0  0  0  0  0  0  0  0
  -25.3750  -11.8260   20.7200 C   0  0  0  0  0  0  0  0  0  0  0  0
  -27.0710  -12.9980   20.1390 N   0  0  0  0  0  0  0  0  0  0  0  0
  -26.6600  -11.7250   20.3880 N   0  0  0  0  0  0  0  0  0  0  0  0
  -24.5730  -10.6070   20.8980 C   0  0  0  0  0  0  0  0  0  0  0  0
  -24.9190   -9.6250   21.8530 C   0  0  0  0  0  3  0  0  0  0  0  0
  -24.1160   -8.4760   22.0220 C   0  0  0  0  0  3  0  0  0  0  0  0
  -22.9520   -8.3000   21.2370 C   0  0  0  0  0  0  0  0  0  0  0  0
  -22.6250   -9.2690   20.2720 C   0  0  0  0  0  3  0  0  0  0  0  0
  -23.4270  -10.4090   20.1000 C   0  0  0  0  0  3  0  0  0  0  0  0
  -22.1270   -7.2030   21.3140 O   0  0  0  0  0  0  0  0  0  0  0  0
  -21.9120   -6.5460   22.4990 C   0  0  0  0  0  0  0  0  0  0  0  0
  -21.3350   -7.1910   23.6150 C   0  0  0  0  0  3  0  0  0  0  0  0
  -21.0670   -6.4620   24.7900 C   0  0  0  0  0  3  0  0  0  0  0  0
  -21.3660   -5.0870   24.8490 C   0  0  0  0  0  0  0  0  0  0  0  0
  -21.9350   -4.4420   23.7380 C   0  0  0  0  0  3  0  0  0  0  0  0
  -22.2040   -5.1690   22.5650 C   0  0  0  0  0  0  0  0  0  0  0  0
  -22.7330   -4.5370   21.4900 F   0  0  0  0  0  0  0  0  0  0  0  0
  -21.1020   -4.3830   25.9760 F   0  0  0  0  0  0  0  0  0  0  0  0
  -23.6240  -13.7560   21.0730 C   0  0  0  0  0  0  0  0  0  0  0  0
  -22.8920  -13.1330   21.9880 N   0  0  0  0  0  0  0  0  0  0  0  0
  -23.2230  -14.7820   20.5240 O   0  0  0  0  0  0  0  0  0  0  0  0
  -23.2310  -12.3040   22.4530 H   0  0  0  0  0  0  0  0  0  0  0  0
  -21.9780  -13.4900   22.2290 H   0  0  0  0  0  0  0  0  0  0  0  0
  -26.3250  -15.2850   20.2590 N   0  0  0  0  0  0  0  0  0  0  0  0
  -25.6000  -15.9820   20.3950 H   0  0  0  0  0  0  0  0  0  0  0  0
  -27.2000  -15.6810   19.9420 H   0  0  0  0  0  0  0  0  0  0  0  0
  -28.6150  -23.2660   17.8750 C   0  0  0  0  0  1  0  0  0  0  0  0
  -28.6710  -25.0960   17.9290 O   0  0  0  0  0  0  0  0  0  0  0  0
  -24.7350  -30.1860   22.5200 C   0  0  0  0  0  0  0  0  0  0  0  0
  -27.6430  -26.2860   18.2140 C   0  0  0  0  0  0  0  0  0  0  0  0
  -23.6720  -29.2670   20.5050 C   0  0  0  0  0  3  0  0  0  0  0  0
  -25.2490  -28.1860   18.7120 C   0  0  0  0  0  0  0  0  0  0  0  0
  -26.2440  -29.5580   20.5190 C   0  0  0  0  0  2  0  0  0  0  0  0
  -26.4140  -28.3800   19.4620 C   0  0  0  0  0  0  0  0  0  0  0  0
  -27.5850  -27.4710   19.1900 C   0  0  0  0  0  3  0  0  0  0  0  0
  -26.4280  -26.3440   17.4760 C   0  0  0  0  0  3  0  0  0  0  0  0
  -25.3010  -27.2050   17.7040 C   0  0  0  0  0  3  0  0  0  0  0  0
  -23.9830  -29.0190   18.9990 C   0  0  0  0  0  2  0  0  0  0  0  0
  -24.9060  -29.6910   21.2430 N   0  0  0  0  0  0  0  0  0  0  0  0
  -23.6140  -30.2570   23.0560 O   0  0  0  0  0  0  0  0  0  0  0  0
  -23.0000  -28.0110   21.1240 C   0  0  0  0  0  0  0  0  0  0  0  0
  -21.6650  -27.8750   21.0020 N   0  0  0  0  0  0  0  0  0  0  0  0
  -23.6940  -27.1630   21.6890 O   0  0  0  0  0  0  0  0  0  0  0  0
  -21.1500  -28.6150   20.5450 H   0  0  0  0  0  0  0  0  0  0  0  0
  -18.3060  -26.5120   21.3150 C   0  0  0  0  0  0  0  0  0  0  0  0
  -20.8830  -26.7120   21.4450 C   0  0  0  0  0  3  0  0  0  0  0  0
  -20.9150  -25.5860   20.3850 C   0  0  0  0  0  2  0  0  0  0  0  0
  -19.7290  -25.6330   19.4160 C   0  0  0  0  0  2  0  0  0  0  0  0
  -18.4070  -25.5100   20.1770 C   0  0  0  0  0  2  0  0  0  0  0  0
  -19.4660  -27.0880   21.8990 C   0  0  0  0  0  0  0  0  0  0  0  0
  -19.3100  -28.0320   22.9370 C   0  0  0  0  0  3  0  0  0  0  0  0
  -18.0290  -28.4030   23.3880 C   0  0  0  0  0  3  0  0  0  0  0  0
  -16.8860  -27.8230   22.8120 C   0  0  0  0  0  3  0  0  0  0  0  0
  -17.0250  -26.8760   21.7820 C   0  0  0  0  0  3  0  0  0  0  0  0
  -25.9360  -30.6970   23.3730 C   0  0  0  0  0  3  0  0  0  0  0  0
  -25.6220  -32.0610   23.8490 N   0  0  0  0  0  0  0  0  0  0  0  0
  -26.2570  -33.1790   23.4750 C   0  0  0  0  0  0  0  0  0  0  0  0
  -27.2210  -33.1660   22.7060 O   0  0  0  0  0  0  0  0  0  0  0  0
  -24.8050  -32.1530   24.4350 H   0  0  0  0  0  0  0  0  0  0  0  0
  -25.0600  -35.3300   22.9250 C   0  0  0  0  0  1  0  0  0  0  0  0
  -25.7500  -34.5260   24.0380 C   0  0  0  0  0  3  0  0  0  0  0  0
  -27.3280  -34.8030   25.9030 C   0  0  0  0  0  1  0  0  0  0  0  0
  -26.8170  -35.3500   24.6510 N   0  0  0  0  0  0  0  0  0  0  0  0
  -26.4840  -36.2940   24.8290 H   0  0  0  0  0  0  0  0  0  0  0  0
  -26.2540  -29.7660   24.6100 C   0  0  1  0  0  0  0  0  0  0  0  0
  -25.0240  -29.4630   25.4990 C   0  0  0  0  0  1  0  0  0  0  0  0
  -26.8380  -28.4120   24.1520 C   0  0  0  0  0  1  0  0  0  0  0  0
  -27.3340  -30.4280   25.5000 C   0  0  0  0  0  1  0  0  0  0  0  0
  1  7  1  0
  2  7  1  0
  3  4  1  0
  3  2  1  0
  5  4  1  0
  5 23  1  0
  5  6  1  0
  7  6  1  0
  8  1  2  0
  9 18  2  0
 10 11  1  0
 10 15  1  0
 11 17  1  0
 13 16  1  0
 14  9  1  0
 14 12  1  0
 15 13  1  0
 15 14  1  0
 16  9  1  0
 17  1  1  0
 17 12  1  0
 19 16  1  0
 20 21  2  0
 21 40  1  0
 22 21  1  0
 22 25  1  0
 23 24  1  0
 23 20  1  0
 24 22  2  0
 25 26  1  0
 26 27  2  0
 28 31  1  0
 28 27  1  0
 29 28  2  0
 30 29  1  0
 30 25  2  0
 31 32  1  0
 32 37  2  0
 32 33  1  0
 33 34  2  0
 34 35  1  0
 35 39  1  0
 36 35  2  0
 37 36  1  0
 38 37  1  0
 40 41  1  0
 41 44  1  0
 41 43  1  0
 42 40  2  0
 45 46  1  0
 45 20  1  0
 47 45  1  0
 48 49  1  0
 49 51  1  0
 50 61  2  0
 51 56  1  0
 52 62  1  0
 52 60  1  0
 53 59  1  0
 53 55  1  0
 54 60  1  0
 55 54  1  0
 56 55  2  0
 57 58  1  0
 57 51  2  0
 58 53  2  0
 59 52  1  0
 60 50  1  0
 62 64  2  0
 63 62  1  0
 65 63  1  0
 66 75  2  0
 66 71  1  0
 67 63  1  0
 67 71  1  0
 68 67  1  0
 69 70  1  0
 69 68  1  0
 70 66  1  0
 71 72  2  0
 72 73  1  0
 74 73  2  0
 75 74  1  0
 76 50  1  0
 76 77  1  0
 76 86  1  0
 77 80  1  0
 78 77  1  0
 78 82  1  0
 79 78  2  0
 82 81  1  0
 82 84  1  0
 84 85  1  0
 84 83  1  0
 86 87  1  1
 86 89  1  0
 88 86  1  0
M  ISO  4   1 100  17 100  48 101  49 101
M  END
>  <TORSDO>  (76) 
F 16

>  <SCORE>  (76) 
-10.809

>  <name>  (76) 
75

>  <ligand_id>  (76) 
75

>  <original_smiles>  (76) 
[H]c1c([H])c([H])c2c(c1[H])C([H])([H])C([H])([H])C([H])([H])C2([H])N([H])C(=O)C1([H])N(C(=O)C([H])(N([H])C(=O)C([H])(N([H])C([H])([H])[H])C([H])([H])[H])C(C([H])([H])[H])(C([H])([H])[H])C([H])([H])[H])C([H])([H])c2c([H])c(OC([H])([H])C34C([H])([H])N([H])C(=O)C3([H])C([H])([H])N(C(=O)N3C([H])([H])C([H])([H])C([H])([H])C([H])(n5nc(-c6c([H])c([H])c(Oc7c([H])c([H])c(F)c([H])c7F)c([H])c6[H])c(C(=O)N([H])[H])c5N([H])[H])C3([H])[H])C([H])([H])C4([H])[H])c([H])c([H])c2C1([H])[H]

>  <smiles>  (76) 
[H]c1c([H])c([H])c2c(c1[H])C([H])([H])C([H])([H])C([H])([H])C2([H])N([H])C(=O)C1([H])N(C(=O)C([H])(N([H])C(=O)C([H])(N([H])C([H])([H])[H])C([H])([H])[H])C(C([H])([H])[H])(C([H])([H])[H])C([H])([H])[H])C([H])([H])c2c([H])c(OC([H])([H])C34C([H])([H])N([H])C(=O)C3([H])C([H])([H])N(C(=O)N3C([H])([H])C([H])([H])C([H])([H])C([H])(n5nc(-c6c([H])c([H])c(Oc7c([H])c([H])c(F)c([H])c7F)c([H])c6[H])c(C(=O)N([H])[H])c5N([H])[H])C3([H])[H])C([H])([H])C4([H])[H])c([H])c([H])c2C1([H])[H]

$$$$
76:0:0
     RDKit          3D

 96106  0  0  1  0  0  0  0  0999 V2000
  -29.3020  -21.4490   21.6440 C   0  0  0  0  0  3  0  0  0  0  0  0
  -29.5100  -20.8050   20.3950 C   0  0  0  0  0  0  0  0  0  0  0  0
  -29.4310  -21.7140   19.2660 C   0  0  0  0  0  0  0  0  0  0  0  0
  -29.0120  -23.0920   19.4850 C   0  0  0  0  0  0  0  0  0  0  0  0
  -28.8330  -23.6290   20.7930 C   0  0  0  0  0  0  0  0  0  0  0  0
  -28.6820  -24.0220   18.3220 C   0  0  0  0  0  2  0  0  0  0  0  0
  -28.4690  -23.2970   17.0050 C   0  0  0  0  0  2  0  0  0  0  0  0
  -29.6580  -22.3880   16.7630 C   0  0  0  0  0  2  0  0  0  0  0  0
  -29.7950  -21.2550   17.8160 C   0  0  2  0  0  0  0  0  0  0  0  0
  -28.8570  -20.1220   17.3190 C   0  0  0  0  0  1  0  0  0  0  0  0
  -31.2950  -20.8670   17.7220 C   0  0  0  0  0  1  0  0  0  0  0  0
  -29.0080  -22.7720   21.8350 N   0  0  0  0  0  0  0  0  0  0  0  0
  -30.9790  -14.8400   20.3810 C   0  0  0  0  0  0  0  0  0  0  0  0
  -30.6220  -12.6070   19.3110 C   0  0  0  0  0  2  0  0  0  0  0  0
  -29.6740  -12.6920   18.0980 C   0  0  0  0  0  2  0  0  0  0  0  0
  -28.2170  -12.5180   18.5560 C   0  0  0  0  0  2  0  0  0  0  0  0
  -27.8700  -13.3900   19.7910 C   0  0  0  0  0  3  0  0  0  0  0  0
  -28.9530  -13.3180   20.8910 C   0  0  0  0  0  2  0  0  0  0  0  0
  -30.2270  -13.6820   20.2610 N   0  0  0  0  0  0  0  0  0  0  0  0
  -32.1740  -14.7560   20.0740 O   0  0  0  0  0  0  0  0  0  0  0  0
  -31.0460  -18.7110   21.1450 C   0  0  0  0  0  2  0  0  0  0  0  0
  -28.7540  -18.1830   20.7440 C   0  0  0  0  0  2  0  0  0  0  0  0
  -31.4860  -17.2350   20.7980 C   0  0  0  0  0  2  0  0  0  0  0  0
  -29.0890  -16.6490   20.4450 C   0  0  0  0  0  2  0  0  0  0  0  0
  -29.8420  -19.2230   20.3330 C   0  0  0  0  0  3  0  0  0  0  0  0
  -30.4720  -16.1250   20.6820 N   0  0  0  0  0  0  0  0  0  0  0  0
  -25.5020  -13.9750   20.5720 C   0  0  0  0  0  0  0  0  0  0  0  0
  -24.4400  -13.1970   20.9410 C   0  0  0  0  0  0  0  0  0  0  0  0
  -24.8970  -11.8440   20.8750 C   0  0  0  0  0  0  0  0  0  0  0  0
  -26.5380  -13.0960   20.3040 N   0  0  0  0  0  0  0  0  0  0  0  0
  -26.1830  -11.8090   20.5500 N   0  0  0  0  0  0  0  0  0  0  0  0
  -24.1670  -10.5810   21.0470 C   0  0  0  0  0  0  0  0  0  0  0  0
  -24.5680   -9.6200   22.0010 C   0  0  0  0  0  3  0  0  0  0  0  0
  -23.8380   -8.4220   22.1610 C   0  0  0  0  0  3  0  0  0  0  0  0
  -22.6920   -8.1790   21.3670 C   0  0  0  0  0  0  0  0  0  0  0  0
  -22.3090   -9.1300   20.4050 C   0  0  0  0  0  3  0  0  0  0  0  0
  -23.0410  -10.3180   20.2430 C   0  0  0  0  0  3  0  0  0  0  0  0
  -21.9360   -7.0340   21.4370 O   0  0  0  0  0  0  0  0  0  0  0  0
  -21.8090   -6.3240   22.6040 C   0  0  0  0  0  0  0  0  0  0  0  0
  -21.2360   -6.8920   23.7630 C   0  0  0  0  0  3  0  0  0  0  0  0
  -21.0630   -6.1070   24.9200 C   0  0  0  0  0  3  0  0  0  0  0  0
  -21.4520   -4.7540   24.9170 C   0  0  0  0  0  0  0  0  0  0  0  0
  -22.0170   -4.1850   23.7620 C   0  0  0  0  0  3  0  0  0  0  0  0
  -22.1920   -4.9680   22.6080 C   0  0  0  0  0  0  0  0  0  0  0  0
  -22.7180   -4.4100   21.4920 F   0  0  0  0  0  0  0  0  0  0  0  0
  -21.2770   -3.9960   26.0250 F   0  0  0  0  0  0  0  0  0  0  0  0
  -23.0480  -13.6730   21.2380 C   0  0  0  0  0  0  0  0  0  0  0  0
  -22.3260  -12.9580   22.0960 N   0  0  0  0  0  0  0  0  0  0  0  0
  -22.6100  -14.7140   20.7490 O   0  0  0  0  0  0  0  0  0  0  0  0
  -22.6900  -12.1140   22.5090 H   0  0  0  0  0  0  0  0  0  0  0  0
  -21.3940  -13.2620   22.3380 H   0  0  0  0  0  0  0  0  0  0  0  0
  -25.6670  -15.3470   20.4140 N   0  0  0  0  0  0  0  0  0  0  0  0
  -24.9060  -16.0030   20.5480 H   0  0  0  0  0  0  0  0  0  0  0  0
  -26.5150  -15.7880   20.0810 H   0  0  0  0  0  0  0  0  0  0  0  0
  -28.1630  -25.0500   21.1450 C   0  0  0  0  0  2  0  0  0  0  0  0
  -28.5550  -26.3940   20.5790 O   0  0  0  0  0  0  0  0  0  0  0  0
  -24.7050  -31.9600   23.2670 C   0  0  0  0  0  0  0  0  0  0  0  0
  -27.4980  -27.3240   20.4590 C   0  0  0  0  0  0  0  0  0  0  0  0
  -23.6000  -30.4980   21.6180 C   0  0  0  0  0  3  0  0  0  0  0  0
  -25.1350  -28.9450   20.2880 C   0  0  0  0  0  0  0  0  0  0  0  0
  -26.1440  -30.8450   21.5400 C   0  0  0  0  0  2  0  0  0  0  0  0
  -26.2740  -29.4500   20.9300 C   0  0  0  0  0  0  0  0  0  0  0  0
  -27.4620  -28.6520   21.0060 C   0  0  0  0  0  3  0  0  0  0  0  0
  -26.3420  -26.9020   19.7670 C   0  0  0  0  0  3  0  0  0  0  0  0
  -25.1760  -27.6800   19.6930 C   0  0  0  0  0  3  0  0  0  0  0  0
  -23.8840  -29.7980   20.2650 C   0  0  0  0  0  2  0  0  0  0  0  0
  -24.8320  -31.1220   22.1970 N   0  0  0  0  0  0  0  0  0  0  0  0
  -23.5950  -32.2310   23.7470 O   0  0  0  0  0  0  0  0  0  0  0  0
  -22.9130  -29.4920   22.5750 C   0  0  0  0  0  0  0  0  0  0  0  0
  -21.5910  -29.3050   22.4170 N   0  0  0  0  0  0  0  0  0  0  0  0
  -23.5720  -28.8840   23.4230 O   0  0  0  0  0  0  0  0  0  0  0  0
  -21.1190  -29.8490   21.7070 H   0  0  0  0  0  0  0  0  0  0  0  0
  -18.1920  -28.1770   22.9280 C   0  0  0  0  0  0  0  0  0  0  0  0
  -20.7570  -28.3790   23.1840 C   0  0  0  0  0  3  0  0  0  0  0  0
  -20.8250  -26.9500   22.5980 C   0  0  0  0  0  2  0  0  0  0  0  0
  -19.7110  -26.6610   21.5870 C   0  0  0  0  0  2  0  0  0  0  0  0
  -18.3370  -26.8300   22.2400 C   0  0  0  0  0  2  0  0  0  0  0  0
  -19.3290  -28.9110   23.3580 C   0  0  0  0  0  0  0  0  0  0  0  0
  -19.1410  -30.1720   23.9640 C   0  0  0  0  0  3  0  0  0  0  0  0
  -17.8480  -30.6990   24.1430 C   0  0  0  0  0  3  0  0  0  0  0  0
  -16.7260  -29.9610   23.7300 C   0  0  0  0  0  3  0  0  0  0  0  0
  -16.8990  -28.7020   23.1290 C   0  0  0  0  0  3  0  0  0  0  0  0
  -25.9480  -32.6370   23.9220 C   0  0  0  0  0  3  0  0  0  0  0  0
  -25.5870  -34.0320   24.2160 N   0  0  0  0  0  0  0  0  0  0  0  0
  -25.9250  -35.0840   23.4580 C   0  0  0  0  0  0  0  0  0  0  0  0
  -26.6420  -34.9830   22.4600 O   0  0  0  0  0  0  0  0  0  0  0  0
  -24.9520  -34.1800   24.9880 H   0  0  0  0  0  0  0  0  0  0  0  0
  -24.1840  -36.8420   22.9930 C   0  0  0  0  0  1  0  0  0  0  0  0
  -25.3850  -36.4670   23.8760 C   0  0  0  0  0  3  0  0  0  0  0  0
  -27.4430  -37.4070   24.8320 C   0  0  0  0  0  1  0  0  0  0  0  0
  -26.4030  -37.5390   23.8160 N   0  0  0  0  0  0  0  0  0  0  0  0
  -25.9690  -38.4510   23.9260 H   0  0  0  0  0  0  0  0  0  0  0  0
  -26.4370  -31.9020   25.2300 C   0  0  1  0  0  0  0  0  0  0  0  0
  -25.3040  -31.6010   26.2380 C   0  0  0  0  0  1  0  0  0  0  0  0
  -27.1190  -30.5580   24.8830 C   0  0  0  0  0  1  0  0  0  0  0  0
  -27.5010  -32.7650   25.9470 C   0  0  0  0  0  1  0  0  0  0  0  0
  1 12  1  0
  2  1  2  0
  3  4  2  0
  3  2  1  0
  4  5  1  0
  5 55  1  0
  5 12  2  0
  6  4  1  0
  7  6  1  0
  8  7  1  0
  8  9  1  0
  9  3  1  0
  9 10  1  6
 11  9  1  0
 13 26  1  0
 14 19  1  0
 15 16  1  0
 15 14  1  0
 17 16  1  0
 17 30  1  0
 17 18  1  0
 19 13  1  0
 19 18  1  0
 20 13  2  0
 23 21  1  0
 24 26  1  0
 24 22  1  0
 25  2  1  0
 25 22  1  0
 25 21  1  0
 26 23  1  0
 27 28  2  0
 28 47  1  0
 29 28  1  0
 29 32  1  0
 30 31  1  0
 30 27  1  0
 31 29  2  0
 32 33  1  0
 33 34  2  0
 35 38  1  0
 35 34  1  0
 36 35  2  0
 37 36  1  0
 37 32  2  0
 38 39  1  0
 39 44  2  0
 39 40  1  0
 40 41  2  0
 42 41  1  0
 42 46  1  0
 43 42  2  0
 44 43  1  0
 45 44  1  0
 47 48  1  0
 48 51  1  0
 48 50  1  0
 49 47  2  0
 52 53  1  0
 52 27  1  0
 54 52  1  0
 56 55  1  0
 57 68  2  0
 58 56  1  0
 58 63  1  0
 59 67  1  0
 59 69  1  0
 60 62  1  0
 61 67  1  0
 62 63  2  0
 62 61  1  0
 64 58  2  0
 65 64  1  0
 65 60  2  0
 66 60  1  0
 66 59  1  0
 67 57  1  0
 69 71  2  0
 70 69  1  0
 72 70  1  0
 73 82  2  0
 73 78  1  0
 74 70  1  0
 74 78  1  0
 75 74  1  0
 76 77  1  0
 76 75  1  0
 77 73  1  0
 78 79  2  0
 79 80  1  0
 81 80  2  0
 82 81  1  0
 83 57  1  0
 83 84  1  0
 83 93  1  0
 84 87  1  0
 85 89  1  0
 85 84  1  0
 86 85  2  0
 89 88  1  0
 91 89  1  0
 91 92  1  0
 91 90  1  0
 93 96  1  1
 93 94  1  0
 95 93  1  0
M  ISO  4  13 100  26 100  55 101  56 101
M  END
>  <TORSDO>  (77) 
F 17

>  <SCORE>  (77) 
-15.282

>  <name>  (77) 
76

>  <ligand_id>  (77) 
76

>  <original_smiles>  (77) 
[H]c1nc(C([H])([H])Oc2c([H])c([H])c3c(c2[H])C([H])([H])N(C(=O)C([H])(N([H])C(=O)C([H])(N([H])C([H])([H])[H])C([H])([H])[H])C(C([H])([H])[H])(C([H])([H])[H])C([H])([H])[H])C([H])(C(=O)N([H])C2([H])c4c([H])c([H])c([H])c([H])c4C([H])([H])C([H])([H])C2([H])[H])C3([H])[H])c2c(c1C1([H])C([H])([H])C([H])([H])N(C(=O)N3C([H])([H])C([H])([H])C([H])([H])C([H])(n4nc(-c5c([H])c([H])c(Oc6c([H])c([H])c(F)c([H])c6F)c([H])c5[H])c(C(=O)N([H])[H])c4N([H])[H])C3([H])[H])C([H])([H])C1([H])[H])C(C([H])([H])[H])(C([H])([H])[H])C([H])([H])C([H])([H])C2([H])[H]

>  <smiles>  (77) 
[H]c1nc(C([H])([H])Oc2c([H])c([H])c3c(c2[H])C([H])([H])N(C(=O)C([H])(N([H])C(=O)C([H])(N([H])C([H])([H])[H])C([H])([H])[H])C(C([H])([H])[H])(C([H])([H])[H])C([H])([H])[H])C([H])(C(=O)N([H])C2([H])c4c([H])c([H])c([H])c([H])c4C([H])([H])C([H])([H])C2([H])[H])C3([H])[H])c2c(c1C1([H])C([H])([H])C([H])([H])N(C(=O)N3C([H])([H])C([H])([H])C([H])([H])C([H])(n4nc(-c5c([H])c([H])c(Oc6c([H])c([H])c(F)c([H])c6F)c([H])c5[H])c(C(=O)N([H])[H])c4N([H])[H])C3([H])[H])C([H])([H])C1([H])[H])C(C([H])([H])[H])(C([H])([H])[H])C([H])([H])C([H])([H])C2([H])[H]

$$$$
77:0:0
     RDKit          3D

 97106  0  0  1  0  0  0  0  0999 V2000
  -29.4240  -23.9820   20.2480 C   0  0  0  0  0  0  0  0  0  0  0  0
  -28.2240  -24.1470   19.5040 C   0  0  0  0  0  0  0  0  0  0  0  0
  -29.2180  -21.6840   20.0730 C   0  0  0  0  0  0  0  0  0  0  0  0
  -29.9070  -22.7340   20.5340 N   0  0  0  0  0  0  0  0  0  0  0  0
  -27.5760  -23.0110   19.0970 N   0  0  0  0  0  0  0  0  0  0  0  0
  -28.0690  -21.7780   19.3800 N   0  0  0  0  0  0  0  0  0  0  0  0
  -29.8010  -20.4410   20.3520 N   0  0  0  0  0  0  0  0  0  0  0  0
  -30.6490  -20.5320   20.8950 H   0  0  0  0  0  0  0  0  0  0  0  0
  -30.8520  -14.9000   19.8760 C   0  0  0  0  0  0  0  0  0  0  0  0
  -30.6140  -12.6040   18.9710 C   0  0  0  0  0  2  0  0  0  0  0  0
  -29.6020  -12.6370   17.8070 C   0  0  0  0  0  2  0  0  0  0  0  0
  -28.1620  -12.4680   18.3310 C   0  0  0  0  0  2  0  0  0  0  0  0
  -27.8500  -13.3910   19.5420 C   0  0  0  0  0  3  0  0  0  0  0  0
  -28.9790  -13.3340   20.5940 C   0  0  0  0  0  2  0  0  0  0  0  0
  -30.2330  -13.6780   19.9110 N   0  0  0  0  0  0  0  0  0  0  0  0
  -32.0000  -15.0030   19.4300 O   0  0  0  0  0  0  0  0  0  0  0  0
  -29.5860  -18.1070   21.2620 C   0  0  0  0  0  2  0  0  0  0  0  0
  -30.2820  -18.4060   18.9230 C   0  0  0  0  0  2  0  0  0  0  0  0
  -29.3180  -16.5850   21.0110 C   0  0  0  0  0  2  0  0  0  0  0  0
  -29.9620  -16.8990   18.6630 C   0  0  0  0  0  2  0  0  0  0  0  0
  -29.4130  -19.0410   20.0310 C   0  0  0  0  0  3  0  0  0  0  0  0
  -30.0360  -16.0120   19.8530 N   0  0  0  0  0  0  0  0  0  0  0  0
  -25.5410  -13.9740   20.5020 C   0  0  0  0  0  0  0  0  0  0  0  0
  -24.4970  -13.1940   20.9160 C   0  0  0  0  0  0  0  0  0  0  0  0
  -24.9310  -11.8410   20.7640 C   0  0  0  0  0  0  0  0  0  0  0  0
  -26.5460  -13.0980   20.1250 N   0  0  0  0  0  0  0  0  0  0  0  0
  -26.1890  -11.8050   20.3410 N   0  0  0  0  0  0  0  0  0  0  0  0
  -24.2020  -10.5780   20.9400 C   0  0  0  0  0  0  0  0  0  0  0  0
  -24.6290   -9.6020   21.8670 C   0  0  0  0  0  3  0  0  0  0  0  0
  -23.9010   -8.4040   22.0320 C   0  0  0  0  0  3  0  0  0  0  0  0
  -22.7310   -8.1750   21.2700 C   0  0  0  0  0  0  0  0  0  0  0  0
  -22.3220   -9.1400   20.3340 C   0  0  0  0  0  3  0  0  0  0  0  0
  -23.0500  -10.3290   20.1680 C   0  0  0  0  0  3  0  0  0  0  0  0
  -21.9740   -7.0300   21.3460 O   0  0  0  0  0  0  0  0  0  0  0  0
  -21.7910   -6.3650   22.5300 C   0  0  0  0  0  0  0  0  0  0  0  0
  -21.1950   -6.9860   23.6490 C   0  0  0  0  0  3  0  0  0  0  0  0
  -20.9620   -6.2440   24.8260 C   0  0  0  0  0  3  0  0  0  0  0  0
  -21.3160   -4.8830   24.8820 C   0  0  0  0  0  0  0  0  0  0  0  0
  -21.9040   -4.2620   23.7670 C   0  0  0  0  0  3  0  0  0  0  0  0
  -22.1380   -4.9990   22.5940 C   0  0  0  0  0  0  0  0  0  0  0  0
  -22.6870   -4.3910   21.5150 F   0  0  0  0  0  0  0  0  0  0  0  0
  -21.0850   -4.1680   26.0080 F   0  0  0  0  0  0  0  0  0  0  0  0
  -23.1370  -13.6710   21.3380 C   0  0  0  0  0  0  0  0  0  0  0  0
  -22.4800  -12.9390   22.2300 N   0  0  0  0  0  0  0  0  0  0  0  0
  -22.6700  -14.7260   20.9110 O   0  0  0  0  0  0  0  0  0  0  0  0
  -22.8730  -12.0850   22.5980 H   0  0  0  0  0  0  0  0  0  0  0  0
  -21.5710  -13.2400   22.5540 H   0  0  0  0  0  0  0  0  0  0  0  0
  -25.7130  -15.3510   20.3910 N   0  0  0  0  0  0  0  0  0  0  0  0
  -24.9700  -16.0070   20.6040 H   0  0  0  0  0  0  0  0  0  0  0  0
  -26.5370  -15.7950   20.0070 H   0  0  0  0  0  0  0  0  0  0  0  0
  -30.2510  -25.1680   20.7280 C   0  0  0  0  0  2  0  0  0  0  0  0
  -32.5640  -26.0750   20.8270 C   0  0  0  0  0  1  0  0  0  0  0  0
  -31.6930  -24.9140   20.5610 N   0  0  0  0  0  4  0  0  0  0  0  0
  -31.9140  -24.1560   21.1870 H   0  0  0  0  0  0  0  0  0  0  0  0
  -31.8480  -24.5740   19.6270 H   0  0  0  0  0  0  0  0  0  0  0  0
  -27.7140  -25.5150   18.9320 C   0  0  0  0  0  2  0  0  0  0  0  0
  -27.7060  -26.7120   19.7820 O   0  0  0  0  0  0  0  0  0  0  0  0
  -24.5110  -32.0310   23.3940 C   0  0  0  0  0  0  0  0  0  0  0  0
  -26.5950  -27.5580   19.8660 C   0  0  0  0  0  0  0  0  0  0  0  0
  -23.0920  -30.8000   21.7920 C   0  0  0  0  0  3  0  0  0  0  0  0
  -24.3220  -29.2640   20.1630 C   0  0  0  0  0  0  0  0  0  0  0  0
  -25.6190  -31.0000   21.4030 C   0  0  0  0  0  2  0  0  0  0  0  0
  -25.5610  -29.6620   20.6790 C   0  0  0  0  0  0  0  0  0  0  0  0
  -26.6960  -28.8170   20.5270 C   0  0  0  0  0  3  0  0  0  0  0  0
  -25.3240  -27.1920   19.3610 C   0  0  0  0  0  3  0  0  0  0  0  0
  -24.2040  -28.0320   19.5010 C   0  0  0  0  0  3  0  0  0  0  0  0
  -23.1470  -30.1950   20.3630 C   0  0  0  0  0  2  0  0  0  0  0  0
  -24.4320  -31.2890   22.2520 N   0  0  0  0  0  0  0  0  0  0  0  0
  -23.4950  -32.3340   24.0360 O   0  0  0  0  0  0  0  0  0  0  0  0
  -22.4560  -29.7640   22.7480 C   0  0  0  0  0  0  0  0  0  0  0  0
  -21.1320  -29.5710   22.6330 N   0  0  0  0  0  0  0  0  0  0  0  0
  -23.1520  -29.1380   23.5520 O   0  0  0  0  0  0  0  0  0  0  0  0
  -20.6290  -30.1280   21.9570 H   0  0  0  0  0  0  0  0  0  0  0  0
  -17.8050  -28.2110   23.0350 C   0  0  0  0  0  0  0  0  0  0  0  0
  -20.3320  -28.6170   23.4020 C   0  0  0  0  0  3  0  0  0  0  0  0
  -20.5350  -27.1740   22.8840 C   0  0  0  0  0  2  0  0  0  0  0  0
  -19.4970  -26.7570   21.8370 C   0  0  0  0  0  2  0  0  0  0  0  0
  -18.0820  -26.8510   22.4170 C   0  0  0  0  0  2  0  0  0  0  0  0
  -18.8620  -29.0470   23.4830 C   0  0  0  0  0  0  0  0  0  0  0  0
  -18.5520  -30.3160   24.0170 C   0  0  0  0  0  3  0  0  0  0  0  0
  -17.2170  -30.7510   24.1100 C   0  0  0  0  0  3  0  0  0  0  0  0
  -16.1730  -29.9130   23.6790 C   0  0  0  0  0  3  0  0  0  0  0  0
  -16.4680  -28.6460   23.1470 C   0  0  0  0  0  3  0  0  0  0  0  0
  -25.8780  -32.5540   23.9350 C   0  0  0  0  0  3  0  0  0  0  0  0
  -26.4310  -31.7070   25.1470 C   0  0  1  0  0  0  0  0  0  0  0  0
  -25.3990  -31.4920   26.2780 C   0  0  0  0  0  1  0  0  0  0  0  0
  -26.9040  -30.3140   24.6710 C   0  0  0  0  0  1  0  0  0  0  0  0
  -27.6680  -32.4090   25.7560 C   0  0  0  0  0  1  0  0  0  0  0  0
  -25.6930  -33.9580   24.3270 N   0  0  0  0  0  0  0  0  0  0  0  0
  -26.0580  -35.0100   23.5830 C   0  0  0  0  0  0  0  0  0  0  0  0
  -26.6560  -34.8960   22.5100 O   0  0  0  0  0  0  0  0  0  0  0  0
  -25.1590  -34.1250   25.1680 H   0  0  0  0  0  0  0  0  0  0  0  0
  -24.4470  -36.9330   23.3920 C   0  0  0  0  0  1  0  0  0  0  0  0
  -25.7010  -36.4130   24.1130 C   0  0  0  0  0  3  0  0  0  0  0  0
  -27.9360  -37.1190   24.8450 C   0  0  0  0  0  1  0  0  0  0  0  0
  -26.8000  -37.3930   23.9690 N   0  0  0  0  0  0  0  0  0  0  0  0
  -26.4690  -38.3350   24.1620 H   0  0  0  0  0  0  0  0  0  0  0  0
  1  4  1  0
  1 51  1  0
  2  1  2  0
  3  7  1  0
  3  4  2  0
  5  6  2  0
  5  2  1  0
  6  3  1  0
  7  8  1  0
  9 15  1  0
 10 15  1  0
 11 12  1  0
 11 10  1  0
 13 12  1  0
 13 26  1  0
 13 14  1  0
 15 14  1  0
 16  9  2  0
 18 21  1  0
 19 17  1  0
 20 18  1  0
 20 22  1  0
 21  7  1  0
 21 17  1  0
 22  9  1  0
 22 19  1  0
 23 24  2  0
 24 43  1  0
 25 24  1  0
 25 28  1  0
 26 27  1  0
 26 23  1  0
 27 25  2  0
 28 29  1  0
 29 30  2  0
 31 34  1  0
 31 30  1  0
 32 31  2  0
 33 32  1  0
 33 28  2  0
 34 35  1  0
 35 40  2  0
 35 36  1  0
 36 37  2  0
 37 38  1  0
 38 42  1  0
 39 38  2  0
 40 39  1  0
 41 40  1  0
 43 44  1  0
 44 47  1  0
 44 46  1  0
 45 43  2  0
 48 23  1  0
 48 49  1  0
 50 48  1  0
 53 51  1  0
 53 52  1  0
 53 54  1  0
 55 53  1  0
 56  2  1  0
 56 57  1  0
 57 59  1  0
 58 69  2  0
 59 64  1  0
 60 68  1  0
 60 70  1  0
 61 67  1  0
 61 63  1  0
 62 68  1  0
 63 62  1  0
 64 63  2  0
 65 66  1  0
 65 59  2  0
 66 61  2  0
 67 60  1  0
 68 58  1  0
 70 72  2  0
 71 70  1  0
 73 71  1  0
 74 83  2  0
 74 79  1  0
 75 71  1  0
 75 79  1  0
 76 75  1  0
 77 78  1  0
 77 76  1  0
 78 74  1  0
 79 80  2  0
 80 81  1  0
 82 81  2  0
 83 82  1  0
 84 58  1  0
 84 89  1  0
 84 85  1  0
 85 88  1  1
 85 86  1  0
 87 85  1  0
 89 92  1  0
 90 94  1  0
 90 89  1  0
 91 90  2  0
 94 93  1  0
 96 94  1  0
 96 97  1  0
 96 95  1  0
M  ISO  4   9 100  22 100  56 101  57 101
M  END
>  <TORSDO>  (78) 
F 19

>  <SCORE>  (78) 
-13.458

>  <name>  (78) 
77

>  <ligand_id>  (78) 
77

>  <original_smiles>  (78) 
[H]c1c([H])c([H])c2c(c1[H])C([H])([H])C([H])([H])C([H])([H])C2([H])N([H])C(=O)C1([H])N(C(=O)C([H])(N([H])C(=O)C([H])(N([H])C([H])([H])[H])C([H])([H])[H])C(C([H])([H])[H])(C([H])([H])[H])C([H])([H])[H])C([H])([H])c2c([H])c(OC([H])([H])c3nnc(N([H])C4([H])C([H])([H])C([H])([H])N(C(=O)N5C([H])([H])C([H])([H])C([H])([H])C([H])(n6nc(-c7c([H])c([H])c(Oc8c([H])c([H])c(F)c([H])c8F)c([H])c7[H])c(C(=O)N([H])[H])c6N([H])[H])C5([H])[H])C([H])([H])C4([H])[H])nc3C([H])([H])[N+]([H])([H])C([H])([H])[H])c([H])c([H])c2C1([H])[H]

>  <smiles>  (78) 
[H]c1c([H])c([H])c2c(c1[H])C([H])([H])C([H])([H])C([H])([H])C2([H])N([H])C(=O)C1([H])N(C(=O)C([H])(N([H])C(=O)C([H])(N([H])C([H])([H])[H])C([H])([H])[H])C(C([H])([H])[H])(C([H])([H])[H])C([H])([H])[H])C([H])([H])c2c([H])c(OC([H])([H])c3nnc(N([H])C4([H])C([H])([H])C([H])([H])N(C(=O)N5C([H])([H])C([H])([H])C([H])([H])C([H])(n6nc(-c7c([H])c([H])c(Oc8c([H])c([H])c(F)c([H])c8F)c([H])c7[H])c(C(=O)N([H])[H])c6N([H])[H])C5([H])[H])C([H])([H])C4([H])[H])nc3C([H])([H])[N+]([H])([H])C([H])([H])[H])c([H])c([H])c2C1([H])[H]

$$$$
78:0:0
     RDKit          3D

 87 95  0  0  1  0  0  0  0  0999 V2000
  -28.6710  -21.0470   19.8780 N   0  0  0  0  0  4  0  0  0  0  0  0
  -27.6710  -20.9150   19.8860 H   0  0  0  0  0  0  0  0  0  0  0  0
  -28.9060  -21.1140   18.9000 H   0  0  0  0  0  0  0  0  0  0  0  0
  -30.4410  -15.3740   19.7820 C   0  0  0  0  0  0  0  0  0  0  0  0
  -30.3740  -12.9270   18.8570 C   0  0  0  0  0  2  0  0  0  0  0  0
  -29.3570  -12.7160   17.7050 C   0  0  0  0  0  2  0  0  0  0  0  0
  -27.9560  -12.4260   18.2670 C   0  0  0  0  0  2  0  0  0  0  0  0
  -27.6050  -13.3640   19.4510 C   0  0  0  0  0  3  0  0  0  0  0  0
  -28.7440  -13.4900   20.4850 C   0  0  0  0  0  2  0  0  0  0  0  0
  -29.8930  -14.0520   19.7580 N   0  0  0  0  0  0  0  0  0  0  0  0
  -31.6030  -15.3780   19.3340 O   0  0  0  0  0  0  0  0  0  0  0  0
  -28.2690  -18.5660   21.0860 C   0  0  0  0  0  2  0  0  0  0  0  0
  -28.8290  -17.0520   21.1440 C   0  0  0  0  0  2  0  0  0  0  0  0
  -29.8200  -18.1980   19.4350 C   0  0  0  0  0  2  0  0  0  0  0  0
  -29.2580  -19.5410   20.3700 C   0  0  0  0  0  3  0  0  0  0  0  0
  -29.7150  -16.6810   20.0000 N   0  0  0  0  0  0  0  0  0  0  0  0
  -25.3280  -13.9050   20.4490 C   0  0  0  0  0  0  0  0  0  0  0  0
  -24.2990  -13.1210   20.8850 C   0  0  0  0  0  0  0  0  0  0  0  0
  -24.7420  -11.7700   20.7430 C   0  0  0  0  0  0  0  0  0  0  0  0
  -26.3310  -13.0340   20.0650 N   0  0  0  0  0  0  0  0  0  0  0  0
  -25.9960  -11.7390   20.3040 N   0  0  0  0  0  0  0  0  0  0  0  0
  -24.0210  -10.5080   20.9430 C   0  0  0  0  0  0  0  0  0  0  0  0
  -24.4890   -9.5200   21.8380 C   0  0  0  0  0  3  0  0  0  0  0  0
  -23.7620   -8.3260   22.0280 C   0  0  0  0  0  3  0  0  0  0  0  0
  -22.5530   -8.1090   21.3240 C   0  0  0  0  0  0  0  0  0  0  0  0
  -22.1030   -9.0880   20.4200 C   0  0  0  0  0  3  0  0  0  0  0  0
  -22.8290  -10.2730   20.2270 C   0  0  0  0  0  3  0  0  0  0  0  0
  -21.7930   -6.9700   21.4280 O   0  0  0  0  0  0  0  0  0  0  0  0
  -21.7360   -6.2480   22.5930 C   0  0  0  0  0  0  0  0  0  0  0  0
  -21.2950   -6.8220   23.8060 C   0  0  0  0  0  3  0  0  0  0  0  0
  -21.1810   -6.0250   24.9610 C   0  0  0  0  0  3  0  0  0  0  0  0
  -21.5010   -4.6540   24.9040 C   0  0  0  0  0  0  0  0  0  0  0  0
  -21.9380   -4.0810   23.6980 C   0  0  0  0  0  3  0  0  0  0  0  0
  -22.0520   -4.8740   22.5440 C   0  0  0  0  0  0  0  0  0  0  0  0
  -22.4490   -4.3130   21.3770 F   0  0  0  0  0  0  0  0  0  0  0  0
  -21.3870   -3.8880   26.0140 F   0  0  0  0  0  0  0  0  0  0  0  0
  -22.9430  -13.6000   21.3070 C   0  0  0  0  0  0  0  0  0  0  0  0
  -22.2960  -12.8820   22.2160 N   0  0  0  0  0  0  0  0  0  0  0  0
  -22.4710  -14.6500   20.8710 O   0  0  0  0  0  0  0  0  0  0  0  0
  -22.6980  -12.0400   22.6020 H   0  0  0  0  0  0  0  0  0  0  0  0
  -21.3920  -13.1910   22.5470 H   0  0  0  0  0  0  0  0  0  0  0  0
  -25.4770  -15.2790   20.3100 N   0  0  0  0  0  0  0  0  0  0  0  0
  -24.7020  -15.9030   20.4950 H   0  0  0  0  0  0  0  0  0  0  0  0
  -26.2400  -15.7310   19.8220 H   0  0  0  0  0  0  0  0  0  0  0  0
  -28.8430  -22.6160   20.4690 C   0  0  0  0  0  3  0  0  0  0  0  0
  -27.9680  -24.1680   20.0560 C   0  0  0  0  0  3  0  0  0  0  0  0
  -28.1700  -25.8030   20.3440 O   0  0  0  0  0  0  0  0  0  0  0  0
  -24.6210  -31.8290   23.1980 C   0  0  0  0  0  0  0  0  0  0  0  0
  -27.1840  -26.9270   20.2240 C   0  0  0  0  0  0  0  0  0  0  0  0
  -23.4430  -30.4390   21.5400 C   0  0  0  0  0  3  0  0  0  0  0  0
  -24.9060  -28.8400   20.1230 C   0  0  0  0  0  0  0  0  0  0  0  0
  -26.0090  -30.6460   21.4260 C   0  0  0  0  0  2  0  0  0  0  0  0
  -26.0850  -29.2330   20.7720 C   0  0  0  0  0  0  0  0  0  0  0  0
  -27.2170  -28.2970   20.7970 C   0  0  0  0  0  3  0  0  0  0  0  0
  -25.9840  -26.6980   19.5170 C   0  0  0  0  0  3  0  0  0  0  0  0
  -24.8860  -27.5970   19.4720 C   0  0  0  0  0  3  0  0  0  0  0  0
  -23.6890  -29.7680   20.1600 C   0  0  0  0  0  2  0  0  0  0  0  0
  -24.7110  -31.0000   22.1090 N   0  0  0  0  0  0  0  0  0  0  0  0
  -23.5280  -32.1150   23.7140 O   0  0  0  0  0  0  0  0  0  0  0  0
  -22.7400  -29.4370   22.4950 C   0  0  0  0  0  0  0  0  0  0  0  0
  -21.4120  -29.2680   22.3560 N   0  0  0  0  0  0  0  0  0  0  0  0
  -23.4000  -28.8130   23.3300 O   0  0  0  0  0  0  0  0  0  0  0  0
  -20.9290  -29.8250   21.6640 H   0  0  0  0  0  0  0  0  0  0  0  0
  -18.0330  -28.0390   22.8250 C   0  0  0  0  0  0  0  0  0  0  0  0
  -20.5870  -28.3280   23.1210 C   0  0  0  0  0  3  0  0  0  0  0  0
  -20.7080  -26.8950   22.5520 C   0  0  0  0  0  2  0  0  0  0  0  0
  -19.6220  -26.5600   21.5240 C   0  0  0  0  0  2  0  0  0  0  0  0
  -18.2320  -26.6920   22.1500 C   0  0  0  0  0  2  0  0  0  0  0  0
  -19.1390  -28.8150   23.2670 C   0  0  0  0  0  0  0  0  0  0  0  0
  -18.8980  -30.0720   23.8630 C   0  0  0  0  0  3  0  0  0  0  0  0
  -17.5850  -30.5560   24.0160 C   0  0  0  0  0  3  0  0  0  0  0  0
  -16.4940  -29.7790   23.5880 C   0  0  0  0  0  3  0  0  0  0  0  0
  -16.7200  -28.5220   22.9990 C   0  0  0  0  0  3  0  0  0  0  0  0
  -25.8870  -32.4720   23.8400 C   0  0  0  0  0  3  0  0  0  0  0  0
  -25.5770  -33.8800   24.1460 N   0  0  0  0  0  0  0  0  0  0  0  0
  -25.9040  -34.9240   23.3740 C   0  0  0  0  0  0  0  0  0  0  0  0
  -26.5600  -34.8050   22.3360 O   0  0  0  0  0  0  0  0  0  0  0  0
  -24.9930  -34.0450   24.9520 H   0  0  0  0  0  0  0  0  0  0  0  0
  -24.1650  -36.7200   23.0450 C   0  0  0  0  0  1  0  0  0  0  0  0
  -25.4300  -36.3220   23.8230 C   0  0  0  0  0  3  0  0  0  0  0  0
  -27.5810  -37.2370   24.5800 C   0  0  0  0  0  1  0  0  0  0  0  0
  -26.4560  -37.3750   23.6600 N   0  0  0  0  0  0  0  0  0  0  0  0
  -26.0490  -38.2960   23.7930 H   0  0  0  0  0  0  0  0  0  0  0  0
  -26.3670  -31.7260   25.1470 C   0  0  1  0  0  0  0  0  0  0  0  0
  -25.2470  -31.5240   26.1940 C   0  0  0  0  0  1  0  0  0  0  0  0
  -26.9460  -30.3330   24.8110 C   0  0  0  0  0  1  0  0  0  0  0  0
  -27.5050  -32.5290   25.8250 C   0  0  0  0  0  1  0  0  0  0  0  0
  1  2  1  0
  1 45  1  0
  3  1  1  0
  4 16  1  0
  5 10  1  0
  6  7  1  0
  6  5  1  0
  8  7  1  0
  8 20  1  0
  8  9  1  0
 10  4  1  0
 10  9  1  0
 11  4  2  0
 12 13  1  0
 14 16  1  0
 14 15  1  0
 15  1  1  0
 15 12  1  0
 16 13  1  0
 17 18  2  0
 18 37  1  0
 19 18  1  0
 19 22  1  0
 20 21  1  0
 20 17  1  0
 21 19  2  0
 22 23  1  0
 23 24  2  0
 25 28  1  0
 25 24  1  0
 26 25  2  0
 27 26  1  0
 27 22  2  0
 28 29  1  0
 29 30  1  0
 30 31  2  0
 32 31  1  0
 32 36  1  0
 33 32  2  0
 34 29  2  0
 34 33  1  0
 35 34  1  0
 37 38  1  0
 38 41  1  0
 38 40  1  0
 39 37  2  0
 42 17  1  0
 42 43  1  0
 44 42  1  0
 46 47  1  0
 46 45  2  0
 48 59  2  0
 49 47  1  0
 49 54  1  0
 50 58  1  0
 50 60  1  0
 51 57  1  0
 51 53  1  0
 52 58  1  0
 53 54  2  0
 53 52  1  0
 55 49  2  0
 56 55  1  0
 56 51  2  0
 57 50  1  0
 58 48  1  0
 60 62  2  0
 61 60  1  0
 63 61  1  0
 64 73  2  0
 64 69  1  0
 65 61  1  0
 65 69  1  0
 66 65  1  0
 67 68  1  0
 67 66  1  0
 68 64  1  0
 69 70  2  0
 70 71  1  0
 72 71  2  0
 73 72  1  0
 74 48  1  0
 74 75  1  0
 74 84  1  0
 75 78  1  0
 76 80  1  0
 76 75  1  0
 77 76  2  0
 80 79  1  0
 82 83  1  0
 82 80  1  0
 82 81  1  0
 84 87  1  1
 84 85  1  0
 86 84  1  0
M  ISO  4   4 100  16 100  46 101  47 101
M  END
>  <TORSDO>  (79) 
F 18

>  <SCORE>  (79) 
-15.235

>  <name>  (79) 
78

>  <ligand_id>  (79) 
78

>  <original_smiles>  (79) 
[H]c1c([H])c([H])c2c(c1[H])C([H])([H])C([H])([H])C([H])([H])C2([H])N([H])C(=O)C1([H])N(C(=O)C([H])(N([H])C(=O)C([H])(N([H])C([H])([H])[H])C([H])([H])[H])C(C([H])([H])[H])(C([H])([H])[H])C([H])([H])[H])C([H])([H])c2c([H])c(OC([H])([H])C([H])([H])[N+]([H])([H])C3([H])C([H])([H])N(C(=O)N4C([H])([H])C([H])([H])C([H])([H])C([H])(n5nc(-c6c([H])c([H])c(Oc7c([H])c([H])c(F)c([H])c7F)c([H])c6[H])c(C(=O)N([H])[H])c5N([H])[H])C4([H])[H])C([H])([H])C3([H])[H])c([H])c([H])c2C1([H])[H]

>  <smiles>  (79) 
[H]c1c([H])c([H])c2c(c1[H])C([H])([H])C([H])([H])C([H])([H])C2([H])N([H])C(=O)C1([H])N(C(=O)C([H])(N([H])C(=O)C([H])(N([H])C([H])([H])[H])C([H])([H])[H])C(C([H])([H])[H])(C([H])([H])[H])C([H])([H])[H])C([H])([H])c2c([H])c(OC([H])([H])C([H])([H])[N+]([H])([H])C3([H])C([H])([H])N(C(=O)N4C([H])([H])C([H])([H])C([H])([H])C([H])(n5nc(-c6c([H])c([H])c(Oc7c([H])c([H])c(F)c([H])c7F)c([H])c6[H])c(C(=O)N([H])[H])c5N([H])[H])C4([H])[H])C([H])([H])C3([H])[H])c([H])c([H])c2C1([H])[H]

$$$$
79:0:0
     RDKit          3D

 94 97  0  0  1  0  0  0  0  0999 V2000
  -25.7550  -26.6500   22.2600 C   0  0  0  0  0  3  0  0  0  0  0  0
  -24.6560  -29.5270   20.6500 C   0  0  0  0  0  2  0  0  0  0  0  0
  -24.7410  -27.8050   22.2350 C   0  0  0  0  0  1  0  0  0  0  0  0
  -26.3650  -26.2910   20.8930 C   0  0  0  0  0  1  0  0  0  0  0  0
  -25.3670  -29.4090   19.2270 C   0  0  1  0  0  0  0  0  0  0  0  0
  -26.1440  -28.1070   18.9970 N   0  0  0  0  0  0  0  0  0  0  0  0
  -27.3480  -24.5770   21.1160 N   0  0  0  0  0  1  0  0  0  0  0  0
  -25.2970  -30.3930   18.3000 F   0  0  0  0  0  0  0  0  0  0  0  0
  -27.6270  -24.5750   22.0910 H   0  0  0  0  0  0  0  0  0  0  0  0
  -23.3820  -25.2370   22.9680 C   0  0  0  0  0  2  0  0  0  0  0  0
  -24.7110  -24.6880   22.9800 C   0  0  0  0  0  2  0  0  0  0  0  0
  -24.2940  -25.8060   21.9150 C   0  0  0  0  0  3  0  0  0  0  0  0
  -24.3670  -24.7620   20.1850 C   0  0  0  0  0 15  0  0  0  0  0  0
  -25.4940  -25.1760   18.6560 O   0  0  0  0  0  0  0  0  0  0  0  0
  -24.5550  -31.9130   22.9520 C   0  0  0  0  0  0  0  0  0  0  0  0
  -26.7130  -26.2000   18.3400 C   0  0  0  0  0  2  0  0  0  0  0  0
  -22.8830  -30.3310   21.6120 C   0  0  0  0  0  2  0  0  0  0  0  0
  -23.9850  -27.8900   19.5200 C   0  0  0  0  0  3  0  0  0  0  0  0
  -26.1760  -30.1560   21.5820 C   0  0  0  0  0  3  0  0  0  0  0  0
  -26.3300  -28.6870   20.4060 C   0  0  2  0  0  0  0  0  0  0  0  0
  -27.5620  -27.5910   19.5070 C   0  0  0  0  0  2  0  0  0  0  0  0
  -25.1280  -26.1530   17.8090 C   0  0  0  0  0  3  0  0  0  0  0  0
  -23.8390  -26.9670   18.3340 C   0  0  0  0  0  3  0  0  0  0  0  0
  -22.5030  -28.9520   20.2210 C   0  0  0  0  0  1  0  0  0  0  0  0
  -24.5490  -30.8010   22.1760 N   0  0  0  0  0  0  0  0  0  0  0  0
  -23.5190  -32.4280   23.4040 O   0  0  0  0  0  0  0  0  0  0  0  0
  -22.1570  -29.7810   22.7860 C   0  0  0  0  0  0  0  0  0  0  0  0
  -20.8530  -29.5890   22.6390 N   0  0  0  0  0  0  0  0  0  0  0  0
  -22.8120  -29.3840   23.7440 O   0  0  0  0  0  0  0  0  0  0  0  0
  -20.3980  -29.9390   21.8070 H   0  0  0  0  0  0  0  0  0  0  0  0
  -17.6470  -28.0570   23.2300 C   0  0  0  0  0  0  0  0  0  0  0  0
  -20.1020  -28.6800   23.4830 C   0  0  0  0  0  3  0  0  0  0  0  0
  -20.3830  -27.2290   23.0510 C   0  0  0  0  0  2  0  0  0  0  0  0
  -19.3380  -26.5350   22.2200 C   0  0  0  0  0  2  0  0  0  0  0  0
  -18.0060  -26.6150   22.9250 C   0  0  0  0  0  2  0  0  0  0  0  0
  -18.6360  -29.0350   23.4890 C   0  0  0  0  0  0  0  0  0  0  0  0
  -18.2560  -30.3620   23.7690 C   0  0  0  0  0  3  0  0  0  0  0  0
  -16.8960  -30.7170   23.7790 C   0  0  0  0  0  3  0  0  0  0  0  0
  -15.9160  -29.7440   23.5200 C   0  0  0  0  0  3  0  0  0  0  0  0
  -16.2900  -28.4180   23.2490 C   0  0  0  0  0  3  0  0  0  0  0  0
  -25.9190  -32.5270   23.3410 C   0  0  0  0  0  3  0  0  0  0  0  0
  -26.6870  -31.6100   24.3770 C   0  0  1  0  0  0  0  0  0  0  0  0
  -25.8140  -31.2530   25.5960 C   0  0  0  0  0  1  0  0  0  0  0  0
  -27.2100  -30.2400   23.9090 C   0  0  0  0  0  1  0  0  0  0  0  0
  -27.9620  -32.3510   24.8250 C   0  0  0  0  0  1  0  0  0  0  0  0
  -25.6860  -33.8620   23.9320 N   0  0  0  0  0  0  0  0  0  0  0  0
  -25.9370  -35.0490   23.3600 C   0  0  0  0  0  0  0  0  0  0  0  0
  -26.4220  -35.1590   22.2320 O   0  0  0  0  0  0  0  0  0  0  0  0
  -25.2340  -33.8680   24.8330 H   0  0  0  0  0  0  0  0  0  0  0  0
  -24.2860  -36.9290   23.7100 C   0  0  0  0  0  1  0  0  0  0  0  0
  -25.6130  -36.3160   24.1840 C   0  0  0  0  0  3  0  0  0  0  0  0
  -27.9030  -36.9540   24.8180 C   0  0  0  0  0  1  0  0  0  0  0  0
  -26.6750  -37.3470   24.1330 N   0  0  0  0  0  0  0  0  0  0  0  0
  -26.3490  -38.2180   24.5410 H   0  0  0  0  0  0  0  0  0  0  0  0
  -27.6470  -22.5860   20.5400 C   0  0  0  0  0 15  0  0  0  0  0  0
  -28.7440  -20.4100   20.5580 C   0  0  0  0  0 15  0  0  0  0  0  0
  -29.7010  -16.6220   20.0710 C   0  0  0  0  0  0  0  0  0  0  0  0
  -30.1640  -13.8440   19.1840 C   0  0  0  0  0  2  0  0  0  0  0  0
  -29.4070  -12.9240   18.1170 C   0  0  0  0  0  2  0  0  0  0  0  0
  -28.1430  -12.2760   18.6800 C   0  0  0  0  0  2  0  0  0  0  0  0
  -27.4930  -13.2930   19.6260 C   0  0  0  0  0  3  0  0  0  0  0  0
  -28.4510  -14.0470   20.6310 C   0  0  0  0  0  2  0  0  0  0  0  0
  -29.3510  -15.0550   19.9040 N   0  0  0  0  0  0  0  0  0  0  0  0
  -30.9500  -16.4210   19.8870 O   0  0  0  0  0  0  0  0  0  0  0  0
  -28.9060  -18.2600   20.2610 N   0  0  0  0  0  2  0  0  0  0  0  0
  -27.9350  -17.9730   20.2650 H   0  0  0  0  0  0  0  0  0  0  0  0
  -25.1890  -13.6510   20.5550 C   0  0  0  0  0  0  0  0  0  0  0  0
  -24.1860  -12.8280   20.9690 C   0  0  0  0  0  0  0  0  0  0  0  0
  -24.6910  -11.4940   20.8610 C   0  0  0  0  0  0  0  0  0  0  0  0
  -26.2460  -12.8320   20.2240 N   0  0  0  0  0  0  0  0  0  0  0  0
  -25.9640  -11.5160   20.4550 N   0  0  0  0  0  0  0  0  0  0  0  0
  -23.9980  -10.2100   21.0700 C   0  0  0  0  0  0  0  0  0  0  0  0
  -24.4650   -9.2530   21.9990 C   0  0  0  0  0  3  0  0  0  0  0  0
  -23.7590   -8.0470   22.2040 C   0  0  0  0  0  3  0  0  0  0  0  0
  -22.5700   -7.7850   21.4820 C   0  0  0  0  0  0  0  0  0  0  0  0
  -22.1190   -8.7310   20.5440 C   0  0  0  0  0  3  0  0  0  0  0  0
  -22.8250   -9.9280   20.3370 C   0  0  0  0  0  3  0  0  0  0  0  0
  -21.8360   -6.6290   21.5950 O   0  0  0  0  0  0  0  0  0  0  0  0
  -21.7670   -5.9290   22.7720 C   0  0  0  0  0  0  0  0  0  0  0  0
  -21.2560   -6.5090   23.9540 C   0  0  0  0  0  3  0  0  0  0  0  0
  -21.1380   -5.7350   25.1260 C   0  0  0  0  0  3  0  0  0  0  0  0
  -21.5210   -4.3800   25.1170 C   0  0  0  0  0  0  0  0  0  0  0  0
  -22.0250   -3.7990   23.9410 C   0  0  0  0  0  3  0  0  0  0  0  0
  -22.1440   -4.5700   22.7720 C   0  0  0  0  0  0  0  0  0  0  0  0
  -22.6090   -3.9980   21.6340 F   0  0  0  0  0  0  0  0  0  0  0  0
  -21.4010   -3.6340   26.2400 F   0  0  0  0  0  0  0  0  0  0  0  0
  -22.8010  -13.2660   21.3430 C   0  0  0  0  0  0  0  0  0  0  0  0
  -22.1500  -12.5410   22.2430 N   0  0  0  0  0  0  0  0  0  0  0  0
  -22.3130  -14.2940   20.8750 O   0  0  0  0  0  0  0  0  0  0  0  0
  -22.5630  -11.7110   22.6440 H   0  0  0  0  0  0  0  0  0  0  0  0
  -21.2250  -12.8190   22.5380 H   0  0  0  0  0  0  0  0  0  0  0  0
  -25.2900  -15.0310   20.3970 N   0  0  0  0  0  0  0  0  0  0  0  0
  -24.5060  -15.6520   20.5630 H   0  0  0  0  0  0  0  0  0  0  0  0
  -26.0950  -15.5010   20.0060 H   0  0  0  0  0  0  0  0  0  0  0  0
  2 19  1  0
  3  1  1  0
  4  1  1  0
  5  8  1  6
  5 20  1  0
  5  2  1  0
  6  5  1  0
  6 21  1  0
  6 20  1  0
  7  9  1  0
 10 11  1  0
 12  1  1  0
 12 10  1  0
 12 11  1  0
 15 26  2  0
 16 14  1  0
 17 25  1  0
 17 27  1  0
 18 24  1  0
 19 25  1  0
 20 21  1  6
 20 19  1  0
 22 23  1  0
 22 16  1  0
 22 14  1  0
 23 18  2  0
 25 15  1  0
 27 29  2  0
 28 27  1  0
 30 28  1  0
 31 40  2  0
 31 36  1  0
 32 28  1  0
 32 36  1  0
 33 32  1  0
 34 35  1  0
 34 33  1  0
 35 31  1  0
 36 37  2  0
 37 38  1  0
 39 38  2  0
 40 39  1  0
 41 15  1  0
 41 46  1  0
 41 42  1  0
 42 45  1  1
 42 43  1  0
 44 42  1  0
 46 49  1  0
 47 46  1  0
 47 51  1  0
 48 47  2  0
 51 50  1  0
 53 51  1  0
 53 54  1  0
 53 52  1  0
 57 65  1  0
 58 63  1  0
 59 60  1  0
 59 58  1  0
 61 60  1  0
 61 70  1  0
 61 62  1  0
 63 57  1  0
 63 62  1  0
 64 57  2  0
 65 66  1  0
 67 68  2  0
 68 87  1  0
 69 68  1  0
 69 72  1  0
 70 71  1  0
 70 67  1  0
 71 69  2  0
 72 73  1  0
 73 74  2  0
 75 78  1  0
 75 74  1  0
 76 75  2  0
 77 76  1  0
 77 72  2  0
 78 79  1  0
 79 84  2  0
 79 80  1  0
 80 81  2  0
 82 81  1  0
 82 86  1  0
 83 82  2  0
 84 83  1  0
 85 84  1  0
 87 88  1  0
 88 91  1  0
 88 90  1  0
 89 87  2  0
 92 67  1  0
 92 93  1  0
 94 92  1  0
M  ISO  4  13 101  14 101  57 100  65 100
M  END
>  <TORSDO>  (80) 
F 20

>  <SCORE>  (80) 
-15.762

>  <name>  (80) 
79

>  <ligand_id>  (80) 
79

>  <original_smiles>  (80) 
[H]c1c([H])c([H])c2c(c1[H])C([H])([H])C([H])([H])C([H])([H])C2([H])N([H])C(=O)C1([H])N(C(=O)C([H])(N([H])C(=O)C([H])(N([H])C([H])([H])[H])C([H])([H])[H])C(C([H])([H])[H])(C([H])([H])[H])C([H])([H])[H])C([H])([H])c2c([H])c(OC([H])([H])C3(c4c([H])c(F)nc(N([H])C([H])([H])C([H])([H])N([H])C(=O)N5C([H])([H])C([H])([H])C([H])([H])C([H])(n6nc(-c7c([H])c([H])c(Oc8c([H])c([H])c(F)c([H])c8F)c([H])c7[H])c(C(=O)N([H])[H])c6N([H])[H])C5([H])[H])c4[H])C([H])([H])C3([H])[H])c([H])c([H])c2C1([H])[H]

>  <smiles>  (80) 
[H]c1c([H])c([H])c2c(c1[H])C([H])([H])C([H])([H])C([H])([H])C2([H])N([H])C(=O)C1([H])N(C(=O)C([H])(N([H])C(=O)C([H])(N([H])C([H])([H])[H])C([H])([H])[H])C(C([H])([H])[H])(C([H])([H])[H])C([H])([H])[H])C([H])([H])c2c([H])c(OC([H])([H])C3(c4c([H])c(F)nc(N([H])C([H])([H])C([H])([H])N([H])C(=O)N5C([H])([H])C([H])([H])C([H])([H])C([H])(n6nc(-c7c([H])c([H])c(Oc8c([H])c([H])c(F)c([H])c8F)c([H])c7[H])c(C(=O)N([H])[H])c6N([H])[H])C5([H])[H])c4[H])C([H])([H])C3([H])[H])c([H])c([H])c2C1([H])[H]

$$$$
80:0:0
     RDKit          3D

 87 96  0  0  1  0  0  0  0  0999 V2000
  -30.2960  -15.8260   20.3210 C   0  0  0  0  0  0  0  0  0  0  0  0
  -30.3670  -13.2560   19.5090 C   0  0  0  0  0  2  0  0  0  0  0  0
  -29.5200  -12.7340   18.3140 C   0  0  0  0  0  2  0  0  0  0  0  0
  -28.1120  -12.3400   18.7750 C   0  0  0  0  0  2  0  0  0  0  0  0
  -27.5570  -13.3680   19.7840 C   0  0  0  0  0  3  0  0  0  0  0  0
  -28.5610  -13.8050   20.8830 C   0  0  0  0  0  2  0  0  0  0  0  0
  -29.6960  -14.4760   20.1920 N   0  0  0  0  0  0  0  0  0  0  0  0
  -31.5270  -15.6020   20.2650 O   0  0  0  0  0  0  0  0  0  0  0  0
  -30.3300  -22.2480   20.3780 C   0  0  0  0  0  3  0  0  0  0  0  0
  -28.9740  -21.9800   20.2850 C   0  0  0  0  0  0  0  0  0  0  0  0
  -30.4060  -19.9610   20.3700 C   0  0  0  0  0  0  0  0  0  0  0  0
  -30.9080  -18.4440   20.3880 C   0  0  0  0  0  3  0  0  0  0  0  0
  -28.6730  -18.6440   20.2640 C   0  0  0  0  0  2  0  0  0  0  0  0
  -29.1240  -20.3340   20.2940 N   0  0  0  0  0  0  0  0  0  0  0  0
  -31.1080  -21.0970   20.4230 N   0  0  0  0  0  0  0  0  0  0  0  0
  -29.8310  -17.3670   20.3230 N   0  0  0  0  0  0  0  0  0  0  0  0
  -32.1180  -21.1180   20.4880 H   0  0  0  0  0  0  0  0  0  0  0  0
  -25.1890  -13.8630   20.5280 C   0  0  0  0  0  0  0  0  0  0  0  0
  -24.1350  -13.0700   20.8790 C   0  0  0  0  0  0  0  0  0  0  0  0
  -24.6230  -11.7260   20.8610 C   0  0  0  0  0  0  0  0  0  0  0  0
  -26.2470  -13.0060   20.3030 N   0  0  0  0  0  0  0  0  0  0  0  0
  -25.9220  -11.7130   20.5700 N   0  0  0  0  0  0  0  0  0  0  0  0
  -23.9090  -10.4560   21.0430 C   0  0  0  0  0  0  0  0  0  0  0  0
  -24.3330   -9.4950   21.9870 C   0  0  0  0  0  3  0  0  0  0  0  0
  -23.6110   -8.2940   22.1610 C   0  0  0  0  0  3  0  0  0  0  0  0
  -22.4500   -8.0440   21.3910 C   0  0  0  0  0  0  0  0  0  0  0  0
  -22.0450   -8.9940   20.4360 C   0  0  0  0  0  3  0  0  0  0  0  0
  -22.7670  -10.1860   20.2610 C   0  0  0  0  0  3  0  0  0  0  0  0
  -21.7010   -6.8950   21.4740 O   0  0  0  0  0  0  0  0  0  0  0  0
  -21.6380   -6.1580   22.6300 C   0  0  0  0  0  0  0  0  0  0  0  0
  -21.1930   -6.7180   23.8470 C   0  0  0  0  0  3  0  0  0  0  0  0
  -21.0770   -5.9080   24.9940 C   0  0  0  0  0  3  0  0  0  0  0  0
  -21.3960   -4.5400   24.9260 C   0  0  0  0  0  0  0  0  0  0  0  0
  -21.8350   -3.9780   23.7130 C   0  0  0  0  0  3  0  0  0  0  0  0
  -21.9520   -4.7860   22.5680 C   0  0  0  0  0  0  0  0  0  0  0  0
  -22.3540   -4.2350   21.3980 F   0  0  0  0  0  0  0  0  0  0  0  0
  -21.2790   -3.7590   26.0250 F   0  0  0  0  0  0  0  0  0  0  0  0
  -22.7270  -13.5300   21.1140 C   0  0  0  0  0  0  0  0  0  0  0  0
  -21.9930  -12.8390   21.9780 N   0  0  0  0  0  0  0  0  0  0  0  0
  -22.2880  -14.5420   20.5700 O   0  0  0  0  0  0  0  0  0  0  0  0
  -22.3630  -12.0220   22.4410 H   0  0  0  0  0  0  0  0  0  0  0  0
  -21.0470  -13.1300   22.1800 H   0  0  0  0  0  0  0  0  0  0  0  0
  -25.3330  -15.2350   20.3430 N   0  0  0  0  0  0  0  0  0  0  0  0
  -24.5540  -15.8790   20.4400 H   0  0  0  0  0  0  0  0  0  0  0  0
  -26.1820  -15.6850   20.0260 H   0  0  0  0  0  0  0  0  0  0  0  0
  -27.9080  -23.5680   20.1970 C   0  0  0  0  0  2  0  0  0  0  0  0
  -28.1140  -25.3690   20.2840 O   0  0  0  0  0  0  0  0  0  0  0  0
  -24.6410  -31.8250   23.1550 C   0  0  0  0  0  0  0  0  0  0  0  0
  -27.1620  -26.6350   20.2250 C   0  0  0  0  0  0  0  0  0  0  0  0
  -23.4630  -30.4180   21.5220 C   0  0  0  0  0  3  0  0  0  0  0  0
  -24.9140  -28.7380   20.1350 C   0  0  0  0  0  0  0  0  0  0  0  0
  -26.0480  -30.5230   21.4260 C   0  0  0  0  0  2  0  0  0  0  0  0
  -26.1100  -29.0760   20.7800 C   0  0  0  0  0  0  0  0  0  0  0  0
  -27.2150  -28.0560   20.7880 C   0  0  0  0  0  3  0  0  0  0  0  0
  -25.9320  -26.5330   19.5210 C   0  0  0  0  0  3  0  0  0  0  0  0
  -24.8700  -27.4940   19.4810 C   0  0  0  0  0  3  0  0  0  0  0  0
  -23.7140  -29.7040   20.1610 C   0  0  0  0  0  2  0  0  0  0  0  0
  -24.7430  -30.9580   22.0860 N   0  0  0  0  0  0  0  0  0  0  0  0
  -23.5440  -32.1350   23.6520 O   0  0  0  0  0  0  0  0  0  0  0  0
  -22.7300  -29.4560   22.4970 C   0  0  0  0  0  0  0  0  0  0  0  0
  -21.3940  -29.3240   22.3780 N   0  0  0  0  0  0  0  0  0  0  0  0
  -23.3770  -28.8260   23.3370 O   0  0  0  0  0  0  0  0  0  0  0  0
  -20.9210  -29.8820   21.6810 H   0  0  0  0  0  0  0  0  0  0  0  0
  -17.9900  -28.1600   22.9130 C   0  0  0  0  0  0  0  0  0  0  0  0
  -20.5570  -28.3990   23.1540 C   0  0  0  0  0  3  0  0  0  0  0  0
  -20.6340  -26.9650   22.5790 C   0  0  0  0  0  2  0  0  0  0  0  0
  -19.5210  -26.6580   21.5710 C   0  0  0  0  0  2  0  0  0  0  0  0
  -18.1470  -26.8140   22.2260 C   0  0  0  0  0  2  0  0  0  0  0  0
  -19.1200  -28.9120   23.3330 C   0  0  0  0  0  0  0  0  0  0  0  0
  -18.9160  -30.1690   23.9430 C   0  0  0  0  0  3  0  0  0  0  0  0
  -17.6160  -30.6760   24.1310 C   0  0  0  0  0  3  0  0  0  0  0  0
  -16.5020  -29.9240   23.7210 C   0  0  0  0  0  3  0  0  0  0  0  0
  -16.6900  -28.6670   23.1190 C   0  0  0  0  0  3  0  0  0  0  0  0
  -25.8980  -32.4820   23.8030 C   0  0  0  0  0  3  0  0  0  0  0  0
  -25.5660  -33.8800   24.1460 N   0  0  0  0  0  0  0  0  0  0  0  0
  -25.8920  -34.9550   23.4160 C   0  0  0  0  0  0  0  0  0  0  0  0
  -26.5580  -34.8760   22.3820 O   0  0  0  0  0  0  0  0  0  0  0  0
  -24.9690  -34.0140   24.9490 H   0  0  0  0  0  0  0  0  0  0  0  0
  -24.1490  -36.7560   23.1260 C   0  0  0  0  0  1  0  0  0  0  0  0
  -25.4070  -36.3380   23.9070 C   0  0  0  0  0  3  0  0  0  0  0  0
  -27.5500  -37.2290   24.7150 C   0  0  0  0  0  1  0  0  0  0  0  0
  -26.4310  -37.4010   23.7930 N   0  0  0  0  0  0  0  0  0  0  0  0
  -26.0220  -38.3150   23.9590 H   0  0  0  0  0  0  0  0  0  0  0  0
  -26.3920  -31.7220   25.0970 C   0  0  1  0  0  0  0  0  0  0  0  0
  -25.2840  -31.4980   26.1530 C   0  0  0  0  0  1  0  0  0  0  0  0
  -26.9790  -30.3380   24.7400 C   0  0  0  0  0  1  0  0  0  0  0  0
  -27.5360  -32.5210   25.7680 C   0  0  0  0  0  1  0  0  0  0  0  0
  1 16  1  0
  2  7  1  0
  3  4  1  0
  3  2  1  0
  5  4  1  0
  5 21  1  0
  5  6  1  0
  7  1  1  0
  7  6  1  0
  8  1  2  0
  9 15  1  0
 10 14  1  0
 10  9  2  0
 11 12  2  0
 11 15  1  0
 13 14  1  0
 13 16  1  0
 14 11  1  0
 15 17  1  0
 16 12  1  0
 18 19  2  0
 19 38  1  0
 20 19  1  0
 20 23  1  0
 21 18  1  0
 21 22  1  0
 22 20  2  0
 23 24  1  0
 24 25  2  0
 26 29  1  0
 26 25  1  0
 27 26  2  0
 28 27  1  0
 28 23  2  0
 29 30  1  0
 30 31  1  0
 31 32  2  0
 33 32  1  0
 33 37  1  0
 34 33  2  0
 35 30  2  0
 35 34  1  0
 36 35  1  0
 38 39  1  0
 39 42  1  0
 39 41  1  0
 40 38  2  0
 43 44  1  0
 43 18  1  0
 45 43  1  0
 46 47  1  0
 46 10  1  0
 48 59  2  0
 49 47  1  0
 49 54  1  0
 50 58  1  0
 50 60  1  0
 51 57  1  0
 51 53  1  0
 52 58  1  0
 53 54  2  0
 53 52  1  0
 55 49  2  0
 56 55  1  0
 56 51  2  0
 57 50  1  0
 58 48  1  0
 60 62  2  0
 61 60  1  0
 63 61  1  0
 64 73  2  0
 64 69  1  0
 65 61  1  0
 65 69  1  0
 66 65  1  0
 67 68  1  0
 67 66  1  0
 68 64  1  0
 69 70  2  0
 70 71  1  0
 72 71  2  0
 73 72  1  0
 74 48  1  0
 74 75  1  0
 74 84  1  0
 75 78  1  0
 76 80  1  0
 76 75  1  0
 77 76  2  0
 80 79  1  0
 82 80  1  0
 82 83  1  0
 82 81  1  0
 84 87  1  1
 84 85  1  0
 86 84  1  0
M  ISO  4   1 100  16 100  46 101  47 101
M  END
>  <TORSDO>  (81) 
F 16

>  <SCORE>  (81) 
-16.554

>  <name>  (81) 
80

>  <ligand_id>  (81) 
80

>  <original_smiles>  (81) 
[H]c1c([H])c([H])c2c(c1[H])C([H])([H])C([H])([H])C([H])([H])C2([H])N([H])C(=O)C1([H])N(C(=O)C([H])(N([H])C(=O)C([H])(N([H])C([H])([H])[H])C([H])([H])[H])C(C([H])([H])[H])(C([H])([H])[H])C([H])([H])[H])C([H])([H])c2c([H])c(OC([H])([H])c3c([H])[n+]([H])c4n3C([H])([H])N(C(=O)N3C([H])([H])C([H])([H])C([H])([H])C([H])(n5nc(-c6c([H])c([H])c(Oc7c([H])c([H])c(F)c([H])c7F)c([H])c6[H])c(C(=O)N([H])[H])c5N([H])[H])C3([H])[H])C4([H])[H])c([H])c([H])c2C1([H])[H]

>  <smiles>  (81) 
[H]c1c([H])c([H])c2c(c1[H])C([H])([H])C([H])([H])C([H])([H])C2([H])N([H])C(=O)C1([H])N(C(=O)C([H])(N([H])C(=O)C([H])(N([H])C([H])([H])[H])C([H])([H])[H])C(C([H])([H])[H])(C([H])([H])[H])C([H])([H])[H])C([H])([H])c2c([H])c(OC([H])([H])c3c([H])[n+]([H])c4n3C([H])([H])N(C(=O)N3C([H])([H])C([H])([H])C([H])([H])C([H])(n5nc(-c6c([H])c([H])c(Oc7c([H])c([H])c(F)c([H])c7F)c([H])c6[H])c(C(=O)N([H])[H])c5N([H])[H])C3([H])[H])C4([H])[H])c([H])c([H])c2C1([H])[H]

$$$$
81:0:0
     RDKit          3D

 92101  0  0  1  0  0  0  0  0999 V2000
  -29.1380  -21.7700   20.8510 C   0  0  0  0  0  3  0  0  0  0  0  0
  -28.9680  -20.5350   20.1400 C   0  0  0  0  0  0  0  0  0  0  0  0
  -28.5160  -22.9630   20.1740 C   0  0  0  0  0  0  0  0  0  0  0  0
  -28.0070  -22.4320   19.0680 N   0  0  0  0  0  0  0  0  0  0  0  0
  -28.2230  -21.0630   19.0610 N   0  0  0  0  0  0  0  0  0  0  0  0
  -30.6880  -15.0370   20.8650 C   0  0  0  0  0  0  0  0  0  0  0  0
  -30.7230  -12.6070   20.0510 C   0  0  0  0  0  2  0  0  0  0  0  0
  -29.9030  -12.3910   18.7580 C   0  0  0  0  0  2  0  0  0  0  0  0
  -28.4200  -12.1320   19.0820 C   0  0  0  0  0  2  0  0  0  0  0  0
  -27.8760  -13.1170   20.1460 C   0  0  0  0  0  3  0  0  0  0  0  0
  -28.8330  -13.2640   21.3480 C   0  0  0  0  0  2  0  0  0  0  0  0
  -30.1110  -13.7510   20.8050 N   0  0  0  0  0  0  0  0  0  0  0  0
  -31.9220  -15.0460   20.7490 O   0  0  0  0  0  0  0  0  0  0  0  0
  -28.0840  -18.0260   20.8680 C   0  0  0  0  0  2  0  0  0  0  0  0
  -28.4900  -16.5040   20.8020 C   0  0  0  0  0  2  0  0  0  0  0  0
  -30.4080  -17.8180   20.7270 C   0  0  0  0  0  2  0  0  0  0  0  0
  -29.2020  -18.8570   20.2360 C   0  0  0  0  0  3  0  0  0  0  0  0
  -29.9550  -16.3060   20.8360 N   0  0  0  0  0  0  0  0  0  0  0  0
  -25.4380  -13.6800   20.6780 C   0  0  0  0  0  0  0  0  0  0  0  0
  -24.3590  -12.9010   20.9760 C   0  0  0  0  0  0  0  0  0  0  0  0
  -24.8440  -11.5570   21.0130 C   0  0  0  0  0  0  0  0  0  0  0  0
  -26.5110  -12.8130   20.5460 N   0  0  0  0  0  0  0  0  0  0  0  0
  -26.1570  -11.5320   20.8170 N   0  0  0  0  0  0  0  0  0  0  0  0
  -24.1210  -10.2910   21.1630 C   0  0  0  0  0  0  0  0  0  0  0  0
  -24.4990   -9.3380   22.1320 C   0  0  0  0  0  3  0  0  0  0  0  0
  -23.7720   -8.1360   22.2750 C   0  0  0  0  0  3  0  0  0  0  0  0
  -22.6560   -7.8800   21.4430 C   0  0  0  0  0  0  0  0  0  0  0  0
  -22.3000   -8.8210   20.4610 C   0  0  0  0  0  3  0  0  0  0  0  0
  -23.0280  -10.0140   20.3180 C   0  0  0  0  0  3  0  0  0  0  0  0
  -21.9050   -6.7300   21.4910 O   0  0  0  0  0  0  0  0  0  0  0  0
  -21.7780   -6.0000   22.6450 C   0  0  0  0  0  0  0  0  0  0  0  0
  -21.2460   -6.5610   23.8270 C   0  0  0  0  0  3  0  0  0  0  0  0
  -21.0700   -5.7560   24.9690 C   0  0  0  0  0  3  0  0  0  0  0  0
  -21.4160   -4.3910   24.9310 C   0  0  0  0  0  0  0  0  0  0  0  0
  -21.9400   -3.8310   23.7530 C   0  0  0  0  0  3  0  0  0  0  0  0
  -22.1190   -4.6330   22.6120 C   0  0  0  0  0  0  0  0  0  0  0  0
  -22.6040   -4.0820   21.4730 F   0  0  0  0  0  0  0  0  0  0  0  0
  -21.2410   -3.6160   26.0270 F   0  0  0  0  0  0  0  0  0  0  0  0
  -22.9380  -13.3630   21.1170 C   0  0  0  0  0  0  0  0  0  0  0  0
  -22.1530  -12.6820   21.9440 N   0  0  0  0  0  0  0  0  0  0  0  0
  -22.5310  -14.3670   20.5340 O   0  0  0  0  0  0  0  0  0  0  0  0
  -22.5030  -11.8790   22.4440 H   0  0  0  0  0  0  0  0  0  0  0  0
  -21.1960  -12.9700   22.0870 H   0  0  0  0  0  0  0  0  0  0  0  0
  -25.5840  -15.0490   20.4780 N   0  0  0  0  0  0  0  0  0  0  0  0
  -24.7900  -15.6790   20.5080 H   0  0  0  0  0  0  0  0  0  0  0  0
  -26.4410  -15.5060   20.2050 H   0  0  0  0  0  0  0  0  0  0  0  0
  -28.0450  -24.5210   20.6330 C   0  0  0  0  0  2  0  0  0  0  0  0
  -28.2250  -25.9330   19.9500 O   0  0  0  0  0  0  0  0  0  0  0  0
  -24.6330  -31.6860   23.0480 C   0  0  0  0  0  0  0  0  0  0  0  0
  -27.1880  -26.9530   19.9810 C   0  0  0  0  0  0  0  0  0  0  0  0
  -23.4270  -30.3080   21.3990 C   0  0  0  0  0  3  0  0  0  0  0  0
  -24.8710  -28.7350   19.9570 C   0  0  0  0  0  0  0  0  0  0  0  0
  -25.9830  -30.5550   21.2360 C   0  0  0  0  0  2  0  0  0  0  0  0
  -26.0540  -29.1630   20.5730 C   0  0  0  0  0  0  0  0  0  0  0  0
  -27.2160  -28.2920   20.5630 C   0  0  0  0  0  3  0  0  0  0  0  0
  -25.9810  -26.6380   19.3270 C   0  0  0  0  0  3  0  0  0  0  0  0
  -24.8500  -27.4860   19.3150 C   0  0  0  0  0  3  0  0  0  0  0  0
  -23.6460  -29.6400   20.0150 C   0  0  0  0  0  2  0  0  0  0  0  0
  -24.7020  -30.8710   21.9490 N   0  0  0  0  0  0  0  0  0  0  0  0
  -23.5480  -31.9690   23.5800 O   0  0  0  0  0  0  0  0  0  0  0  0
  -22.7460  -29.2950   22.3550 C   0  0  0  0  0  0  0  0  0  0  0  0
  -21.4120  -29.1480   22.2510 N   0  0  0  0  0  0  0  0  0  0  0  0
  -23.4200  -28.6450   23.1590 O   0  0  0  0  0  0  0  0  0  0  0  0
  -20.9220  -29.7250   21.5820 H   0  0  0  0  0  0  0  0  0  0  0  0
  -18.0200  -28.0150   22.8280 C   0  0  0  0  0  0  0  0  0  0  0  0
  -20.5910  -28.2090   23.0210 C   0  0  0  0  0  3  0  0  0  0  0  0
  -20.6380  -26.7920   22.4030 C   0  0  0  0  0  2  0  0  0  0  0  0
  -19.4990  -26.5270   21.4150 C   0  0  0  0  0  2  0  0  0  0  0  0
  -18.1430  -26.6840   22.1060 C   0  0  0  0  0  2  0  0  0  0  0  0
  -19.1690  -28.7380   23.2440 C   0  0  0  0  0  0  0  0  0  0  0  0
  -19.0000  -29.9860   23.8820 C   0  0  0  0  0  3  0  0  0  0  0  0
  -17.7130  -30.5110   24.1070 C   0  0  0  0  0  3  0  0  0  0  0  0
  -16.5780  -29.7850   23.7040 C   0  0  0  0  0  3  0  0  0  0  0  0
  -16.7320  -28.5380   23.0720 C   0  0  0  0  0  3  0  0  0  0  0  0
  -25.9140  -32.3150   23.6760 C   0  0  0  0  0  3  0  0  0  0  0  0
  -26.4510  -31.5120   24.9250 C   0  0  1  0  0  0  0  0  0  0  0  0
  -25.3750  -31.2390   26.0030 C   0  0  0  0  0  1  0  0  0  0  0  0
  -27.0380  -30.1470   24.4940 C   0  0  0  0  0  1  0  0  0  0  0  0
  -27.6050  -32.2950   25.5940 C   0  0  0  0  0  1  0  0  0  0  0  0
  -25.5890  -33.7010   24.0590 N   0  0  0  0  0  0  0  0  0  0  0  0
  -25.9130  -34.7880   23.3480 C   0  0  0  0  0  0  0  0  0  0  0  0
  -26.5820  -34.7300   22.3130 O   0  0  0  0  0  0  0  0  0  0  0  0
  -24.9920  -33.8160   24.8660 H   0  0  0  0  0  0  0  0  0  0  0  0
  -24.1750  -36.5910   23.0720 C   0  0  0  0  0  1  0  0  0  0  0  0
  -25.4190  -36.1540   23.8630 C   0  0  0  0  0  3  0  0  0  0  0  0
  -27.5460  -37.0190   24.7320 C   0  0  0  0  0  1  0  0  0  0  0  0
  -26.4440  -37.2170   23.7950 N   0  0  0  0  0  0  0  0  0  0  0  0
  -26.0320  -38.1270   23.9800 H   0  0  0  0  0  0  0  0  0  0  0  0
  -27.5700  -20.3330   17.9730 C   0  0  0  0  0  2  0  0  0  0  0  0
  -27.8280  -19.2310   15.6740 C   0  0  0  0  0  1  0  0  0  0  0  0
  -28.5270  -19.9730   16.8230 C   0  0  0  0  0  3  0  0  0  0  0  0
  -29.5130  -19.1950   17.2760 F   0  0  0  0  0  0  0  0  0  0  0  0
  2  1  2  0
  3 47  1  0
  3  1  1  0
  4  3  2  0
  5  4  1  0
  5  2  1  0
  7 12  1  0
  8  9  1  0
  8  7  1  0
 10  9  1  0
 10 22  1  0
 10 11  1  0
 12  6  1  0
 12 11  1  0
 13  6  2  0
 15 18  1  0
 15 14  1  0
 16 18  1  0
 17  2  1  0
 17 16  1  0
 17 14  1  0
 18  6  1  0
 19 20  2  0
 20 21  1  0
 20 39  1  0
 21 24  1  0
 22 19  1  0
 22 23  1  0
 23 21  2  0
 24 25  1  0
 25 26  2  0
 27 30  1  0
 27 26  1  0
 28 27  2  0
 29 28  1  0
 29 24  2  0
 30 31  1  0
 31 32  1  0
 32 33  2  0
 34 33  1  0
 34 38  1  0
 35 34  2  0
 36 31  2  0
 36 35  1  0
 37 36  1  0
 39 40  1  0
 40 43  1  0
 40 42  1  0
 41 39  2  0
 44 45  1  0
 44 19  1  0
 46 44  1  0
 48 50  1  0
 48 47  1  0
 49 60  2  0
 50 55  1  0
 51 59  1  0
 51 61  1  0
 52 58  1  0
 52 54  1  0
 53 59  1  0
 54 53  1  0
 55 54  2  0
 56 50  2  0
 57 56  1  0
 57 52  2  0
 58 51  1  0
 59 49  1  0
 61 63  2  0
 62 61  1  0
 64 62  1  0
 65 74  2  0
 65 70  1  0
 66 62  1  0
 66 70  1  0
 67 66  1  0
 68 69  1  0
 68 67  1  0
 69 65  1  0
 70 71  2  0
 71 72  1  0
 73 72  2  0
 74 73  1  0
 75 49  1  0
 75 80  1  0
 75 76  1  0
 76 79  1  1
 76 77  1  0
 78 76  1  0
 80 83  1  0
 81 85  1  0
 81 80  1  0
 82 81  2  0
 85 84  1  0
 87 85  1  0
 87 88  1  0
 87 86  1  0
 89  5  1  0
 91 90  1  0
 91 92  1  0
 91 89  1  0
M  ISO  4   6 100  18 100  47 101  48 101
M  END
>  <TORSDO>  (82) 
F 19

>  <SCORE>  (82) 
-13.707

>  <name>  (82) 
81

>  <ligand_id>  (82) 
81

>  <original_smiles>  (82) 
[H]c1c([H])c([H])c2c(c1[H])C([H])([H])C([H])([H])C([H])([H])C2([H])N([H])C(=O)C1([H])N(C(=O)C([H])(N([H])C(=O)C([H])(N([H])C([H])([H])[H])C([H])([H])[H])C(C([H])([H])[H])(C([H])([H])[H])C([H])([H])[H])C([H])([H])c2c([H])c(OC([H])([H])c3nn(C([H])([H])C([H])(F)C([H])([H])[H])c(C4([H])C([H])([H])N(C(=O)N5C([H])([H])C([H])([H])C([H])([H])C([H])(n6nc(-c7c([H])c([H])c(Oc8c([H])c([H])c(F)c([H])c8F)c([H])c7[H])c(C(=O)N([H])[H])c6N([H])[H])C5([H])[H])C([H])([H])C4([H])[H])c3[H])c([H])c([H])c2C1([H])[H]

>  <smiles>  (82) 
[H]c1c([H])c([H])c2c(c1[H])C([H])([H])C([H])([H])C([H])([H])C2([H])N([H])C(=O)C1([H])N(C(=O)C([H])(N([H])C(=O)C([H])(N([H])C([H])([H])[H])C([H])([H])[H])C(C([H])([H])[H])(C([H])([H])[H])C([H])([H])[H])C([H])([H])c2c([H])c(OC([H])([H])c3nn(C([H])([H])C([H])(F)C([H])([H])[H])c(C4([H])C([H])([H])N(C(=O)N5C([H])([H])C([H])([H])C([H])([H])C([H])(n6nc(-c7c([H])c([H])c(Oc8c([H])c([H])c(F)c([H])c8F)c([H])c7[H])c(C(=O)N([H])[H])c6N([H])[H])C5([H])[H])C([H])([H])C4([H])[H])c3[H])c([H])c([H])c2C1([H])[H]

$$$$
82:0:0
     RDKit          3D

 95105  0  0  1  0  0  0  0  0999 V2000
  -30.4130  -24.0870   18.9410 C   0  0  0  0  0  2  0  0  0  0  0  0
  -29.5130  -24.1100   20.1750 C   0  0  0  0  0  3  0  0  0  0  0  0
  -29.4420  -22.5260   20.0190 C   0  0  0  0  0  3  0  0  0  0  0  0
  -30.3620  -22.6300   18.8910 N   0  0  0  0  0  4  0  0  0  0  0  0
  -31.2580  -22.2170   19.0840 H   0  0  0  0  0  0  0  0  0  0  0  0
  -29.9750  -22.2750   18.0330 H   0  0  0  0  0  0  0  0  0  0  0  0
  -31.0690  -21.8900   22.0440 C   0  0  0  0  0  2  0  0  0  0  0  0
  -29.6420  -21.7870   22.5170 C   0  0  0  0  0  2  0  0  0  0  0  0
  -29.9740  -21.4830   21.0710 C   0  0  1  0  0  0  0  0  0  0  0  0
  -30.6970  -14.6210   20.0510 C   0  0  0  0  0  0  0  0  0  0  0  0
  -30.4060  -12.4170   18.9340 C   0  0  0  0  0  2  0  0  0  0  0  0
  -29.3930  -12.5930   17.7810 C   0  0  0  0  0  2  0  0  0  0  0  0
  -27.9440  -12.4420   18.2870 C   0  0  0  0  0  2  0  0  0  0  0  0
  -27.6680  -13.2750   19.5670 C   0  0  0  0  0  3  0  0  0  0  0  0
  -28.7850  -13.0630   20.6150 C   0  0  0  0  0  2  0  0  0  0  0  0
  -30.0690  -13.4050   19.9770 N   0  0  0  0  0  0  0  0  0  0  0  0
  -31.8360  -14.7820   19.5960 O   0  0  0  0  0  0  0  0  0  0  0  0
  -28.7540  -19.2060   20.8250 C   0  0  0  0  0  3  0  0  0  0  0  0
  -28.7900  -17.7900   20.7260 C   0  0  0  0  0  3  0  0  0  0  0  0
  -31.0880  -19.1950   20.3830 C   0  0  0  0  0  3  0  0  0  0  0  0
  -29.9340  -19.9700   20.6850 C   0  0  0  0  0  0  0  0  0  0  0  0
  -29.9960  -17.0940   20.4670 C   0  0  0  0  0  0  0  0  0  0  0  0
  -31.1200  -17.8310   20.2720 N   0  0  0  0  0  0  0  0  0  0  0  0
  -29.9020  -15.6430   20.4860 N   0  0  0  0  0  0  0  0  0  0  0  0
  -29.0080  -15.3030   20.8000 H   0  0  0  0  0  0  0  0  0  0  0  0
  -25.3250  -13.8930   20.4240 C   0  0  0  0  0  0  0  0  0  0  0  0
  -24.2700  -13.1260   20.8400 C   0  0  0  0  0  0  0  0  0  0  0  0
  -24.7130  -11.7700   20.7600 C   0  0  0  0  0  0  0  0  0  0  0  0
  -26.3430  -13.0040   20.1180 N   0  0  0  0  0  0  0  0  0  0  0  0
  -25.9830  -11.7210   20.3790 N   0  0  0  0  0  0  0  0  0  0  0  0
  -23.9820  -10.5130   20.9650 C   0  0  0  0  0  0  0  0  0  0  0  0
  -24.4360   -9.5360   21.8790 C   0  0  0  0  0  3  0  0  0  0  0  0
  -23.7070   -8.3440   22.0740 C   0  0  0  0  0  3  0  0  0  0  0  0
  -22.5090   -8.1190   21.3550 C   0  0  0  0  0  0  0  0  0  0  0  0
  -22.0740   -9.0840   20.4290 C   0  0  0  0  0  3  0  0  0  0  0  0
  -22.8030  -10.2680   20.2320 C   0  0  0  0  0  3  0  0  0  0  0  0
  -21.7500   -6.9800   21.4590 O   0  0  0  0  0  0  0  0  0  0  0  0
  -21.7080   -6.2460   22.6180 C   0  0  0  0  0  0  0  0  0  0  0  0
  -21.2780   -6.8080   23.8400 C   0  0  0  0  0  3  0  0  0  0  0  0
  -21.1850   -6.0000   24.9910 C   0  0  0  0  0  3  0  0  0  0  0  0
  -21.5110   -4.6320   24.9210 C   0  0  0  0  0  0  0  0  0  0  0  0
  -21.9340   -4.0700   23.7040 C   0  0  0  0  0  3  0  0  0  0  0  0
  -22.0290   -4.8750   22.5550 C   0  0  0  0  0  0  0  0  0  0  0  0
  -22.4170   -4.3240   21.3790 F   0  0  0  0  0  0  0  0  0  0  0  0
  -21.4140   -3.8550   26.0250 F   0  0  0  0  0  0  0  0  0  0  0  0
  -22.8950  -13.6140   21.1960 C   0  0  0  0  0  0  0  0  0  0  0  0
  -22.2060  -12.9090   22.0880 N   0  0  0  0  0  0  0  0  0  0  0  0
  -22.4420  -14.6540   20.7200 O   0  0  0  0  0  0  0  0  0  0  0  0
  -22.5860  -12.0670   22.4930 H   0  0  0  0  0  0  0  0  0  0  0  0
  -21.2860  -13.2180   22.3680 H   0  0  0  0  0  0  0  0  0  0  0  0
  -25.4930  -15.2650   20.2570 N   0  0  0  0  0  0  0  0  0  0  0  0
  -24.7260  -15.9130   20.3950 H   0  0  0  0  0  0  0  0  0  0  0  0
  -26.2870  -15.6890   19.7970 H   0  0  0  0  0  0  0  0  0  0  0  0
  -28.2540  -25.0530   20.1140 C   0  0  0  0  0  2  0  0  0  0  0  0
  -28.4550  -26.5130   20.2040 O   0  0  0  0  0  0  0  0  0  0  0  0
  -24.6100  -31.8400   23.1700 C   0  0  0  0  0  0  0  0  0  0  0  0
  -27.3150  -27.3290   20.1440 C   0  0  0  0  0  0  0  0  0  0  0  0
  -23.4470  -30.4420   21.5000 C   0  0  0  0  0  3  0  0  0  0  0  0
  -24.9350  -28.9100   20.1000 C   0  0  0  0  0  0  0  0  0  0  0  0
  -25.9860  -30.7830   21.3680 C   0  0  0  0  0  2  0  0  0  0  0  0
  -26.0890  -29.4100   20.7170 C   0  0  0  0  0  0  0  0  0  0  0  0
  -27.2830  -28.6320   20.7280 C   0  0  0  0  0  3  0  0  0  0  0  0
  -26.1320  -26.8770   19.5120 C   0  0  0  0  0  3  0  0  0  0  0  0
  -24.9580  -27.6490   19.4900 C   0  0  0  0  0  3  0  0  0  0  0  0
  -23.6920  -29.7750   20.1220 C   0  0  0  0  0  2  0  0  0  0  0  0
  -24.6990  -31.0370   22.0700 N   0  0  0  0  0  0  0  0  0  0  0  0
  -23.5150  -32.1070   23.6840 O   0  0  0  0  0  0  0  0  0  0  0  0
  -22.7740  -29.4150   22.4420 C   0  0  0  0  0  0  0  0  0  0  0  0
  -21.4510  -29.2330   22.2910 N   0  0  0  0  0  0  0  0  0  0  0  0
  -23.4410  -28.7860   23.2680 O   0  0  0  0  0  0  0  0  0  0  0  0
  -20.9730  -29.7930   21.5980 H   0  0  0  0  0  0  0  0  0  0  0  0
  -18.0670  -28.0350   22.7280 C   0  0  0  0  0  0  0  0  0  0  0  0
  -20.6200  -28.2900   23.0400 C   0  0  0  0  0  3  0  0  0  0  0  0
  -20.7310  -26.8630   22.4570 C   0  0  0  0  0  2  0  0  0  0  0  0
  -19.6460  -26.5470   21.4230 C   0  0  0  0  0  2  0  0  0  0  0  0
  -18.2530  -26.6900   22.0460 C   0  0  0  0  0  2  0  0  0  0  0  0
  -19.1790  -28.7930   23.1810 C   0  0  0  0  0  0  0  0  0  0  0  0
  -18.9520  -30.0530   23.7770 C   0  0  0  0  0  3  0  0  0  0  0  0
  -17.6450  -30.5530   23.9250 C   0  0  0  0  0  3  0  0  0  0  0  0
  -16.5470  -29.7920   23.4900 C   0  0  0  0  0  3  0  0  0  0  0  0
  -16.7580  -28.5340   22.8950 C   0  0  0  0  0  3  0  0  0  0  0  0
  -25.8780  -32.4760   23.8190 C   0  0  0  0  0  3  0  0  0  0  0  0
  -25.5540  -33.8710   24.1490 N   0  0  0  0  0  0  0  0  0  0  0  0
  -25.8970  -34.9290   23.4020 C   0  0  0  0  0  0  0  0  0  0  0  0
  -26.5900  -34.8340   22.3860 O   0  0  0  0  0  0  0  0  0  0  0  0
  -24.9400  -34.0190   24.9360 H   0  0  0  0  0  0  0  0  0  0  0  0
  -24.1750  -36.7180   23.0100 C   0  0  0  0  0  1  0  0  0  0  0  0
  -25.3920  -36.3110   23.8560 C   0  0  0  0  0  3  0  0  0  0  0  0
  -27.4970  -37.1980   24.7590 C   0  0  0  0  0  1  0  0  0  0  0  0
  -26.4240  -37.3690   23.7810 N   0  0  0  0  0  0  0  0  0  0  0  0
  -26.0100  -38.2860   23.9250 H   0  0  0  0  0  0  0  0  0  0  0  0
  -26.3720  -31.7030   25.1030 C   0  0  1  0  0  0  0  0  0  0  0  0
  -25.2590  -31.4540   26.1470 C   0  0  0  0  0  1  0  0  0  0  0  0
  -26.9730  -30.3310   24.7170 C   0  0  0  0  0  1  0  0  0  0  0  0
  -27.5030  -32.5020   25.7920 C   0  0  0  0  0  1  0  0  0  0  0  0
  1  2  1  0
  2 54  1  0
  3  2  1  0
  9  3  1  6
  4  1  1  0
  4  5  1  0
  4  3  1  0
  6  4  1  0
  7  8  1  0
  9  7  1  0
  9  8  1  0
 10 24  1  0
 11 16  1  0
 12 13  1  0
 12 11  1  0
 14 13  1  0
 14 29  1  0
 14 15  1  0
 16 10  1  0
 16 15  1  0
 17 10  2  0
 19 18  1  0
 20 21  1  0
 21 18  2  0
 21  9  1  0
 22 24  1  0
 22 19  2  0
 23 20  2  0
 23 22  1  0
 24 25  1  0
 26 27  2  0
 27 46  1  0
 28 27  1  0
 28 31  1  0
 29 30  1  0
 29 26  1  0
 30 28  2  0
 31 32  1  0
 32 33  2  0
 34 37  1  0
 34 33  1  0
 35 34  2  0
 36 35  1  0
 36 31  2  0
 37 38  1  0
 38 39  1  0
 39 40  2  0
 41 40  1  0
 41 45  1  0
 42 41  2  0
 43 38  2  0
 43 42  1  0
 44 43  1  0
 46 47  1  0
 47 50  1  0
 47 49  1  0
 48 46  2  0
 51 52  1  0
 51 26  1  0
 53 51  1  0
 54 55  1  0
 56 67  2  0
 57 55  1  0
 57 62  1  0
 58 66  1  0
 58 68  1  0
 59 65  1  0
 59 61  1  0
 60 66  1  0
 61 62  2  0
 61 60  1  0
 63 57  2  0
 64 63  1  0
 64 59  2  0
 65 58  1  0
 66 56  1  0
 68 70  2  0
 69 68  1  0
 71 69  1  0
 72 81  2  0
 72 77  1  0
 73 69  1  0
 73 77  1  0
 74 73  1  0
 75 76  1  0
 75 74  1  0
 76 72  1  0
 77 78  2  0
 78 79  1  0
 80 79  2  0
 81 80  1  0
 82 56  1  0
 82 83  1  0
 82 92  1  0
 83 86  1  0
 84 88  1  0
 84 83  1  0
 85 84  2  0
 88 87  1  0
 90 88  1  0
 90 91  1  0
 90 89  1  0
 92 95  1  1
 92 93  1  0
 94 92  1  0
M  ISO  4  10 100  24 100  54 101  55 101
M  END
>  <TORSDO>  (83) 
F 18

>  <SCORE>  (83) 
-14.657

>  <name>  (83) 
82

>  <ligand_id>  (83) 
82

>  <original_smiles>  (83) 
[H]c1nc(N([H])C(=O)N2C([H])([H])C([H])([H])C([H])([H])C([H])(n3nc(-c4c([H])c([H])c(Oc5c([H])c([H])c(F)c([H])c5F)c([H])c4[H])c(C(=O)N([H])[H])c3N([H])[H])C2([H])[H])c([H])c([H])c1C1(C2([H])C([H])(C([H])([H])Oc3c([H])c([H])c4c(c3[H])C([H])([H])N(C(=O)C([H])(N([H])C(=O)C([H])(N([H])C([H])([H])[H])C([H])([H])[H])C(C([H])([H])[H])(C([H])([H])[H])C([H])([H])[H])C([H])(C(=O)N([H])C3([H])c5c([H])c([H])c([H])c([H])c5C([H])([H])C([H])([H])C3([H])[H])C4([H])[H])C([H])([H])[N+]2([H])[H])C([H])([H])C1([H])[H]

>  <smiles>  (83) 
[H]c1nc(N([H])C(=O)N2C([H])([H])C([H])([H])C([H])([H])C([H])(n3nc(-c4c([H])c([H])c(Oc5c([H])c([H])c(F)c([H])c5F)c([H])c4[H])c(C(=O)N([H])[H])c3N([H])[H])C2([H])[H])c([H])c([H])c1C1(C2([H])C([H])(C([H])([H])Oc3c([H])c([H])c4c(c3[H])C([H])([H])N(C(=O)C([H])(N([H])C(=O)C([H])(N([H])C([H])([H])[H])C([H])([H])[H])C(C([H])([H])[H])(C([H])([H])[H])C([H])([H])[H])C([H])(C(=O)N([H])C3([H])c5c([H])c([H])c([H])c([H])c5C([H])([H])C([H])([H])C3([H])[H])C4([H])[H])C([H])([H])[N+]2([H])[H])C([H])([H])C1([H])[H]

$$$$
83:0:0
     RDKit          3D

 90 99  0  0  1  0  0  0  0  0999 V2000
  -27.7220  -21.3240   19.5140 C   0  0  0  0  0  0  0  0  0  0  0  0
  -28.8680  -20.8770   20.1460 C   0  0  0  0  0  0  0  0  0  0  0  0
  -28.4420  -23.2700   20.4550 C   0  0  0  0  0  3  0  0  0  0  0  0
  -26.6690  -20.7400   18.6490 C   0  0  0  0  0  3  0  0  0  0  0  0
  -25.6470  -21.8910   18.4720 C   0  0  0  0  0  3  0  0  0  0  0  0
  -26.2910  -23.1730   19.0630 C   0  0  0  0  0  3  0  0  0  0  0  0
  -29.2970  -22.1730   20.7510 N   0  0  0  0  0  0  0  0  0  0  0  0
  -27.4940  -22.6880   19.6900 N   0  0  0  0  0  0  0  0  0  0  0  0
  -29.5590  -19.3520   19.8850 C   0  0  0  0  0  2  0  0  0  0  0  0
  -29.7470  -17.9430   20.8500 C   0  0  0  0  0  2  0  0  0  0  0  0
  -30.4410  -15.2090   20.2720 C   0  0  0  0  0  0  0  0  0  0  0  0
  -30.3610  -12.8650   19.2470 C   0  0  0  0  0  2  0  0  0  0  0  0
  -29.3850  -12.7910   18.0490 C   0  0  0  0  0  2  0  0  0  0  0  0
  -27.9430  -12.5320   18.5280 C   0  0  0  0  0  2  0  0  0  0  0  0
  -27.5530  -13.4260   19.7330 C   0  0  0  0  0  3  0  0  0  0  0  0
  -28.6450  -13.4490   20.8200 C   0  0  0  0  0  2  0  0  0  0  0  0
  -29.8710  -13.9330   20.1690 N   0  0  0  0  0  0  0  0  0  0  0  0
  -31.6550  -15.2840   20.0450 O   0  0  0  0  0  0  0  0  0  0  0  0
  -29.6200  -16.3850   20.4240 N   0  0  0  0  0  0  0  0  0  0  0  0
  -28.6510  -16.1060   20.4140 H   0  0  0  0  0  0  0  0  0  0  0  0
  -25.1930  -13.9490   20.5660 C   0  0  0  0  0  0  0  0  0  0  0  0
  -24.1520  -13.1500   20.9490 C   0  0  0  0  0  0  0  0  0  0  0  0
  -24.6340  -11.8070   20.8710 C   0  0  0  0  0  0  0  0  0  0  0  0
  -26.2390  -13.0930   20.2710 N   0  0  0  0  0  0  0  0  0  0  0  0
  -25.9160  -11.7980   20.5210 N   0  0  0  0  0  0  0  0  0  0  0  0
  -23.9300  -10.5310   21.0500 C   0  0  0  0  0  0  0  0  0  0  0  0
  -24.3720   -9.5660   21.9830 C   0  0  0  0  0  3  0  0  0  0  0  0
  -23.6640   -8.3560   22.1500 C   0  0  0  0  0  3  0  0  0  0  0  0
  -22.5010   -8.1020   21.3840 C   0  0  0  0  0  0  0  0  0  0  0  0
  -22.0790   -9.0540   20.4420 C   0  0  0  0  0  3  0  0  0  0  0  0
  -22.7870  -10.2560   20.2720 C   0  0  0  0  0  3  0  0  0  0  0  0
  -21.7650   -6.9440   21.4620 O   0  0  0  0  0  0  0  0  0  0  0  0
  -21.7030   -6.2070   22.6180 C   0  0  0  0  0  0  0  0  0  0  0  0
  -21.1730   -6.7400   23.8130 C   0  0  0  0  0  3  0  0  0  0  0  0
  -21.0630   -5.9260   24.9580 C   0  0  0  0  0  3  0  0  0  0  0  0
  -21.4720   -4.5800   24.9080 C   0  0  0  0  0  0  0  0  0  0  0  0
  -21.9930   -4.0460   23.7160 C   0  0  0  0  0  3  0  0  0  0  0  0
  -22.1050   -4.8560   22.5740 C   0  0  0  0  0  0  0  0  0  0  0  0
  -22.5880   -4.3310   21.4230 F   0  0  0  0  0  0  0  0  0  0  0  0
  -21.3580   -3.7960   26.0060 F   0  0  0  0  0  0  0  0  0  0  0  0
  -22.7560  -13.6010   21.2680 C   0  0  0  0  0  0  0  0  0  0  0  0
  -22.0620  -12.8770   22.1380 N   0  0  0  0  0  0  0  0  0  0  0  0
  -22.2910  -14.6310   20.7810 O   0  0  0  0  0  0  0  0  0  0  0  0
  -22.4530  -12.0440   22.5530 H   0  0  0  0  0  0  0  0  0  0  0  0
  -21.1270  -13.1610   22.3940 H   0  0  0  0  0  0  0  0  0  0  0  0
  -25.3290  -15.3270   20.4160 N   0  0  0  0  0  0  0  0  0  0  0  0
  -24.5480  -15.9570   20.5590 H   0  0  0  0  0  0  0  0  0  0  0  0
  -26.1390  -15.7880   20.0260 H   0  0  0  0  0  0  0  0  0  0  0  0
  -28.1640  -24.7890   21.1290 C   0  0  0  0  0  2  0  0  0  0  0  0
  -28.2690  -26.2090   20.4530 O   0  0  0  0  0  0  0  0  0  0  0  0
  -24.5770  -32.0240   23.3620 C   0  0  0  0  0  0  0  0  0  0  0  0
  -27.2200  -27.2160   20.4820 C   0  0  0  0  0  0  0  0  0  0  0  0
  -23.4160  -30.5980   21.7220 C   0  0  0  0  0  3  0  0  0  0  0  0
  -24.8980  -28.9890   20.3640 C   0  0  0  0  0  0  0  0  0  0  0  0
  -25.9760  -30.8510   21.6110 C   0  0  0  0  0  2  0  0  0  0  0  0
  -26.0660  -29.4400   20.9910 C   0  0  0  0  0  0  0  0  0  0  0  0
  -27.2320  -28.5720   21.0270 C   0  0  0  0  0  3  0  0  0  0  0  0
  -26.0230  -26.8770   19.8200 C   0  0  0  0  0  3  0  0  0  0  0  0
  -24.8900  -27.7210   19.7620 C   0  0  0  0  0  3  0  0  0  0  0  0
  -23.6710  -29.8930   20.3620 C   0  0  0  0  0  2  0  0  0  0  0  0
  -24.6760  -31.1820   22.2850 N   0  0  0  0  0  0  0  0  0  0  0  0
  -23.4780  -32.3160   23.8590 O   0  0  0  0  0  0  0  0  0  0  0  0
  -22.7150  -29.6090   22.6880 C   0  0  0  0  0  0  0  0  0  0  0  0
  -21.3900  -29.4270   22.5290 N   0  0  0  0  0  0  0  0  0  0  0  0
  -23.3670  -29.0060   23.5430 O   0  0  0  0  0  0  0  0  0  0  0  0
  -20.9200  -29.9640   21.8140 H   0  0  0  0  0  0  0  0  0  0  0  0
  -17.9990  -28.2360   22.9970 C   0  0  0  0  0  0  0  0  0  0  0  0
  -20.5550  -28.4990   23.2970 C   0  0  0  0  0  3  0  0  0  0  0  0
  -20.6640  -27.0610   22.7400 C   0  0  0  0  0  2  0  0  0  0  0  0
  -19.5760  -26.7280   21.7130 C   0  0  0  0  0  2  0  0  0  0  0  0
  -18.1850  -26.8810   22.3350 C   0  0  0  0  0  2  0  0  0  0  0  0
  -19.1130  -29.0030   23.4340 C   0  0  0  0  0  0  0  0  0  0  0  0
  -18.8840  -30.2700   24.0130 C   0  0  0  0  0  3  0  0  0  0  0  0
  -17.5770  -30.7720   24.1580 C   0  0  0  0  0  3  0  0  0  0  0  0
  -16.4790  -30.0030   23.7350 C   0  0  0  0  0  3  0  0  0  0  0  0
  -16.6900  -28.7370   23.1600 C   0  0  0  0  0  3  0  0  0  0  0  0
  -25.8380  -32.6750   24.0060 C   0  0  0  0  0  3  0  0  0  0  0  0
  -26.2940  -31.9560   25.3360 C   0  0  1  0  0  0  0  0  0  0  0  0
  -25.1510  -31.7550   26.3590 C   0  0  0  0  0  1  0  0  0  0  0  0
  -26.9000  -30.5680   25.0330 C   0  0  0  0  0  1  0  0  0  0  0  0
  -27.4080  -32.7830   26.0210 C   0  0  0  0  0  1  0  0  0  0  0  0
  -25.5280  -34.0890   24.2700 N   0  0  0  0  0  0  0  0  0  0  0  0
  -25.8830  -35.1120   23.4810 C   0  0  0  0  0  0  0  0  0  0  0  0
  -26.5700  -34.9630   22.4670 O   0  0  0  0  0  0  0  0  0  0  0  0
  -24.9190  -34.2780   25.0530 H   0  0  0  0  0  0  0  0  0  0  0  0
  -24.1700  -36.9020   23.0380 C   0  0  0  0  0  1  0  0  0  0  0  0
  -25.4020  -36.5220   23.8760 C   0  0  0  0  0  3  0  0  0  0  0  0
  -27.5260  -37.4410   24.6990 C   0  0  0  0  0  1  0  0  0  0  0  0
  -26.4430  -37.5640   23.7270 N   0  0  0  0  0  0  0  0  0  0  0  0
  -26.0390  -38.4920   23.8180 H   0  0  0  0  0  0  0  0  0  0  0  0
  1  8  1  0
  1  2  1  0
  2  7  2  0
  3  7  1  0
  3 49  1  0
  4  1  2  0
  5  4  1  0
  5  6  2  0
  6  8  1  0
  8  3  1  0
  9  2  1  0
  9 10  1  0
 11 19  1  0
 12 17  1  0
 13 14  1  0
 13 12  1  0
 15 14  1  0
 15 24  1  0
 15 16  1  0
 17 11  1  0
 17 16  1  0
 18 11  2  0
 19 10  1  0
 20 19  1  0
 21 22  2  0
 22 41  1  0
 23 22  1  0
 23 26  1  0
 24 25  1  0
 24 21  1  0
 25 23  2  0
 26 27  1  0
 27 28  2  0
 29 32  1  0
 29 28  1  0
 30 29  2  0
 31 30  1  0
 31 26  2  0
 32 33  1  0
 33 34  1  0
 34 35  2  0
 36 35  1  0
 36 40  1  0
 37 36  2  0
 38 33  2  0
 38 37  1  0
 39 38  1  0
 41 42  1  0
 42 45  1  0
 42 44  1  0
 43 41  2  0
 46 47  1  0
 46 21  1  0
 48 46  1  0
 50 52  1  0
 50 49  1  0
 51 62  2  0
 52 57  1  0
 53 61  1  0
 53 63  1  0
 54 56  1  0
 55 61  1  0
 56 57  2  0
 56 55  1  0
 58 52  2  0
 59 58  1  0
 59 54  2  0
 60 54  1  0
 60 53  1  0
 61 51  1  0
 63 65  2  0
 64 63  1  0
 66 64  1  0
 67 76  2  0
 67 72  1  0
 68 64  1  0
 68 72  1  0
 69 68  1  0
 70 71  1  0
 70 69  1  0
 71 67  1  0
 72 73  2  0
 73 74  1  0
 75 74  2  0
 76 75  1  0
 77 51  1  0
 77 82  1  0
 77 78  1  0
 78 81  1  1
 78 79  1  0
 80 78  1  0
 82 85  1  0
 83 87  1  0
 83 82  1  0
 84 83  2  0
 87 86  1  0
 89 90  1  0
 89 87  1  0
 89 88  1  0
M  ISO  4  11 100  19 100  49 101  50 101
M  END
>  <TORSDO>  (84) 
F 19

>  <SCORE>  (84) 
-14.927

>  <name>  (84) 
83

>  <ligand_id>  (84) 
83

>  <original_smiles>  (84) 
[H]c1c([H])c([H])c2c(c1[H])C([H])([H])C([H])([H])C([H])([H])C2([H])N([H])C(=O)C1([H])N(C(=O)C([H])(N([H])C(=O)C([H])(N([H])C([H])([H])[H])C([H])([H])[H])C(C([H])([H])[H])(C([H])([H])[H])C([H])([H])[H])C([H])([H])c2c([H])c(OC([H])([H])c3nc(C([H])([H])C([H])([H])N([H])C(=O)N4C([H])([H])C([H])([H])C([H])([H])C([H])(n5nc(-c6c([H])c([H])c(Oc7c([H])c([H])c(F)c([H])c7F)c([H])c6[H])c(C(=O)N([H])[H])c5N([H])[H])C4([H])[H])c4n3C([H])([H])C([H])([H])C4([H])[H])c([H])c([H])c2C1([H])[H]

>  <smiles>  (84) 
[H]c1c([H])c([H])c2c(c1[H])C([H])([H])C([H])([H])C([H])([H])C2([H])N([H])C(=O)C1([H])N(C(=O)C([H])(N([H])C(=O)C([H])(N([H])C([H])([H])[H])C([H])([H])[H])C(C([H])([H])[H])(C([H])([H])[H])C([H])([H])[H])C([H])([H])c2c([H])c(OC([H])([H])c3nc(C([H])([H])C([H])([H])N([H])C(=O)N4C([H])([H])C([H])([H])C([H])([H])C([H])(n5nc(-c6c([H])c([H])c(Oc7c([H])c([H])c(F)c([H])c7F)c([H])c6[H])c(C(=O)N([H])[H])c5N([H])[H])C4([H])[H])c4n3C([H])([H])C([H])([H])C4([H])[H])c([H])c([H])c2C1([H])[H]

$$$$
84:0:0
     RDKit          3D

 92101  0  0  1  0  0  0  0  0999 V2000
  -30.3380  -24.1040   20.5500 C   0  0  0  0  0  3  0  0  0  0  0  0
  -31.1590  -22.9820   20.7420 C   0  0  0  0  0  3  0  0  0  0  0  0
  -28.9820  -23.8670   20.3010 C   0  0  0  0  0  0  0  0  0  0  0  0
  -29.3940  -21.5560   20.4550 C   0  0  0  0  0  0  0  0  0  0  0  0
  -30.6860  -21.7160   20.6880 N   0  0  0  0  0  0  0  0  0  0  0  0
  -28.5310  -22.5680   20.2640 N   0  0  0  0  0  0  0  0  0  0  0  0
  -28.8970  -20.2390   20.4060 N   0  0  0  0  0  0  0  0  0  0  0  0
  -27.9000  -20.1900   20.2360 H   0  0  0  0  0  0  0  0  0  0  0  0
  -30.7060  -14.6430   20.3040 C   0  0  0  0  0  0  0  0  0  0  0  0
  -30.4130  -12.4100   19.2710 C   0  0  0  0  0  2  0  0  0  0  0  0
  -29.4600  -12.5280   18.0640 C   0  0  0  0  0  2  0  0  0  0  0  0
  -27.9980  -12.3680   18.5190 C   0  0  0  0  0  2  0  0  0  0  0  0
  -27.6510  -13.2460   19.7530 C   0  0  0  0  0  3  0  0  0  0  0  0
  -28.7290  -13.1500   20.8550 C   0  0  0  0  0  2  0  0  0  0  0  0
  -30.0230  -13.4590   20.2330 N   0  0  0  0  0  0  0  0  0  0  0  0
  -31.8940  -14.7030   19.9700 O   0  0  0  0  0  0  0  0  0  0  0  0
  -28.9840  -17.9360   19.3350 C   0  0  0  0  0  2  0  0  0  0  0  0
  -29.7170  -18.1370   21.6420 C   0  0  0  0  0  2  0  0  0  0  0  0
  -29.7490  -16.5770   19.2080 C   0  0  0  0  0  2  0  0  0  0  0  0
  -30.4750  -16.7650   21.5150 C   0  0  0  0  0  2  0  0  0  0  0  0
  -29.6360  -18.9400   20.3180 C   0  0  0  0  0  3  0  0  0  0  0  0
  -29.9980  -15.8190   20.4670 N   0  0  0  0  0  0  0  0  0  0  0  0
  -25.2760  -13.8240   20.5320 C   0  0  0  0  0  0  0  0  0  0  0  0
  -24.2180  -13.0430   20.9090 C   0  0  0  0  0  0  0  0  0  0  0  0
  -24.6830  -11.6930   20.8550 C   0  0  0  0  0  0  0  0  0  0  0  0
  -26.3170  -12.9500   20.2670 N   0  0  0  0  0  0  0  0  0  0  0  0
  -25.9690  -11.6630   20.5230 N   0  0  0  0  0  0  0  0  0  0  0  0
  -23.9630  -10.4260   21.0430 C   0  0  0  0  0  0  0  0  0  0  0  0
  -24.4050   -9.4540   21.9670 C   0  0  0  0  0  3  0  0  0  0  0  0
  -23.6850   -8.2540   22.1440 C   0  0  0  0  0  3  0  0  0  0  0  0
  -22.5080   -8.0150   21.3940 C   0  0  0  0  0  0  0  0  0  0  0  0
  -22.0860   -8.9760   20.4580 C   0  0  0  0  0  3  0  0  0  0  0  0
  -22.8060  -10.1680   20.2790 C   0  0  0  0  0  3  0  0  0  0  0  0
  -21.7580   -6.8670   21.4790 O   0  0  0  0  0  0  0  0  0  0  0  0
  -21.7040   -6.1270   22.6330 C   0  0  0  0  0  0  0  0  0  0  0  0
  -21.2590   -6.6820   23.8530 C   0  0  0  0  0  3  0  0  0  0  0  0
  -21.1530   -5.8690   25.0000 C   0  0  0  0  0  3  0  0  0  0  0  0
  -21.4800   -4.5010   24.9260 C   0  0  0  0  0  0  0  0  0  0  0  0
  -21.9160   -3.9460   23.7100 C   0  0  0  0  0  3  0  0  0  0  0  0
  -22.0250   -4.7560   22.5660 C   0  0  0  0  0  0  0  0  0  0  0  0
  -22.4250   -4.2120   21.3920 F   0  0  0  0  0  0  0  0  0  0  0  0
  -21.3710   -3.7170   26.0240 F   0  0  0  0  0  0  0  0  0  0  0  0
  -22.8240  -13.5130   21.2120 C   0  0  0  0  0  0  0  0  0  0  0  0
  -22.1170  -12.8090   22.0890 N   0  0  0  0  0  0  0  0  0  0  0  0
  -22.3720  -14.5390   20.7050 O   0  0  0  0  0  0  0  0  0  0  0  0
  -22.4970  -11.9790   22.5200 H   0  0  0  0  0  0  0  0  0  0  0  0
  -21.1830  -13.1050   22.3350 H   0  0  0  0  0  0  0  0  0  0  0  0
  -25.4360  -15.1970   20.3710 N   0  0  0  0  0  0  0  0  0  0  0  0
  -24.6790  -15.8560   20.5130 H   0  0  0  0  0  0  0  0  0  0  0  0
  -26.2960  -15.6390   20.0700 H   0  0  0  0  0  0  0  0  0  0  0  0
  -27.9710  -25.0180   19.9880 C   0  0  0  0  0  2  0  0  0  0  0  0
  -28.2870  -26.4460   20.2450 O   0  0  0  0  0  0  0  0  0  0  0  0
  -24.6300  -31.8940   23.2650 C   0  0  0  0  0  0  0  0  0  0  0  0
  -27.1950  -27.3320   20.1770 C   0  0  0  0  0  0  0  0  0  0  0  0
  -23.4120  -30.5130   21.6250 C   0  0  0  0  0  3  0  0  0  0  0  0
  -24.8470  -28.9700   20.1830 C   0  0  0  0  0  0  0  0  0  0  0  0
  -25.9550  -30.8140   21.4370 C   0  0  0  0  0  2  0  0  0  0  0  0
  -26.0230  -29.4410   20.7810 C   0  0  0  0  0  0  0  0  0  0  0  0
  -27.2010  -28.6330   20.7720 C   0  0  0  0  0  3  0  0  0  0  0  0
  -25.9940  -26.9310   19.5400 C   0  0  0  0  0  3  0  0  0  0  0  0
  -24.8340  -27.7210   19.5540 C   0  0  0  0  0  3  0  0  0  0  0  0
  -23.6170  -29.8490   20.2400 C   0  0  0  0  0  2  0  0  0  0  0  0
  -24.6860  -31.0890   22.1660 N   0  0  0  0  0  0  0  0  0  0  0  0
  -23.5500  -32.1770   23.8030 O   0  0  0  0  0  0  0  0  0  0  0  0
  -22.7480  -29.4920   22.5800 C   0  0  0  0  0  0  0  0  0  0  0  0
  -21.4210  -29.3200   22.4540 N   0  0  0  0  0  0  0  0  0  0  0  0
  -23.4250  -28.8580   23.3940 O   0  0  0  0  0  0  0  0  0  0  0  0
  -20.9330  -29.8830   21.7700 H   0  0  0  0  0  0  0  0  0  0  0  0
  -18.0380  -28.1410   22.9550 C   0  0  0  0  0  0  0  0  0  0  0  0
  -20.5980  -28.3850   23.2230 C   0  0  0  0  0  3  0  0  0  0  0  0
  -20.6910  -26.9550   22.6460 C   0  0  0  0  0  2  0  0  0  0  0  0
  -19.5860  -26.6400   21.6320 C   0  0  0  0  0  2  0  0  0  0  0  0
  -18.2060  -26.7920   22.2770 C   0  0  0  0  0  2  0  0  0  0  0  0
  -19.1610  -28.8970   23.3850 C   0  0  0  0  0  0  0  0  0  0  0  0
  -18.9500  -30.1590   23.9790 C   0  0  0  0  0  3  0  0  0  0  0  0
  -17.6480  -30.6690   24.1460 C   0  0  0  0  0  3  0  0  0  0  0  0
  -16.5390  -29.9110   23.7320 C   0  0  0  0  0  3  0  0  0  0  0  0
  -16.7340  -28.6490   23.1430 C   0  0  0  0  0  3  0  0  0  0  0  0
  -25.9190  -32.5160   23.8850 C   0  0  0  0  0  3  0  0  0  0  0  0
  -25.6200  -33.9150   24.2190 N   0  0  0  0  0  0  0  0  0  0  0  0
  -25.9340  -34.9660   23.4490 C   0  0  0  0  0  0  0  0  0  0  0  0
  -26.5750  -34.8590   22.4010 O   0  0  0  0  0  0  0  0  0  0  0  0
  -25.0470  -34.0720   25.0350 H   0  0  0  0  0  0  0  0  0  0  0  0
  -24.1850  -36.7510   23.1500 C   0  0  0  0  0  1  0  0  0  0  0  0
  -25.4580  -36.3560   23.9150 C   0  0  0  0  0  3  0  0  0  0  0  0
  -27.6210  -37.2530   24.6570 C   0  0  0  0  0  1  0  0  0  0  0  0
  -26.4820  -37.4120   23.7560 N   0  0  0  0  0  0  0  0  0  0  0  0
  -26.0790  -38.3320   23.9150 H   0  0  0  0  0  0  0  0  0  0  0  0
  -26.4330  -31.7370   25.1580 C   0  0  1  0  0  0  0  0  0  0  0  0
  -25.3400  -31.5040   26.2260 C   0  0  0  0  0  1  0  0  0  0  0  0
  -27.0060  -30.3580   24.7620 C   0  0  0  0  0  1  0  0  0  0  0  0
  -27.5900  -32.5220   25.8190 C   0  0  0  0  0  1  0  0  0  0  0  0
  1  2  2  0
  3  1  1  0
  4  5  2  0
  5  2  1  0
  6  3  2  0
  6  4  1  0
  7  4  1  0
  8  7  1  0
  9 22  1  0
 10 15  1  0
 11 12  1  0
 11 10  1  0
 13 12  1  0
 13 26  1  0
 13 14  1  0
 15  9  1  0
 15 14  1  0
 16  9  2  0
 17 21  1  0
 19 17  1  0
 19 22  1  0
 20 18  1  0
 21  7  1  0
 21 18  1  0
 22 20  1  0
 23 24  2  0
 24 43  1  0
 25 24  1  0
 25 28  1  0
 26 27  1  0
 26 23  1  0
 27 25  2  0
 28 29  1  0
 29 30  2  0
 31 34  1  0
 31 30  1  0
 32 31  2  0
 33 32  1  0
 33 28  2  0
 34 35  1  0
 35 36  1  0
 36 37  2  0
 38 37  1  0
 38 42  1  0
 39 38  2  0
 40 35  2  0
 40 39  1  0
 41 40  1  0
 43 44  1  0
 44 47  1  0
 44 46  1  0
 45 43  2  0
 48 49  1  0
 48 23  1  0
 50 48  1  0
 51 52  1  0
 51  3  1  0
 53 64  2  0
 54 52  1  0
 54 59  1  0
 55 63  1  0
 55 65  1  0
 56 62  1  0
 56 58  1  0
 57 63  1  0
 58 57  1  0
 59 58  2  0
 60 61  1  0
 60 54  2  0
 61 56  2  0
 62 55  1  0
 63 53  1  0
 65 67  2  0
 66 65  1  0
 68 66  1  0
 69 78  2  0
 69 74  1  0
 70 66  1  0
 70 74  1  0
 71 70  1  0
 72 73  1  0
 72 71  1  0
 73 69  1  0
 74 75  2  0
 75 76  1  0
 77 76  2  0
 78 77  1  0
 79 53  1  0
 79 80  1  0
 79 89  1  0
 80 83  1  0
 81 85  1  0
 81 80  1  0
 82 81  2  0
 85 84  1  0
 87 85  1  0
 87 88  1  0
 87 86  1  0
 89 92  1  1
 89 90  1  0
 91 89  1  0
M  ISO  4   9 100  22 100  51 101  52 101
M  END
>  <TORSDO>  (85) 
F 17

>  <SCORE>  (85) 
-15.013

>  <name>  (85) 
84

>  <ligand_id>  (85) 
84

>  <original_smiles>  (85) 
[H]c1nc(N([H])C2([H])C([H])([H])C([H])([H])N(C(=O)N3C([H])([H])C([H])([H])C([H])([H])C([H])(n4nc(-c5c([H])c([H])c(Oc6c([H])c([H])c(F)c([H])c6F)c([H])c5[H])c(C(=O)N([H])[H])c4N([H])[H])C3([H])[H])C([H])([H])C2([H])[H])nc(C([H])([H])Oc2c([H])c([H])c3c(c2[H])C([H])([H])N(C(=O)C([H])(N([H])C(=O)C([H])(N([H])C([H])([H])[H])C([H])([H])[H])C(C([H])([H])[H])(C([H])([H])[H])C([H])([H])[H])C([H])(C(=O)N([H])C2([H])c4c([H])c([H])c([H])c([H])c4C([H])([H])C([H])([H])C2([H])[H])C3([H])[H])c1[H]

>  <smiles>  (85) 
[H]c1nc(N([H])C2([H])C([H])([H])C([H])([H])N(C(=O)N3C([H])([H])C([H])([H])C([H])([H])C([H])(n4nc(-c5c([H])c([H])c(Oc6c([H])c([H])c(F)c([H])c6F)c([H])c5[H])c(C(=O)N([H])[H])c4N([H])[H])C3([H])[H])C([H])([H])C2([H])[H])nc(C([H])([H])Oc2c([H])c([H])c3c(c2[H])C([H])([H])N(C(=O)C([H])(N([H])C(=O)C([H])(N([H])C([H])([H])[H])C([H])([H])[H])C(C([H])([H])[H])(C([H])([H])[H])C([H])([H])[H])C([H])(C(=O)N([H])C2([H])c4c([H])c([H])c([H])c([H])c4C([H])([H])C([H])([H])C2([H])[H])C3([H])[H])c1[H]

$$$$
85:0:0
     RDKit          3D

 94103  0  0  1  0  0  0  0  0999 V2000
  -29.6030  -23.3520   21.4840 C   0  0  0  0  0  0  0  0  0  0  0  0
  -28.7880  -23.6250   20.3430 C   0  0  0  0  0  0  0  0  0  0  0  0
  -29.9720  -24.3090   22.5760 C   0  0  0  0  0  1  0  0  0  0  0  0
  -30.0130  -22.0890   21.4960 N   0  0  0  0  0  0  0  0  0  0  0  0
  -28.7270  -22.4670   19.6700 N   0  0  0  0  0  0  0  0  0  0  0  0
  -29.4670  -21.5190   20.3830 N   0  0  0  0  0  0  0  0  0  0  0  0
  -29.4140  -19.9040   18.4260 C   0  0  0  0  0  2  0  0  0  0  0  0
  -28.0580  -19.2090   18.5960 C   0  0  0  0  0  2  0  0  0  0  0  0
  -29.8980  -20.1290   19.8650 C   0  0  0  0  0  3  0  0  0  0  0  0
  -29.4060  -18.7260   20.5290 C   0  0  0  0  0  3  0  0  0  0  0  0
  -28.1180  -18.4550   19.8640 N   0  0  0  0  0  4  0  0  0  0  0  0
  -28.0180  -17.4710   19.6910 H   0  0  0  0  0  0  0  0  0  0  0  0
  -27.3580  -18.7520   20.4580 H   0  0  0  0  0  0  0  0  0  0  0  0
  -30.3620  -17.4030   20.3740 C   0  0  0  0  0  2  0  0  0  0  0  0
  -30.5930  -14.7920   20.3320 C   0  0  0  0  0  0  0  0  0  0  0  0
  -30.3580  -12.5240   19.3110 C   0  0  0  0  0  2  0  0  0  0  0  0
  -29.4140  -12.6000   18.0900 C   0  0  0  0  0  2  0  0  0  0  0  0
  -27.9480  -12.4160   18.5280 C   0  0  0  0  0  2  0  0  0  0  0  0
  -27.5780  -13.3000   19.7490 C   0  0  0  0  0  3  0  0  0  0  0  0
  -28.6460  -13.2250   20.8660 C   0  0  0  0  0  2  0  0  0  0  0  0
  -29.9400  -13.5770   20.2660 N   0  0  0  0  0  0  0  0  0  0  0  0
  -31.7660  -14.8720   19.9640 O   0  0  0  0  0  0  0  0  0  0  0  0
  -29.8770  -15.9540   20.5910 N   0  0  0  0  0  0  0  0  0  0  0  0
  -28.9400  -15.8140   20.9390 H   0  0  0  0  0  0  0  0  0  0  0  0
  -25.1890  -13.8740   20.4860 C   0  0  0  0  0  0  0  0  0  0  0  0
  -24.1330  -13.0950   20.8680 C   0  0  0  0  0  0  0  0  0  0  0  0
  -24.6040  -11.7460   20.8390 C   0  0  0  0  0  0  0  0  0  0  0  0
  -26.2400  -13.0020   20.2480 N   0  0  0  0  0  0  0  0  0  0  0  0
  -25.8940  -11.7170   20.5230 N   0  0  0  0  0  0  0  0  0  0  0  0
  -23.8860  -10.4810   21.0320 C   0  0  0  0  0  0  0  0  0  0  0  0
  -24.3310   -9.5120   21.9590 C   0  0  0  0  0  3  0  0  0  0  0  0
  -23.6120   -8.3130   22.1430 C   0  0  0  0  0  3  0  0  0  0  0  0
  -22.4320   -8.0710   21.4010 C   0  0  0  0  0  0  0  0  0  0  0  0
  -22.0050   -9.0280   20.4630 C   0  0  0  0  0  3  0  0  0  0  0  0
  -22.7250  -10.2190   20.2780 C   0  0  0  0  0  3  0  0  0  0  0  0
  -21.6820   -6.9240   21.4960 O   0  0  0  0  0  0  0  0  0  0  0  0
  -21.6560   -6.1750   22.6450 C   0  0  0  0  0  0  0  0  0  0  0  0
  -21.2520   -6.7220   23.8820 C   0  0  0  0  0  3  0  0  0  0  0  0
  -21.1720   -5.8990   25.0230 C   0  0  0  0  0  3  0  0  0  0  0  0
  -21.4870   -4.5300   24.9300 C   0  0  0  0  0  0  0  0  0  0  0  0
  -21.8860   -3.9830   23.6970 C   0  0  0  0  0  3  0  0  0  0  0  0
  -21.9670   -4.8030   22.5580 C   0  0  0  0  0  0  0  0  0  0  0  0
  -22.3320   -4.2650   21.3690 F   0  0  0  0  0  0  0  0  0  0  0  0
  -21.4040   -3.7370   26.0240 F   0  0  0  0  0  0  0  0  0  0  0  0
  -22.7320  -13.5640   21.1380 C   0  0  0  0  0  0  0  0  0  0  0  0
  -22.0100  -12.8720   22.0110 N   0  0  0  0  0  0  0  0  0  0  0  0
  -22.2880  -14.5830   20.6090 O   0  0  0  0  0  0  0  0  0  0  0  0
  -22.3820  -12.0500   22.4620 H   0  0  0  0  0  0  0  0  0  0  0  0
  -21.0690  -13.1700   22.2310 H   0  0  0  0  0  0  0  0  0  0  0  0
  -25.3390  -15.2430   20.2890 N   0  0  0  0  0  0  0  0  0  0  0  0
  -24.5210  -15.8420   20.3070 H   0  0  0  0  0  0  0  0  0  0  0  0
  -26.0760  -15.6050   19.7010 H   0  0  0  0  0  0  0  0  0  0  0  0
  -27.9080  -24.8930   19.9610 C   0  0  0  0  0  2  0  0  0  0  0  0
  -28.2360  -26.3430   20.2430 O   0  0  0  0  0  0  0  0  0  0  0  0
  -24.5900  -31.8960   23.2250 C   0  0  0  0  0  0  0  0  0  0  0  0
  -27.1640  -27.2770   20.1600 C   0  0  0  0  0  0  0  0  0  0  0  0
  -23.3780  -30.5060   21.5890 C   0  0  0  0  0  3  0  0  0  0  0  0
  -24.8170  -28.9540   20.1530 C   0  0  0  0  0  0  0  0  0  0  0  0
  -25.9240  -30.7990   21.4040 C   0  0  0  0  0  2  0  0  0  0  0  0
  -25.9960  -29.4160   20.7540 C   0  0  0  0  0  0  0  0  0  0  0  0
  -27.1700  -28.5890   20.7490 C   0  0  0  0  0  3  0  0  0  0  0  0
  -25.9610  -26.9060   19.5090 C   0  0  0  0  0  3  0  0  0  0  0  0
  -24.8060  -27.7080   19.5190 C   0  0  0  0  0  3  0  0  0  0  0  0
  -23.5870  -29.8370   20.2080 C   0  0  0  0  0  2  0  0  0  0  0  0
  -24.6500  -31.0840   22.1290 N   0  0  0  0  0  0  0  0  0  0  0  0
  -23.5090  -32.1770   23.7620 O   0  0  0  0  0  0  0  0  0  0  0  0
  -22.7090  -29.4910   22.5490 C   0  0  0  0  0  0  0  0  0  0  0  0
  -21.3820  -29.3220   22.4270 N   0  0  0  0  0  0  0  0  0  0  0  0
  -23.3880  -28.8600   23.3640 O   0  0  0  0  0  0  0  0  0  0  0  0
  -20.8920  -29.8820   21.7400 H   0  0  0  0  0  0  0  0  0  0  0  0
  -17.9990  -28.1370   22.9400 C   0  0  0  0  0  0  0  0  0  0  0  0
  -20.5600  -28.3880   23.1990 C   0  0  0  0  0  3  0  0  0  0  0  0
  -20.6540  -26.9550   22.6250 C   0  0  0  0  0  2  0  0  0  0  0  0
  -19.5470  -26.6380   21.6140 C   0  0  0  0  0  2  0  0  0  0  0  0
  -18.1680  -26.7890   22.2630 C   0  0  0  0  0  2  0  0  0  0  0  0
  -19.1220  -28.8950   23.3670 C   0  0  0  0  0  0  0  0  0  0  0  0
  -18.9110  -30.1580   23.9610 C   0  0  0  0  0  3  0  0  0  0  0  0
  -17.6090  -30.6650   24.1340 C   0  0  0  0  0  3  0  0  0  0  0  0
  -16.4990  -29.9050   23.7230 C   0  0  0  0  0  3  0  0  0  0  0  0
  -16.6960  -28.6430   23.1330 C   0  0  0  0  0  3  0  0  0  0  0  0
  -25.8740  -32.5270   23.8440 C   0  0  0  0  0  3  0  0  0  0  0  0
  -26.3930  -31.7490   25.1140 C   0  0  1  0  0  0  0  0  0  0  0  0
  -25.3030  -31.5110   26.1860 C   0  0  0  0  0  1  0  0  0  0  0  0
  -26.9700  -30.3720   24.7170 C   0  0  0  0  0  1  0  0  0  0  0  0
  -27.5500  -32.5360   25.7740 C   0  0  0  0  0  1  0  0  0  0  0  0
  -25.5650  -33.9240   24.1840 N   0  0  0  0  0  0  0  0  0  0  0  0
  -25.8860  -34.9810   23.4270 C   0  0  0  0  0  0  0  0  0  0  0  0
  -26.5420  -34.8840   22.3860 O   0  0  0  0  0  0  0  0  0  0  0  0
  -24.9830  -34.0700   24.9950 H   0  0  0  0  0  0  0  0  0  0  0  0
  -24.1500  -36.7730   23.1110 C   0  0  0  0  0  1  0  0  0  0  0  0
  -25.4060  -36.3680   23.8980 C   0  0  0  0  0  3  0  0  0  0  0  0
  -27.5540  -37.2520   24.6930 C   0  0  0  0  0  1  0  0  0  0  0  0
  -26.4360  -37.4220   23.7700 N   0  0  0  0  0  0  0  0  0  0  0  0
  -26.0310  -38.3410   23.9290 H   0  0  0  0  0  0  0  0  0  0  0  0
  1  4  2  0
  1  3  1  0
  2  1  1  0
  5  2  2  0
  5  6  1  0
  6  4  1  0
  7  8  1  0
  8 11  1  0
  9  7  1  0
  9  6  1  0
  9 10  1  0
 10 14  1  0
 11 13  1  0
 11 10  1  0
 12 11  1  0
 14 23  1  0
 15 23  1  0
 16 21  1  0
 17 18  1  0
 17 16  1  0
 19 18  1  0
 19 28  1  0
 19 20  1  0
 21 15  1  0
 21 20  1  0
 22 15  2  0
 23 24  1  0
 25 26  2  0
 26 45  1  0
 27 26  1  0
 27 30  1  0
 28 25  1  0
 28 29  1  0
 29 27  2  0
 30 31  1  0
 31 32  2  0
 33 36  1  0
 33 32  1  0
 34 33  2  0
 35 34  1  0
 35 30  2  0
 36 37  1  0
 37 38  1  0
 38 39  2  0
 40 39  1  0
 40 44  1  0
 41 40  2  0
 42 37  2  0
 42 41  1  0
 43 42  1  0
 45 46  1  0
 46 49  1  0
 46 48  1  0
 47 45  2  0
 50 51  1  0
 50 25  1  0
 52 50  1  0
 53 54  1  0
 53  2  1  0
 55 66  2  0
 56 54  1  0
 56 61  1  0
 57 65  1  0
 57 67  1  0
 58 64  1  0
 58 60  1  0
 59 65  1  0
 60 59  1  0
 61 60  2  0
 62 63  1  0
 62 56  2  0
 63 58  2  0
 64 57  1  0
 65 55  1  0
 67 69  2  0
 68 67  1  0
 70 68  1  0
 71 80  2  0
 71 76  1  0
 72 68  1  0
 72 76  1  0
 73 72  1  0
 74 75  1  0
 74 73  1  0
 75 71  1  0
 76 77  2  0
 77 78  1  0
 79 78  2  0
 80 79  1  0
 81 55  1  0
 81 86  1  0
 81 82  1  0
 82 85  1  1
 82 83  1  0
 84 82  1  0
 86 89  1  0
 87 91  1  0
 87 86  1  0
 88 87  2  0
 91 90  1  0
 93 91  1  0
 93 94  1  0
 93 92  1  0
M  ISO  4  15 100  23 100  53 101  54 101
M  END
>  <TORSDO>  (86) 
F 19

>  <SCORE>  (86) 
-14.375

>  <name>  (86) 
85

>  <ligand_id>  (86) 
85

>  <original_smiles>  (86) 
[H]c1c([H])c([H])c2c(c1[H])C([H])([H])C([H])([H])C([H])([H])C2([H])N([H])C(=O)C1([H])N(C(=O)C([H])(N([H])C(=O)C([H])(N([H])C([H])([H])[H])C([H])([H])[H])C(C([H])([H])[H])(C([H])([H])[H])C([H])([H])[H])C([H])([H])c2c([H])c(OC([H])([H])c3nn(C4([H])C([H])([H])C([H])([H])[N+]([H])([H])C4([H])C([H])([H])N([H])C(=O)N4C([H])([H])C([H])([H])C([H])([H])C([H])(n5nc(-c6c([H])c([H])c(Oc7c([H])c([H])c(F)c([H])c7F)c([H])c6[H])c(C(=O)N([H])[H])c5N([H])[H])C4([H])[H])nc3C([H])([H])[H])c([H])c([H])c2C1([H])[H]

>  <smiles>  (86) 
[H]c1c([H])c([H])c2c(c1[H])C([H])([H])C([H])([H])C([H])([H])C2([H])N([H])C(=O)C1([H])N(C(=O)C([H])(N([H])C(=O)C([H])(N([H])C([H])([H])[H])C([H])([H])[H])C(C([H])([H])[H])(C([H])([H])[H])C([H])([H])[H])C([H])([H])c2c([H])c(OC([H])([H])c3nn(C4([H])C([H])([H])C([H])([H])[N+]([H])([H])C4([H])C([H])([H])N([H])C(=O)N4C([H])([H])C([H])([H])C([H])([H])C([H])(n5nc(-c6c([H])c([H])c(Oc7c([H])c([H])c(F)c([H])c7F)c([H])c6[H])c(C(=O)N([H])[H])c5N([H])[H])C4([H])[H])nc3C([H])([H])[H])c([H])c([H])c2C1([H])[H]

$$$$
86:0:0
     RDKit          3D

 95104  0  0  1  0  0  0  0  0999 V2000
  -29.4310  -21.6710   21.1130 C   0  0  0  0  0  3  0  0  0  0  0  0
  -28.7910  -23.7160   19.8310 C   0  0  0  0  0  0  0  0  0  0  0  0
  -28.9840  -23.0410   21.0770 C   0  0  0  0  0  0  0  0  0  0  0  0
  -29.1360  -22.9180   18.6930 C   0  0  0  0  0  3  0  0  0  0  0  0
  -29.7160  -20.8870   19.9560 C   0  0  0  0  0  0  0  0  0  0  0  0
  -30.1130  -18.5100   21.0060 C   0  0  0  0  0  2  0  0  0  0  0  0
  -29.9010  -18.4540   18.9530 C   0  0  0  0  0  2  0  0  0  0  0  0
  -30.6000  -17.4590   19.9460 C   0  0  0  0  0  3  0  0  0  0  0  0
  -29.0100  -23.4460   17.2740 C   0  0  0  0  0  1  0  0  0  0  0  0
  -29.5580  -21.6120   18.8080 N   0  0  0  0  0  0  0  0  0  0  0  0
  -30.2520  -19.5060   19.9280 N   0  0  0  0  0  0  0  0  0  0  0  0
  -29.7800  -21.1240   17.9350 H   0  0  0  0  0  0  0  0  0  0  0  0
  -30.8470  -14.8670   19.8070 C   0  0  0  0  0  0  0  0  0  0  0  0
  -30.5950  -12.5420   18.9410 C   0  0  0  0  0  2  0  0  0  0  0  0
  -29.5890  -12.5320   17.7700 C   0  0  0  0  0  2  0  0  0  0  0  0
  -28.1490  -12.3740   18.2930 C   0  0  0  0  0  2  0  0  0  0  0  0
  -27.8310  -13.3340   19.4710 C   0  0  0  0  0  3  0  0  0  0  0  0
  -28.9530  -13.3290   20.5340 C   0  0  0  0  0  2  0  0  0  0  0  0
  -30.2120  -13.6480   19.8460 N   0  0  0  0  0  0  0  0  0  0  0  0
  -32.0030  -14.9500   19.3850 O   0  0  0  0  0  0  0  0  0  0  0  0
  -30.1180  -16.0130   20.0520 N   0  0  0  0  0  0  0  0  0  0  0  0
  -29.1630  -15.8710   20.3440 H   0  0  0  0  0  0  0  0  0  0  0  0
  -25.5180  -13.9510   20.3950 C   0  0  0  0  0  0  0  0  0  0  0  0
  -24.4660  -13.1890   20.8210 C   0  0  0  0  0  0  0  0  0  0  0  0
  -24.8930  -11.8300   20.7140 C   0  0  0  0  0  0  0  0  0  0  0  0
  -26.5220  -13.0590   20.0550 N   0  0  0  0  0  0  0  0  0  0  0  0
  -26.1570  -11.7750   20.3080 N   0  0  0  0  0  0  0  0  0  0  0  0
  -24.1530  -10.5770   20.9200 C   0  0  0  0  0  0  0  0  0  0  0  0
  -24.5860   -9.6070   21.8500 C   0  0  0  0  0  3  0  0  0  0  0  0
  -23.8450   -8.4200   22.0440 C   0  0  0  0  0  3  0  0  0  0  0  0
  -22.6580   -8.1960   21.3060 C   0  0  0  0  0  0  0  0  0  0  0  0
  -22.2450   -9.1550   20.3650 C   0  0  0  0  0  3  0  0  0  0  0  0
  -22.9850  -10.3330   20.1700 C   0  0  0  0  0  3  0  0  0  0  0  0
  -21.8890   -7.0620   21.4090 O   0  0  0  0  0  0  0  0  0  0  0  0
  -21.8030   -6.3550   22.5820 C   0  0  0  0  0  0  0  0  0  0  0  0
  -21.2760   -6.9270   23.7600 C   0  0  0  0  0  3  0  0  0  0  0  0
  -21.1420   -6.1430   24.9240 C   0  0  0  0  0  3  0  0  0  0  0  0
  -21.5240   -4.7890   24.9090 C   0  0  0  0  0  0  0  0  0  0  0  0
  -22.0440   -4.2160   23.7340 C   0  0  0  0  0  3  0  0  0  0  0  0
  -22.1800   -4.9970   22.5740 C   0  0  0  0  0  0  0  0  0  0  0  0
  -22.6620   -4.4350   21.4390 F   0  0  0  0  0  0  0  0  0  0  0  0
  -21.3890   -4.0330   26.0230 F   0  0  0  0  0  0  0  0  0  0  0  0
  -23.1040  -13.6870   21.2120 C   0  0  0  0  0  0  0  0  0  0  0  0
  -22.4260  -12.9780   22.1070 N   0  0  0  0  0  0  0  0  0  0  0  0
  -22.6550  -14.7390   20.7580 O   0  0  0  0  0  0  0  0  0  0  0  0
  -22.8030  -12.1250   22.4930 H   0  0  0  0  0  0  0  0  0  0  0  0
  -21.5160  -13.2930   22.4110 H   0  0  0  0  0  0  0  0  0  0  0  0
  -25.7000  -15.3230   20.2450 N   0  0  0  0  0  0  0  0  0  0  0  0
  -24.9480  -15.9820   20.4150 H   0  0  0  0  0  0  0  0  0  0  0  0
  -26.5120  -15.7530   19.8200 H   0  0  0  0  0  0  0  0  0  0  0  0
  -29.4840  -23.5370   23.4690 C   0  0  0  0  0  1  0  0  0  0  0  0
  -28.6830  -23.7330   22.2670 N   0  0  0  0  0  0  0  0  0  0  0  0
  -28.1980  -24.6220   22.1760 H   0  0  0  0  0  0  0  0  0  0  0  0
  -27.9210  -25.0510   19.6860 C   0  0  0  0  0  2  0  0  0  0  0  0
  -28.2690  -26.4490   20.1270 O   0  0  0  0  0  0  0  0  0  0  0  0
  -24.6650  -31.8680   23.3850 C   0  0  0  0  0  0  0  0  0  0  0  0
  -27.2070  -27.3960   20.0900 C   0  0  0  0  0  0  0  0  0  0  0  0
  -23.4430  -30.5620   21.6910 C   0  0  0  0  0  3  0  0  0  0  0  0
  -24.8710  -29.0810   20.1750 C   0  0  0  0  0  0  0  0  0  0  0  0
  -25.9910  -30.8490   21.5160 C   0  0  0  0  0  2  0  0  0  0  0  0
  -26.0540  -29.5030   20.7970 C   0  0  0  0  0  0  0  0  0  0  0  0
  -27.2220  -28.6730   20.7510 C   0  0  0  0  0  3  0  0  0  0  0  0
  -26.0010  -27.0700   19.4170 C   0  0  0  0  0  3  0  0  0  0  0  0
  -24.8510  -27.8720   19.4750 C   0  0  0  0  0  3  0  0  0  0  0  0
  -23.6440  -29.9650   20.2760 C   0  0  0  0  0  2  0  0  0  0  0  0
  -24.7190  -31.1070   22.2530 N   0  0  0  0  0  0  0  0  0  0  0  0
  -23.5860  -32.1290   23.9370 O   0  0  0  0  0  0  0  0  0  0  0  0
  -22.7760  -29.5010   22.6010 C   0  0  0  0  0  0  0  0  0  0  0  0
  -21.4550  -29.3080   22.4430 N   0  0  0  0  0  0  0  0  0  0  0  0
  -23.4480  -28.8590   23.4130 O   0  0  0  0  0  0  0  0  0  0  0  0
  -20.9720  -29.8790   21.7640 H   0  0  0  0  0  0  0  0  0  0  0  0
  -18.0900  -28.0310   22.8280 C   0  0  0  0  0  0  0  0  0  0  0  0
  -20.6350  -28.3350   23.1690 C   0  0  0  0  0  3  0  0  0  0  0  0
  -20.7810  -26.9200   22.5630 C   0  0  0  0  0  2  0  0  0  0  0  0
  -19.7120  -26.6000   21.5130 C   0  0  0  0  0  2  0  0  0  0  0  0
  -18.3110  -26.7020   22.1230 C   0  0  0  0  0  2  0  0  0  0  0  0
  -19.1820  -28.8040   23.3060 C   0  0  0  0  0  0  0  0  0  0  0  0
  -18.9220  -30.0470   23.9220 C   0  0  0  0  0  3  0  0  0  0  0  0
  -17.6040  -30.5170   24.0690 C   0  0  0  0  0  3  0  0  0  0  0  0
  -16.5250  -29.7400   23.6090 C   0  0  0  0  0  3  0  0  0  0  0  0
  -16.7700  -28.4990   22.9950 C   0  0  0  0  0  3  0  0  0  0  0  0
  -25.9550  -32.4620   24.0270 C   0  0  0  0  0  3  0  0  0  0  0  0
  -25.6860  -33.8740   24.3390 N   0  0  0  0  0  0  0  0  0  0  0  0
  -26.0140  -34.9050   23.5480 C   0  0  0  0  0  0  0  0  0  0  0  0
  -26.6460  -34.7670   22.4970 O   0  0  0  0  0  0  0  0  0  0  0  0
  -25.1260  -34.0570   25.1580 H   0  0  0  0  0  0  0  0  0  0  0  0
  -24.2910  -36.7120   23.2450 C   0  0  0  0  0  1  0  0  0  0  0  0
  -25.5720  -36.3110   23.9940 C   0  0  0  0  0  3  0  0  0  0  0  0
  -27.7540  -37.1970   24.6890 C   0  0  0  0  0  1  0  0  0  0  0  0
  -26.6100  -37.3460   23.7930 N   0  0  0  0  0  0  0  0  0  0  0  0
  -26.2220  -38.2760   23.9290 H   0  0  0  0  0  0  0  0  0  0  0  0
  -26.4160  -31.6880   25.3230 C   0  0  1  0  0  0  0  0  0  0  0  0
  -25.2900  -31.4960   26.3660 C   0  0  0  0  0  1  0  0  0  0  0  0
  -26.9680  -30.2900   24.9610 C   0  0  0  0  0  1  0  0  0  0  0  0
  -27.5740  -32.4550   26.0060 C   0  0  0  0  0  1  0  0  0  0  0  0
  2  3  2  0
  3  1  1  0
  3 52  1  0
  4  9  1  0
  4 10  1  0
  4  2  1  0
  5  1  2  0
  7 11  1  0
  7  8  1  0
  8 21  1  0
  8  6  1  0
 10  5  1  0
 11  5  1  0
 11  6  1  0
 12 10  1  0
 13 19  1  0
 13 21  1  0
 14 19  1  0
 15 16  1  0
 15 14  1  0
 17 16  1  0
 17 26  1  0
 17 18  1  0
 19 18  1  0
 20 13  2  0
 21 22  1  0
 23 24  2  0
 24 43  1  0
 25 24  1  0
 25 28  1  0
 26 27  1  0
 26 23  1  0
 27 25  2  0
 28 29  1  0
 29 30  2  0
 31 34  1  0
 31 30  1  0
 32 31  2  0
 33 32  1  0
 33 28  2  0
 34 35  1  0
 35 36  1  0
 36 37  2  0
 38 37  1  0
 38 42  1  0
 39 38  2  0
 40 35  2  0
 40 39  1  0
 41 40  1  0
 43 44  1  0
 44 47  1  0
 44 46  1  0
 45 43  2  0
 48 23  1  0
 48 49  1  0
 50 48  1  0
 52 51  1  0
 53 52  1  0
 54  2  1  0
 54 55  1  0
 56 67  2  0
 57 55  1  0
 57 62  1  0
 58 66  1  0
 58 68  1  0
 59 65  1  0
 59 61  1  0
 60 66  1  0
 61 60  1  0
 62 61  2  0
 63 64  1  0
 63 57  2  0
 64 59  2  0
 65 58  1  0
 66 56  1  0
 68 70  2  0
 69 68  1  0
 71 69  1  0
 72 81  2  0
 72 77  1  0
 73 69  1  0
 73 77  1  0
 74 73  1  0
 75 76  1  0
 75 74  1  0
 76 72  1  0
 77 78  2  0
 78 79  1  0
 80 79  2  0
 81 80  1  0
 82 56  1  0
 82 83  1  0
 82 92  1  0
 83 86  1  0
 84 88  1  0
 84 83  1  0
 85 84  2  0
 88 87  1  0
 90 91  1  0
 90 88  1  0
 90 89  1  0
 92 95  1  1
 92 93  1  0
 94 92  1  0
M  ISO  4  13 100  21 100  54 101  55 101
M  END
>  <TORSDO>  (87) 
F 18

>  <SCORE>  (87) 
-14.400

>  <name>  (87) 
86

>  <ligand_id>  (87) 
86

>  <original_smiles>  (87) 
[H]c1c([H])c([H])c2c(c1[H])C([H])([H])C([H])([H])C([H])([H])C2([H])N([H])C(=O)C1([H])N(C(=O)C([H])(N([H])C(=O)C([H])(N([H])C([H])([H])[H])C([H])([H])[H])C(C([H])([H])[H])(C([H])([H])[H])C([H])([H])[H])C([H])([H])c2c([H])c(OC([H])([H])c3c(N([H])C([H])([H])[H])c([H])c(N4C([H])([H])C([H])(N([H])C(=O)N5C([H])([H])C([H])([H])C([H])([H])C([H])(n6nc(-c7c([H])c([H])c(Oc8c([H])c([H])c(F)c([H])c8F)c([H])c7[H])c(C(=O)N([H])[H])c6N([H])[H])C5([H])[H])C4([H])[H])[n+]([H])c3C([H])([H])[H])c([H])c([H])c2C1([H])[H]

>  <smiles>  (87) 
[H]c1c([H])c([H])c2c(c1[H])C([H])([H])C([H])([H])C([H])([H])C2([H])N([H])C(=O)C1([H])N(C(=O)C([H])(N([H])C(=O)C([H])(N([H])C([H])([H])[H])C([H])([H])[H])C(C([H])([H])[H])(C([H])([H])[H])C([H])([H])[H])C([H])([H])c2c([H])c(OC([H])([H])c3c(N([H])C([H])([H])[H])c([H])c(N4C([H])([H])C([H])(N([H])C(=O)N5C([H])([H])C([H])([H])C([H])([H])C([H])(n6nc(-c7c([H])c([H])c(Oc8c([H])c([H])c(F)c([H])c8F)c([H])c7[H])c(C(=O)N([H])[H])c6N([H])[H])C5([H])[H])C4([H])[H])[n+]([H])c3C([H])([H])[H])c([H])c([H])c2C1([H])[H]

$$$$
87:0:0
     RDKit          3D

 93102  0  0  1  0  0  0  0  0999 V2000
  -31.7480  -19.3250   20.8220 C   0  0  0  0  0  3  0  0  0  0  0  0
  -30.5680  -18.5430   20.6930 C   0  0  0  0  0  0  0  0  0  0  0  0
  -29.3200  -20.4420   21.2080 C   0  0  0  0  0  0  0  0  0  0  0  0
  -30.4940  -21.2440   21.2000 C   0  0  0  0  0  0  0  0  0  0  0  0
  -27.9420  -21.0480   21.3960 C   0  0  0  0  0  1  0  0  0  0  0  0
  -31.7130  -20.6620   21.0650 N   0  0  0  0  0  0  0  0  0  0  0  0
  -29.3560  -19.1000   20.9730 N   0  0  0  0  0  0  0  0  0  0  0  0
  -30.9150  -14.9490   20.4320 C   0  0  0  0  0  0  0  0  0  0  0  0
  -30.8160  -12.5470   19.8460 C   0  0  0  0  0  2  0  0  0  0  0  0
  -29.9620  -12.2840   18.5830 C   0  0  0  0  0  2  0  0  0  0  0  0
  -28.4370  -12.3530   18.8590 C   0  0  0  0  0  2  0  0  0  0  0  0
  -27.9750  -13.3870   19.9320 C   0  0  0  0  0  3  0  0  0  0  0  0
  -28.9650  -13.4850   21.1110 C   0  0  0  0  0  2  0  0  0  0  0  0
  -30.2960  -13.7330   20.5460 N   0  0  0  0  0  0  0  0  0  0  0  0
  -32.1430  -15.0480   20.4750 O   0  0  0  0  0  0  0  0  0  0  0  0
  -31.0110  -16.3310   17.6030 C   0  0  0  0  0  2  0  0  0  0  0  0
  -31.5440  -17.4480   18.4940 C   0  0  0  0  0  2  0  0  0  0  0  0
  -29.8520  -15.7260   18.4200 C   0  0  0  0  0  2  0  0  0  0  0  0
  -30.5470  -17.4000   19.6570 C   0  0  0  0  0  3  0  0  0  0  0  0
  -30.1650  -15.9570   19.8540 N   0  0  0  0  0  0  0  0  0  0  0  0
  -25.5720  -14.0440   20.5670 C   0  0  0  0  0  0  0  0  0  0  0  0
  -24.4720  -13.2920   20.8790 C   0  0  0  0  0  0  0  0  0  0  0  0
  -24.9080  -11.9320   20.8660 C   0  0  0  0  0  0  0  0  0  0  0  0
  -26.6060  -13.1400   20.3760 N   0  0  0  0  0  0  0  0  0  0  0  0
  -26.2100  -11.8670   20.6260 N   0  0  0  0  0  0  0  0  0  0  0  0
  -24.1510  -10.6820   21.0080 C   0  0  0  0  0  0  0  0  0  0  0  0
  -24.5370   -9.6900   21.9360 C   0  0  0  0  0  3  0  0  0  0  0  0
  -23.7830   -8.5040   22.0680 C   0  0  0  0  0  3  0  0  0  0  0  0
  -22.6320   -8.3040   21.2720 C   0  0  0  0  0  0  0  0  0  0  0  0
  -22.2670   -9.2840   20.3320 C   0  0  0  0  0  3  0  0  0  0  0  0
  -23.0210  -10.4620   20.1980 C   0  0  0  0  0  3  0  0  0  0  0  0
  -21.8520   -7.1730   21.3140 O   0  0  0  0  0  0  0  0  0  0  0  0
  -21.7640   -6.4040   22.4470 C   0  0  0  0  0  0  0  0  0  0  0  0
  -21.3330   -6.9380   23.6810 C   0  0  0  0  0  3  0  0  0  0  0  0
  -21.1910   -6.0950   24.8010 C   0  0  0  0  0  3  0  0  0  0  0  0
  -21.4700   -4.7210   24.6890 C   0  0  0  0  0  0  0  0  0  0  0  0
  -21.8940   -4.1860   23.4600 C   0  0  0  0  0  3  0  0  0  0  0  0
  -22.0380   -5.0250   22.3410 C   0  0  0  0  0  0  0  0  0  0  0  0
  -22.4270   -4.5000   21.1540 F   0  0  0  0  0  0  0  0  0  0  0  0
  -21.3260   -3.9090   25.7630 F   0  0  0  0  0  0  0  0  0  0  0  0
  -23.0720  -13.7940   21.0840 C   0  0  0  0  0  0  0  0  0  0  0  0
  -22.2930  -13.1110   21.9140 N   0  0  0  0  0  0  0  0  0  0  0  0
  -22.6770  -14.8280   20.5460 O   0  0  0  0  0  0  0  0  0  0  0  0
  -22.6250  -12.2770   22.3760 H   0  0  0  0  0  0  0  0  0  0  0  0
  -21.3510  -13.4300   22.0940 H   0  0  0  0  0  0  0  0  0  0  0  0
  -25.7720  -15.4120   20.4070 N   0  0  0  0  0  0  0  0  0  0  0  0
  -25.0190  -16.0860   20.4990 H   0  0  0  0  0  0  0  0  0  0  0  0
  -26.6590  -15.8410   20.1740 H   0  0  0  0  0  0  0  0  0  0  0  0
  -30.4710  -22.7860   21.3090 C   0  0  0  0  0  2  0  0  0  0  0  0
  -29.9110  -23.4480   20.1560 O   0  0  0  0  0  0  0  0  0  0  0  0
  -29.8850  -24.8900   20.2400 C   0  0  0  0  0  2  0  0  0  0  0  0
  -28.8900  -25.5340   19.2290 C   0  0  0  0  0  2  0  0  0  0  0  0
  -28.8520  -26.9850   19.2790 O   0  0  0  0  0  0  0  0  0  0  0  0
  -24.6270  -31.4730   22.8450 C   0  0  0  0  0  0  0  0  0  0  0  0
  -27.6150  -27.6150   19.3090 C   0  0  0  0  0  0  0  0  0  0  0  0
  -23.5220  -30.1180   21.0970 C   0  0  0  0  0  3  0  0  0  0  0  0
  -25.0810  -28.8880   19.4930 C   0  0  0  0  0  0  0  0  0  0  0  0
  -25.9930  -30.7470   20.8900 C   0  0  0  0  0  2  0  0  0  0  0  0
  -26.1990  -29.4610   20.1140 C   0  0  0  0  0  0  0  0  0  0  0  0
  -27.4640  -28.8340   20.0180 C   0  0  0  0  0  3  0  0  0  0  0  0
  -26.4790  -27.0770   18.6590 C   0  0  0  0  0  3  0  0  0  0  0  0
  -25.2190  -27.6980   18.7610 C   0  0  0  0  0  3  0  0  0  0  0  0
  -23.7580  -29.6020   19.6510 C   0  0  0  0  0  2  0  0  0  0  0  0
  -24.7310  -30.7900   21.6700 N   0  0  0  0  0  0  0  0  0  0  0  0
  -23.5400  -31.5780   23.4320 O   0  0  0  0  0  0  0  0  0  0  0  0
  -23.0070  -28.9460   21.9650 C   0  0  0  0  0  0  0  0  0  0  0  0
  -21.7030  -28.6450   21.8510 N   0  0  0  0  0  0  0  0  0  0  0  0
  -23.7740  -28.3180   22.6970 O   0  0  0  0  0  0  0  0  0  0  0  0
  -21.1380  -29.2080   21.2310 H   0  0  0  0  0  0  0  0  0  0  0  0
  -18.4850  -27.0620   22.2960 C   0  0  0  0  0  0  0  0  0  0  0  0
  -21.0100  -27.5590   22.5440 C   0  0  0  0  0  3  0  0  0  0  0  0
  -21.2420  -26.2090   21.8270 C   0  0  0  0  0  2  0  0  0  0  0  0
  -20.1500  -25.8700   20.8080 C   0  0  0  0  0  2  0  0  0  0  0  0
  -18.7790  -25.8090   21.4880 C   0  0  0  0  0  2  0  0  0  0  0  0
  -19.5310  -27.8910   22.7790 C   0  0  0  0  0  0  0  0  0  0  0  0
  -19.2010  -29.0640   23.4920 C   0  0  0  0  0  3  0  0  0  0  0  0
  -17.8570  -29.4080   23.7300 C   0  0  0  0  0  3  0  0  0  0  0  0
  -16.8260  -28.5730   23.2650 C   0  0  0  0  0  3  0  0  0  0  0  0
  -17.1400  -27.4020   22.5530 C   0  0  0  0  0  3  0  0  0  0  0  0
  -25.8600  -32.1720   23.4980 C   0  0  0  0  0  3  0  0  0  0  0  0
  -26.4890  -31.3440   24.6850 C   0  0  1  0  0  0  0  0  0  0  0  0
  -25.4560  -30.9060   25.7500 C   0  0  0  0  0  1  0  0  0  0  0  0
  -27.1880  -30.0710   24.1520 C   0  0  0  0  0  1  0  0  0  0  0  0
  -27.5830  -32.1820   25.3870 C   0  0  0  0  0  1  0  0  0  0  0  0
  -25.4250  -33.4960   23.9630 N   0  0  0  0  0  0  0  0  0  0  0  0
  -25.6550  -34.6430   23.3090 C   0  0  0  0  0  0  0  0  0  0  0  0
  -26.3240  -34.7030   22.2750 O   0  0  0  0  0  0  0  0  0  0  0  0
  -24.8250  -33.5170   24.7740 H   0  0  0  0  0  0  0  0  0  0  0  0
  -23.7630  -36.2870   23.1280 C   0  0  0  0  0  1  0  0  0  0  0  0
  -25.0440  -35.9290   23.8980 C   0  0  0  0  0  3  0  0  0  0  0  0
  -27.0930  -36.9260   24.8120 C   0  0  0  0  0  1  0  0  0  0  0  0
  -25.9730  -37.0800   23.8860 N   0  0  0  0  0  0  0  0  0  0  0  0
  -25.4860  -37.9400   24.1190 H   0  0  0  0  0  0  0  0  0  0  0  0
  1  6  1  0
  2  1  2  0
  2  7  1  0
  3  5  1  0
  4  3  1  0
  4 49  1  0
  6  4  2  0
  7  3  2  0
  8 15  2  0
  8 14  1  0
  9 14  1  0
 10 11  1  0
 10  9  1  0
 12 11  1  0
 12 24  1  0
 12 13  1  0
 14 13  1  0
 16 18  1  0
 16 17  1  0
 17 19  1  0
 18 20  1  0
 19 20  1  0
 19  2  1  0
 20  8  1  0
 21 22  2  0
 22 41  1  0
 23 22  1  0
 23 26  1  0
 24 21  1  0
 24 25  1  0
 25 23  2  0
 26 27  1  0
 27 28  2  0
 29 32  1  0
 29 28  1  0
 30 29  2  0
 31 30  1  0
 31 26  2  0
 32 33  1  0
 33 34  1  0
 34 35  2  0
 36 35  1  0
 36 40  1  0
 37 36  2  0
 38 33  2  0
 38 37  1  0
 39 38  1  0
 41 42  1  0
 42 45  1  0
 42 44  1  0
 43 41  2  0
 46 47  1  0
 46 21  1  0
 48 46  1  0
 50 51  1  0
 50 49  1  0
 52 53  1  0
 52 51  1  0
 53 55  1  0
 54 65  2  0
 55 60  1  0
 56 64  1  0
 56 66  1  0
 57 63  1  0
 57 59  1  0
 58 64  1  0
 59 58  1  0
 60 59  2  0
 61 62  1  0
 61 55  2  0
 62 57  2  0
 63 56  1  0
 64 54  1  0
 66 68  2  0
 67 66  1  0
 69 67  1  0
 70 79  2  0
 70 75  1  0
 71 67  1  0
 71 75  1  0
 72 71  1  0
 73 74  1  0
 73 72  1  0
 74 70  1  0
 75 76  2  0
 76 77  1  0
 78 77  2  0
 79 78  1  0
 80 54  1  0
 80 85  1  0
 80 81  1  0
 81 84  1  1
 81 82  1  0
 83 81  1  0
 85 88  1  0
 86 90  1  0
 86 85  1  0
 87 86  2  0
 90 89  1  0
 92 90  1  0
 92 93  1  0
 92 91  1  0
M  ISO  4   8 100  20 100  52 101  53 101
M  END
>  <TORSDO>  (88) 
F 20

>  <SCORE>  (88) 
-10.535

>  <name>  (88) 
87

>  <ligand_id>  (88) 
87

>  <original_smiles>  (88) 
[H]c1nc(C([H])([H])OC([H])([H])C([H])([H])Oc2c([H])c([H])c3c(c2[H])C([H])([H])N(C(=O)C([H])(N([H])C(=O)C([H])(N([H])C([H])([H])[H])C([H])([H])[H])C(C([H])([H])[H])(C([H])([H])[H])C([H])([H])[H])C([H])(C(=O)N([H])C2([H])c4c([H])c([H])c([H])c([H])c4C([H])([H])C([H])([H])C2([H])[H])C3([H])[H])c(C([H])([H])[H])nc1C1([H])N(C(=O)N2C([H])([H])C([H])([H])C([H])([H])C([H])(n3nc(-c4c([H])c([H])c(Oc5c([H])c([H])c(F)c([H])c5F)c([H])c4[H])c(C(=O)N([H])[H])c3N([H])[H])C2([H])[H])C([H])([H])C([H])([H])C1([H])[H]

>  <smiles>  (88) 
[H]c1nc(C([H])([H])OC([H])([H])C([H])([H])Oc2c([H])c([H])c3c(c2[H])C([H])([H])N(C(=O)C([H])(N([H])C(=O)C([H])(N([H])C([H])([H])[H])C([H])([H])[H])C(C([H])([H])[H])(C([H])([H])[H])C([H])([H])[H])C([H])(C(=O)N([H])C2([H])c4c([H])c([H])c([H])c([H])c4C([H])([H])C([H])([H])C2([H])[H])C3([H])[H])c(C([H])([H])[H])nc1C1([H])N(C(=O)N2C([H])([H])C([H])([H])C([H])([H])C([H])(n3nc(-c4c([H])c([H])c(Oc5c([H])c([H])c(F)c([H])c5F)c([H])c4[H])c(C(=O)N([H])[H])c3N([H])[H])C2([H])[H])C([H])([H])C([H])([H])C1([H])[H]

$$$$
88:0:0
     RDKit          3D

 90 99  0  0  1  0  0  0  0  0999 V2000
  -28.7190  -22.5400   18.9560 C   0  0  0  0  0  2  0  0  0  0  0  0
  -28.8380  -21.6390   20.0890 C   0  0  0  0  0  0  0  0  0  0  0  0
  -28.4040  -23.7470   21.3020 C   0  0  0  0  0  3  0  0  0  0  0  0
  -28.2900  -24.6420   20.1550 C   0  0  0  0  0  0  0  0  0  0  0  0
  -28.3070  -24.3410   22.6910 C   0  0  0  0  0  1  0  0  0  0  0  0
  -28.4820  -23.9330   18.9820 N   0  0  0  0  0  0  0  0  0  0  0  0
  -28.6540  -22.3460   21.2720 N   0  0  0  0  0  0  0  0  0  0  0  0
  -30.6270  -15.2120   20.2020 C   0  0  0  0  0  0  0  0  0  0  0  0
  -30.4600  -12.8230   19.3020 C   0  0  0  0  0  2  0  0  0  0  0  0
  -29.5310  -12.6730   18.0790 C   0  0  0  0  0  2  0  0  0  0  0  0
  -28.0860  -12.4250   18.5410 C   0  0  0  0  0  2  0  0  0  0  0  0
  -27.6620  -13.3840   19.6840 C   0  0  0  0  0  3  0  0  0  0  0  0
  -28.7270  -13.5170   20.7930 C   0  0  0  0  0  2  0  0  0  0  0  0
  -29.9580  -13.9720   20.1310 N   0  0  0  0  0  0  0  0  0  0  0  0
  -31.8450  -15.1100   19.9990 O   0  0  0  0  0  0  0  0  0  0  0  0
  -30.5600  -19.3370   20.4860 C   0  0  0  0  0  2  0  0  0  0  0  0
  -28.2800  -18.7470   20.4480 C   0  0  0  0  0  2  0  0  0  0  0  0
  -30.9710  -17.7930   20.1100 C   0  0  0  0  0  2  0  0  0  0  0  0
  -28.6550  -17.1480   20.1610 C   0  0  0  0  0  2  0  0  0  0  0  0
  -29.2060  -19.9670   19.9580 C   0  0  0  0  0  3  0  0  0  0  0  0
  -30.0640  -16.5710   20.2830 N   0  0  0  0  0  0  0  0  0  0  0  0
  -25.2990  -13.9240   20.4760 C   0  0  0  0  0  0  0  0  0  0  0  0
  -24.2480  -13.1370   20.8530 C   0  0  0  0  0  0  0  0  0  0  0  0
  -24.7250  -11.7910   20.8080 C   0  0  0  0  0  0  0  0  0  0  0  0
  -26.3440  -13.0590   20.2140 N   0  0  0  0  0  0  0  0  0  0  0  0
  -26.0120  -11.7690   20.4810 N   0  0  0  0  0  0  0  0  0  0  0  0
  -24.0090  -10.5210   20.9960 C   0  0  0  0  0  0  0  0  0  0  0  0
  -24.4410   -9.5610   21.9360 C   0  0  0  0  0  3  0  0  0  0  0  0
  -23.7210   -8.3590   22.1150 C   0  0  0  0  0  3  0  0  0  0  0  0
  -22.5550   -8.1100   21.3510 C   0  0  0  0  0  0  0  0  0  0  0  0
  -22.1430   -9.0600   20.4000 C   0  0  0  0  0  3  0  0  0  0  0  0
  -22.8630  -10.2520   20.2200 C   0  0  0  0  0  3  0  0  0  0  0  0
  -21.8080   -6.9600   21.4380 O   0  0  0  0  0  0  0  0  0  0  0  0
  -21.7310   -6.2380   22.6020 C   0  0  0  0  0  0  0  0  0  0  0  0
  -21.2290   -6.8000   23.7960 C   0  0  0  0  0  3  0  0  0  0  0  0
  -21.1020   -6.0020   24.9500 C   0  0  0  0  0  3  0  0  0  0  0  0
  -21.4680   -4.6440   24.9120 C   0  0  0  0  0  0  0  0  0  0  0  0
  -21.9640   -4.0810   23.7230 C   0  0  0  0  0  3  0  0  0  0  0  0
  -22.0920   -4.8760   22.5700 C   0  0  0  0  0  0  0  0  0  0  0  0
  -22.5500   -4.3240   21.4210 F   0  0  0  0  0  0  0  0  0  0  0  0
  -21.3400   -3.8750   26.0190 F   0  0  0  0  0  0  0  0  0  0  0  0
  -22.8500  -13.6030   21.1390 C   0  0  0  0  0  0  0  0  0  0  0  0
  -22.1420  -12.9080   22.0200 N   0  0  0  0  0  0  0  0  0  0  0  0
  -22.3980  -14.6210   20.6170 O   0  0  0  0  0  0  0  0  0  0  0  0
  -22.5220  -12.0860   22.4660 H   0  0  0  0  0  0  0  0  0  0  0  0
  -21.2050  -13.2030   22.2540 H   0  0  0  0  0  0  0  0  0  0  0  0
  -25.4460  -15.2970   20.3020 N   0  0  0  0  0  0  0  0  0  0  0  0
  -24.6730  -15.9400   20.4280 H   0  0  0  0  0  0  0  0  0  0  0  0
  -26.2810  -15.7450   19.9490 H   0  0  0  0  0  0  0  0  0  0  0  0
  -28.3100  -26.1480   20.1370 O   0  0  0  0  0  0  0  0  0  0  0  0
  -24.7140  -31.8850   23.2660 C   0  0  0  0  0  0  0  0  0  0  0  0
  -27.2370  -27.1390   20.1510 C   0  0  0  0  0  0  0  0  0  0  0  0
  -23.4960  -30.5170   21.6170 C   0  0  0  0  0  3  0  0  0  0  0  0
  -24.9250  -28.9430   20.1560 C   0  0  0  0  0  0  0  0  0  0  0  0
  -26.0530  -30.7550   21.4390 C   0  0  0  0  0  2  0  0  0  0  0  0
  -26.1120  -29.3630   20.7680 C   0  0  0  0  0  0  0  0  0  0  0  0
  -27.2650  -28.4780   20.7460 C   0  0  0  0  0  3  0  0  0  0  0  0
  -26.0240  -26.8390   19.4970 C   0  0  0  0  0  3  0  0  0  0  0  0
  -24.8980  -27.6980   19.5040 C   0  0  0  0  0  3  0  0  0  0  0  0
  -23.7050  -29.8550   20.2260 C   0  0  0  0  0  2  0  0  0  0  0  0
  -24.7750  -31.0770   22.1610 N   0  0  0  0  0  0  0  0  0  0  0  0
  -23.6330  -32.1650   23.8080 O   0  0  0  0  0  0  0  0  0  0  0  0
  -22.8200  -29.5020   22.5720 C   0  0  0  0  0  0  0  0  0  0  0  0
  -21.4920  -29.3220   22.4430 N   0  0  0  0  0  0  0  0  0  0  0  0
  -23.4930  -28.8770   23.3950 O   0  0  0  0  0  0  0  0  0  0  0  0
  -21.0030  -29.8780   21.7550 H   0  0  0  0  0  0  0  0  0  0  0  0
  -18.1250  -28.0700   22.9220 C   0  0  0  0  0  0  0  0  0  0  0  0
  -20.6790  -28.3710   23.2060 C   0  0  0  0  0  3  0  0  0  0  0  0
  -20.8050  -26.9410   22.6280 C   0  0  0  0  0  2  0  0  0  0  0  0
  -19.7150  -26.6070   21.6040 C   0  0  0  0  0  2  0  0  0  0  0  0
  -18.3270  -26.7270   22.2400 C   0  0  0  0  0  2  0  0  0  0  0  0
  -19.2300  -28.8480   23.3610 C   0  0  0  0  0  0  0  0  0  0  0  0
  -18.9860  -30.1030   23.9610 C   0  0  0  0  0  3  0  0  0  0  0  0
  -17.6720  -30.5800   24.1240 C   0  0  0  0  0  3  0  0  0  0  0  0
  -16.5830  -29.8000   23.7000 C   0  0  0  0  0  3  0  0  0  0  0  0
  -16.8100  -28.5460   23.1050 C   0  0  0  0  0  3  0  0  0  0  0  0
  -25.9960  -32.5120   23.8920 C   0  0  0  0  0  3  0  0  0  0  0  0
  -25.6880  -33.9060   24.2520 N   0  0  0  0  0  0  0  0  0  0  0  0
  -25.9800  -34.9740   23.4970 C   0  0  0  0  0  0  0  0  0  0  0  0
  -26.6040  -34.8900   22.4360 O   0  0  0  0  0  0  0  0  0  0  0  0
  -25.1270  -34.0440   25.0800 H   0  0  0  0  0  0  0  0  0  0  0  0
  -24.2170  -36.7580   23.2700 C   0  0  0  0  0  1  0  0  0  0  0  0
  -25.5100  -36.3560   24.0000 C   0  0  0  0  0  3  0  0  0  0  0  0
  -27.6770  -37.2620   24.7150 C   0  0  0  0  0  1  0  0  0  0  0  0
  -26.5230  -37.4200   23.8340 N   0  0  0  0  0  0  0  0  0  0  0  0
  -26.1160  -38.3350   24.0060 H   0  0  0  0  0  0  0  0  0  0  0  0
  -26.5160  -31.7250   25.1590 C   0  0  1  0  0  0  0  0  0  0  0  0
  -25.4270  -31.4780   26.2300 C   0  0  0  0  0  1  0  0  0  0  0  0
  -27.0940  -30.3490   24.7560 C   0  0  0  0  0  1  0  0  0  0  0  0
  -27.6710  -32.5090   25.8250 C   0  0  0  0  0  1  0  0  0  0  0  0
  1  6  1  0
  1  2  1  0
  2  7  2  0
  3  5  1  0
  4  3  1  0
  6  4  2  0
  7  3  1  0
  8 21  1  0
  9 14  1  0
 10 11  1  0
 10  9  1  0
 12 11  1  0
 12 25  1  0
 12 13  1  0
 14  8  1  0
 14 13  1  0
 15  8  2  0
 18 21  1  0
 18 16  1  0
 19 21  1  0
 19 17  1  0
 20  2  1  0
 20 17  1  0
 20 16  1  0
 22 23  2  0
 23 42  1  0
 24 23  1  0
 24 27  1  0
 25 22  1  0
 25 26  1  0
 26 24  2  0
 27 28  1  0
 28 29  2  0
 30 33  1  0
 30 29  1  0
 31 30  2  0
 32 31  1  0
 32 27  2  0
 33 34  1  0
 34 35  1  0
 35 36  2  0
 37 36  1  0
 37 41  1  0
 38 37  2  0
 39 34  2  0
 39 38  1  0
 40 39  1  0
 42 43  1  0
 43 46  1  0
 43 45  1  0
 44 42  2  0
 47 48  1  0
 47 22  1  0
 49 47  1  0
 50 52  1  0
 50  4  1  0
 51 62  2  0
 52 57  1  0
 53 61  1  0
 53 63  1  0
 54 60  1  0
 54 56  1  0
 55 61  1  0
 56 55  1  0
 57 56  2  0
 58 59  1  0
 58 52  2  0
 59 54  2  0
 60 53  1  0
 61 51  1  0
 63 65  2  0
 64 63  1  0
 66 64  1  0
 67 76  2  0
 67 72  1  0
 68 64  1  0
 68 72  1  0
 69 68  1  0
 70 71  1  0
 70 69  1  0
 71 67  1  0
 72 73  2  0
 73 74  1  0
 75 74  2  0
 76 75  1  0
 77 51  1  0
 77 78  1  0
 77 87  1  0
 78 81  1  0
 79 83  1  0
 79 78  1  0
 80 79  2  0
 83 82  1  0
 85 83  1  0
 85 86  1  0
 85 84  1  0
 87 90  1  1
 87 88  1  0
 89 87  1  0
M  ISO  4   4 101   8 100  21 100  50 101
M  END
>  <TORSDO>  (89) 
F 16

>  <SCORE>  (89) 
-15.878

>  <name>  (89) 
88

>  <ligand_id>  (89) 
88

>  <original_smiles>  (89) 
[H]c1nc(Oc2c([H])c([H])c3c(c2[H])C([H])([H])N(C(=O)C([H])(N([H])C(=O)C([H])(N([H])C([H])([H])[H])C([H])([H])[H])C(C([H])([H])[H])(C([H])([H])[H])C([H])([H])[H])C([H])(C(=O)N([H])C2([H])c4c([H])c([H])c([H])c([H])c4C([H])([H])C([H])([H])C2([H])[H])C3([H])[H])c(C([H])([H])[H])nc1C1([H])C([H])([H])C([H])([H])N(C(=O)N2C([H])([H])C([H])([H])C([H])([H])C([H])(n3nc(-c4c([H])c([H])c(Oc5c([H])c([H])c(F)c([H])c5F)c([H])c4[H])c(C(=O)N([H])[H])c3N([H])[H])C2([H])[H])C([H])([H])C1([H])[H]

>  <smiles>  (89) 
[H]c1nc(Oc2c([H])c([H])c3c(c2[H])C([H])([H])N(C(=O)C([H])(N([H])C(=O)C([H])(N([H])C([H])([H])[H])C([H])([H])[H])C(C([H])([H])[H])(C([H])([H])[H])C([H])([H])[H])C([H])(C(=O)N([H])C2([H])c4c([H])c([H])c([H])c([H])c4C([H])([H])C([H])([H])C2([H])[H])C3([H])[H])c(C([H])([H])[H])nc1C1([H])C([H])([H])C([H])([H])N(C(=O)N2C([H])([H])C([H])([H])C([H])([H])C([H])(n3nc(-c4c([H])c([H])c(Oc5c([H])c([H])c(F)c([H])c5F)c([H])c4[H])c(C(=O)N([H])[H])c3N([H])[H])C2([H])[H])C([H])([H])C1([H])[H]

$$$$
89:0:0
     RDKit          3D

 89 97  0  0  1  0  0  0  0  0999 V2000
  -29.3140  -19.8030   19.3970 C   0  0  0  0  0  0  0  0  0  0  0  0
  -30.9580  -20.6830   20.6030 C   0  0  0  0  0  2  0  0  0  0  0  0
  -30.2920  -18.4180   19.6250 C   0  0  0  0  0  3  0  0  0  0  0  0
  -31.0940  -19.0850   20.7760 C   0  0  2  0  0  0  0  0  0  0  0  0
  -30.4840  -18.6820   22.1350 C   0  0  0  0  0  1  0  0  0  0  0  0
  -32.5720  -18.6560   20.7430 C   0  0  0  0  0  1  0  0  0  0  0  0
  -29.6960  -21.1050   19.9390 N   0  0  0  0  0  0  0  0  0  0  0  0
  -28.3080  -19.6890   18.6950 O   0  0  0  0  0  0  0  0  0  0  0  0
  -30.8330  -15.4440   19.6670 C   0  0  0  0  0  0  0  0  0  0  0  0
  -30.7760  -12.9300   18.9580 C   0  0  0  0  0  2  0  0  0  0  0  0
  -29.7890  -12.6070   17.8060 C   0  0  0  0  0  2  0  0  0  0  0  0
  -28.3730  -12.3580   18.3510 C   0  0  0  0  0  2  0  0  0  0  0  0
  -27.9750  -13.4030   19.4230 C   0  0  0  0  0  3  0  0  0  0  0  0
  -29.0860  -13.6540   20.4660 C   0  0  0  0  0  2  0  0  0  0  0  0
  -30.2630  -14.1320   19.7200 N   0  0  0  0  0  0  0  0  0  0  0  0
  -32.0490  -15.4070   19.4210 O   0  0  0  0  0  0  0  0  0  0  0  0
  -30.0740  -16.7340   19.6880 N   0  0  0  0  0  0  0  0  0  0  0  0
  -29.0900  -16.5330   19.7880 H   0  0  0  0  0  0  0  0  0  0  0  0
  -25.7050  -14.0310   20.3910 C   0  0  0  0  0  0  0  0  0  0  0  0
  -24.6400  -13.2880   20.8150 C   0  0  0  0  0  0  0  0  0  0  0  0
  -25.0390  -11.9200   20.6980 C   0  0  0  0  0  0  0  0  0  0  0  0
  -26.6830  -13.1220   20.0310 N   0  0  0  0  0  0  0  0  0  0  0  0
  -26.3010  -11.8420   20.2840 N   0  0  0  0  0  0  0  0  0  0  0  0
  -24.2710  -10.6850   20.8970 C   0  0  0  0  0  0  0  0  0  0  0  0
  -24.6790   -9.6990   21.8220 C   0  0  0  0  0  3  0  0  0  0  0  0
  -23.9090   -8.5320   22.0120 C   0  0  0  0  0  3  0  0  0  0  0  0
  -22.7140   -8.3420   21.2770 C   0  0  0  0  0  0  0  0  0  0  0  0
  -22.3220   -9.3170   20.3430 C   0  0  0  0  0  3  0  0  0  0  0  0
  -23.0930  -10.4750   20.1500 C   0  0  0  0  0  3  0  0  0  0  0  0
  -21.9150   -7.2280   21.3780 O   0  0  0  0  0  0  0  0  0  0  0  0
  -21.7950   -6.5330   22.5530 C   0  0  0  0  0  0  0  0  0  0  0  0
  -21.2950   -7.1360   23.7290 C   0  0  0  0  0  3  0  0  0  0  0  0
  -21.1220   -6.3670   24.8960 C   0  0  0  0  0  3  0  0  0  0  0  0
  -21.4390   -4.9950   24.8900 C   0  0  0  0  0  0  0  0  0  0  0  0
  -21.9300   -4.3900   23.7190 C   0  0  0  0  0  3  0  0  0  0  0  0
  -22.1040   -5.1570   22.5540 C   0  0  0  0  0  0  0  0  0  0  0  0
  -22.5590   -4.5660   21.4230 F   0  0  0  0  0  0  0  0  0  0  0  0
  -21.2650   -4.2540   26.0100 F   0  0  0  0  0  0  0  0  0  0  0  0
  -23.2920  -13.8160   21.2060 C   0  0  0  0  0  0  0  0  0  0  0  0
  -22.6060  -13.1320   22.1150 N   0  0  0  0  0  0  0  0  0  0  0  0
  -22.8590  -14.8700   20.7420 O   0  0  0  0  0  0  0  0  0  0  0  0
  -22.9710  -12.2780   22.5100 H   0  0  0  0  0  0  0  0  0  0  0  0
  -21.7040  -13.4670   22.4220 H   0  0  0  0  0  0  0  0  0  0  0  0
  -25.9130  -15.4010   20.2480 N   0  0  0  0  0  0  0  0  0  0  0  0
  -25.1800  -16.0750   20.4390 H   0  0  0  0  0  0  0  0  0  0  0  0
  -26.7320  -15.8170   19.8280 H   0  0  0  0  0  0  0  0  0  0  0  0
  -29.4400  -22.7530   19.5820 C   0  0  0  0  0  2  0  0  0  0  0  0
  -28.5280  -24.1930   20.2480 C   0  0  0  0  0  2  0  0  0  0  0  0
  -28.6530  -25.8620   20.1300 O   0  0  0  0  0  0  0  0  0  0  0  0
  -24.7500  -31.6750   23.1250 C   0  0  0  0  0  0  0  0  0  0  0  0
  -27.5830  -26.9190   20.1100 C   0  0  0  0  0  0  0  0  0  0  0  0
  -23.6570  -30.2540   21.4400 C   0  0  0  0  0  3  0  0  0  0  0  0
  -25.2060  -28.7230   20.0360 C   0  0  0  0  0  0  0  0  0  0  0  0
  -26.2170  -30.5660   21.3600 C   0  0  0  0  0  2  0  0  0  0  0  0
  -26.3640  -29.1650   20.6870 C   0  0  0  0  0  0  0  0  0  0  0  0
  -27.5460  -28.2870   20.6930 C   0  0  0  0  0  3  0  0  0  0  0  0
  -26.3840  -26.6370   19.4170 C   0  0  0  0  0  3  0  0  0  0  0  0
  -25.2420  -27.4810   19.3790 C   0  0  0  0  0  3  0  0  0  0  0  0
  -23.9490  -29.5970   20.0630 C   0  0  0  0  0  2  0  0  0  0  0  0
  -24.8940  -30.8590   22.0290 N   0  0  0  0  0  0  0  0  0  0  0  0
  -23.6360  -31.9120   23.6220 O   0  0  0  0  0  0  0  0  0  0  0  0
  -22.9790  -29.2190   22.3750 C   0  0  0  0  0  0  0  0  0  0  0  0
  -21.6550  -29.0160   22.2310 N   0  0  0  0  0  0  0  0  0  0  0  0
  -23.6520  -28.5960   23.2000 O   0  0  0  0  0  0  0  0  0  0  0  0
  -21.1640  -29.5710   21.5440 H   0  0  0  0  0  0  0  0  0  0  0  0
  -18.3040  -27.6990   22.6830 C   0  0  0  0  0  0  0  0  0  0  0  0
  -20.8530  -28.0360   22.9710 C   0  0  0  0  0  3  0  0  0  0  0  0
  -21.0010  -26.6220   22.3620 C   0  0  0  0  0  2  0  0  0  0  0  0
  -19.9170  -26.2940   21.3310 C   0  0  0  0  0  2  0  0  0  0  0  0
  -18.5260  -26.3770   21.9690 C   0  0  0  0  0  2  0  0  0  0  0  0
  -19.3960  -28.4850   23.1390 C   0  0  0  0  0  0  0  0  0  0  0  0
  -19.1330  -29.7200   23.7710 C   0  0  0  0  0  3  0  0  0  0  0  0
  -17.8100  -30.1710   23.9480 C   0  0  0  0  0  3  0  0  0  0  0  0
  -16.7330  -29.3820   23.5060 C   0  0  0  0  0  3  0  0  0  0  0  0
  -16.9810  -28.1490   22.8790 C   0  0  0  0  0  3  0  0  0  0  0  0
  -25.9740  -32.3640   23.7990 C   0  0  0  0  0  3  0  0  0  0  0  0
  -25.5870  -33.7450   24.1420 N   0  0  0  0  0  0  0  0  0  0  0  0
  -25.8720  -34.8290   23.4090 C   0  0  0  0  0  0  0  0  0  0  0  0
  -26.5500  -34.7740   22.3800 O   0  0  0  0  0  0  0  0  0  0  0  0
  -24.9810  -33.8550   24.9420 H   0  0  0  0  0  0  0  0  0  0  0  0
  -24.0500  -36.5420   23.1040 C   0  0  0  0  0  1  0  0  0  0  0  0
  -25.3230  -36.1880   23.8900 C   0  0  0  0  0  3  0  0  0  0  0  0
  -27.4150  -37.1830   24.7070 C   0  0  0  0  0  1  0  0  0  0  0  0
  -26.2990  -37.2950   23.7720 N   0  0  0  0  0  0  0  0  0  0  0  0
  -25.8460  -38.1920   23.9250 H   0  0  0  0  0  0  0  0  0  0  0  0
  -26.4750  -31.6070   25.0920 C   0  0  1  0  0  0  0  0  0  0  0  0
  -25.3550  -31.3150   26.1180 C   0  0  0  0  0  1  0  0  0  0  0  0
  -27.1330  -30.2580   24.7220 C   0  0  0  0  0  1  0  0  0  0  0  0
  -27.5650  -32.4460   25.7990 C   0  0  0  0  0  1  0  0  0  0  0  0
  1  3  1  0
  1  7  1  0
  2  4  1  0
  3 17  1  0
  3  4  1  0
  4  5  1  1
  6  4  1  0
  7  2  1  0
  8  1  2  0
  9 17  1  0
  9 15  1  0
 10 15  1  0
 11 12  1  0
 11 10  1  0
 13 12  1  0
 13 22  1  0
 13 14  1  0
 15 14  1  0
 16  9  2  0
 17 18  1  0
 19 20  2  0
 20 39  1  0
 21 20  1  0
 21 24  1  0
 22 23  1  0
 22 19  1  0
 23 21  2  0
 24 25  1  0
 25 26  2  0
 27 30  1  0
 27 26  1  0
 28 27  2  0
 29 28  1  0
 29 24  2  0
 30 31  1  0
 31 36  2  0
 31 32  1  0
 32 33  2  0
 34 33  1  0
 34 38  1  0
 35 34  2  0
 36 35  1  0
 37 36  1  0
 39 40  1  0
 40 43  1  0
 40 42  1  0
 41 39  2  0
 44 19  1  0
 44 45  1  0
 46 44  1  0
 47  7  1  0
 47 48  1  0
 49 48  1  0
 50 61  2  0
 51 49  1  0
 51 56  1  0
 52 60  1  0
 52 62  1  0
 53 59  1  0
 53 55  1  0
 54 60  1  0
 55 56  2  0
 55 54  1  0
 57 51  2  0
 58 57  1  0
 58 53  2  0
 59 52  1  0
 60 50  1  0
 62 64  2  0
 63 62  1  0
 65 63  1  0
 66 75  2  0
 66 71  1  0
 67 63  1  0
 67 71  1  0
 68 67  1  0
 69 70  1  0
 69 68  1  0
 70 66  1  0
 71 72  2  0
 72 73  1  0
 74 73  2  0
 75 74  1  0
 76 50  1  0
 76 77  1  0
 76 86  1  0
 77 80  1  0
 78 82  1  0
 78 77  1  0
 79 78  2  0
 82 81  1  0
 84 82  1  0
 84 85  1  0
 84 83  1  0
 86 89  1  1
 86 87  1  0
 88 86  1  0
M  ISO  4   9 100  17 100  48 101  49 101
M  END
>  <TORSDO>  (90) 
F 18

>  <SCORE>  (90) 
-15.874

>  <name>  (90) 
89

>  <ligand_id>  (90) 
89

>  <original_smiles>  (90) 
[H]c1c([H])c([H])c2c(c1[H])C([H])([H])C([H])([H])C([H])([H])C2([H])N([H])C(=O)C1([H])N(C(=O)C([H])(N([H])C(=O)C([H])(N([H])C([H])([H])[H])C([H])([H])[H])C(C([H])([H])[H])(C([H])([H])[H])C([H])([H])[H])C([H])([H])c2c([H])c(OC([H])([H])C([H])([H])N3C(=O)C([H])(N([H])C(=O)N4C([H])([H])C([H])([H])C([H])([H])C([H])(n5nc(-c6c([H])c([H])c(Oc7c([H])c([H])c(F)c([H])c7F)c([H])c6[H])c(C(=O)N([H])[H])c5N([H])[H])C4([H])[H])C(C([H])([H])[H])(C([H])([H])[H])C3([H])[H])c([H])c([H])c2C1([H])[H]

>  <smiles>  (90) 
[H]c1c([H])c([H])c2c(c1[H])C([H])([H])C([H])([H])C([H])([H])C2([H])N([H])C(=O)C1([H])N(C(=O)C([H])(N([H])C(=O)C([H])(N([H])C([H])([H])[H])C([H])([H])[H])C(C([H])([H])[H])(C([H])([H])[H])C([H])([H])[H])C([H])([H])c2c([H])c(OC([H])([H])C([H])([H])N3C(=O)C([H])(N([H])C(=O)N4C([H])([H])C([H])([H])C([H])([H])C([H])(n5nc(-c6c([H])c([H])c(Oc7c([H])c([H])c(F)c([H])c7F)c([H])c6[H])c(C(=O)N([H])[H])c5N([H])[H])C4([H])[H])C(C([H])([H])[H])(C([H])([H])[H])C3([H])[H])c([H])c([H])c2C1([H])[H]

$$$$
90:0:0
     RDKit          3D

 94103  0  0  1  0  0  0  0  0999 V2000
  -29.2920  -22.6270   19.8050 C   0  0  0  0  0  3  0  0  0  0  0  0
  -28.4070  -23.7030   19.3970 C   0  0  0  0  0  0  0  0  0  0  0  0
  -28.8300  -21.2570   19.8490 C   0  0  0  0  0  0  0  0  0  0  0  0
  -26.7890  -22.0640   19.1310 C   0  0  0  0  0  0  0  0  0  0  0  0
  -27.1430  -23.3520   19.0760 N   0  0  0  0  0  0  0  0  0  0  0  0
  -27.5670  -21.0290   19.4740 N   0  0  0  0  0  0  0  0  0  0  0  0
  -29.6190  -20.0920   20.2240 N   0  0  0  0  0  0  0  0  0  0  0  0
  -30.5620  -20.2930   20.5460 H   0  0  0  0  0  0  0  0  0  0  0  0
  -30.6380  -14.9320   20.0320 C   0  0  0  0  0  0  0  0  0  0  0  0
  -30.3670  -12.6930   18.9300 C   0  0  0  0  0  2  0  0  0  0  0  0
  -29.3710  -12.8340   17.7600 C   0  0  0  0  0  2  0  0  0  0  0  0
  -27.9230  -12.6320   18.2520 C   0  0  0  0  0  2  0  0  0  0  0  0
  -27.6220  -13.4300   19.5500 C   0  0  0  0  0  3  0  0  0  0  0  0
  -28.7480  -13.2780   20.5990 C   0  0  0  0  0  2  0  0  0  0  0  0
  -29.9910  -13.7090   19.9480 N   0  0  0  0  0  0  0  0  0  0  0  0
  -31.7950  -15.0040   19.6030 O   0  0  0  0  0  0  0  0  0  0  0  0
  -28.9570  -17.9730   21.5580 C   0  0  0  0  0  2  0  0  0  0  0  0
  -29.0060  -16.4300   21.3430 C   0  0  0  0  0  2  0  0  0  0  0  0
  -30.2350  -17.4970   19.6480 C   0  0  0  0  0  2  0  0  0  0  0  0
  -29.2210  -18.6150   20.1930 C   0  0  0  0  0  3  0  0  0  0  0  0
  -29.9130  -16.1270   20.2230 N   0  0  0  0  0  0  0  0  0  0  0  0
  -25.2810  -13.9630   20.4440 C   0  0  0  0  0  0  0  0  0  0  0  0
  -24.2420  -13.1670   20.8350 C   0  0  0  0  0  0  0  0  0  0  0  0
  -24.7010  -11.8210   20.7000 C   0  0  0  0  0  0  0  0  0  0  0  0
  -26.3130  -13.1030   20.1010 N   0  0  0  0  0  0  0  0  0  0  0  0
  -25.9730  -11.8040   20.3150 N   0  0  0  0  0  0  0  0  0  0  0  0
  -23.9830  -10.5500   20.8540 C   0  0  0  0  0  0  0  0  0  0  0  0
  -24.4590   -9.5380   21.7150 C   0  0  0  0  0  3  0  0  0  0  0  0
  -23.7430   -8.3310   21.8650 C   0  0  0  0  0  3  0  0  0  0  0  0
  -22.5370   -8.1300   21.1550 C   0  0  0  0  0  0  0  0  0  0  0  0
  -22.0790   -9.1330   20.2810 C   0  0  0  0  0  3  0  0  0  0  0  0
  -22.7960  -10.3310   20.1280 C   0  0  0  0  0  3  0  0  0  0  0  0
  -21.7830   -6.9830   21.2210 O   0  0  0  0  0  0  0  0  0  0  0  0
  -21.7680   -6.1940   22.3420 C   0  0  0  0  0  0  0  0  0  0  0  0
  -21.3940   -6.7000   23.6050 C   0  0  0  0  0  3  0  0  0  0  0  0
  -21.3280   -5.8380   24.7200 C   0  0  0  0  0  3  0  0  0  0  0  0
  -21.6250   -4.4700   24.5670 C   0  0  0  0  0  0  0  0  0  0  0  0
  -21.9890   -3.9610   23.3080 C   0  0  0  0  0  3  0  0  0  0  0  0
  -22.0590   -4.8210   22.1990 C   0  0  0  0  0  0  0  0  0  0  0  0
  -22.3900   -4.3210   20.9850 F   0  0  0  0  0  0  0  0  0  0  0  0
  -21.5520   -3.6400   25.6350 F   0  0  0  0  0  0  0  0  0  0  0  0
  -22.8660  -13.6300   21.2140 C   0  0  0  0  0  0  0  0  0  0  0  0
  -22.1950  -12.8970   22.0950 N   0  0  0  0  0  0  0  0  0  0  0  0
  -22.3970  -14.6770   20.7700 O   0  0  0  0  0  0  0  0  0  0  0  0
  -22.5870  -12.0480   22.4720 H   0  0  0  0  0  0  0  0  0  0  0  0
  -21.2740  -13.1900   22.3900 H   0  0  0  0  0  0  0  0  0  0  0  0
  -25.4260  -15.3410   20.3290 N   0  0  0  0  0  0  0  0  0  0  0  0
  -24.6630  -15.9750   20.5380 H   0  0  0  0  0  0  0  0  0  0  0  0
  -26.2360  -15.8040   19.9390 H   0  0  0  0  0  0  0  0  0  0  0  0
  -24.8130  -20.4340   19.1630 C   0  0  0  0  0  1  0  0  0  0  0  0
  -25.3920  -21.7040   17.0330 C   0  0  0  0  0  1  0  0  0  0  0  0
  -25.4040  -21.7270   18.5720 C   0  0  0  0  0  3  0  0  0  0  0  0
  -28.8550  -25.1850   18.9510 C   0  0  0  0  0  2  0  0  0  0  0  0
  -28.6630  -26.4620   19.7320 O   0  0  0  0  0  0  0  0  0  0  0  0
  -24.7220  -31.6440   22.9470 C   0  0  0  0  0  0  0  0  0  0  0  0
  -27.5210  -27.2970   19.6690 C   0  0  0  0  0  0  0  0  0  0  0  0
  -23.5790  -30.2610   21.2530 C   0  0  0  0  0  3  0  0  0  0  0  0
  -25.0930  -28.8420   19.7420 C   0  0  0  0  0  0  0  0  0  0  0  0
  -26.1040  -30.6880   21.0780 C   0  0  0  0  0  2  0  0  0  0  0  0
  -26.2420  -29.3410   20.3660 C   0  0  0  0  0  0  0  0  0  0  0  0
  -27.4520  -28.5760   20.3260 C   0  0  0  0  0  3  0  0  0  0  0  0
  -26.3450  -26.8660   19.0220 C   0  0  0  0  0  3  0  0  0  0  0  0
  -25.1520  -27.6180   19.0580 C   0  0  0  0  0  3  0  0  0  0  0  0
  -23.8150  -29.6530   19.8470 C   0  0  0  0  0  2  0  0  0  0  0  0
  -24.8200  -30.8830   21.8160 N   0  0  0  0  0  0  0  0  0  0  0  0
  -23.6280  -31.8470   23.4930 O   0  0  0  0  0  0  0  0  0  0  0  0
  -22.9660  -29.1770   22.1720 C   0  0  0  0  0  0  0  0  0  0  0  0
  -21.6410  -28.9750   22.0730 N   0  0  0  0  0  0  0  0  0  0  0  0
  -23.6820  -28.5200   22.9330 O   0  0  0  0  0  0  0  0  0  0  0  0
  -21.1180  -29.5590   21.4340 H   0  0  0  0  0  0  0  0  0  0  0  0
  -18.3010  -27.6950   22.6310 C   0  0  0  0  0  0  0  0  0  0  0  0
  -20.8660  -27.9720   22.8110 C   0  0  0  0  0  3  0  0  0  0  0  0
  -20.9590  -26.5880   22.1270 C   0  0  0  0  0  2  0  0  0  0  0  0
  -19.8160  -26.3230   21.1410 C   0  0  0  0  0  2  0  0  0  0  0  0
  -18.4620  -26.4020   21.8530 C   0  0  0  0  0  2  0  0  0  0  0  0
  -19.4290  -28.4420   23.0660 C   0  0  0  0  0  0  0  0  0  0  0  0
  -19.2190  -29.6560   23.7560 C   0  0  0  0  0  3  0  0  0  0  0  0
  -17.9150  -30.1200   24.0180 C   0  0  0  0  0  3  0  0  0  0  0  0
  -16.8030  -29.3710   23.5970 C   0  0  0  0  0  3  0  0  0  0  0  0
  -16.9980  -28.1600   22.9080 C   0  0  0  0  0  3  0  0  0  0  0  0
  -25.9740  -32.3090   23.5960 C   0  0  0  0  0  3  0  0  0  0  0  0
  -25.5910  -33.6670   24.0110 N   0  0  0  0  0  0  0  0  0  0  0  0
  -25.8660  -34.7830   23.3230 C   0  0  0  0  0  0  0  0  0  0  0  0
  -26.5360  -34.7780   22.2880 O   0  0  0  0  0  0  0  0  0  0  0  0
  -24.9890  -33.7400   24.8190 H   0  0  0  0  0  0  0  0  0  0  0  0
  -24.0420  -36.5010   23.0870 C   0  0  0  0  0  1  0  0  0  0  0  0
  -25.3090  -36.1130   23.8670 C   0  0  0  0  0  3  0  0  0  0  0  0
  -27.3980  -37.0580   24.7420 C   0  0  0  0  0  1  0  0  0  0  0  0
  -26.2820  -37.2260   23.8160 N   0  0  0  0  0  0  0  0  0  0  0  0
  -25.8280  -38.1120   24.0240 H   0  0  0  0  0  0  0  0  0  0  0  0
  -26.5440  -31.4970   24.8230 C   0  0  1  0  0  0  0  0  0  0  0  0
  -25.4760  -31.1460   25.8850 C   0  0  0  0  0  1  0  0  0  0  0  0
  -27.1850  -30.1750   24.3490 C   0  0  0  0  0  1  0  0  0  0  0  0
  -27.6650  -32.3080   25.5130 C   0  0  0  0  0  1  0  0  0  0  0  0
  1  3  1  0
  2  1  2  0
  3  7  1  0
  4  6  1  0
  5  4  2  0
  5  2  1  0
  6  3  2  0
  7  8  1  0
  9 21  1  0
 10 15  1  0
 11 12  1  0
 11 10  1  0
 13 12  1  0
 13 25  1  0
 13 14  1  0
 15  9  1  0
 15 14  1  0
 16  9  2  0
 18 17  1  0
 19 20  1  0
 19 21  1  0
 20  7  1  0
 20 17  1  0
 21 18  1  0
 22 23  2  0
 23 42  1  0
 24 23  1  0
 24 27  1  0
 25 26  1  0
 25 22  1  0
 26 24  2  0
 27 28  1  0
 28 29  2  0
 30 33  1  0
 30 29  1  0
 31 30  2  0
 32 31  1  0
 32 27  2  0
 33 34  1  0
 34 35  1  0
 35 36  2  0
 37 36  1  0
 37 41  1  0
 38 37  2  0
 39 34  2  0
 39 38  1  0
 40 39  1  0
 42 43  1  0
 43 46  1  0
 43 45  1  0
 44 42  2  0
 47 22  1  0
 47 48  1  0
 49 47  1  0
 51 52  1  0
 52  4  1  0
 52 50  1  0
 53  2  1  0
 53 54  1  0
 55 66  2  0
 56 54  1  0
 56 61  1  0
 57 65  1  0
 57 67  1  0
 58 64  1  0
 58 60  1  0
 59 65  1  0
 60 59  1  0
 61 60  2  0
 62 63  1  0
 62 56  2  0
 63 58  2  0
 64 57  1  0
 65 55  1  0
 67 69  2  0
 68 67  1  0
 70 68  1  0
 71 80  2  0
 71 76  1  0
 72 68  1  0
 72 76  1  0
 73 72  1  0
 74 75  1  0
 74 73  1  0
 75 71  1  0
 76 77  2  0
 77 78  1  0
 79 78  2  0
 80 79  1  0
 81 55  1  0
 81 82  1  0
 81 91  1  0
 82 85  1  0
 83 87  1  0
 83 82  1  0
 84 83  2  0
 87 86  1  0
 89 87  1  0
 89 90  1  0
 89 88  1  0
 91 94  1  1
 91 92  1  0
 93 91  1  0
M  ISO  4   9 100  21 100  53 101  54 101
M  END
>  <TORSDO>  (91) 
F 18

>  <SCORE>  (91) 
-11.475

>  <name>  (91) 
90

>  <ligand_id>  (91) 
90

>  <original_smiles>  (91) 
[H]c1c(N([H])C2([H])C([H])([H])N(C(=O)N3C([H])([H])C([H])([H])C([H])([H])C([H])(n4nc(-c5c([H])c([H])c(Oc6c([H])c([H])c(F)c([H])c6F)c([H])c5[H])c(C(=O)N([H])[H])c4N([H])[H])C3([H])[H])C([H])([H])C2([H])[H])nc(C([H])(C([H])([H])[H])C([H])([H])[H])nc1C([H])([H])Oc1c([H])c([H])c2c(c1[H])C([H])([H])N(C(=O)C([H])(N([H])C(=O)C([H])(N([H])C([H])([H])[H])C([H])([H])[H])C(C([H])([H])[H])(C([H])([H])[H])C([H])([H])[H])C([H])(C(=O)N([H])C1([H])c3c([H])c([H])c([H])c([H])c3C([H])([H])C([H])([H])C1([H])[H])C2([H])[H]

>  <smiles>  (91) 
[H]c1c(N([H])C2([H])C([H])([H])N(C(=O)N3C([H])([H])C([H])([H])C([H])([H])C([H])(n4nc(-c5c([H])c([H])c(Oc6c([H])c([H])c(F)c([H])c6F)c([H])c5[H])c(C(=O)N([H])[H])c4N([H])[H])C3([H])[H])C([H])([H])C2([H])[H])nc(C([H])(C([H])([H])[H])C([H])([H])[H])nc1C([H])([H])Oc1c([H])c([H])c2c(c1[H])C([H])([H])N(C(=O)C([H])(N([H])C(=O)C([H])(N([H])C([H])([H])[H])C([H])([H])[H])C(C([H])([H])[H])(C([H])([H])[H])C([H])([H])[H])C([H])(C(=O)N([H])C1([H])c3c([H])c([H])c([H])c([H])c3C([H])([H])C([H])([H])C1([H])[H])C2([H])[H]

$$$$
91:0:0
     RDKit          3D

 90 99  0  0  1  0  0  0  0  0999 V2000
  -28.4920  -21.3210   21.1600 C   0  0  0  0  0  2  0  0  0  0  0  0
  -29.4990  -20.8180   20.2850 C   0  0  0  0  0  0  0  0  0  0  0  0
  -28.6840  -23.5090   20.2800 C   0  0  0  0  0  0  0  0  0  0  0  0
  -28.1000  -22.6450   21.1480 N   0  0  0  0  0  0  0  0  0  0  0  0
  -30.0720  -21.7640   19.4740 N   0  0  0  0  0  0  0  0  0  0  0  0
  -29.6680  -23.0710   19.4500 N   0  0  0  0  0  2  0  0  0  0  0  0
  -30.0000  -19.4580   20.1590 N   0  0  0  0  0  0  0  0  0  0  0  0
  -30.7630  -19.3900   19.4940 H   0  0  0  0  0  0  0  0  0  0  0  0
  -30.6100  -14.7940   20.3880 C   0  0  0  0  0  0  0  0  0  0  0  0
  -30.3750  -12.5210   19.3670 C   0  0  0  0  0  2  0  0  0  0  0  0
  -29.4410  -12.5960   18.1410 C   0  0  0  0  0  2  0  0  0  0  0  0
  -27.9720  -12.4250   18.5710 C   0  0  0  0  0  2  0  0  0  0  0  0
  -27.5990  -13.3130   19.7880 C   0  0  0  0  0  3  0  0  0  0  0  0
  -28.6580  -13.2380   20.9090 C   0  0  0  0  0  2  0  0  0  0  0  0
  -29.9540  -13.5820   20.3120 N   0  0  0  0  0  0  0  0  0  0  0  0
  -31.7950  -14.8570   20.0500 O   0  0  0  0  0  0  0  0  0  0  0  0
  -29.4650  -16.9400   19.6230 C   0  0  0  0  0  2  0  0  0  0  0  0
  -30.5050  -17.1580   21.3480 C   0  0  0  0  0  2  0  0  0  0  0  0
  -29.4890  -18.1150   20.6530 C   0  0  0  0  0  3  0  0  0  0  0  0
  -29.8990  -15.9610   20.6720 N   0  0  0  0  0  0  0  0  0  0  0  0
  -25.2130  -13.9020   20.5180 C   0  0  0  0  0  0  0  0  0  0  0  0
  -24.1450  -13.1290   20.8810 C   0  0  0  0  0  0  0  0  0  0  0  0
  -24.6060  -11.7770   20.8470 C   0  0  0  0  0  0  0  0  0  0  0  0
  -26.2560  -13.0220   20.2790 N   0  0  0  0  0  0  0  0  0  0  0  0
  -25.8980  -11.7390   20.5410 N   0  0  0  0  0  0  0  0  0  0  0  0
  -23.8760  -10.5160   21.0310 C   0  0  0  0  0  0  0  0  0  0  0  0
  -24.2970   -9.5470   21.9700 C   0  0  0  0  0  3  0  0  0  0  0  0
  -23.5660   -8.3520   22.1430 C   0  0  0  0  0  3  0  0  0  0  0  0
  -22.4000   -8.1160   21.3760 C   0  0  0  0  0  0  0  0  0  0  0  0
  -21.9980   -9.0720   20.4280 C   0  0  0  0  0  3  0  0  0  0  0  0
  -22.7290  -10.2590   20.2530 C   0  0  0  0  0  3  0  0  0  0  0  0
  -21.6410   -6.9730   21.4580 O   0  0  0  0  0  0  0  0  0  0  0  0
  -21.5690   -6.2390   22.6150 C   0  0  0  0  0  0  0  0  0  0  0  0
  -21.1060   -6.7990   23.8250 C   0  0  0  0  0  3  0  0  0  0  0  0
  -20.9800   -5.9900   24.9740 C   0  0  0  0  0  3  0  0  0  0  0  0
  -21.3080   -4.6230   24.9110 C   0  0  0  0  0  0  0  0  0  0  0  0
  -21.7640   -4.0620   23.7060 C   0  0  0  0  0  3  0  0  0  0  0  0
  -21.8910   -4.8680   22.5600 C   0  0  0  0  0  0  0  0  0  0  0  0
  -22.3110   -4.3170   21.3950 F   0  0  0  0  0  0  0  0  0  0  0  0
  -21.1810   -3.8450   26.0110 F   0  0  0  0  0  0  0  0  0  0  0  0
  -22.7490  -13.6080   21.1510 C   0  0  0  0  0  0  0  0  0  0  0  0
  -22.0160  -12.9100   22.0110 N   0  0  0  0  0  0  0  0  0  0  0  0
  -22.3160  -14.6380   20.6340 O   0  0  0  0  0  0  0  0  0  0  0  0
  -22.3790  -12.0770   22.4500 H   0  0  0  0  0  0  0  0  0  0  0  0
  -21.0790  -13.2140   22.2350 H   0  0  0  0  0  0  0  0  0  0  0  0
  -25.3820  -15.2740   20.3470 N   0  0  0  0  0  0  0  0  0  0  0  0
  -24.6230  -15.9340   20.4680 H   0  0  0  0  0  0  0  0  0  0  0  0
  -26.2480  -15.7110   20.0600 H   0  0  0  0  0  0  0  0  0  0  0  0
  -27.8890  -24.8650   19.9160 C   0  0  0  0  0  2  0  0  0  0  0  0
  -28.2500  -26.3070   20.2400 O   0  0  0  0  0  0  0  0  0  0  0  0
  -24.6150  -31.8790   23.2460 C   0  0  0  0  0  0  0  0  0  0  0  0
  -27.1920  -27.2630   20.1570 C   0  0  0  0  0  0  0  0  0  0  0  0
  -23.4060  -30.4900   21.6070 C   0  0  0  0  0  3  0  0  0  0  0  0
  -24.8500  -28.9500   20.1610 C   0  0  0  0  0  0  0  0  0  0  0  0
  -25.9540  -30.7840   21.4260 C   0  0  0  0  0  2  0  0  0  0  0  0
  -26.0280  -29.4050   20.7660 C   0  0  0  0  0  0  0  0  0  0  0  0
  -27.2010  -28.5730   20.7590 C   0  0  0  0  0  3  0  0  0  0  0  0
  -25.9900  -26.9090   19.4950 C   0  0  0  0  0  3  0  0  0  0  0  0
  -24.8380  -27.7110   19.5130 C   0  0  0  0  0  3  0  0  0  0  0  0
  -23.6160  -29.8310   20.2210 C   0  0  0  0  0  2  0  0  0  0  0  0
  -24.6790  -31.0690   22.1480 N   0  0  0  0  0  0  0  0  0  0  0  0
  -23.5320  -32.1560   23.7830 O   0  0  0  0  0  0  0  0  0  0  0  0
  -22.7440  -29.4670   22.5640 C   0  0  0  0  0  0  0  0  0  0  0  0
  -21.4170  -29.2870   22.4390 N   0  0  0  0  0  0  0  0  0  0  0  0
  -23.4240  -28.8400   23.3810 O   0  0  0  0  0  0  0  0  0  0  0  0
  -20.9270  -29.8440   21.7550 H   0  0  0  0  0  0  0  0  0  0  0  0
  -18.0430  -28.0770   22.9480 C   0  0  0  0  0  0  0  0  0  0  0  0
  -20.6020  -28.3450   23.2100 C   0  0  0  0  0  3  0  0  0  0  0  0
  -20.7060  -26.9140   22.6330 C   0  0  0  0  0  2  0  0  0  0  0  0
  -19.6030  -26.5890   21.6210 C   0  0  0  0  0  2  0  0  0  0  0  0
  -18.2220  -26.7290   22.2690 C   0  0  0  0  0  2  0  0  0  0  0  0
  -19.1600  -28.8430   23.3750 C   0  0  0  0  0  0  0  0  0  0  0  0
  -18.9380  -30.1020   23.9710 C   0  0  0  0  0  3  0  0  0  0  0  0
  -17.6320  -30.5990   24.1420 C   0  0  0  0  0  3  0  0  0  0  0  0
  -16.5290  -29.8300   23.7300 C   0  0  0  0  0  3  0  0  0  0  0  0
  -16.7350  -28.5720   23.1390 C   0  0  0  0  0  3  0  0  0  0  0  0
  -25.8980  -32.5110   23.8650 C   0  0  0  0  0  3  0  0  0  0  0  0
  -25.5890  -33.9100   24.1940 N   0  0  0  0  0  0  0  0  0  0  0  0
  -25.9120  -34.9630   23.4310 C   0  0  0  0  0  0  0  0  0  0  0  0
  -26.5720  -34.8580   22.3940 O   0  0  0  0  0  0  0  0  0  0  0  0
  -25.0020  -34.0650   25.0000 H   0  0  0  0  0  0  0  0  0  0  0  0
  -24.1810  -36.7570   23.0930 C   0  0  0  0  0  1  0  0  0  0  0  0
  -25.4300  -36.3520   23.8920 C   0  0  0  0  0  3  0  0  0  0  0  0
  -27.5710  -37.2400   24.7040 C   0  0  0  0  0  1  0  0  0  0  0  0
  -26.4610  -37.4050   23.7690 N   0  0  0  0  0  0  0  0  0  0  0  0
  -26.0570  -38.3260   23.9160 H   0  0  0  0  0  0  0  0  0  0  0  0
  -26.4130  -31.7420   25.1430 C   0  0  1  0  0  0  0  0  0  0  0  0
  -25.3200  -31.5090   26.2120 C   0  0  0  0  0  1  0  0  0  0  0  0
  -26.9940  -30.3610   24.7580 C   0  0  0  0  0  1  0  0  0  0  0  0
  -27.5650  -32.5360   25.8020 C   0  0  0  0  0  1  0  0  0  0  0  0
  2  1  1  0
  3  4  2  0
  4  1  1  0
  5  2  2  0
  6  5  1  0
  6  3  1  0
  7  2  1  0
  8  7  1  0
  9 20  1  0
 10 15  1  0
 11 12  1  0
 11 10  1  0
 13 12  1  0
 13 24  1  0
 13 14  1  0
 15  9  1  0
 15 14  1  0
 16  9  2  0
 17 19  1  0
 17 20  1  0
 19  7  1  0
 19 18  1  0
 20 18  1  0
 21 22  2  0
 22 41  1  0
 23 22  1  0
 23 26  1  0
 24 21  1  0
 24 25  1  0
 25 23  2  0
 26 27  1  0
 27 28  2  0
 29 32  1  0
 29 28  1  0
 30 29  2  0
 31 30  1  0
 31 26  2  0
 32 33  1  0
 33 34  1  0
 34 35  2  0
 36 35  1  0
 36 40  1  0
 37 36  2  0
 38 33  2  0
 38 37  1  0
 39 38  1  0
 41 42  1  0
 42 45  1  0
 42 44  1  0
 43 41  2  0
 46 47  1  0
 46 21  1  0
 48 46  1  0
 49 50  1  0
 49  3  1  0
 51 62  2  0
 52 50  1  0
 52 57  1  0
 53 61  1  0
 53 63  1  0
 54 60  1  0
 54 56  1  0
 55 61  1  0
 56 55  1  0
 57 56  2  0
 58 59  1  0
 58 52  2  0
 59 54  2  0
 60 53  1  0
 61 51  1  0
 63 65  2  0
 64 63  1  0
 66 64  1  0
 67 76  2  0
 67 72  1  0
 68 64  1  0
 68 72  1  0
 69 68  1  0
 70 71  1  0
 70 69  1  0
 71 67  1  0
 72 73  2  0
 73 74  1  0
 75 74  2  0
 76 75  1  0
 77 51  1  0
 77 78  1  0
 77 87  1  0
 78 81  1  0
 79 83  1  0
 79 78  1  0
 80 79  2  0
 83 82  1  0
 85 83  1  0
 85 86  1  0
 85 84  1  0
 87 90  1  1
 87 88  1  0
 89 87  1  0
M  ISO  4   9 100  20 100  49 101  50 101
M  END
>  <TORSDO>  (92) 
F 18

>  <SCORE>  (92) 
-14.780

>  <name>  (92) 
91

>  <ligand_id>  (92) 
91

>  <original_smiles>  (92) 
[H]c1nc(C([H])([H])Oc2c([H])c([H])c3c(c2[H])C([H])([H])N(C(=O)C([H])(N([H])C(=O)C([H])(N([H])C([H])([H])[H])C([H])([H])[H])C(C([H])([H])[H])(C([H])([H])[H])C([H])([H])[H])C([H])(C(=O)N([H])C2([H])c4c([H])c([H])c([H])c([H])c4C([H])([H])C([H])([H])C2([H])[H])C3([H])[H])nnc1N([H])C1([H])C([H])([H])N(C(=O)N2C([H])([H])C([H])([H])C([H])([H])C([H])(n3nc(-c4c([H])c([H])c(Oc5c([H])c([H])c(F)c([H])c5F)c([H])c4[H])c(C(=O)N([H])[H])c3N([H])[H])C2([H])[H])C1([H])[H]

>  <smiles>  (92) 
[H]c1nc(C([H])([H])Oc2c([H])c([H])c3c(c2[H])C([H])([H])N(C(=O)C([H])(N([H])C(=O)C([H])(N([H])C([H])([H])[H])C([H])([H])[H])C(C([H])([H])[H])(C([H])([H])[H])C([H])([H])[H])C([H])(C(=O)N([H])C2([H])c4c([H])c([H])c([H])c([H])c4C([H])([H])C([H])([H])C2([H])[H])C3([H])[H])nnc1N([H])C1([H])C([H])([H])N(C(=O)N2C([H])([H])C([H])([H])C([H])([H])C([H])(n3nc(-c4c([H])c([H])c(Oc5c([H])c([H])c(F)c([H])c5F)c([H])c4[H])c(C(=O)N([H])[H])c3N([H])[H])C2([H])[H])C1([H])[H]

$$$$
92:0:0
     RDKit          3D

 89 98  0  0  1  0  0  0  0  0999 V2000
  -28.5200  -21.5710   20.5670 C   0  0  0  0  0  3  0  0  0  0  0  0
  -29.1920  -20.3590   19.9840 C   0  0  0  0  0  0  0  0  0  0  0  0
  -28.6570  -22.9810   20.0450 C   0  0  0  0  0  0  0  0  0  0  0  0
  -30.0090  -21.9350   18.4420 C   0  0  0  0  0  0  0  0  0  0  0  0
  -30.7870  -22.1100   17.1500 C   0  0  0  0  0  1  0  0  0  0  0  0
  -29.9460  -20.6740   18.9070 N   0  0  0  0  0  0  0  0  0  0  0  0
  -29.4300  -23.0450   18.9370 N   0  0  0  0  0  0  0  0  0  0  0  0
  -30.4450  -15.1440   20.2830 C   0  0  0  0  0  0  0  0  0  0  0  0
  -30.3800  -12.7420   19.3810 C   0  0  0  0  0  2  0  0  0  0  0  0
  -29.4600  -12.6380   18.1440 C   0  0  0  0  0  2  0  0  0  0  0  0
  -27.9920  -12.4260   18.5650 C   0  0  0  0  0  2  0  0  0  0  0  0
  -27.5730  -13.3390   19.7510 C   0  0  0  0  0  3  0  0  0  0  0  0
  -28.6290  -13.3920   20.8710 C   0  0  0  0  0  2  0  0  0  0  0  0
  -29.8700  -13.8590   20.2440 N   0  0  0  0  0  0  0  0  0  0  0  0
  -31.6600  -15.1670   20.0280 O   0  0  0  0  0  0  0  0  0  0  0  0
  -29.2620  -17.4020   19.3780 C   0  0  0  0  0  2  0  0  0  0  0  0
  -30.1880  -17.6930   21.1190 C   0  0  0  0  0  2  0  0  0  0  0  0
  -29.1720  -18.6810   20.3550 C   0  0  0  0  0  3  0  0  0  0  0  0
  -29.6980  -16.3900   20.4530 N   0  0  0  0  0  0  0  0  0  0  0  0
  -25.2030  -13.8870   20.5180 C   0  0  0  0  0  0  0  0  0  0  0  0
  -24.1460  -13.1030   20.8900 C   0  0  0  0  0  0  0  0  0  0  0  0
  -24.6160  -11.7550   20.8480 C   0  0  0  0  0  0  0  0  0  0  0  0
  -26.2460  -13.0150   20.2610 N   0  0  0  0  0  0  0  0  0  0  0  0
  -25.9060  -11.7270   20.5270 N   0  0  0  0  0  0  0  0  0  0  0  0
  -23.8920  -10.4890   21.0330 C   0  0  0  0  0  0  0  0  0  0  0  0
  -24.3150   -9.5220   21.9720 C   0  0  0  0  0  3  0  0  0  0  0  0
  -23.5850   -8.3270   22.1470 C   0  0  0  0  0  3  0  0  0  0  0  0
  -22.4180   -8.0900   21.3800 C   0  0  0  0  0  0  0  0  0  0  0  0
  -22.0160   -9.0450   20.4280 C   0  0  0  0  0  3  0  0  0  0  0  0
  -22.7470  -10.2310   20.2530 C   0  0  0  0  0  3  0  0  0  0  0  0
  -21.6640   -6.9460   21.4600 O   0  0  0  0  0  0  0  0  0  0  0  0
  -21.5850   -6.2140   22.6180 C   0  0  0  0  0  0  0  0  0  0  0  0
  -21.1010   -6.7770   23.8200 C   0  0  0  0  0  3  0  0  0  0  0  0
  -20.9700   -5.9730   24.9720 C   0  0  0  0  0  3  0  0  0  0  0  0
  -21.3140   -4.6100   24.9210 C   0  0  0  0  0  0  0  0  0  0  0  0
  -21.7920   -4.0470   23.7240 C   0  0  0  0  0  3  0  0  0  0  0  0
  -21.9230   -4.8470   22.5760 C   0  0  0  0  0  0  0  0  0  0  0  0
  -22.3640   -4.2940   21.4190 F   0  0  0  0  0  0  0  0  0  0  0  0
  -21.1820   -3.8340   26.0240 F   0  0  0  0  0  0  0  0  0  0  0  0
  -22.7480  -13.5760   21.1680 C   0  0  0  0  0  0  0  0  0  0  0  0
  -22.0200  -12.8730   22.0270 N   0  0  0  0  0  0  0  0  0  0  0  0
  -22.3100  -14.6050   20.6580 O   0  0  0  0  0  0  0  0  0  0  0  0
  -22.3890  -12.0500   22.4780 H   0  0  0  0  0  0  0  0  0  0  0  0
  -21.0790  -13.1720   22.2450 H   0  0  0  0  0  0  0  0  0  0  0  0
  -25.3490  -15.2600   20.3470 N   0  0  0  0  0  0  0  0  0  0  0  0
  -24.5570  -15.8870   20.4330 H   0  0  0  0  0  0  0  0  0  0  0  0
  -26.1820  -15.7160   19.9970 H   0  0  0  0  0  0  0  0  0  0  0  0
  -27.8890  -24.4340   20.5310 C   0  0  0  0  0  2  0  0  0  0  0  0
  -28.2080  -25.9900   20.2320 O   0  0  0  0  0  0  0  0  0  0  0  0
  -24.6070  -31.8740   23.2120 C   0  0  0  0  0  0  0  0  0  0  0  0
  -27.1870  -27.0510   20.2270 C   0  0  0  0  0  0  0  0  0  0  0  0
  -23.4210  -30.4680   21.5770 C   0  0  0  0  0  3  0  0  0  0  0  0
  -24.8770  -28.8710   20.1740 C   0  0  0  0  0  0  0  0  0  0  0  0
  -25.9820  -30.7090   21.4250 C   0  0  0  0  0  2  0  0  0  0  0  0
  -26.0610  -29.3000   20.7870 C   0  0  0  0  0  0  0  0  0  0  0  0
  -27.2200  -28.4110   20.7860 C   0  0  0  0  0  3  0  0  0  0  0  0
  -25.9770  -26.7600   19.5650 C   0  0  0  0  0  3  0  0  0  0  0  0
  -24.8540  -27.6200   19.5400 C   0  0  0  0  0  3  0  0  0  0  0  0
  -23.6530  -29.7810   20.2050 C   0  0  0  0  0  2  0  0  0  0  0  0
  -24.6900  -31.0420   22.1250 N   0  0  0  0  0  0  0  0  0  0  0  0
  -23.5170  -32.1600   23.7300 O   0  0  0  0  0  0  0  0  0  0  0  0
  -22.7320  -29.4700   22.5470 C   0  0  0  0  0  0  0  0  0  0  0  0
  -21.4030  -29.3030   22.4200 N   0  0  0  0  0  0  0  0  0  0  0  0
  -23.3960  -28.8470   23.3790 O   0  0  0  0  0  0  0  0  0  0  0  0
  -20.9230  -29.8620   21.7290 H   0  0  0  0  0  0  0  0  0  0  0  0
  -18.0160  -28.1150   22.9380 C   0  0  0  0  0  0  0  0  0  0  0  0
  -20.5780  -28.3710   23.1930 C   0  0  0  0  0  3  0  0  0  0  0  0
  -20.6710  -26.9390   22.6190 C   0  0  0  0  0  2  0  0  0  0  0  0
  -19.5630  -26.6180   21.6100 C   0  0  0  0  0  2  0  0  0  0  0  0
  -18.1850  -26.7650   22.2610 C   0  0  0  0  0  2  0  0  0  0  0  0
  -19.1390  -28.8760   23.3620 C   0  0  0  0  0  0  0  0  0  0  0  0
  -18.9210  -30.1350   23.9620 C   0  0  0  0  0  3  0  0  0  0  0  0
  -17.6170  -30.6340   24.1390 C   0  0  0  0  0  3  0  0  0  0  0  0
  -16.5110  -29.8720   23.7240 C   0  0  0  0  0  3  0  0  0  0  0  0
  -16.7110  -28.6150   23.1290 C   0  0  0  0  0  3  0  0  0  0  0  0
  -25.8760  -32.5190   23.8450 C   0  0  0  0  0  3  0  0  0  0  0  0
  -25.5570  -33.9220   24.1640 N   0  0  0  0  0  0  0  0  0  0  0  0
  -25.8970  -34.9750   23.4120 C   0  0  0  0  0  0  0  0  0  0  0  0
  -26.5750  -34.8690   22.3860 O   0  0  0  0  0  0  0  0  0  0  0  0
  -24.9580  -34.0780   24.9610 H   0  0  0  0  0  0  0  0  0  0  0  0
  -24.1790  -36.7790   23.0350 C   0  0  0  0  0  1  0  0  0  0  0  0
  -25.4060  -36.3670   23.8640 C   0  0  0  0  0  3  0  0  0  0  0  0
  -27.5300  -37.2490   24.7300 C   0  0  0  0  0  1  0  0  0  0  0  0
  -26.4430  -37.4180   23.7680 N   0  0  0  0  0  0  0  0  0  0  0  0
  -26.0390  -38.3400   23.9020 H   0  0  0  0  0  0  0  0  0  0  0  0
  -26.3700  -31.7630   25.1410 C   0  0  1  0  0  0  0  0  0  0  0  0
  -25.2620  -31.5450   26.1960 C   0  0  0  0  0  1  0  0  0  0  0  0
  -26.9530  -30.3770   24.7780 C   0  0  0  0  0  1  0  0  0  0  0  0
  -27.5130  -32.5630   25.8110 C   0  0  0  0  0  1  0  0  0  0  0  0
  2  1  2  0
  3 48  1  0
  3  1  1  0
  4  6  2  0
  4  7  1  0
  5  4  1  0
  6  2  1  0
  7  3  2  0
  8 19  1  0
  9 14  1  0
 10 11  1  0
 10  9  1  0
 12 11  1  0
 12 23  1  0
 12 13  1  0
 14  8  1  0
 14 13  1  0
 15  8  2  0
 16 18  1  0
 16 19  1  0
 18  2  1  0
 18 17  1  0
 19 17  1  0
 20 21  2  0
 21 40  1  0
 22 21  1  0
 22 25  1  0
 23 20  1  0
 23 24  1  0
 24 22  2  0
 25 26  1  0
 26 27  2  0
 28 31  1  0
 28 27  1  0
 29 28  2  0
 30 29  1  0
 30 25  2  0
 31 32  1  0
 32 33  1  0
 33 34  2  0
 35 34  1  0
 35 39  1  0
 36 35  2  0
 37 32  2  0
 37 36  1  0
 38 37  1  0
 40 41  1  0
 41 44  1  0
 41 43  1  0
 42 40  2  0
 45 46  1  0
 45 20  1  0
 47 45  1  0
 49 48  1  0
 50 61  2  0
 51 49  1  0
 51 56  1  0
 52 60  1  0
 52 62  1  0
 53 59  1  0
 53 55  1  0
 54 60  1  0
 55 54  1  0
 56 55  2  0
 57 51  2  0
 58 57  1  0
 58 53  2  0
 59 52  1  0
 60 50  1  0
 62 64  2  0
 63 62  1  0
 65 63  1  0
 66 75  2  0
 66 71  1  0
 67 63  1  0
 67 71  1  0
 68 67  1  0
 69 70  1  0
 69 68  1  0
 70 66  1  0
 71 72  2  0
 72 73  1  0
 74 73  2  0
 75 74  1  0
 76 50  1  0
 76 77  1  0
 76 86  1  0
 77 80  1  0
 78 82  1  0
 78 77  1  0
 79 78  2  0
 82 81  1  0
 84 82  1  0
 84 85  1  0
 84 83  1  0
 86 89  1  1
 86 87  1  0
 88 86  1  0
M  ISO  4   8 100  19 100  48 101  49 101
M  END
>  <TORSDO>  (93) 
F 17

>  <SCORE>  (93) 
-16.286

>  <name>  (93) 
92

>  <ligand_id>  (93) 
92

>  <original_smiles>  (93) 
[H]c1c(C([H])([H])Oc2c([H])c([H])c3c(c2[H])C([H])([H])N(C(=O)C([H])(N([H])C(=O)C([H])(N([H])C([H])([H])[H])C([H])([H])[H])C(C([H])([H])[H])(C([H])([H])[H])C([H])([H])[H])C([H])(C(=O)N([H])C2([H])c4c([H])c([H])c([H])c([H])c4C([H])([H])C([H])([H])C2([H])[H])C3([H])[H])nc(C([H])([H])[H])nc1C1([H])C([H])([H])N(C(=O)N2C([H])([H])C([H])([H])C([H])([H])C([H])(n3nc(-c4c([H])c([H])c(Oc5c([H])c([H])c(F)c([H])c5F)c([H])c4[H])c(C(=O)N([H])[H])c3N([H])[H])C2([H])[H])C1([H])[H]

>  <smiles>  (93) 
[H]c1c(C([H])([H])Oc2c([H])c([H])c3c(c2[H])C([H])([H])N(C(=O)C([H])(N([H])C(=O)C([H])(N([H])C([H])([H])[H])C([H])([H])[H])C(C([H])([H])[H])(C([H])([H])[H])C([H])([H])[H])C([H])(C(=O)N([H])C2([H])c4c([H])c([H])c([H])c([H])c4C([H])([H])C([H])([H])C2([H])[H])C3([H])[H])nc(C([H])([H])[H])nc1C1([H])C([H])([H])N(C(=O)N2C([H])([H])C([H])([H])C([H])([H])C([H])(n3nc(-c4c([H])c([H])c(Oc5c([H])c([H])c(F)c([H])c5F)c([H])c4[H])c(C(=O)N([H])[H])c3N([H])[H])C2([H])[H])C1([H])[H]

$$$$
93:0:0
     RDKit          3D

 94103  0  0  1  0  0  0  0  0999 V2000
  -28.4070  -22.5510   20.3670 C   0  0  0  0  0  0  0  0  0  0  0  0
  -28.8980  -23.8850   20.2090 C   0  0  0  0  0  0  0  0  0  0  0  0
  -29.3490  -21.4950   20.4530 C   0  0  0  0  0  0  0  0  0  0  0  0
  -31.0320  -23.0420   20.2370 C   0  0  0  0  0  0  0  0  0  0  0  0
  -32.5190  -23.3070   20.1420 C   0  0  0  0  0  1  0  0  0  0  0  0
  -30.2290  -24.1080   20.1480 N   0  0  0  0  0  0  0  0  0  0  0  0
  -30.6660  -21.7630   20.3810 N   0  0  0  0  0  0  0  0  0  0  0  0
  -28.9230  -20.1480   20.6300 N   0  0  0  0  0  0  0  0  0  0  0  0
  -26.7090  -22.2070   20.4220 Cl  0  0  0  0  0  0  0  0  0  0  0  0
  -27.9140  -20.0520   20.6720 H   0  0  0  0  0  0  0  0  0  0  0  0
  -30.7260  -14.6320   20.0680 C   0  0  0  0  0  0  0  0  0  0  0  0
  -30.3510  -12.4410   18.9830 C   0  0  0  0  0  2  0  0  0  0  0  0
  -29.3550  -12.6130   17.8190 C   0  0  0  0  0  2  0  0  0  0  0  0
  -27.9080  -12.4600   18.3260 C   0  0  0  0  0  2  0  0  0  0  0  0
  -27.6230  -13.3050   19.5980 C   0  0  0  0  0  3  0  0  0  0  0  0
  -28.7430  -13.1610   20.6520 C   0  0  0  0  0  2  0  0  0  0  0  0
  -30.0170  -13.4660   19.9910 N   0  0  0  0  0  0  0  0  0  0  0  0
  -31.8920  -14.6950   19.6670 O   0  0  0  0  0  0  0  0  0  0  0  0
  -29.0240  -17.9760   19.3650 C   0  0  0  0  0  2  0  0  0  0  0  0
  -29.8490  -18.0190   21.6600 C   0  0  0  0  0  2  0  0  0  0  0  0
  -29.7960  -16.6440   19.1230 C   0  0  0  0  0  2  0  0  0  0  0  0
  -30.5970  -16.6670   21.4060 C   0  0  0  0  0  2  0  0  0  0  0  0
  -29.7030  -18.9040   20.3970 C   0  0  0  0  0  3  0  0  0  0  0  0
  -30.0510  -15.8050   20.3250 N   0  0  0  0  0  0  0  0  0  0  0  0
  -25.2790  -13.8810   20.4740 C   0  0  0  0  0  0  0  0  0  0  0  0
  -24.2310  -13.1000   20.8770 C   0  0  0  0  0  0  0  0  0  0  0  0
  -24.6850  -11.7480   20.7790 C   0  0  0  0  0  0  0  0  0  0  0  0
  -26.3050  -13.0070   20.1540 N   0  0  0  0  0  0  0  0  0  0  0  0
  -25.9570  -11.7170   20.3980 N   0  0  0  0  0  0  0  0  0  0  0  0
  -23.9640  -10.4820   20.9700 C   0  0  0  0  0  0  0  0  0  0  0  0
  -24.4050   -9.5130   21.8960 C   0  0  0  0  0  3  0  0  0  0  0  0
  -23.6840   -8.3120   22.0760 C   0  0  0  0  0  3  0  0  0  0  0  0
  -22.5070   -8.0720   21.3280 C   0  0  0  0  0  0  0  0  0  0  0  0
  -22.0840   -9.0300   20.3910 C   0  0  0  0  0  3  0  0  0  0  0  0
  -22.8060  -10.2220   20.2090 C   0  0  0  0  0  3  0  0  0  0  0  0
  -21.7570   -6.9250   21.4180 O   0  0  0  0  0  0  0  0  0  0  0  0
  -21.6630   -6.2150   22.5880 C   0  0  0  0  0  0  0  0  0  0  0  0
  -21.1650   -6.7950   23.7740 C   0  0  0  0  0  3  0  0  0  0  0  0
  -21.0230   -6.0090   24.9350 C   0  0  0  0  0  3  0  0  0  0  0  0
  -21.3670   -4.6440   24.9100 C   0  0  0  0  0  0  0  0  0  0  0  0
  -21.8570   -4.0630   23.7270 C   0  0  0  0  0  3  0  0  0  0  0  0
  -22.0020   -4.8460   22.5690 C   0  0  0  0  0  0  0  0  0  0  0  0
  -22.4560   -4.2770   21.4260 F   0  0  0  0  0  0  0  0  0  0  0  0
  -21.2220   -3.8870   26.0230 F   0  0  0  0  0  0  0  0  0  0  0  0
  -22.8530  -13.5720   21.2400 C   0  0  0  0  0  0  0  0  0  0  0  0
  -22.1730  -12.8540   22.1270 N   0  0  0  0  0  0  0  0  0  0  0  0
  -22.3910  -14.6120   20.7730 O   0  0  0  0  0  0  0  0  0  0  0  0
  -22.5610  -12.0130   22.5280 H   0  0  0  0  0  0  0  0  0  0  0  0
  -21.2500  -13.1510   22.4110 H   0  0  0  0  0  0  0  0  0  0  0  0
  -25.4410  -15.2560   20.3310 N   0  0  0  0  0  0  0  0  0  0  0  0
  -24.6920  -15.9150   20.5100 H   0  0  0  0  0  0  0  0  0  0  0  0
  -26.2910  -15.6980   20.0030 H   0  0  0  0  0  0  0  0  0  0  0  0
  -27.9170  -25.0720   19.9850 C   0  0  0  0  0  2  0  0  0  0  0  0
  -28.2810  -26.4930   20.1790 O   0  0  0  0  0  0  0  0  0  0  0  0
  -24.6260  -31.8910   23.2660 C   0  0  0  0  0  0  0  0  0  0  0  0
  -27.1890  -27.3760   20.1200 C   0  0  0  0  0  0  0  0  0  0  0  0
  -23.4040  -30.5230   21.6160 C   0  0  0  0  0  3  0  0  0  0  0  0
  -24.8370  -29.0020   20.1530 C   0  0  0  0  0  0  0  0  0  0  0  0
  -25.9460  -30.8320   21.4230 C   0  0  0  0  0  2  0  0  0  0  0  0
  -26.0130  -29.4680   20.7540 C   0  0  0  0  0  0  0  0  0  0  0  0
  -27.1940  -28.6660   20.7340 C   0  0  0  0  0  3  0  0  0  0  0  0
  -25.9880  -26.9820   19.4760 C   0  0  0  0  0  3  0  0  0  0  0  0
  -24.8260  -27.7640   19.5050 C   0  0  0  0  0  3  0  0  0  0  0  0
  -23.6040  -29.8750   20.2250 C   0  0  0  0  0  2  0  0  0  0  0  0
  -24.6780  -31.0970   22.1580 N   0  0  0  0  0  0  0  0  0  0  0  0
  -23.5470  -32.1680   23.8100 O   0  0  0  0  0  0  0  0  0  0  0  0
  -22.7460  -29.4910   22.5620 C   0  0  0  0  0  0  0  0  0  0  0  0
  -21.4220  -29.3010   22.4220 N   0  0  0  0  0  0  0  0  0  0  0  0
  -23.4230  -28.8650   23.3820 O   0  0  0  0  0  0  0  0  0  0  0  0
  -20.9360  -29.8570   21.7330 H   0  0  0  0  0  0  0  0  0  0  0  0
  -18.0530  -28.0620   22.8670 C   0  0  0  0  0  0  0  0  0  0  0  0
  -20.6030  -28.3560   23.1830 C   0  0  0  0  0  3  0  0  0  0  0  0
  -20.7340  -26.9240   22.6160 C   0  0  0  0  0  2  0  0  0  0  0  0
  -19.6560  -26.5820   21.5840 C   0  0  0  0  0  2  0  0  0  0  0  0
  -18.2610  -26.7120   22.2010 C   0  0  0  0  0  2  0  0  0  0  0  0
  -19.1540  -28.8410   23.3130 C   0  0  0  0  0  0  0  0  0  0  0  0
  -18.9080  -30.1040   23.8930 C   0  0  0  0  0  3  0  0  0  0  0  0
  -17.5930  -30.5880   24.0320 C   0  0  0  0  0  3  0  0  0  0  0  0
  -16.5070  -29.8070   23.6020 C   0  0  0  0  0  3  0  0  0  0  0  0
  -16.7380  -28.5450   23.0260 C   0  0  0  0  0  3  0  0  0  0  0  0
  -25.9180  -32.5070   23.8860 C   0  0  0  0  0  3  0  0  0  0  0  0
  -25.6200  -33.9040   24.2270 N   0  0  0  0  0  0  0  0  0  0  0  0
  -25.9310  -34.9580   23.4610 C   0  0  0  0  0  0  0  0  0  0  0  0
  -26.5710  -34.8560   22.4090 O   0  0  0  0  0  0  0  0  0  0  0  0
  -25.0480  -34.0580   25.0450 H   0  0  0  0  0  0  0  0  0  0  0  0
  -24.1820  -36.7430   23.1780 C   0  0  0  0  0  1  0  0  0  0  0  0
  -25.4590  -36.3460   23.9350 C   0  0  0  0  0  3  0  0  0  0  0  0
  -27.6230  -37.2430   24.6720 C   0  0  0  0  0  1  0  0  0  0  0  0
  -26.4810  -37.4030   23.7740 N   0  0  0  0  0  0  0  0  0  0  0  0
  -26.0780  -38.3220   23.9330 H   0  0  0  0  0  0  0  0  0  0  0  0
  -26.4320  -31.7200   25.1530 C   0  0  1  0  0  0  0  0  0  0  0  0
  -25.3390  -31.4800   26.2210 C   0  0  0  0  0  1  0  0  0  0  0  0
  -27.0040  -30.3410   24.7480 C   0  0  0  0  0  1  0  0  0  0  0  0
  -27.5900  -32.5000   25.8190 C   0  0  0  0  0  1  0  0  0  0  0  0
  1  9  1  0
  1  3  1  0
  2  1  2  0
  3  8  1  0
  4  7  1  0
  5  4  1  0
  6  2  1  0
  6  4  2  0
  7  3  2  0
  8 10  1  0
 11 24  1  0
 12 17  1  0
 13 14  1  0
 13 12  1  0
 15 14  1  0
 15 28  1  0
 15 16  1  0
 17 11  1  0
 17 16  1  0
 18 11  2  0
 19 23  1  0
 21 19  1  0
 21 24  1  0
 22 20  1  0
 23  8  1  0
 23 20  1  0
 24 22  1  0
 25 26  2  0
 26 45  1  0
 27 26  1  0
 27 30  1  0
 28 29  1  0
 28 25  1  0
 29 27  2  0
 30 31  1  0
 31 32  2  0
 33 36  1  0
 33 32  1  0
 34 33  2  0
 35 34  1  0
 35 30  2  0
 36 37  1  0
 37 38  1  0
 38 39  2  0
 40 39  1  0
 40 44  1  0
 41 40  2  0
 42 37  2  0
 42 41  1  0
 43 42  1  0
 45 46  1  0
 46 49  1  0
 46 48  1  0
 47 45  2  0
 50 25  1  0
 50 51  1  0
 52 50  1  0
 53 54  1  0
 53  2  1  0
 55 66  2  0
 56 54  1  0
 56 61  1  0
 57 65  1  0
 57 67  1  0
 58 64  1  0
 58 60  1  0
 59 65  1  0
 60 59  1  0
 61 60  2  0
 62 63  1  0
 62 56  2  0
 63 58  2  0
 64 57  1  0
 65 55  1  0
 67 69  2  0
 68 67  1  0
 70 68  1  0
 71 80  2  0
 71 76  1  0
 72 68  1  0
 72 76  1  0
 73 72  1  0
 74 75  1  0
 74 73  1  0
 75 71  1  0
 76 77  2  0
 77 78  1  0
 79 78  2  0
 80 79  1  0
 81 55  1  0
 81 82  1  0
 81 91  1  0
 82 85  1  0
 83 87  1  0
 83 82  1  0
 84 83  2  0
 87 86  1  0
 89 90  1  0
 89 87  1  0
 89 88  1  0
 91 94  1  1
 91 92  1  0
 93 91  1  0
M  ISO  4  11 100  24 100  53 101  54 101
M  END
>  <TORSDO>  (94) 
F 17

>  <SCORE>  (94) 
-14.809

>  <name>  (94) 
93

>  <ligand_id>  (94) 
93

>  <original_smiles>  (94) 
[H]c1c([H])c([H])c2c(c1[H])C([H])([H])C([H])([H])C([H])([H])C2([H])N([H])C(=O)C1([H])N(C(=O)C([H])(N([H])C(=O)C([H])(N([H])C([H])([H])[H])C([H])([H])[H])C(C([H])([H])[H])(C([H])([H])[H])C([H])([H])[H])C([H])([H])c2c([H])c(OC([H])([H])c3nc(C([H])([H])[H])nc(N([H])C4([H])C([H])([H])C([H])([H])N(C(=O)N5C([H])([H])C([H])([H])C([H])([H])C([H])(n6nc(-c7c([H])c([H])c(Oc8c([H])c([H])c(F)c([H])c8F)c([H])c7[H])c(C(=O)N([H])[H])c6N([H])[H])C5([H])[H])C([H])([H])C4([H])[H])c3Cl)c([H])c([H])c2C1([H])[H]

>  <smiles>  (94) 
[H]c1c([H])c([H])c2c(c1[H])C([H])([H])C([H])([H])C([H])([H])C2([H])N([H])C(=O)C1([H])N(C(=O)C([H])(N([H])C(=O)C([H])(N([H])C([H])([H])[H])C([H])([H])[H])C(C([H])([H])[H])(C([H])([H])[H])C([H])([H])[H])C([H])([H])c2c([H])c(OC([H])([H])c3nc(C([H])([H])[H])nc(N([H])C4([H])C([H])([H])C([H])([H])N(C(=O)N5C([H])([H])C([H])([H])C([H])([H])C([H])(n6nc(-c7c([H])c([H])c(Oc8c([H])c([H])c(F)c([H])c8F)c([H])c7[H])c(C(=O)N([H])[H])c6N([H])[H])C5([H])[H])C([H])([H])C4([H])[H])c3Cl)c([H])c([H])c2C1([H])[H]

$$$$
94:0:0
     RDKit          3D

 88 97  0  0  1  0  0  0  0  0999 V2000
  -30.3950  -15.5610   20.3470 C   0  0  0  0  0  0  0  0  0  0  0  0
  -30.3840  -13.0580   19.5070 C   0  0  0  0  0  2  0  0  0  0  0  0
  -29.5080  -12.6790   18.2860 C   0  0  0  0  0  2  0  0  0  0  0  0
  -28.0780  -12.3480   18.7330 C   0  0  0  0  0  2  0  0  0  0  0  0
  -27.5660  -13.3580   19.7860 C   0  0  0  0  0  3  0  0  0  0  0  0
  -28.5850  -13.6780   20.9040 C   0  0  0  0  0  2  0  0  0  0  0  0
  -29.7700  -14.2570   20.2350 N   0  0  0  0  0  0  0  0  0  0  0  0
  -31.6260  -15.3880   20.2450 O   0  0  0  0  0  0  0  0  0  0  0  0
  -30.2240  -19.7300   20.3770 C   0  0  0  0  0  0  0  0  0  0  0  0
  -28.8720  -19.6940   20.3180 C   0  0  0  0  0  0  0  0  0  0  0  0
  -30.7710  -21.0650   20.3990 C   0  0  0  0  0  0  0  0  0  0  0  0
  -28.6800  -22.3300   20.2880 C   0  0  0  0  0  0  0  0  0  0  0  0
  -30.8630  -18.2390   20.4060 C   0  0  0  0  0  3  0  0  0  0  0  0
  -28.5960  -18.0210   20.3290 C   0  0  0  0  0  3  0  0  0  0  0  0
  -32.2710  -21.2550   20.4730 C   0  0  0  0  0  1  0  0  0  0  0  0
  -28.1230  -20.9740   20.2680 N   0  0  0  0  0  0  0  0  0  0  0  0
  -30.0380  -22.2590   20.3550 N   0  0  0  0  0  0  0  0  0  0  0  0
  -29.8860  -17.0270   20.3720 N   0  0  0  0  0  0  0  0  0  0  0  0
  -25.1940  -13.8800   20.5220 C   0  0  0  0  0  0  0  0  0  0  0  0
  -24.1350  -13.0930   20.8750 C   0  0  0  0  0  0  0  0  0  0  0  0
  -24.6180  -11.7470   20.8600 C   0  0  0  0  0  0  0  0  0  0  0  0
  -26.2470  -13.0160   20.2960 N   0  0  0  0  0  0  0  0  0  0  0  0
  -25.9160  -11.7270   20.5710 N   0  0  0  0  0  0  0  0  0  0  0  0
  -23.9000  -10.4790   21.0440 C   0  0  0  0  0  0  0  0  0  0  0  0
  -24.3250   -9.5170   21.9880 C   0  0  0  0  0  3  0  0  0  0  0  0
  -23.6010   -8.3180   22.1630 C   0  0  0  0  0  3  0  0  0  0  0  0
  -22.4390   -8.0710   21.3940 C   0  0  0  0  0  0  0  0  0  0  0  0
  -22.0350   -9.0200   20.4390 C   0  0  0  0  0  3  0  0  0  0  0  0
  -22.7580  -10.2110   20.2620 C   0  0  0  0  0  3  0  0  0  0  0  0
  -21.6890   -6.9210   21.4770 O   0  0  0  0  0  0  0  0  0  0  0  0
  -21.6280   -6.1830   22.6320 C   0  0  0  0  0  0  0  0  0  0  0  0
  -21.1800   -6.7400   23.8490 C   0  0  0  0  0  3  0  0  0  0  0  0
  -21.0670   -5.9290   24.9960 C   0  0  0  0  0  3  0  0  0  0  0  0
  -21.3920   -4.5610   24.9260 C   0  0  0  0  0  0  0  0  0  0  0  0
  -21.8330   -4.0030   23.7130 C   0  0  0  0  0  3  0  0  0  0  0  0
  -21.9470   -4.8110   22.5690 C   0  0  0  0  0  0  0  0  0  0  0  0
  -22.3520   -4.2640   21.3970 F   0  0  0  0  0  0  0  0  0  0  0  0
  -21.2760   -3.7790   26.0250 F   0  0  0  0  0  0  0  0  0  0  0  0
  -22.7290  -13.5570   21.1110 C   0  0  0  0  0  0  0  0  0  0  0  0
  -21.9930  -12.8680   21.9750 N   0  0  0  0  0  0  0  0  0  0  0  0
  -22.2910  -14.5690   20.5650 O   0  0  0  0  0  0  0  0  0  0  0  0
  -22.3600  -12.0480   22.4350 H   0  0  0  0  0  0  0  0  0  0  0  0
  -21.0490  -13.1630   22.1780 H   0  0  0  0  0  0  0  0  0  0  0  0
  -25.3460  -15.2520   20.3380 N   0  0  0  0  0  0  0  0  0  0  0  0
  -24.5750  -15.9020   20.4450 H   0  0  0  0  0  0  0  0  0  0  0  0
  -26.1970  -15.6940   20.0160 H   0  0  0  0  0  0  0  0  0  0  0  0
  -27.8230  -23.9470   20.1380 C   0  0  0  0  0  2  0  0  0  0  0  0
  -28.1400  -25.6330   20.3130 O   0  0  0  0  0  0  0  0  0  0  0  0
  -24.6590  -31.8650   23.1970 C   0  0  0  0  0  0  0  0  0  0  0  0
  -27.1820  -26.8290   20.2380 C   0  0  0  0  0  0  0  0  0  0  0  0
  -23.4740  -30.4710   21.5550 C   0  0  0  0  0  3  0  0  0  0  0  0
  -24.9240  -28.8270   20.1550 C   0  0  0  0  0  0  0  0  0  0  0  0
  -26.0510  -30.6220   21.4440 C   0  0  0  0  0  2  0  0  0  0  0  0
  -26.1140  -29.1940   20.7950 C   0  0  0  0  0  0  0  0  0  0  0  0
  -27.2330  -28.2190   20.8070 C   0  0  0  0  0  3  0  0  0  0  0  0
  -25.9610  -26.6570   19.5400 C   0  0  0  0  0  3  0  0  0  0  0  0
  -24.8830  -27.5840   19.5040 C   0  0  0  0  0  3  0  0  0  0  0  0
  -23.7180  -29.7740   20.1860 C   0  0  0  0  0  2  0  0  0  0  0  0
  -24.7500  -31.0160   22.1190 N   0  0  0  0  0  0  0  0  0  0  0  0
  -23.5650  -32.1690   23.7030 O   0  0  0  0  0  0  0  0  0  0  0  0
  -22.7530  -29.4920   22.5220 C   0  0  0  0  0  0  0  0  0  0  0  0
  -21.4190  -29.3560   22.4000 N   0  0  0  0  0  0  0  0  0  0  0  0
  -23.4040  -28.8560   23.3530 O   0  0  0  0  0  0  0  0  0  0  0  0
  -20.9450  -29.9210   21.7090 H   0  0  0  0  0  0  0  0  0  0  0  0
  -18.0150  -28.1980   22.9180 C   0  0  0  0  0  0  0  0  0  0  0  0
  -20.5800  -28.4280   23.1700 C   0  0  0  0  0  3  0  0  0  0  0  0
  -20.6580  -26.9970   22.5900 C   0  0  0  0  0  2  0  0  0  0  0  0
  -19.5480  -26.6940   21.5790 C   0  0  0  0  0  2  0  0  0  0  0  0
  -18.1710  -26.8530   22.2280 C   0  0  0  0  0  2  0  0  0  0  0  0
  -19.1460  -28.9450   23.3450 C   0  0  0  0  0  0  0  0  0  0  0  0
  -18.9430  -30.2020   23.9550 C   0  0  0  0  0  3  0  0  0  0  0  0
  -17.6440  -30.7140   24.1370 C   0  0  0  0  0  3  0  0  0  0  0  0
  -16.5290  -29.9650   23.7220 C   0  0  0  0  0  3  0  0  0  0  0  0
  -16.7150  -28.7090   23.1190 C   0  0  0  0  0  3  0  0  0  0  0  0
  -25.9230  -32.5080   23.8450 C   0  0  0  0  0  3  0  0  0  0  0  0
  -25.6070  -33.9100   24.1790 N   0  0  0  0  0  0  0  0  0  0  0  0
  -25.9360  -34.9730   23.4350 C   0  0  0  0  0  0  0  0  0  0  0  0
  -26.6000  -34.8800   22.4000 O   0  0  0  0  0  0  0  0  0  0  0  0
  -25.0270  -34.0590   24.9910 H   0  0  0  0  0  0  0  0  0  0  0  0
  -24.2050  -36.7760   23.1240 C   0  0  0  0  0  1  0  0  0  0  0  0
  -25.4580  -36.3620   23.9110 C   0  0  0  0  0  3  0  0  0  0  0  0
  -27.6060  -37.2480   24.7120 C   0  0  0  0  0  1  0  0  0  0  0  0
  -26.4890  -37.4170   23.7860 N   0  0  0  0  0  0  0  0  0  0  0  0
  -26.0830  -38.3360   23.9430 H   0  0  0  0  0  0  0  0  0  0  0  0
  -26.4110  -31.7460   25.1390 C   0  0  1  0  0  0  0  0  0  0  0  0
  -25.2990  -31.5290   26.1920 C   0  0  0  0  0  1  0  0  0  0  0  0
  -26.9880  -30.3580   24.7800 C   0  0  0  0  0  1  0  0  0  0  0  0
  -27.5570  -32.5370   25.8120 C   0  0  0  0  0  1  0  0  0  0  0  0
  1 18  1  0
  2  7  1  0
  3  4  1  0
  3  2  1  0
  5  4  1  0
  5 22  1  0
  5  6  1  0
  7  1  1  0
  7  6  1  0
  8  1  2  0
  9 11  1  0
  9 13  2  0
 10 14  2  0
 10  9  1  0
 11 15  1  0
 12 17  1  0
 14 18  1  0
 16 12  2  0
 16 10  1  0
 17 11  2  0
 18 13  1  0
 19 20  2  0
 20 39  1  0
 21 20  1  0
 21 24  1  0
 22 19  1  0
 22 23  1  0
 23 21  2  0
 24 25  1  0
 25 26  2  0
 27 30  1  0
 27 26  1  0
 28 27  2  0
 29 28  1  0
 29 24  2  0
 30 31  1  0
 31 32  1  0
 32 33  2  0
 34 33  1  0
 34 38  1  0
 35 34  2  0
 36 31  2  0
 36 35  1  0
 37 36  1  0
 39 40  1  0
 40 43  1  0
 40 42  1  0
 41 39  2  0
 44 45  1  0
 44 19  1  0
 46 44  1  0
 47 12  1  0
 47 48  1  0
 49 60  2  0
 50 48  1  0
 50 55  1  0
 51 59  1  0
 51 61  1  0
 52 58  1  0
 52 54  1  0
 53 59  1  0
 54 55  2  0
 54 53  1  0
 56 50  2  0
 57 56  1  0
 57 52  2  0
 58 51  1  0
 59 49  1  0
 61 63  2  0
 62 61  1  0
 64 62  1  0
 65 74  2  0
 65 70  1  0
 66 62  1  0
 66 70  1  0
 67 66  1  0
 68 69  1  0
 68 67  1  0
 69 65  1  0
 70 71  2  0
 71 72  1  0
 73 72  2  0
 74 73  1  0
 75 49  1  0
 75 76  1  0
 75 85  1  0
 76 79  1  0
 77 81  1  0
 77 76  1  0
 78 77  2  0
 81 80  1  0
 83 81  1  0
 83 84  1  0
 83 82  1  0
 85 88  1  1
 85 86  1  0
 87 85  1  0
M  ISO  4   1 100  18 100  47 101  48 101
M  END
>  <TORSDO>  (95) 
F 16

>  <SCORE>  (95) 
-16.876

>  <name>  (95) 
94

>  <ligand_id>  (95) 
94

>  <original_smiles>  (95) 
[H]c1c([H])c([H])c2c(c1[H])C([H])([H])C([H])([H])C([H])([H])C2([H])N([H])C(=O)C1([H])N(C(=O)C([H])(N([H])C(=O)C([H])(N([H])C([H])([H])[H])C([H])([H])[H])C(C([H])([H])[H])(C([H])([H])[H])C([H])([H])[H])C([H])([H])c2c([H])c(OC([H])([H])c3nc(C([H])([H])[H])c4c(n3)C([H])([H])N(C(=O)N3C([H])([H])C([H])([H])C([H])([H])C([H])(n5nc(-c6c([H])c([H])c(Oc7c([H])c([H])c(F)c([H])c7F)c([H])c6[H])c(C(=O)N([H])[H])c5N([H])[H])C3([H])[H])C4([H])[H])c([H])c([H])c2C1([H])[H]

>  <smiles>  (95) 
[H]c1c([H])c([H])c2c(c1[H])C([H])([H])C([H])([H])C([H])([H])C2([H])N([H])C(=O)C1([H])N(C(=O)C([H])(N([H])C(=O)C([H])(N([H])C([H])([H])[H])C([H])([H])[H])C(C([H])([H])[H])(C([H])([H])[H])C([H])([H])[H])C([H])([H])c2c([H])c(OC([H])([H])c3nc(C([H])([H])[H])c4c(n3)C([H])([H])N(C(=O)N3C([H])([H])C([H])([H])C([H])([H])C([H])(n5nc(-c6c([H])c([H])c(Oc7c([H])c([H])c(F)c([H])c7F)c([H])c6[H])c(C(=O)N([H])[H])c5N([H])[H])C3([H])[H])C4([H])[H])c([H])c([H])c2C1([H])[H]

$$$$
95:0:0
     RDKit          3D

 97106  0  0  1  0  0  0  0  0999 V2000
  -31.0430  -25.0000   18.7960 C   0  0  0  0  0  2  0  0  0  0  0  0
  -30.5150  -24.1450   20.8990 C   0  0  0  0  0  2  0  0  0  0  0  0
  -29.8850  -23.9930   18.6130 C   0  0  0  0  0  3  0  0  0  0  0  0
  -29.3160  -23.6500   20.0440 C   0  0  1  0  0  0  0  0  0  0  0  0
  -28.8920  -24.5430   17.5600 C   0  0  0  0  0  1  0  0  0  0  0  0
  -31.0870  -25.3080   20.2220 N   0  0  0  0  0  4  0  0  0  0  0  0
  -30.4940  -26.1070   20.3940 H   0  0  0  0  0  0  0  0  0  0  0  0
  -32.0210  -25.5170   20.5370 H   0  0  0  0  0  0  0  0  0  0  0  0
  -29.8530  -19.8540   21.4960 C   0  0  0  0  0  3  0  0  0  0  0  0
  -29.1850  -21.9850   20.2700 C   0  0  0  0  0  0  0  0  0  0  0  0
  -29.5830  -21.2760   21.4710 C   0  0  0  0  0  0  0  0  0  0  0  0
  -29.6950  -19.0040   20.3670 C   0  0  0  0  0  0  0  0  0  0  0  0
  -28.8690  -20.9980   19.2490 C   0  0  0  0  0  0  0  0  0  0  0  0
  -29.7560  -21.9910   22.8000 C   0  0  0  0  0  1  0  0  0  0  0  0
  -28.0990  -21.3610   17.9950 C   0  0  0  0  0  1  0  0  0  0  0  0
  -29.1490  -19.6340   19.2860 N   0  0  0  0  0  0  0  0  0  0  0  0
  -30.4230  -17.5460   20.2130 C   0  0  0  0  0  2  0  0  0  0  0  0
  -30.5740  -14.9030   20.1850 C   0  0  0  0  0  0  0  0  0  0  0  0
  -30.3540  -12.5950   19.2020 C   0  0  0  0  0  2  0  0  0  0  0  0
  -29.3820  -12.6110   18.0010 C   0  0  0  0  0  2  0  0  0  0  0  0
  -27.9310  -12.4170   18.4780 C   0  0  0  0  0  2  0  0  0  0  0  0
  -27.5790  -13.3190   19.6920 C   0  0  0  0  0  3  0  0  0  0  0  0
  -28.6710  -13.2910   20.7810 C   0  0  0  0  0  2  0  0  0  0  0  0
  -29.9320  -13.6750   20.1350 N   0  0  0  0  0  0  0  0  0  0  0  0
  -31.7630  -14.9450   19.8550 O   0  0  0  0  0  0  0  0  0  0  0  0
  -29.8650  -16.1050   20.3830 N   0  0  0  0  0  0  0  0  0  0  0  0
  -28.8830  -16.0330   20.5980 H   0  0  0  0  0  0  0  0  0  0  0  0
  -25.2280  -13.8970   20.5240 C   0  0  0  0  0  0  0  0  0  0  0  0
  -24.1730  -13.1200   20.9150 C   0  0  0  0  0  0  0  0  0  0  0  0
  -24.6270  -11.7680   20.8390 C   0  0  0  0  0  0  0  0  0  0  0  0
  -26.2570  -13.0180   20.2290 N   0  0  0  0  0  0  0  0  0  0  0  0
  -25.9070  -11.7310   20.4840 N   0  0  0  0  0  0  0  0  0  0  0  0
  -23.9000  -10.5050   21.0250 C   0  0  0  0  0  0  0  0  0  0  0  0
  -24.3360   -9.5300   21.9480 C   0  0  0  0  0  3  0  0  0  0  0  0
  -23.6070   -8.3340   22.1250 C   0  0  0  0  0  3  0  0  0  0  0  0
  -22.4260   -8.1050   21.3780 C   0  0  0  0  0  0  0  0  0  0  0  0
  -22.0090   -9.0690   20.4430 C   0  0  0  0  0  3  0  0  0  0  0  0
  -22.7390  -10.2570   20.2650 C   0  0  0  0  0  3  0  0  0  0  0  0
  -21.6690   -6.9630   21.4630 O   0  0  0  0  0  0  0  0  0  0  0  0
  -21.6010   -6.2290   22.6210 C   0  0  0  0  0  0  0  0  0  0  0  0
  -21.1450   -6.7920   23.8340 C   0  0  0  0  0  3  0  0  0  0  0  0
  -21.0250   -5.9840   24.9830 C   0  0  0  0  0  3  0  0  0  0  0  0
  -21.3510   -4.6160   24.9200 C   0  0  0  0  0  0  0  0  0  0  0  0
  -21.7990   -4.0530   23.7120 C   0  0  0  0  0  3  0  0  0  0  0  0
  -21.9210   -4.8580   22.5660 C   0  0  0  0  0  0  0  0  0  0  0  0
  -22.3320   -4.3060   21.3990 F   0  0  0  0  0  0  0  0  0  0  0  0
  -21.2280   -3.8390   26.0210 F   0  0  0  0  0  0  0  0  0  0  0  0
  -22.7880  -13.5990   21.2400 C   0  0  0  0  0  0  0  0  0  0  0  0
  -22.0850  -12.8910   22.1170 N   0  0  0  0  0  0  0  0  0  0  0  0
  -22.3400  -14.6360   20.7530 O   0  0  0  0  0  0  0  0  0  0  0  0
  -22.4620  -12.0520   22.5320 H   0  0  0  0  0  0  0  0  0  0  0  0
  -21.1570  -13.1920   22.3760 H   0  0  0  0  0  0  0  0  0  0  0  0
  -25.3920  -15.2700   20.3670 N   0  0  0  0  0  0  0  0  0  0  0  0
  -24.6290  -15.9230   20.5130 H   0  0  0  0  0  0  0  0  0  0  0  0
  -26.2210  -15.7100   19.9880 H   0  0  0  0  0  0  0  0  0  0  0  0
  -28.1100  -24.7540   20.3690 C   0  0  0  0  0  2  0  0  0  0  0  0
  -28.3330  -26.2820   20.2470 O   0  0  0  0  0  0  0  0  0  0  0  0
  -24.6780  -31.8910   23.2580 C   0  0  0  0  0  0  0  0  0  0  0  0
  -27.2490  -27.2180   20.2110 C   0  0  0  0  0  0  0  0  0  0  0  0
  -23.4720  -30.4990   21.6190 C   0  0  0  0  0  3  0  0  0  0  0  0
  -24.9150  -28.9330   20.1880 C   0  0  0  0  0  0  0  0  0  0  0  0
  -26.0220  -30.7760   21.4440 C   0  0  0  0  0  2  0  0  0  0  0  0
  -26.0940  -29.3880   20.7920 C   0  0  0  0  0  0  0  0  0  0  0  0
  -27.2630  -28.5480   20.7840 C   0  0  0  0  0  3  0  0  0  0  0  0
  -26.0460  -26.8550   19.5680 C   0  0  0  0  0  3  0  0  0  0  0  0
  -24.9010  -27.6780   19.5620 C   0  0  0  0  0  3  0  0  0  0  0  0
  -23.6870  -29.8250   20.2380 C   0  0  0  0  0  2  0  0  0  0  0  0
  -24.7440  -31.0760   22.1620 N   0  0  0  0  0  0  0  0  0  0  0  0
  -23.5940  -32.1750   23.7900 O   0  0  0  0  0  0  0  0  0  0  0  0
  -22.8000  -29.4880   22.5800 C   0  0  0  0  0  0  0  0  0  0  0  0
  -21.4710  -29.3140   22.4530 N   0  0  0  0  0  0  0  0  0  0  0  0
  -23.4730  -28.8620   23.4030 O   0  0  0  0  0  0  0  0  0  0  0  0
  -20.9860  -29.8690   21.7630 H   0  0  0  0  0  0  0  0  0  0  0  0
  -18.0930  -28.1110   22.9510 C   0  0  0  0  0  0  0  0  0  0  0  0
  -20.6510  -28.3770   23.2230 C   0  0  0  0  0  3  0  0  0  0  0  0
  -20.7550  -26.9440   22.6500 C   0  0  0  0  0  2  0  0  0  0  0  0
  -19.6560  -26.6170   21.6340 C   0  0  0  0  0  2  0  0  0  0  0  0
  -18.2720  -26.7620   22.2760 C   0  0  0  0  0  2  0  0  0  0  0  0
  -19.2090  -28.8750   23.3810 C   0  0  0  0  0  0  0  0  0  0  0  0
  -18.9860  -30.1380   23.9740 C   0  0  0  0  0  3  0  0  0  0  0  0
  -17.6800  -30.6350   24.1390 C   0  0  0  0  0  3  0  0  0  0  0  0
  -16.5780  -29.8680   23.7240 C   0  0  0  0  0  3  0  0  0  0  0  0
  -16.7850  -28.6060   23.1360 C   0  0  0  0  0  3  0  0  0  0  0  0
  -25.9590  -32.5240   23.8830 C   0  0  0  0  0  3  0  0  0  0  0  0
  -26.4760  -31.7470   25.1570 C   0  0  1  0  0  0  0  0  0  0  0  0
  -25.3840  -31.5070   26.2250 C   0  0  0  0  0  1  0  0  0  0  0  0
  -27.0570  -30.3700   24.7630 C   0  0  0  0  0  1  0  0  0  0  0  0
  -27.6280  -32.5390   25.8200 C   0  0  0  0  0  1  0  0  0  0  0  0
  -25.6480  -33.9200   24.2230 N   0  0  0  0  0  0  0  0  0  0  0  0
  -25.9520  -34.9790   23.4610 C   0  0  0  0  0  0  0  0  0  0  0  0
  -26.5930  -34.8830   22.4110 O   0  0  0  0  0  0  0  0  0  0  0  0
  -25.0740  -34.0680   25.0420 H   0  0  0  0  0  0  0  0  0  0  0  0
  -24.1950  -36.7580   23.1780 C   0  0  0  0  0  1  0  0  0  0  0  0
  -25.4720  -36.3630   23.9380 C   0  0  0  0  0  3  0  0  0  0  0  0
  -27.6290  -37.2720   24.6840 C   0  0  0  0  0  1  0  0  0  0  0  0
  -26.4890  -37.4260   23.7830 N   0  0  0  0  0  0  0  0  0  0  0  0
  -26.0810  -38.3430   23.9430 H   0  0  0  0  0  0  0  0  0  0  0  0
  1  6  1  0
  3  5  1  0
  3  1  1  0
  3  4  1  0
  4 10  1  0
  4 56  1  1
  4  2  1  0
  6  7  1  0
  6  8  1  0
  6  2  1  0
 10 11  2  0
 11  9  1  0
 11 14  1  0
 12  9  2  0
 13 16  2  0
 13 10  1  0
 15 13  1  0
 16 12  1  0
 17 12  1  0
 17 26  1  0
 18 26  1  0
 19 24  1  0
 20 21  1  0
 20 19  1  0
 22 21  1  0
 22 31  1  0
 22 23  1  0
 24 18  1  0
 24 23  1  0
 25 18  2  0
 26 27  1  0
 28 29  2  0
 29 48  1  0
 30 29  1  0
 30 33  1  0
 31 32  1  0
 31 28  1  0
 32 30  2  0
 33 34  1  0
 34 35  2  0
 36 39  1  0
 36 35  1  0
 37 36  2  0
 38 37  1  0
 38 33  2  0
 39 40  1  0
 40 41  1  0
 41 42  2  0
 43 42  1  0
 43 47  1  0
 44 43  2  0
 45 40  2  0
 45 44  1  0
 46 45  1  0
 48 49  1  0
 49 52  1  0
 49 51  1  0
 50 48  2  0
 53 54  1  0
 53 28  1  0
 55 53  1  0
 57 56  1  0
 58 69  2  0
 59 57  1  0
 59 64  1  0
 60 68  1  0
 60 70  1  0
 61 67  1  0
 61 63  1  0
 62 68  1  0
 63 62  1  0
 64 63  2  0
 65 59  2  0
 66 65  1  0
 66 61  2  0
 67 60  1  0
 68 58  1  0
 70 72  2  0
 71 70  1  0
 73 71  1  0
 74 83  2  0
 74 79  1  0
 75 71  1  0
 75 79  1  0
 76 75  1  0
 77 78  1  0
 77 76  1  0
 78 74  1  0
 79 80  2  0
 80 81  1  0
 82 81  2  0
 83 82  1  0
 84 58  1  0
 84 89  1  0
 84 85  1  0
 85 88  1  1
 85 86  1  0
 87 85  1  0
 89 92  1  0
 90 94  1  0
 90 89  1  0
 91 90  2  0
 94 93  1  0
 96 94  1  0
 96 97  1  0
 96 95  1  0
M  ISO  4  18 100  26 100  56 101  57 101
M  END
>  <TORSDO>  (96) 
F 19

>  <SCORE>  (96) 
-14.475

>  <name>  (96) 
95

>  <ligand_id>  (96) 
95

>  <original_smiles>  (96) 
[H]c1c([H])c([H])c2c(c1[H])C([H])([H])C([H])([H])C([H])([H])C2([H])N([H])C(=O)C1([H])N(C(=O)C([H])(N([H])C(=O)C([H])(N([H])C([H])([H])[H])C([H])([H])[H])C(C([H])([H])[H])(C([H])([H])[H])C([H])([H])[H])C([H])([H])c2c([H])c(OC([H])([H])C3(c4c(C([H])([H])[H])nc(C([H])([H])N([H])C(=O)N5C([H])([H])C([H])([H])C([H])([H])C([H])(n6nc(-c7c([H])c([H])c(Oc8c([H])c([H])c(F)c([H])c8F)c([H])c7[H])c(C(=O)N([H])[H])c6N([H])[H])C5([H])[H])c([H])c4C([H])([H])[H])C([H])(C([H])([H])[H])C([H])([H])[N+]([H])([H])C3([H])[H])c([H])c([H])c2C1([H])[H]

>  <smiles>  (96) 
[H]c1c([H])c([H])c2c(c1[H])C([H])([H])C([H])([H])C([H])([H])C2([H])N([H])C(=O)C1([H])N(C(=O)C([H])(N([H])C(=O)C([H])(N([H])C([H])([H])[H])C([H])([H])[H])C(C([H])([H])[H])(C([H])([H])[H])C([H])([H])[H])C([H])([H])c2c([H])c(OC([H])([H])C3(c4c(C([H])([H])[H])nc(C([H])([H])N([H])C(=O)N5C([H])([H])C([H])([H])C([H])([H])C([H])(n6nc(-c7c([H])c([H])c(Oc8c([H])c([H])c(F)c([H])c8F)c([H])c7[H])c(C(=O)N([H])[H])c6N([H])[H])C5([H])[H])c([H])c4C([H])([H])[H])C([H])(C([H])([H])[H])C([H])([H])[N+]([H])([H])C3([H])[H])c([H])c([H])c2C1([H])[H]

$$$$
96:0:0
     RDKit          3D

 92101  0  0  1  0  0  0  0  0999 V2000
  -28.3390  -21.1750   21.0950 C   0  0  0  0  0  3  0  0  0  0  0  0
  -28.1340  -22.5250   21.1440 C   0  0  0  0  0  3  0  0  0  0  0  0
  -30.2390  -22.2080   20.4000 C   0  0  0  0  0  3  0  0  0  0  0  0
  -29.6710  -20.9910   20.6340 C   0  0  0  0  0  0  0  0  0  0  0  0
  -29.2870  -23.1720   20.7080 N   0  0  0  0  0  0  0  0  0  0  0  0
  -30.3300  -19.7690   20.4650 N   0  0  0  0  0  0  0  0  0  0  0  0
  -31.2740  -19.7760   20.0890 H   0  0  0  0  0  0  0  0  0  0  0  0
  -30.7030  -14.4690   20.1550 C   0  0  0  0  0  0  0  0  0  0  0  0
  -30.3220  -12.3320   19.0250 C   0  0  0  0  0  2  0  0  0  0  0  0
  -29.3340  -12.5680   17.8640 C   0  0  0  0  0  2  0  0  0  0  0  0
  -27.8770  -12.4460   18.3520 C   0  0  0  0  0  2  0  0  0  0  0  0
  -27.5980  -13.2660   19.6380 C   0  0  0  0  0  3  0  0  0  0  0  0
  -28.7010  -13.0400   20.6970 C   0  0  0  0  0  2  0  0  0  0  0  0
  -30.0040  -13.3090   20.0680 N   0  0  0  0  0  0  0  0  0  0  0  0
  -31.8650  -14.6000   19.7530 O   0  0  0  0  0  0  0  0  0  0  0  0
  -29.5250  -17.7140   21.6380 C   0  0  0  0  0  2  0  0  0  0  0  0
  -30.0320  -17.7230   19.1380 C   0  0  0  0  0  2  0  0  0  0  0  0
  -30.3370  -16.4030   21.5530 C   0  0  0  0  0  2  0  0  0  0  0  0
  -29.4720  -16.2980   19.2150 C   0  0  0  0  0  2  0  0  0  0  0  0
  -29.5460  -18.5470   20.3340 C   0  0  0  0  0  3  0  0  0  0  0  0
  -29.9570  -15.5630   20.4030 N   0  0  0  0  0  0  0  0  0  0  0  0
  -25.2360  -13.8850   20.4510 C   0  0  0  0  0  0  0  0  0  0  0  0
  -24.1760  -13.1120   20.8450 C   0  0  0  0  0  0  0  0  0  0  0  0
  -24.6290  -11.7580   20.7760 C   0  0  0  0  0  0  0  0  0  0  0  0
  -26.2650  -12.9990   20.1680 N   0  0  0  0  0  0  0  0  0  0  0  0
  -25.9060  -11.7160   20.4220 N   0  0  0  0  0  0  0  0  0  0  0  0
  -23.9060  -10.4950   20.9670 C   0  0  0  0  0  0  0  0  0  0  0  0
  -24.3460   -9.5280   21.8970 C   0  0  0  0  0  3  0  0  0  0  0  0
  -23.6220   -8.3290   22.0760 C   0  0  0  0  0  3  0  0  0  0  0  0
  -22.4470   -8.0910   21.3270 C   0  0  0  0  0  0  0  0  0  0  0  0
  -22.0270   -9.0480   20.3860 C   0  0  0  0  0  3  0  0  0  0  0  0
  -22.7500  -10.2370   20.2040 C   0  0  0  0  0  3  0  0  0  0  0  0
  -21.6930   -6.9460   21.4170 O   0  0  0  0  0  0  0  0  0  0  0  0
  -21.6110   -6.2290   22.5850 C   0  0  0  0  0  0  0  0  0  0  0  0
  -21.1330   -6.8060   23.7820 C   0  0  0  0  0  3  0  0  0  0  0  0
  -21.0010   -6.0140   24.9400 C   0  0  0  0  0  3  0  0  0  0  0  0
  -21.3390   -4.6480   24.9010 C   0  0  0  0  0  0  0  0  0  0  0  0
  -21.8130   -4.0720   23.7090 C   0  0  0  0  0  3  0  0  0  0  0  0
  -21.9460   -4.8610   22.5530 C   0  0  0  0  0  0  0  0  0  0  0  0
  -22.3830   -4.2970   21.4020 F   0  0  0  0  0  0  0  0  0  0  0  0
  -21.2050   -3.8850   26.0110 F   0  0  0  0  0  0  0  0  0  0  0  0
  -22.7920  -13.5900   21.1750 C   0  0  0  0  0  0  0  0  0  0  0  0
  -22.0940  -12.8830   22.0590 N   0  0  0  0  0  0  0  0  0  0  0  0
  -22.3380  -14.6240   20.6870 O   0  0  0  0  0  0  0  0  0  0  0  0
  -22.4760  -12.0460   22.4740 H   0  0  0  0  0  0  0  0  0  0  0  0
  -21.1690  -13.1850   22.3270 H   0  0  0  0  0  0  0  0  0  0  0  0
  -25.4060  -15.2570   20.2900 N   0  0  0  0  0  0  0  0  0  0  0  0
  -24.6550  -15.9180   20.4540 H   0  0  0  0  0  0  0  0  0  0  0  0
  -26.2600  -15.6940   19.9700 H   0  0  0  0  0  0  0  0  0  0  0  0
  -29.4950  -24.6160   20.6470 C   0  0  0  0  0  2  0  0  0  0  0  0
  -28.3130  -25.3650   20.0070 C   0  0  0  0  0  2  0  0  0  0  0  0
  -28.4330  -26.7820   20.1690 O   0  0  0  0  0  0  0  0  0  0  0  0
  -24.6170  -31.9080   23.2730 C   0  0  0  0  0  0  0  0  0  0  0  0
  -27.2540  -27.4980   20.1490 C   0  0  0  0  0  0  0  0  0  0  0  0
  -23.4040  -30.5110   21.6330 C   0  0  0  0  0  3  0  0  0  0  0  0
  -24.8520  -28.9890   20.1900 C   0  0  0  0  0  0  0  0  0  0  0  0
  -25.9250  -30.8810   21.4180 C   0  0  0  0  0  2  0  0  0  0  0  0
  -26.0110  -29.5140   20.7720 C   0  0  0  0  0  0  0  0  0  0  0  0
  -27.2150  -28.7740   20.7510 C   0  0  0  0  0  3  0  0  0  0  0  0
  -26.0740  -26.9940   19.5500 C   0  0  0  0  0  3  0  0  0  0  0  0
  -24.8760  -27.7270   19.5780 C   0  0  0  0  0  3  0  0  0  0  0  0
  -23.6040  -29.8400   20.2480 C   0  0  0  0  0  2  0  0  0  0  0  0
  -24.6670  -31.1130   22.1660 N   0  0  0  0  0  0  0  0  0  0  0  0
  -23.5380  -32.1760   23.8200 O   0  0  0  0  0  0  0  0  0  0  0  0
  -22.7630  -29.4790   22.5870 C   0  0  0  0  0  0  0  0  0  0  0  0
  -21.4400  -29.2910   22.4600 N   0  0  0  0  0  0  0  0  0  0  0  0
  -23.4500  -28.8550   23.4010 O   0  0  0  0  0  0  0  0  0  0  0  0
  -20.9480  -29.8480   21.7750 H   0  0  0  0  0  0  0  0  0  0  0  0
  -18.0720  -28.0830   22.9510 C   0  0  0  0  0  0  0  0  0  0  0  0
  -20.6270  -28.3470   23.2270 C   0  0  0  0  0  3  0  0  0  0  0  0
  -20.7350  -26.9200   22.6450 C   0  0  0  0  0  2  0  0  0  0  0  0
  -19.6350  -26.5960   21.6300 C   0  0  0  0  0  2  0  0  0  0  0  0
  -18.2530  -26.7350   22.2740 C   0  0  0  0  0  2  0  0  0  0  0  0
  -19.1870  -28.8480   23.3850 C   0  0  0  0  0  0  0  0  0  0  0  0
  -18.9650  -30.1090   23.9780 C   0  0  0  0  0  3  0  0  0  0  0  0
  -17.6580  -30.6080   24.1410 C   0  0  0  0  0  3  0  0  0  0  0  0
  -16.5570  -29.8390   23.7260 C   0  0  0  0  0  3  0  0  0  0  0  0
  -16.7650  -28.5790   23.1370 C   0  0  0  0  0  3  0  0  0  0  0  0
  -25.9060  -32.5350   23.8880 C   0  0  0  0  0  3  0  0  0  0  0  0
  -26.4300  -31.7600   25.1580 C   0  0  1  0  0  0  0  0  0  0  0  0
  -25.3410  -31.5150   26.2280 C   0  0  0  0  0  1  0  0  0  0  0  0
  -27.0130  -30.3850   24.7560 C   0  0  0  0  0  1  0  0  0  0  0  0
  -27.5830  -32.5510   25.8180 C   0  0  0  0  0  1  0  0  0  0  0  0
  -25.6020  -33.9340   24.2180 N   0  0  0  0  0  0  0  0  0  0  0  0
  -25.9150  -34.9820   23.4450 C   0  0  0  0  0  0  0  0  0  0  0  0
  -26.5630  -34.8730   22.3990 O   0  0  0  0  0  0  0  0  0  0  0  0
  -25.0230  -34.0930   25.0290 H   0  0  0  0  0  0  0  0  0  0  0  0
  -24.1630  -36.7580   23.1250 C   0  0  0  0  0  1  0  0  0  0  0  0
  -25.4320  -36.3710   23.9030 C   0  0  0  0  0  3  0  0  0  0  0  0
  -27.5820  -37.2800   24.6630 C   0  0  0  0  0  1  0  0  0  0  0  0
  -26.4530  -37.4290   23.7470 N   0  0  0  0  0  0  0  0  0  0  0  0
  -26.0470  -38.3480   23.8930 H   0  0  0  0  0  0  0  0  0  0  0  0
  1  2  2  0
  3  4  2  0
  3  5  1  0
  4  1  1  0
  5  2  1  0
  6  4  1  0
  7  6  1  0
  8 21  1  0
  9 14  1  0
 10 11  1  0
 10  9  1  0
 12 11  1  0
 12 25  1  0
 12 13  1  0
 14  8  1  0
 14 13  1  0
 15  8  2  0
 17 19  1  0
 17 20  1  0
 18 16  1  0
 19 21  1  0
 20  6  1  0
 20 16  1  0
 21 18  1  0
 22 23  2  0
 23 42  1  0
 24 23  1  0
 24 27  1  0
 25 26  1  0
 25 22  1  0
 26 24  2  0
 27 28  1  0
 28 29  2  0
 30 33  1  0
 30 29  1  0
 31 30  2  0
 32 31  1  0
 32 27  2  0
 33 34  1  0
 34 35  1  0
 35 36  2  0
 37 36  1  0
 37 41  1  0
 38 37  2  0
 39 34  2  0
 39 38  1  0
 40 39  1  0
 42 43  1  0
 43 46  1  0
 43 45  1  0
 44 42  2  0
 47 22  1  0
 47 48  1  0
 49 47  1  0
 50  5  1  0
 51 52  1  0
 51 50  1  0
 53 64  2  0
 54 52  1  0
 54 59  1  0
 55 63  1  0
 55 65  1  0
 56 62  1  0
 56 58  1  0
 57 63  1  0
 58 57  1  0
 59 58  2  0
 60 61  1  0
 60 54  2  0
 61 56  2  0
 62 55  1  0
 63 53  1  0
 65 67  2  0
 66 65  1  0
 68 66  1  0
 69 78  2  0
 69 74  1  0
 70 66  1  0
 70 74  1  0
 71 70  1  0
 72 73  1  0
 72 71  1  0
 73 69  1  0
 74 75  2  0
 75 76  1  0
 77 76  2  0
 78 77  1  0
 79 53  1  0
 79 84  1  0
 79 80  1  0
 80 83  1  1
 80 81  1  0
 82 80  1  0
 84 87  1  0
 85 89  1  0
 85 84  1  0
 86 85  2  0
 89 88  1  0
 91 92  1  0
 91 89  1  0
 91 90  1  0
M  ISO  4   8 100  21 100  51 101  52 101
M  END
>  <TORSDO>  (97) 
F 19

>  <SCORE>  (97) 
-14.150

>  <name>  (97) 
96

>  <ligand_id>  (97) 
96

>  <original_smiles>  (97) 
[H]c1c([H])c([H])c2c(c1[H])C([H])([H])C([H])([H])C([H])([H])C2([H])N([H])C(=O)C1([H])N(C(=O)C([H])(N([H])C(=O)C([H])(N([H])C([H])([H])[H])C([H])([H])[H])C(C([H])([H])[H])(C([H])([H])[H])C([H])([H])[H])C([H])([H])c2c([H])c(OC([H])([H])C([H])([H])n3c([H])c([H])c(N([H])C4([H])C([H])([H])C([H])([H])N(C(=O)N5C([H])([H])C([H])([H])C([H])([H])C([H])(n6nc(-c7c([H])c([H])c(Oc8c([H])c([H])c(F)c([H])c8F)c([H])c7[H])c(C(=O)N([H])[H])c6N([H])[H])C5([H])[H])C([H])([H])C4([H])[H])c3[H])c([H])c([H])c2C1([H])[H]

>  <smiles>  (97) 
[H]c1c([H])c([H])c2c(c1[H])C([H])([H])C([H])([H])C([H])([H])C2([H])N([H])C(=O)C1([H])N(C(=O)C([H])(N([H])C(=O)C([H])(N([H])C([H])([H])[H])C([H])([H])[H])C(C([H])([H])[H])(C([H])([H])[H])C([H])([H])[H])C([H])([H])c2c([H])c(OC([H])([H])C([H])([H])n3c([H])c([H])c(N([H])C4([H])C([H])([H])C([H])([H])N(C(=O)N5C([H])([H])C([H])([H])C([H])([H])C([H])(n6nc(-c7c([H])c([H])c(Oc8c([H])c([H])c(F)c([H])c8F)c([H])c7[H])c(C(=O)N([H])[H])c6N([H])[H])C5([H])[H])C([H])([H])C4([H])[H])c3[H])c([H])c([H])c2C1([H])[H]

$$$$
97:0:0
     RDKit          3D

 89 98  0  0  1  0  0  0  0  0999 V2000
  -28.3400  -18.9310   21.2090 C   0  0  0  0  0  2  0  0  0  0  0  0
  -27.9000  -21.1820   19.8810 C   0  0  0  0  0  2  0  0  0  0  0  0
  -30.1720  -20.7590   20.3810 C   0  0  0  0  0  2  0  0  0  0  0  0
  -28.1490  -19.6370   19.8970 C   0  0  0  0  0  3  0  0  0  0  0  0
  -29.5520  -19.2520   20.3510 C   0  0  2  0  0  0  0  0  0  0  0  0
  -29.0830  -21.8850   20.4690 N   0  0  1  0  0  4  0  0  0  0  0  0
  -28.8910  -21.9320   21.4600 H   0  0  0  0  0  0  0  0  0  0  0  0
  -30.4810  -17.8820   20.0220 C   0  0  0  0  0  2  0  0  0  0  0  0
  -30.8890  -15.1460   19.9310 C   0  0  0  0  0  0  0  0  0  0  0  0
  -30.7220  -12.8180   18.9470 C   0  0  0  0  0  2  0  0  0  0  0  0
  -29.7150  -12.7860   17.7730 C   0  0  0  0  0  2  0  0  0  0  0  0
  -28.2840  -12.5420   18.2890 C   0  0  0  0  0  2  0  0  0  0  0  0
  -27.9390  -13.4480   19.5000 C   0  0  0  0  0  3  0  0  0  0  0  0
  -29.0560  -13.4540   20.5620 C   0  0  0  0  0  2  0  0  0  0  0  0
  -30.2890  -13.8880   19.8940 N   0  0  0  0  0  0  0  0  0  0  0  0
  -32.0650  -15.2150   19.5590 O   0  0  0  0  0  0  0  0  0  0  0  0
  -30.1340  -16.3350   20.1810 N   0  0  0  0  0  0  0  0  0  0  0  0
  -29.1780  -16.1570   20.4470 H   0  0  0  0  0  0  0  0  0  0  0  0
  -25.6220  -14.0000   20.4310 C   0  0  0  0  0  0  0  0  0  0  0  0
  -24.5840  -13.2130   20.8470 C   0  0  0  0  0  0  0  0  0  0  0  0
  -25.0390  -11.8630   20.7310 C   0  0  0  0  0  0  0  0  0  0  0  0
  -26.6390  -13.1290   20.0780 N   0  0  0  0  0  0  0  0  0  0  0  0
  -26.3040  -11.8370   20.3280 N   0  0  0  0  0  0  0  0  0  0  0  0
  -24.3210  -10.5960   20.9230 C   0  0  0  0  0  0  0  0  0  0  0  0
  -24.7520   -9.6400   21.8720 C   0  0  0  0  0  3  0  0  0  0  0  0
  -24.0340   -8.4390   22.0510 C   0  0  0  0  0  3  0  0  0  0  0  0
  -22.8730   -8.1820   21.2820 C   0  0  0  0  0  0  0  0  0  0  0  0
  -22.4610   -9.1260   20.3260 C   0  0  0  0  0  3  0  0  0  0  0  0
  -23.1790  -10.3200   20.1440 C   0  0  0  0  0  3  0  0  0  0  0  0
  -22.1270   -7.0330   21.3710 O   0  0  0  0  0  0  0  0  0  0  0  0
  -21.9870   -6.3550   22.5560 C   0  0  0  0  0  0  0  0  0  0  0  0
  -21.3840   -6.9470   23.6880 C   0  0  0  0  0  3  0  0  0  0  0  0
  -21.1960   -6.1900   24.8620 C   0  0  0  0  0  3  0  0  0  0  0  0
  -21.6040   -4.8430   24.9050 C   0  0  0  0  0  0  0  0  0  0  0  0
  -22.2030   -4.2520   23.7790 C   0  0  0  0  0  3  0  0  0  0  0  0
  -22.3910   -5.0050   22.6070 C   0  0  0  0  0  0  0  0  0  0  0  0
  -22.9480   -4.4240   21.5170 F   0  0  0  0  0  0  0  0  0  0  0  0
  -21.4180   -4.1150   26.0310 F   0  0  0  0  0  0  0  0  0  0  0  0
  -23.2110  -13.6810   21.2300 C   0  0  0  0  0  0  0  0  0  0  0  0
  -22.5370  -12.9580   22.1170 N   0  0  0  0  0  0  0  0  0  0  0  0
  -22.7420  -14.7220   20.7730 O   0  0  0  0  0  0  0  0  0  0  0  0
  -22.9270  -12.1150   22.5110 H   0  0  0  0  0  0  0  0  0  0  0  0
  -21.6150  -13.2550   22.4090 H   0  0  0  0  0  0  0  0  0  0  0  0
  -25.7790  -15.3790   20.2960 N   0  0  0  0  0  0  0  0  0  0  0  0
  -25.0190  -16.0260   20.4740 H   0  0  0  0  0  0  0  0  0  0  0  0
  -26.6000  -15.8250   19.9090 H   0  0  0  0  0  0  0  0  0  0  0  0
  -29.3350  -23.4140   20.0430 C   0  0  0  0  0  3  0  0  0  0  0  0
  -28.4320  -24.7670   20.5650 C   0  0  0  0  0  3  0  0  0  0  0  0
  -28.6650  -26.2970   20.2610 O   0  0  0  0  0  0  0  0  0  0  0  0
  -24.8270  -31.8830   23.2390 C   0  0  0  0  0  0  0  0  0  0  0  0
  -27.5920  -27.2670   20.2200 C   0  0  0  0  0  0  0  0  0  0  0  0
  -23.7080  -30.4950   21.5350 C   0  0  0  0  0  3  0  0  0  0  0  0
  -25.2360  -28.9800   20.1280 C   0  0  0  0  0  0  0  0  0  0  0  0
  -26.2600  -30.8180   21.4530 C   0  0  0  0  0  2  0  0  0  0  0  0
  -26.3870  -29.4370   20.7840 C   0  0  0  0  0  0  0  0  0  0  0  0
  -27.5700  -28.6020   20.8070 C   0  0  0  0  0  3  0  0  0  0  0  0
  -26.4180  -26.9200   19.5180 C   0  0  0  0  0  3  0  0  0  0  0  0
  -25.2670  -27.7390   19.4740 C   0  0  0  0  0  3  0  0  0  0  0  0
  -23.9900  -29.8530   20.1510 C   0  0  0  0  0  2  0  0  0  0  0  0
  -24.9500  -31.0870   22.1300 N   0  0  0  0  0  0  0  0  0  0  0  0
  -23.7200  -32.1310   23.7400 O   0  0  0  0  0  0  0  0  0  0  0  0
  -23.0210  -29.4560   22.4560 C   0  0  0  0  0  0  0  0  0  0  0  0
  -21.6940  -29.2860   22.3120 N   0  0  0  0  0  0  0  0  0  0  0  0
  -23.6860  -28.8020   23.2640 O   0  0  0  0  0  0  0  0  0  0  0  0
  -21.2110  -29.8620   21.6360 H   0  0  0  0  0  0  0  0  0  0  0  0
  -18.2990  -28.1170   22.7980 C   0  0  0  0  0  0  0  0  0  0  0  0
  -20.8670  -28.3230   23.0460 C   0  0  0  0  0  3  0  0  0  0  0  0
  -20.9380  -26.9220   22.3960 C   0  0  0  0  0  2  0  0  0  0  0  0
  -19.8180  -26.6720   21.3800 C   0  0  0  0  0  2  0  0  0  0  0  0
  -18.4470  -26.8040   22.0500 C   0  0  0  0  0  2  0  0  0  0  0  0
  -19.4360  -28.8390   23.2520 C   0  0  0  0  0  0  0  0  0  0  0  0
  -19.2440  -30.0700   23.9160 C   0  0  0  0  0  3  0  0  0  0  0  0
  -17.9500  -30.5780   24.1320 C   0  0  0  0  0  3  0  0  0  0  0  0
  -16.8280  -29.8550   23.6920 C   0  0  0  0  0  3  0  0  0  0  0  0
  -17.0050  -28.6260   23.0310 C   0  0  0  0  0  3  0  0  0  0  0  0
  -26.0700  -32.5350   23.9160 C   0  0  0  0  0  3  0  0  0  0  0  0
  -26.5300  -31.7800   25.2240 C   0  0  1  0  0  0  0  0  0  0  0  0
  -25.3870  -31.5380   26.2370 C   0  0  0  0  0  1  0  0  0  0  0  0
  -27.1470  -30.4050   24.8750 C   0  0  0  0  0  1  0  0  0  0  0  0
  -27.6360  -32.5930   25.9370 C   0  0  0  0  0  1  0  0  0  0  0  0
  -25.7310  -33.9350   24.2280 N   0  0  0  0  0  0  0  0  0  0  0  0
  -26.0650  -34.9880   23.4710 C   0  0  0  0  0  0  0  0  0  0  0  0
  -26.7610  -34.8890   22.4560 O   0  0  0  0  0  0  0  0  0  0  0  0
  -25.1200  -34.0850   25.0160 H   0  0  0  0  0  0  0  0  0  0  0  0
  -24.3180  -36.7560   23.0770 C   0  0  0  0  0  1  0  0  0  0  0  0
  -25.5520  -36.3730   23.9100 C   0  0  0  0  0  3  0  0  0  0  0  0
  -27.6530  -37.3070   24.7790 C   0  0  0  0  0  1  0  0  0  0  0  0
  -26.5710  -37.4430   23.8060 N   0  0  0  0  0  0  0  0  0  0  0  0
  -26.1460  -38.3570   23.9310 H   0  0  0  0  0  0  0  0  0  0  0  0
  2  6  1  0
  3  6  1  0
  4  2  1  0
  4  5  1  0
  4  1  1  0
  5  8  1  6
  5  3  1  0
  5  1  1  0
  6  7  1  1
  8 17  1  0
  9 17  1  0
 10 15  1  0
 11 12  1  0
 11 10  1  0
 13 12  1  0
 13 22  1  0
 13 14  1  0
 15  9  1  0
 15 14  1  0
 16  9  2  0
 17 18  1  0
 19 20  2  0
 20 39  1  0
 21 20  1  0
 21 24  1  0
 22 23  1  0
 22 19  1  0
 23 21  2  0
 24 25  1  0
 25 26  2  0
 27 30  1  0
 27 26  1  0
 28 27  2  0
 29 28  1  0
 29 24  2  0
 30 31  1  0
 31 36  2  0
 31 32  1  0
 32 33  2  0
 33 34  1  0
 34 38  1  0
 35 34  2  0
 36 35  1  0
 37 36  1  0
 39 40  1  0
 40 43  1  0
 40 42  1  0
 41 39  2  0
 44 19  1  0
 44 45  1  0
 46 44  1  0
 47  6  1  0
 47 48  2  0
 49 48  1  0
 50 61  2  0
 51 49  1  0
 51 56  1  0
 52 60  1  0
 52 62  1  0
 53 59  1  0
 53 55  1  0
 54 60  1  0
 55 56  2  0
 55 54  1  0
 57 51  2  0
 58 57  1  0
 58 53  2  0
 59 52  1  0
 60 50  1  0
 62 64  2  0
 63 62  1  0
 65 63  1  0
 66 75  2  0
 66 71  1  0
 67 63  1  0
 67 71  1  0
 68 67  1  0
 69 70  1  0
 69 68  1  0
 70 66  1  0
 71 72  2  0
 72 73  1  0
 74 73  2  0
 75 74  1  0
 76 50  1  0
 76 81  1  0
 76 77  1  0
 77 80  1  1
 77 78  1  0
 79 77  1  0
 81 84  1  0
 82 86  1  0
 82 81  1  0
 83 82  2  0
 86 85  1  0
 88 86  1  0
 88 89  1  0
 88 87  1  0
M  ISO  4   9 100  17 100  48 101  49 101
M  END
>  <TORSDO>  (98) 
F 19

>  <SCORE>  (98) 
-13.544

>  <name>  (98) 
97

>  <ligand_id>  (98) 
97

>  <original_smiles>  (98) 
[H]c1c([H])c([H])c2c(c1[H])C([H])([H])C([H])([H])C([H])([H])C2([H])N([H])C(=O)C1([H])N(C(=O)C([H])(N([H])C(=O)C([H])(N([H])C([H])([H])[H])C([H])([H])[H])C(C([H])([H])[H])(C([H])([H])[H])C([H])([H])[H])C([H])([H])c2c([H])c(OC([H])([H])C([H])([H])[N+]3([H])C([H])([H])C4([H])C([H])([H])C4(C([H])([H])N([H])C(=O)N4C([H])([H])C([H])([H])C([H])([H])C([H])(n5nc(-c6c([H])c([H])c(Oc7c([H])c([H])c(F)c([H])c7F)c([H])c6[H])c(C(=O)N([H])[H])c5N([H])[H])C4([H])[H])C3([H])[H])c([H])c([H])c2C1([H])[H]

>  <smiles>  (98) 
[H]c1c([H])c([H])c2c(c1[H])C([H])([H])C([H])([H])C([H])([H])C2([H])N([H])C(=O)C1([H])N(C(=O)C([H])(N([H])C(=O)C([H])(N([H])C([H])([H])[H])C([H])([H])[H])C(C([H])([H])[H])(C([H])([H])[H])C([H])([H])[H])C([H])([H])c2c([H])c(OC([H])([H])C([H])([H])[N+]3([H])C([H])([H])C4([H])C([H])([H])C4(C([H])([H])N([H])C(=O)N4C([H])([H])C([H])([H])C([H])([H])C([H])(n5nc(-c6c([H])c([H])c(Oc7c([H])c([H])c(F)c([H])c7F)c([H])c6[H])c(C(=O)N([H])[H])c5N([H])[H])C4([H])[H])C3([H])[H])c([H])c([H])c2C1([H])[H]

$$$$
98:0:0
     RDKit          3D

 89 98  0  0  1  0  0  0  0  0999 V2000
  -30.3020  -15.6110   20.3200 C   0  0  0  0  0  0  0  0  0  0  0  0
  -30.4080  -13.0730   19.5400 C   0  0  0  0  0  2  0  0  0  0  0  0
  -29.5390  -12.7030   18.3050 C   0  0  0  0  0  2  0  0  0  0  0  0
  -28.1010  -12.3670   18.7270 C   0  0  0  0  0  2  0  0  0  0  0  0
  -27.5770  -13.3650   19.7850 C   0  0  0  0  0  3  0  0  0  0  0  0
  -28.5860  -13.6550   20.9220 C   0  0  0  0  0  2  0  0  0  0  0  0
  -29.7860  -14.2490   20.2930 N   0  0  0  0  0  0  0  0  0  0  0  0
  -31.5320  -15.5600   20.1180 O   0  0  0  0  0  0  0  0  0  0  0  0
  -30.5590  -20.5550   19.2350 C   0  0  0  0  0  2  0  0  0  0  0  0
  -29.6370  -21.5880   19.6520 C   0  0  0  0  0  0  0  0  0  0  0  0
  -28.6380  -21.0560   20.4300 C   0  0  0  0  0  0  0  0  0  0  0  0
  -29.5360  -18.5630   20.2500 C   0  0  0  0  0  0  0  0  0  0  0  0
  -29.5210  -23.1690   19.4650 C   0  0  0  0  0  0  0  0  0  0  0  0
  -30.5110  -23.8660   18.8850 C   0  0  0  0  0  1  0  0  0  0  0  0
  -27.7810  -22.4500   20.8460 C   0  0  0  0  0  3  0  0  0  0  0  0
  -28.1890  -23.9210   20.0030 C   0  0  0  0  0  0  0  0  0  0  0  0
  -30.5040  -19.1730   19.5140 N   0  0  0  0  0  0  0  0  0  0  0  0
  -28.5910  -19.5860   20.7040 N   0  0  0  0  0  0  0  0  0  0  0  0
  -29.5180  -16.9370   20.4360 N   0  0  0  0  0  0  0  0  0  0  0  0
  -28.5880  -16.6750   20.7150 H   0  0  0  0  0  0  0  0  0  0  0  0
  -25.1950  -13.8880   20.5020 C   0  0  0  0  0  0  0  0  0  0  0  0
  -24.1360  -13.1010   20.8530 C   0  0  0  0  0  0  0  0  0  0  0  0
  -24.6170  -11.7560   20.8350 C   0  0  0  0  0  0  0  0  0  0  0  0
  -26.2510  -13.0230   20.2790 N   0  0  0  0  0  0  0  0  0  0  0  0
  -25.9150  -11.7330   20.5480 N   0  0  0  0  0  0  0  0  0  0  0  0
  -23.8950  -10.4880   21.0130 C   0  0  0  0  0  0  0  0  0  0  0  0
  -24.3110   -9.5270   21.9600 C   0  0  0  0  0  3  0  0  0  0  0  0
  -23.5850   -8.3280   22.1290 C   0  0  0  0  0  3  0  0  0  0  0  0
  -22.4280   -8.0820   21.3520 C   0  0  0  0  0  0  0  0  0  0  0  0
  -22.0320   -9.0320   20.3940 C   0  0  0  0  0  3  0  0  0  0  0  0
  -22.7590  -10.2220   20.2230 C   0  0  0  0  0  3  0  0  0  0  0  0
  -21.6760   -6.9340   21.4280 O   0  0  0  0  0  0  0  0  0  0  0  0
  -21.5990   -6.2000   22.5850 C   0  0  0  0  0  0  0  0  0  0  0  0
  -21.1310   -6.7610   23.7930 C   0  0  0  0  0  3  0  0  0  0  0  0
  -21.0010   -5.9530   24.9410 C   0  0  0  0  0  3  0  0  0  0  0  0
  -21.3300   -4.5860   24.8810 C   0  0  0  0  0  0  0  0  0  0  0  0
  -21.7920   -4.0250   23.6780 C   0  0  0  0  0  3  0  0  0  0  0  0
  -21.9220   -4.8300   22.5320 C   0  0  0  0  0  0  0  0  0  0  0  0
  -22.3470   -4.2780   21.3700 F   0  0  0  0  0  0  0  0  0  0  0  0
  -21.2000   -3.8080   25.9820 F   0  0  0  0  0  0  0  0  0  0  0  0
  -22.7300  -13.5690   21.0890 C   0  0  0  0  0  0  0  0  0  0  0  0
  -21.9900  -12.8770   21.9480 N   0  0  0  0  0  0  0  0  0  0  0  0
  -22.2970  -14.5840   20.5470 O   0  0  0  0  0  0  0  0  0  0  0  0
  -22.3550  -12.0560   22.4090 H   0  0  0  0  0  0  0  0  0  0  0  0
  -21.0460  -13.1730   22.1490 H   0  0  0  0  0  0  0  0  0  0  0  0
  -25.3460  -15.2590   20.3190 N   0  0  0  0  0  0  0  0  0  0  0  0
  -24.5620  -15.8980   20.4020 H   0  0  0  0  0  0  0  0  0  0  0  0
  -26.1750  -15.6990   19.9420 H   0  0  0  0  0  0  0  0  0  0  0  0
  -28.1800  -25.6440   20.2890 O   0  0  0  0  0  0  0  0  0  0  0  0
  -24.6600  -31.8500   23.1930 C   0  0  0  0  0  0  0  0  0  0  0  0
  -27.1810  -26.8110   20.2000 C   0  0  0  0  0  0  0  0  0  0  0  0
  -23.4610  -30.4470   21.5680 C   0  0  0  0  0  3  0  0  0  0  0  0
  -24.9000  -28.8040   20.1480 C   0  0  0  0  0  0  0  0  0  0  0  0
  -26.0350  -30.6070   21.4240 C   0  0  0  0  0  2  0  0  0  0  0  0
  -26.0960  -29.1770   20.7730 C   0  0  0  0  0  0  0  0  0  0  0  0
  -27.2200  -28.2050   20.7680 C   0  0  0  0  0  3  0  0  0  0  0  0
  -25.9530  -26.6330   19.5160 C   0  0  0  0  0  3  0  0  0  0  0  0
  -24.8640  -27.5570   19.4960 C   0  0  0  0  0  3  0  0  0  0  0  0
  -23.6900  -29.7460   20.1960 C   0  0  0  0  0  2  0  0  0  0  0  0
  -24.7420  -30.9990   22.1140 N   0  0  0  0  0  0  0  0  0  0  0  0
  -23.5710  -32.1490   23.7130 O   0  0  0  0  0  0  0  0  0  0  0  0
  -22.7560  -29.4680   22.5460 C   0  0  0  0  0  0  0  0  0  0  0  0
  -21.4240  -29.3080   22.4270 N   0  0  0  0  0  0  0  0  0  0  0  0
  -23.4190  -28.8530   23.3850 O   0  0  0  0  0  0  0  0  0  0  0  0
  -20.9400  -29.8550   21.7280 H   0  0  0  0  0  0  0  0  0  0  0  0
  -18.0440  -28.0860   22.9530 C   0  0  0  0  0  0  0  0  0  0  0  0
  -20.6040  -28.3730   23.2070 C   0  0  0  0  0  3  0  0  0  0  0  0
  -20.7120  -26.9360   22.6450 C   0  0  0  0  0  2  0  0  0  0  0  0
  -19.6110  -26.5990   21.6350 C   0  0  0  0  0  2  0  0  0  0  0  0
  -18.2290  -26.7360   22.2800 C   0  0  0  0  0  2  0  0  0  0  0  0
  -19.1580  -28.8610   23.3730 C   0  0  0  0  0  0  0  0  0  0  0  0
  -18.9280  -30.1220   23.9670 C   0  0  0  0  0  3  0  0  0  0  0  0
  -17.6180  -30.6070   24.1410 C   0  0  0  0  0  3  0  0  0  0  0  0
  -16.5200  -29.8310   23.7340 C   0  0  0  0  0  3  0  0  0  0  0  0
  -16.7330  -28.5710   23.1460 C   0  0  0  0  0  3  0  0  0  0  0  0
  -25.9290  -32.5010   23.8230 C   0  0  0  0  0  3  0  0  0  0  0  0
  -25.6060  -33.9000   24.1640 N   0  0  0  0  0  0  0  0  0  0  0  0
  -25.9250  -34.9690   23.4210 C   0  0  0  0  0  0  0  0  0  0  0  0
  -26.5800  -34.8810   22.3800 O   0  0  0  0  0  0  0  0  0  0  0  0
  -25.0200  -34.0410   24.9740 H   0  0  0  0  0  0  0  0  0  0  0  0
  -24.1820  -36.7670   23.1330 C   0  0  0  0  0  1  0  0  0  0  0  0
  -25.4450  -36.3540   23.9060 C   0  0  0  0  0  3  0  0  0  0  0  0
  -27.5960  -37.2460   24.6930 C   0  0  0  0  0  1  0  0  0  0  0  0
  -26.4700  -37.4140   23.7770 N   0  0  0  0  0  0  0  0  0  0  0  0
  -26.0630  -38.3310   23.9400 H   0  0  0  0  0  0  0  0  0  0  0  0
  -26.4400  -31.7420   25.1110 C   0  0  1  0  0  0  0  0  0  0  0  0
  -25.3430  -31.5170   26.1790 C   0  0  0  0  0  1  0  0  0  0  0  0
  -27.0200  -30.3570   24.7450 C   0  0  0  0  0  1  0  0  0  0  0  0
  -27.5900  -32.5390   25.7680 C   0  0  0  0  0  1  0  0  0  0  0  0
  1 19  1  0
  2  7  1  0
  3  4  1  0
  3  2  1  0
  5  4  1  0
  5 24  1  0
  5  6  1  0
  7  1  1  0
  7  6  1  0
  8  1  2  0
  9 17  1  0
  9 10  1  0
 10 11  1  0
 11 18  2  0
 11 15  1  0
 12 19  1  0
 12 18  1  0
 13 10  2  0
 13 16  1  0
 14 13  1  0
 16 49  1  0
 16 15  2  0
 17 12  2  0
 19 20  1  0
 21 22  2  0
 22 41  1  0
 23 22  1  0
 23 26  1  0
 24 21  1  0
 24 25  1  0
 25 23  2  0
 26 27  1  0
 27 28  2  0
 29 32  1  0
 29 28  1  0
 30 29  2  0
 31 30  1  0
 31 26  2  0
 32 33  1  0
 33 34  1  0
 34 35  2  0
 36 35  1  0
 36 40  1  0
 37 36  2  0
 38 33  2  0
 38 37  1  0
 39 38  1  0
 41 42  1  0
 42 45  1  0
 42 44  1  0
 43 41  2  0
 46 47  1  0
 46 21  1  0
 48 46  1  0
 50 61  2  0
 51 49  1  0
 51 56  1  0
 52 60  1  0
 52 62  1  0
 53 59  1  0
 53 55  1  0
 54 60  1  0
 55 54  1  0
 56 55  2  0
 57 51  2  0
 58 57  1  0
 58 53  2  0
 59 52  1  0
 60 50  1  0
 62 64  2  0
 63 62  1  0
 65 63  1  0
 66 75  2  0
 66 71  1  0
 67 63  1  0
 67 71  1  0
 68 67  1  0
 69 70  1  0
 69 68  1  0
 70 66  1  0
 71 72  2  0
 72 73  1  0
 74 73  2  0
 75 74  1  0
 76 50  1  0
 76 77  1  0
 76 86  1  0
 77 80  1  0
 78 82  1  0
 78 77  1  0
 79 78  2  0
 82 81  1  0
 84 82  1  0
 84 85  1  0
 84 83  1  0
 86 89  1  1
 86 87  1  0
 88 86  1  0
M  ISO  4   1 100  16 101  19 100  49 101
M  END
>  <TORSDO>  (99) 
F 15

>  <SCORE>  (99) 
-16.654

>  <name>  (99) 
98

>  <ligand_id>  (99) 
98

>  <original_smiles>  (99) 
[H]C([H])=C1c2c([H])nc(N([H])C(=O)N3C([H])([H])C([H])([H])C([H])([H])C([H])(n4nc(-c5c([H])c([H])c(Oc6c([H])c([H])c(F)c([H])c6F)c([H])c5[H])c(C(=O)N([H])[H])c4N([H])[H])C3([H])[H])nc2C([H])([H])C1([H])Oc1c([H])c([H])c2c(c1[H])C([H])([H])N(C(=O)C([H])(N([H])C(=O)C([H])(N([H])C([H])([H])[H])C([H])([H])[H])C(C([H])([H])[H])(C([H])([H])[H])C([H])([H])[H])C([H])(C(=O)N([H])C1([H])c3c([H])c([H])c([H])c([H])c3C([H])([H])C([H])([H])C1([H])[H])C2([H])[H]

>  <smiles>  (99) 
[H]C([H])=C1c2c([H])nc(N([H])C(=O)N3C([H])([H])C([H])([H])C([H])([H])C([H])(n4nc(-c5c([H])c([H])c(Oc6c([H])c([H])c(F)c([H])c6F)c([H])c5[H])c(C(=O)N([H])[H])c4N([H])[H])C3([H])[H])nc2C([H])([H])C1([H])Oc1c([H])c([H])c2c(c1[H])C([H])([H])N(C(=O)C([H])(N([H])C(=O)C([H])(N([H])C([H])([H])[H])C([H])([H])[H])C(C([H])([H])[H])(C([H])([H])[H])C([H])([H])[H])C([H])(C(=O)N([H])C1([H])c3c([H])c([H])c([H])c([H])c3C([H])([H])C([H])([H])C1([H])[H])C2([H])[H]

$$$$
99:0:0
     RDKit          3D

 92100  0  0  1  0  0  0  0  0999 V2000
  -28.9670  -23.8790   20.0600 C   0  0  0  0  0  3  0  0  0  0  0  0
  -30.1080  -23.5250   19.2960 C   0  0  0  0  0  3  0  0  0  0  0  0
  -28.4750  -22.7720   20.8210 C   0  0  0  0  0  3  0  0  0  0  0  0
  -30.0060  -21.2760   19.9430 C   0  0  0  0  0  0  0  0  0  0  0  0
  -30.8320  -24.5380   18.4300 C   0  0  0  0  0  1  0  0  0  0  0  0
  -30.6030  -22.2480   19.2440 N   0  0  0  0  0  0  0  0  0  0  0  0
  -28.9910  -21.5070   20.7590 N   0  0  0  0  0  0  0  0  0  0  0  0
  -26.0000  -22.7150   20.6340 C   0  0  0  0  0  1  0  0  0  0  0  0
  -27.1830  -22.8280   21.6080 C   0  0  0  0  0  2  0  0  0  0  0  0
  -28.0880  -25.1830   19.7790 C   0  0  0  0  0  2  0  0  0  0  0  0
  -28.4000  -26.6030   20.1250 O   0  0  0  0  0  0  0  0  0  0  0  0
  -24.6260  -31.9870   23.2450 C   0  0  0  0  0  0  0  0  0  0  0  0
  -27.2940  -27.4990   20.0800 C   0  0  0  0  0  0  0  0  0  0  0  0
  -23.4310  -30.6040   21.5920 C   0  0  0  0  0  3  0  0  0  0  0  0
  -24.9020  -29.1090   20.1220 C   0  0  0  0  0  0  0  0  0  0  0  0
  -25.9720  -30.9470   21.4050 C   0  0  0  0  0  2  0  0  0  0  0  0
  -26.0680  -29.5790   20.7370 C   0  0  0  0  0  0  0  0  0  0  0  0
  -27.2620  -28.7820   20.7220 C   0  0  0  0  0  3  0  0  0  0  0  0
  -26.1010  -27.1170   19.4130 C   0  0  0  0  0  3  0  0  0  0  0  0
  -24.9250  -27.8840   19.4480 C   0  0  0  0  0  3  0  0  0  0  0  0
  -23.6440  -29.9570   20.2010 C   0  0  0  0  0  2  0  0  0  0  0  0
  -24.6960  -31.1950   22.1380 N   0  0  0  0  0  0  0  0  0  0  0  0
  -23.5440  -32.2480   23.7860 O   0  0  0  0  0  0  0  0  0  0  0  0
  -22.7870  -29.5580   22.5360 C   0  0  0  0  0  0  0  0  0  0  0  0
  -21.4680  -29.3470   22.3970 N   0  0  0  0  0  0  0  0  0  0  0  0
  -23.4770  -28.9370   23.3530 O   0  0  0  0  0  0  0  0  0  0  0  0
  -20.9700  -29.9010   21.7140 H   0  0  0  0  0  0  0  0  0  0  0  0
  -18.1150  -28.0710   22.8680 C   0  0  0  0  0  0  0  0  0  0  0  0
  -20.6650  -28.3830   23.1510 C   0  0  0  0  0  3  0  0  0  0  0  0
  -20.8010  -26.9590   22.5600 C   0  0  0  0  0  2  0  0  0  0  0  0
  -19.7110  -26.6260   21.5360 C   0  0  0  0  0  2  0  0  0  0  0  0
  -18.3240  -26.7310   22.1780 C   0  0  0  0  0  2  0  0  0  0  0  0
  -19.2150  -28.8540   23.3090 C   0  0  0  0  0  0  0  0  0  0  0  0
  -18.9680  -30.1040   23.9120 C   0  0  0  0  0  3  0  0  0  0  0  0
  -17.6520  -30.5730   24.0850 C   0  0  0  0  0  3  0  0  0  0  0  0
  -16.5650  -29.7860   23.6620 C   0  0  0  0  0  3  0  0  0  0  0  0
  -16.7970  -28.5390   23.0570 C   0  0  0  0  0  3  0  0  0  0  0  0
  -25.9020  -32.6250   23.8730 C   0  0  0  0  0  3  0  0  0  0  0  0
  -25.5950  -34.0330   24.1770 N   0  0  0  0  0  0  0  0  0  0  0  0
  -25.9190  -35.0670   23.3910 C   0  0  0  0  0  0  0  0  0  0  0  0
  -26.5730  -34.9370   22.3510 O   0  0  0  0  0  0  0  0  0  0  0  0
  -25.0030  -34.2060   24.9770 H   0  0  0  0  0  0  0  0  0  0  0  0
  -24.1700  -36.8360   23.0310 C   0  0  0  0  0  1  0  0  0  0  0  0
  -25.4400  -36.4670   23.8160 C   0  0  0  0  0  3  0  0  0  0  0  0
  -27.5930  -37.3830   24.5550 C   0  0  0  0  0  1  0  0  0  0  0  0
  -26.4660  -37.5190   23.6370 N   0  0  0  0  0  0  0  0  0  0  0  0
  -26.0640  -38.4450   23.7660 H   0  0  0  0  0  0  0  0  0  0  0  0
  -26.4010  -31.8700   25.1660 C   0  0  1  0  0  0  0  0  0  0  0  0
  -25.2870  -31.6420   26.2180 C   0  0  0  0  0  1  0  0  0  0  0  0
  -26.9930  -30.4870   24.8060 C   0  0  0  0  0  1  0  0  0  0  0  0
  -27.5530  -32.6710   25.8170 C   0  0  0  0  0  1  0  0  0  0  0  0
  -30.4860  -19.9900   19.7410 O   0  0  0  0  0  0  0  0  0  0  0  0
  -29.9090  -18.7790   20.3560 C   0  0  0  0  0  2  0  0  0  0  0  0
  -30.5990  -17.4220   19.8610 C   0  0  0  0  0  2  0  0  0  0  0  0
  -30.7560  -14.8850   20.1880 C   0  0  0  0  0  0  0  0  0  0  0  0
  -30.4210  -12.6650   19.1410 C   0  0  0  0  0  2  0  0  0  0  0  0
  -29.4430  -12.7910   17.9520 C   0  0  0  0  0  2  0  0  0  0  0  0
  -27.9830  -12.6650   18.4240 C   0  0  0  0  0  2  0  0  0  0  0  0
  -27.6690  -13.5310   19.6710 C   0  0  0  0  0  3  0  0  0  0  0  0
  -28.7640  -13.3990   20.7540 C   0  0  0  0  0  2  0  0  0  0  0  0
  -30.0530  -13.7080   20.1220 N   0  0  0  0  0  0  0  0  0  0  0  0
  -31.9480  -14.9270   19.8850 O   0  0  0  0  0  0  0  0  0  0  0  0
  -30.0650  -16.0670   20.2940 N   0  0  0  0  0  0  0  0  0  0  0  0
  -29.0680  -15.9940   20.4360 H   0  0  0  0  0  0  0  0  0  0  0  0
  -25.2870  -14.1250   20.4320 C   0  0  0  0  0  0  0  0  0  0  0  0
  -24.2250  -13.3500   20.8160 C   0  0  0  0  0  0  0  0  0  0  0  0
  -24.6890  -11.9990   20.7860 C   0  0  0  0  0  0  0  0  0  0  0  0
  -26.3310  -13.2470   20.1920 N   0  0  0  0  0  0  0  0  0  0  0  0
  -25.9770  -11.9630   20.4670 N   0  0  0  0  0  0  0  0  0  0  0  0
  -23.9630  -10.7360   20.9850 C   0  0  0  0  0  0  0  0  0  0  0  0
  -24.3890   -9.7760   21.9290 C   0  0  0  0  0  3  0  0  0  0  0  0
  -23.6600   -8.5830   22.1150 C   0  0  0  0  0  3  0  0  0  0  0  0
  -22.4900   -8.3390   21.3560 C   0  0  0  0  0  0  0  0  0  0  0  0
  -22.0860   -9.2860   20.3990 C   0  0  0  0  0  3  0  0  0  0  0  0
  -22.8170  -10.4700   20.2100 C   0  0  0  0  0  3  0  0  0  0  0  0
  -21.7300   -7.1970   21.4540 O   0  0  0  0  0  0  0  0  0  0  0  0
  -21.6730   -6.4700   22.6140 C   0  0  0  0  0  0  0  0  0  0  0  0
  -21.2040   -7.0290   23.8230 C   0  0  0  0  0  3  0  0  0  0  0  0
  -21.0960   -6.2250   24.9770 C   0  0  0  0  0  3  0  0  0  0  0  0
  -21.4480   -4.8620   24.9220 C   0  0  0  0  0  0  0  0  0  0  0  0
  -21.9080   -4.3020   23.7190 C   0  0  0  0  0  3  0  0  0  0  0  0
  -22.0170   -5.1030   22.5690 C   0  0  0  0  0  0  0  0  0  0  0  0
  -22.4430   -4.5520   21.4050 F   0  0  0  0  0  0  0  0  0  0  0  0
  -21.3360   -4.0890   26.0270 F   0  0  0  0  0  0  0  0  0  0  0  0
  -22.8290  -13.8290   21.0950 C   0  0  0  0  0  0  0  0  0  0  0  0
  -22.1100  -13.1360   21.9730 N   0  0  0  0  0  0  0  0  0  0  0  0
  -22.3850  -14.8480   20.5700 O   0  0  0  0  0  0  0  0  0  0  0  0
  -22.4800  -12.3080   22.4150 H   0  0  0  0  0  0  0  0  0  0  0  0
  -21.1770  -13.4440   22.2080 H   0  0  0  0  0  0  0  0  0  0  0  0
  -25.4470  -15.4950   20.2470 N   0  0  0  0  0  0  0  0  0  0  0  0
  -24.6900  -16.1550   20.3860 H   0  0  0  0  0  0  0  0  0  0  0  0
  -26.2850  -15.9290   19.8830 H   0  0  0  0  0  0  0  0  0  0  0  0
  1 10  1  0
  1  3  1  0
  2  5  1  0
  2  1  1  0
  3  9  1  0
  4  7  2  0
  6  2  1  0
  6  4  2  0
  7  3  1  0
  8  9  1  0
 10 11  1  0
 12 23  2  0
 13 11  1  0
 13 18  1  0
 14 22  1  0
 14 24  1  0
 15 21  1  0
 15 17  1  0
 16 22  1  0
 17 16  1  0
 18 17  2  0
 19 20  1  0
 19 13  2  0
 20 15  2  0
 21 14  1  0
 22 12  1  0
 24 26  2  0
 25 24  1  0
 27 25  1  0
 28 37  2  0
 28 33  1  0
 29 25  1  0
 29 33  1  0
 30 29  1  0
 31 32  1  0
 31 30  1  0
 32 28  1  0
 33 34  2  0
 34 35  1  0
 36 35  2  0
 37 36  1  0
 38 12  1  0
 38 39  1  0
 38 48  1  0
 39 42  1  0
 40 44  1  0
 40 39  1  0
 41 40  2  0
 44 43  1  0
 46 47  1  0
 46 44  1  0
 46 45  1  0
 48 51  1  1
 48 49  1  0
 50 48  1  0
 52  4  1  0
 52 53  1  0
 54 63  1  0
 54 53  1  0
 55 63  1  0
 56 61  1  0
 57 58  1  0
 57 56  1  0
 59 58  1  0
 59 68  1  0
 59 60  1  0
 61 55  1  0
 61 60  1  0
 62 55  2  0
 63 64  1  0
 65 66  2  0
 66 85  1  0
 67 66  1  0
 67 70  1  0
 68 65  1  0
 68 69  1  0
 69 67  2  0
 70 71  1  0
 71 72  2  0
 73 76  1  0
 73 72  1  0
 74 73  2  0
 75 74  1  0
 75 70  2  0
 76 77  1  0
 77 78  1  0
 78 79  2  0
 80 79  1  0
 80 84  1  0
 81 80  2  0
 82 77  2  0
 82 81  1  0
 83 82  1  0
 85 86  1  0
 86 89  1  0
 86 88  1  0
 87 85  2  0
 90 91  1  0
 90 65  1  0
 92 90  1  0
M  ISO  4  10 101  11 101  55 100  63 100
M  END
>  <TORSDO>  (100) 
F 21

>  <SCORE>  (100) 
-13.102

>  <name>  (100) 
99

>  <ligand_id>  (100) 
99

>  <original_smiles>  (100) 
[H]c1c([H])c([H])c2c(c1[H])C([H])([H])C([H])([H])C([H])([H])C2([H])N([H])C(=O)C1([H])N(C(=O)C([H])(N([H])C(=O)C([H])(N([H])C([H])([H])[H])C([H])([H])[H])C(C([H])([H])[H])(C([H])([H])[H])C([H])([H])[H])C([H])([H])c2c([H])c(OC([H])([H])c3c(C([H])([H])[H])nc(OC([H])([H])C([H])([H])N([H])C(=O)N4C([H])([H])C([H])([H])C([H])([H])C([H])(n5nc(-c6c([H])c([H])c(Oc7c([H])c([H])c(F)c([H])c7F)c([H])c6[H])c(C(=O)N([H])[H])c5N([H])[H])C4([H])[H])nc3C([H])([H])C([H])([H])[H])c([H])c([H])c2C1([H])[H]

>  <smiles>  (100) 
[H]c1c([H])c([H])c2c(c1[H])C([H])([H])C([H])([H])C([H])([H])C2([H])N([H])C(=O)C1([H])N(C(=O)C([H])(N([H])C(=O)C([H])(N([H])C([H])([H])[H])C([H])([H])[H])C(C([H])([H])[H])(C([H])([H])[H])C([H])([H])[H])C([H])([H])c2c([H])c(OC([H])([H])c3c(C([H])([H])[H])nc(OC([H])([H])C([H])([H])N([H])C(=O)N4C([H])([H])C([H])([H])C([H])([H])C([H])(n5nc(-c6c([H])c([H])c(Oc7c([H])c([H])c(F)c([H])c7F)c([H])c6[H])c(C(=O)N([H])[H])c5N([H])[H])C4([H])[H])nc3C([H])([H])C([H])([H])[H])c([H])c([H])c2C1([H])[H]

$$$$
