0:0:0
     RDKit          3D

 92101  0  0  1  0  0  0  0  0999 V2000
  -28.4030  -22.3640   19.7880 C   0  0  0  0  0  3  0  0  0  0  0  0
  -29.9020  -23.4870   20.8250 C   0  0  0  0  0  3  0  0  0  0  0  0
  -29.3450  -21.4170   20.2270 C   0  0  0  0  0  0  0  0  0  0  0  0
  -30.3090  -22.1920   20.8970 N   0  0  0  0  0  0  0  0  0  0  0  0
  -28.7520  -23.7020   20.1540 N   0  0  0  0  0  0  0  0  0  0  0  0
  -29.2980  -18.6600   20.9520 C   0  0  0  0  0  2  0  0  0  0  0  0
  -30.7840  -17.9620   19.1850 C   0  0  0  0  0  2  0  0  0  0  0  0
  -29.4590  -19.8480   19.8950 C   0  0  0  0  0  3  0  0  0  0  0  0
  -30.2850  -17.4570   20.5560 C   0  0  0  0  0  3  0  0  0  0  0  0
  -30.8360  -20.0420   17.8290 C   0  0  0  0  0  1  0  0  0  0  0  0
  -30.7020  -19.4590   19.1820 N   0  0  2  0  0  4  0  0  0  0  0  0
  -31.4620  -19.8150   19.7420 H   0  0  0  0  0  0  0  0  0  0  0  0
  -30.6030  -14.8230   20.3360 C   0  0  0  0  0  0  0  0  0  0  0  0
  -30.3730  -12.5520   19.3070 C   0  0  0  0  0  2  0  0  0  0  0  0
  -29.4160  -12.6250   18.0950 C   0  0  0  0  0  2  0  0  0  0  0  0
  -27.9510  -12.4530   18.5410 C   0  0  0  0  0  2  0  0  0  0  0  0
  -27.5970  -13.3240   19.7770 C   0  0  0  0  0  3  0  0  0  0  0  0
  -28.6760  -13.2400   20.8790 C   0  0  0  0  0  2  0  0  0  0  0  0
  -29.9600  -13.6040   20.2670 N   0  0  0  0  0  0  0  0  0  0  0  0
  -31.7770  -14.9160   19.9720 O   0  0  0  0  0  0  0  0  0  0  0  0
  -29.8650  -15.9720   20.6080 N   0  0  0  0  0  0  0  0  0  0  0  0
  -28.9050  -15.8000   20.8680 H   0  0  0  0  0  0  0  0  0  0  0  0
  -25.2230  -13.9060   20.5530 C   0  0  0  0  0  0  0  0  0  0  0  0
  -24.1620  -13.1300   20.9300 C   0  0  0  0  0  0  0  0  0  0  0  0
  -24.6180  -11.7770   20.8690 C   0  0  0  0  0  0  0  0  0  0  0  0
  -26.2600  -13.0280   20.2860 N   0  0  0  0  0  0  0  0  0  0  0  0
  -25.9040  -11.7400   20.5360 N   0  0  0  0  0  0  0  0  0  0  0  0
  -23.8890  -10.5150   21.0500 C   0  0  0  0  0  0  0  0  0  0  0  0
  -24.3180   -9.5400   21.9790 C   0  0  0  0  0  3  0  0  0  0  0  0
  -23.5880   -8.3440   22.1480 C   0  0  0  0  0  3  0  0  0  0  0  0
  -22.4170   -8.1130   21.3890 C   0  0  0  0  0  0  0  0  0  0  0  0
  -22.0080   -9.0760   20.4500 C   0  0  0  0  0  3  0  0  0  0  0  0
  -22.7380  -10.2640   20.2780 C   0  0  0  0  0  3  0  0  0  0  0  0
  -21.6590   -6.9690   21.4690 O   0  0  0  0  0  0  0  0  0  0  0  0
  -21.5810   -6.2370   22.6260 C   0  0  0  0  0  0  0  0  0  0  0  0
  -21.0800   -6.7870   23.8250 C   0  0  0  0  0  3  0  0  0  0  0  0
  -20.9550   -5.9780   24.9720 C   0  0  0  0  0  3  0  0  0  0  0  0
  -21.3180   -4.6180   24.9200 C   0  0  0  0  0  0  0  0  0  0  0  0
  -21.8100   -4.0670   23.7250 C   0  0  0  0  0  3  0  0  0  0  0  0
  -21.9380   -4.8730   22.5800 C   0  0  0  0  0  0  0  0  0  0  0  0
  -22.3940   -4.3310   21.4250 F   0  0  0  0  0  0  0  0  0  0  0  0
  -21.1890   -3.8390   26.0190 F   0  0  0  0  0  0  0  0  0  0  0  0
  -22.7710  -13.6090   21.2310 C   0  0  0  0  0  0  0  0  0  0  0  0
  -22.0520  -12.9030   22.0950 N   0  0  0  0  0  0  0  0  0  0  0  0
  -22.3320  -14.6460   20.7340 O   0  0  0  0  0  0  0  0  0  0  0  0
  -22.4180  -12.0620   22.5170 H   0  0  0  0  0  0  0  0  0  0  0  0
  -21.1200  -13.2080   22.3380 H   0  0  0  0  0  0  0  0  0  0  0  0
  -25.3870  -15.2780   20.3910 N   0  0  0  0  0  0  0  0  0  0  0  0
  -24.6180  -15.9270   20.5080 H   0  0  0  0  0  0  0  0  0  0  0  0
  -26.2150  -15.7120   20.0040 H   0  0  0  0  0  0  0  0  0  0  0  0
  -27.9200  -24.9410   19.7950 C   0  0  0  0  0  2  0  0  0  0  0  0
  -28.2540  -26.3220   20.2360 O   0  0  0  0  0  0  0  0  0  0  0  0
  -24.6060  -31.9030   23.2430 C   0  0  0  0  0  0  0  0  0  0  0  0
  -27.1960  -27.2840   20.1570 C   0  0  0  0  0  0  0  0  0  0  0  0
  -23.4030  -30.5180   21.5970 C   0  0  0  0  0  3  0  0  0  0  0  0
  -24.8520  -28.9780   20.1540 C   0  0  0  0  0  0  0  0  0  0  0  0
  -25.9520  -30.8030   21.4310 C   0  0  0  0  0  2  0  0  0  0  0  0
  -26.0280  -29.4240   20.7720 C   0  0  0  0  0  0  0  0  0  0  0  0
  -27.1980  -28.5890   20.7710 C   0  0  0  0  0  3  0  0  0  0  0  0
  -26.0000  -26.9470   19.4720 C   0  0  0  0  0  3  0  0  0  0  0  0
  -24.8480  -27.7480   19.4890 C   0  0  0  0  0  3  0  0  0  0  0  0
  -23.6200  -29.8570   20.2120 C   0  0  0  0  0  2  0  0  0  0  0  0
  -24.6740  -31.0930   22.1450 N   0  0  0  0  0  0  0  0  0  0  0  0
  -23.5210  -32.1840   23.7740 O   0  0  0  0  0  0  0  0  0  0  0  0
  -22.7320  -29.4980   22.5490 C   0  0  0  0  0  0  0  0  0  0  0  0
  -21.4060  -29.3220   22.4120 N   0  0  0  0  0  0  0  0  0  0  0  0
  -23.4040  -28.8690   23.3710 O   0  0  0  0  0  0  0  0  0  0  0  0
  -20.9240  -29.8780   21.7200 H   0  0  0  0  0  0  0  0  0  0  0  0
  -18.0190  -28.1400   22.9050 C   0  0  0  0  0  0  0  0  0  0  0  0
  -20.5790  -28.3840   23.1750 C   0  0  0  0  0  3  0  0  0  0  0  0
  -20.6740  -26.9570   22.5850 C   0  0  0  0  0  2  0  0  0  0  0  0
  -19.5690  -26.6500   21.5700 C   0  0  0  0  0  2  0  0  0  0  0  0
  -18.1890  -26.7960   22.2170 C   0  0  0  0  0  2  0  0  0  0  0  0
  -19.1420  -28.8930   23.3410 C   0  0  0  0  0  0  0  0  0  0  0  0
  -18.9310  -30.1510   23.9450 C   0  0  0  0  0  3  0  0  0  0  0  0
  -17.6290  -30.6580   24.1190 C   0  0  0  0  0  3  0  0  0  0  0  0
  -16.5200  -29.9020   23.7010 C   0  0  0  0  0  3  0  0  0  0  0  0
  -16.7160  -28.6450   23.1000 C   0  0  0  0  0  3  0  0  0  0  0  0
  -25.8880  -32.5300   23.8720 C   0  0  0  0  0  3  0  0  0  0  0  0
  -25.5810  -33.9280   24.2060 N   0  0  0  0  0  0  0  0  0  0  0  0
  -25.8940  -34.9830   23.4420 C   0  0  0  0  0  0  0  0  0  0  0  0
  -26.5410  -34.8820   22.3960 O   0  0  0  0  0  0  0  0  0  0  0  0
  -25.0010  -34.0800   25.0190 H   0  0  0  0  0  0  0  0  0  0  0  0
  -24.1470  -36.7690   23.1330 C   0  0  0  0  0  1  0  0  0  0  0  0
  -25.4120  -36.3710   23.9100 C   0  0  0  0  0  3  0  0  0  0  0  0
  -27.5630  -37.2670   24.6850 C   0  0  0  0  0  1  0  0  0  0  0  0
  -26.4350  -37.4300   23.7710 N   0  0  0  0  0  0  0  0  0  0  0  0
  -26.0270  -38.3460   23.9350 H   0  0  0  0  0  0  0  0  0  0  0  0
  -26.3960  -31.7520   25.1470 C   0  0  1  0  0  0  0  0  0  0  0  0
  -25.2970  -31.5080   26.2070 C   0  0  0  0  0  1  0  0  0  0  0  0
  -26.9780  -30.3740   24.7530 C   0  0  0  0  0  1  0  0  0  0  0  0
  -27.5460  -32.5390   25.8180 C   0  0  0  0  0  1  0  0  0  0  0  0
  1  5  1  0
  1  3  2  0
  2  4  2  0
  3  4  1  0
  5  2  1  0
  7  9  1  0
  8  3  1  0
  8  6  1  0
  9 21  1  0
  9  6  1  0
 10 11  1  0
 11  7  1  0
 11 12  1  1
 11  8  1  0
 13 21  1  0
 14 19  1  0
 15 16  1  0
 15 14  1  0
 17 16  1  0
 17 26  1  0
 17 18  1  0
 19 13  1  0
 19 18  1  0
 20 13  2  0
 21 22  1  0
 23 24  2  0
 24 43  1  0
 25 24  1  0
 25 28  1  0
 26 27  1  0
 26 23  1  0
 27 25  2  0
 28 29  1  0
 29 30  2  0
 31 34  1  0
 31 30  1  0
 32 31  2  0
 33 32  1  0
 33 28  2  0
 34 35  1  0
 35 36  1  0
 36 37  2  0
 38 37  1  0
 38 42  1  0
 39 38  2  0
 40 35  2  0
 40 39  1  0
 41 40  1  0
 43 44  1  0
 44 47  1  0
 44 46  1  0
 45 43  2  0
 48 49  1  0
 48 23  1  0
 50 48  1  0
 51  5  1  0
 51 52  1  0
 53 64  2  0
 54 52  1  0
 54 59  1  0
 55 63  1  0
 55 65  1  0
 56 62  1  0
 56 58  1  0
 57 63  1  0
 58 57  1  0
 59 58  2  0
 60 61  1  0
 60 54  2  0
 61 56  2  0
 62 55  1  0
 63 53  1  0
 65 67  2  0
 66 65  1  0
 68 66  1  0
 69 78  2  0
 69 74  1  0
 70 66  1  0
 70 74  1  0
 71 70  1  0
 72 73  1  0
 72 71  1  0
 73 69  1  0
 74 75  2  0
 75 76  1  0
 77 76  2  0
 78 77  1  0
 79 53  1  0
 79 80  1  0
 79 89  1  0
 80 83  1  0
 81 85  1  0
 81 80  1  0
 82 81  2  0
 85 84  1  0
 87 85  1  0
 87 88  1  0
 87 86  1  0
 89 92  1  1
 89 90  1  0
 91 89  1  0
M  ISO  4  13 100  21 100  51 101  52 101
M  END
>  <TORSDO>  (1) 
F 18

>  <SCORE>  (1) 
-14.581

>  <name>  (1) 
0

>  <ligand_id>  (1) 
0

>  <original_smiles>  (1) 
[H]c1c([H])c([H])c2c(c1[H])C([H])([H])C([H])([H])C([H])([H])C2([H])N([H])C(=O)C1([H])N(C(=O)C([H])(N([H])C(=O)C([H])(N([H])C([H])([H])[H])C([H])([H])[H])C(C([H])([H])[H])(C([H])([H])[H])C([H])([H])[H])C([H])([H])c2c([H])c(OC([H])([H])n3c([H])nc(C4([H])C([H])([H])C([H])(N([H])C(=O)N5C([H])([H])C([H])([H])C([H])([H])C([H])(n6nc(-c7c([H])c([H])c(Oc8c([H])c([H])c(F)c([H])c8F)c([H])c7[H])c(C(=O)N([H])[H])c6N([H])[H])C5([H])[H])C([H])([H])[N+]4([H])C([H])([H])[H])c3[H])c([H])c([H])c2C1([H])[H]

>  <smiles>  (1) 
[H]c1c([H])c([H])c2c(c1[H])C([H])([H])C([H])([H])C([H])([H])C2([H])N([H])C(=O)C1([H])N(C(=O)C([H])(N([H])C(=O)C([H])(N([H])C([H])([H])[H])C([H])([H])[H])C(C([H])([H])[H])(C([H])([H])[H])C([H])([H])[H])C([H])([H])c2c([H])c(OC([H])([H])n3c([H])nc(C4([H])C([H])([H])C([H])(N([H])C(=O)N5C([H])([H])C([H])([H])C([H])([H])C([H])(n6nc(-c7c([H])c([H])c(Oc8c([H])c([H])c(F)c([H])c8F)c([H])c7[H])c(C(=O)N([H])[H])c6N([H])[H])C5([H])[H])C([H])([H])[N+]4([H])C([H])([H])[H])c3[H])c([H])c([H])c2C1([H])[H]

$$$$
1:0:0
     RDKit          3D

 94103  0  0  1  0  0  0  0  0999 V2000
  -29.4600  -22.5640   20.7740 C   0  0  0  0  0  0  0  0  0  0  0  0
  -29.9020  -23.8030   20.3800 C   0  0  0  0  0  0  0  0  0  0  0  0
  -31.2620  -24.4290   20.4050 C   0  0  0  0  0  1  0  0  0  0  0  0
  -28.0840  -22.5090   20.5360 N   0  0  0  0  0  0  0  0  0  0  0  0
  -27.6850  -23.6360   20.0180 N   0  0  0  0  0  0  0  0  0  0  0  0
  -28.7680  -24.4450   19.9050 N   0  0  0  0  0  0  0  0  0  0  0  0
  -30.2430  -21.4250   21.4030 C   0  0  0  0  0  2  0  0  0  0  0  0
  -29.7480  -20.0630   21.0520 N   0  0  0  0  0  4  0  0  0  0  0  0
  -29.5960  -20.0640   20.0570 H   0  0  0  0  0  0  0  0  0  0  0  0
  -28.8470  -19.9480   21.4870 H   0  0  0  0  0  0  0  0  0  0  0  0
  -31.0960  -18.9990   22.8970 C   0  0  0  0  0  1  0  0  0  0  0  0
  -30.6630  -18.9310   21.4140 C   0  0  0  0  0  3  0  0  0  0  0  0
  -31.0060  -14.4680   20.0210 C   0  0  0  0  0  0  0  0  0  0  0  0
  -30.6330  -12.2820   18.9350 C   0  0  0  0  0  2  0  0  0  0  0  0
  -29.6320  -12.4660   17.7770 C   0  0  0  0  0  2  0  0  0  0  0  0
  -28.1810  -12.3520   18.2850 C   0  0  0  0  0  2  0  0  0  0  0  0
  -27.9160  -13.2210   19.5460 C   0  0  0  0  0  3  0  0  0  0  0  0
  -29.0260  -13.0220   20.6030 C   0  0  0  0  0  2  0  0  0  0  0  0
  -30.3180  -13.2960   19.9540 N   0  0  0  0  0  0  0  0  0  0  0  0
  -32.1170  -14.6200   19.5030 O   0  0  0  0  0  0  0  0  0  0  0  0
  -30.7220  -16.2660   21.6840 C   0  0  0  0  0  2  0  0  0  0  0  0
  -30.3140  -16.8290   19.7560 C   0  0  0  0  0  2  0  0  0  0  0  0
  -30.0750  -17.5280   21.0930 C   0  0  0  0  0  3  0  0  0  0  0  0
  -30.3040  -15.5360   20.4770 N   0  0  0  0  0  0  0  0  0  0  0  0
  -25.5880  -13.8740   20.4240 C   0  0  0  0  0  0  0  0  0  0  0  0
  -24.5200  -13.1220   20.8350 C   0  0  0  0  0  0  0  0  0  0  0  0
  -24.9360  -11.7600   20.7340 C   0  0  0  0  0  0  0  0  0  0  0  0
  -26.5880  -12.9700   20.1010 N   0  0  0  0  0  0  0  0  0  0  0  0
  -26.2020  -11.6920   20.3430 N   0  0  0  0  0  0  0  0  0  0  0  0
  -24.1830  -10.5140   20.9310 C   0  0  0  0  0  0  0  0  0  0  0  0
  -24.6020   -9.5380   21.8640 C   0  0  0  0  0  3  0  0  0  0  0  0
  -23.8530   -8.3570   22.0480 C   0  0  0  0  0  3  0  0  0  0  0  0
  -22.6690   -8.1420   21.3010 C   0  0  0  0  0  0  0  0  0  0  0  0
  -22.2700   -9.1060   20.3580 C   0  0  0  0  0  3  0  0  0  0  0  0
  -23.0210  -10.2780   20.1710 C   0  0  0  0  0  3  0  0  0  0  0  0
  -21.8920   -7.0130   21.3940 O   0  0  0  0  0  0  0  0  0  0  0  0
  -21.7720   -6.3180   22.5700 C   0  0  0  0  0  0  0  0  0  0  0  0
  -21.2730   -6.9200   23.7460 C   0  0  0  0  0  3  0  0  0  0  0  0
  -21.1020   -6.1510   24.9140 C   0  0  0  0  0  3  0  0  0  0  0  0
  -21.4190   -4.7790   24.9070 C   0  0  0  0  0  0  0  0  0  0  0  0
  -21.9100   -4.1750   23.7360 C   0  0  0  0  0  3  0  0  0  0  0  0
  -22.0830   -4.9420   22.5710 C   0  0  0  0  0  0  0  0  0  0  0  0
  -22.5370   -4.3520   21.4380 F   0  0  0  0  0  0  0  0  0  0  0  0
  -21.2460   -4.0370   26.0250 F   0  0  0  0  0  0  0  0  0  0  0  0
  -23.1580  -13.6320   21.2110 C   0  0  0  0  0  0  0  0  0  0  0  0
  -22.4650  -12.9310   22.1010 N   0  0  0  0  0  0  0  0  0  0  0  0
  -22.7200  -14.6850   20.7500 O   0  0  0  0  0  0  0  0  0  0  0  0
  -22.8330  -12.0780   22.4950 H   0  0  0  0  0  0  0  0  0  0  0  0
  -21.5520  -13.2520   22.3920 H   0  0  0  0  0  0  0  0  0  0  0  0
  -25.7870  -15.2440   20.2800 N   0  0  0  0  0  0  0  0  0  0  0  0
  -25.0570  -15.9230   20.4620 H   0  0  0  0  0  0  0  0  0  0  0  0
  -26.6450  -15.6630   19.9420 H   0  0  0  0  0  0  0  0  0  0  0  0
  -28.6440  -25.7640   19.2710 C   0  0  0  0  0  2  0  0  0  0  0  0
  -28.3890  -26.7600   20.2360 O   0  0  0  0  0  0  0  0  0  0  0  0
  -24.5720  -31.9370   23.2900 C   0  0  0  0  0  0  0  0  0  0  0  0
  -27.1920  -27.4570   20.2150 C   0  0  0  0  0  0  0  0  0  0  0  0
  -23.3550  -30.5310   21.6610 C   0  0  0  0  0  3  0  0  0  0  0  0
  -24.7950  -28.9790   20.2400 C   0  0  0  0  0  0  0  0  0  0  0  0
  -25.8820  -30.8740   21.4540 C   0  0  0  0  0  2  0  0  0  0  0  0
  -25.9580  -29.4970   20.8220 C   0  0  0  0  0  0  0  0  0  0  0  0
  -27.1520  -28.7410   20.8120 C   0  0  0  0  0  3  0  0  0  0  0  0
  -25.9980  -26.9450   19.6510 C   0  0  0  0  0  3  0  0  0  0  0  0
  -24.8100  -27.7000   19.6580 C   0  0  0  0  0  3  0  0  0  0  0  0
  -23.5550  -29.8430   20.2850 C   0  0  0  0  0  2  0  0  0  0  0  0
  -24.6220  -31.1290   22.1930 N   0  0  0  0  0  0  0  0  0  0  0  0
  -23.4930  -32.2170   23.8330 O   0  0  0  0  0  0  0  0  0  0  0  0
  -22.7030  -29.5180   22.6300 C   0  0  0  0  0  0  0  0  0  0  0  0
  -21.3860  -29.3000   22.4720 N   0  0  0  0  0  0  0  0  0  0  0  0
  -23.3790  -28.9300   23.4790 O   0  0  0  0  0  0  0  0  0  0  0  0
  -20.9010  -29.8260   21.7600 H   0  0  0  0  0  0  0  0  0  0  0  0
  -18.0430  -27.9890   22.8620 C   0  0  0  0  0  0  0  0  0  0  0  0
  -20.5720  -28.3610   23.2440 C   0  0  0  0  0  3  0  0  0  0  0  0
  -20.7570  -26.9130   22.7350 C   0  0  0  0  0  2  0  0  0  0  0  0
  -19.7210  -26.5050   21.6830 C   0  0  0  0  0  2  0  0  0  0  0  0
  -18.3030  -26.6220   22.2530 C   0  0  0  0  0  2  0  0  0  0  0  0
  -19.1090  -28.8120   23.3120 C   0  0  0  0  0  0  0  0  0  0  0  0
  -18.8130  -30.0890   23.8370 C   0  0  0  0  0  3  0  0  0  0  0  0
  -17.4840  -30.5440   23.9180 C   0  0  0  0  0  3  0  0  0  0  0  0
  -16.4310  -29.7190   23.4870 C   0  0  0  0  0  3  0  0  0  0  0  0
  -16.7110  -28.4430   22.9650 C   0  0  0  0  0  3  0  0  0  0  0  0
  -25.8640  -32.5670   23.9020 C   0  0  0  0  0  3  0  0  0  0  0  0
  -26.3820  -31.8020   25.1810 C   0  0  1  0  0  0  0  0  0  0  0  0
  -25.2910  -31.5710   26.2520 C   0  0  0  0  0  1  0  0  0  0  0  0
  -26.9630  -30.4210   24.7950 C   0  0  0  0  0  1  0  0  0  0  0  0
  -27.5330  -32.6000   25.8370 C   0  0  0  0  0  1  0  0  0  0  0  0
  -25.5630  -33.9680   24.2210 N   0  0  0  0  0  0  0  0  0  0  0  0
  -25.8970  -35.0120   23.4520 C   0  0  0  0  0  0  0  0  0  0  0  0
  -26.5630  -34.8970   22.4180 O   0  0  0  0  0  0  0  0  0  0  0  0
  -24.9730  -34.1320   25.0230 H   0  0  0  0  0  0  0  0  0  0  0  0
  -24.1760  -36.8080   23.0880 C   0  0  0  0  0  1  0  0  0  0  0  0
  -25.4170  -36.4060   23.8990 C   0  0  0  0  0  3  0  0  0  0  0  0
  -27.5580  -37.2910   24.7160 C   0  0  0  0  0  1  0  0  0  0  0  0
  -26.4540  -37.4530   23.7720 N   0  0  0  0  0  0  0  0  0  0  0  0
  -26.0520  -38.3770   23.9120 H   0  0  0  0  0  0  0  0  0  0  0  0
  1  7  1  0
  2  3  1  0
  2  1  2  0
  4  1  1  0
  5  4  2  0
  6  5  1  0
  6  2  1  0
  8  7  1  0
  8 12  1  0
  8 10  1  0
  9  8  1  0
 12 11  1  0
 13 24  1  0
 14 19  1  0
 15 16  1  0
 15 14  1  0
 17 16  1  0
 17 28  1  0
 17 18  1  0
 19 13  1  0
 19 18  1  0
 20 13  2  0
 22 24  1  0
 22 23  1  0
 23 12  1  0
 23 21  1  0
 24 21  1  0
 25 26  2  0
 26 45  1  0
 27 26  1  0
 27 30  1  0
 28 29  1  0
 28 25  1  0
 29 27  2  0
 30 31  1  0
 31 32  2  0
 33 36  1  0
 33 32  1  0
 34 33  2  0
 35 34  1  0
 35 30  2  0
 36 37  1  0
 37 42  2  0
 37 38  1  0
 38 39  2  0
 40 39  1  0
 40 44  1  0
 41 40  2  0
 42 41  1  0
 43 42  1  0
 45 46  1  0
 46 49  1  0
 46 48  1  0
 47 45  2  0
 50 25  1  0
 50 51  1  0
 52 50  1  0
 53  6  1  0
 53 54  1  0
 55 66  2  0
 56 54  1  0
 56 61  1  0
 57 65  1  0
 57 67  1  0
 58 64  1  0
 58 60  1  0
 59 65  1  0
 60 59  1  0
 61 60  2  0
 62 63  1  0
 62 56  2  0
 63 58  2  0
 64 57  1  0
 65 55  1  0
 67 69  2  0
 68 67  1  0
 70 68  1  0
 71 80  2  0
 71 76  1  0
 72 68  1  0
 72 76  1  0
 73 72  1  0
 74 75  1  0
 74 73  1  0
 75 71  1  0
 76 77  2  0
 77 78  1  0
 79 78  2  0
 80 79  1  0
 81 55  1  0
 81 86  1  0
 81 82  1  0
 82 85  1  1
 82 83  1  0
 84 82  1  0
 86 89  1  0
 87 91  1  0
 87 86  1  0
 88 87  2  0
 91 90  1  0
 93 91  1  0
 93 94  1  0
 93 92  1  0
M  ISO  4  13 100  24 100  53 101  54 101
M  END
>  <TORSDO>  (2) 
F 20

>  <SCORE>  (2) 
-13.821

>  <name>  (2) 
1

>  <ligand_id>  (2) 
1

>  <original_smiles>  (2) 
[H]c1c([H])c([H])c2c(c1[H])C([H])([H])C([H])([H])C([H])([H])C2([H])N([H])C(=O)C1([H])N(C(=O)C([H])(N([H])C(=O)C([H])(N([H])C([H])([H])[H])C([H])([H])[H])C(C([H])([H])[H])(C([H])([H])[H])C([H])([H])[H])C([H])([H])c2c([H])c(OC([H])([H])n3nnc(C([H])([H])[N+]([H])([H])C([H])(C([H])([H])[H])C4([H])C([H])([H])N(C(=O)N5C([H])([H])C([H])([H])C([H])([H])C([H])(n6nc(-c7c([H])c([H])c(Oc8c([H])c([H])c(F)c([H])c8F)c([H])c7[H])c(C(=O)N([H])[H])c6N([H])[H])C5([H])[H])C4([H])[H])c3C([H])([H])[H])c([H])c([H])c2C1([H])[H]

>  <smiles>  (2) 
[H]c1c([H])c([H])c2c(c1[H])C([H])([H])C([H])([H])C([H])([H])C2([H])N([H])C(=O)C1([H])N(C(=O)C([H])(N([H])C(=O)C([H])(N([H])C([H])([H])[H])C([H])([H])[H])C(C([H])([H])[H])(C([H])([H])[H])C([H])([H])[H])C([H])([H])c2c([H])c(OC([H])([H])n3nnc(C([H])([H])[N+]([H])([H])C([H])(C([H])([H])[H])C4([H])C([H])([H])N(C(=O)N5C([H])([H])C([H])([H])C([H])([H])C([H])(n6nc(-c7c([H])c([H])c(Oc8c([H])c([H])c(F)c([H])c8F)c([H])c7[H])c(C(=O)N([H])[H])c6N([H])[H])C5([H])[H])C4([H])[H])c3C([H])([H])[H])c([H])c([H])c2C1([H])[H]

$$$$
2:0:0
     RDKit          3D

 99108  0  0  1  0  0  0  0  0999 V2000
  -29.9250  -22.2130   20.2150 C   0  0  0  0  0  3  0  0  0  0  0  0
  -29.0200  -23.0790   19.5260 C   0  0  0  0  0  0  0  0  0  0  0  0
  -27.8040  -22.5500   19.0930 C   0  0  0  0  0  0  0  0  0  0  0  0
  -27.4370  -21.2390   19.4770 C   0  0  0  0  0  0  0  0  0  0  0  0
  -29.5310  -20.8640   20.4620 C   0  0  0  0  0  0  0  0  0  0  0  0
  -29.2330  -24.4890   18.9280 C   0  0  0  0  0  3  0  0  0  0  0  0
  -27.1260  -23.5150   18.1250 C   0  0  1  0  0  0  0  0  0  0  0  0
  -26.1030  -20.5910   19.1660 C   0  0  0  0  0  1  0  0  0  0  0  0
  -26.4570  -22.8180   16.9130 C   0  0  0  0  0  1  0  0  0  0  0  0
  -25.9960  -24.2960   18.8290 C   0  0  0  0  0  1  0  0  0  0  0  0
  -28.2900  -20.4360   20.1490 N   0  0  0  0  0  0  0  0  0  0  0  0
  -30.3950  -19.8810   21.0070 N   0  0  0  0  0  0  0  0  0  0  0  0
  -28.2810  -24.4300   17.7600 N   0  0  2  0  0  4  0  0  0  0  0  0
  -31.3380  -20.2080   21.1830 H   0  0  0  0  0  0  0  0  0  0  0  0
  -27.9170  -25.3630   17.6320 H   0  0  0  0  0  0  0  0  0  0  0  0
  -28.5510  -24.8230   15.2040 C   0  0  0  0  0  1  0  0  0  0  0  0
  -29.0220  -24.0960   16.4880 C   0  0  0  0  0  2  0  0  0  0  0  0
  -28.9520  -25.7330   19.8850 C   0  0  0  0  0  2  0  0  0  0  0  0
  -28.8430  -27.1040   19.3660 O   0  0  0  0  0  0  0  0  0  0  0  0
  -24.6460  -31.5430   23.2180 C   0  0  0  0  0  0  0  0  0  0  0  0
  -27.6500  -27.7990   19.5260 C   0  0  0  0  0  0  0  0  0  0  0  0
  -23.5820  -30.3670   21.3290 C   0  0  0  0  0  3  0  0  0  0  0  0
  -25.1680  -29.1780   19.7240 C   0  0  0  0  0  0  0  0  0  0  0  0
  -26.0960  -30.8790   21.2930 C   0  0  0  0  0  2  0  0  0  0  0  0
  -26.2830  -29.6420   20.4360 C   0  0  0  0  0  0  0  0  0  0  0  0
  -27.5270  -28.9590   20.3390 C   0  0  0  0  0  3  0  0  0  0  0  0
  -26.5290  -27.4130   18.7730 C   0  0  0  0  0  3  0  0  0  0  0  0
  -25.2870  -28.0590   18.8880 C   0  0  0  0  0  3  0  0  0  0  0  0
  -23.8750  -29.9490   19.8660 C   0  0  0  0  0  2  0  0  0  0  0  0
  -24.7910  -30.9350   22.0050 N   0  0  0  0  0  0  0  0  0  0  0  0
  -23.5330  -31.6610   23.7540 O   0  0  0  0  0  0  0  0  0  0  0  0
  -22.9720  -29.1600   22.0770 C   0  0  0  0  0  0  0  0  0  0  0  0
  -21.6600  -28.9370   21.8930 N   0  0  0  0  0  0  0  0  0  0  0  0
  -23.6780  -28.4320   22.7810 O   0  0  0  0  0  0  0  0  0  0  0  0
  -21.1490  -29.5760   21.2990 H   0  0  0  0  0  0  0  0  0  0  0  0
  -18.3440  -27.5330   22.1450 C   0  0  0  0  0  0  0  0  0  0  0  0
  -20.8870  -27.8400   22.4750 C   0  0  0  0  0  3  0  0  0  0  0  0
  -21.0460  -26.5430   21.6500 C   0  0  0  0  0  2  0  0  0  0  0  0
  -19.9680  -26.3780   20.5760 C   0  0  0  0  0  2  0  0  0  0  0  0
  -18.5750  -26.3510   21.2160 C   0  0  0  0  0  2  0  0  0  0  0  0
  -19.4290  -28.2430   22.7210 C   0  0  0  0  0  0  0  0  0  0  0  0
  -19.1610  -29.3620   23.5380 C   0  0  0  0  0  3  0  0  0  0  0  0
  -17.8350  -29.7680   23.7860 C   0  0  0  0  0  3  0  0  0  0  0  0
  -16.7640  -29.0510   23.2250 C   0  0  0  0  0  3  0  0  0  0  0  0
  -17.0190  -27.9340   22.4110 C   0  0  0  0  0  3  0  0  0  0  0  0
  -25.8710  -32.1400   23.9800 C   0  0  0  0  0  3  0  0  0  0  0  0
  -26.2520  -31.3300   25.2780 C   0  0  1  0  0  0  0  0  0  0  0  0
  -25.0600  -31.0910   26.2350 C   0  0  0  0  0  1  0  0  0  0  0  0
  -26.8440  -29.9490   24.9110 C   0  0  0  0  0  1  0  0  0  0  0  0
  -27.3510  -32.0840   26.0620 C   0  0  0  0  0  1  0  0  0  0  0  0
  -25.5450  -33.5320   24.3140 N   0  0  0  0  0  0  0  0  0  0  0  0
  -25.9660  -34.6010   23.6240 C   0  0  0  0  0  0  0  0  0  0  0  0
  -26.7410  -34.5130   22.6660 O   0  0  0  0  0  0  0  0  0  0  0  0
  -24.8720  -33.6740   25.0550 H   0  0  0  0  0  0  0  0  0  0  0  0
  -24.2800  -36.4080   23.1640 C   0  0  0  0  0  1  0  0  0  0  0  0
  -25.4480  -35.9820   24.0690 C   0  0  0  0  0  3  0  0  0  0  0  0
  -27.5130  -36.8320   25.0920 C   0  0  0  0  0  1  0  0  0  0  0  0
  -26.4900  -37.0300   24.0640 N   0  0  0  0  0  0  0  0  0  0  0  0
  -26.0810  -37.9490   24.1960 H   0  0  0  0  0  0  0  0  0  0  0  0
  -30.3060  -18.4970   20.4790 C   0  0  0  0  0  2  0  0  0  0  0  0
  -31.1750  -17.4130   21.2010 C   0  0  0  0  0  2  0  0  0  0  0  0
  -31.2620  -15.0090   20.3930 C   0  0  0  0  0  0  0  0  0  0  0  0
  -30.9360  -12.8210   19.2850 C   0  0  0  0  0  2  0  0  0  0  0  0
  -30.0240  -12.9840   18.0540 C   0  0  0  0  0  2  0  0  0  0  0  0
  -28.5470  -12.8300   18.4680 C   0  0  0  0  0  2  0  0  0  0  0  0
  -28.1800  -13.7080   19.6950 C   0  0  0  0  0  3  0  0  0  0  0  0
  -29.2210  -13.5610   20.8290 C   0  0  0  0  0  2  0  0  0  0  0  0
  -30.5540  -13.8480   20.2690 N   0  0  0  0  0  0  0  0  0  0  0  0
  -32.3680  -15.1650   19.8730 O   0  0  0  0  0  0  0  0  0  0  0  0
  -30.6450  -16.0370   21.0210 N   0  0  0  0  0  0  0  0  0  0  0  0
  -29.7370  -15.8420   21.4080 H   0  0  0  0  0  0  0  0  0  0  0  0
  -25.7850  -14.3170   20.4100 C   0  0  0  0  0  0  0  0  0  0  0  0
  -24.7100  -13.5440   20.7600 C   0  0  0  0  0  0  0  0  0  0  0  0
  -25.1630  -12.1910   20.7110 C   0  0  0  0  0  0  0  0  0  0  0  0
  -26.8250  -13.4320   20.1680 N   0  0  0  0  0  0  0  0  0  0  0  0
  -26.4540  -12.1480   20.4040 N   0  0  0  0  0  0  0  0  0  0  0  0
  -24.4280  -10.9300   20.8810 C   0  0  0  0  0  0  0  0  0  0  0  0
  -24.7820   -9.9960   21.8790 C   0  0  0  0  0  3  0  0  0  0  0  0
  -24.0480   -8.8010   22.0330 C   0  0  0  0  0  3  0  0  0  0  0  0
  -22.9460   -8.5300   21.1900 C   0  0  0  0  0  0  0  0  0  0  0  0
  -22.6130   -9.4520   20.1820 C   0  0  0  0  0  3  0  0  0  0  0  0
  -23.3470  -10.6400   20.0260 C   0  0  0  0  0  3  0  0  0  0  0  0
  -22.1920   -7.3840   21.2480 O   0  0  0  0  0  0  0  0  0  0  0  0
  -21.9500   -6.7430   22.4350 C   0  0  0  0  0  0  0  0  0  0  0  0
  -21.3130   -7.3910   23.5160 C   0  0  0  0  0  3  0  0  0  0  0  0
  -21.0200   -6.6750   24.6940 C   0  0  0  0  0  3  0  0  0  0  0  0
  -21.3530   -5.3100   24.7900 C   0  0  0  0  0  0  0  0  0  0  0  0
  -21.9810   -4.6610   23.7120 C   0  0  0  0  0  3  0  0  0  0  0  0
  -22.2760   -5.3760   22.5390 C   0  0  0  0  0  0  0  0  0  0  0  0
  -22.8620   -4.7390   21.4960 F   0  0  0  0  0  0  0  0  0  0  0  0
  -21.0650   -4.6200   25.9180 F   0  0  0  0  0  0  0  0  0  0  0  0
  -23.3160  -14.0280   21.0380 C   0  0  0  0  0  0  0  0  0  0  0  0
  -22.5830  -13.3300   21.8980 N   0  0  0  0  0  0  0  0  0  0  0  0
  -22.8840  -15.0580   20.5210 O   0  0  0  0  0  0  0  0  0  0  0  0
  -22.9460  -12.4940   22.3350 H   0  0  0  0  0  0  0  0  0  0  0  0
  -21.6440  -13.6320   22.1210 H   0  0  0  0  0  0  0  0  0  0  0  0
  -25.9640  -15.6880   20.2590 N   0  0  0  0  0  0  0  0  0  0  0  0
  -25.2050  -16.3490   20.3850 H   0  0  0  0  0  0  0  0  0  0  0  0
  -26.8150  -16.1240   19.9300 H   0  0  0  0  0  0  0  0  0  0  0  0
  1  5  1  0
  2  1  2  0
  3  4  2  0
  3  2  1  0
  4 11  1  0
  5 12  1  0
  6  2  1  0
  6 18  1  0
  7 10  1  1
  7  3  1  0
  8  4  1  0
  9  7  1  0
 11  5  2  0
 12 14  1  0
 13  7  1  0
 13  6  1  0
 13 15  1  6
 16 17  1  0
 17 13  1  0
 19 21  1  0
 19 18  1  0
 20 31  2  0
 21 26  1  0
 22 30  1  0
 22 32  1  0
 23 29  1  0
 23 25  1  0
 24 30  1  0
 25 24  1  0
 26 25  2  0
 27 28  1  0
 27 21  2  0
 28 23  2  0
 29 22  1  0
 30 20  1  0
 32 34  2  0
 33 32  1  0
 35 33  1  0
 36 45  2  0
 36 41  1  0
 37 33  1  0
 37 41  1  0
 38 37  1  0
 39 40  1  0
 39 38  1  0
 40 36  1  0
 41 42  2  0
 42 43  1  0
 44 43  2  0
 45 44  1  0
 46 20  1  0
 46 51  1  0
 46 47  1  0
 47 50  1  1
 47 48  1  0
 49 47  1  0
 51 54  1  0
 52 56  1  0
 52 51  1  0
 53 52  2  0
 56 55  1  0
 58 56  1  0
 58 59  1  0
 58 57  1  0
 60 12  1  0
 60 61  1  0
 62 70  1  0
 63 68  1  0
 64 65  1  0
 64 63  1  0
 66 65  1  0
 66 75  1  0
 66 67  1  0
 68 62  1  0
 68 67  1  0
 69 62  2  0
 70 61  1  0
 70 71  1  0
 72 73  2  0
 73 92  1  0
 74 73  1  0
 74 77  1  0
 75 76  1  0
 75 72  1  0
 76 74  2  0
 77 78  1  0
 78 79  2  0
 80 83  1  0
 80 79  1  0
 81 80  2  0
 82 81  1  0
 82 77  2  0
 83 84  1  0
 84 89  2  0
 84 85  1  0
 85 86  2  0
 86 87  1  0
 87 91  1  0
 88 87  2  0
 89 88  1  0
 90 89  1  0
 92 93  1  0
 93 96  1  0
 93 95  1  0
 94 92  2  0
 97 98  1  0
 97 72  1  0
 99 97  1  0
M  ISO  4  18 101  19 101  62 100  70 100
M  END
>  <TORSDO>  (3) 
F 20

>  <SCORE>  (3) 
-10.815

>  <name>  (3) 
2

>  <ligand_id>  (3) 
2

>  <original_smiles>  (3) 
[H]c1c([H])c([H])c2c(c1[H])C([H])([H])C([H])([H])C([H])([H])C2([H])N([H])C(=O)C1([H])N(C(=O)C([H])(N([H])C(=O)C([H])(N([H])C([H])([H])[H])C([H])([H])[H])C(C([H])([H])[H])(C([H])([H])[H])C([H])([H])[H])C([H])([H])c2c([H])c(OC([H])([H])C3([H])c4c([H])c(N([H])C([H])([H])C([H])([H])N([H])C(=O)N5C([H])([H])C([H])([H])C([H])([H])C([H])(n6nc(-c7c([H])c([H])c(Oc8c([H])c([H])c(F)c([H])c8F)c([H])c7[H])c(C(=O)N([H])[H])c6N([H])[H])C5([H])[H])nc(C([H])([H])[H])c4C(C([H])([H])[H])(C([H])([H])[H])[N+]3([H])C([H])([H])C([H])([H])[H])c([H])c([H])c2C1([H])[H]

>  <smiles>  (3) 
[H]c1c([H])c([H])c2c(c1[H])C([H])([H])C([H])([H])C([H])([H])C2([H])N([H])C(=O)C1([H])N(C(=O)C([H])(N([H])C(=O)C([H])(N([H])C([H])([H])[H])C([H])([H])[H])C(C([H])([H])[H])(C([H])([H])[H])C([H])([H])[H])C([H])([H])c2c([H])c(OC([H])([H])C3([H])c4c([H])c(N([H])C([H])([H])C([H])([H])N([H])C(=O)N5C([H])([H])C([H])([H])C([H])([H])C([H])(n6nc(-c7c([H])c([H])c(Oc8c([H])c([H])c(F)c([H])c8F)c([H])c7[H])c(C(=O)N([H])[H])c6N([H])[H])C5([H])[H])nc(C([H])([H])[H])c4C(C([H])([H])[H])(C([H])([H])[H])[N+]3([H])C([H])([H])C([H])([H])[H])c([H])c([H])c2C1([H])[H]

$$$$
3:0:0
     RDKit          3D

 90 99  0  0  1  0  0  0  0  0999 V2000
  -30.6620  -14.8470   20.3640 C   0  0  0  0  0  0  0  0  0  0  0  0
  -30.4220  -12.5410   19.4020 C   0  0  0  0  0  2  0  0  0  0  0  0
  -29.5150  -12.5570   18.1540 C   0  0  0  0  0  2  0  0  0  0  0  0
  -28.0380  -12.3990   18.5620 C   0  0  0  0  0  2  0  0  0  0  0  0
  -27.6410  -13.3230   19.7470 C   0  0  0  0  0  3  0  0  0  0  0  0
  -28.6820  -13.2860   20.8860 C   0  0  0  0  0  2  0  0  0  0  0  0
  -29.9700  -13.6490   20.2840 N   0  0  0  0  0  0  0  0  0  0  0  0
  -31.8740  -14.8020   20.1330 O   0  0  0  0  0  0  0  0  0  0  0  0
  -27.7460  -22.7380   20.3730 C   0  0  0  0  0  3  0  0  0  0  0  0
  -27.9410  -21.3190   20.5430 C   0  0  0  0  0  3  0  0  0  0  0  0
  -28.7990  -23.5680   19.8920 C   0  0  0  0  0  0  0  0  0  0  0  0
  -29.1880  -20.7010   20.2230 C   0  0  0  0  0  0  0  0  0  0  0  0
  -30.7120  -18.6260   19.8560 C   0  0  0  0  0  2  0  0  0  0  0  0
  -28.4850  -18.2300   20.7700 C   0  0  0  0  0  2  0  0  0  0  0  0
  -30.5550  -17.1500   19.2900 C   0  0  0  0  0  2  0  0  0  0  0  0
  -29.0610  -16.7720   21.1570 C   0  0  0  0  0  2  0  0  0  0  0  0
  -29.9840  -22.9140   19.6320 N   0  0  0  0  0  0  0  0  0  0  0  0
  -30.1690  -21.5660   19.7970 N   0  0  0  0  0  0  0  0  0  0  0  0
  -29.4550  -19.2550   20.3030 N   0  0  0  0  0  0  0  0  0  0  0  0
  -30.0110  -16.0950   20.2120 N   0  0  0  0  0  0  0  0  0  0  0  0
  -25.2490  -13.9360   20.4200 C   0  0  0  0  0  0  0  0  0  0  0  0
  -24.1710  -13.1750   20.7800 C   0  0  0  0  0  0  0  0  0  0  0  0
  -24.6260  -11.8200   20.7830 C   0  0  0  0  0  0  0  0  0  0  0  0
  -26.2910  -13.0460   20.2210 N   0  0  0  0  0  0  0  0  0  0  0  0
  -25.9240  -11.7690   20.5050 N   0  0  0  0  0  0  0  0  0  0  0  0
  -23.8850  -10.5670   20.9770 C   0  0  0  0  0  0  0  0  0  0  0  0
  -24.3000   -9.6010   21.9200 C   0  0  0  0  0  3  0  0  0  0  0  0
  -23.5600   -8.4140   22.1020 C   0  0  0  0  0  3  0  0  0  0  0  0
  -22.3880   -8.1830   21.3430 C   0  0  0  0  0  0  0  0  0  0  0  0
  -21.9920   -9.1380   20.3890 C   0  0  0  0  0  3  0  0  0  0  0  0
  -22.7340  -10.3160   20.2040 C   0  0  0  0  0  3  0  0  0  0  0  0
  -21.6200   -7.0480   21.4340 O   0  0  0  0  0  0  0  0  0  0  0  0
  -21.5660   -6.3060   22.5870 C   0  0  0  0  0  0  0  0  0  0  0  0
  -21.1650   -6.8690   23.8180 C   0  0  0  0  0  3  0  0  0  0  0  0
  -21.0580   -6.0550   24.9640 C   0  0  0  0  0  3  0  0  0  0  0  0
  -21.3410   -4.6790   24.8790 C   0  0  0  0  0  0  0  0  0  0  0  0
  -21.7350   -4.1150   23.6530 C   0  0  0  0  0  3  0  0  0  0  0  0
  -21.8440   -4.9270   22.5090 C   0  0  0  0  0  0  0  0  0  0  0  0
  -22.2040   -4.3740   21.3260 F   0  0  0  0  0  0  0  0  0  0  0  0
  -21.2310   -3.8950   25.9770 F   0  0  0  0  0  0  0  0  0  0  0  0
  -22.7720  -13.6670   21.0090 C   0  0  0  0  0  0  0  0  0  0  0  0
  -22.0210  -12.9970   21.8750 N   0  0  0  0  0  0  0  0  0  0  0  0
  -22.3540  -14.6840   20.4540 O   0  0  0  0  0  0  0  0  0  0  0  0
  -22.3710  -12.1760   22.3450 H   0  0  0  0  0  0  0  0  0  0  0  0
  -21.0820  -13.3120   22.0710 H   0  0  0  0  0  0  0  0  0  0  0  0
  -25.4280  -15.3010   20.2200 N   0  0  0  0  0  0  0  0  0  0  0  0
  -24.6610  -15.9610   20.2920 H   0  0  0  0  0  0  0  0  0  0  0  0
  -26.2810  -15.7200   19.8740 H   0  0  0  0  0  0  0  0  0  0  0  0
  -28.5870  -25.0650   19.3010 C   0  0  0  0  0  2  0  0  0  0  0  0
  -28.4640  -26.3610   20.0850 O   0  0  0  0  0  0  0  0  0  0  0  0
  -24.6580  -31.8150   23.0700 C   0  0  0  0  0  0  0  0  0  0  0  0
  -27.3560  -27.2530   19.9870 C   0  0  0  0  0  0  0  0  0  0  0  0
  -23.4930  -30.4140   21.4110 C   0  0  0  0  0  3  0  0  0  0  0  0
  -24.9780  -28.8960   19.9760 C   0  0  0  0  0  0  0  0  0  0  0  0
  -26.0370  -30.7510   21.2560 C   0  0  0  0  0  2  0  0  0  0  0  0
  -26.1410  -29.3760   20.5920 C   0  0  0  0  0  0  0  0  0  0  0  0
  -27.3270  -28.5650   20.5880 C   0  0  0  0  0  3  0  0  0  0  0  0
  -26.1570  -26.8500   19.3550 C   0  0  0  0  0  3  0  0  0  0  0  0
  -24.9940  -27.6430   19.3490 C   0  0  0  0  0  3  0  0  0  0  0  0
  -23.7300  -29.7580   20.0260 C   0  0  0  0  0  2  0  0  0  0  0  0
  -24.7480  -31.0130   21.9680 N   0  0  0  0  0  0  0  0  0  0  0  0
  -23.5650  -32.0720   23.5970 O   0  0  0  0  0  0  0  0  0  0  0  0
  -22.8360  -29.3790   22.3570 C   0  0  0  0  0  0  0  0  0  0  0  0
  -21.5070  -29.2080   22.2440 N   0  0  0  0  0  0  0  0  0  0  0  0
  -23.5220  -28.7340   23.1550 O   0  0  0  0  0  0  0  0  0  0  0  0
  -21.0110  -29.7800   21.5750 H   0  0  0  0  0  0  0  0  0  0  0  0
  -18.1300  -28.0220   22.7860 C   0  0  0  0  0  0  0  0  0  0  0  0
  -20.6950  -28.2550   23.0060 C   0  0  0  0  0  3  0  0  0  0  0  0
  -20.7720  -26.8390   22.3880 C   0  0  0  0  0  2  0  0  0  0  0  0
  -19.6460  -26.5540   21.3880 C   0  0  0  0  0  2  0  0  0  0  0  0
  -18.2800  -26.6910   22.0660 C   0  0  0  0  0  2  0  0  0  0  0  0
  -19.2640  -28.7630   23.2120 C   0  0  0  0  0  0  0  0  0  0  0  0
  -19.0670  -30.0090   23.8470 C   0  0  0  0  0  3  0  0  0  0  0  0
  -17.7710  -30.5130   24.0580 C   0  0  0  0  0  3  0  0  0  0  0  0
  -16.6510  -29.7700   23.6470 C   0  0  0  0  0  3  0  0  0  0  0  0
  -16.8320  -28.5250   23.0160 C   0  0  0  0  0  3  0  0  0  0  0  0
  -25.9230  -32.4680   23.7090 C   0  0  0  0  0  3  0  0  0  0  0  0
  -25.5720  -33.8450   24.0850 N   0  0  0  0  0  0  0  0  0  0  0  0
  -25.8600  -34.9330   23.3570 C   0  0  0  0  0  0  0  0  0  0  0  0
  -26.5170  -34.8830   22.3140 O   0  0  0  0  0  0  0  0  0  0  0  0
  -24.9850  -33.9550   24.8990 H   0  0  0  0  0  0  0  0  0  0  0  0
  -24.0670  -36.6780   23.0920 C   0  0  0  0  0  1  0  0  0  0  0  0
  -25.3370  -36.2900   23.8660 C   0  0  0  0  0  3  0  0  0  0  0  0
  -27.4580  -37.2210   24.6810 C   0  0  0  0  0  1  0  0  0  0  0  0
  -26.3320  -37.3800   23.7660 N   0  0  0  0  0  0  0  0  0  0  0  0
  -25.8990  -38.2820   23.9500 H   0  0  0  0  0  0  0  0  0  0  0  0
  -26.4640  -31.6740   24.9610 C   0  0  1  0  0  0  0  0  0  0  0  0
  -25.3830  -31.3770   26.0260 C   0  0  0  0  0  1  0  0  0  0  0  0
  -27.0820  -30.3230   24.5310 C   0  0  0  0  0  1  0  0  0  0  0  0
  -27.5970  -32.4780   25.6410 C   0  0  0  0  0  1  0  0  0  0  0  0
  2  7  1  0
  3  4  1  0
  3  2  1  0
  5  4  1  0
  5 24  1  0
  5  6  1  0
  7  1  1  0
  7  6  1  0
  8  1  2  0
  9 10  1  0
 11  9  2  0
 12 19  1  0
 12 10  2  0
 13 19  1  0
 14 16  1  0
 15 13  1  0
 15 20  1  0
 17 18  2  0
 17 11  1  0
 18 12  1  0
 19 14  1  0
 20  1  1  0
 20 16  1  0
 21 22  2  0
 22 23  1  0
 22 41  1  0
 23 26  1  0
 24 21  1  0
 24 25  1  0
 25 23  2  0
 26 27  1  0
 27 28  2  0
 29 32  1  0
 29 28  1  0
 30 29  2  0
 31 30  1  0
 31 26  2  0
 32 33  1  0
 33 34  1  0
 34 35  2  0
 36 35  1  0
 36 40  1  0
 37 36  2  0
 38 33  2  0
 38 37  1  0
 39 38  1  0
 41 42  1  0
 42 45  1  0
 42 44  1  0
 43 41  2  0
 46 47  1  0
 46 21  1  0
 48 46  1  0
 49 11  1  0
 49 50  1  0
 51 62  2  0
 52 50  1  0
 52 57  1  0
 53 61  1  0
 53 63  1  0
 54 60  1  0
 54 56  1  0
 55 61  1  0
 56 55  1  0
 57 56  2  0
 58 52  2  0
 59 58  1  0
 59 54  2  0
 60 53  1  0
 61 51  1  0
 63 65  2  0
 64 63  1  0
 66 64  1  0
 67 76  2  0
 67 72  1  0
 68 64  1  0
 68 72  1  0
 69 68  1  0
 70 71  1  0
 70 69  1  0
 71 67  1  0
 72 73  2  0
 73 74  1  0
 75 74  2  0
 76 75  1  0
 77 51  1  0
 77 78  1  0
 77 87  1  0
 78 81  1  0
 79 83  1  0
 79 78  1  0
 80 79  2  0
 83 82  1  0
 85 83  1  0
 85 86  1  0
 85 84  1  0
 87 90  1  1
 87 88  1  0
 89 87  1  0
M  ISO  4   1 100  20 100  49 101  50 101
M  END
>  <TORSDO>  (4) 
F 16

>  <SCORE>  (4) 
-15.238

>  <name>  (4) 
3

>  <ligand_id>  (4) 
3

>  <original_smiles>  (4) 
[H]c1c(N2C([H])([H])C([H])([H])N(C(=O)N3C([H])([H])C([H])([H])C([H])([H])C([H])(n4nc(-c5c([H])c([H])c(Oc6c([H])c([H])c(F)c([H])c6F)c([H])c5[H])c(C(=O)N([H])[H])c4N([H])[H])C3([H])[H])C([H])([H])C2([H])[H])nnc(C([H])([H])Oc2c([H])c([H])c3c(c2[H])C([H])([H])N(C(=O)C([H])(N([H])C(=O)C([H])(N([H])C([H])([H])[H])C([H])([H])[H])C(C([H])([H])[H])(C([H])([H])[H])C([H])([H])[H])C([H])(C(=O)N([H])C2([H])c4c([H])c([H])c([H])c([H])c4C([H])([H])C([H])([H])C2([H])[H])C3([H])[H])c1[H]

>  <smiles>  (4) 
[H]c1c(N2C([H])([H])C([H])([H])N(C(=O)N3C([H])([H])C([H])([H])C([H])([H])C([H])(n4nc(-c5c([H])c([H])c(Oc6c([H])c([H])c(F)c([H])c6F)c([H])c5[H])c(C(=O)N([H])[H])c4N([H])[H])C3([H])[H])C([H])([H])C2([H])[H])nnc(C([H])([H])Oc2c([H])c([H])c3c(c2[H])C([H])([H])N(C(=O)C([H])(N([H])C(=O)C([H])(N([H])C([H])([H])[H])C([H])([H])[H])C(C([H])([H])[H])(C([H])([H])[H])C([H])([H])[H])C([H])(C(=O)N([H])C2([H])c4c([H])c([H])c([H])c([H])c4C([H])([H])C([H])([H])C2([H])[H])C3([H])[H])c1[H]

$$$$
4:0:0
     RDKit          3D

 87 95  0  0  1  0  0  0  0  0999 V2000
  -29.5800  -22.5640   21.7550 C   0  0  0  0  0  1  0  0  0  0  0  0
  -29.2120  -22.5630   20.2620 C   0  0  0  0  0  3  0  0  0  0  0  0
  -27.5010  -20.6350   20.1170 C   0  0  0  0  0  1  0  0  0  0  0  0
  -28.9220  -20.9200   19.8380 N   0  0  2  0  0  4  0  0  0  0  0  0
  -28.9310  -20.9970   18.8310 H   0  0  0  0  0  0  0  0  0  0  0  0
  -30.6970  -15.6200   20.0990 C   0  0  0  0  0  0  0  0  0  0  0  0
  -30.7130  -13.1020   19.3240 C   0  0  0  0  0  2  0  0  0  0  0  0
  -29.8150  -12.7610   18.1060 C   0  0  0  0  0  2  0  0  0  0  0  0
  -28.3750  -12.4680   18.5580 C   0  0  0  0  0  2  0  0  0  0  0  0
  -27.8930  -13.4790   19.6280 C   0  0  0  0  0  3  0  0  0  0  0  0
  -28.9310  -13.7550   20.7400 C   0  0  0  0  0  2  0  0  0  0  0  0
  -30.1270  -14.2940   20.0680 N   0  0  0  0  0  0  0  0  0  0  0  0
  -31.9180  -15.5530   19.8750 O   0  0  0  0  0  0  0  0  0  0  0  0
  -29.4570  -18.1110   20.9750 C   0  0  0  0  0  2  0  0  0  0  0  0
  -29.9360  -18.1720   18.9980 C   0  0  0  0  0  2  0  0  0  0  0  0
  -29.8130  -19.4470   20.0470 C   0  0  0  0  0  3  0  0  0  0  0  0
  -29.9850  -16.9730   20.0210 N   0  0  0  0  0  0  0  0  0  0  0  0
  -25.5410  -14.0370   20.4170 C   0  0  0  0  0  0  0  0  0  0  0  0
  -24.4760  -13.2640   20.7840 C   0  0  0  0  0  0  0  0  0  0  0  0
  -24.9320  -11.9110   20.7390 C   0  0  0  0  0  0  0  0  0  0  0  0
  -26.5730  -13.1570   20.1540 N   0  0  0  0  0  0  0  0  0  0  0  0
  -26.2220  -11.8710   20.4160 N   0  0  0  0  0  0  0  0  0  0  0  0
  -24.1940  -10.6540   20.9250 C   0  0  0  0  0  0  0  0  0  0  0  0
  -24.5850   -9.7000   21.8910 C   0  0  0  0  0  3  0  0  0  0  0  0
  -23.8440   -8.5110   22.0650 C   0  0  0  0  0  3  0  0  0  0  0  0
  -22.6970   -8.2670   21.2730 C   0  0  0  0  0  0  0  0  0  0  0  0
  -22.3240   -9.2090   20.2970 C   0  0  0  0  0  3  0  0  0  0  0  0
  -23.0670  -10.3890   20.1220 C   0  0  0  0  0  3  0  0  0  0  0  0
  -21.9300   -7.1280   21.3550 O   0  0  0  0  0  0  0  0  0  0  0  0
  -21.7870   -6.4390   22.5320 C   0  0  0  0  0  0  0  0  0  0  0  0
  -21.2570   -7.0480   23.6900 C   0  0  0  0  0  3  0  0  0  0  0  0
  -21.0610   -6.2860   24.8590 C   0  0  0  0  0  3  0  0  0  0  0  0
  -21.3850   -4.9160   24.8700 C   0  0  0  0  0  0  0  0  0  0  0  0
  -21.9100   -4.3080   23.7160 C   0  0  0  0  0  3  0  0  0  0  0  0
  -22.1070   -5.0660   22.5490 C   0  0  0  0  0  0  0  0  0  0  0  0
  -22.5910   -4.4700   21.4330 F   0  0  0  0  0  0  0  0  0  0  0  0
  -21.1900   -4.1820   25.9900 F   0  0  0  0  0  0  0  0  0  0  0  0
  -23.0860  -13.7530   21.0610 C   0  0  0  0  0  0  0  0  0  0  0  0
  -22.3550  -13.0650   21.9320 N   0  0  0  0  0  0  0  0  0  0  0  0
  -22.6550  -14.7820   20.5420 O   0  0  0  0  0  0  0  0  0  0  0  0
  -22.7160  -12.2360   22.3780 H   0  0  0  0  0  0  0  0  0  0  0  0
  -21.4230  -13.3800   22.1610 H   0  0  0  0  0  0  0  0  0  0  0  0
  -25.7140  -15.4090   20.2530 N   0  0  0  0  0  0  0  0  0  0  0  0
  -24.9520  -16.0680   20.3770 H   0  0  0  0  0  0  0  0  0  0  0  0
  -26.5680  -15.8450   19.9290 H   0  0  0  0  0  0  0  0  0  0  0  0
  -28.2340  -24.1400   19.9830 C   0  0  0  0  0  2  0  0  0  0  0  0
  -28.3990  -25.8190   20.2540 O   0  0  0  0  0  0  0  0  0  0  0  0
  -24.7390  -31.8450   23.2260 C   0  0  0  0  0  0  0  0  0  0  0  0
  -27.3910  -26.9580   20.1880 C   0  0  0  0  0  0  0  0  0  0  0  0
  -23.5920  -30.4650   21.5450 C   0  0  0  0  0  3  0  0  0  0  0  0
  -25.0840  -28.8810   20.1260 C   0  0  0  0  0  0  0  0  0  0  0  0
  -26.1640  -30.6790   21.4560 C   0  0  0  0  0  2  0  0  0  0  0  0
  -26.2600  -29.2690   20.7790 C   0  0  0  0  0  0  0  0  0  0  0  0
  -27.4040  -28.3330   20.7800 C   0  0  0  0  0  3  0  0  0  0  0  0
  -26.1820  -26.7490   19.4860 C   0  0  0  0  0  3  0  0  0  0  0  0
  -25.0760  -27.6450   19.4580 C   0  0  0  0  0  3  0  0  0  0  0  0
  -23.8570  -29.7990   20.1650 C   0  0  0  0  0  2  0  0  0  0  0  0
  -24.8540  -31.0260   22.1290 N   0  0  0  0  0  0  0  0  0  0  0  0
  -23.6350  -32.1170   23.7300 O   0  0  0  0  0  0  0  0  0  0  0  0
  -22.8840  -29.4520   22.4840 C   0  0  0  0  0  0  0  0  0  0  0  0
  -21.5550  -29.2870   22.3430 N   0  0  0  0  0  0  0  0  0  0  0  0
  -23.5390  -28.8140   23.3120 O   0  0  0  0  0  0  0  0  0  0  0  0
  -21.0750  -29.8540   21.6570 H   0  0  0  0  0  0  0  0  0  0  0  0
  -18.1680  -28.0640   22.8140 C   0  0  0  0  0  0  0  0  0  0  0  0
  -20.7280  -28.3280   23.0870 C   0  0  0  0  0  3  0  0  0  0  0  0
  -20.8310  -26.9120   22.4740 C   0  0  0  0  0  2  0  0  0  0  0  0
  -19.7310  -26.6160   21.4490 C   0  0  0  0  0  2  0  0  0  0  0  0
  -18.3470  -26.7370   22.0960 C   0  0  0  0  0  2  0  0  0  0  0  0
  -19.2850  -28.8180   23.2650 C   0  0  0  0  0  0  0  0  0  0  0  0
  -19.0590  -30.0590   23.9010 C   0  0  0  0  0  3  0  0  0  0  0  0
  -17.7510  -30.5460   24.0860 C   0  0  0  0  0  3  0  0  0  0  0  0
  -16.6500  -29.7910   23.6480 C   0  0  0  0  0  3  0  0  0  0  0  0
  -16.8590  -28.5510   23.0190 C   0  0  0  0  0  3  0  0  0  0  0  0
  -25.9870  -32.4970   23.8960 C   0  0  0  0  0  3  0  0  0  0  0  0
  -25.6560  -33.8990   24.2120 N   0  0  0  0  0  0  0  0  0  0  0  0
  -25.9870  -34.9590   23.4610 C   0  0  0  0  0  0  0  0  0  0  0  0
  -26.6630  -34.8580   22.4340 O   0  0  0  0  0  0  0  0  0  0  0  0
  -25.0520  -34.0490   25.0060 H   0  0  0  0  0  0  0  0  0  0  0  0
  -24.2340  -36.7380   23.1270 C   0  0  0  0  0  1  0  0  0  0  0  0
  -25.4940  -36.3480   23.9170 C   0  0  0  0  0  3  0  0  0  0  0  0
  -27.6270  -37.2730   24.7080 C   0  0  0  0  0  1  0  0  0  0  0  0
  -26.5120  -37.4120   23.7760 N   0  0  0  0  0  0  0  0  0  0  0  0
  -26.0970  -38.3300   23.9140 H   0  0  0  0  0  0  0  0  0  0  0  0
  -26.4490  -31.7440   25.2050 C   0  0  1  0  0  0  0  0  0  0  0  0
  -25.3140  -31.5240   26.2320 C   0  0  0  0  0  1  0  0  0  0  0  0
  -27.0430  -30.3580   24.8670 C   0  0  0  0  0  1  0  0  0  0  0  0
  -27.5710  -32.5480   25.9030 C   0  0  0  0  0  1  0  0  0  0  0  0
  2  1  1  0
  4  3  1  0
  4  2  1  0
  4  5  1  6
  7 12  1  0
  8  9  1  0
  8  7  1  0
 10  9  1  0
 10 21  1  0
 10 11  1  0
 12  6  1  0
 12 11  1  0
 13  6  2  0
 15 17  1  0
 15 16  1  0
 16  4  1  0
 16 14  1  0
 17  6  1  0
 17 14  1  0
 18 19  2  0
 19 38  1  0
 20 19  1  0
 20 23  1  0
 21 22  1  0
 21 18  1  0
 22 20  2  0
 23 24  1  0
 24 25  2  0
 26 29  1  0
 26 25  1  0
 27 26  2  0
 28 27  1  0
 28 23  2  0
 29 30  1  0
 30 35  2  0
 30 31  1  0
 31 32  2  0
 32 33  1  0
 33 37  1  0
 34 33  2  0
 35 34  1  0
 36 35  1  0
 38 39  1  0
 39 42  1  0
 39 41  1  0
 40 38  2  0
 43 44  1  0
 43 18  1  0
 45 43  1  0
 46 47  1  0
 46  2  1  0
 48 59  2  0
 49 47  1  0
 49 54  1  0
 50 58  1  0
 50 60  1  0
 51 57  1  0
 51 53  1  0
 52 58  1  0
 53 54  2  0
 53 52  1  0
 55 49  2  0
 56 55  1  0
 56 51  2  0
 57 50  1  0
 58 48  1  0
 60 62  2  0
 61 60  1  0
 63 61  1  0
 64 73  2  0
 64 69  1  0
 65 61  1  0
 65 69  1  0
 66 65  1  0
 67 68  1  0
 67 66  1  0
 68 64  1  0
 69 70  2  0
 70 71  1  0
 72 71  2  0
 73 72  1  0
 74 48  1  0
 74 75  1  0
 74 84  1  0
 75 78  1  0
 76 80  1  0
 76 75  1  0
 77 76  2  0
 80 79  1  0
 82 83  1  0
 82 80  1  0
 82 81  1  0
 84 87  1  1
 84 85  1  0
 86 84  1  0
M  ISO  4   6 100  17 100  46 101  47 101
M  END
>  <TORSDO>  (5) 
F 18

>  <SCORE>  (5) 
-16.034

>  <name>  (5) 
4

>  <ligand_id>  (5) 
4

>  <original_smiles>  (5) 
[H]c1c([H])c([H])c2c(c1[H])C([H])([H])C([H])([H])C([H])([H])C2([H])N([H])C(=O)C1([H])N(C(=O)C([H])(N([H])C(=O)C([H])(N([H])C([H])([H])[H])C([H])([H])[H])C(C([H])([H])[H])(C([H])([H])[H])C([H])([H])[H])C([H])([H])c2c([H])c(OC([H])([H])C([H])(C([H])([H])[H])[N+]([H])(C([H])([H])[H])C3([H])C([H])([H])N(C(=O)N4C([H])([H])C([H])([H])C([H])([H])C([H])(n5nc(-c6c([H])c([H])c(Oc7c([H])c([H])c(F)c([H])c7F)c([H])c6[H])c(C(=O)N([H])[H])c5N([H])[H])C4([H])[H])C3([H])[H])c([H])c([H])c2C1([H])[H]

>  <smiles>  (5) 
[H]c1c([H])c([H])c2c(c1[H])C([H])([H])C([H])([H])C([H])([H])C2([H])N([H])C(=O)C1([H])N(C(=O)C([H])(N([H])C(=O)C([H])(N([H])C([H])([H])[H])C([H])([H])[H])C(C([H])([H])[H])(C([H])([H])[H])C([H])([H])[H])C([H])([H])c2c([H])c(OC([H])([H])C([H])(C([H])([H])[H])[N+]([H])(C([H])([H])[H])C3([H])C([H])([H])N(C(=O)N4C([H])([H])C([H])([H])C([H])([H])C([H])(n5nc(-c6c([H])c([H])c(Oc7c([H])c([H])c(F)c([H])c7F)c([H])c6[H])c(C(=O)N([H])[H])c5N([H])[H])C4([H])[H])C3([H])[H])c([H])c([H])c2C1([H])[H]

$$$$
5:0:0
     RDKit          3D

 92102  0  0  1  0  0  0  0  0999 V2000
  -31.2620  -22.5860   20.0510 C   0  0  0  0  0  3  0  0  0  0  0  0
  -30.2910  -23.6010   20.0990 C   0  0  0  0  0  3  0  0  0  0  0  0
  -30.9350  -21.2080   20.0940 C   0  0  0  0  0  0  0  0  0  0  0  0
  -29.5790  -20.8060   20.2480 C   0  0  0  0  0  0  0  0  0  0  0  0
  -28.9350  -23.2830   20.2150 C   0  0  0  0  0  0  0  0  0  0  0  0
  -28.6210  -21.8790   20.2940 N   0  0  0  0  0  0  0  0  0  0  0  0
  -33.4490  -20.5420   19.4840 C   0  0  0  0  0  2  0  0  0  0  0  0
  -32.5210  -19.7020   18.6480 C   0  0  0  0  0  2  0  0  0  0  0  0
  -32.0580  -20.2060   20.0000 C   0  0  0  0  0  3  0  0  0  0  0  0
  -28.8100  -18.3390   19.2730 C   0  0  0  0  0  2  0  0  0  0  0  0
  -29.2170  -19.1770   20.4470 C   0  0  0  0  0  3  0  0  0  0  0  0
  -29.9600  -17.6940   20.0410 C   0  0  0  0  0  3  0  0  0  0  0  0
  -30.4880  -15.0000   20.2420 C   0  0  0  0  0  0  0  0  0  0  0  0
  -30.3680  -12.6400   19.3090 C   0  0  0  0  0  2  0  0  0  0  0  0
  -29.4360  -12.6270   18.0750 C   0  0  0  0  0  2  0  0  0  0  0  0
  -27.9660  -12.4280   18.5000 C   0  0  0  0  0  2  0  0  0  0  0  0
  -27.5710  -13.3140   19.7130 C   0  0  0  0  0  3  0  0  0  0  0  0
  -28.6360  -13.3130   20.8280 C   0  0  0  0  0  2  0  0  0  0  0  0
  -29.9020  -13.7320   20.2140 N   0  0  0  0  0  0  0  0  0  0  0  0
  -31.6830  -15.0650   19.9330 O   0  0  0  0  0  0  0  0  0  0  0  0
  -29.6970  -16.1840   20.3850 N   0  0  0  0  0  0  0  0  0  0  0  0
  -28.7430  -15.9890   20.6450 H   0  0  0  0  0  0  0  0  0  0  0  0
  -25.1990  -13.8630   20.4950 C   0  0  0  0  0  0  0  0  0  0  0  0
  -24.1460  -13.0790   20.8740 C   0  0  0  0  0  0  0  0  0  0  0  0
  -24.6170  -11.7320   20.8260 C   0  0  0  0  0  0  0  0  0  0  0  0
  -26.2410  -12.9950   20.2280 N   0  0  0  0  0  0  0  0  0  0  0  0
  -25.9040  -11.7060   20.4930 N   0  0  0  0  0  0  0  0  0  0  0  0
  -23.8980  -10.4670   21.0180 C   0  0  0  0  0  0  0  0  0  0  0  0
  -24.3330   -9.5020   21.9550 C   0  0  0  0  0  3  0  0  0  0  0  0
  -23.6120   -8.3020   22.1350 C   0  0  0  0  0  3  0  0  0  0  0  0
  -22.4400   -8.0580   21.3800 C   0  0  0  0  0  0  0  0  0  0  0  0
  -22.0220   -9.0120   20.4360 C   0  0  0  0  0  3  0  0  0  0  0  0
  -22.7430  -10.2030   20.2530 C   0  0  0  0  0  3  0  0  0  0  0  0
  -21.6900   -6.9110   21.4690 O   0  0  0  0  0  0  0  0  0  0  0  0
  -21.6330   -6.1750   22.6250 C   0  0  0  0  0  0  0  0  0  0  0  0
  -21.1830   -6.7320   23.8420 C   0  0  0  0  0  3  0  0  0  0  0  0
  -21.0740   -5.9200   24.9890 C   0  0  0  0  0  3  0  0  0  0  0  0
  -21.4080   -4.5530   24.9200 C   0  0  0  0  0  0  0  0  0  0  0  0
  -21.8500   -3.9970   23.7070 C   0  0  0  0  0  3  0  0  0  0  0  0
  -21.9600   -4.8050   22.5620 C   0  0  0  0  0  0  0  0  0  0  0  0
  -22.3670   -4.2580   21.3920 F   0  0  0  0  0  0  0  0  0  0  0  0
  -21.2960   -3.7730   26.0200 F   0  0  0  0  0  0  0  0  0  0  0  0
  -22.7500  -13.5500   21.1630 C   0  0  0  0  0  0  0  0  0  0  0  0
  -22.0320  -12.8490   22.0330 N   0  0  0  0  0  0  0  0  0  0  0  0
  -22.3050  -14.5790   20.6550 O   0  0  0  0  0  0  0  0  0  0  0  0
  -22.4050  -12.0210   22.4760 H   0  0  0  0  0  0  0  0  0  0  0  0
  -21.0960  -13.1510   22.2630 H   0  0  0  0  0  0  0  0  0  0  0  0
  -25.3420  -15.2370   20.3260 N   0  0  0  0  0  0  0  0  0  0  0  0
  -24.5510  -15.8610   20.4330 H   0  0  0  0  0  0  0  0  0  0  0  0
  -26.1590  -15.6970   19.9460 H   0  0  0  0  0  0  0  0  0  0  0  0
  -27.8620  -24.5540   20.1980 C   0  0  0  0  0  2  0  0  0  0  0  0
  -28.2020  -26.0970   20.2420 O   0  0  0  0  0  0  0  0  0  0  0  0
  -24.6450  -31.8790   23.2510 C   0  0  0  0  0  0  0  0  0  0  0  0
  -27.1670  -27.1160   20.1970 C   0  0  0  0  0  0  0  0  0  0  0  0
  -23.4320  -30.4950   21.6180 C   0  0  0  0  0  3  0  0  0  0  0  0
  -24.8600  -28.9100   20.1830 C   0  0  0  0  0  0  0  0  0  0  0  0
  -25.9920  -30.7270   21.4490 C   0  0  0  0  0  2  0  0  0  0  0  0
  -26.0490  -29.3340   20.7890 C   0  0  0  0  0  0  0  0  0  0  0  0
  -27.2040  -28.4550   20.7750 C   0  0  0  0  0  3  0  0  0  0  0  0
  -25.9500  -26.8090   19.5490 C   0  0  0  0  0  3  0  0  0  0  0  0
  -24.8250  -27.6620   19.5480 C   0  0  0  0  0  3  0  0  0  0  0  0
  -23.6430  -29.8230   20.2370 C   0  0  0  0  0  2  0  0  0  0  0  0
  -24.7110  -31.0560   22.1600 N   0  0  0  0  0  0  0  0  0  0  0  0
  -23.5620  -32.1710   23.7810 O   0  0  0  0  0  0  0  0  0  0  0  0
  -22.7490  -29.4880   22.5790 C   0  0  0  0  0  0  0  0  0  0  0  0
  -21.4190  -29.3250   22.4550 N   0  0  0  0  0  0  0  0  0  0  0  0
  -23.4190  -28.8600   23.4030 O   0  0  0  0  0  0  0  0  0  0  0  0
  -20.9340  -29.8820   21.7660 H   0  0  0  0  0  0  0  0  0  0  0  0
  -18.0340  -28.1340   22.9650 C   0  0  0  0  0  0  0  0  0  0  0  0
  -20.5950  -28.3910   23.2280 C   0  0  0  0  0  3  0  0  0  0  0  0
  -20.6900  -26.9570   22.6570 C   0  0  0  0  0  2  0  0  0  0  0  0
  -19.5860  -26.6350   21.6440 C   0  0  0  0  0  2  0  0  0  0  0  0
  -18.2050  -26.7850   22.2890 C   0  0  0  0  0  2  0  0  0  0  0  0
  -19.1550  -28.8960   23.3920 C   0  0  0  0  0  0  0  0  0  0  0  0
  -18.9380  -30.1570   23.9860 C   0  0  0  0  0  3  0  0  0  0  0  0
  -17.6340  -30.6600   24.1550 C   0  0  0  0  0  3  0  0  0  0  0  0
  -16.5280  -29.8950   23.7440 C   0  0  0  0  0  3  0  0  0  0  0  0
  -16.7290  -28.6350   23.1550 C   0  0  0  0  0  3  0  0  0  0  0  0
  -25.9250  -32.5090   23.8770 C   0  0  0  0  0  3  0  0  0  0  0  0
  -26.4400  -31.7310   25.1520 C   0  0  1  0  0  0  0  0  0  0  0  0
  -25.3470  -31.4930   26.2220 C   0  0  0  0  0  1  0  0  0  0  0  0
  -27.0180  -30.3520   24.7590 C   0  0  0  0  0  1  0  0  0  0  0  0
  -27.5960  -32.5180   25.8130 C   0  0  0  0  0  1  0  0  0  0  0  0
  -25.6150  -33.9060   24.2230 N   0  0  0  0  0  0  0  0  0  0  0  0
  -25.9190  -34.9680   23.4650 C   0  0  0  0  0  0  0  0  0  0  0  0
  -26.5540  -34.8740   22.4120 O   0  0  0  0  0  0  0  0  0  0  0  0
  -25.0420  -34.0490   25.0420 H   0  0  0  0  0  0  0  0  0  0  0  0
  -24.1590  -36.7490   23.2040 C   0  0  0  0  0  1  0  0  0  0  0  0
  -25.4440  -36.3530   23.9500 C   0  0  0  0  0  3  0  0  0  0  0  0
  -27.6080  -37.2570   24.6750 C   0  0  0  0  0  1  0  0  0  0  0  0
  -26.4600  -37.4150   23.7860 N   0  0  0  0  0  0  0  0  0  0  0  0
  -26.0540  -38.3320   23.9520 H   0  0  0  0  0  0  0  0  0  0  0  0
  1  3  2  0
  1  2  1  0
  2  5  2  0
  3  4  1  0
  4  6  2  0
  5  6  1  0
  7  9  1  0
  8  7  1  0
  8  9  1  0
  9  3  1  0
 10 12  1  0
 10 11  1  0
 11  4  1  0
 12 21  1  0
 12 11  1  0
 13 21  1  0
 14 19  1  0
 15 16  1  0
 15 14  1  0
 17 16  1  0
 17 26  1  0
 17 18  1  0
 19 13  1  0
 19 18  1  0
 20 13  2  0
 21 22  1  0
 23 24  2  0
 24 43  1  0
 25 24  1  0
 25 28  1  0
 26 27  1  0
 26 23  1  0
 27 25  2  0
 28 29  1  0
 29 30  2  0
 31 34  1  0
 31 30  1  0
 32 31  2  0
 33 32  1  0
 33 28  2  0
 34 35  1  0
 35 36  1  0
 36 37  2  0
 38 37  1  0
 38 42  1  0
 39 38  2  0
 40 35  2  0
 40 39  1  0
 41 40  1  0
 43 44  1  0
 44 47  1  0
 44 46  1  0
 45 43  2  0
 48 49  1  0
 48 23  1  0
 50 48  1  0
 51  5  1  0
 51 52  1  0
 53 64  2  0
 54 52  1  0
 54 59  1  0
 55 63  1  0
 55 65  1  0
 56 62  1  0
 56 58  1  0
 57 63  1  0
 58 57  1  0
 59 58  2  0
 60 54  2  0
 61 60  1  0
 61 56  2  0
 62 55  1  0
 63 53  1  0
 65 67  2  0
 66 65  1  0
 68 66  1  0
 69 78  2  0
 69 74  1  0
 70 66  1  0
 70 74  1  0
 71 70  1  0
 72 73  1  0
 72 71  1  0
 73 69  1  0
 74 75  2  0
 75 76  1  0
 77 76  2  0
 78 77  1  0
 79 53  1  0
 79 84  1  0
 79 80  1  0
 80 83  1  1
 80 81  1  0
 82 80  1  0
 84 87  1  0
 85 89  1  0
 85 84  1  0
 86 85  2  0
 89 88  1  0
 91 89  1  0
 91 92  1  0
 91 90  1  0
M  ISO  4  13 100  21 100  51 101  52 101
M  END
>  <TORSDO>  (6) 
F 19

>  <SCORE>  (6) 
-14.298

>  <name>  (6) 
5

>  <ligand_id>  (6) 
5

>  <original_smiles>  (6) 
[H]c1c(C([H])([H])Oc2c([H])c([H])c3c(c2[H])C([H])([H])N(C(=O)C([H])(N([H])C(=O)C([H])(N([H])C([H])([H])[H])C([H])([H])[H])C(C([H])([H])[H])(C([H])([H])[H])C([H])([H])[H])C([H])(C(=O)N([H])C2([H])c4c([H])c([H])c([H])c([H])c4C([H])([H])C([H])([H])C2([H])[H])C3([H])[H])nc(C2([H])C([H])([H])C2([H])N([H])C(=O)N2C([H])([H])C([H])([H])C([H])([H])C([H])(n3nc(-c4c([H])c([H])c(Oc5c([H])c([H])c(F)c([H])c5F)c([H])c4[H])c(C(=O)N([H])[H])c3N([H])[H])C2([H])[H])c(C2([H])C([H])([H])C2([H])[H])c1[H]

>  <smiles>  (6) 
[H]c1c(C([H])([H])Oc2c([H])c([H])c3c(c2[H])C([H])([H])N(C(=O)C([H])(N([H])C(=O)C([H])(N([H])C([H])([H])[H])C([H])([H])[H])C(C([H])([H])[H])(C([H])([H])[H])C([H])([H])[H])C([H])(C(=O)N([H])C2([H])c4c([H])c([H])c([H])c([H])c4C([H])([H])C([H])([H])C2([H])[H])C3([H])[H])nc(C2([H])C([H])([H])C2([H])N([H])C(=O)N2C([H])([H])C([H])([H])C([H])([H])C([H])(n3nc(-c4c([H])c([H])c(Oc5c([H])c([H])c(F)c([H])c5F)c([H])c4[H])c(C(=O)N([H])[H])c3N([H])[H])C2([H])[H])c(C2([H])C([H])([H])C2([H])[H])c1[H]

$$$$
6:0:0
     RDKit          3D

 92101  0  0  1  0  0  0  0  0999 V2000
  -29.5830  -22.1590   19.9140 C   0  0  0  0  0  3  0  0  0  0  0  0
  -29.3790  -20.7200   19.5760 C   0  0  0  0  0  0  0  0  0  0  0  0
  -28.6540  -23.2540   19.5000 C   0  0  0  0  0  0  0  0  0  0  0  0
  -27.4460  -21.5160   18.5240 C   0  0  0  0  0  0  0  0  0  0  0  0
  -26.1980  -21.1250   17.7620 C   0  0  0  0  0  1  0  0  0  0  0  0
  -28.2650  -20.5140   18.8380 N   0  0  0  0  0  0  0  0  0  0  0  0
  -27.5790  -22.8140   18.8140 N   0  0  0  0  0  0  0  0  0  0  0  0
  -29.9770  -19.2890   20.1680 C   0  0  0  0  0  0  0  0  0  0  0  0
  -29.1560  -19.9720   22.3050 C   0  0  0  0  0  1  0  0  0  0  0  0
  -29.8250  -19.0430   21.4190 N   0  0  0  0  0  0  0  0  0  0  0  0
  -31.2490  -15.1440   19.3840 C   0  0  0  0  0  0  0  0  0  0  0  0
  -30.8630  -12.7780   18.5270 C   0  0  0  0  0  2  0  0  0  0  0  0
  -29.8030  -12.7530   17.4050 C   0  0  0  0  0  2  0  0  0  0  0  0
  -28.3920  -12.6200   18.0010 C   0  0  0  0  0  2  0  0  0  0  0  0
  -28.1720  -13.5490   19.2230 C   0  0  0  0  0  3  0  0  0  0  0  0
  -29.3600  -13.5710   20.2140 C   0  0  0  0  0  2  0  0  0  0  0  0
  -30.5590  -13.9250   19.4480 N   0  0  0  0  0  0  0  0  0  0  0  0
  -32.3240  -15.0890   18.7720 O   0  0  0  0  0  0  0  0  0  0  0  0
  -32.1860  -18.0000   19.7040 C   0  0  0  0  0  2  0  0  0  0  0  0
  -31.9160  -16.9480   20.7890 C   0  0  0  0  0  2  0  0  0  0  0  0
  -30.6960  -17.9440   19.4080 C   0  0  0  0  0  3  0  0  0  0  0  0
  -30.8130  -16.4050   19.9480 N   0  0  0  0  0  0  0  0  0  0  0  0
  -25.9760  -14.1990   20.3600 C   0  0  0  0  0  0  0  0  0  0  0  0
  -24.9150  -13.4660   20.8070 C   0  0  0  0  0  0  0  0  0  0  0  0
  -25.2500  -12.0950   20.5760 C   0  0  0  0  0  0  0  0  0  0  0  0
  -26.8980  -13.2830   19.8830 N   0  0  0  0  0  0  0  0  0  0  0  0
  -26.4770  -12.0030   20.0720 N   0  0  0  0  0  0  0  0  0  0  0  0
  -24.4470  -10.8770   20.7520 C   0  0  0  0  0  0  0  0  0  0  0  0
  -24.8480   -9.8460   21.6300 C   0  0  0  0  0  3  0  0  0  0  0  0
  -24.0470   -8.6950   21.7970 C   0  0  0  0  0  3  0  0  0  0  0  0
  -22.8300   -8.5680   21.0870 C   0  0  0  0  0  0  0  0  0  0  0  0
  -22.4450   -9.5870   20.1970 C   0  0  0  0  0  3  0  0  0  0  0  0
  -23.2460  -10.7290   20.0280 C   0  0  0  0  0  3  0  0  0  0  0  0
  -22.0010   -7.4740   21.1660 O   0  0  0  0  0  0  0  0  0  0  0  0
  -21.8500   -6.7670   22.3320 C   0  0  0  0  0  0  0  0  0  0  0  0
  -21.3760   -7.3740   23.5160 C   0  0  0  0  0  3  0  0  0  0  0  0
  -21.1700   -6.5960   24.6720 C   0  0  0  0  0  3  0  0  0  0  0  0
  -21.4290   -5.2130   24.6470 C   0  0  0  0  0  0  0  0  0  0  0  0
  -21.8980   -4.6060   23.4690 C   0  0  0  0  0  3  0  0  0  0  0  0
  -22.1060   -5.3810   22.3150 C   0  0  0  0  0  0  0  0  0  0  0  0
  -22.5370   -4.7870   21.1760 F   0  0  0  0  0  0  0  0  0  0  0  0
  -21.2250   -4.4640   25.7570 F   0  0  0  0  0  0  0  0  0  0  0  0
  -23.6210  -14.0120   21.3340 C   0  0  0  0  0  0  0  0  0  0  0  0
  -22.9700  -13.2910   22.2390 N   0  0  0  0  0  0  0  0  0  0  0  0
  -23.2020  -15.1140   20.9770 O   0  0  0  0  0  0  0  0  0  0  0  0
  -23.3260  -12.4010   22.5560 H   0  0  0  0  0  0  0  0  0  0  0  0
  -22.1030  -13.6380   22.6260 H   0  0  0  0  0  0  0  0  0  0  0  0
  -26.2300  -15.5650   20.2940 N   0  0  0  0  0  0  0  0  0  0  0  0
  -25.5550  -16.2520   20.6090 H   0  0  0  0  0  0  0  0  0  0  0  0
  -27.0700  -15.9810   19.9110 H   0  0  0  0  0  0  0  0  0  0  0  0
  -28.8740  -24.9130   19.3680 C   0  0  0  0  0  2  0  0  0  0  0  0
  -28.3870  -26.1690   20.1880 O   0  0  0  0  0  0  0  0  0  0  0  0
  -24.5920  -31.7580   23.0460 C   0  0  0  0  0  0  0  0  0  0  0  0
  -27.3200  -27.1270   19.9890 C   0  0  0  0  0  0  0  0  0  0  0  0
  -23.4470  -30.3570   21.3670 C   0  0  0  0  0  3  0  0  0  0  0  0
  -24.9520  -28.8330   19.9270 C   0  0  0  0  0  0  0  0  0  0  0  0
  -25.9910  -30.6850   21.2340 C   0  0  0  0  0  2  0  0  0  0  0  0
  -26.1080  -29.2990   20.5660 C   0  0  0  0  0  0  0  0  0  0  0  0
  -27.2840  -28.4580   20.5840 C   0  0  0  0  0  3  0  0  0  0  0  0
  -26.1500  -26.7710   19.2890 C   0  0  0  0  0  3  0  0  0  0  0  0
  -24.9900  -27.5870   19.2710 C   0  0  0  0  0  3  0  0  0  0  0  0
  -23.7010  -29.7000   19.9810 C   0  0  0  0  0  2  0  0  0  0  0  0
  -24.6960  -30.9590   21.9390 N   0  0  0  0  0  0  0  0  0  0  0  0
  -23.4940  -32.0070   23.5690 O   0  0  0  0  0  0  0  0  0  0  0  0
  -22.7790  -29.3250   22.3100 C   0  0  0  0  0  0  0  0  0  0  0  0
  -21.4480  -29.1530   22.1930 N   0  0  0  0  0  0  0  0  0  0  0  0
  -23.4580  -28.6810   23.1120 O   0  0  0  0  0  0  0  0  0  0  0  0
  -20.9540  -29.7230   21.5220 H   0  0  0  0  0  0  0  0  0  0  0  0
  -18.0770  -27.9300   22.7000 C   0  0  0  0  0  0  0  0  0  0  0  0
  -20.6400  -28.1870   22.9420 C   0  0  0  0  0  3  0  0  0  0  0  0
  -20.7350  -26.7780   22.3100 C   0  0  0  0  0  2  0  0  0  0  0  0
  -19.6200  -26.4960   21.2970 C   0  0  0  0  0  2  0  0  0  0  0  0
  -18.2460  -26.6100   21.9650 C   0  0  0  0  0  2  0  0  0  0  0  0
  -19.2010  -28.6770   23.1440 C   0  0  0  0  0  0  0  0  0  0  0  0
  -18.9890  -29.9130   23.7910 C   0  0  0  0  0  3  0  0  0  0  0  0
  -17.6860  -30.4030   24.0000 C   0  0  0  0  0  3  0  0  0  0  0  0
  -16.5760  -29.6530   23.5710 C   0  0  0  0  0  3  0  0  0  0  0  0
  -16.7740  -28.4180   22.9290 C   0  0  0  0  0  3  0  0  0  0  0  0
  -25.8460  -32.4150   23.7010 C   0  0  0  0  0  3  0  0  0  0  0  0
  -25.4940  -33.7990   24.0610 N   0  0  0  0  0  0  0  0  0  0  0  0
  -25.8200  -34.8840   23.3440 C   0  0  0  0  0  0  0  0  0  0  0  0
  -26.5150  -34.8250   22.3270 O   0  0  0  0  0  0  0  0  0  0  0  0
  -24.8790  -33.9140   24.8530 H   0  0  0  0  0  0  0  0  0  0  0  0
  -24.0600  -36.6520   23.0100 C   0  0  0  0  0  1  0  0  0  0  0  0
  -25.2950  -36.2490   23.8320 C   0  0  0  0  0  3  0  0  0  0  0  0
  -27.3920  -37.1620   24.7240 C   0  0  0  0  0  1  0  0  0  0  0  0
  -26.3050  -37.3280   23.7650 N   0  0  0  0  0  0  0  0  0  0  0  0
  -25.8750  -38.2350   23.9240 H   0  0  0  0  0  0  0  0  0  0  0  0
  -26.3630  -31.6330   24.9730 C   0  0  1  0  0  0  0  0  0  0  0  0
  -25.2570  -31.3310   26.0110 C   0  0  0  0  0  1  0  0  0  0  0  0
  -27.0060  -30.2860   24.5670 C   0  0  0  0  0  1  0  0  0  0  0  0
  -27.4670  -32.4530   25.6800 C   0  0  0  0  0  1  0  0  0  0  0  0
  2  1  2  0
  2  8  1  0
  3  1  1  0
  4  7  1  0
  4  6  2  0
  5  4  1  0
  6  2  1  0
  7  3  2  0
  8 10  2  0
 10  9  1  0
 11 17  1  0
 11 22  1  0
 12 17  1  0
 13 14  1  0
 13 12  1  0
 15 14  1  0
 15 26  1  0
 15 16  1  0
 17 16  1  0
 18 11  2  0
 19 20  1  0
 21 19  1  0
 21 22  1  0
 21  8  1  0
 22 20  1  0
 23 24  2  0
 24 43  1  0
 25 28  1  0
 25 24  1  0
 26 27  1  0
 26 23  1  0
 27 25  2  0
 28 29  1  0
 29 30  2  0
 31 34  1  0
 31 30  1  0
 32 31  2  0
 33 32  1  0
 33 28  2  0
 34 35  1  0
 35 36  1  0
 36 37  2  0
 38 37  1  0
 38 42  1  0
 39 38  2  0
 40 35  2  0
 40 39  1  0
 41 40  1  0
 43 44  1  0
 44 46  1  0
 44 47  1  0
 45 43  2  0
 48 23  1  0
 48 49  1  0
 50 48  1  0
 51  3  1  0
 51 52  1  0
 53 64  2  0
 54 52  1  0
 54 59  1  0
 55 63  1  0
 55 65  1  0
 56 62  1  0
 56 58  1  0
 57 63  1  0
 58 59  2  0
 58 57  1  0
 60 54  2  0
 61 60  1  0
 61 56  2  0
 62 55  1  0
 63 53  1  0
 65 67  2  0
 66 65  1  0
 68 66  1  0
 69 78  2  0
 69 74  1  0
 70 66  1  0
 70 74  1  0
 71 70  1  0
 72 73  1  0
 72 71  1  0
 73 69  1  0
 74 75  2  0
 75 76  1  0
 77 76  2  0
 78 77  1  0
 79 53  1  0
 79 80  1  0
 79 89  1  0
 80 83  1  0
 81 85  1  0
 81 80  1  0
 82 81  2  0
 85 84  1  0
 87 85  1  0
 87 88  1  0
 87 86  1  0
 89 92  1  1
 89 90  1  0
 91 89  1  0
M  ISO  4  11 100  22 100  51 101  52 101
M  END
>  <TORSDO>  (7) 
F 18

>  <SCORE>  (7) 
-11.988

>  <name>  (7) 
6

>  <ligand_id>  (7) 
6

>  <original_smiles>  (7) 
[H]c1c(C(=NC([H])([H])[H])C2([H])N(C(=O)N3C([H])([H])C([H])([H])C([H])([H])C([H])(n4nc(-c5c([H])c([H])c(Oc6c([H])c([H])c(F)c([H])c6F)c([H])c5[H])c(C(=O)N([H])[H])c4N([H])[H])C3([H])[H])C([H])([H])C2([H])[H])nc(C([H])([H])[H])nc1C([H])([H])Oc1c([H])c([H])c2c(c1[H])C([H])([H])N(C(=O)C([H])(N([H])C(=O)C([H])(N([H])C([H])([H])[H])C([H])([H])[H])C(C([H])([H])[H])(C([H])([H])[H])C([H])([H])[H])C([H])(C(=O)N([H])C1([H])c3c([H])c([H])c([H])c([H])c3C([H])([H])C([H])([H])C1([H])[H])C2([H])[H]

>  <smiles>  (7) 
[H]c1c(C(=NC([H])([H])[H])C2([H])N(C(=O)N3C([H])([H])C([H])([H])C([H])([H])C([H])(n4nc(-c5c([H])c([H])c(Oc6c([H])c([H])c(F)c([H])c6F)c([H])c5[H])c(C(=O)N([H])[H])c4N([H])[H])C3([H])[H])C([H])([H])C2([H])[H])nc(C([H])([H])[H])nc1C([H])([H])Oc1c([H])c([H])c2c(c1[H])C([H])([H])N(C(=O)C([H])(N([H])C(=O)C([H])(N([H])C([H])([H])[H])C([H])([H])[H])C(C([H])([H])[H])(C([H])([H])[H])C([H])([H])[H])C([H])(C(=O)N([H])C1([H])c3c([H])c([H])c([H])c([H])c3C([H])([H])C([H])([H])C1([H])[H])C2([H])[H]

$$$$
7:0:0
     RDKit          3D

 92102  0  0  1  0  0  0  0  0999 V2000
  -30.7020  -15.0020   20.2200 C   0  0  0  0  0  0  0  0  0  0  0  0
  -30.5290  -12.6220   19.3390 C   0  0  0  0  0  2  0  0  0  0  0  0
  -29.5950  -12.5530   18.1090 C   0  0  0  0  0  2  0  0  0  0  0  0
  -28.1290  -12.3800   18.5410 C   0  0  0  0  0  2  0  0  0  0  0  0
  -27.7370  -13.3120   19.7160 C   0  0  0  0  0  3  0  0  0  0  0  0
  -28.8030  -13.3440   20.8270 C   0  0  0  0  0  2  0  0  0  0  0  0
  -30.0630  -13.7570   20.1930 N   0  0  0  0  0  0  0  0  0  0  0  0
  -31.8990  -14.9850   19.9010 O   0  0  0  0  0  0  0  0  0  0  0  0
  -28.9170  -22.4250   20.7660 C   0  0  0  0  0  3  0  0  0  0  0  0
  -28.7190  -23.1190   19.5270 C   0  0  0  0  0  0  0  0  0  0  0  0
  -28.9100  -22.1560   18.4570 C   0  0  0  0  0  0  0  0  0  0  0  0
  -29.3600  -20.2530   19.8580 C   0  0  0  0  0  0  0  0  0  0  0  0
  -30.5730  -17.3270   22.3030 C   0  0  0  0  0  2  0  0  0  0  0  0
  -31.4340  -17.9560   21.1890 C   0  0  0  0  0  2  0  0  0  0  0  0
  -28.5800  -18.1050   21.0280 C   0  0  0  0  0  2  0  0  0  0  0  0
  -29.3650  -16.8270   21.4860 C   0  0  0  0  0  3  0  0  0  0  0  0
  -30.5320  -17.7080   19.9540 C   0  0  0  0  0  3  0  0  0  0  0  0
  -28.6340  -22.5010   16.9870 C   0  0  0  0  0  1  0  0  0  0  0  0
  -29.1970  -21.0690   20.9170 N   0  0  0  0  0  0  0  0  0  0  0  0
  -29.2370  -20.8090   18.6380 N   0  0  0  0  0  0  0  0  0  0  0  0
  -29.4120  -18.7680   20.0230 N   0  0  0  0  0  0  0  0  0  0  0  0
  -30.0160  -16.2710   20.2880 N   0  0  0  0  0  0  0  0  0  0  0  0
  -25.3620  -13.9040   20.4490 C   0  0  0  0  0  0  0  0  0  0  0  0
  -24.2940  -13.1400   20.8250 C   0  0  0  0  0  0  0  0  0  0  0  0
  -24.7490  -11.7860   20.8070 C   0  0  0  0  0  0  0  0  0  0  0  0
  -26.4000  -13.0210   20.2180 N   0  0  0  0  0  0  0  0  0  0  0  0
  -26.0410  -11.7390   20.4960 N   0  0  0  0  0  0  0  0  0  0  0  0
  -24.0090  -10.5320   21.0070 C   0  0  0  0  0  0  0  0  0  0  0  0
  -24.4300   -9.5670   21.9480 C   0  0  0  0  0  3  0  0  0  0  0  0
  -23.6870   -8.3810   22.1410 C   0  0  0  0  0  3  0  0  0  0  0  0
  -22.5090   -8.1520   21.3900 C   0  0  0  0  0  0  0  0  0  0  0  0
  -22.1060   -9.1050   20.4370 C   0  0  0  0  0  3  0  0  0  0  0  0
  -22.8510  -10.2810   20.2440 C   0  0  0  0  0  3  0  0  0  0  0  0
  -21.7420   -7.0150   21.4860 O   0  0  0  0  0  0  0  0  0  0  0  0
  -21.6810   -6.2850   22.6470 C   0  0  0  0  0  0  0  0  0  0  0  0
  -21.2370   -6.8550   23.8590 C   0  0  0  0  0  3  0  0  0  0  0  0
  -21.1200   -6.0520   25.0110 C   0  0  0  0  0  3  0  0  0  0  0  0
  -21.4410   -4.6820   24.9520 C   0  0  0  0  0  0  0  0  0  0  0  0
  -21.8800   -4.1130   23.7430 C   0  0  0  0  0  3  0  0  0  0  0  0
  -21.9960   -4.9130   22.5930 C   0  0  0  0  0  0  0  0  0  0  0  0
  -22.3980   -4.3560   21.4250 F   0  0  0  0  0  0  0  0  0  0  0  0
  -21.3230   -3.9090   26.0550 F   0  0  0  0  0  0  0  0  0  0  0  0
  -22.9010  -13.6340   21.0870 C   0  0  0  0  0  0  0  0  0  0  0  0
  -22.1700  -12.9690   21.9740 N   0  0  0  0  0  0  0  0  0  0  0  0
  -22.4700  -14.6500   20.5410 O   0  0  0  0  0  0  0  0  0  0  0  0
  -22.5300  -12.1520   22.4430 H   0  0  0  0  0  0  0  0  0  0  0  0
  -21.2380  -13.2890   22.1900 H   0  0  0  0  0  0  0  0  0  0  0  0
  -25.5260  -15.2750   20.2590 N   0  0  0  0  0  0  0  0  0  0  0  0
  -24.7430  -15.9150   20.3420 H   0  0  0  0  0  0  0  0  0  0  0  0
  -26.3600  -15.7100   19.8840 H   0  0  0  0  0  0  0  0  0  0  0  0
  -27.9590  -24.6000   19.3810 C   0  0  0  0  0  2  0  0  0  0  0  0
  -28.3600  -26.0790   19.7400 O   0  0  0  0  0  0  0  0  0  0  0  0
  -24.6960  -31.6100   23.1380 C   0  0  0  0  0  0  0  0  0  0  0  0
  -27.3250  -27.1050   19.7820 C   0  0  0  0  0  0  0  0  0  0  0  0
  -23.5200  -30.3110   21.4120 C   0  0  0  0  0  3  0  0  0  0  0  0
  -24.9890  -28.8580   19.8900 C   0  0  0  0  0  0  0  0  0  0  0  0
  -26.0790  -30.6020   21.2770 C   0  0  0  0  0  2  0  0  0  0  0  0
  -26.1690  -29.2550   20.5340 C   0  0  0  0  0  0  0  0  0  0  0  0
  -27.3370  -28.3940   20.4700 C   0  0  0  0  0  3  0  0  0  0  0  0
  -26.1050  -26.8320   19.1180 C   0  0  0  0  0  3  0  0  0  0  0  0
  -24.9730  -27.6620   19.1720 C   0  0  0  0  0  3  0  0  0  0  0  0
  -23.7550  -29.7400   19.9900 C   0  0  0  0  0  2  0  0  0  0  0  0
  -24.7860  -30.8590   21.9980 N   0  0  0  0  0  0  0  0  0  0  0  0
  -23.6020  -31.8430   23.6760 O   0  0  0  0  0  0  0  0  0  0  0  0
  -22.8530  -29.2290   22.2990 C   0  0  0  0  0  0  0  0  0  0  0  0
  -21.5230  -29.0710   22.1750 N   0  0  0  0  0  0  0  0  0  0  0  0
  -23.5340  -28.5410   23.0620 O   0  0  0  0  0  0  0  0  0  0  0  0
  -21.0260  -29.6840   21.5420 H   0  0  0  0  0  0  0  0  0  0  0  0
  -18.1400  -27.8530   22.6500 C   0  0  0  0  0  0  0  0  0  0  0  0
  -20.7060  -28.0770   22.8770 C   0  0  0  0  0  3  0  0  0  0  0  0
  -20.7870  -26.6990   22.1830 C   0  0  0  0  0  2  0  0  0  0  0  0
  -19.6560  -26.4640   21.1750 C   0  0  0  0  0  2  0  0  0  0  0  0
  -18.2920  -26.5620   21.8650 C   0  0  0  0  0  2  0  0  0  0  0  0
  -19.2730  -28.5720   23.1120 C   0  0  0  0  0  0  0  0  0  0  0  0
  -19.0760  -29.7790   23.8160 C   0  0  0  0  0  3  0  0  0  0  0  0
  -17.7800  -30.2720   24.0560 C   0  0  0  0  0  3  0  0  0  0  0  0
  -16.6600  -29.5490   23.6080 C   0  0  0  0  0  3  0  0  0  0  0  0
  -16.8410  -28.3400   22.9110 C   0  0  0  0  0  3  0  0  0  0  0  0
  -25.9590  -32.2240   23.8100 C   0  0  0  0  0  3  0  0  0  0  0  0
  -25.6270  -33.5950   24.2290 N   0  0  0  0  0  0  0  0  0  0  0  0
  -25.9260  -34.7010   23.5340 C   0  0  0  0  0  0  0  0  0  0  0  0
  -26.5800  -34.6760   22.4880 O   0  0  0  0  0  0  0  0  0  0  0  0
  -25.0540  -33.6870   25.0540 H   0  0  0  0  0  0  0  0  0  0  0  0
  -24.1530  -36.4760   23.3280 C   0  0  0  0  0  1  0  0  0  0  0  0
  -25.4200  -36.0500   24.0850 C   0  0  0  0  0  3  0  0  0  0  0  0
  -27.5510  -36.9320   24.9300 C   0  0  0  0  0  1  0  0  0  0  0  0
  -26.4290  -37.1300   24.0160 N   0  0  0  0  0  0  0  0  0  0  0  0
  -26.0060  -38.0320   24.2220 H   0  0  0  0  0  0  0  0  0  0  0  0
  -26.4700  -31.3860   25.0450 C   0  0  1  0  0  0  0  0  0  0  0  0
  -25.3700  -31.0790   26.0880 C   0  0  0  0  0  1  0  0  0  0  0  0
  -27.0690  -30.0370   24.5840 C   0  0  0  0  0  1  0  0  0  0  0  0
  -27.6100  -32.1460   25.7640 C   0  0  0  0  0  1  0  0  0  0  0  0
  1 22  1  0
  2  7  1  0
  3  4  1  0
  3  2  1  0
  5  4  1  0
  5 26  1  0
  5  6  1  0
  7  1  1  0
  7  6  1  0
  8  1  2  0
  9 19  1  0
 10  9  2  0
 11 20  2  0
 11 10  1  0
 12 21  1  0
 12 19  2  0
 14 13  1  0
 16 15  1  0
 16 13  1  0
 17 21  1  0
 17 22  1  0
 17 14  1  0
 18 11  1  0
 20 12  1  0
 21 15  1  0
 22 16  1  0
 23 24  2  0
 24 43  1  0
 25 24  1  0
 25 28  1  0
 26 23  1  0
 26 27  1  0
 27 25  2  0
 28 29  1  0
 29 30  2  0
 31 34  1  0
 31 30  1  0
 32 31  2  0
 33 32  1  0
 33 28  2  0
 34 35  1  0
 35 36  1  0
 36 37  2  0
 38 37  1  0
 38 42  1  0
 39 38  2  0
 40 35  2  0
 40 39  1  0
 41 40  1  0
 43 44  1  0
 44 47  1  0
 44 46  1  0
 45 43  2  0
 48 49  1  0
 48 23  1  0
 50 48  1  0
 51 10  1  0
 51 52  1  0
 52 54  1  0
 53 64  2  0
 54 59  1  0
 55 63  1  0
 55 65  1  0
 56 62  1  0
 56 58  1  0
 57 63  1  0
 58 57  1  0
 59 58  2  0
 60 61  1  0
 60 54  2  0
 61 56  2  0
 62 55  1  0
 63 53  1  0
 65 67  2  0
 66 65  1  0
 68 66  1  0
 69 78  2  0
 69 74  1  0
 70 66  1  0
 70 74  1  0
 71 70  1  0
 72 73  1  0
 72 71  1  0
 73 69  1  0
 74 75  2  0
 75 76  1  0
 77 76  2  0
 78 77  1  0
 79 53  1  0
 79 80  1  0
 79 89  1  0
 80 83  1  0
 81 85  1  0
 81 80  1  0
 82 81  2  0
 85 84  1  0
 87 85  1  0
 87 88  1  0
 87 86  1  0
 89 92  1  1
 89 90  1  0
 91 89  1  0
M  ISO  4   1 100  22 100  51 101  52 101
M  END
>  <TORSDO>  (8) 
F 16

>  <SCORE>  (8) 
-14.642

>  <name>  (8) 
7

>  <ligand_id>  (8) 
7

>  <original_smiles>  (8) 
[H]c1nc(N2C([H])([H])C3([H])N(C(=O)N4C([H])([H])C([H])([H])C([H])([H])C([H])(n5nc(-c6c([H])c([H])c(Oc7c([H])c([H])c(F)c([H])c7F)c([H])c6[H])c(C(=O)N([H])[H])c5N([H])[H])C4([H])[H])C2([H])C([H])([H])C3([H])[H])nc(C([H])([H])[H])c1C([H])([H])Oc1c([H])c([H])c2c(c1[H])C([H])([H])N(C(=O)C([H])(N([H])C(=O)C([H])(N([H])C([H])([H])[H])C([H])([H])[H])C(C([H])([H])[H])(C([H])([H])[H])C([H])([H])[H])C([H])(C(=O)N([H])C1([H])c3c([H])c([H])c([H])c([H])c3C([H])([H])C([H])([H])C1([H])[H])C2([H])[H]

>  <smiles>  (8) 
[H]c1nc(N2C([H])([H])C3([H])N(C(=O)N4C([H])([H])C([H])([H])C([H])([H])C([H])(n5nc(-c6c([H])c([H])c(Oc7c([H])c([H])c(F)c([H])c7F)c([H])c6[H])c(C(=O)N([H])[H])c5N([H])[H])C4([H])[H])C2([H])C([H])([H])C3([H])[H])nc(C([H])([H])[H])c1C([H])([H])Oc1c([H])c([H])c2c(c1[H])C([H])([H])N(C(=O)C([H])(N([H])C(=O)C([H])(N([H])C([H])([H])[H])C([H])([H])[H])C(C([H])([H])[H])(C([H])([H])[H])C([H])([H])[H])C([H])(C(=O)N([H])C1([H])c3c([H])c([H])c([H])c([H])c3C([H])([H])C([H])([H])C1([H])[H])C2([H])[H]

$$$$
8:0:0
     RDKit          3D

 89 98  0  0  1  0  0  0  0  0999 V2000
  -29.1080  -23.6600   21.0670 C   0  0  0  0  0  2  0  0  0  0  0  0
  -28.0720  -23.5110   19.3230 C   0  0  0  0  0  2  0  0  0  0  0  0
  -28.4680  -22.3620   20.3790 C   0  0  0  0  0  3  0  0  0  0  0  0
  -28.0330  -24.6740   20.4310 C   0  0  0  0  0  3  0  0  0  0  0  0
  -30.4830  -15.0670   20.0520 C   0  0  0  0  0  0  0  0  0  0  0  0
  -30.4010  -12.7130   19.0840 C   0  0  0  0  0  2  0  0  0  0  0  0
  -29.4110  -12.6670   17.8940 C   0  0  0  0  0  2  0  0  0  0  0  0
  -27.9680  -12.4330   18.3840 C   0  0  0  0  0  2  0  0  0  0  0  0
  -27.6030  -13.3310   19.5930 C   0  0  0  0  0  3  0  0  0  0  0  0
  -28.7060  -13.3240   20.6720 C   0  0  0  0  0  2  0  0  0  0  0  0
  -29.9450  -13.7780   20.0230 N   0  0  0  0  0  0  0  0  0  0  0  0
  -31.6680  -15.1840   19.7110 O   0  0  0  0  0  0  0  0  0  0  0  0
  -27.9160  -19.7040   20.4050 C   0  0  0  0  0  3  0  0  0  0  0  0
  -28.2080  -18.2860   20.4000 C   0  0  0  0  0  3  0  0  0  0  0  0
  -30.1800  -20.0960   20.0820 C   0  0  0  0  0  3  0  0  0  0  0  0
  -28.8940  -20.7390   20.2550 C   0  0  0  0  0  0  0  0  0  0  0  0
  -29.5080  -17.7140   20.2300 C   0  0  0  0  0  0  0  0  0  0  0  0
  -30.4620  -18.7080   20.0650 N   0  0  0  0  0  0  0  0  0  0  0  0
  -29.6050  -16.1690   20.2880 N   0  0  0  0  0  0  0  0  0  0  0  0
  -28.7090  -15.7800   20.5320 H   0  0  0  0  0  0  0  0  0  0  0  0
  -25.2530  -13.8840   20.4420 C   0  0  0  0  0  0  0  0  0  0  0  0
  -24.2100  -13.0970   20.8470 C   0  0  0  0  0  0  0  0  0  0  0  0
  -24.6790  -11.7490   20.7690 C   0  0  0  0  0  0  0  0  0  0  0  0
  -26.2890  -13.0160   20.1410 N   0  0  0  0  0  0  0  0  0  0  0  0
  -25.9560  -11.7250   20.4020 N   0  0  0  0  0  0  0  0  0  0  0  0
  -23.9670  -10.4790   20.9650 C   0  0  0  0  0  0  0  0  0  0  0  0
  -24.4160   -9.5160   21.8940 C   0  0  0  0  0  3  0  0  0  0  0  0
  -23.7020   -8.3110   22.0780 C   0  0  0  0  0  3  0  0  0  0  0  0
  -22.5260   -8.0620   21.3320 C   0  0  0  0  0  0  0  0  0  0  0  0
  -22.0960   -9.0150   20.3920 C   0  0  0  0  0  3  0  0  0  0  0  0
  -22.8100  -10.2110   20.2060 C   0  0  0  0  0  3  0  0  0  0  0  0
  -21.7840   -6.9100   21.4250 O   0  0  0  0  0  0  0  0  0  0  0  0
  -21.7110   -6.1930   22.5940 C   0  0  0  0  0  0  0  0  0  0  0  0
  -21.2380   -6.7710   23.7920 C   0  0  0  0  0  3  0  0  0  0  0  0
  -21.1130   -5.9800   24.9520 C   0  0  0  0  0  3  0  0  0  0  0  0
  -21.4500   -4.6130   24.9140 C   0  0  0  0  0  0  0  0  0  0  0  0
  -21.9160   -4.0360   23.7200 C   0  0  0  0  0  3  0  0  0  0  0  0
  -22.0420   -4.8240   22.5620 C   0  0  0  0  0  0  0  0  0  0  0  0
  -22.4710   -4.2580   21.4080 F   0  0  0  0  0  0  0  0  0  0  0  0
  -21.3220   -3.8520   26.0260 F   0  0  0  0  0  0  0  0  0  0  0  0
  -22.8230  -13.5610   21.1830 C   0  0  0  0  0  0  0  0  0  0  0  0
  -22.1340  -12.8480   22.0660 N   0  0  0  0  0  0  0  0  0  0  0  0
  -22.3600  -14.5920   20.6970 O   0  0  0  0  0  0  0  0  0  0  0  0
  -22.5220  -12.0130   22.4810 H   0  0  0  0  0  0  0  0  0  0  0  0
  -21.2060  -13.1430   22.3350 H   0  0  0  0  0  0  0  0  0  0  0  0
  -25.3970  -15.2580   20.2750 N   0  0  0  0  0  0  0  0  0  0  0  0
  -24.6060  -15.8830   20.3900 H   0  0  0  0  0  0  0  0  0  0  0  0
  -26.1600  -15.6820   19.7650 H   0  0  0  0  0  0  0  0  0  0  0  0
  -28.2750  -26.2150   20.2480 O   0  0  0  0  0  0  0  0  0  0  0  0
  -24.6490  -31.9210   23.2470 C   0  0  0  0  0  0  0  0  0  0  0  0
  -27.2090  -27.1900   20.2160 C   0  0  0  0  0  0  0  0  0  0  0  0
  -23.4400  -30.5260   21.6130 C   0  0  0  0  0  3  0  0  0  0  0  0
  -24.8800  -28.9410   20.1880 C   0  0  0  0  0  0  0  0  0  0  0  0
  -25.9940  -30.7850   21.4380 C   0  0  0  0  0  2  0  0  0  0  0  0
  -26.0640  -29.3910   20.7870 C   0  0  0  0  0  0  0  0  0  0  0  0
  -27.2300  -28.5340   20.7770 C   0  0  0  0  0  3  0  0  0  0  0  0
  -25.9980  -26.8390   19.5860 C   0  0  0  0  0  3  0  0  0  0  0  0
  -24.8610  -27.6800   19.5690 C   0  0  0  0  0  3  0  0  0  0  0  0
  -23.6550  -29.8430   20.2360 C   0  0  0  0  0  2  0  0  0  0  0  0
  -24.7140  -31.1000   22.1540 N   0  0  0  0  0  0  0  0  0  0  0  0
  -23.5650  -32.2070   23.7800 O   0  0  0  0  0  0  0  0  0  0  0  0
  -22.7620  -29.5220   22.5810 C   0  0  0  0  0  0  0  0  0  0  0  0
  -21.4350  -29.3450   22.4510 N   0  0  0  0  0  0  0  0  0  0  0  0
  -23.4330  -28.9050   23.4110 O   0  0  0  0  0  0  0  0  0  0  0  0
  -20.9480  -29.8950   21.7560 H   0  0  0  0  0  0  0  0  0  0  0  0
  -18.0580  -28.1320   22.9500 C   0  0  0  0  0  0  0  0  0  0  0  0
  -20.6140  -28.4090   23.2240 C   0  0  0  0  0  3  0  0  0  0  0  0
  -20.7250  -26.9740   22.6590 C   0  0  0  0  0  2  0  0  0  0  0  0
  -19.6280  -26.6390   21.6430 C   0  0  0  0  0  2  0  0  0  0  0  0
  -18.2430  -26.7800   22.2810 C   0  0  0  0  0  2  0  0  0  0  0  0
  -19.1710  -28.9030   23.3780 C   0  0  0  0  0  0  0  0  0  0  0  0
  -18.9410  -30.1660   23.9660 C   0  0  0  0  0  3  0  0  0  0  0  0
  -17.6330  -30.6590   24.1290 C   0  0  0  0  0  3  0  0  0  0  0  0
  -16.5350  -29.8850   23.7150 C   0  0  0  0  0  3  0  0  0  0  0  0
  -16.7470  -28.6230   23.1310 C   0  0  0  0  0  3  0  0  0  0  0  0
  -25.9290  -32.5560   23.8710 C   0  0  0  0  0  3  0  0  0  0  0  0
  -26.4470  -31.7820   25.1470 C   0  0  1  0  0  0  0  0  0  0  0  0
  -25.3560  -31.5460   26.2180 C   0  0  0  0  0  1  0  0  0  0  0  0
  -27.0270  -30.4020   24.7570 C   0  0  0  0  0  1  0  0  0  0  0  0
  -27.6000  -32.5750   25.8070 C   0  0  0  0  0  1  0  0  0  0  0  0
  -25.6160  -33.9520   24.2120 N   0  0  0  0  0  0  0  0  0  0  0  0
  -25.9200  -35.0130   23.4510 C   0  0  0  0  0  0  0  0  0  0  0  0
  -26.5580  -34.9170   22.4000 O   0  0  0  0  0  0  0  0  0  0  0  0
  -25.0450  -34.0990   25.0310 H   0  0  0  0  0  0  0  0  0  0  0  0
  -24.1600  -36.7910   23.1810 C   0  0  0  0  0  1  0  0  0  0  0  0
  -25.4420  -36.3980   23.9310 C   0  0  0  0  0  3  0  0  0  0  0  0
  -27.6040  -37.3090   24.6590 C   0  0  0  0  0  1  0  0  0  0  0  0
  -26.4580  -37.4610   23.7670 N   0  0  0  0  0  0  0  0  0  0  0  0
  -26.0500  -38.3770   23.9280 H   0  0  0  0  0  0  0  0  0  0  0  0
  2  3  1  0
  2  4  1  0
  3 16  1  0
  3  1  1  0
  4 49  1  0
  4  1  1  0
  5 19  1  0
  6 11  1  0
  7  8  1  0
  7  6  1  0
  9  8  1  0
  9 24  1  0
  9 10  1  0
 11  5  1  0
 11 10  1  0
 12  5  2  0
 14 13  1  0
 15 16  1  0
 16 13  2  0
 17 19  1  0
 17 14  2  0
 18 15  2  0
 18 17  1  0
 19 20  1  0
 21 22  2  0
 22 41  1  0
 23 22  1  0
 23 26  1  0
 24 25  1  0
 24 21  1  0
 25 23  2  0
 26 27  1  0
 27 28  2  0
 29 32  1  0
 29 28  1  0
 30 29  2  0
 31 30  1  0
 31 26  2  0
 32 33  1  0
 33 34  1  0
 34 35  2  0
 36 35  1  0
 36 40  1  0
 37 36  2  0
 38 33  2  0
 38 37  1  0
 39 38  1  0
 41 42  1  0
 42 45  1  0
 42 44  1  0
 43 41  2  0
 46 47  1  0
 46 21  1  0
 48 46  1  0
 50 61  2  0
 51 49  1  0
 51 56  1  0
 52 60  1  0
 52 62  1  0
 53 59  1  0
 53 55  1  0
 54 60  1  0
 55 54  1  0
 56 55  2  0
 57 51  2  0
 58 57  1  0
 58 53  2  0
 59 52  1  0
 60 50  1  0
 62 64  2  0
 63 62  1  0
 65 63  1  0
 66 75  2  0
 66 71  1  0
 67 63  1  0
 67 71  1  0
 68 67  1  0
 69 70  1  0
 69 68  1  0
 70 66  1  0
 71 72  2  0
 72 73  1  0
 74 73  2  0
 75 74  1  0
 76 50  1  0
 76 81  1  0
 76 77  1  0
 77 80  1  1
 77 78  1  0
 79 77  1  0
 81 84  1  0
 82 86  1  0
 82 81  1  0
 83 82  2  0
 86 85  1  0
 88 89  1  0
 88 86  1  0
 88 87  1  0
M  ISO  4   4 101   5 100  19 100  49 101
M  END
>  <TORSDO>  (9) 
F 16

>  <SCORE>  (9) 
-15.477

>  <name>  (9) 
8

>  <ligand_id>  (9) 
8

>  <original_smiles>  (9) 
[H]c1nc(N([H])C(=O)N2C([H])([H])C([H])([H])C([H])([H])C([H])(n3nc(-c4c([H])c([H])c(Oc5c([H])c([H])c(F)c([H])c5F)c([H])c4[H])c(C(=O)N([H])[H])c3N([H])[H])C2([H])[H])c([H])c([H])c1C1([H])C([H])([H])C([H])(Oc2c([H])c([H])c3c(c2[H])C([H])([H])N(C(=O)C([H])(N([H])C(=O)C([H])(N([H])C([H])([H])[H])C([H])([H])[H])C(C([H])([H])[H])(C([H])([H])[H])C([H])([H])[H])C([H])(C(=O)N([H])C2([H])c4c([H])c([H])c([H])c([H])c4C([H])([H])C([H])([H])C2([H])[H])C3([H])[H])C1([H])[H]

>  <smiles>  (9) 
[H]c1nc(N([H])C(=O)N2C([H])([H])C([H])([H])C([H])([H])C([H])(n3nc(-c4c([H])c([H])c(Oc5c([H])c([H])c(F)c([H])c5F)c([H])c4[H])c(C(=O)N([H])[H])c3N([H])[H])C2([H])[H])c([H])c([H])c1C1([H])C([H])([H])C([H])(Oc2c([H])c([H])c3c(c2[H])C([H])([H])N(C(=O)C([H])(N([H])C(=O)C([H])(N([H])C([H])([H])[H])C([H])([H])[H])C(C([H])([H])[H])(C([H])([H])[H])C([H])([H])[H])C([H])(C(=O)N([H])C2([H])c4c([H])c([H])c([H])c([H])c4C([H])([H])C([H])([H])C2([H])[H])C3([H])[H])C1([H])[H]

$$$$
9:0:0
     RDKit          3D

 89 98  0  0  1  0  0  0  0  0999 V2000
  -31.0890  -22.4950   20.8660 C   0  0  0  0  0  0  0  0  0  0  0  0
  -29.1010  -22.8200   20.1790 C   0  0  0  0  0  0  0  0  0  0  0  0
  -32.4680  -22.8090   21.3550 C   0  0  0  0  0  1  0  0  0  0  0  0
  -30.1830  -23.4670   20.6270 N   0  0  0  0  0  0  0  0  0  0  0  0
  -30.7060  -21.2460   20.6380 N   0  0  0  0  0  2  0  0  0  0  0  0
  -29.4210  -21.3090   20.1730 N   0  0  0  0  0  0  0  0  0  0  0  0
  -30.3750  -15.4090   19.8650 C   0  0  0  0  0  0  0  0  0  0  0  0
  -30.3100  -12.9340   19.0020 C   0  0  0  0  0  2  0  0  0  0  0  0
  -29.3300  -12.6520   17.8330 C   0  0  0  0  0  2  0  0  0  0  0  0
  -27.9230  -12.3460   18.3720 C   0  0  0  0  0  2  0  0  0  0  0  0
  -27.5140  -13.3120   19.5100 C   0  0  0  0  0  3  0  0  0  0  0  0
  -28.6280  -13.5330   20.5580 C   0  0  0  0  0  2  0  0  0  0  0  0
  -29.7830  -14.0950   19.8300 N   0  0  0  0  0  0  0  0  0  0  0  0
  -31.5750  -15.3390   19.5580 O   0  0  0  0  0  0  0  0  0  0  0  0
  -28.3480  -18.7780   20.9530 C   0  0  0  0  0  2  0  0  0  0  0  0
  -28.4320  -17.1910   20.6100 C   0  0  0  0  0  2  0  0  0  0  0  0
  -30.1340  -18.3170   19.6230 C   0  0  0  0  0  2  0  0  0  0  0  0
  -29.0390  -19.6670   19.8670 C   0  0  0  0  0  3  0  0  0  0  0  0
  -29.7080  -16.7750   19.9580 N   0  0  0  0  0  0  0  0  0  0  0  0
  -25.2060  -13.8200   20.4540 C   0  0  0  0  0  0  0  0  0  0  0  0
  -24.1740  -13.0240   20.8670 C   0  0  0  0  0  0  0  0  0  0  0  0
  -24.6410  -11.6790   20.7550 C   0  0  0  0  0  0  0  0  0  0  0  0
  -26.2320  -12.9610   20.1060 N   0  0  0  0  0  0  0  0  0  0  0  0
  -25.9100  -11.6630   20.3560 N   0  0  0  0  0  0  0  0  0  0  0  0
  -23.9290  -10.4100   20.9510 C   0  0  0  0  0  0  0  0  0  0  0  0
  -24.3750   -9.4450   21.8810 C   0  0  0  0  0  3  0  0  0  0  0  0
  -23.6590   -8.2430   22.0650 C   0  0  0  0  0  3  0  0  0  0  0  0
  -22.4840   -7.9960   21.3190 C   0  0  0  0  0  0  0  0  0  0  0  0
  -22.0550   -8.9480   20.3790 C   0  0  0  0  0  3  0  0  0  0  0  0
  -22.7720  -10.1420   20.1930 C   0  0  0  0  0  3  0  0  0  0  0  0
  -21.7420   -6.8440   21.4120 O   0  0  0  0  0  0  0  0  0  0  0  0
  -21.6480   -6.1410   22.5870 C   0  0  0  0  0  0  0  0  0  0  0  0
  -21.1300   -6.7260   23.7630 C   0  0  0  0  0  3  0  0  0  0  0  0
  -20.9810   -5.9480   24.9280 C   0  0  0  0  0  3  0  0  0  0  0  0
  -21.3410   -4.5880   24.9210 C   0  0  0  0  0  0  0  0  0  0  0  0
  -21.8530   -4.0030   23.7500 C   0  0  0  0  0  3  0  0  0  0  0  0
  -22.0020   -4.7770   22.5850 C   0  0  0  0  0  0  0  0  0  0  0  0
  -22.4750   -4.2020   21.4530 F   0  0  0  0  0  0  0  0  0  0  0  0
  -21.1940   -3.8400   26.0390 F   0  0  0  0  0  0  0  0  0  0  0  0
  -22.7970  -13.4900   21.2440 C   0  0  0  0  0  0  0  0  0  0  0  0
  -22.1280  -12.7700   22.1350 N   0  0  0  0  0  0  0  0  0  0  0  0
  -22.3300  -14.5310   20.7860 O   0  0  0  0  0  0  0  0  0  0  0  0
  -22.5170  -11.9240   22.5280 H   0  0  0  0  0  0  0  0  0  0  0  0
  -21.2110  -13.0720   22.4330 H   0  0  0  0  0  0  0  0  0  0  0  0
  -25.3460  -15.1960   20.3140 N   0  0  0  0  0  0  0  0  0  0  0  0
  -24.5850  -15.8330   20.5250 H   0  0  0  0  0  0  0  0  0  0  0  0
  -26.1610  -15.6600   19.9400 H   0  0  0  0  0  0  0  0  0  0  0  0
  -27.9280  -24.0870   19.8440 C   0  0  0  0  0  3  0  0  0  0  0  0
  -28.1600  -25.7400   20.1000 O   0  0  0  0  0  0  0  0  0  0  0  0
  -24.6250  -31.7620   23.1500 C   0  0  0  0  0  0  0  0  0  0  0  0
  -27.1660  -26.8770   20.0490 C   0  0  0  0  0  0  0  0  0  0  0  0
  -23.4380  -30.4080   21.4740 C   0  0  0  0  0  3  0  0  0  0  0  0
  -24.8880  -28.8160   20.0280 C   0  0  0  0  0  0  0  0  0  0  0  0
  -26.0110  -30.5850   21.3590 C   0  0  0  0  0  2  0  0  0  0  0  0
  -26.0740  -29.1850   20.6710 C   0  0  0  0  0  0  0  0  0  0  0  0
  -27.2060  -28.2380   20.6560 C   0  0  0  0  0  3  0  0  0  0  0  0
  -25.9480  -26.6770   19.3580 C   0  0  0  0  0  3  0  0  0  0  0  0
  -24.8530  -27.5850   19.3500 C   0  0  0  0  0  3  0  0  0  0  0  0
  -23.6770  -29.7520   20.0850 C   0  0  0  0  0  2  0  0  0  0  0  0
  -24.7130  -30.9470   22.0460 N   0  0  0  0  0  0  0  0  0  0  0  0
  -23.5310  -32.0490   23.6670 O   0  0  0  0  0  0  0  0  0  0  0  0
  -22.7240  -29.4000   22.4140 C   0  0  0  0  0  0  0  0  0  0  0  0
  -21.3920  -29.2460   22.2740 N   0  0  0  0  0  0  0  0  0  0  0  0
  -23.3780  -28.7570   23.2390 O   0  0  0  0  0  0  0  0  0  0  0  0
  -20.9180  -29.8170   21.5890 H   0  0  0  0  0  0  0  0  0  0  0  0
  -18.0020  -28.0400   22.7360 C   0  0  0  0  0  0  0  0  0  0  0  0
  -20.5600  -28.2940   23.0200 C   0  0  0  0  0  3  0  0  0  0  0  0
  -20.6610  -26.8740   22.4170 C   0  0  0  0  0  2  0  0  0  0  0  0
  -19.5640  -26.5760   21.3890 C   0  0  0  0  0  2  0  0  0  0  0  0
  -18.1800  -26.7070   22.0270 C   0  0  0  0  0  2  0  0  0  0  0  0
  -19.1170  -28.7920   23.1880 C   0  0  0  0  0  0  0  0  0  0  0  0
  -18.8920  -30.0380   23.8140 C   0  0  0  0  0  3  0  0  0  0  0  0
  -17.5860  -30.5310   23.9870 C   0  0  0  0  0  3  0  0  0  0  0  0
  -16.4840  -29.7760   23.5480 C   0  0  0  0  0  3  0  0  0  0  0  0
  -16.6940  -28.5310   22.9300 C   0  0  0  0  0  3  0  0  0  0  0  0
  -25.8910  -32.3860   23.8080 C   0  0  0  0  0  3  0  0  0  0  0  0
  -25.5890  -33.7920   24.1390 N   0  0  0  0  0  0  0  0  0  0  0  0
  -25.9150  -34.8470   23.3820 C   0  0  0  0  0  0  0  0  0  0  0  0
  -26.5650  -34.7410   22.3390 O   0  0  0  0  0  0  0  0  0  0  0  0
  -25.0090  -33.9480   24.9510 H   0  0  0  0  0  0  0  0  0  0  0  0
  -24.1780  -36.6510   23.1040 C   0  0  0  0  0  1  0  0  0  0  0  0
  -25.4540  -36.2410   23.8580 C   0  0  0  0  0  3  0  0  0  0  0  0
  -27.6150  -37.1440   24.5970 C   0  0  0  0  0  1  0  0  0  0  0  0
  -26.4820  -37.2910   23.6880 N   0  0  0  0  0  0  0  0  0  0  0  0
  -26.0800  -38.2140   23.8280 H   0  0  0  0  0  0  0  0  0  0  0  0
  -26.3580  -31.6170   25.1050 C   0  0  1  0  0  0  0  0  0  0  0  0
  -25.2310  -31.4050   26.1430 C   0  0  0  0  0  1  0  0  0  0  0  0
  -26.9320  -30.2270   24.7470 C   0  0  0  0  0  1  0  0  0  0  0  0
  -27.5030  -32.3980   25.7940 C   0  0  0  0  0  1  0  0  0  0  0  0
  1  3  1  0
  2  4  1  0
  4  1  2  0
  5  1  1  0
  6  2  1  0
  6  5  1  0
  7 19  1  0
  8 13  1  0
  9 10  1  0
  9  8  1  0
 11 10  1  0
 11 23  1  0
 11 12  1  0
 13  7  1  0
 13 12  1  0
 14  7  2  0
 16 15  1  0
 17 19  1  0
 18 17  1  0
 18  6  1  0
 18 15  1  0
 19 16  1  0
 20 21  2  0
 21 40  1  0
 22 21  1  0
 22 25  1  0
 23 24  1  0
 23 20  1  0
 24 22  2  0
 25 26  1  0
 26 27  2  0
 28 31  1  0
 28 27  1  0
 29 28  2  0
 30 29  1  0
 30 25  2  0
 31 32  1  0
 32 33  1  0
 33 34  2  0
 35 34  1  0
 35 39  1  0
 36 35  2  0
 37 32  2  0
 37 36  1  0
 38 37  1  0
 40 41  1  0
 41 44  1  0
 41 43  1  0
 42 40  2  0
 45 20  1  0
 45 46  1  0
 47 45  1  0
 48 49  1  0
 48  2  2  0
 50 61  2  0
 51 49  1  0
 51 56  1  0
 52 60  1  0
 52 62  1  0
 53 59  1  0
 53 55  1  0
 54 60  1  0
 55 54  1  0
 56 55  2  0
 57 51  2  0
 58 57  1  0
 58 53  2  0
 59 52  1  0
 60 50  1  0
 62 64  2  0
 63 62  1  0
 65 63  1  0
 66 75  2  0
 66 71  1  0
 67 63  1  0
 67 71  1  0
 68 67  1  0
 69 70  1  0
 69 68  1  0
 70 66  1  0
 71 72  2  0
 72 73  1  0
 74 73  2  0
 75 74  1  0
 76 50  1  0
 76 77  1  0
 76 86  1  0
 77 80  1  0
 78 82  1  0
 78 77  1  0
 79 78  2  0
 82 81  1  0
 84 85  1  0
 84 82  1  0
 84 83  1  0
 86 89  1  1
 86 87  1  0
 88 86  1  0
M  ISO  4   7 100  19 100  48 101  49 101
M  END
>  <TORSDO>  (10) 
F 17

>  <SCORE>  (10) 
-15.180

>  <name>  (10) 
9

>  <ligand_id>  (10) 
9

>  <original_smiles>  (10) 
[H]c1c([H])c([H])c2c(c1[H])C([H])([H])C([H])([H])C([H])([H])C2([H])N([H])C(=O)C1([H])N(C(=O)C([H])(N([H])C(=O)C([H])(N([H])C([H])([H])[H])C([H])([H])[H])C(C([H])([H])[H])(C([H])([H])[H])C([H])([H])[H])C([H])([H])c2c([H])c(OC([H])([H])c3nc(C([H])([H])[H])nn3C3([H])C([H])([H])N(C(=O)N4C([H])([H])C([H])([H])C([H])([H])C([H])(n5nc(-c6c([H])c([H])c(Oc7c([H])c([H])c(F)c([H])c7F)c([H])c6[H])c(C(=O)N([H])[H])c5N([H])[H])C4([H])[H])C([H])([H])C3([H])[H])c([H])c([H])c2C1([H])[H]

>  <smiles>  (10) 
[H]c1c([H])c([H])c2c(c1[H])C([H])([H])C([H])([H])C([H])([H])C2([H])N([H])C(=O)C1([H])N(C(=O)C([H])(N([H])C(=O)C([H])(N([H])C([H])([H])[H])C([H])([H])[H])C(C([H])([H])[H])(C([H])([H])[H])C([H])([H])[H])C([H])([H])c2c([H])c(OC([H])([H])c3nc(C([H])([H])[H])nn3C3([H])C([H])([H])N(C(=O)N4C([H])([H])C([H])([H])C([H])([H])C([H])(n5nc(-c6c([H])c([H])c(Oc7c([H])c([H])c(F)c([H])c7F)c([H])c6[H])c(C(=O)N([H])[H])c5N([H])[H])C4([H])[H])C([H])([H])C3([H])[H])c([H])c([H])c2C1([H])[H]

$$$$
10:0:0
     RDKit          3D

 92101  0  0  1  0  0  0  0  0999 V2000
  -30.2060  -24.0870   21.1280 C   0  0  0  0  0  3  0  0  0  0  0  0
  -29.0510  -23.7510   20.3970 C   0  0  0  0  0  0  0  0  0  0  0  0
  -29.8390  -21.4550   20.3030 C   0  0  0  0  0  0  0  0  0  0  0  0
  -31.0150  -21.9020   20.9770 C   0  0  0  0  0  0  0  0  0  0  0  0
  -31.1630  -23.1770   21.4230 N   0  0  0  0  0  0  0  0  0  0  0  0
  -28.8630  -22.4150   20.0170 N   0  0  0  0  0  0  0  0  0  0  0  0
  -33.4860  -21.5500   20.4420 C   0  0  0  0  0  1  0  0  0  0  0  0
  -32.2500  -21.0340   21.1950 C   0  0  0  0  0  2  0  0  0  0  0  0
  -29.7740  -19.9900   19.6580 C   0  0  0  0  0  2  0  0  0  0  0  0
  -30.1950  -18.1090   21.6290 C   0  0  0  0  0  2  0  0  0  0  0  0
  -29.4570  -18.6110   20.4170 C   0  0  0  0  0  3  0  0  0  0  0  0
  -30.3570  -17.2780   20.3640 C   0  0  0  0  0  3  0  0  0  0  0  0
  -30.6150  -14.7070   20.1160 C   0  0  0  0  0  0  0  0  0  0  0  0
  -30.3110  -12.4690   19.0520 C   0  0  0  0  0  2  0  0  0  0  0  0
  -29.3380  -12.6200   17.8630 C   0  0  0  0  0  2  0  0  0  0  0  0
  -27.8820  -12.4550   18.3410 C   0  0  0  0  0  2  0  0  0  0  0  0
  -27.5720  -13.3010   19.6060 C   0  0  0  0  0  3  0  0  0  0  0  0
  -28.6720  -13.1630   20.6820 C   0  0  0  0  0  2  0  0  0  0  0  0
  -29.9520  -13.5020   20.0490 N   0  0  0  0  0  0  0  0  0  0  0  0
  -31.7750  -14.7950   19.7040 O   0  0  0  0  0  0  0  0  0  0  0  0
  -29.9070  -15.8480   20.4590 N   0  0  0  0  0  0  0  0  0  0  0  0
  -28.9540  -15.6890   20.7500 H   0  0  0  0  0  0  0  0  0  0  0  0
  -25.2120  -13.8910   20.4180 C   0  0  0  0  0  0  0  0  0  0  0  0
  -24.1580  -13.1180   20.8240 C   0  0  0  0  0  0  0  0  0  0  0  0
  -24.6160  -11.7650   20.7680 C   0  0  0  0  0  0  0  0  0  0  0  0
  -26.2450  -13.0110   20.1420 N   0  0  0  0  0  0  0  0  0  0  0  0
  -25.8960  -11.7260   20.4100 N   0  0  0  0  0  0  0  0  0  0  0  0
  -23.8920  -10.5040   20.9760 C   0  0  0  0  0  0  0  0  0  0  0  0
  -24.3470   -9.5350   21.8970 C   0  0  0  0  0  3  0  0  0  0  0  0
  -23.6230   -8.3400   22.0930 C   0  0  0  0  0  3  0  0  0  0  0  0
  -22.4290   -8.1050   21.3710 C   0  0  0  0  0  0  0  0  0  0  0  0
  -21.9940   -9.0640   20.4390 C   0  0  0  0  0  3  0  0  0  0  0  0
  -22.7190  -10.2500   20.2390 C   0  0  0  0  0  3  0  0  0  0  0  0
  -21.6730   -6.9640   21.4790 O   0  0  0  0  0  0  0  0  0  0  0  0
  -21.6450   -6.2250   22.6350 C   0  0  0  0  0  0  0  0  0  0  0  0
  -21.2470   -6.7870   23.8680 C   0  0  0  0  0  3  0  0  0  0  0  0
  -21.1650   -5.9750   25.0180 C   0  0  0  0  0  3  0  0  0  0  0  0
  -21.4680   -4.6020   24.9360 C   0  0  0  0  0  0  0  0  0  0  0  0
  -21.8570   -4.0400   23.7070 C   0  0  0  0  0  3  0  0  0  0  0  0
  -21.9420   -4.8490   22.5600 C   0  0  0  0  0  0  0  0  0  0  0  0
  -22.2970   -4.2980   21.3740 F   0  0  0  0  0  0  0  0  0  0  0  0
  -21.3830   -3.8210   26.0380 F   0  0  0  0  0  0  0  0  0  0  0  0
  -22.7730  -13.5970   21.1470 C   0  0  0  0  0  0  0  0  0  0  0  0
  -22.0750  -12.9020   22.0380 N   0  0  0  0  0  0  0  0  0  0  0  0
  -22.3210  -14.6260   20.6450 O   0  0  0  0  0  0  0  0  0  0  0  0
  -22.4540  -12.0730   22.4710 H   0  0  0  0  0  0  0  0  0  0  0  0
  -21.1450  -13.2050   22.2940 H   0  0  0  0  0  0  0  0  0  0  0  0
  -25.3690  -15.2630   20.2380 N   0  0  0  0  0  0  0  0  0  0  0  0
  -24.5960  -15.9100   20.3500 H   0  0  0  0  0  0  0  0  0  0  0  0
  -26.1990  -15.7020   19.8590 H   0  0  0  0  0  0  0  0  0  0  0  0
  -27.9900  -24.8800   20.0450 C   0  0  0  0  0  2  0  0  0  0  0  0
  -28.2700  -26.3500   20.2490 O   0  0  0  0  0  0  0  0  0  0  0  0
  -24.6000  -31.8580   23.2380 C   0  0  0  0  0  0  0  0  0  0  0  0
  -27.1820  -27.2550   20.1750 C   0  0  0  0  0  0  0  0  0  0  0  0
  -23.3910  -30.4680   21.5950 C   0  0  0  0  0  3  0  0  0  0  0  0
  -24.8350  -28.9160   20.1620 C   0  0  0  0  0  0  0  0  0  0  0  0
  -25.9350  -30.7670   21.4150 C   0  0  0  0  0  2  0  0  0  0  0  0
  -26.0100  -29.3860   20.7630 C   0  0  0  0  0  0  0  0  0  0  0  0
  -27.1860  -28.5680   20.7590 C   0  0  0  0  0  3  0  0  0  0  0  0
  -25.9820  -26.8590   19.5390 C   0  0  0  0  0  3  0  0  0  0  0  0
  -24.8270  -27.6620   19.5380 C   0  0  0  0  0  3  0  0  0  0  0  0
  -23.6050  -29.7990   20.2120 C   0  0  0  0  0  2  0  0  0  0  0  0
  -24.6610  -31.0490   22.1380 N   0  0  0  0  0  0  0  0  0  0  0  0
  -23.5170  -32.1360   23.7750 O   0  0  0  0  0  0  0  0  0  0  0  0
  -22.7240  -29.4520   22.5540 C   0  0  0  0  0  0  0  0  0  0  0  0
  -21.3960  -29.2780   22.4310 N   0  0  0  0  0  0  0  0  0  0  0  0
  -23.4010  -28.8230   23.3720 O   0  0  0  0  0  0  0  0  0  0  0  0
  -20.9070  -29.8360   21.7450 H   0  0  0  0  0  0  0  0  0  0  0  0
  -18.0180  -28.0770   22.9300 C   0  0  0  0  0  0  0  0  0  0  0  0
  -20.5760  -28.3400   23.2030 C   0  0  0  0  0  3  0  0  0  0  0  0
  -20.6800  -26.9070   22.6320 C   0  0  0  0  0  2  0  0  0  0  0  0
  -19.5800  -26.5810   21.6160 C   0  0  0  0  0  2  0  0  0  0  0  0
  -18.1970  -26.7260   22.2570 C   0  0  0  0  0  2  0  0  0  0  0  0
  -19.1360  -28.8410   23.3600 C   0  0  0  0  0  0  0  0  0  0  0  0
  -18.9140  -30.1040   23.9500 C   0  0  0  0  0  3  0  0  0  0  0  0
  -17.6090  -30.6040   24.1130 C   0  0  0  0  0  3  0  0  0  0  0  0
  -16.5060  -29.8380   23.6990 C   0  0  0  0  0  3  0  0  0  0  0  0
  -16.7110  -28.5750   23.1140 C   0  0  0  0  0  3  0  0  0  0  0  0
  -25.8850  -32.4880   23.8570 C   0  0  0  0  0  3  0  0  0  0  0  0
  -26.4020  -31.7130   25.1310 C   0  0  1  0  0  0  0  0  0  0  0  0
  -25.3120  -31.4770   26.2020 C   0  0  0  0  0  1  0  0  0  0  0  0
  -26.9810  -30.3340   24.7370 C   0  0  0  0  0  1  0  0  0  0  0  0
  -27.5560  -32.5030   25.7910 C   0  0  0  0  0  1  0  0  0  0  0  0
  -25.5760  -33.8860   24.1950 N   0  0  0  0  0  0  0  0  0  0  0  0
  -25.8990  -34.9420   23.4380 C   0  0  0  0  0  0  0  0  0  0  0  0
  -26.5570  -34.8440   22.3990 O   0  0  0  0  0  0  0  0  0  0  0  0
  -24.9940  -34.0350   25.0060 H   0  0  0  0  0  0  0  0  0  0  0  0
  -24.1620  -36.7350   23.1150 C   0  0  0  0  0  1  0  0  0  0  0  0
  -25.4160  -36.3290   23.9070 C   0  0  0  0  0  3  0  0  0  0  0  0
  -27.5610  -37.2170   24.7070 C   0  0  0  0  0  1  0  0  0  0  0  0
  -26.4440  -37.3840   23.7820 N   0  0  0  0  0  0  0  0  0  0  0  0
  -26.0370  -38.3030   23.9370 H   0  0  0  0  0  0  0  0  0  0  0  0
  1  5  1  0
  2  1  2  0
  3  4  1  0
  4  8  1  0
  4  5  2  0
  6  3  2  0
  6  2  1  0
  7  8  1  0
  9  3  1  0
 11  9  1  0
 11 10  1  0
 12 11  1  0
 12 21  1  0
 12 10  1  0
 13 21  1  0
 14 19  1  0
 15 16  1  0
 15 14  1  0
 17 16  1  0
 17 26  1  0
 17 18  1  0
 19 13  1  0
 19 18  1  0
 20 13  2  0
 21 22  1  0
 23 24  2  0
 24 43  1  0
 25 24  1  0
 25 28  1  0
 26 27  1  0
 26 23  1  0
 27 25  2  0
 28 29  1  0
 29 30  2  0
 31 34  1  0
 31 30  1  0
 32 31  2  0
 33 32  1  0
 33 28  2  0
 34 35  1  0
 35 36  1  0
 36 37  2  0
 38 37  1  0
 38 42  1  0
 39 38  2  0
 40 35  2  0
 40 39  1  0
 41 40  1  0
 43 44  1  0
 44 47  1  0
 44 46  1  0
 45 43  2  0
 48 49  1  0
 48 23  1  0
 50 48  1  0
 51 52  1  0
 51  2  1  0
 53 64  2  0
 54 52  1  0
 54 59  1  0
 55 63  1  0
 55 65  1  0
 56 62  1  0
 56 58  1  0
 57 63  1  0
 58 57  1  0
 59 58  2  0
 60 54  2  0
 61 60  1  0
 61 56  2  0
 62 55  1  0
 63 53  1  0
 65 67  2  0
 66 65  1  0
 68 66  1  0
 69 78  2  0
 69 74  1  0
 70 66  1  0
 70 74  1  0
 71 70  1  0
 72 73  1  0
 72 71  1  0
 73 69  1  0
 74 75  2  0
 75 76  1  0
 77 76  2  0
 78 77  1  0
 79 53  1  0
 79 84  1  0
 79 80  1  0
 80 83  1  1
 80 81  1  0
 82 80  1  0
 84 87  1  0
 85 89  1  0
 85 84  1  0
 86 85  2  0
 89 88  1  0
 91 89  1  0
 91 92  1  0
 91 90  1  0
M  ISO  4  13 100  21 100  51 101  52 101
M  END
>  <TORSDO>  (11) 
F 20

>  <SCORE>  (11) 
-13.799

>  <name>  (11) 
10

>  <ligand_id>  (11) 
10

>  <original_smiles>  (11) 
[H]c1nc(C([H])([H])C([H])([H])[H])c(C([H])([H])C2([H])C([H])([H])C2([H])N([H])C(=O)N2C([H])([H])C([H])([H])C([H])([H])C([H])(n3nc(-c4c([H])c([H])c(Oc5c([H])c([H])c(F)c([H])c5F)c([H])c4[H])c(C(=O)N([H])[H])c3N([H])[H])C2([H])[H])nc1C([H])([H])Oc1c([H])c([H])c2c(c1[H])C([H])([H])N(C(=O)C([H])(N([H])C(=O)C([H])(N([H])C([H])([H])[H])C([H])([H])[H])C(C([H])([H])[H])(C([H])([H])[H])C([H])([H])[H])C([H])(C(=O)N([H])C1([H])c3c([H])c([H])c([H])c([H])c3C([H])([H])C([H])([H])C1([H])[H])C2([H])[H]

>  <smiles>  (11) 
[H]c1nc(C([H])([H])C([H])([H])[H])c(C([H])([H])C2([H])C([H])([H])C2([H])N([H])C(=O)N2C([H])([H])C([H])([H])C([H])([H])C([H])(n3nc(-c4c([H])c([H])c(Oc5c([H])c([H])c(F)c([H])c5F)c([H])c4[H])c(C(=O)N([H])[H])c3N([H])[H])C2([H])[H])nc1C([H])([H])Oc1c([H])c([H])c2c(c1[H])C([H])([H])N(C(=O)C([H])(N([H])C(=O)C([H])(N([H])C([H])([H])[H])C([H])([H])[H])C(C([H])([H])[H])(C([H])([H])[H])C([H])([H])[H])C([H])(C(=O)N([H])C1([H])c3c([H])c([H])c([H])c([H])c3C([H])([H])C([H])([H])C1([H])[H])C2([H])[H]

$$$$
11:0:0
     RDKit          3D

 91100  0  0  1  0  0  0  0  0999 V2000
  -29.3160  -20.6870   20.4680 C   0  0  0  0  0  0  0  0  0  0  0  0
  -29.1080  -21.4450   19.2650 C   0  0  0  0  0  0  0  0  0  0  0  0
  -29.3770  -21.6190   21.5630 C   0  0  0  0  0  0  0  0  0  0  0  0
  -28.7900  -23.5680   20.3250 C   0  0  0  0  0  0  0  0  0  0  0  0
  -29.0950  -20.8030   17.8940 C   0  0  0  0  0  1  0  0  0  0  0  0
  -29.7170  -21.1580   22.9650 C   0  0  0  0  0  1  0  0  0  0  0  0
  -28.8470  -22.8020   19.2180 N   0  0  0  0  0  0  0  0  0  0  0  0
  -29.0990  -22.9710   21.4900 N   0  0  0  0  0  0  0  0  0  0  0  0
  -28.6440  -18.1730   19.6870 C   0  0  0  0  0  2  0  0  0  0  0  0
  -29.2990  -19.0500   20.7080 C   0  0  0  0  0  3  0  0  0  0  0  0
  -29.9990  -17.6600   20.1250 C   0  0  0  0  0  3  0  0  0  0  0  0
  -30.6350  -15.0500   20.3230 C   0  0  0  0  0  0  0  0  0  0  0  0
  -30.5150  -12.7280   19.3680 C   0  0  0  0  0  2  0  0  0  0  0  0
  -29.5750  -12.7300   18.1410 C   0  0  0  0  0  2  0  0  0  0  0  0
  -28.1150  -12.5050   18.5800 C   0  0  0  0  0  2  0  0  0  0  0  0
  -27.7090  -13.4030   19.7810 C   0  0  0  0  0  3  0  0  0  0  0  0
  -28.7730  -13.3830   20.9010 C   0  0  0  0  0  2  0  0  0  0  0  0
  -30.0490  -13.7930   20.2950 N   0  0  0  0  0  0  0  0  0  0  0  0
  -31.8080  -15.1520   19.9480 O   0  0  0  0  0  0  0  0  0  0  0  0
  -29.8480  -16.1920   20.5510 N   0  0  0  0  0  0  0  0  0  0  0  0
  -28.9300  -15.9670   20.9050 H   0  0  0  0  0  0  0  0  0  0  0  0
  -25.3260  -13.9420   20.5530 C   0  0  0  0  0  0  0  0  0  0  0  0
  -24.2740  -13.1470   20.9260 C   0  0  0  0  0  0  0  0  0  0  0  0
  -24.7520  -11.8040   20.8580 C   0  0  0  0  0  0  0  0  0  0  0  0
  -26.3770  -13.0810   20.2830 N   0  0  0  0  0  0  0  0  0  0  0  0
  -26.0380  -11.7870   20.5280 N   0  0  0  0  0  0  0  0  0  0  0  0
  -24.0370  -10.5300   21.0330 C   0  0  0  0  0  0  0  0  0  0  0  0
  -24.4600   -9.5680   21.9770 C   0  0  0  0  0  3  0  0  0  0  0  0
  -23.7450   -8.3600   22.1380 C   0  0  0  0  0  3  0  0  0  0  0  0
  -22.5910   -8.1100   21.3570 C   0  0  0  0  0  0  0  0  0  0  0  0
  -22.1890   -9.0580   20.4010 C   0  0  0  0  0  3  0  0  0  0  0  0
  -22.9060  -10.2580   20.2390 C   0  0  0  0  0  3  0  0  0  0  0  0
  -21.8460   -6.9580   21.4310 O   0  0  0  0  0  0  0  0  0  0  0  0
  -21.7320   -6.2470   22.5980 C   0  0  0  0  0  0  0  0  0  0  0  0
  -21.1790   -6.8140   23.7680 C   0  0  0  0  0  3  0  0  0  0  0  0
  -21.0210   -6.0270   24.9260 C   0  0  0  0  0  3  0  0  0  0  0  0
  -21.4020   -4.6720   24.9130 C   0  0  0  0  0  0  0  0  0  0  0  0
  -21.9450   -4.1030   23.7490 C   0  0  0  0  0  3  0  0  0  0  0  0
  -22.1090   -4.8880   22.5940 C   0  0  0  0  0  0  0  0  0  0  0  0
  -22.6150   -4.3300   21.4680 F   0  0  0  0  0  0  0  0  0  0  0  0
  -21.2430   -3.9120   26.0220 F   0  0  0  0  0  0  0  0  0  0  0  0
  -22.8760  -13.6050   21.2260 C   0  0  0  0  0  0  0  0  0  0  0  0
  -22.1650  -12.8900   22.0920 N   0  0  0  0  0  0  0  0  0  0  0  0
  -22.4230  -14.6340   20.7280 O   0  0  0  0  0  0  0  0  0  0  0  0
  -22.5410  -12.0580   22.5210 H   0  0  0  0  0  0  0  0  0  0  0  0
  -21.2270  -13.1800   22.3300 H   0  0  0  0  0  0  0  0  0  0  0  0
  -25.4690  -15.3170   20.3970 N   0  0  0  0  0  0  0  0  0  0  0  0
  -24.6750  -15.9460   20.4670 H   0  0  0  0  0  0  0  0  0  0  0  0
  -26.2890  -15.7590   20.0010 H   0  0  0  0  0  0  0  0  0  0  0  0
  -27.8720  -24.9170   20.3130 C   0  0  0  0  0  2  0  0  0  0  0  0
  -28.2710  -26.3970   20.2610 O   0  0  0  0  0  0  0  0  0  0  0  0
  -24.6490  -32.0030   23.3060 C   0  0  0  0  0  0  0  0  0  0  0  0
  -27.2020  -27.3550   20.2110 C   0  0  0  0  0  0  0  0  0  0  0  0
  -23.4340  -30.6260   21.6660 C   0  0  0  0  0  3  0  0  0  0  0  0
  -24.8640  -29.0730   20.2230 C   0  0  0  0  0  0  0  0  0  0  0  0
  -25.9830  -30.9030   21.4760 C   0  0  0  0  0  2  0  0  0  0  0  0
  -26.0510  -29.5210   20.8140 C   0  0  0  0  0  0  0  0  0  0  0  0
  -27.2220  -28.6790   20.7900 C   0  0  0  0  0  3  0  0  0  0  0  0
  -25.9760  -27.0000   19.5890 C   0  0  0  0  0  3  0  0  0  0  0  0
  -24.8350  -27.8230   19.6010 C   0  0  0  0  0  3  0  0  0  0  0  0
  -23.6390  -29.9680   20.2800 C   0  0  0  0  0  2  0  0  0  0  0  0
  -24.7110  -31.1950   22.2060 N   0  0  0  0  0  0  0  0  0  0  0  0
  -23.5680  -32.2850   23.8440 O   0  0  0  0  0  0  0  0  0  0  0  0
  -22.7610  -29.6060   22.6190 C   0  0  0  0  0  0  0  0  0  0  0  0
  -21.4370  -29.4210   22.4810 N   0  0  0  0  0  0  0  0  0  0  0  0
  -23.4340  -28.9830   23.4440 O   0  0  0  0  0  0  0  0  0  0  0  0
  -20.9520  -29.9680   21.7840 H   0  0  0  0  0  0  0  0  0  0  0  0
  -18.0650  -28.1940   22.9590 C   0  0  0  0  0  0  0  0  0  0  0  0
  -20.6180  -28.4790   23.2500 C   0  0  0  0  0  3  0  0  0  0  0  0
  -20.7390  -27.0460   22.6790 C   0  0  0  0  0  2  0  0  0  0  0  0
  -19.6510  -26.7110   21.6560 C   0  0  0  0  0  2  0  0  0  0  0  0
  -18.2600  -26.8480   22.2820 C   0  0  0  0  0  2  0  0  0  0  0  0
  -19.1720  -28.9670   23.3990 C   0  0  0  0  0  0  0  0  0  0  0  0
  -18.9360  -30.2270   23.9920 C   0  0  0  0  0  3  0  0  0  0  0  0
  -17.6230  -30.7140   24.1460 C   0  0  0  0  0  3  0  0  0  0  0  0
  -16.5310  -29.9370   23.7240 C   0  0  0  0  0  3  0  0  0  0  0  0
  -16.7520  -28.6780   23.1370 C   0  0  0  0  0  3  0  0  0  0  0  0
  -25.9340  -32.6290   23.9310 C   0  0  0  0  0  3  0  0  0  0  0  0
  -25.6340  -34.0290   24.2650 N   0  0  0  0  0  0  0  0  0  0  0  0
  -25.9300  -35.0780   23.4870 C   0  0  0  0  0  0  0  0  0  0  0  0
  -26.5520  -34.9690   22.4270 O   0  0  0  0  0  0  0  0  0  0  0  0
  -25.0810  -34.1920   25.0940 H   0  0  0  0  0  0  0  0  0  0  0  0
  -24.1670  -36.8520   23.2160 C   0  0  0  0  0  1  0  0  0  0  0  0
  -25.4580  -36.4680   23.9570 C   0  0  0  0  0  3  0  0  0  0  0  0
  -27.6300  -37.3800   24.6480 C   0  0  0  0  0  1  0  0  0  0  0  0
  -26.4700  -37.5310   23.7740 N   0  0  0  0  0  0  0  0  0  0  0  0
  -26.0630  -38.4460   23.9480 H   0  0  0  0  0  0  0  0  0  0  0  0
  -26.4410  -31.8570   25.2110 C   0  0  1  0  0  0  0  0  0  0  0  0
  -25.3430  -31.6230   26.2750 C   0  0  0  0  0  1  0  0  0  0  0  0
  -27.0170  -30.4770   24.8210 C   0  0  0  0  0  1  0  0  0  0  0  0
  -27.5940  -32.6460   25.8790 C   0  0  0  0  0  1  0  0  0  0  0  0
  1  3  1  0
  2  1  2  0
  3  6  1  0
  4  8  1  0
  5  2  1  0
  7  2  1  0
  7  4  2  0
  8  3  2  0
  9 11  1  0
  9 10  1  0
 10  1  1  0
 11 20  1  0
 11 10  1  0
 12 20  1  0
 13 18  1  0
 14 15  1  0
 14 13  1  0
 16 15  1  0
 16 25  1  0
 16 17  1  0
 18 12  1  0
 18 17  1  0
 19 12  2  0
 20 21  1  0
 22 23  2  0
 23 42  1  0
 24 23  1  0
 24 27  1  0
 25 26  1  0
 25 22  1  0
 26 24  2  0
 27 28  1  0
 28 29  2  0
 30 33  1  0
 30 29  1  0
 31 30  2  0
 32 31  1  0
 32 27  2  0
 33 34  1  0
 34 35  1  0
 35 36  2  0
 37 36  1  0
 37 41  1  0
 38 37  2  0
 39 34  2  0
 39 38  1  0
 40 39  1  0
 42 43  1  0
 43 46  1  0
 43 45  1  0
 44 42  2  0
 47 48  1  0
 47 22  1  0
 49 47  1  0
 50  4  1  0
 51 50  1  0
 52 63  2  0
 53 51  1  0
 53 58  1  0
 54 62  1  0
 54 64  1  0
 55 61  1  0
 55 57  1  0
 56 62  1  0
 57 56  1  0
 58 57  2  0
 59 60  1  0
 59 53  2  0
 60 55  2  0
 61 54  1  0
 62 52  1  0
 64 66  2  0
 65 64  1  0
 67 65  1  0
 68 77  2  0
 68 73  1  0
 69 65  1  0
 69 73  1  0
 70 69  1  0
 71 72  1  0
 71 70  1  0
 72 68  1  0
 73 74  2  0
 74 75  1  0
 76 75  2  0
 77 76  1  0
 78 52  1  0
 78 79  1  0
 78 88  1  0
 79 82  1  0
 80 84  1  0
 80 79  1  0
 81 80  2  0
 84 83  1  0
 86 87  1  0
 86 84  1  0
 86 85  1  0
 88 91  1  1
 88 89  1  0
 90 88  1  0
M  ISO  4  12 100  20 100  50 101  51 101
M  END
>  <TORSDO>  (12) 
F 18

>  <SCORE>  (12) 
-14.527

>  <name>  (12) 
11

>  <ligand_id>  (12) 
11

>  <original_smiles>  (12) 
[H]c1c([H])c([H])c2c(c1[H])C([H])([H])C([H])([H])C([H])([H])C2([H])N([H])C(=O)C1([H])N(C(=O)C([H])(N([H])C(=O)C([H])(N([H])C([H])([H])[H])C([H])([H])[H])C(C([H])([H])[H])(C([H])([H])[H])C([H])([H])[H])C([H])([H])c2c([H])c(OC([H])([H])c3nc(C([H])([H])[H])c(C4([H])C([H])([H])C4([H])N([H])C(=O)N4C([H])([H])C([H])([H])C([H])([H])C([H])(n5nc(-c6c([H])c([H])c(Oc7c([H])c([H])c(F)c([H])c7F)c([H])c6[H])c(C(=O)N([H])[H])c5N([H])[H])C4([H])[H])c(C([H])([H])[H])n3)c([H])c([H])c2C1([H])[H]

>  <smiles>  (12) 
[H]c1c([H])c([H])c2c(c1[H])C([H])([H])C([H])([H])C([H])([H])C2([H])N([H])C(=O)C1([H])N(C(=O)C([H])(N([H])C(=O)C([H])(N([H])C([H])([H])[H])C([H])([H])[H])C(C([H])([H])[H])(C([H])([H])[H])C([H])([H])[H])C([H])([H])c2c([H])c(OC([H])([H])c3nc(C([H])([H])[H])c(C4([H])C([H])([H])C4([H])N([H])C(=O)N4C([H])([H])C([H])([H])C([H])([H])C([H])(n5nc(-c6c([H])c([H])c(Oc7c([H])c([H])c(F)c([H])c7F)c([H])c6[H])c(C(=O)N([H])[H])c5N([H])[H])C4([H])[H])c(C([H])([H])[H])n3)c([H])c([H])c2C1([H])[H]

$$$$
12:0:0
     RDKit          3D

 91100  0  0  1  0  0  0  0  0999 V2000
  -28.8580  -22.6570   21.3110 C   0  0  0  0  0  3  0  0  0  0  0  0
  -29.2550  -21.2540   21.2830 C   0  0  0  0  0  0  0  0  0  0  0  0
  -29.3960  -20.5520   20.0370 C   0  0  0  0  0  0  0  0  0  0  0  0
  -28.6140  -23.4200   20.1180 C   0  0  0  0  0  0  0  0  0  0  0  0
  -29.4880  -20.5250   22.5920 C   0  0  0  0  0  1  0  0  0  0  0  0
  -29.1620  -21.3580   18.9360 N   0  0  0  0  0  0  0  0  0  0  0  0
  -28.7890  -22.6810   18.9680 N   0  0  0  0  0  0  0  0  0  0  0  0
  -30.5680  -15.1210   20.1430 C   0  0  0  0  0  0  0  0  0  0  0  0
  -30.3950  -12.7810   19.2060 C   0  0  0  0  0  2  0  0  0  0  0  0
  -29.4220  -12.7450   18.0080 C   0  0  0  0  0  2  0  0  0  0  0  0
  -27.9720  -12.5340   18.4880 C   0  0  0  0  0  2  0  0  0  0  0  0
  -27.6030  -13.4480   19.6850 C   0  0  0  0  0  3  0  0  0  0  0  0
  -28.7000  -13.4780   20.7680 C   0  0  0  0  0  2  0  0  0  0  0  0
  -29.9460  -13.8770   20.1030 N   0  0  0  0  0  0  0  0  0  0  0  0
  -31.7890  -15.1550   19.9560 O   0  0  0  0  0  0  0  0  0  0  0  0
  -28.9200  -18.2580   18.7680 C   0  0  0  0  0  2  0  0  0  0  0  0
  -29.2820  -16.7390   18.7660 C   0  0  0  0  0  2  0  0  0  0  0  0
  -29.9700  -17.7110   20.7630 C   0  0  0  0  0  2  0  0  0  0  0  0
  -29.8650  -18.9840   19.7330 C   0  0  2  0  0  0  0  0  0  0  0  0
  -31.2700  -19.0900   19.1010 C   0  0  0  0  0  1  0  0  0  0  0  0
  -29.8000  -16.3210   20.0870 N   0  0  0  0  0  0  0  0  0  0  0  0
  -25.2600  -14.0360   20.5230 C   0  0  0  0  0  0  0  0  0  0  0  0
  -24.1990  -13.2610   20.9020 C   0  0  0  0  0  0  0  0  0  0  0  0
  -24.6490  -11.9080   20.8190 C   0  0  0  0  0  0  0  0  0  0  0  0
  -26.2840  -13.1520   20.2260 N   0  0  0  0  0  0  0  0  0  0  0  0
  -25.9290  -11.8660   20.4690 N   0  0  0  0  0  0  0  0  0  0  0  0
  -23.9170  -10.6480   20.9950 C   0  0  0  0  0  0  0  0  0  0  0  0
  -24.3480   -9.6670   21.9160 C   0  0  0  0  0  3  0  0  0  0  0  0
  -23.6170   -8.4710   22.0810 C   0  0  0  0  0  3  0  0  0  0  0  0
  -22.4400   -8.2490   21.3250 C   0  0  0  0  0  0  0  0  0  0  0  0
  -22.0300   -9.2180   20.3950 C   0  0  0  0  0  3  0  0  0  0  0  0
  -22.7600  -10.4060   20.2270 C   0  0  0  0  0  3  0  0  0  0  0  0
  -21.6800   -7.1070   21.4020 O   0  0  0  0  0  0  0  0  0  0  0  0
  -21.5970   -6.3740   22.5590 C   0  0  0  0  0  0  0  0  0  0  0  0
  -21.0940   -6.9270   23.7560 C   0  0  0  0  0  3  0  0  0  0  0  0
  -20.9610   -6.1180   24.9040 C   0  0  0  0  0  3  0  0  0  0  0  0
  -21.3210   -4.7590   24.8530 C   0  0  0  0  0  0  0  0  0  0  0  0
  -21.8170   -4.2060   23.6590 C   0  0  0  0  0  3  0  0  0  0  0  0
  -21.9520   -5.0110   22.5140 C   0  0  0  0  0  0  0  0  0  0  0  0
  -22.4100   -4.4680   21.3610 F   0  0  0  0  0  0  0  0  0  0  0  0
  -21.1870   -3.9790   25.9510 F   0  0  0  0  0  0  0  0  0  0  0  0
  -22.8160  -13.7440   21.2290 C   0  0  0  0  0  0  0  0  0  0  0  0
  -22.1100  -13.0330   22.1010 N   0  0  0  0  0  0  0  0  0  0  0  0
  -22.3720  -14.7850   20.7460 O   0  0  0  0  0  0  0  0  0  0  0  0
  -22.4830  -12.1900   22.5100 H   0  0  0  0  0  0  0  0  0  0  0  0
  -21.1830  -13.3380   22.3630 H   0  0  0  0  0  0  0  0  0  0  0  0
  -25.4340  -15.4100   20.3810 N   0  0  0  0  0  0  0  0  0  0  0  0
  -24.6840  -16.0720   20.5440 H   0  0  0  0  0  0  0  0  0  0  0  0
  -26.2930  -15.8510   20.0760 H   0  0  0  0  0  0  0  0  0  0  0  0
  -27.7460  -24.8230   20.0320 C   0  0  0  0  0  2  0  0  0  0  0  0
  -28.1510  -26.3190   20.1630 O   0  0  0  0  0  0  0  0  0  0  0  0
  -24.5540  -31.9760   23.2420 C   0  0  0  0  0  0  0  0  0  0  0  0
  -27.1040  -27.3150   20.1160 C   0  0  0  0  0  0  0  0  0  0  0  0
  -23.3300  -30.5800   21.6250 C   0  0  0  0  0  3  0  0  0  0  0  0
  -24.7590  -29.0400   20.1550 C   0  0  0  0  0  0  0  0  0  0  0  0
  -25.8780  -30.8730   21.4030 C   0  0  0  0  0  2  0  0  0  0  0  0
  -25.9520  -29.4890   20.7390 C   0  0  0  0  0  0  0  0  0  0  0  0
  -27.1240  -28.6430   20.7050 C   0  0  0  0  0  3  0  0  0  0  0  0
  -25.8810  -26.9780   19.4870 C   0  0  0  0  0  3  0  0  0  0  0  0
  -24.7370  -27.7970   19.5150 C   0  0  0  0  0  3  0  0  0  0  0  0
  -23.5250  -29.9200   20.2360 C   0  0  0  0  0  2  0  0  0  0  0  0
  -24.6080  -31.1640   22.1440 N   0  0  0  0  0  0  0  0  0  0  0  0
  -23.4780  -32.2450   23.7970 O   0  0  0  0  0  0  0  0  0  0  0  0
  -22.6860  -29.5560   22.5930 C   0  0  0  0  0  0  0  0  0  0  0  0
  -21.3680  -29.3220   22.4520 N   0  0  0  0  0  0  0  0  0  0  0  0
  -23.3730  -28.9740   23.4360 O   0  0  0  0  0  0  0  0  0  0  0  0
  -20.8680  -29.8440   21.7470 H   0  0  0  0  0  0  0  0  0  0  0  0
  -18.0500  -27.9350   22.8910 C   0  0  0  0  0  0  0  0  0  0  0  0
  -20.5790  -28.3640   23.2310 C   0  0  0  0  0  3  0  0  0  0  0  0
  -20.7860  -26.9210   22.7130 C   0  0  0  0  0  2  0  0  0  0  0  0
  -19.7400  -26.4950   21.6780 C   0  0  0  0  0  2  0  0  0  0  0  0
  -18.3310  -26.5770   22.2710 C   0  0  0  0  0  2  0  0  0  0  0  0
  -19.1050  -28.7800   23.3270 C   0  0  0  0  0  0  0  0  0  0  0  0
  -18.7890  -30.0460   23.8680 C   0  0  0  0  0  3  0  0  0  0  0  0
  -17.4510  -30.4690   23.9770 C   0  0  0  0  0  3  0  0  0  0  0  0
  -16.4110  -29.6230   23.5560 C   0  0  0  0  0  3  0  0  0  0  0  0
  -16.7100  -28.3580   23.0200 C   0  0  0  0  0  3  0  0  0  0  0  0
  -25.8410  -32.6220   23.8410 C   0  0  0  0  0  3  0  0  0  0  0  0
  -25.5280  -34.0210   24.1670 N   0  0  0  0  0  0  0  0  0  0  0  0
  -25.8230  -35.0710   23.3880 C   0  0  0  0  0  0  0  0  0  0  0  0
  -26.4540  -34.9630   22.3330 O   0  0  0  0  0  0  0  0  0  0  0  0
  -24.9630  -34.1790   24.9880 H   0  0  0  0  0  0  0  0  0  0  0  0
  -24.0750  -36.8550   23.0790 C   0  0  0  0  0  1  0  0  0  0  0  0
  -25.3440  -36.4610   23.8520 C   0  0  0  0  0  3  0  0  0  0  0  0
  -27.4930  -37.3690   24.6170 C   0  0  0  0  0  1  0  0  0  0  0  0
  -26.3650  -37.5190   23.7000 N   0  0  0  0  0  0  0  0  0  0  0  0
  -25.9570  -38.4370   23.8490 H   0  0  0  0  0  0  0  0  0  0  0  0
  -26.3750  -31.8650   25.1200 C   0  0  1  0  0  0  0  0  0  0  0  0
  -25.2920  -31.6220   26.1970 C   0  0  0  0  0  1  0  0  0  0  0  0
  -26.9720  -30.4910   24.7390 C   0  0  0  0  0  1  0  0  0  0  0  0
  -27.5200  -32.6780   25.7680 C   0  0  0  0  0  1  0  0  0  0  0  0
  2  1  1  0
  2  5  1  0
  3  2  2  0
  4  1  2  0
  6  7  2  0
  6  3  1  0
  7  4  1  0
  9 14  1  0
 10 11  1  0
 10  9  1  0
 12 11  1  0
 12 25  1  0
 12 13  1  0
 14  8  1  0
 14 13  1  0
 15  8  2  0
 16 19  1  0
 17 16  1  0
 17 21  1  0
 19 20  1  6
 19  3  1  0
 19 18  1  0
 21  8  1  0
 21 18  1  0
 22 23  2  0
 23 42  1  0
 24 23  1  0
 24 27  1  0
 25 26  1  0
 25 22  1  0
 26 24  2  0
 27 28  1  0
 28 29  2  0
 30 33  1  0
 30 29  1  0
 31 30  2  0
 32 31  1  0
 32 27  2  0
 33 34  1  0
 34 35  1  0
 35 36  2  0
 37 36  1  0
 37 41  1  0
 38 37  2  0
 39 34  2  0
 39 38  1  0
 40 39  1  0
 42 43  1  0
 43 46  1  0
 43 45  1  0
 44 42  2  0
 47 22  1  0
 47 48  1  0
 49 47  1  0
 50  4  1  0
 50 51  1  0
 52 63  2  0
 53 51  1  0
 53 58  1  0
 54 62  1  0
 54 64  1  0
 55 61  1  0
 55 57  1  0
 56 62  1  0
 57 56  1  0
 58 57  2  0
 59 60  1  0
 59 53  2  0
 60 55  2  0
 61 54  1  0
 62 52  1  0
 64 66  2  0
 65 64  1  0
 67 65  1  0
 68 77  2  0
 68 73  1  0
 69 65  1  0
 69 73  1  0
 70 69  1  0
 71 72  1  0
 71 70  1  0
 72 68  1  0
 73 74  2  0
 74 75  1  0
 76 75  2  0
 77 76  1  0
 78 52  1  0
 78 79  1  0
 78 88  1  0
 79 82  1  0
 80 84  1  0
 80 79  1  0
 81 80  2  0
 84 83  1  0
 86 87  1  0
 86 84  1  0
 86 85  1  0
 88 91  1  1
 88 89  1  0
 90 88  1  0
M  ISO  4   8 100  21 100  50 101  51 101
M  END
>  <TORSDO>  (13) 
F 17

>  <SCORE>  (13) 
-14.310

>  <name>  (13) 
12

>  <ligand_id>  (13) 
12

>  <original_smiles>  (13) 
[H]c1c([H])c([H])c2c(c1[H])C([H])([H])C([H])([H])C([H])([H])C2([H])N([H])C(=O)C1([H])N(C(=O)C([H])(N([H])C(=O)C([H])(N([H])C([H])([H])[H])C([H])([H])[H])C(C([H])([H])[H])(C([H])([H])[H])C([H])([H])[H])C([H])([H])c2c([H])c(OC([H])([H])c3nnc(C4(C([H])([H])[H])C([H])([H])N(C(=O)N5C([H])([H])C([H])([H])C([H])([H])C([H])(n6nc(-c7c([H])c([H])c(Oc8c([H])c([H])c(F)c([H])c8F)c([H])c7[H])c(C(=O)N([H])[H])c6N([H])[H])C5([H])[H])C([H])([H])C4([H])[H])c(C([H])([H])[H])c3[H])c([H])c([H])c2C1([H])[H]

>  <smiles>  (13) 
[H]c1c([H])c([H])c2c(c1[H])C([H])([H])C([H])([H])C([H])([H])C2([H])N([H])C(=O)C1([H])N(C(=O)C([H])(N([H])C(=O)C([H])(N([H])C([H])([H])[H])C([H])([H])[H])C(C([H])([H])[H])(C([H])([H])[H])C([H])([H])[H])C([H])([H])c2c([H])c(OC([H])([H])c3nnc(C4(C([H])([H])[H])C([H])([H])N(C(=O)N5C([H])([H])C([H])([H])C([H])([H])C([H])(n6nc(-c7c([H])c([H])c(Oc8c([H])c([H])c(F)c([H])c8F)c([H])c7[H])c(C(=O)N([H])[H])c6N([H])[H])C5([H])[H])C([H])([H])C4([H])[H])c(C([H])([H])[H])c3[H])c([H])c([H])c2C1([H])[H]

$$$$
13:0:0
     RDKit          3D

 89 98  0  0  1  0  0  0  0  0999 V2000
  -28.7080  -23.1130   20.1410 C   0  0  0  0  0  0  0  0  0  0  0  0
  -30.2880  -21.6660   20.5480 C   0  0  0  0  0  3  0  0  0  0  0  0
  -31.6210  -21.1140   20.9270 C   0  0  0  0  0  1  0  0  0  0  0  0
  -30.0100  -23.0080   20.5840 N   0  0  0  0  0  0  0  0  0  0  0  0
  -28.2580  -21.8120   19.8690 N   0  0  0  0  0  2  0  0  0  0  0  0
  -29.2930  -20.8390   20.1360 N   0  0  0  0  0  0  0  0  0  0  0  0
  -30.5760  -15.2430   19.9890 C   0  0  0  0  0  0  0  0  0  0  0  0
  -30.4430  -12.8560   19.0490 C   0  0  0  0  0  2  0  0  0  0  0  0
  -29.4500  -12.7120   17.8720 C   0  0  0  0  0  2  0  0  0  0  0  0
  -28.0260  -12.4420   18.3920 C   0  0  0  0  0  2  0  0  0  0  0  0
  -27.6490  -13.3720   19.5730 C   0  0  0  0  0  3  0  0  0  0  0  0
  -28.7680  -13.4620   20.6330 C   0  0  0  0  0  2  0  0  0  0  0  0
  -29.9610  -13.9700   19.9360 N   0  0  0  0  0  0  0  0  0  0  0  0
  -31.7790  -15.2250   19.6950 O   0  0  0  0  0  0  0  0  0  0  0  0
  -28.2320  -18.3880   20.7140 C   0  0  0  0  0  2  0  0  0  0  0  0
  -28.4830  -16.8370   20.4520 C   0  0  0  0  0  2  0  0  0  0  0  0
  -30.4030  -18.0340   19.9620 C   0  0  0  0  0  2  0  0  0  0  0  0
  -29.2180  -19.2190   19.8730 C   0  0  0  0  0  3  0  0  0  0  0  0
  -29.8970  -16.5420   20.1180 N   0  0  0  0  0  0  0  0  0  0  0  0
  -25.3210  -13.9040   20.4760 C   0  0  0  0  0  0  0  0  0  0  0  0
  -24.2850  -13.1120   20.8820 C   0  0  0  0  0  0  0  0  0  0  0  0
  -24.7540  -11.7660   20.7820 C   0  0  0  0  0  0  0  0  0  0  0  0
  -26.3530  -13.0430   20.1490 N   0  0  0  0  0  0  0  0  0  0  0  0
  -26.0260  -11.7480   20.3990 N   0  0  0  0  0  0  0  0  0  0  0  0
  -24.0450  -10.4950   20.9730 C   0  0  0  0  0  0  0  0  0  0  0  0
  -24.5030   -9.5220   21.8880 C   0  0  0  0  0  3  0  0  0  0  0  0
  -23.7900   -8.3170   22.0680 C   0  0  0  0  0  3  0  0  0  0  0  0
  -22.6050   -8.0770   21.3330 C   0  0  0  0  0  0  0  0  0  0  0  0
  -22.1650   -9.0390   20.4060 C   0  0  0  0  0  3  0  0  0  0  0  0
  -22.8790  -10.2350   20.2240 C   0  0  0  0  0  3  0  0  0  0  0  0
  -21.8610   -6.9250   21.4240 O   0  0  0  0  0  0  0  0  0  0  0  0
  -21.7900   -6.2040   22.5890 C   0  0  0  0  0  0  0  0  0  0  0  0
  -21.2900   -6.7670   23.7840 C   0  0  0  0  0  3  0  0  0  0  0  0
  -21.1700   -5.9700   24.9410 C   0  0  0  0  0  3  0  0  0  0  0  0
  -21.5400   -4.6120   24.9030 C   0  0  0  0  0  0  0  0  0  0  0  0
  -22.0330   -4.0490   23.7120 C   0  0  0  0  0  3  0  0  0  0  0  0
  -22.1550   -4.8430   22.5580 C   0  0  0  0  0  0  0  0  0  0  0  0
  -22.6110   -4.2910   21.4080 F   0  0  0  0  0  0  0  0  0  0  0  0
  -21.4180   -3.8450   26.0110 F   0  0  0  0  0  0  0  0  0  0  0  0
  -22.9030  -13.5730   21.2420 C   0  0  0  0  0  0  0  0  0  0  0  0
  -22.2290  -12.8520   22.1310 N   0  0  0  0  0  0  0  0  0  0  0  0
  -22.4320  -14.6080   20.7730 O   0  0  0  0  0  0  0  0  0  0  0  0
  -22.6250  -12.0150   22.5330 H   0  0  0  0  0  0  0  0  0  0  0  0
  -21.3050  -13.1430   22.4160 H   0  0  0  0  0  0  0  0  0  0  0  0
  -25.4590  -15.2800   20.3310 N   0  0  0  0  0  0  0  0  0  0  0  0
  -24.6910  -15.9180   20.5090 H   0  0  0  0  0  0  0  0  0  0  0  0
  -26.2790  -15.7410   19.9640 H   0  0  0  0  0  0  0  0  0  0  0  0
  -27.7940  -24.5270   19.9490 C   0  0  0  0  0  2  0  0  0  0  0  0
  -28.1930  -26.0480   20.2560 O   0  0  0  0  0  0  0  0  0  0  0  0
  -24.6610  -31.9070   23.2810 C   0  0  0  0  0  0  0  0  0  0  0  0
  -27.1930  -27.1280   20.1920 C   0  0  0  0  0  0  0  0  0  0  0  0
  -23.4530  -30.5380   21.6310 C   0  0  0  0  0  3  0  0  0  0  0  0
  -24.8910  -28.9630   20.1830 C   0  0  0  0  0  0  0  0  0  0  0  0
  -26.0160  -30.7620   21.4740 C   0  0  0  0  0  2  0  0  0  0  0  0
  -26.0810  -29.3690   20.8010 C   0  0  0  0  0  0  0  0  0  0  0  0
  -27.2300  -28.4710   20.7880 C   0  0  0  0  0  3  0  0  0  0  0  0
  -25.9760  -26.8620   19.5230 C   0  0  0  0  0  3  0  0  0  0  0  0
  -24.8580  -27.7270   19.5250 C   0  0  0  0  0  3  0  0  0  0  0  0
  -23.6730  -29.8760   20.2440 C   0  0  0  0  0  2  0  0  0  0  0  0
  -24.7320  -31.0920   22.1830 N   0  0  0  0  0  0  0  0  0  0  0  0
  -23.5750  -32.1940   23.8110 O   0  0  0  0  0  0  0  0  0  0  0  0
  -22.7640  -29.5270   22.5830 C   0  0  0  0  0  0  0  0  0  0  0  0
  -21.4360  -29.3560   22.4480 N   0  0  0  0  0  0  0  0  0  0  0  0
  -23.4290  -28.8980   23.4100 O   0  0  0  0  0  0  0  0  0  0  0  0
  -20.9540  -29.9140   21.7570 H   0  0  0  0  0  0  0  0  0  0  0  0
  -18.0530  -28.1420   22.9310 C   0  0  0  0  0  0  0  0  0  0  0  0
  -20.6110  -28.4120   23.2100 C   0  0  0  0  0  3  0  0  0  0  0  0
  -20.7180  -26.9830   22.6270 C   0  0  0  0  0  2  0  0  0  0  0  0
  -19.6210  -26.6640   21.6060 C   0  0  0  0  0  2  0  0  0  0  0  0
  -18.2360  -26.8000   22.2450 C   0  0  0  0  0  2  0  0  0  0  0  0
  -19.1680  -28.9060   23.3700 C   0  0  0  0  0  0  0  0  0  0  0  0
  -18.9400  -30.1620   23.9750 C   0  0  0  0  0  3  0  0  0  0  0  0
  -17.6320  -30.6550   24.1430 C   0  0  0  0  0  3  0  0  0  0  0  0
  -16.5320  -29.8880   23.7180 C   0  0  0  0  0  3  0  0  0  0  0  0
  -16.7440  -28.6340   23.1190 C   0  0  0  0  0  3  0  0  0  0  0  0
  -25.9390  -32.5330   23.9160 C   0  0  0  0  0  3  0  0  0  0  0  0
  -25.6360  -33.9350   24.2490 N   0  0  0  0  0  0  0  0  0  0  0  0
  -25.9470  -34.9890   23.4810 C   0  0  0  0  0  0  0  0  0  0  0  0
  -26.5840  -34.8830   22.4300 O   0  0  0  0  0  0  0  0  0  0  0  0
  -25.0670  -34.0910   25.0670 H   0  0  0  0  0  0  0  0  0  0  0  0
  -24.1990  -36.7800   23.2060 C   0  0  0  0  0  1  0  0  0  0  0  0
  -25.4810  -36.3810   23.9550 C   0  0  0  0  0  3  0  0  0  0  0  0
  -27.6470  -37.2860   24.6780 C   0  0  0  0  0  1  0  0  0  0  0  0
  -26.5040  -37.4370   23.7810 N   0  0  0  0  0  0  0  0  0  0  0  0
  -26.1010  -38.3570   23.9320 H   0  0  0  0  0  0  0  0  0  0  0  0
  -26.4330  -31.7620   25.2020 C   0  0  1  0  0  0  0  0  0  0  0  0
  -25.3250  -31.5380   26.2580 C   0  0  0  0  0  1  0  0  0  0  0  0
  -27.0090  -30.3770   24.8280 C   0  0  0  0  0  1  0  0  0  0  0  0
  -27.5830  -32.5480   25.8740 C   0  0  0  0  0  1  0  0  0  0  0  0
  1  4  2  0
  2  4  1  0
  2  3  1  0
  5  1  1  0
  6  5  1  0
  6  2  1  0
  7 19  1  0
  8 13  1  0
  9 10  1  0
  9  8  1  0
 11 10  1  0
 11 23  1  0
 11 12  1  0
 13  7  1  0
 13 12  1  0
 14  7  2  0
 16 15  1  0
 17 19  1  0
 18 17  1  0
 18  6  1  0
 18 15  1  0
 19 16  1  0
 20 21  2  0
 21 40  1  0
 22 21  1  0
 22 25  1  0
 23 24  1  0
 23 20  1  0
 24 22  2  0
 25 26  1  0
 26 27  2  0
 28 31  1  0
 28 27  1  0
 29 28  2  0
 30 29  1  0
 30 25  2  0
 31 32  1  0
 32 33  1  0
 33 34  2  0
 35 34  1  0
 35 39  1  0
 36 35  2  0
 37 32  2  0
 37 36  1  0
 38 37  1  0
 40 41  1  0
 41 44  1  0
 41 43  1  0
 42 40  2  0
 45 20  1  0
 45 46  1  0
 47 45  1  0
 48  1  1  0
 48 49  1  0
 50 61  2  0
 51 49  1  0
 51 56  1  0
 52 60  1  0
 52 62  1  0
 53 59  1  0
 53 55  1  0
 54 60  1  0
 55 54  1  0
 56 55  2  0
 57 58  1  0
 57 51  2  0
 58 53  2  0
 59 52  1  0
 60 50  1  0
 62 64  2  0
 63 62  1  0
 65 63  1  0
 66 75  2  0
 66 71  1  0
 67 63  1  0
 67 71  1  0
 68 67  1  0
 69 70  1  0
 69 68  1  0
 70 66  1  0
 71 72  2  0
 72 73  1  0
 74 73  2  0
 75 74  1  0
 76 50  1  0
 76 77  1  0
 76 86  1  0
 77 80  1  0
 78 82  1  0
 78 77  1  0
 79 78  2  0
 82 81  1  0
 84 85  1  0
 84 82  1  0
 84 83  1  0
 86 89  1  1
 86 87  1  0
 88 86  1  0
M  ISO  4   7 100  19 100  48 101  49 101
M  END
>  <TORSDO>  (14) 
F 17

>  <SCORE>  (14) 
-15.605

>  <name>  (14) 
13

>  <ligand_id>  (14) 
13

>  <original_smiles>  (14) 
[H]c1c([H])c([H])c2c(c1[H])C([H])([H])C([H])([H])C([H])([H])C2([H])N([H])C(=O)C1([H])N(C(=O)C([H])(N([H])C(=O)C([H])(N([H])C([H])([H])[H])C([H])([H])[H])C(C([H])([H])[H])(C([H])([H])[H])C([H])([H])[H])C([H])([H])c2c([H])c(OC([H])([H])c3nc(C([H])([H])[H])n(C4([H])C([H])([H])N(C(=O)N5C([H])([H])C([H])([H])C([H])([H])C([H])(n6nc(-c7c([H])c([H])c(Oc8c([H])c([H])c(F)c([H])c8F)c([H])c7[H])c(C(=O)N([H])[H])c6N([H])[H])C5([H])[H])C([H])([H])C4([H])[H])n3)c([H])c([H])c2C1([H])[H]

>  <smiles>  (14) 
[H]c1c([H])c([H])c2c(c1[H])C([H])([H])C([H])([H])C([H])([H])C2([H])N([H])C(=O)C1([H])N(C(=O)C([H])(N([H])C(=O)C([H])(N([H])C([H])([H])[H])C([H])([H])[H])C(C([H])([H])[H])(C([H])([H])[H])C([H])([H])[H])C([H])([H])c2c([H])c(OC([H])([H])c3nc(C([H])([H])[H])n(C4([H])C([H])([H])N(C(=O)N5C([H])([H])C([H])([H])C([H])([H])C([H])(n6nc(-c7c([H])c([H])c(Oc8c([H])c([H])c(F)c([H])c8F)c([H])c7[H])c(C(=O)N([H])[H])c6N([H])[H])C5([H])[H])C([H])([H])C4([H])[H])n3)c([H])c([H])c2C1([H])[H]

$$$$
14:0:0
     RDKit          3D

 88 96  0  0  1  0  0  0  0  0999 V2000
  -27.1720  -21.2980   19.6950 C   0  0  0  0  0  1  0  0  0  0  0  0
  -28.6280  -21.5230   19.5570 N   0  0  2  0  0  4  0  0  0  0  0  0
  -28.7260  -21.6770   18.5620 H   0  0  0  0  0  0  0  0  0  0  0  0
  -30.5700  -15.2260   19.8440 C   0  0  0  0  0  0  0  0  0  0  0  0
  -30.3960  -12.8220   18.9690 C   0  0  0  0  0  2  0  0  0  0  0  0
  -29.3920  -12.6800   17.8040 C   0  0  0  0  0  2  0  0  0  0  0  0
  -27.9750  -12.4360   18.3510 C   0  0  0  0  0  2  0  0  0  0  0  0
  -27.6170  -13.4000   19.5070 C   0  0  0  0  0  3  0  0  0  0  0  0
  -28.7410  -13.5310   20.5560 C   0  0  0  0  0  2  0  0  0  0  0  0
  -29.9420  -13.9650   19.8290 N   0  0  0  0  0  0  0  0  0  0  0  0
  -31.7810  -15.1860   19.5870 O   0  0  0  0  0  0  0  0  0  0  0  0
  -29.1820  -18.9370   18.5940 C   0  0  0  0  0  2  0  0  0  0  0  0
  -29.3210  -19.0740   20.9110 C   0  0  0  0  0  2  0  0  0  0  0  0
  -29.9220  -17.4590   18.6400 C   0  0  0  0  0  2  0  0  0  0  0  0
  -30.0840  -17.5970   20.9210 C   0  0  0  0  0  2  0  0  0  0  0  0
  -29.4660  -20.1050   19.6810 C   0  0  0  0  0  3  0  0  0  0  0  0
  -29.8770  -16.5220   19.8480 N   0  0  0  0  0  0  0  0  0  0  0  0
  -25.3100  -13.9590   20.4460 C   0  0  0  0  0  0  0  0  0  0  0  0
  -24.2680  -13.1770   20.8510 C   0  0  0  0  0  0  0  0  0  0  0  0
  -24.7190  -11.8260   20.7480 C   0  0  0  0  0  0  0  0  0  0  0  0
  -26.3270  -13.0840   20.1030 N   0  0  0  0  0  0  0  0  0  0  0  0
  -25.9880  -11.7950   20.3580 N   0  0  0  0  0  0  0  0  0  0  0  0
  -23.9940  -10.5630   20.9410 C   0  0  0  0  0  0  0  0  0  0  0  0
  -24.4310   -9.5940   21.8710 C   0  0  0  0  0  3  0  0  0  0  0  0
  -23.7020   -8.3980   22.0550 C   0  0  0  0  0  3  0  0  0  0  0  0
  -22.5240   -8.1630   21.3090 C   0  0  0  0  0  0  0  0  0  0  0  0
  -22.1070   -9.1210   20.3660 C   0  0  0  0  0  3  0  0  0  0  0  0
  -22.8350  -10.3060   20.1810 C   0  0  0  0  0  3  0  0  0  0  0  0
  -21.7660   -7.0200   21.4030 O   0  0  0  0  0  0  0  0  0  0  0  0
  -21.6620   -6.3200   22.5770 C   0  0  0  0  0  0  0  0  0  0  0  0
  -21.1300   -6.9050   23.7480 C   0  0  0  0  0  3  0  0  0  0  0  0
  -20.9770   -6.1290   24.9140 C   0  0  0  0  0  3  0  0  0  0  0  0
  -21.3440   -4.7700   24.9110 C   0  0  0  0  0  0  0  0  0  0  0  0
  -21.8690   -4.1850   23.7440 C   0  0  0  0  0  3  0  0  0  0  0  0
  -22.0230   -4.9580   22.5800 C   0  0  0  0  0  0  0  0  0  0  0  0
  -22.5090   -4.3840   21.4520 F   0  0  0  0  0  0  0  0  0  0  0  0
  -21.1900   -4.0220   26.0290 F   0  0  0  0  0  0  0  0  0  0  0  0
  -22.8910  -13.6530   21.2190 C   0  0  0  0  0  0  0  0  0  0  0  0
  -22.2150  -12.9350   22.1070 N   0  0  0  0  0  0  0  0  0  0  0  0
  -22.4320  -14.6970   20.7560 O   0  0  0  0  0  0  0  0  0  0  0  0
  -22.6060  -12.0900   22.4980 H   0  0  0  0  0  0  0  0  0  0  0  0
  -21.2940  -13.2300   22.4000 H   0  0  0  0  0  0  0  0  0  0  0  0
  -25.4750  -15.3340   20.3080 N   0  0  0  0  0  0  0  0  0  0  0  0
  -24.7270  -15.9880   20.5100 H   0  0  0  0  0  0  0  0  0  0  0  0
  -26.3180  -15.7870   19.9830 H   0  0  0  0  0  0  0  0  0  0  0  0
  -28.9850  -23.0250   20.1070 C   0  0  0  0  0  3  0  0  0  0  0  0
  -28.1550  -24.5190   19.6710 C   0  0  0  0  0  3  0  0  0  0  0  0
  -28.2870  -26.0640   20.1350 O   0  0  0  0  0  0  0  0  0  0  0  0
  -24.6430  -31.8250   23.2360 C   0  0  0  0  0  0  0  0  0  0  0  0
  -27.2480  -27.1060   20.0770 C   0  0  0  0  0  0  0  0  0  0  0  0
  -23.4570  -30.4570   21.5660 C   0  0  0  0  0  3  0  0  0  0  0  0
  -24.9160  -28.9110   20.1000 C   0  0  0  0  0  0  0  0  0  0  0  0
  -26.0180  -30.7070   21.4200 C   0  0  0  0  0  2  0  0  0  0  0  0
  -26.0970  -29.3230   20.7290 C   0  0  0  0  0  0  0  0  0  0  0  0
  -27.2560  -28.4390   20.7000 C   0  0  0  0  0  3  0  0  0  0  0  0
  -26.0390  -26.8350   19.3950 C   0  0  0  0  0  3  0  0  0  0  0  0
  -24.9070  -27.6860   19.4140 C   0  0  0  0  0  3  0  0  0  0  0  0
  -23.6860  -29.8090   20.1740 C   0  0  0  0  0  2  0  0  0  0  0  0
  -24.7270  -31.0200   22.1290 N   0  0  0  0  0  0  0  0  0  0  0  0
  -23.5520  -32.0960   23.7640 O   0  0  0  0  0  0  0  0  0  0  0  0
  -22.7750  -29.4320   22.5080 C   0  0  0  0  0  0  0  0  0  0  0  0
  -21.4510  -29.2470   22.3630 N   0  0  0  0  0  0  0  0  0  0  0  0
  -23.4440  -28.8060   23.3330 O   0  0  0  0  0  0  0  0  0  0  0  0
  -20.9680  -29.8090   21.6770 H   0  0  0  0  0  0  0  0  0  0  0  0
  -18.0850  -27.9700   22.8030 C   0  0  0  0  0  0  0  0  0  0  0  0
  -20.6350  -28.2840   23.1090 C   0  0  0  0  0  3  0  0  0  0  0  0
  -20.7740  -26.8630   22.5170 C   0  0  0  0  0  2  0  0  0  0  0  0
  -19.6940  -26.5340   21.4820 C   0  0  0  0  0  2  0  0  0  0  0  0
  -18.3010  -26.6360   22.1090 C   0  0  0  0  0  2  0  0  0  0  0  0
  -19.1810  -28.7510   23.2590 C   0  0  0  0  0  0  0  0  0  0  0  0
  -18.9280  -29.9980   23.8720 C   0  0  0  0  0  3  0  0  0  0  0  0
  -17.6100  -30.4660   24.0320 C   0  0  0  0  0  3  0  0  0  0  0  0
  -16.5280  -29.6840   23.5930 C   0  0  0  0  0  3  0  0  0  0  0  0
  -16.7670  -28.4370   22.9840 C   0  0  0  0  0  3  0  0  0  0  0  0
  -25.9120  -32.4570   23.8830 C   0  0  0  0  0  3  0  0  0  0  0  0
  -25.6040  -33.8620   24.2060 N   0  0  0  0  0  0  0  0  0  0  0  0
  -25.9320  -34.9150   23.4430 C   0  0  0  0  0  0  0  0  0  0  0  0
  -26.5930  -34.8060   22.4080 O   0  0  0  0  0  0  0  0  0  0  0  0
  -25.0190  -34.0220   25.0130 H   0  0  0  0  0  0  0  0  0  0  0  0
  -24.1960  -36.7100   23.1190 C   0  0  0  0  0  1  0  0  0  0  0  0
  -25.4540  -36.3080   23.9050 C   0  0  0  0  0  3  0  0  0  0  0  0
  -27.5970  -37.2100   24.6930 C   0  0  0  0  0  1  0  0  0  0  0  0
  -26.4830  -37.3600   23.7620 N   0  0  0  0  0  0  0  0  0  0  0  0
  -26.0760  -38.2810   23.9040 H   0  0  0  0  0  0  0  0  0  0  0  0
  -26.3950  -31.6950   25.1800 C   0  0  1  0  0  0  0  0  0  0  0  0
  -25.2740  -31.4730   26.2230 C   0  0  0  0  0  1  0  0  0  0  0  0
  -26.9790  -30.3090   24.8220 C   0  0  0  0  0  1  0  0  0  0  0  0
  -27.5360  -32.4870   25.8600 C   0  0  0  0  0  1  0  0  0  0  0  0
  2  1  1  0
  2 46  1  0
  2  3  1  6
  4 17  1  0
  5 10  1  0
  6  7  1  0
  6  5  1  0
  8  7  1  0
  8 21  1  0
  8  9  1  0
 10  4  1  0
 10  9  1  0
 11  4  2  0
 12 14  1  0
 12 16  1  0
 13 15  1  0
 14 17  1  0
 16  2  1  0
 16 13  1  0
 17 15  1  0
 18 19  2  0
 19 38  1  0
 20 19  1  0
 20 23  1  0
 21 22  1  0
 21 18  1  0
 22 20  2  0
 23 24  1  0
 24 25  2  0
 26 29  1  0
 26 25  1  0
 27 26  2  0
 28 27  1  0
 28 23  2  0
 29 30  1  0
 30 35  2  0
 30 31  1  0
 31 32  2  0
 33 32  1  0
 33 37  1  0
 34 33  2  0
 35 34  1  0
 36 35  1  0
 38 39  1  0
 39 42  1  0
 39 41  1  0
 40 38  2  0
 43 18  1  0
 43 44  1  0
 45 43  1  0
 47 46  2  0
 47 48  1  0
 49 60  2  0
 50 48  1  0
 50 55  1  0
 51 59  1  0
 51 61  1  0
 52 58  1  0
 52 54  1  0
 53 59  1  0
 54 53  1  0
 55 54  2  0
 56 57  1  0
 56 50  2  0
 57 52  2  0
 58 51  1  0
 59 49  1  0
 61 63  2  0
 62 61  1  0
 64 62  1  0
 65 74  2  0
 65 70  1  0
 66 62  1  0
 66 70  1  0
 67 66  1  0
 68 69  1  0
 68 67  1  0
 69 65  1  0
 70 71  2  0
 71 72  1  0
 73 72  2  0
 74 73  1  0
 75 49  1  0
 75 76  1  0
 75 85  1  0
 76 79  1  0
 77 81  1  0
 77 76  1  0
 78 77  2  0
 81 80  1  0
 83 84  1  0
 83 81  1  0
 83 82  1  0
 85 88  1  1
 85 86  1  0
 87 85  1  0
M  ISO  4   4 100  17 100  47 101  48 101
M  END
>  <TORSDO>  (15) 
F 18

>  <SCORE>  (15) 
-14.899

>  <name>  (15) 
14

>  <ligand_id>  (15) 
14

>  <original_smiles>  (15) 
[H]c1c([H])c([H])c2c(c1[H])C([H])([H])C([H])([H])C([H])([H])C2([H])N([H])C(=O)C1([H])N(C(=O)C([H])(N([H])C(=O)C([H])(N([H])C([H])([H])[H])C([H])([H])[H])C(C([H])([H])[H])(C([H])([H])[H])C([H])([H])[H])C([H])([H])c2c([H])c(OC([H])([H])C([H])([H])[N+]([H])(C([H])([H])[H])C3([H])C([H])([H])C([H])([H])N(C(=O)N4C([H])([H])C([H])([H])C([H])([H])C([H])(n5nc(-c6c([H])c([H])c(Oc7c([H])c([H])c(F)c([H])c7F)c([H])c6[H])c(C(=O)N([H])[H])c5N([H])[H])C4([H])[H])C([H])([H])C3([H])[H])c([H])c([H])c2C1([H])[H]

>  <smiles>  (15) 
[H]c1c([H])c([H])c2c(c1[H])C([H])([H])C([H])([H])C([H])([H])C2([H])N([H])C(=O)C1([H])N(C(=O)C([H])(N([H])C(=O)C([H])(N([H])C([H])([H])[H])C([H])([H])[H])C(C([H])([H])[H])(C([H])([H])[H])C([H])([H])[H])C([H])([H])c2c([H])c(OC([H])([H])C([H])([H])[N+]([H])(C([H])([H])[H])C3([H])C([H])([H])C([H])([H])N(C(=O)N4C([H])([H])C([H])([H])C([H])([H])C([H])(n5nc(-c6c([H])c([H])c(Oc7c([H])c([H])c(F)c([H])c7F)c([H])c6[H])c(C(=O)N([H])[H])c5N([H])[H])C4([H])[H])C([H])([H])C3([H])[H])c([H])c([H])c2C1([H])[H]

$$$$
15:0:0
     RDKit          3D

 92101  0  0  1  0  0  0  0  0999 V2000
  -31.4490  -24.0710   18.7580 C   0  0  0  0  0  3  0  0  0  0  0  0
  -31.6990  -22.6990   18.6860 C   0  0  0  0  0  3  0  0  0  0  0  0
  -29.3760  -23.6970   19.7950 C   0  0  0  0  0  0  0  0  0  0  0  0
  -29.6560  -22.1970   19.7450 C   0  0  0  0  0  0  0  0  0  0  0  0
  -30.3140  -24.5500   19.2990 N   0  0  0  0  0  0  0  0  0  0  0  0
  -30.8200  -21.8010   19.1680 N   0  0  0  0  0  0  0  0  0  0  0  0
  -28.9850  -20.9580   20.1740 N   0  0  0  0  0  0  0  0  0  0  0  0
  -28.1090  -21.0720   20.6780 H   0  0  0  0  0  0  0  0  0  0  0  0
  -30.5170  -14.8890   19.9170 C   0  0  0  0  0  0  0  0  0  0  0  0
  -30.2520  -12.5710   18.9450 C   0  0  0  0  0  2  0  0  0  0  0  0
  -29.2450  -12.5680   17.7740 C   0  0  0  0  0  2  0  0  0  0  0  0
  -27.8130  -12.3680   18.3010 C   0  0  0  0  0  2  0  0  0  0  0  0
  -27.4970  -13.2760   19.5200 C   0  0  0  0  0  3  0  0  0  0  0  0
  -28.6250  -13.2780   20.5720 C   0  0  0  0  0  2  0  0  0  0  0  0
  -29.8540  -13.6670   19.8740 N   0  0  0  0  0  0  0  0  0  0  0  0
  -31.7040  -14.8870   19.5700 O   0  0  0  0  0  0  0  0  0  0  0  0
  -29.2440  -18.5720   18.9100 C   0  0  0  0  0  2  0  0  0  0  0  0
  -29.2640  -18.4870   21.2830 C   0  0  0  0  0  2  0  0  0  0  0  0
  -29.9420  -17.1170   18.8630 C   0  0  0  0  0  2  0  0  0  0  0  0
  -29.9520  -17.0210   21.2340 C   0  0  0  0  0  2  0  0  0  0  0  0
  -29.5930  -19.5060   20.1240 C   0  0  0  0  0  3  0  0  0  0  0  0
  -29.8250  -16.1390   20.0130 N   0  0  0  0  0  0  0  0  0  0  0  0
  -25.1860  -13.8490   20.4500 C   0  0  0  0  0  0  0  0  0  0  0  0
  -24.1410  -13.0720   20.8660 C   0  0  0  0  0  0  0  0  0  0  0  0
  -24.5850  -11.7180   20.7570 C   0  0  0  0  0  0  0  0  0  0  0  0
  -26.1980  -12.9700   20.1060 N   0  0  0  0  0  0  0  0  0  0  0  0
  -25.8520  -11.6810   20.3570 N   0  0  0  0  0  0  0  0  0  0  0  0
  -23.8580  -10.4570   20.9560 C   0  0  0  0  0  0  0  0  0  0  0  0
  -24.3070   -9.4810   21.8710 C   0  0  0  0  0  3  0  0  0  0  0  0
  -23.5800   -8.2850   22.0580 C   0  0  0  0  0  3  0  0  0  0  0  0
  -22.3880   -8.0570   21.3300 C   0  0  0  0  0  0  0  0  0  0  0  0
  -21.9570   -9.0240   20.4030 C   0  0  0  0  0  3  0  0  0  0  0  0
  -22.6850  -10.2100   20.2140 C   0  0  0  0  0  3  0  0  0  0  0  0
  -21.6280   -6.9170   21.4310 O   0  0  0  0  0  0  0  0  0  0  0  0
  -21.5600   -6.1970   22.5950 C   0  0  0  0  0  0  0  0  0  0  0  0
  -21.1080   -6.7740   23.8030 C   0  0  0  0  0  3  0  0  0  0  0  0
  -20.9860   -5.9790   24.9610 C   0  0  0  0  0  3  0  0  0  0  0  0
  -21.3080   -4.6100   24.9130 C   0  0  0  0  0  0  0  0  0  0  0  0
  -21.7500   -4.0320   23.7100 C   0  0  0  0  0  3  0  0  0  0  0  0
  -21.8740   -4.8230   22.5550 C   0  0  0  0  0  0  0  0  0  0  0  0
  -22.2820   -4.2560   21.3940 F   0  0  0  0  0  0  0  0  0  0  0  0
  -21.1830   -3.8450   26.0220 F   0  0  0  0  0  0  0  0  0  0  0  0
  -22.7700  -13.5540   21.2450 C   0  0  0  0  0  0  0  0  0  0  0  0
  -22.0950  -12.8410   22.1400 N   0  0  0  0  0  0  0  0  0  0  0  0
  -22.3100  -14.5960   20.7840 O   0  0  0  0  0  0  0  0  0  0  0  0
  -22.4820  -11.9980   22.5380 H   0  0  0  0  0  0  0  0  0  0  0  0
  -21.1780  -13.1440   22.4320 H   0  0  0  0  0  0  0  0  0  0  0  0
  -25.3550  -15.2240   20.3080 N   0  0  0  0  0  0  0  0  0  0  0  0
  -24.6120  -15.8850   20.5040 H   0  0  0  0  0  0  0  0  0  0  0  0
  -26.1980  -15.6660   19.9620 H   0  0  0  0  0  0  0  0  0  0  0  0
  -28.1620  -24.6720   20.2630 C   0  0  0  0  0  2  0  0  0  0  0  0
  -28.3300  -26.2220   20.1730 O   0  0  0  0  0  0  0  0  0  0  0  0
  -24.6360  -31.8380   23.1730 C   0  0  0  0  0  0  0  0  0  0  0  0
  -27.2370  -27.1540   20.1460 C   0  0  0  0  0  0  0  0  0  0  0  0
  -23.4410  -30.4390   21.5300 C   0  0  0  0  0  3  0  0  0  0  0  0
  -24.8950  -28.8680   20.1120 C   0  0  0  0  0  0  0  0  0  0  0  0
  -25.9920  -30.7200   21.3650 C   0  0  0  0  0  2  0  0  0  0  0  0
  -26.0710  -29.3290   20.7180 C   0  0  0  0  0  0  0  0  0  0  0  0
  -27.2440  -28.4880   20.7140 C   0  0  0  0  0  3  0  0  0  0  0  0
  -26.0340  -26.7870   19.5060 C   0  0  0  0  0  3  0  0  0  0  0  0
  -24.8890  -27.6100   19.4910 C   0  0  0  0  0  3  0  0  0  0  0  0
  -23.6640  -29.7600   20.1520 C   0  0  0  0  0  2  0  0  0  0  0  0
  -24.7100  -31.0220   22.0770 N   0  0  0  0  0  0  0  0  0  0  0  0
  -23.5480  -32.1170   23.7010 O   0  0  0  0  0  0  0  0  0  0  0  0
  -22.7650  -29.4300   22.4910 C   0  0  0  0  0  0  0  0  0  0  0  0
  -21.4350  -29.2710   22.3760 N   0  0  0  0  0  0  0  0  0  0  0  0
  -23.4410  -28.7900   23.3010 O   0  0  0  0  0  0  0  0  0  0  0  0
  -20.9480  -29.8390   21.6960 H   0  0  0  0  0  0  0  0  0  0  0  0
  -18.0450  -28.1140   22.9150 C   0  0  0  0  0  0  0  0  0  0  0  0
  -20.6110  -28.3340   23.1470 C   0  0  0  0  0  3  0  0  0  0  0  0
  -20.6820  -26.9100   22.5500 C   0  0  0  0  0  2  0  0  0  0  0  0
  -19.5590  -26.6170   21.5490 C   0  0  0  0  0  2  0  0  0  0  0  0
  -18.1900  -26.7740   22.2170 C   0  0  0  0  0  2  0  0  0  0  0  0
  -19.1810  -28.8550   23.3380 C   0  0  0  0  0  0  0  0  0  0  0  0
  -18.9890  -30.1110   23.9520 C   0  0  0  0  0  3  0  0  0  0  0  0
  -17.6930  -30.6280   24.1470 C   0  0  0  0  0  3  0  0  0  0  0  0
  -16.5720  -29.8840   23.7400 C   0  0  0  0  0  3  0  0  0  0  0  0
  -16.7500  -28.6290   23.1310 C   0  0  0  0  0  3  0  0  0  0  0  0
  -25.9110  -32.4760   23.8030 C   0  0  0  0  0  3  0  0  0  0  0  0
  -25.5870  -33.8660   24.1610 N   0  0  0  0  0  0  0  0  0  0  0  0
  -25.8860  -34.9380   23.4150 C   0  0  0  0  0  0  0  0  0  0  0  0
  -26.5300  -34.8610   22.3660 O   0  0  0  0  0  0  0  0  0  0  0  0
  -25.0130  -33.9970   24.9810 H   0  0  0  0  0  0  0  0  0  0  0  0
  -24.1170  -36.7090   23.1490 C   0  0  0  0  0  1  0  0  0  0  0  0
  -25.3930  -36.3120   23.9110 C   0  0  0  0  0  3  0  0  0  0  0  0
  -27.5400  -37.2240   24.6810 C   0  0  0  0  0  1  0  0  0  0  0  0
  -26.4050  -37.3840   23.7760 N   0  0  0  0  0  0  0  0  0  0  0  0
  -25.9890  -38.2960   23.9450 H   0  0  0  0  0  0  0  0  0  0  0  0
  -26.4350  -31.6910   25.0680 C   0  0  1  0  0  0  0  0  0  0  0  0
  -25.3480  -31.4300   26.1360 C   0  0  0  0  0  1  0  0  0  0  0  0
  -27.0280  -30.3250   24.6570 C   0  0  0  0  0  1  0  0  0  0  0  0
  -27.5830  -32.4850   25.7370 C   0  0  0  0  0  1  0  0  0  0  0  0
  1  5  1  0
  2  1  2  0
  2  6  1  0
  3 51  1  0
  4  3  1  0
  4  7  1  0
  5  3  2  0
  6  4  2  0
  7  8  1  0
  9 22  1  0
 10 15  1  0
 11 12  1  0
 11 10  1  0
 13 12  1  0
 13 26  1  0
 13 14  1  0
 15  9  1  0
 15 14  1  0
 16  9  2  0
 17 21  1  0
 19 17  1  0
 19 22  1  0
 20 18  1  0
 21  7  1  0
 21 18  1  0
 22 20  1  0
 23 24  2  0
 24 43  1  0
 25 24  1  0
 25 28  1  0
 26 27  1  0
 26 23  1  0
 27 25  2  0
 28 29  1  0
 29 30  2  0
 31 34  1  0
 31 30  1  0
 32 31  2  0
 33 32  1  0
 33 28  2  0
 34 35  1  0
 35 36  1  0
 36 37  2  0
 38 37  1  0
 38 42  1  0
 39 38  2  0
 40 35  2  0
 40 39  1  0
 41 40  1  0
 43 44  1  0
 44 47  1  0
 44 46  1  0
 45 43  2  0
 48 23  1  0
 48 49  1  0
 50 48  1  0
 52 51  1  0
 53 64  2  0
 54 52  1  0
 54 59  1  0
 55 63  1  0
 55 65  1  0
 56 62  1  0
 56 58  1  0
 57 63  1  0
 58 57  1  0
 59 58  2  0
 60 54  2  0
 61 60  1  0
 61 56  2  0
 62 55  1  0
 63 53  1  0
 65 67  2  0
 66 65  1  0
 68 66  1  0
 69 78  2  0
 69 74  1  0
 70 66  1  0
 70 74  1  0
 71 70  1  0
 72 73  1  0
 72 71  1  0
 73 69  1  0
 74 75  2  0
 75 76  1  0
 77 76  2  0
 78 77  1  0
 79 53  1  0
 79 80  1  0
 79 89  1  0
 80 83  1  0
 81 85  1  0
 81 80  1  0
 82 81  2  0
 85 84  1  0
 87 85  1  0
 87 88  1  0
 87 86  1  0
 89 92  1  1
 89 90  1  0
 91 89  1  0
M  ISO  4   9 100  22 100  51 101  52 101
M  END
>  <TORSDO>  (16) 
F 17

>  <SCORE>  (16) 
-14.537

>  <name>  (16) 
15

>  <ligand_id>  (16) 
15

>  <original_smiles>  (16) 
[H]c1nc(N([H])C2([H])C([H])([H])C([H])([H])N(C(=O)N3C([H])([H])C([H])([H])C([H])([H])C([H])(n4nc(-c5c([H])c([H])c(Oc6c([H])c([H])c(F)c([H])c6F)c([H])c5[H])c(C(=O)N([H])[H])c4N([H])[H])C3([H])[H])C([H])([H])C2([H])[H])c(C([H])([H])Oc2c([H])c([H])c3c(c2[H])C([H])([H])N(C(=O)C([H])(N([H])C(=O)C([H])(N([H])C([H])([H])[H])C([H])([H])[H])C(C([H])([H])[H])(C([H])([H])[H])C([H])([H])[H])C([H])(C(=O)N([H])C2([H])c4c([H])c([H])c([H])c([H])c4C([H])([H])C([H])([H])C2([H])[H])C3([H])[H])nc1[H]

>  <smiles>  (16) 
[H]c1nc(N([H])C2([H])C([H])([H])C([H])([H])N(C(=O)N3C([H])([H])C([H])([H])C([H])([H])C([H])(n4nc(-c5c([H])c([H])c(Oc6c([H])c([H])c(F)c([H])c6F)c([H])c5[H])c(C(=O)N([H])[H])c4N([H])[H])C3([H])[H])C([H])([H])C2([H])[H])c(C([H])([H])Oc2c([H])c([H])c3c(c2[H])C([H])([H])N(C(=O)C([H])(N([H])C(=O)C([H])(N([H])C([H])([H])[H])C([H])([H])[H])C(C([H])([H])[H])(C([H])([H])[H])C([H])([H])[H])C([H])(C(=O)N([H])C2([H])c4c([H])c([H])c([H])c([H])c4C([H])([H])C([H])([H])C2([H])[H])C3([H])[H])nc1[H]

$$$$
16:0:0
     RDKit          3D

 97106  0  0  1  0  0  0  0  0999 V2000
  -30.8040  -14.7120   20.5710 C   0  0  0  0  0  0  0  0  0  0  0  0
  -30.5380  -12.4180   19.5960 C   0  0  0  0  0  2  0  0  0  0  0  0
  -29.6720  -12.4380   18.3210 C   0  0  0  0  0  2  0  0  0  0  0  0
  -28.1880  -12.2650   18.6880 C   0  0  0  0  0  2  0  0  0  0  0  0
  -27.7540  -13.1840   19.8620 C   0  0  0  0  0  3  0  0  0  0  0  0
  -28.7680  -13.1800   21.0300 C   0  0  0  0  0  2  0  0  0  0  0  0
  -30.0700  -13.5380   20.4590 N   0  0  0  0  0  0  0  0  0  0  0  0
  -32.0200  -14.6070   20.3730 O   0  0  0  0  0  0  0  0  0  0  0  0
  -29.1690  -22.8230   19.4160 C   0  0  0  0  0  3  0  0  0  0  0  0
  -29.4760  -21.4140   19.3140 C   0  0  0  0  0  0  0  0  0  0  0  0
  -28.7080  -23.3730   20.6430 C   0  0  0  0  0  0  0  0  0  0  0  0
  -29.3080  -20.5420   20.4420 C   0  0  0  0  0  0  0  0  0  0  0  0
  -30.8180  -18.6280   21.0290 C   0  0  0  0  0  2  0  0  0  0  0  0
  -28.5590  -18.0980   20.7950 C   0  0  0  0  0  2  0  0  0  0  0  0
  -31.2540  -17.1690   20.6120 C   0  0  0  0  0  2  0  0  0  0  0  0
  -28.8870  -16.5490   20.4890 C   0  0  0  0  0  2  0  0  0  0  0  0
  -28.5900  -22.4760   21.6840 N   0  0  0  0  0  0  0  0  0  0  0  0
  -28.8780  -21.1410   21.5960 N   0  0  0  0  0  0  0  0  0  0  0  0
  -29.5780  -19.1000   20.4030 N   0  0  0  0  0  0  0  0  0  0  0  0
  -30.2780  -16.0250   20.6900 N   0  0  0  0  0  0  0  0  0  0  0  0
  -25.3370  -13.7760   20.4550 C   0  0  0  0  0  0  0  0  0  0  0  0
  -24.2580  -13.0080   20.7930 C   0  0  0  0  0  0  0  0  0  0  0  0
  -24.7280  -11.6590   20.8290 C   0  0  0  0  0  0  0  0  0  0  0  0
  -26.3950  -12.8970   20.3020 N   0  0  0  0  0  0  0  0  0  0  0  0
  -26.0340  -11.6210   20.5950 N   0  0  0  0  0  0  0  0  0  0  0  0
  -23.9970  -10.3990   21.0170 C   0  0  0  0  0  0  0  0  0  0  0  0
  -24.3890   -9.4550   21.9910 C   0  0  0  0  0  3  0  0  0  0  0  0
  -23.6570   -8.2610   22.1660 C   0  0  0  0  0  3  0  0  0  0  0  0
  -22.5170   -8.0030   21.3680 C   0  0  0  0  0  0  0  0  0  0  0  0
  -22.1440   -8.9360   20.3850 C   0  0  0  0  0  3  0  0  0  0  0  0
  -22.8770  -10.1210   20.2070 C   0  0  0  0  0  3  0  0  0  0  0  0
  -21.7590   -6.8610   21.4530 O   0  0  0  0  0  0  0  0  0  0  0  0
  -21.6690   -6.1400   22.6180 C   0  0  0  0  0  0  0  0  0  0  0  0
  -21.2050   -6.7210   23.8180 C   0  0  0  0  0  3  0  0  0  0  0  0
  -21.0630   -5.9280   24.9750 C   0  0  0  0  0  3  0  0  0  0  0  0
  -21.3750   -4.5550   24.9290 C   0  0  0  0  0  0  0  0  0  0  0  0
  -21.8300   -3.9740   23.7330 C   0  0  0  0  0  3  0  0  0  0  0  0
  -21.9740   -4.7650   22.5800 C   0  0  0  0  0  0  0  0  0  0  0  0
  -22.3940   -4.1960   21.4240 F   0  0  0  0  0  0  0  0  0  0  0  0
  -21.2300   -3.7910   26.0370 F   0  0  0  0  0  0  0  0  0  0  0  0
  -22.8470  -13.4890   20.9690 C   0  0  0  0  0  0  0  0  0  0  0  0
  -22.0770  -12.8270   21.8260 N   0  0  0  0  0  0  0  0  0  0  0  0
  -22.4350  -14.4880   20.3840 O   0  0  0  0  0  0  0  0  0  0  0  0
  -22.4220  -12.0190   22.3250 H   0  0  0  0  0  0  0  0  0  0  0  0
  -21.1290  -13.1350   21.9870 H   0  0  0  0  0  0  0  0  0  0  0  0
  -25.5000  -15.1410   20.2370 N   0  0  0  0  0  0  0  0  0  0  0  0
  -24.7220  -15.7880   20.2840 H   0  0  0  0  0  0  0  0  0  0  0  0
  -26.3520  -15.5680   19.9050 H   0  0  0  0  0  0  0  0  0  0  0  0
  -29.9280  -20.8640   17.9650 C   0  0  0  0  0  3  0  0  0  0  0  0
  -30.4670  -21.8480   17.2390 F   0  0  0  0  0  0  0  0  0  0  0  0
  -28.7620  -20.2460   17.1750 C   0  0  0  0  0  2  0  0  0  0  0  0
  -28.1600  -18.8640   15.2080 C   0  0  0  0  0  1  0  0  0  0  0  0
  -29.2340  -19.5310   15.9720 N   0  0  0  0  0  4  0  0  0  0  0  0
  -29.6960  -20.2000   15.3740 H   0  0  0  0  0  0  0  0  0  0  0  0
  -29.9140  -18.8400   16.2440 H   0  0  0  0  0  0  0  0  0  0  0  0
  -28.0480  -24.8360   20.8610 C   0  0  0  0  0  2  0  0  0  0  0  0
  -28.4260  -26.1600   20.2100 O   0  0  0  0  0  0  0  0  0  0  0  0
  -24.6580  -31.7050   23.1100 C   0  0  0  0  0  0  0  0  0  0  0  0
  -27.3780  -27.1170   20.1240 C   0  0  0  0  0  0  0  0  0  0  0  0
  -23.5180  -30.3060   21.4280 C   0  0  0  0  0  3  0  0  0  0  0  0
  -25.0260  -28.7770   20.0300 C   0  0  0  0  0  0  0  0  0  0  0  0
  -26.0660  -30.6280   21.3310 C   0  0  0  0  0  2  0  0  0  0  0  0
  -26.1770  -29.2490   20.6770 C   0  0  0  0  0  0  0  0  0  0  0  0
  -27.3590  -28.4310   20.7130 C   0  0  0  0  0  3  0  0  0  0  0  0
  -26.2160  -26.7390   19.4190 C   0  0  0  0  0  3  0  0  0  0  0  0
  -25.0530  -27.5320   19.3860 C   0  0  0  0  0  3  0  0  0  0  0  0
  -23.7830  -29.6470   20.0490 C   0  0  0  0  0  2  0  0  0  0  0  0
  -24.7640  -30.8990   22.0120 N   0  0  0  0  0  0  0  0  0  0  0  0
  -23.5540  -31.9700   23.6130 O   0  0  0  0  0  0  0  0  0  0  0  0
  -22.8340  -29.2780   22.3620 C   0  0  0  0  0  0  0  0  0  0  0  0
  -21.5090  -29.1070   22.2130 N   0  0  0  0  0  0  0  0  0  0  0  0
  -23.4970  -28.6380   23.1830 O   0  0  0  0  0  0  0  0  0  0  0  0
  -21.0320  -29.6730   21.5240 H   0  0  0  0  0  0  0  0  0  0  0  0
  -18.1130  -27.9440   22.6870 C   0  0  0  0  0  0  0  0  0  0  0  0
  -20.6750  -28.1590   22.9580 C   0  0  0  0  0  3  0  0  0  0  0  0
  -20.7560  -26.7430   22.3430 C   0  0  0  0  0  2  0  0  0  0  0  0
  -19.6470  -26.4660   21.3220 C   0  0  0  0  0  2  0  0  0  0  0  0
  -18.2690  -26.6130   21.9730 C   0  0  0  0  0  2  0  0  0  0  0  0
  -19.2430  -28.6780   23.1380 C   0  0  0  0  0  0  0  0  0  0  0  0
  -19.0430  -29.9250   23.7680 C   0  0  0  0  0  3  0  0  0  0  0  0
  -17.7450  -30.4380   23.9510 C   0  0  0  0  0  3  0  0  0  0  0  0
  -16.6290  -29.7020   23.5170 C   0  0  0  0  0  3  0  0  0  0  0  0
  -16.8140  -28.4560   22.8910 C   0  0  0  0  0  3  0  0  0  0  0  0
  -25.9130  -32.3480   23.7740 C   0  0  0  0  0  3  0  0  0  0  0  0
  -26.4150  -31.5590   25.0450 C   0  0  1  0  0  0  0  0  0  0  0  0
  -25.3040  -31.2820   26.0850 C   0  0  0  0  0  1  0  0  0  0  0  0
  -27.0290  -30.1980   24.6420 C   0  0  0  0  0  1  0  0  0  0  0  0
  -27.5390  -32.3580   25.7470 C   0  0  0  0  0  1  0  0  0  0  0  0
  -25.5680  -33.7330   24.1300 N   0  0  0  0  0  0  0  0  0  0  0  0
  -25.8810  -34.8090   23.3960 C   0  0  0  0  0  0  0  0  0  0  0  0
  -26.5570  -34.7420   22.3660 O   0  0  0  0  0  0  0  0  0  0  0  0
  -24.9610  -33.8570   24.9270 H   0  0  0  0  0  0  0  0  0  0  0  0
  -24.1020  -36.5630   23.0860 C   0  0  0  0  0  1  0  0  0  0  0  0
  -25.3600  -36.1780   23.8800 C   0  0  0  0  0  3  0  0  0  0  0  0
  -27.4760  -37.1070   24.7100 C   0  0  0  0  0  1  0  0  0  0  0  0
  -26.3630  -37.2610   23.7770 N   0  0  0  0  0  0  0  0  0  0  0  0
  -25.9340  -38.1670   23.9410 H   0  0  0  0  0  0  0  0  0  0  0  0
  1 20  1  0
  2  7  1  0
  3  4  1  0
  3  2  1  0
  5  4  1  0
  5 24  1  0
  5  6  1  0
  7  1  1  0
  7  6  1  0
  8  1  2  0
  9 11  1  0
 10  9  2  0
 10 12  1  0
 11 56  1  0
 11 17  2  0
 12 18  2  0
 15 20  1  0
 15 13  1  0
 16 20  1  0
 16 14  1  0
 18 17  1  0
 19 12  1  0
 19 14  1  0
 19 13  1  0
 21 22  2  0
 22 23  1  0
 22 41  1  0
 23 26  1  0
 24 21  1  0
 24 25  1  0
 25 23  2  0
 26 27  1  0
 27 28  2  0
 29 32  1  0
 29 28  1  0
 30 29  2  0
 31 30  1  0
 31 26  2  0
 32 33  1  0
 33 34  1  0
 34 35  2  0
 36 35  1  0
 36 40  1  0
 37 36  2  0
 38 33  2  0
 38 37  1  0
 39 38  1  0
 41 42  1  0
 42 45  1  0
 42 44  1  0
 43 41  2  0
 46 47  1  0
 46 21  1  0
 48 46  1  0
 49 50  1  0
 49 10  1  0
 51 49  1  0
 52 53  1  0
 53 55  1  0
 53 51  1  0
 54 53  1  0
 57 56  1  0
 58 69  2  0
 59 57  1  0
 59 64  1  0
 60 68  1  0
 60 70  1  0
 61 67  1  0
 61 63  1  0
 62 68  1  0
 63 64  2  0
 63 62  1  0
 65 59  2  0
 66 65  1  0
 66 61  2  0
 67 60  1  0
 68 58  1  0
 70 72  2  0
 71 70  1  0
 73 71  1  0
 74 83  2  0
 74 79  1  0
 75 71  1  0
 75 79  1  0
 76 75  1  0
 77 78  1  0
 77 76  1  0
 78 74  1  0
 79 80  2  0
 80 81  1  0
 82 81  2  0
 83 82  1  0
 84 58  1  0
 84 89  1  0
 84 85  1  0
 85 88  1  1
 85 86  1  0
 87 85  1  0
 89 92  1  0
 90 94  1  0
 90 89  1  0
 91 90  2  0
 94 93  1  0
 96 94  1  0
 96 97  1  0
 96 95  1  0
M  ISO  4   1 100  20 100  56 101  57 101
M  END
>  <TORSDO>  (17) 
F 19

>  <SCORE>  (17) 
-14.123

>  <name>  (17) 
16

>  <ligand_id>  (17) 
16

>  <original_smiles>  (17) 
[H]c1c([H])c([H])c2c(c1[H])C([H])([H])C([H])([H])C([H])([H])C2([H])N([H])C(=O)C1([H])N(C(=O)C([H])(N([H])C(=O)C([H])(N([H])C([H])([H])[H])C([H])([H])[H])C(C([H])([H])[H])(C([H])([H])[H])C([H])([H])[H])C([H])([H])c2c([H])c(OC([H])([H])c3nnc(N4C([H])([H])C([H])([H])N(C(=O)N5C([H])([H])C([H])([H])C([H])([H])C([H])(n6nc(-c7c([H])c([H])c(Oc8c([H])c([H])c(F)c([H])c8F)c([H])c7[H])c(C(=O)N([H])[H])c6N([H])[H])C5([H])[H])C([H])([H])C4([H])[H])c(C([H])(F)C([H])([H])[N+]([H])([H])C([H])([H])[H])c3[H])c([H])c([H])c2C1([H])[H]

>  <smiles>  (17) 
[H]c1c([H])c([H])c2c(c1[H])C([H])([H])C([H])([H])C([H])([H])C2([H])N([H])C(=O)C1([H])N(C(=O)C([H])(N([H])C(=O)C([H])(N([H])C([H])([H])[H])C([H])([H])[H])C(C([H])([H])[H])(C([H])([H])[H])C([H])([H])[H])C([H])([H])c2c([H])c(OC([H])([H])c3nnc(N4C([H])([H])C([H])([H])N(C(=O)N5C([H])([H])C([H])([H])C([H])([H])C([H])(n6nc(-c7c([H])c([H])c(Oc8c([H])c([H])c(F)c([H])c8F)c([H])c7[H])c(C(=O)N([H])[H])c6N([H])[H])C5([H])[H])C([H])([H])C4([H])[H])c(C([H])(F)C([H])([H])[N+]([H])([H])C([H])([H])[H])c3[H])c([H])c([H])c2C1([H])[H]

$$$$
17:0:0
     RDKit          3D

 87 95  0  0  1  0  0  0  0  0999 V2000
  -29.1340  -21.2790   20.4130 N   0  0  0  0  0  4  0  0  0  0  0  0
  -29.7710  -21.3230   21.1920 H   0  0  0  0  0  0  0  0  0  0  0  0
  -28.2240  -21.1420   20.8220 H   0  0  0  0  0  0  0  0  0  0  0  0
  -29.4820  -19.8150   19.6770 C   0  0  0  0  0  2  0  0  0  0  0  0
  -30.5730  -15.3420   19.8260 C   0  0  0  0  0  0  0  0  0  0  0  0
  -30.5300  -12.9320   18.7980 C   0  0  0  0  0  2  0  0  0  0  0  0
  -29.4820  -12.7190   17.6700 C   0  0  0  0  0  2  0  0  0  0  0  0
  -28.0680  -12.4630   18.2360 C   0  0  0  0  0  2  0  0  0  0  0  0
  -27.7490  -13.3640   19.4550 C   0  0  0  0  0  3  0  0  0  0  0  0
  -28.9160  -13.3660   20.4570 C   0  0  0  0  0  2  0  0  0  0  0  0
  -30.0370  -14.0120   19.7390 N   0  0  0  0  0  0  0  0  0  0  0  0
  -31.7720  -15.3600   19.4960 O   0  0  0  0  0  0  0  0  0  0  0  0
  -29.0140  -17.8720   21.5870 C   0  0  0  0  0  2  0  0  0  0  0  0
  -28.5070  -16.7050   20.7340 C   0  0  0  0  0  2  0  0  0  0  0  0
  -29.9490  -18.2610   20.4570 C   0  0  0  0  0  3  0  0  0  0  0  0
  -29.8120  -16.6280   20.0480 N   0  0  0  0  0  0  0  0  0  0  0  0
  -25.4420  -13.9100   20.4190 C   0  0  0  0  0  0  0  0  0  0  0  0
  -24.4090  -13.1200   20.8370 C   0  0  0  0  0  0  0  0  0  0  0  0
  -24.8640  -11.7740   20.7110 C   0  0  0  0  0  0  0  0  0  0  0  0
  -26.4610  -13.0450   20.0600 N   0  0  0  0  0  0  0  0  0  0  0  0
  -26.1270  -11.7480   20.2980 N   0  0  0  0  0  0  0  0  0  0  0  0
  -24.1470  -10.5060   20.9100 C   0  0  0  0  0  0  0  0  0  0  0  0
  -24.5810   -9.5560   21.8600 C   0  0  0  0  0  3  0  0  0  0  0  0
  -23.8610   -8.3590   22.0570 C   0  0  0  0  0  3  0  0  0  0  0  0
  -22.6890   -8.1050   21.3020 C   0  0  0  0  0  0  0  0  0  0  0  0
  -22.2750   -9.0420   20.3410 C   0  0  0  0  0  3  0  0  0  0  0  0
  -22.9970  -10.2300   20.1430 C   0  0  0  0  0  3  0  0  0  0  0  0
  -21.9380   -6.9580   21.4090 O   0  0  0  0  0  0  0  0  0  0  0  0
  -21.7980   -6.3010   22.6040 C   0  0  0  0  0  0  0  0  0  0  0  0
  -21.2410   -6.9290   23.7390 C   0  0  0  0  0  3  0  0  0  0  0  0
  -21.0500   -6.1920   24.9260 C   0  0  0  0  0  3  0  0  0  0  0  0
  -21.4030   -4.8300   24.9770 C   0  0  0  0  0  0  0  0  0  0  0  0
  -21.9530   -4.2040   23.8450 C   0  0  0  0  0  3  0  0  0  0  0  0
  -22.1440   -4.9360   22.6600 C   0  0  0  0  0  0  0  0  0  0  0  0
  -22.6550   -4.3210   21.5660 F   0  0  0  0  0  0  0  0  0  0  0  0
  -21.2090   -4.1220   26.1140 F   0  0  0  0  0  0  0  0  0  0  0  0
  -23.0450  -13.5920   21.2360 C   0  0  0  0  0  0  0  0  0  0  0  0
  -22.3920  -12.8680   22.1360 N   0  0  0  0  0  0  0  0  0  0  0  0
  -22.5750  -14.6390   20.7890 O   0  0  0  0  0  0  0  0  0  0  0  0
  -22.7990  -12.0250   22.5160 H   0  0  0  0  0  0  0  0  0  0  0  0
  -21.4810  -13.1630   22.4570 H   0  0  0  0  0  0  0  0  0  0  0  0
  -25.5600  -15.2910   20.2930 N   0  0  0  0  0  0  0  0  0  0  0  0
  -24.7640  -15.8920   20.4960 H   0  0  0  0  0  0  0  0  0  0  0  0
  -26.3320  -15.8000   19.8870 H   0  0  0  0  0  0  0  0  0  0  0  0
  -29.0900  -22.8410   19.8220 C   0  0  0  0  0  3  0  0  0  0  0  0
  -28.3140  -24.3180   20.4940 C   0  0  0  0  0  3  0  0  0  0  0  0
  -28.4610  -25.9430   20.2690 O   0  0  0  0  0  0  0  0  0  0  0  0
  -24.7540  -31.8390   23.1910 C   0  0  0  0  0  0  0  0  0  0  0  0
  -27.3990  -26.9820   20.2600 C   0  0  0  0  0  0  0  0  0  0  0  0
  -23.5890  -30.4180   21.5500 C   0  0  0  0  0  3  0  0  0  0  0  0
  -25.0640  -28.8070   20.1730 C   0  0  0  0  0  0  0  0  0  0  0  0
  -26.1510  -30.6620   21.4210 C   0  0  0  0  0  2  0  0  0  0  0  0
  -26.2440  -29.2450   20.7910 C   0  0  0  0  0  0  0  0  0  0  0  0
  -27.4060  -28.3550   20.8030 C   0  0  0  0  0  3  0  0  0  0  0  0
  -26.1830  -26.6790   19.6080 C   0  0  0  0  0  3  0  0  0  0  0  0
  -25.0560  -27.5410   19.5620 C   0  0  0  0  0  3  0  0  0  0  0  0
  -23.8400  -29.7200   20.1850 C   0  0  0  0  0  2  0  0  0  0  0  0
  -24.8510  -31.0000   22.1090 N   0  0  0  0  0  0  0  0  0  0  0  0
  -23.6570  -32.1210   23.7020 O   0  0  0  0  0  0  0  0  0  0  0  0
  -22.8920  -29.4250   22.5190 C   0  0  0  0  0  0  0  0  0  0  0  0
  -21.5620  -29.2620   22.3930 N   0  0  0  0  0  0  0  0  0  0  0  0
  -23.5570  -28.8040   23.3500 O   0  0  0  0  0  0  0  0  0  0  0  0
  -21.0790  -29.8180   21.7010 H   0  0  0  0  0  0  0  0  0  0  0  0
  -18.1790  -28.0510   22.8930 C   0  0  0  0  0  0  0  0  0  0  0  0
  -20.7370  -28.3260   23.1640 C   0  0  0  0  0  3  0  0  0  0  0  0
  -20.8440  -26.8910   22.5980 C   0  0  0  0  0  2  0  0  0  0  0  0
  -19.7470  -26.5580   21.5810 C   0  0  0  0  0  2  0  0  0  0  0  0
  -18.3640  -26.6990   22.2220 C   0  0  0  0  0  2  0  0  0  0  0  0
  -19.2940  -28.8210   23.3220 C   0  0  0  0  0  0  0  0  0  0  0  0
  -19.0680  -30.0800   23.9180 C   0  0  0  0  0  3  0  0  0  0  0  0
  -17.7610  -30.5740   24.0840 C   0  0  0  0  0  3  0  0  0  0  0  0
  -16.6610  -29.8040   23.6680 C   0  0  0  0  0  3  0  0  0  0  0  0
  -16.8700  -28.5450   23.0790 C   0  0  0  0  0  3  0  0  0  0  0  0
  -26.0120  -32.4960   23.8330 C   0  0  0  0  0  3  0  0  0  0  0  0
  -26.5100  -31.7430   25.1280 C   0  0  1  0  0  0  0  0  0  0  0  0
  -25.4000  -31.5030   26.1790 C   0  0  0  0  0  1  0  0  0  0  0  0
  -27.1170  -30.3690   24.7650 C   0  0  0  0  0  1  0  0  0  0  0  0
  -27.6380  -32.5570   25.8060 C   0  0  0  0  0  1  0  0  0  0  0  0
  -25.6760  -33.8930   24.1600 N   0  0  0  0  0  0  0  0  0  0  0  0
  -26.0090  -34.9570   23.4140 C   0  0  0  0  0  0  0  0  0  0  0  0
  -26.6910  -34.8640   22.3910 O   0  0  0  0  0  0  0  0  0  0  0  0
  -25.0680  -34.0360   24.9510 H   0  0  0  0  0  0  0  0  0  0  0  0
  -24.2740  -36.7480   23.0610 C   0  0  0  0  0  1  0  0  0  0  0  0
  -25.5110  -36.3430   23.8760 C   0  0  0  0  0  3  0  0  0  0  0  0
  -27.6290  -37.2510   24.7310 C   0  0  0  0  0  1  0  0  0  0  0  0
  -26.5400  -37.4010   23.7690 N   0  0  0  0  0  0  0  0  0  0  0  0
  -26.1270  -38.3220   23.8970 H   0  0  0  0  0  0  0  0  0  0  0  0
  1  3  1  0
  1  2  1  0
  4  1  1  0
  5 16  1  0
  6 11  1  0
  7  8  1  0
  7  6  1  0
  9  8  1  0
  9 20  1  0
  9 10  1  0
 11  5  1  0
 11 10  1  0
 12  5  2  0
 14 13  1  0
 15  4  1  0
 15 13  1  0
 16 15  1  0
 16 14  1  0
 17 18  2  0
 18 37  1  0
 19 18  1  0
 19 22  1  0
 20 21  1  0
 20 17  1  0
 21 19  2  0
 22 23  1  0
 23 24  2  0
 25 28  1  0
 25 24  1  0
 26 25  2  0
 27 26  1  0
 27 22  2  0
 28 29  1  0
 29 34  2  0
 29 30  1  0
 30 31  2  0
 31 32  1  0
 32 36  1  0
 33 32  2  0
 34 33  1  0
 35 34  1  0
 37 38  1  0
 38 41  1  0
 38 40  1  0
 39 37  2  0
 42 17  1  0
 42 43  1  0
 44 42  1  0
 45  1  1  0
 45 46  2  0
 47 46  1  0
 48 59  2  0
 49 47  1  0
 49 54  1  0
 50 58  1  0
 50 60  1  0
 51 57  1  0
 51 53  1  0
 52 58  1  0
 53 54  2  0
 53 52  1  0
 55 49  2  0
 56 55  1  0
 56 51  2  0
 57 50  1  0
 58 48  1  0
 60 62  2  0
 61 60  1  0
 63 61  1  0
 64 73  2  0
 64 69  1  0
 65 61  1  0
 65 69  1  0
 66 65  1  0
 67 68  1  0
 67 66  1  0
 68 64  1  0
 69 70  2  0
 70 71  1  0
 72 71  2  0
 73 72  1  0
 74 48  1  0
 74 79  1  0
 74 75  1  0
 75 78  1  1
 75 76  1  0
 77 75  1  0
 79 82  1  0
 80 84  1  0
 80 79  1  0
 81 80  2  0
 84 83  1  0
 86 84  1  0
 86 87  1  0
 86 85  1  0
M  ISO  4   5 100  16 100  46 101  47 101
M  END
>  <TORSDO>  (18) 
F 19

>  <SCORE>  (18) 
-14.549

>  <name>  (18) 
17

>  <ligand_id>  (18) 
17

>  <original_smiles>  (18) 
[H]c1c([H])c([H])c2c(c1[H])C([H])([H])C([H])([H])C([H])([H])C2([H])N([H])C(=O)C1([H])N(C(=O)C([H])(N([H])C(=O)C([H])(N([H])C([H])([H])[H])C([H])([H])[H])C(C([H])([H])[H])(C([H])([H])[H])C([H])([H])[H])C([H])([H])c2c([H])c(OC([H])([H])C([H])([H])[N+]([H])([H])C([H])([H])C3([H])N(C(=O)N4C([H])([H])C([H])([H])C([H])([H])C([H])(n5nc(-c6c([H])c([H])c(Oc7c([H])c([H])c(F)c([H])c7F)c([H])c6[H])c(C(=O)N([H])[H])c5N([H])[H])C4([H])[H])C([H])([H])C3([H])[H])c([H])c([H])c2C1([H])[H]

>  <smiles>  (18) 
[H]c1c([H])c([H])c2c(c1[H])C([H])([H])C([H])([H])C([H])([H])C2([H])N([H])C(=O)C1([H])N(C(=O)C([H])(N([H])C(=O)C([H])(N([H])C([H])([H])[H])C([H])([H])[H])C(C([H])([H])[H])(C([H])([H])[H])C([H])([H])[H])C([H])([H])c2c([H])c(OC([H])([H])C([H])([H])[N+]([H])([H])C([H])([H])C3([H])N(C(=O)N4C([H])([H])C([H])([H])C([H])([H])C([H])(n5nc(-c6c([H])c([H])c(Oc7c([H])c([H])c(F)c([H])c7F)c([H])c6[H])c(C(=O)N([H])[H])c5N([H])[H])C4([H])[H])C([H])([H])C3([H])[H])c([H])c([H])c2C1([H])[H]

$$$$
18:0:0
     RDKit          3D

 94103  0  0  1  0  0  0  0  0999 V2000
  -28.5880  -21.0610   21.7830 C   0  0  0  0  0  2  0  0  0  0  0  0
  -29.2630  -22.2950   20.0350 C   0  0  0  0  0  3  0  0  0  0  0  0
  -29.8000  -20.8870   20.8120 C   0  0  0  0  0  3  0  0  0  0  0  0
  -28.0400  -22.2530   20.9760 C   0  0  0  0  0  3  0  0  0  0  0  0
  -25.6120  -22.8080   20.9460 C   0  0  0  0  0  1  0  0  0  0  0  0
  -26.7170  -22.0640   20.3100 N   0  0  0  0  0  4  0  0  0  0  0  0
  -26.7740  -22.4220   19.3670 H   0  0  0  0  0  0  0  0  0  0  0  0
  -26.4480  -21.0940   20.2320 H   0  0  0  0  0  0  0  0  0  0  0  0
  -28.9240  -18.4870   20.2280 C   0  0  0  0  0  2  0  0  0  0  0  0
  -30.2320  -18.0450   20.8940 C   0  0  0  0  0  3  0  0  0  0  0  0
  -29.9840  -19.4370   20.1490 N   0  0  2  0  0  4  0  0  0  0  0  0
  -30.4310  -19.4580   19.2470 H   0  0  0  0  0  0  0  0  0  0  0  0
  -31.0490  -15.4080   20.6940 C   0  0  0  0  0  0  0  0  0  0  0  0
  -31.0400  -13.0310   19.8290 C   0  0  0  0  0  2  0  0  0  0  0  0
  -30.1820  -12.9530   18.5430 C   0  0  0  0  0  2  0  0  0  0  0  0
  -28.6930  -12.7360   18.8860 C   0  0  0  0  0  2  0  0  0  0  0  0
  -28.2010  -13.6910   20.0040 C   0  0  0  0  0  3  0  0  0  0  0  0
  -29.1820  -13.7410   21.1930 C   0  0  0  0  0  2  0  0  0  0  0  0
  -30.4920  -14.1360   20.6530 N   0  0  0  0  0  0  0  0  0  0  0  0
  -32.2750  -15.5250   20.5930 O   0  0  0  0  0  0  0  0  0  0  0  0
  -30.1770  -16.5130   20.6240 N   0  0  0  0  0  0  0  0  0  0  0  0
  -29.2290  -16.1920   20.5250 H   0  0  0  0  0  0  0  0  0  0  0  0
  -25.8030  -14.2830   20.6830 C   0  0  0  0  0  0  0  0  0  0  0  0
  -24.7130  -13.5130   20.9660 C   0  0  0  0  0  0  0  0  0  0  0  0
  -25.1550  -12.1530   20.8880 C   0  0  0  0  0  0  0  0  0  0  0  0
  -26.8400  -13.4000   20.4360 N   0  0  0  0  0  0  0  0  0  0  0  0
  -26.4560  -12.1110   20.6250 N   0  0  0  0  0  0  0  0  0  0  0  0
  -24.4000  -10.8960   20.9730 C   0  0  0  0  0  0  0  0  0  0  0  0
  -24.7570   -9.8760   21.8810 C   0  0  0  0  0  3  0  0  0  0  0  0
  -23.9980   -8.6870   21.9540 C   0  0  0  0  0  3  0  0  0  0  0  0
  -22.8710   -8.5160   21.1180 C   0  0  0  0  0  0  0  0  0  0  0  0
  -22.5330   -9.5240   20.2020 C   0  0  0  0  0  3  0  0  0  0  0  0
  -23.2950  -10.7020   20.1250 C   0  0  0  0  0  3  0  0  0  0  0  0
  -22.0910   -7.3850   21.1090 O   0  0  0  0  0  0  0  0  0  0  0  0
  -21.9190   -6.6190   22.2320 C   0  0  0  0  0  0  0  0  0  0  0  0
  -21.3800   -7.1520   23.4250 C   0  0  0  0  0  3  0  0  0  0  0  0
  -21.1560   -6.3070   24.5330 C   0  0  0  0  0  3  0  0  0  0  0  0
  -21.4600   -4.9400   24.4470 C   0  0  0  0  0  0  0  0  0  0  0  0
  -21.9890   -4.4070   23.2570 C   0  0  0  0  0  3  0  0  0  0  0  0
  -22.2130   -5.2440   22.1510 C   0  0  0  0  0  0  0  0  0  0  0  0
  -22.7050   -4.7220   21.0020 F   0  0  0  0  0  0  0  0  0  0  0  0
  -21.2350   -4.1290   25.5070 F   0  0  0  0  0  0  0  0  0  0  0  0
  -23.3110  -14.0010   21.1950 C   0  0  0  0  0  0  0  0  0  0  0  0
  -22.5320  -13.2780   21.9950 N   0  0  0  0  0  0  0  0  0  0  0  0
  -22.9130  -15.0570   20.7060 O   0  0  0  0  0  0  0  0  0  0  0  0
  -22.8640  -12.4160   22.3970 H   0  0  0  0  0  0  0  0  0  0  0  0
  -21.5910  -13.5850   22.1890 H   0  0  0  0  0  0  0  0  0  0  0  0
  -25.9920  -15.6570   20.5730 N   0  0  0  0  0  0  0  0  0  0  0  0
  -25.1810  -16.2660   20.5190 H   0  0  0  0  0  0  0  0  0  0  0  0
  -26.8030  -16.0560   20.1230 H   0  0  0  0  0  0  0  0  0  0  0  0
  -31.0370  -23.9220   18.9430 C   0  0  0  0  0  1  0  0  0  0  0  0
  -29.8940  -23.8570   19.9710 C   0  0  0  0  0  3  0  0  0  0  0  0
  -28.9040  -25.1930   19.7240 C   0  0  0  0  0  2  0  0  0  0  0  0
  -29.1860  -26.6830   20.0510 O   0  0  0  0  0  0  0  0  0  0  0  0
  -25.3860  -31.6540   23.9340 C   0  0  0  0  0  0  0  0  0  0  0  0
  -28.1170  -27.6420   20.1410 C   0  0  0  0  0  0  0  0  0  0  0  0
  -24.2590  -30.6010   22.0100 C   0  0  0  0  0  3  0  0  0  0  0  0
  -25.7740  -29.3470   20.3590 C   0  0  0  0  0  0  0  0  0  0  0  0
  -26.8160  -30.9050   21.9960 C   0  0  0  0  0  2  0  0  0  0  0  0
  -26.9260  -29.6690   21.0880 C   0  0  0  0  0  0  0  0  0  0  0  0
  -28.1020  -28.8410   20.9560 C   0  0  0  0  0  3  0  0  0  0  0  0
  -26.9370  -27.4260   19.3920 C   0  0  0  0  0  3  0  0  0  0  0  0
  -25.7950  -28.2460   19.4930 C   0  0  0  0  0  3  0  0  0  0  0  0
  -24.5370  -30.2140   20.5360 C   0  0  0  0  0  2  0  0  0  0  0  0
  -25.5060  -31.0620   22.7070 N   0  0  0  0  0  0  0  0  0  0  0  0
  -24.2760  -31.8250   24.4660 O   0  0  0  0  0  0  0  0  0  0  0  0
  -23.5570  -29.4220   22.7280 C   0  0  0  0  0  0  0  0  0  0  0  0
  -22.2530  -29.2290   22.4580 N   0  0  0  0  0  0  0  0  0  0  0  0
  -24.1890  -28.6900   23.4920 O   0  0  0  0  0  0  0  0  0  0  0  0
  -21.7960  -29.8810   21.8390 H   0  0  0  0  0  0  0  0  0  0  0  0
  -18.9030  -27.8550   22.4610 C   0  0  0  0  0  0  0  0  0  0  0  0
  -21.4180  -28.1460   22.9850 C   0  0  0  0  0  3  0  0  0  0  0  0
  -21.6260  -26.8370   22.1880 C   0  0  0  0  0  2  0  0  0  0  0  0
  -20.6210  -26.6580   21.0440 C   0  0  0  0  0  2  0  0  0  0  0  0
  -19.1890  -26.6480   21.5850 C   0  0  0  0  0  2  0  0  0  0  0  0
  -19.9480  -28.5680   23.1050 C   0  0  0  0  0  0  0  0  0  0  0  0
  -19.6240  -29.7020   23.8820 C   0  0  0  0  0  3  0  0  0  0  0  0
  -18.2870  -30.1220   24.0210 C   0  0  0  0  0  3  0  0  0  0  0  0
  -17.2560  -29.4060   23.3910 C   0  0  0  0  0  3  0  0  0  0  0  0
  -17.5640  -28.2730   22.6160 C   0  0  0  0  0  3  0  0  0  0  0  0
  -26.6310  -32.1570   24.7250 C   0  0  0  0  0  3  0  0  0  0  0  0
  -26.9180  -31.3150   26.0300 C   0  0  1  0  0  0  0  0  0  0  0  0
  -25.6870  -31.1590   26.9540 C   0  0  0  0  0  1  0  0  0  0  0  0
  -27.4220  -29.8970   25.6690 C   0  0  0  0  0  1  0  0  0  0  0  0
  -28.0460  -31.9880   26.8480 C   0  0  0  0  0  1  0  0  0  0  0  0
  -26.4020  -33.5680   25.0660 N   0  0  0  0  0  0  0  0  0  0  0  0
  -26.9210  -34.6100   24.4050 C   0  0  0  0  0  0  0  0  0  0  0  0
  -27.7060  -34.4770   23.4620 O   0  0  0  0  0  0  0  0  0  0  0  0
  -25.7190  -33.7520   25.7870 H   0  0  0  0  0  0  0  0  0  0  0  0
  -25.4510  -36.5920   23.8940 C   0  0  0  0  0  1  0  0  0  0  0  0
  -26.5050  -36.0230   24.8580 C   0  0  0  0  0  3  0  0  0  0  0  0
  -28.5560  -36.6640   26.0530 C   0  0  0  0  0  1  0  0  0  0  0  0
  -27.6410  -36.9680   24.9560 N   0  0  0  0  0  0  0  0  0  0  0  0
  -27.3080  -37.9220   25.0730 H   0  0  0  0  0  0  0  0  0  0  0  0
  2 52  1  0
  2  3  1  0
  2  4  1  0
  3  1  1  0
  4  6  1  0
  4  1  1  0
  6  5  1  0
  7  6  1  0
  8  6  1  0
  9 10  1  0
 10 21  1  0
 11 12  1  6
 11  9  1  0
 11  3  1  0
 11 10  1  0
 14 19  1  0
 15 16  1  0
 15 14  1  0
 17 16  1  0
 17 26  1  0
 17 18  1  0
 19 13  1  0
 19 18  1  0
 20 13  2  0
 21 13  1  0
 22 21  1  0
 23 24  2  0
 24 43  1  0
 25 24  1  0
 25 28  1  0
 26 27  1  0
 26 23  1  0
 27 25  2  0
 28 29  1  0
 29 30  2  0
 31 30  1  0
 32 31  2  0
 33 32  1  0
 33 28  2  0
 34 31  1  0
 34 35  1  0
 35 36  1  0
 36 37  2  0
 38 37  1  0
 38 42  1  0
 39 38  2  0
 40 35  2  0
 40 39  1  0
 41 40  1  0
 43 44  1  0
 44 47  1  0
 44 46  1  0
 45 43  2  0
 48 23  1  0
 49 48  1  0
 50 48  1  0
 52 51  1  0
 53 52  1  0
 53 54  1  0
 54 56  1  0
 55 66  2  0
 56 61  1  0
 57 65  1  0
 57 67  1  0
 58 64  1  0
 58 60  1  0
 59 65  1  0
 60 59  1  0
 61 60  2  0
 62 63  1  0
 62 56  2  0
 63 58  2  0
 64 57  1  0
 65 55  1  0
 67 69  2  0
 68 67  1  0
 70 68  1  0
 71 80  2  0
 71 76  1  0
 72 68  1  0
 72 76  1  0
 73 72  1  0
 74 75  1  0
 74 73  1  0
 75 71  1  0
 76 77  2  0
 77 78  1  0
 79 78  2  0
 80 79  1  0
 81 55  1  0
 81 86  1  0
 81 82  1  0
 82 85  1  1
 82 83  1  0
 84 82  1  0
 86 89  1  0
 87 91  1  0
 87 86  1  0
 88 87  2  0
 91 90  1  0
 91 93  1  0
 93 94  1  0
 93 92  1  0
M  ISO  4  13 100  21 100  53 101  54 101
M  END
>  <TORSDO>  (19) 
F 20

>  <SCORE>  (19) 
-10.568

>  <name>  (19) 
18

>  <ligand_id>  (19) 
18

>  <original_smiles>  (19) 
[H]c1c([H])c([H])c2c(c1[H])C([H])([H])C([H])([H])C([H])([H])C2([H])N([H])C(=O)C1([H])N(C(=O)C([H])(N([H])C(=O)C([H])(N([H])C([H])([H])[H])C([H])([H])[H])C(C([H])([H])[H])(C([H])([H])[H])C([H])([H])[H])C([H])([H])c2c([H])c(OC([H])([H])C([H])(C([H])([H])[H])C3([H])C([H])([N+]([H])([H])C([H])([H])[H])C([H])([H])C3([H])[N+]3([H])C([H])([H])C3([H])N([H])C(=O)N3C([H])([H])C([H])([H])C([H])([H])C([H])(n4nc(-c5c([H])c([H])c(Oc6c([H])c([H])c(F)c([H])c6F)c([H])c5[H])c(C(=O)N([H])[H])c4N([H])[H])C3([H])[H])c([H])c([H])c2C1([H])[H]

>  <smiles>  (19) 
[H]c1c([H])c([H])c2c(c1[H])C([H])([H])C([H])([H])C([H])([H])C2([H])N([H])C(=O)C1([H])N(C(=O)C([H])(N([H])C(=O)C([H])(N([H])C([H])([H])[H])C([H])([H])[H])C(C([H])([H])[H])(C([H])([H])[H])C([H])([H])[H])C([H])([H])c2c([H])c(OC([H])([H])C([H])(C([H])([H])[H])C3([H])C([H])([N+]([H])([H])C([H])([H])[H])C([H])([H])C3([H])[N+]3([H])C([H])([H])C3([H])N([H])C(=O)N3C([H])([H])C([H])([H])C([H])([H])C([H])(n4nc(-c5c([H])c([H])c(Oc6c([H])c([H])c(F)c([H])c6F)c([H])c5[H])c(C(=O)N([H])[H])c4N([H])[H])C3([H])[H])c([H])c([H])c2C1([H])[H]

$$$$
19:0:0
     RDKit          3D

 93102  0  0  1  0  0  0  0  0999 V2000
  -30.2730  -20.6950   20.1660 C   0  0  0  0  0  3  0  0  0  0  0  0
  -30.4060  -19.1550   20.0530 C   0  0  0  0  0  3  0  0  0  0  0  0
  -31.5840  -21.2860   20.1150 C   0  0  0  0  0  0  0  0  0  0  0  0
  -32.6330  -19.3640   19.4720 C   0  0  0  0  0  0  0  0  0  0  0  0
  -31.9350  -22.6790   20.6250 C   0  0  0  0  0  1  0  0  0  0  0  0
  -33.8930  -18.6900   18.9680 C   0  0  0  0  0  1  0  0  0  0  0  0
  -31.5760  -18.6110   19.6710 N   0  0  0  0  0  0  0  0  0  0  0  0
  -32.7000  -20.6480   19.7260 N   0  0  0  0  0  0  0  0  0  0  0  0
  -30.5870  -15.0820   19.9830 C   0  0  0  0  0  0  0  0  0  0  0  0
  -30.4590  -12.7560   18.8890 C   0  0  0  0  0  2  0  0  0  0  0  0
  -29.4280  -12.7220   17.7290 C   0  0  0  0  0  2  0  0  0  0  0  0
  -28.0000  -12.4680   18.2550 C   0  0  0  0  0  2  0  0  0  0  0  0
  -27.6850  -13.3210   19.5080 C   0  0  0  0  0  3  0  0  0  0  0  0
  -28.8230  -13.2320   20.5440 C   0  0  0  0  0  2  0  0  0  0  0  0
  -30.0270  -13.7860   19.8940 N   0  0  0  0  0  0  0  0  0  0  0  0
  -31.7170  -15.1910   19.4900 O   0  0  0  0  0  0  0  0  0  0  0  0
  -29.2860  -17.6500   21.8730 C   0  0  0  0  0  2  0  0  0  0  0  0
  -28.9890  -16.1770   21.6350 C   0  0  0  0  0  2  0  0  0  0  0  0
  -29.4930  -17.8320   20.3770 C   0  0  0  0  0  3  0  0  0  0  0  0
  -29.8100  -16.2280   20.4150 N   0  0  0  0  0  0  0  0  0  0  0  0
  -25.3490  -13.8690   20.4070 C   0  0  0  0  0  0  0  0  0  0  0  0
  -24.3200  -13.0780   20.8350 C   0  0  0  0  0  0  0  0  0  0  0  0
  -24.7860  -11.7320   20.7390 C   0  0  0  0  0  0  0  0  0  0  0  0
  -26.3810  -13.0030   20.0810 N   0  0  0  0  0  0  0  0  0  0  0  0
  -26.0540  -11.7110   20.3420 N   0  0  0  0  0  0  0  0  0  0  0  0
  -24.0800  -10.4610   20.9460 C   0  0  0  0  0  0  0  0  0  0  0  0
  -24.5300   -9.5080   21.8850 C   0  0  0  0  0  3  0  0  0  0  0  0
  -23.8200   -8.3030   22.0770 C   0  0  0  0  0  3  0  0  0  0  0  0
  -22.6470   -8.0420   21.3320 C   0  0  0  0  0  0  0  0  0  0  0  0
  -22.2160   -8.9850   20.3810 C   0  0  0  0  0  3  0  0  0  0  0  0
  -22.9260  -10.1810   20.1860 C   0  0  0  0  0  3  0  0  0  0  0  0
  -21.9080   -6.8880   21.4320 O   0  0  0  0  0  0  0  0  0  0  0  0
  -21.8130   -6.1960   22.6110 C   0  0  0  0  0  0  0  0  0  0  0  0
  -21.3160   -6.7980   23.7880 C   0  0  0  0  0  3  0  0  0  0  0  0
  -21.1670   -6.0320   24.9620 C   0  0  0  0  0  3  0  0  0  0  0  0
  -21.5080   -4.6670   24.9600 C   0  0  0  0  0  0  0  0  0  0  0  0
  -21.9980   -4.0650   23.7880 C   0  0  0  0  0  3  0  0  0  0  0  0
  -22.1470   -4.8270   22.6160 C   0  0  0  0  0  0  0  0  0  0  0  0
  -22.6010   -4.2370   21.4840 F   0  0  0  0  0  0  0  0  0  0  0  0
  -21.3580   -3.9290   26.0840 F   0  0  0  0  0  0  0  0  0  0  0  0
  -22.9420  -13.5410   21.2120 C   0  0  0  0  0  0  0  0  0  0  0  0
  -22.2870  -12.8340   22.1250 N   0  0  0  0  0  0  0  0  0  0  0  0
  -22.4580  -14.5660   20.7330 O   0  0  0  0  0  0  0  0  0  0  0  0
  -22.6940  -12.0030   22.5300 H   0  0  0  0  0  0  0  0  0  0  0  0
  -21.3680  -13.1270   22.4240 H   0  0  0  0  0  0  0  0  0  0  0  0
  -25.4830  -15.2430   20.2400 N   0  0  0  0  0  0  0  0  0  0  0  0
  -24.6930  -15.8660   20.3700 H   0  0  0  0  0  0  0  0  0  0  0  0
  -26.2620  -15.6840   19.7660 H   0  0  0  0  0  0  0  0  0  0  0  0
  -29.1580  -21.6980   20.3710 N   0  0  0  0  0  0  0  0  0  0  0  0
  -28.2620  -21.2890   20.6350 H   0  0  0  0  0  0  0  0  0  0  0  0
  -29.0070  -23.1960   19.8040 C   0  0  0  0  0  3  0  0  0  0  0  0
  -28.2330  -24.5580   20.5200 C   0  0  0  0  0  3  0  0  0  0  0  0
  -28.3860  -26.1030   20.1920 O   0  0  0  0  0  0  0  0  0  0  0  0
  -24.6490  -31.7980   23.1700 C   0  0  0  0  0  0  0  0  0  0  0  0
  -27.3020  -27.0730   20.1820 C   0  0  0  0  0  0  0  0  0  0  0  0
  -23.4770  -30.3850   21.5230 C   0  0  0  0  0  3  0  0  0  0  0  0
  -24.9540  -28.8140   20.1150 C   0  0  0  0  0  0  0  0  0  0  0  0
  -26.0300  -30.6720   21.3760 C   0  0  0  0  0  2  0  0  0  0  0  0
  -26.1240  -29.2730   20.7330 C   0  0  0  0  0  0  0  0  0  0  0  0
  -27.2980  -28.4190   20.7460 C   0  0  0  0  0  3  0  0  0  0  0  0
  -26.1030  -26.7220   19.5260 C   0  0  0  0  0  3  0  0  0  0  0  0
  -24.9560  -27.5530   19.4970 C   0  0  0  0  0  3  0  0  0  0  0  0
  -23.7190  -29.7050   20.1480 C   0  0  0  0  0  2  0  0  0  0  0  0
  -24.7380  -30.9760   22.0770 N   0  0  0  0  0  0  0  0  0  0  0  0
  -23.5560  -32.0680   23.6910 O   0  0  0  0  0  0  0  0  0  0  0  0
  -22.8010  -29.3750   22.4830 C   0  0  0  0  0  0  0  0  0  0  0  0
  -21.4710  -29.2100   22.3680 N   0  0  0  0  0  0  0  0  0  0  0  0
  -23.4750  -28.7410   23.2990 O   0  0  0  0  0  0  0  0  0  0  0  0
  -20.9780  -29.7690   21.6850 H   0  0  0  0  0  0  0  0  0  0  0  0
  -18.0890  -28.0230   22.8950 C   0  0  0  0  0  0  0  0  0  0  0  0
  -20.6530  -28.2680   23.1370 C   0  0  0  0  0  3  0  0  0  0  0  0
  -20.7430  -26.8440   22.5420 C   0  0  0  0  0  2  0  0  0  0  0  0
  -19.6270  -26.5420   21.5370 C   0  0  0  0  0  2  0  0  0  0  0  0
  -18.2530  -26.6840   22.1970 C   0  0  0  0  0  2  0  0  0  0  0  0
  -19.2160  -28.7750   23.3220 C   0  0  0  0  0  0  0  0  0  0  0  0
  -19.0070  -30.0300   23.9360 C   0  0  0  0  0  3  0  0  0  0  0  0
  -17.7060  -30.5300   24.1290 C   0  0  0  0  0  3  0  0  0  0  0  0
  -16.5940  -29.7750   23.7190 C   0  0  0  0  0  3  0  0  0  0  0  0
  -16.7860  -28.5250   23.1050 C   0  0  0  0  0  3  0  0  0  0  0  0
  -25.9140  -32.4500   23.8080 C   0  0  0  0  0  3  0  0  0  0  0  0
  -26.4290  -31.6820   25.0880 C   0  0  1  0  0  0  0  0  0  0  0  0
  -25.3330  -31.4300   26.1480 C   0  0  0  0  0  1  0  0  0  0  0  0
  -27.0310  -30.3120   24.7010 C   0  0  0  0  0  1  0  0  0  0  0  0
  -27.5670  -32.4870   25.7590 C   0  0  0  0  0  1  0  0  0  0  0  0
  -25.5790  -33.8430   24.1490 N   0  0  0  0  0  0  0  0  0  0  0  0
  -25.9000  -34.9120   23.4080 C   0  0  0  0  0  0  0  0  0  0  0  0
  -26.5740  -34.8320   22.3770 O   0  0  0  0  0  0  0  0  0  0  0  0
  -24.9820  -33.9780   24.9500 H   0  0  0  0  0  0  0  0  0  0  0  0
  -24.1540  -36.6950   23.0700 C   0  0  0  0  0  1  0  0  0  0  0  0
  -25.3940  -36.2890   23.8830 C   0  0  0  0  0  3  0  0  0  0  0  0
  -27.5100  -37.1910   24.7430 C   0  0  0  0  0  1  0  0  0  0  0  0
  -26.4140  -37.3570   23.7920 N   0  0  0  0  0  0  0  0  0  0  0  0
  -25.9940  -38.2690   23.9510 H   0  0  0  0  0  0  0  0  0  0  0  0
  1 49  1  0
  2  7  1  0
  2  1  1  0
  2 19  1  0
  3  1  1  0
  3  5  1  0
  4  7  2  0
  4  8  1  0
  6  4  1  0
  8  3  2  0
  9 20  1  0
 10 15  1  0
 11 12  1  0
 11 10  1  0
 13 12  1  0
 13 24  1  0
 13 14  1  0
 15  9  1  0
 15 14  1  0
 16  9  2  0
 18 17  1  0
 19 20  1  0
 19 17  1  0
 20 18  1  0
 21 22  2  0
 22 41  1  0
 23 22  1  0
 23 26  1  0
 24 25  1  0
 24 21  1  0
 25 23  2  0
 26 27  1  0
 27 28  2  0
 29 32  1  0
 29 28  1  0
 30 29  2  0
 31 30  1  0
 31 26  2  0
 32 33  1  0
 33 38  2  0
 33 34  1  0
 34 35  2  0
 36 35  1  0
 36 40  1  0
 37 36  2  0
 38 37  1  0
 39 38  1  0
 41 42  1  0
 42 45  1  0
 42 44  1  0
 43 41  2  0
 46 47  1  0
 46 21  1  0
 48 46  1  0
 49 50  1  0
 51 49  1  0
 51 52  2  0
 53 52  1  0
 54 65  2  0
 55 53  1  0
 55 60  1  0
 56 64  1  0
 56 66  1  0
 57 63  1  0
 57 59  1  0
 58 64  1  0
 59 60  2  0
 59 58  1  0
 61 55  2  0
 62 61  1  0
 62 57  2  0
 63 56  1  0
 64 54  1  0
 66 68  2  0
 67 66  1  0
 69 67  1  0
 70 79  2  0
 70 75  1  0
 71 67  1  0
 71 75  1  0
 72 71  1  0
 73 74  1  0
 73 72  1  0
 74 70  1  0
 75 76  2  0
 76 77  1  0
 78 77  2  0
 79 78  1  0
 80 54  1  0
 80 85  1  0
 80 81  1  0
 81 84  1  1
 81 82  1  0
 83 81  1  0
 85 88  1  0
 86 90  1  0
 86 85  1  0
 87 86  2  0
 90 89  1  0
 92 90  1  0
 92 93  1  0
 92 91  1  0
M  ISO  4   9 100  20 100  52 101  53 101
M  END
>  <TORSDO>  (20) 
F 19

>  <SCORE>  (20) 
-13.366

>  <name>  (20) 
19

>  <ligand_id>  (20) 
19

>  <original_smiles>  (20) 
[H]c1c([H])c([H])c2c(c1[H])C([H])([H])C([H])([H])C([H])([H])C2([H])N([H])C(=O)C1([H])N(C(=O)C([H])(N([H])C(=O)C([H])(N([H])C([H])([H])[H])C([H])([H])[H])C(C([H])([H])[H])(C([H])([H])[H])C([H])([H])[H])C([H])([H])c2c([H])c(OC([H])([H])C([H])([H])N([H])c3c(C([H])([H])[H])nc(C([H])([H])[H])nc3C3([H])N(C(=O)N4C([H])([H])C([H])([H])C([H])([H])C([H])(n5nc(-c6c([H])c([H])c(Oc7c([H])c([H])c(F)c([H])c7F)c([H])c6[H])c(C(=O)N([H])[H])c5N([H])[H])C4([H])[H])C([H])([H])C3([H])[H])c([H])c([H])c2C1([H])[H]

>  <smiles>  (20) 
[H]c1c([H])c([H])c2c(c1[H])C([H])([H])C([H])([H])C([H])([H])C2([H])N([H])C(=O)C1([H])N(C(=O)C([H])(N([H])C(=O)C([H])(N([H])C([H])([H])[H])C([H])([H])[H])C(C([H])([H])[H])(C([H])([H])[H])C([H])([H])[H])C([H])([H])c2c([H])c(OC([H])([H])C([H])([H])N([H])c3c(C([H])([H])[H])nc(C([H])([H])[H])nc3C3([H])N(C(=O)N4C([H])([H])C([H])([H])C([H])([H])C([H])(n5nc(-c6c([H])c([H])c(Oc7c([H])c([H])c(F)c([H])c7F)c([H])c6[H])c(C(=O)N([H])[H])c5N([H])[H])C4([H])[H])C([H])([H])C3([H])[H])c([H])c([H])c2C1([H])[H]

$$$$
20:0:0
     RDKit          3D

 92101  0  0  1  0  0  0  0  0999 V2000
  -28.7010  -22.3140   19.9770 C   0  0  0  0  0  3  0  0  0  0  0  0
  -28.8740  -23.7300   20.2790 C   0  0  0  0  0  0  0  0  0  0  0  0
  -29.7510  -21.6310   20.5630 C   0  0  0  0  0  0  0  0  0  0  0  0
  -31.7150  -22.5140   21.9430 C   0  0  0  0  0  1  0  0  0  0  0  0
  -29.9790  -23.8930   20.9930 N   0  0  0  0  0  0  0  0  0  0  0  0
  -30.4980  -22.6430   21.1620 N   0  0  0  0  0  0  0  0  0  0  0  0
  -30.2200  -20.2760   20.7010 N   0  0  0  0  0  0  0  0  0  0  0  0
  -31.1010  -20.1980   21.1990 H   0  0  0  0  0  0  0  0  0  0  0  0
  -30.6980  -14.6570   19.9740 C   0  0  0  0  0  0  0  0  0  0  0  0
  -30.3810  -12.4150   18.9400 C   0  0  0  0  0  2  0  0  0  0  0  0
  -29.3710  -12.5280   17.7780 C   0  0  0  0  0  2  0  0  0  0  0  0
  -27.9310  -12.3630   18.2990 C   0  0  0  0  0  2  0  0  0  0  0  0
  -27.6420  -13.2280   19.5550 C   0  0  0  0  0  3  0  0  0  0  0  0
  -28.7700  -13.1130   20.6030 C   0  0  0  0  0  2  0  0  0  0  0  0
  -30.0280  -13.4580   19.9300 N   0  0  0  0  0  0  0  0  0  0  0  0
  -31.8570  -14.7210   19.5510 O   0  0  0  0  0  0  0  0  0  0  0  0
  -29.6950  -17.9280   21.5010 C   0  0  0  0  0  2  0  0  0  0  0  0
  -30.3680  -18.2560   19.1730 C   0  0  0  0  0  2  0  0  0  0  0  0
  -29.3000  -16.4290   21.1940 C   0  0  0  0  0  2  0  0  0  0  0  0
  -29.9230  -16.7820   18.8650 C   0  0  0  0  0  2  0  0  0  0  0  0
  -29.6050  -18.9610   20.3280 C   0  0  0  0  0  3  0  0  0  0  0  0
  -29.9480  -15.8240   20.0050 N   0  0  0  0  0  0  0  0  0  0  0  0
  -25.3080  -13.8040   20.4510 C   0  0  0  0  0  0  0  0  0  0  0  0
  -24.2650  -13.0240   20.8670 C   0  0  0  0  0  0  0  0  0  0  0  0
  -24.7170  -11.6720   20.7690 C   0  0  0  0  0  0  0  0  0  0  0  0
  -26.3310  -12.9300   20.1250 N   0  0  0  0  0  0  0  0  0  0  0  0
  -25.9860  -11.6400   20.3770 N   0  0  0  0  0  0  0  0  0  0  0  0
  -23.9990  -10.4070   20.9710 C   0  0  0  0  0  0  0  0  0  0  0  0
  -24.4500   -9.4410   21.8980 C   0  0  0  0  0  3  0  0  0  0  0  0
  -23.7320   -8.2410   22.0870 C   0  0  0  0  0  3  0  0  0  0  0  0
  -22.5490   -7.9970   21.3500 C   0  0  0  0  0  0  0  0  0  0  0  0
  -22.1170   -8.9520   20.4120 C   0  0  0  0  0  3  0  0  0  0  0  0
  -22.8350  -10.1440   20.2200 C   0  0  0  0  0  3  0  0  0  0  0  0
  -21.8000   -6.8500   21.4500 O   0  0  0  0  0  0  0  0  0  0  0  0
  -21.7180   -6.1430   22.6230 C   0  0  0  0  0  0  0  0  0  0  0  0
  -21.2320   -6.7270   23.8130 C   0  0  0  0  0  3  0  0  0  0  0  0
  -21.1000   -5.9460   24.9790 C   0  0  0  0  0  3  0  0  0  0  0  0
  -21.4450   -4.5810   24.9540 C   0  0  0  0  0  0  0  0  0  0  0  0
  -21.9240   -3.9960   23.7680 C   0  0  0  0  0  3  0  0  0  0  0  0
  -22.0570   -4.7750   22.6060 C   0  0  0  0  0  0  0  0  0  0  0  0
  -22.4990   -4.2020   21.4610 F   0  0  0  0  0  0  0  0  0  0  0  0
  -21.3110   -3.8280   26.0700 F   0  0  0  0  0  0  0  0  0  0  0  0
  -22.8900  -13.4970   21.2400 C   0  0  0  0  0  0  0  0  0  0  0  0
  -22.2160  -12.7840   22.1360 N   0  0  0  0  0  0  0  0  0  0  0  0
  -22.4230  -14.5350   20.7740 O   0  0  0  0  0  0  0  0  0  0  0  0
  -22.6080  -11.9430   22.5360 H   0  0  0  0  0  0  0  0  0  0  0  0
  -21.2980  -13.0850   22.4280 H   0  0  0  0  0  0  0  0  0  0  0  0
  -25.4680  -15.1790   20.2990 N   0  0  0  0  0  0  0  0  0  0  0  0
  -24.7170  -15.8360   20.4760 H   0  0  0  0  0  0  0  0  0  0  0  0
  -26.3020  -15.6170   19.9320 H   0  0  0  0  0  0  0  0  0  0  0  0
  -27.9320  -24.9320   19.9320 C   0  0  0  0  0  2  0  0  0  0  0  0
  -28.2290  -26.3520   20.3010 O   0  0  0  0  0  0  0  0  0  0  0  0
  -24.6290  -31.8780   23.2990 C   0  0  0  0  0  0  0  0  0  0  0  0
  -27.1540  -27.2660   20.2210 C   0  0  0  0  0  0  0  0  0  0  0  0
  -23.3990  -30.4950   21.6700 C   0  0  0  0  0  3  0  0  0  0  0  0
  -24.8190  -28.9350   20.2300 C   0  0  0  0  0  0  0  0  0  0  0  0
  -25.9450  -30.7740   21.4740 C   0  0  0  0  0  2  0  0  0  0  0  0
  -26.0020  -29.3950   20.8240 C   0  0  0  0  0  0  0  0  0  0  0  0
  -27.1720  -28.5700   20.8150 C   0  0  0  0  0  3  0  0  0  0  0  0
  -25.9490  -26.8880   19.5770 C   0  0  0  0  0  3  0  0  0  0  0  0
  -24.7960  -27.6870   19.5990 C   0  0  0  0  0  3  0  0  0  0  0  0
  -23.5960  -29.8250   20.2880 C   0  0  0  0  0  2  0  0  0  0  0  0
  -24.6770  -31.0650   22.2040 N   0  0  0  0  0  0  0  0  0  0  0  0
  -23.5510  -32.1700   23.8380 O   0  0  0  0  0  0  0  0  0  0  0  0
  -22.7310  -29.4830   22.6320 C   0  0  0  0  0  0  0  0  0  0  0  0
  -21.4060  -29.3020   22.4950 N   0  0  0  0  0  0  0  0  0  0  0  0
  -23.4020  -28.8660   23.4620 O   0  0  0  0  0  0  0  0  0  0  0  0
  -20.9240  -29.8530   21.7990 H   0  0  0  0  0  0  0  0  0  0  0  0
  -18.0290  -28.0880   22.9590 C   0  0  0  0  0  0  0  0  0  0  0  0
  -20.5800  -28.3720   23.2680 C   0  0  0  0  0  3  0  0  0  0  0  0
  -20.7030  -26.9310   22.7210 C   0  0  0  0  0  2  0  0  0  0  0  0
  -19.6200  -26.5810   21.6940 C   0  0  0  0  0  2  0  0  0  0  0  0
  -18.2270  -26.7280   22.3110 C   0  0  0  0  0  2  0  0  0  0  0  0
  -19.1340  -28.8660   23.3940 C   0  0  0  0  0  0  0  0  0  0  0  0
  -18.8940  -30.1390   23.9580 C   0  0  0  0  0  3  0  0  0  0  0  0
  -17.5830  -30.6320   24.0910 C   0  0  0  0  0  3  0  0  0  0  0  0
  -16.4920  -29.8500   23.6750 C   0  0  0  0  0  3  0  0  0  0  0  0
  -16.7150  -28.5800   23.1130 C   0  0  0  0  0  3  0  0  0  0  0  0
  -25.9230  -32.4960   23.9120 C   0  0  0  0  0  3  0  0  0  0  0  0
  -25.6360  -33.9040   24.2270 N   0  0  0  0  0  0  0  0  0  0  0  0
  -25.9560  -34.9400   23.4400 C   0  0  0  0  0  0  0  0  0  0  0  0
  -26.5930  -34.8120   22.3920 O   0  0  0  0  0  0  0  0  0  0  0  0
  -25.0690  -34.0770   25.0430 H   0  0  0  0  0  0  0  0  0  0  0  0
  -24.2220  -36.7350   23.1250 C   0  0  0  0  0  1  0  0  0  0  0  0
  -25.4950  -36.3410   23.8900 C   0  0  0  0  0  3  0  0  0  0  0  0
  -27.6660  -37.2330   24.6120 C   0  0  0  0  0  1  0  0  0  0  0  0
  -26.5270  -37.3860   23.7100 N   0  0  0  0  0  0  0  0  0  0  0  0
  -26.1310  -38.3110   23.8550 H   0  0  0  0  0  0  0  0  0  0  0  0
  -26.4260  -31.7320   25.1960 C   0  0  1  0  0  0  0  0  0  0  0  0
  -25.3300  -31.5180   26.2660 C   0  0  0  0  0  1  0  0  0  0  0  0
  -26.9920  -30.3420   24.8210 C   0  0  0  0  0  1  0  0  0  0  0  0
  -27.5870  -32.5170   25.8530 C   0  0  0  0  0  1  0  0  0  0  0  0
  1  2  1  0
  1  3  2  0
  2  5  2  0
  3  7  1  0
  3  6  1  0
  5  6  1  0
  6  4  1  0
  7  8  1  0
  9 22  1  0
 10 15  1  0
 11 12  1  0
 11 10  1  0
 13 12  1  0
 13 26  1  0
 13 14  1  0
 15  9  1  0
 15 14  1  0
 16  9  2  0
 18 21  1  0
 19 17  1  0
 20 18  1  0
 20 22  1  0
 21  7  1  0
 21 17  1  0
 22 19  1  0
 23 24  2  0
 24 43  1  0
 25 24  1  0
 25 28  1  0
 26 27  1  0
 26 23  1  0
 27 25  2  0
 28 29  1  0
 29 30  2  0
 31 34  1  0
 31 30  1  0
 32 31  2  0
 33 32  1  0
 33 28  2  0
 34 35  1  0
 35 36  1  0
 36 37  2  0
 38 37  1  0
 38 42  1  0
 39 38  2  0
 40 35  2  0
 40 39  1  0
 41 40  1  0
 43 44  1  0
 44 47  1  0
 44 46  1  0
 45 43  2  0
 48 23  1  0
 48 49  1  0
 50 48  1  0
 51  2  1  0
 51 52  1  0
 53 64  2  0
 54 52  1  0
 54 59  1  0
 55 63  1  0
 55 65  1  0
 56 62  1  0
 56 58  1  0
 57 63  1  0
 58 57  1  0
 59 58  2  0
 60 61  1  0
 60 54  2  0
 61 56  2  0
 62 55  1  0
 63 53  1  0
 65 67  2  0
 66 65  1  0
 68 66  1  0
 69 78  2  0
 69 74  1  0
 70 66  1  0
 70 74  1  0
 71 70  1  0
 72 73  1  0
 72 71  1  0
 73 69  1  0
 74 75  2  0
 75 76  1  0
 77 76  2  0
 78 77  1  0
 79 53  1  0
 79 80  1  0
 79 89  1  0
 80 83  1  0
 81 85  1  0
 81 80  1  0
 82 81  2  0
 85 84  1  0
 87 88  1  0
 87 85  1  0
 87 86  1  0
 89 92  1  1
 89 90  1  0
 91 89  1  0
M  ISO  4   9 100  22 100  51 101  52 101
M  END
>  <TORSDO>  (21) 
F 18

>  <SCORE>  (21) 
-13.800

>  <name>  (21) 
20

>  <ligand_id>  (21) 
20

>  <original_smiles>  (21) 
[H]c1c([H])c([H])c2c(c1[H])C([H])([H])C([H])([H])C([H])([H])C2([H])N([H])C(=O)C1([H])N(C(=O)C([H])(N([H])C(=O)C([H])(N([H])C([H])([H])[H])C([H])([H])[H])C(C([H])([H])[H])(C([H])([H])[H])C([H])([H])[H])C([H])([H])c2c([H])c(OC([H])([H])c3nn(C([H])([H])[H])c(N([H])C4([H])C([H])([H])C([H])([H])N(C(=O)N5C([H])([H])C([H])([H])C([H])([H])C([H])(n6nc(-c7c([H])c([H])c(Oc8c([H])c([H])c(F)c([H])c8F)c([H])c7[H])c(C(=O)N([H])[H])c6N([H])[H])C5([H])[H])C([H])([H])C4([H])[H])c3[H])c([H])c([H])c2C1([H])[H]

>  <smiles>  (21) 
[H]c1c([H])c([H])c2c(c1[H])C([H])([H])C([H])([H])C([H])([H])C2([H])N([H])C(=O)C1([H])N(C(=O)C([H])(N([H])C(=O)C([H])(N([H])C([H])([H])[H])C([H])([H])[H])C(C([H])([H])[H])(C([H])([H])[H])C([H])([H])[H])C([H])([H])c2c([H])c(OC([H])([H])c3nn(C([H])([H])[H])c(N([H])C4([H])C([H])([H])C([H])([H])N(C(=O)N5C([H])([H])C([H])([H])C([H])([H])C([H])(n6nc(-c7c([H])c([H])c(Oc8c([H])c([H])c(F)c([H])c8F)c([H])c7[H])c(C(=O)N([H])[H])c6N([H])[H])C5([H])[H])C([H])([H])C4([H])[H])c3[H])c([H])c([H])c2C1([H])[H]

$$$$
21:0:0
     RDKit          3D

 93102  0  0  1  0  0  0  0  0999 V2000
  -30.9170  -21.2490   20.5980 C   0  0  0  0  0  3  0  0  0  0  0  0
  -31.7400  -20.1100   20.6620 C   0  0  0  0  0  0  0  0  0  0  0  0
  -29.5530  -21.0620   20.3710 C   0  0  0  0  0  0  0  0  0  0  0  0
  -29.9530  -18.6900   20.3520 C   0  0  0  0  0  0  0  0  0  0  0  0
  -31.2530  -18.8540   20.5710 N   0  0  0  0  0  0  0  0  0  0  0  0
  -29.0960  -19.7630   20.2380 N   0  0  0  0  0  0  0  0  0  0  0  0
  -28.6770  -22.2080   20.2110 N   0  0  0  0  0  0  0  0  0  0  0  0
  -27.7420  -22.0090   19.8730 H   0  0  0  0  0  0  0  0  0  0  0  0
  -34.0390  -19.7990   21.9000 C   0  0  0  0  0  2  0  0  0  0  0  0
  -33.9460  -21.2620   21.5300 C   0  0  0  0  0  2  0  0  0  0  0  0
  -33.2340  -20.2220   20.6940 C   0  0  0  0  0  3  0  0  0  0  0  0
  -29.5400  -17.2200   19.8840 C   0  0  0  0  0  2  0  0  0  0  0  0
  -30.5430  -14.8040   20.3250 C   0  0  0  0  0  0  0  0  0  0  0  0
  -30.3670  -12.4980   19.3640 C   0  0  0  0  0  2  0  0  0  0  0  0
  -29.4320  -12.5390   18.1340 C   0  0  0  0  0  2  0  0  0  0  0  0
  -27.9630  -12.3640   18.5620 C   0  0  0  0  0  2  0  0  0  0  0  0
  -27.5810  -13.2760   19.7600 C   0  0  0  0  0  3  0  0  0  0  0  0
  -28.6360  -13.2060   20.8880 C   0  0  0  0  0  2  0  0  0  0  0  0
  -29.9400  -13.5590   20.3090 N   0  0  0  0  0  0  0  0  0  0  0  0
  -31.6890  -14.9220   19.8830 O   0  0  0  0  0  0  0  0  0  0  0  0
  -29.7680  -15.9040   20.6440 N   0  0  0  0  0  0  0  0  0  0  0  0
  -28.9570  -15.6550   21.1880 H   0  0  0  0  0  0  0  0  0  0  0  0
  -25.2020  -13.8850   20.5120 C   0  0  0  0  0  0  0  0  0  0  0  0
  -24.1270  -13.1220   20.8770 C   0  0  0  0  0  0  0  0  0  0  0  0
  -24.5780  -11.7670   20.8460 C   0  0  0  0  0  0  0  0  0  0  0  0
  -26.2330  -12.9960   20.2540 N   0  0  0  0  0  0  0  0  0  0  0  0
  -25.8660  -11.7170   20.5220 N   0  0  0  0  0  0  0  0  0  0  0  0
  -23.8440  -10.5110   21.0420 C   0  0  0  0  0  0  0  0  0  0  0  0
  -24.2810   -9.5360   21.9670 C   0  0  0  0  0  3  0  0  0  0  0  0
  -23.5450   -8.3450   22.1510 C   0  0  0  0  0  3  0  0  0  0  0  0
  -22.3600   -8.1200   21.4070 C   0  0  0  0  0  0  0  0  0  0  0  0
  -21.9450   -9.0810   20.4690 C   0  0  0  0  0  3  0  0  0  0  0  0
  -22.6810  -10.2620   20.2830 C   0  0  0  0  0  3  0  0  0  0  0  0
  -21.6000   -6.9780   21.4970 O   0  0  0  0  0  0  0  0  0  0  0  0
  -21.5620   -6.2270   22.6430 C   0  0  0  0  0  0  0  0  0  0  0  0
  -21.1530   -6.7740   23.8800 C   0  0  0  0  0  3  0  0  0  0  0  0
  -21.0660   -5.9510   25.0200 C   0  0  0  0  0  3  0  0  0  0  0  0
  -21.3720   -4.5790   24.9250 C   0  0  0  0  0  0  0  0  0  0  0  0
  -21.7750   -4.0310   23.6950 C   0  0  0  0  0  3  0  0  0  0  0  0
  -21.8650   -4.8540   22.5570 C   0  0  0  0  0  0  0  0  0  0  0  0
  -22.2360   -4.3180   21.3690 F   0  0  0  0  0  0  0  0  0  0  0  0
  -21.2780   -3.7860   26.0170 F   0  0  0  0  0  0  0  0  0  0  0  0
  -22.7330  -13.6140   21.1550 C   0  0  0  0  0  0  0  0  0  0  0  0
  -22.0040  -12.9220   22.0230 N   0  0  0  0  0  0  0  0  0  0  0  0
  -22.3050  -14.6450   20.6410 O   0  0  0  0  0  0  0  0  0  0  0  0
  -22.3700  -12.0880   22.4560 H   0  0  0  0  0  0  0  0  0  0  0  0
  -21.0750  -13.2340   22.2630 H   0  0  0  0  0  0  0  0  0  0  0  0
  -25.3900  -15.2550   20.3630 N   0  0  0  0  0  0  0  0  0  0  0  0
  -24.6640  -15.9380   20.5640 H   0  0  0  0  0  0  0  0  0  0  0  0
  -26.2730  -15.6800   20.1160 H   0  0  0  0  0  0  0  0  0  0  0  0
  -29.0780  -23.6770   20.3230 C   0  0  0  0  0  3  0  0  0  0  0  0
  -27.9630  -24.8470   20.0960 C   0  0  0  0  0  3  0  0  0  0  0  0
  -28.2380  -26.3260   20.2900 O   0  0  0  0  0  0  0  0  0  0  0  0
  -24.5990  -31.9170   23.2480 C   0  0  0  0  0  0  0  0  0  0  0  0
  -27.1590  -27.2490   20.2280 C   0  0  0  0  0  0  0  0  0  0  0  0
  -23.3910  -30.5200   21.6130 C   0  0  0  0  0  3  0  0  0  0  0  0
  -24.8320  -28.9470   20.1970 C   0  0  0  0  0  0  0  0  0  0  0  0
  -25.9410  -30.7920   21.4470 C   0  0  0  0  0  2  0  0  0  0  0  0
  -26.0080  -29.4020   20.8060 C   0  0  0  0  0  0  0  0  0  0  0  0
  -27.1730  -28.5650   20.8120 C   0  0  0  0  0  3  0  0  0  0  0  0
  -25.9560  -26.8740   19.5850 C   0  0  0  0  0  3  0  0  0  0  0  0
  -24.8130  -27.6930   19.5740 C   0  0  0  0  0  3  0  0  0  0  0  0
  -23.6090  -29.8420   20.2360 C   0  0  0  0  0  2  0  0  0  0  0  0
  -24.6620  -31.0960   22.1600 N   0  0  0  0  0  0  0  0  0  0  0  0
  -23.5140  -32.2100   23.7750 O   0  0  0  0  0  0  0  0  0  0  0  0
  -22.7160  -29.5130   22.5750 C   0  0  0  0  0  0  0  0  0  0  0  0
  -21.3870  -29.3520   22.4520 N   0  0  0  0  0  0  0  0  0  0  0  0
  -23.3850  -28.8800   23.3960 O   0  0  0  0  0  0  0  0  0  0  0  0
  -20.9030  -29.9130   21.7670 H   0  0  0  0  0  0  0  0  0  0  0  0
  -17.9940  -28.2010   22.9650 C   0  0  0  0  0  0  0  0  0  0  0  0
  -20.5570  -28.4280   23.2280 C   0  0  0  0  0  3  0  0  0  0  0  0
  -20.6370  -26.9930   22.6590 C   0  0  0  0  0  2  0  0  0  0  0  0
  -19.5280  -26.6810   21.6470 C   0  0  0  0  0  2  0  0  0  0  0  0
  -18.1510  -26.8480   22.2930 C   0  0  0  0  0  2  0  0  0  0  0  0
  -19.1250  -28.9490   23.3910 C   0  0  0  0  0  0  0  0  0  0  0  0
  -18.9230  -30.2140   23.9830 C   0  0  0  0  0  3  0  0  0  0  0  0
  -17.6260  -30.7340   24.1510 C   0  0  0  0  0  3  0  0  0  0  0  0
  -16.5100  -29.9840   23.7400 C   0  0  0  0  0  3  0  0  0  0  0  0
  -16.6960  -28.7190   23.1530 C   0  0  0  0  0  3  0  0  0  0  0  0
  -25.8820  -32.5460   23.8730 C   0  0  0  0  0  3  0  0  0  0  0  0
  -26.3990  -31.7680   25.1460 C   0  0  1  0  0  0  0  0  0  0  0  0
  -25.3080  -31.5320   26.2160 C   0  0  0  0  0  1  0  0  0  0  0  0
  -26.9770  -30.3900   24.7500 C   0  0  0  0  0  1  0  0  0  0  0  0
  -27.5570  -32.5560   25.8050 C   0  0  0  0  0  1  0  0  0  0  0  0
  -25.5760  -33.9430   24.2100 N   0  0  0  0  0  0  0  0  0  0  0  0
  -25.8910  -34.9980   23.4450 C   0  0  0  0  0  0  0  0  0  0  0  0
  -26.5410  -34.8960   22.4010 O   0  0  0  0  0  0  0  0  0  0  0  0
  -24.9950  -34.0960   25.0210 H   0  0  0  0  0  0  0  0  0  0  0  0
  -24.1450  -36.7830   23.1420 C   0  0  0  0  0  1  0  0  0  0  0  0
  -25.4120  -36.3850   23.9160 C   0  0  0  0  0  3  0  0  0  0  0  0
  -27.5690  -37.2780   24.6780 C   0  0  0  0  0  1  0  0  0  0  0  0
  -26.4340  -37.4420   23.7720 N   0  0  0  0  0  0  0  0  0  0  0  0
  -26.0290  -38.3600   23.9360 H   0  0  0  0  0  0  0  0  0  0  0  0
  1  2  2  0
  2 11  1  0
  3  1  1  0
  4  5  2  0
  5  2  1  0
  6  4  1  0
  6  3  2  0
  7 51  1  0
  7  3  1  0
  8  7  1  0
 10  9  1  0
 11 10  1  0
 11  9  1  0
 12  4  1  0
 12 21  1  0
 13 21  1  0
 14 19  1  0
 15 16  1  0
 15 14  1  0
 17 16  1  0
 17 26  1  0
 17 18  1  0
 19 13  1  0
 19 18  1  0
 20 13  2  0
 21 22  1  0
 23 24  2  0
 24 43  1  0
 25 24  1  0
 25 28  1  0
 26 23  1  0
 26 27  1  0
 27 25  2  0
 28 29  1  0
 29 30  2  0
 31 34  1  0
 31 30  1  0
 32 31  2  0
 33 32  1  0
 33 28  2  0
 34 35  1  0
 35 36  1  0
 36 37  2  0
 38 37  1  0
 38 42  1  0
 39 38  2  0
 40 35  2  0
 40 39  1  0
 41 40  1  0
 43 44  1  0
 44 47  1  0
 44 46  1  0
 45 43  2  0
 48 23  1  0
 48 49  1  0
 50 48  1  0
 52 53  1  0
 52 51  2  0
 54 65  2  0
 55 53  1  0
 55 60  1  0
 56 64  1  0
 56 66  1  0
 57 63  1  0
 57 59  1  0
 58 64  1  0
 59 60  2  0
 59 58  1  0
 61 55  2  0
 62 61  1  0
 62 57  2  0
 63 56  1  0
 64 54  1  0
 66 68  2  0
 67 66  1  0
 69 67  1  0
 70 79  2  0
 70 75  1  0
 71 67  1  0
 71 75  1  0
 72 71  1  0
 73 74  1  0
 73 72  1  0
 74 70  1  0
 75 76  2  0
 76 77  1  0
 78 77  2  0
 79 78  1  0
 80 54  1  0
 80 85  1  0
 80 81  1  0
 81 84  1  1
 81 82  1  0
 83 81  1  0
 85 88  1  0
 86 90  1  0
 86 85  1  0
 87 86  2  0
 90 89  1  0
 92 90  1  0
 92 93  1  0
 92 91  1  0
M  ISO  4  13 100  21 100  52 101  53 101
M  END
>  <TORSDO>  (22) 
F 20

>  <SCORE>  (22) 
-13.927

>  <name>  (22) 
21

>  <ligand_id>  (22) 
21

>  <original_smiles>  (22) 
[H]c1c(N([H])C([H])([H])C([H])([H])Oc2c([H])c([H])c3c(c2[H])C([H])([H])N(C(=O)C([H])(N([H])C(=O)C([H])(N([H])C([H])([H])[H])C([H])([H])[H])C(C([H])([H])[H])(C([H])([H])[H])C([H])([H])[H])C([H])(C(=O)N([H])C2([H])c4c([H])c([H])c([H])c([H])c4C([H])([H])C([H])([H])C2([H])[H])C3([H])[H])nc(C([H])([H])N([H])C(=O)N2C([H])([H])C([H])([H])C([H])([H])C([H])(n3nc(-c4c([H])c([H])c(Oc5c([H])c([H])c(F)c([H])c5F)c([H])c4[H])c(C(=O)N([H])[H])c3N([H])[H])C2([H])[H])nc1C1([H])C([H])([H])C1([H])[H]

>  <smiles>  (22) 
[H]c1c(N([H])C([H])([H])C([H])([H])Oc2c([H])c([H])c3c(c2[H])C([H])([H])N(C(=O)C([H])(N([H])C(=O)C([H])(N([H])C([H])([H])[H])C([H])([H])[H])C(C([H])([H])[H])(C([H])([H])[H])C([H])([H])[H])C([H])(C(=O)N([H])C2([H])c4c([H])c([H])c([H])c([H])c4C([H])([H])C([H])([H])C2([H])[H])C3([H])[H])nc(C([H])([H])N([H])C(=O)N2C([H])([H])C([H])([H])C([H])([H])C([H])(n3nc(-c4c([H])c([H])c(Oc5c([H])c([H])c(F)c([H])c5F)c([H])c4[H])c(C(=O)N([H])[H])c3N([H])[H])C2([H])[H])nc1C1([H])C([H])([H])C1([H])[H]

$$$$
22:0:0
     RDKit          3D

 89 98  0  0  1  0  0  0  0  0999 V2000
  -30.3990  -23.0660   19.3880 C   0  0  0  0  0  2  0  0  0  0  0  0
  -29.8820  -21.8990   18.5150 C   0  0  0  0  0  2  0  0  0  0  0  0
  -29.1700  -22.8810   20.3090 C   0  0  2  0  0  0  0  0  0  0  0  0
  -29.4000  -22.9340   21.8260 C   0  0  0  0  0  1  0  0  0  0  0  0
  -29.4730  -21.3020   19.7700 N   0  0  1  0  0  4  0  0  0  0  0  0
  -30.3590  -21.1610   20.2310 H   0  0  0  0  0  0  0  0  0  0  0  0
  -28.9760  -19.7090   19.8430 C   0  0  0  0  0  2  0  0  0  0  0  0
  -30.4410  -15.2740   19.8850 C   0  0  0  0  0  0  0  0  0  0  0  0
  -30.3520  -12.8280   19.0010 C   0  0  0  0  0  2  0  0  0  0  0  0
  -29.3610  -12.6560   17.8240 C   0  0  0  0  0  2  0  0  0  0  0  0
  -27.9420  -12.3750   18.3490 C   0  0  0  0  0  2  0  0  0  0  0  0
  -27.5670  -13.3080   19.5310 C   0  0  0  0  0  3  0  0  0  0  0  0
  -28.6870  -13.4490   20.5810 C   0  0  0  0  0  2  0  0  0  0  0  0
  -29.8660  -13.9690   19.8670 N   0  0  0  0  0  0  0  0  0  0  0  0
  -31.6320  -15.2660   19.5300 O   0  0  0  0  0  0  0  0  0  0  0  0
  -30.5310  -18.0290   21.3830 C   0  0  0  0  0  2  0  0  0  0  0  0
  -29.5050  -16.8860   21.5230 C   0  0  0  0  0  2  0  0  0  0  0  0
  -30.0190  -18.2320   19.9740 C   0  0  0  0  0  3  0  0  0  0  0  0
  -29.7210  -16.5740   20.1010 N   0  0  0  0  0  0  0  0  0  0  0  0
  -25.2580  -13.8510   20.4630 C   0  0  0  0  0  0  0  0  0  0  0  0
  -24.2170  -13.0690   20.8760 C   0  0  0  0  0  0  0  0  0  0  0  0
  -24.6680  -11.7170   20.7700 C   0  0  0  0  0  0  0  0  0  0  0  0
  -26.2740  -12.9790   20.1190 N   0  0  0  0  0  0  0  0  0  0  0  0
  -25.9360  -11.6870   20.3710 N   0  0  0  0  0  0  0  0  0  0  0  0
  -23.9440  -10.4520   20.9640 C   0  0  0  0  0  0  0  0  0  0  0  0
  -24.3950   -9.4770   21.8820 C   0  0  0  0  0  3  0  0  0  0  0  0
  -23.6750   -8.2770   22.0660 C   0  0  0  0  0  3  0  0  0  0  0  0
  -22.4920   -8.0410   21.3290 C   0  0  0  0  0  0  0  0  0  0  0  0
  -22.0580   -9.0040   20.4010 C   0  0  0  0  0  3  0  0  0  0  0  0
  -22.7760  -10.1960   20.2170 C   0  0  0  0  0  3  0  0  0  0  0  0
  -21.7320   -6.8990   21.4240 O   0  0  0  0  0  0  0  0  0  0  0  0
  -21.6500   -6.1840   22.5900 C   0  0  0  0  0  0  0  0  0  0  0  0
  -21.1890   -6.7680   23.7910 C   0  0  0  0  0  3  0  0  0  0  0  0
  -21.0610   -5.9790   24.9530 C   0  0  0  0  0  3  0  0  0  0  0  0
  -21.3780   -4.6070   24.9130 C   0  0  0  0  0  0  0  0  0  0  0  0
  -21.8300   -4.0230   23.7160 C   0  0  0  0  0  3  0  0  0  0  0  0
  -21.9620   -4.8100   22.5600 C   0  0  0  0  0  0  0  0  0  0  0  0
  -22.3760   -4.2400   21.4030 F   0  0  0  0  0  0  0  0  0  0  0  0
  -21.2500   -3.8460   26.0250 F   0  0  0  0  0  0  0  0  0  0  0  0
  -22.8440  -13.5430   21.2520 C   0  0  0  0  0  0  0  0  0  0  0  0
  -22.1660  -12.8350   22.1490 N   0  0  0  0  0  0  0  0  0  0  0  0
  -22.3820  -14.5810   20.7800 O   0  0  0  0  0  0  0  0  0  0  0  0
  -22.5540  -11.9920   22.5430 H   0  0  0  0  0  0  0  0  0  0  0  0
  -21.2450  -13.1380   22.4390 H   0  0  0  0  0  0  0  0  0  0  0  0
  -25.4240  -15.2240   20.3230 N   0  0  0  0  0  0  0  0  0  0  0  0
  -24.6830  -15.8900   20.5120 H   0  0  0  0  0  0  0  0  0  0  0  0
  -26.2690  -15.6480   19.9600 H   0  0  0  0  0  0  0  0  0  0  0  0
  -28.0680  -24.2480   19.9220 C   0  0  0  0  0  2  0  0  0  0  0  0
  -28.2290  -25.8660   20.2070 O   0  0  0  0  0  0  0  0  0  0  0  0
  -24.6330  -31.8030   23.1930 C   0  0  0  0  0  0  0  0  0  0  0  0
  -27.2010  -26.9460   20.1520 C   0  0  0  0  0  0  0  0  0  0  0  0
  -23.4440  -30.4160   21.5390 C   0  0  0  0  0  3  0  0  0  0  0  0
  -24.8980  -28.8150   20.1190 C   0  0  0  0  0  0  0  0  0  0  0  0
  -26.0110  -30.6240   21.4100 C   0  0  0  0  0  2  0  0  0  0  0  0
  -26.0820  -29.2200   20.7440 C   0  0  0  0  0  0  0  0  0  0  0  0
  -27.2290  -28.3050   20.7380 C   0  0  0  0  0  3  0  0  0  0  0  0
  -25.9830  -26.6850   19.4880 C   0  0  0  0  0  3  0  0  0  0  0  0
  -24.8700  -27.5670   19.4750 C   0  0  0  0  0  3  0  0  0  0  0  0
  -23.6790  -29.7350   20.1640 C   0  0  0  0  0  2  0  0  0  0  0  0
  -24.7180  -30.9730   22.1010 N   0  0  0  0  0  0  0  0  0  0  0  0
  -23.5430  -32.0950   23.7100 O   0  0  0  0  0  0  0  0  0  0  0  0
  -22.7410  -29.4200   22.4970 C   0  0  0  0  0  0  0  0  0  0  0  0
  -21.4080  -29.2740   22.3750 N   0  0  0  0  0  0  0  0  0  0  0  0
  -23.4030  -28.7790   23.3200 O   0  0  0  0  0  0  0  0  0  0  0  0
  -20.9300  -29.8410   21.6880 H   0  0  0  0  0  0  0  0  0  0  0  0
  -18.0100  -28.1160   22.8890 C   0  0  0  0  0  0  0  0  0  0  0  0
  -20.5770  -28.3380   23.1380 C   0  0  0  0  0  3  0  0  0  0  0  0
  -20.6520  -26.9150   22.5390 C   0  0  0  0  0  2  0  0  0  0  0  0
  -19.5390  -26.6240   21.5280 C   0  0  0  0  0  2  0  0  0  0  0  0
  -18.1630  -26.7780   22.1860 C   0  0  0  0  0  2  0  0  0  0  0  0
  -19.1440  -28.8550   23.3200 C   0  0  0  0  0  0  0  0  0  0  0  0
  -18.9470  -30.1080   23.9410 C   0  0  0  0  0  3  0  0  0  0  0  0
  -17.6500  -30.6230   24.1320 C   0  0  0  0  0  3  0  0  0  0  0  0
  -16.5310  -29.8780   23.7180 C   0  0  0  0  0  3  0  0  0  0  0  0
  -16.7120  -28.6280   23.1020 C   0  0  0  0  0  3  0  0  0  0  0  0
  -25.9020  -32.4370   23.8360 C   0  0  0  0  0  3  0  0  0  0  0  0
  -25.5900  -33.8360   24.1800 N   0  0  0  0  0  0  0  0  0  0  0  0
  -25.9090  -34.9010   23.4340 C   0  0  0  0  0  0  0  0  0  0  0  0
  -26.5630  -34.8090   22.3920 O   0  0  0  0  0  0  0  0  0  0  0  0
  -25.0040  -33.9800   24.9910 H   0  0  0  0  0  0  0  0  0  0  0  0
  -24.1630  -36.6910   23.1490 C   0  0  0  0  0  1  0  0  0  0  0  0
  -25.4310  -36.2860   23.9150 C   0  0  0  0  0  3  0  0  0  0  0  0
  -27.5850  -37.1840   24.6840 C   0  0  0  0  0  1  0  0  0  0  0  0
  -26.4530  -37.3460   23.7760 N   0  0  0  0  0  0  0  0  0  0  0  0
  -26.0460  -38.2620   23.9370 H   0  0  0  0  0  0  0  0  0  0  0  0
  -26.4000  -31.6600   25.1210 C   0  0  1  0  0  0  0  0  0  0  0  0
  -25.2950  -31.4280   26.1770 C   0  0  0  0  0  1  0  0  0  0  0  0
  -26.9810  -30.2790   24.7430 C   0  0  0  0  0  1  0  0  0  0  0  0
  -27.5450  -32.4500   25.7990 C   0  0  0  0  0  1  0  0  0  0  0  0
  1  3  1  0
  2  1  1  0
  2  5  1  0
  3  4  1  1
  5  7  1  0
  5  6  1  1
  5  3  1  0
  8 19  1  0
  9 14  1  0
 10 11  1  0
 10  9  1  0
 12 11  1  0
 12 23  1  0
 12 13  1  0
 14  8  1  0
 14 13  1  0
 15  8  2  0
 16 17  1  0
 18  7  1  0
 18 19  1  0
 18 16  1  0
 19 17  1  0
 20 21  2  0
 21 40  1  0
 22 21  1  0
 22 25  1  0
 23 24  1  0
 23 20  1  0
 24 22  2  0
 25 26  1  0
 26 27  2  0
 28 31  1  0
 28 27  1  0
 29 28  2  0
 30 29  1  0
 30 25  2  0
 31 32  1  0
 32 33  1  0
 33 34  2  0
 35 34  1  0
 35 39  1  0
 36 35  2  0
 37 32  2  0
 37 36  1  0
 38 37  1  0
 40 41  1  0
 41 44  1  0
 41 43  1  0
 42 40  2  0
 45 20  1  0
 45 46  1  0
 47 45  1  0
 48 49  1  0
 48  3  1  0
 50 61  2  0
 51 49  1  0
 51 56  1  0
 52 60  1  0
 52 62  1  0
 53 59  1  0
 53 55  1  0
 54 60  1  0
 55 54  1  0
 56 55  2  0
 57 51  2  0
 58 57  1  0
 58 53  2  0
 59 52  1  0
 60 50  1  0
 62 64  2  0
 63 62  1  0
 65 63  1  0
 66 75  2  0
 66 71  1  0
 67 63  1  0
 67 71  1  0
 68 67  1  0
 69 70  1  0
 69 68  1  0
 70 66  1  0
 71 72  2  0
 72 73  1  0
 74 73  2  0
 75 74  1  0
 76 50  1  0
 76 77  1  0
 76 86  1  0
 77 80  1  0
 78 82  1  0
 78 77  1  0
 79 78  2  0
 82 81  1  0
 84 82  1  0
 84 85  1  0
 84 83  1  0
 86 89  1  1
 86 87  1  0
 88 86  1  0
M  ISO  4   8 100  19 100  48 101  49 101
M  END
>  <TORSDO>  (23) 
F 18

>  <SCORE>  (23) 
-16.244

>  <name>  (23) 
22

>  <ligand_id>  (23) 
22

>  <original_smiles>  (23) 
[H]c1c([H])c([H])c2c(c1[H])C([H])([H])C([H])([H])C([H])([H])C2([H])N([H])C(=O)C1([H])N(C(=O)C([H])(N([H])C(=O)C([H])(N([H])C([H])([H])[H])C([H])([H])[H])C(C([H])([H])[H])(C([H])([H])[H])C([H])([H])[H])C([H])([H])c2c([H])c(OC([H])([H])C3(C([H])([H])[H])C([H])([H])C([H])([H])[N+]3([H])C([H])([H])C3([H])N(C(=O)N4C([H])([H])C([H])([H])C([H])([H])C([H])(n5nc(-c6c([H])c([H])c(Oc7c([H])c([H])c(F)c([H])c7F)c([H])c6[H])c(C(=O)N([H])[H])c5N([H])[H])C4([H])[H])C([H])([H])C3([H])[H])c([H])c([H])c2C1([H])[H]

>  <smiles>  (23) 
[H]c1c([H])c([H])c2c(c1[H])C([H])([H])C([H])([H])C([H])([H])C2([H])N([H])C(=O)C1([H])N(C(=O)C([H])(N([H])C(=O)C([H])(N([H])C([H])([H])[H])C([H])([H])[H])C(C([H])([H])[H])(C([H])([H])[H])C([H])([H])[H])C([H])([H])c2c([H])c(OC([H])([H])C3(C([H])([H])[H])C([H])([H])C([H])([H])[N+]3([H])C([H])([H])C3([H])N(C(=O)N4C([H])([H])C([H])([H])C([H])([H])C([H])(n5nc(-c6c([H])c([H])c(Oc7c([H])c([H])c(F)c([H])c7F)c([H])c6[H])c(C(=O)N([H])[H])c5N([H])[H])C4([H])[H])C([H])([H])C3([H])[H])c([H])c([H])c2C1([H])[H]

$$$$
23:0:0
     RDKit          3D

 99109  0  0  1  0  0  0  0  0999 V2000
  -28.8370  -23.7120   19.4680 C   0  0  0  0  0  0  0  0  0  0  0  0
  -30.0460  -23.0750   19.0360 C   0  0  0  0  0  0  0  0  0  0  0  0
  -27.9730  -22.7850   20.1060 C   0  0  0  0  0  0  0  0  0  0  0  0
  -29.4450  -20.9700   19.8630 C   0  0  0  0  0  0  0  0  0  0  0  0
  -28.9530  -18.9530   21.2110 C   0  0  0  0  0  2  0  0  0  0  0  0
  -29.6430  -19.2400   22.5640 C   0  0  0  0  0  2  0  0  0  0  0  0
  -31.7880  -18.7910   21.3410 C   0  0  0  0  0  2  0  0  0  0  0  0
  -31.0050  -18.8050   19.9950 C   0  0  0  0  0  3  0  0  0  0  0  0
  -26.5950  -23.1830   20.5970 C   0  0  0  0  0  1  0  0  0  0  0  0
  -31.8310  -19.3590   23.7210 C   0  0  0  0  0  1  0  0  0  0  0  0
  -30.3470  -21.7520   19.2790 N   0  0  0  0  0  0  0  0  0  0  0  0
  -28.2850  -21.4680   20.2880 N   0  0  0  0  0  0  0  0  0  0  0  0
  -29.7070  -19.5680   20.1140 N   0  0  0  0  0  0  0  0  0  0  0  0
  -31.1070  -19.5200   22.4440 N   0  0  2  0  0  4  0  0  0  0  0  0
  -31.1720  -20.4960   22.1980 H   0  0  0  0  0  0  0  0  0  0  0  0
  -30.7310  -24.2670   16.8100 C   0  0  0  0  0  2  0  0  0  0  0  0
  -31.6540  -23.0940   16.9650 C   0  0  0  0  0  2  0  0  0  0  0  0
  -31.0800  -23.7710   18.2000 C   0  0  0  0  0  3  0  0  0  0  0  0
  -28.3690  -25.1870   19.0350 C   0  0  0  0  0  2  0  0  0  0  0  0
  -28.2530  -26.3530   19.9710 O   0  0  0  0  0  0  0  0  0  0  0  0
  -24.6870  -31.8270   23.1830 C   0  0  0  0  0  0  0  0  0  0  0  0
  -27.1550  -27.2490   19.9560 C   0  0  0  0  0  0  0  0  0  0  0  0
  -23.4250  -30.4630   21.5590 C   0  0  0  0  0  3  0  0  0  0  0  0
  -24.8170  -28.9250   20.0640 C   0  0  0  0  0  0  0  0  0  0  0  0
  -25.9680  -30.7410   21.3220 C   0  0  0  0  0  2  0  0  0  0  0  0
  -26.0080  -29.3700   20.6450 C   0  0  0  0  0  0  0  0  0  0  0  0
  -27.1730  -28.5320   20.6070 C   0  0  0  0  0  3  0  0  0  0  0  0
  -25.9300  -26.8770   19.3600 C   0  0  0  0  0  3  0  0  0  0  0  0
  -24.7800  -27.6830   19.4140 C   0  0  0  0  0  3  0  0  0  0  0  0
  -23.5900  -29.8050   20.1640 C   0  0  0  0  0  2  0  0  0  0  0  0
  -24.7150  -31.0270   22.0770 N   0  0  0  0  0  0  0  0  0  0  0  0
  -23.6220  -32.1120   23.7510 O   0  0  0  0  0  0  0  0  0  0  0  0
  -22.7800  -29.4390   22.5230 C   0  0  0  0  0  0  0  0  0  0  0  0
  -21.4510  -29.2630   22.4160 N   0  0  0  0  0  0  0  0  0  0  0  0
  -23.4710  -28.8090   23.3270 O   0  0  0  0  0  0  0  0  0  0  0  0
  -20.9570  -29.8070   21.7230 H   0  0  0  0  0  0  0  0  0  0  0  0
  -18.0900  -28.0510   22.9360 C   0  0  0  0  0  0  0  0  0  0  0  0
  -20.6460  -28.3280   23.1990 C   0  0  0  0  0  3  0  0  0  0  0  0
  -20.7520  -26.8920   22.6360 C   0  0  0  0  0  2  0  0  0  0  0  0
  -19.6600  -26.5630   21.6160 C   0  0  0  0  0  2  0  0  0  0  0  0
  -18.2760  -26.7050   22.2580 C   0  0  0  0  0  2  0  0  0  0  0  0
  -19.2030  -28.8220   23.3630 C   0  0  0  0  0  0  0  0  0  0  0  0
  -18.9780  -30.0830   23.9540 C   0  0  0  0  0  3  0  0  0  0  0  0
  -17.6690  -30.5700   24.1250 C   0  0  0  0  0  3  0  0  0  0  0  0
  -16.5690  -29.7970   23.7100 C   0  0  0  0  0  3  0  0  0  0  0  0
  -16.7830  -28.5410   23.1190 C   0  0  0  0  0  3  0  0  0  0  0  0
  -25.9930  -32.4350   23.7790 C   0  0  0  0  0  3  0  0  0  0  0  0
  -26.5640  -31.6090   24.9970 C   0  0  1  0  0  0  0  0  0  0  0  0
  -25.5190  -31.3170   26.0970 C   0  0  0  0  0  1  0  0  0  0  0  0
  -27.1310  -30.2490   24.5250 C   0  0  0  0  0  1  0  0  0  0  0  0
  -27.7400  -32.3760   25.6420 C   0  0  0  0  0  1  0  0  0  0  0  0
  -25.6920  -33.8170   24.1820 N   0  0  0  0  0  0  0  0  0  0  0  0
  -25.9880  -34.9030   23.4560 C   0  0  0  0  0  0  0  0  0  0  0  0
  -26.6090  -34.8480   22.3910 O   0  0  0  0  0  0  0  0  0  0  0  0
  -25.1330  -33.9330   25.0130 H   0  0  0  0  0  0  0  0  0  0  0  0
  -24.2370  -36.6950   23.2710 C   0  0  0  0  0  1  0  0  0  0  0  0
  -25.5210  -36.2660   23.9970 C   0  0  0  0  0  3  0  0  0  0  0  0
  -27.6890  -37.1300   24.7530 C   0  0  0  0  0  1  0  0  0  0  0  0
  -26.5400  -37.3300   23.8740 N   0  0  0  0  0  0  0  0  0  0  0  0
  -26.1400  -38.2410   24.0810 H   0  0  0  0  0  0  0  0  0  0  0  0
  -30.9730  -17.3450   19.2910 C   0  0  0  0  0  2  0  0  0  0  0  0
  -31.4750  -14.8740   19.8820 C   0  0  0  0  0  0  0  0  0  0  0  0
  -31.1030  -12.5940   18.9830 C   0  0  0  0  0  2  0  0  0  0  0  0
  -30.1400  -12.7110   17.7780 C   0  0  0  0  0  2  0  0  0  0  0  0
  -28.6720  -12.6600   18.2420 C   0  0  0  0  0  2  0  0  0  0  0  0
  -28.3880  -13.5960   19.4440 C   0  0  0  0  0  3  0  0  0  0  0  0
  -29.4670  -13.4650   20.5430 C   0  0  0  0  0  2  0  0  0  0  0  0
  -30.7760  -13.6950   19.9170 N   0  0  0  0  0  0  0  0  0  0  0  0
  -32.6350  -14.9050   19.4690 O   0  0  0  0  0  0  0  0  0  0  0  0
  -30.7680  -16.0410   20.0510 N   0  0  0  0  0  0  0  0  0  0  0  0
  -29.8570  -15.9170   20.4650 H   0  0  0  0  0  0  0  0  0  0  0  0
  -26.0610  -14.3440   20.2310 C   0  0  0  0  0  0  0  0  0  0  0  0
  -24.9570  -13.6450   20.6270 C   0  0  0  0  0  0  0  0  0  0  0  0
  -25.3240  -12.2630   20.5730 C   0  0  0  0  0  0  0  0  0  0  0  0
  -27.0390  -13.3990   19.9660 N   0  0  0  0  0  0  0  0  0  0  0  0
  -26.6020  -12.1420   20.2320 N   0  0  0  0  0  0  0  0  0  0  0  0
  -24.5180  -11.0520   20.7770 C   0  0  0  0  0  0  0  0  0  0  0  0
  -24.8810  -10.0680   21.7250 C   0  0  0  0  0  3  0  0  0  0  0  0
  -24.0790   -8.9220   21.9110 C   0  0  0  0  0  3  0  0  0  0  0  0
  -22.8970   -8.7490   21.1510 C   0  0  0  0  0  0  0  0  0  0  0  0
  -22.5530   -9.7200   20.1930 C   0  0  0  0  0  3  0  0  0  0  0  0
  -23.3560  -10.8570   20.0040 C   0  0  0  0  0  3  0  0  0  0  0  0
  -22.0700   -7.6560   21.2500 O   0  0  0  0  0  0  0  0  0  0  0  0
  -21.9030   -6.9830   22.4340 C   0  0  0  0  0  0  0  0  0  0  0  0
  -21.4680   -7.6370   23.6080 C   0  0  0  0  0  3  0  0  0  0  0  0
  -21.2430   -6.8950   24.7850 C   0  0  0  0  0  3  0  0  0  0  0  0
  -21.4450   -5.5030   24.7900 C   0  0  0  0  0  0  0  0  0  0  0  0
  -21.8720   -4.8490   23.6210 C   0  0  0  0  0  3  0  0  0  0  0  0
  -22.0980   -5.5880   22.4460 C   0  0  0  0  0  0  0  0  0  0  0  0
  -22.4900   -4.9490   21.3180 F   0  0  0  0  0  0  0  0  0  0  0  0
  -21.2210   -4.7890   25.9180 F   0  0  0  0  0  0  0  0  0  0  0  0
  -23.6020  -14.2090   20.9370 C   0  0  0  0  0  0  0  0  0  0  0  0
  -22.8660  -13.5810   21.8440 N   0  0  0  0  0  0  0  0  0  0  0  0
  -23.2080  -15.2470   20.4040 O   0  0  0  0  0  0  0  0  0  0  0  0
  -23.2000  -12.7420   22.2930 H   0  0  0  0  0  0  0  0  0  0  0  0
  -21.9550  -13.9450   22.0880 H   0  0  0  0  0  0  0  0  0  0  0  0
  -26.3180  -15.7020   20.0450 N   0  0  0  0  0  0  0  0  0  0  0  0
  -25.5820  -16.3980   20.1250 H   0  0  0  0  0  0  0  0  0  0  0  0
  -27.1430  -16.0500   19.5770 H   0  0  0  0  0  0  0  0  0  0  0  0
  1  3  1  0
  2 11  1  0
  2  1  2  0
  3 12  2  0
  3  9  1  0
  4 13  1  0
  4 12  1  0
  5  6  1  0
  7 14  1  0
  8 61  1  0
  8 13  1  0
  8  7  1  0
 11  4  2  0
 13  5  1  0
 14  6  1  0
 14 10  1  0
 14 15  1  6
 16 17  1  0
 16 18  1  0
 17 18  1  0
 18  2  1  0
 19  1  1  0
 19 20  1  0
 21 32  2  0
 22 20  1  0
 22 27  1  0
 23 31  1  0
 23 33  1  0
 24 30  1  0
 24 26  1  0
 25 31  1  0
 26 25  1  0
 27 26  2  0
 28 29  1  0
 28 22  2  0
 29 24  2  0
 30 23  1  0
 31 21  1  0
 33 35  2  0
 34 33  1  0
 36 34  1  0
 37 46  2  0
 37 42  1  0
 38 34  1  0
 38 42  1  0
 39 38  1  0
 40 41  1  0
 40 39  1  0
 41 37  1  0
 42 43  2  0
 43 44  1  0
 45 44  2  0
 46 45  1  0
 47 21  1  0
 47 52  1  0
 47 48  1  0
 48 51  1  1
 48 49  1  0
 50 48  1  0
 52 55  1  0
 53 57  1  0
 53 52  1  0
 54 53  2  0
 57 56  1  0
 59 57  1  0
 59 60  1  0
 59 58  1  0
 61 70  1  0
 62 68  1  0
 62 70  1  0
 63 68  1  0
 64 65  1  0
 64 63  1  0
 66 65  1  0
 66 75  1  0
 66 67  1  0
 68 67  1  0
 69 62  2  0
 70 71  1  0
 72 73  2  0
 73 92  1  0
 74 73  1  0
 74 77  1  0
 75 72  1  0
 75 76  1  0
 76 74  2  0
 77 78  1  0
 78 79  2  0
 80 83  1  0
 80 79  1  0
 81 80  2  0
 82 81  1  0
 82 77  2  0
 83 84  1  0
 84 89  2  0
 84 85  1  0
 85 86  2  0
 86 87  1  0
 87 91  1  0
 88 87  2  0
 89 88  1  0
 90 89  1  0
 92 93  1  0
 93 96  1  0
 93 95  1  0
 94 92  2  0
 97 98  1  0
 97 72  1  0
 99 97  1  0
M  ISO  4  19 101  20 101  62 100  70 100
M  END
>  <TORSDO>  (24) 
F 19

>  <SCORE>  (24) 
-11.241

>  <name>  (24) 
23

>  <ligand_id>  (24) 
23

>  <original_smiles>  (24) 
[H]c1c([H])c([H])c2c(c1[H])C([H])([H])C([H])([H])C([H])([H])C2([H])N([H])C(=O)C1([H])N(C(=O)C([H])(N([H])C(=O)C([H])(N([H])C([H])([H])[H])C([H])([H])[H])C(C([H])([H])[H])(C([H])([H])[H])C([H])([H])[H])C([H])([H])c2c([H])c(OC([H])([H])c3c(C([H])([H])[H])nc(N4C([H])([H])C([H])([H])[N+]([H])(C([H])([H])[H])C([H])([H])C4([H])C([H])([H])N([H])C(=O)N4C([H])([H])C([H])([H])C([H])([H])C([H])(n5nc(-c6c([H])c([H])c(Oc7c([H])c([H])c(F)c([H])c7F)c([H])c6[H])c(C(=O)N([H])[H])c5N([H])[H])C4([H])[H])nc3C3([H])C([H])([H])C3([H])[H])c([H])c([H])c2C1([H])[H]

>  <smiles>  (24) 
[H]c1c([H])c([H])c2c(c1[H])C([H])([H])C([H])([H])C([H])([H])C2([H])N([H])C(=O)C1([H])N(C(=O)C([H])(N([H])C(=O)C([H])(N([H])C([H])([H])[H])C([H])([H])[H])C(C([H])([H])[H])(C([H])([H])[H])C([H])([H])[H])C([H])([H])c2c([H])c(OC([H])([H])c3c(C([H])([H])[H])nc(N4C([H])([H])C([H])([H])[N+]([H])(C([H])([H])[H])C([H])([H])C4([H])C([H])([H])N([H])C(=O)N4C([H])([H])C([H])([H])C([H])([H])C([H])(n5nc(-c6c([H])c([H])c(Oc7c([H])c([H])c(F)c([H])c7F)c([H])c6[H])c(C(=O)N([H])[H])c5N([H])[H])C4([H])[H])nc3C3([H])C([H])([H])C3([H])[H])c([H])c([H])c2C1([H])[H]

$$$$
24:0:0
     RDKit          3D

 94103  0  0  1  0  0  0  0  0999 V2000
  -28.8200  -22.4080   20.6720 C   0  0  0  0  0  3  0  0  0  0  0  0
  -28.6100  -23.6850   20.0230 C   0  0  0  0  0  3  0  0  0  0  0  0
  -29.1810  -21.2450   19.9090 C   0  0  0  0  0  0  0  0  0  0  0  0
  -29.1150  -22.6270   18.0550 C   0  0  0  0  0  0  0  0  0  0  0  0
  -28.7670  -23.7420   18.6870 N   0  0  0  0  0  0  0  0  0  0  0  0
  -29.3060  -21.4130   18.5830 N   0  0  0  0  0  0  0  0  0  0  0  0
  -29.4460  -19.9180   20.4440 N   0  0  0  0  0  0  0  0  0  0  0  0
  -29.3790  -19.8280   21.4520 H   0  0  0  0  0  0  0  0  0  0  0  0
  -30.6800  -18.7670   18.5890 C   0  0  0  0  0  2  0  0  0  0  0  0
  -31.0980  -17.3270   18.7970 C   0  0  0  0  0  2  0  0  0  0  0  0
  -29.5870  -18.6160   19.6650 C   0  0  0  0  0  3  0  0  0  0  0  0
  -30.4510  -17.3360   20.2000 C   0  0  0  0  0  3  0  0  0  0  0  0
  -30.5790  -14.7370   20.3620 C   0  0  0  0  0  0  0  0  0  0  0  0
  -30.3270  -12.4600   19.3840 C   0  0  0  0  0  2  0  0  0  0  0  0
  -29.4130  -12.5350   18.1440 C   0  0  0  0  0  2  0  0  0  0  0  0
  -27.9320  -12.3960   18.5520 C   0  0  0  0  0  2  0  0  0  0  0  0
  -27.5520  -13.2890   19.7630 C   0  0  0  0  0  3  0  0  0  0  0  0
  -28.5990  -13.2180   20.8950 C   0  0  0  0  0  2  0  0  0  0  0  0
  -29.9020  -13.5420   20.3010 N   0  0  0  0  0  0  0  0  0  0  0  0
  -31.7890  -14.7530   20.1250 O   0  0  0  0  0  0  0  0  0  0  0  0
  -29.8740  -15.9340   20.4250 N   0  0  0  0  0  0  0  0  0  0  0  0
  -28.8790  -15.8710   20.5800 H   0  0  0  0  0  0  0  0  0  0  0  0
  -25.1590  -13.8830   20.4680 C   0  0  0  0  0  0  0  0  0  0  0  0
  -24.0890  -13.1120   20.8350 C   0  0  0  0  0  0  0  0  0  0  0  0
  -24.5530  -11.7620   20.8230 C   0  0  0  0  0  0  0  0  0  0  0  0
  -26.2050  -13.0020   20.2490 N   0  0  0  0  0  0  0  0  0  0  0  0
  -25.8480  -11.7220   20.5280 N   0  0  0  0  0  0  0  0  0  0  0  0
  -23.8240  -10.5020   21.0170 C   0  0  0  0  0  0  0  0  0  0  0  0
  -24.2450   -9.5370   21.9600 C   0  0  0  0  0  3  0  0  0  0  0  0
  -23.5140   -8.3430   22.1390 C   0  0  0  0  0  3  0  0  0  0  0  0
  -22.3470   -8.1030   21.3760 C   0  0  0  0  0  0  0  0  0  0  0  0
  -21.9450   -9.0540   20.4210 C   0  0  0  0  0  3  0  0  0  0  0  0
  -22.6760  -10.2400   20.2390 C   0  0  0  0  0  3  0  0  0  0  0  0
  -21.5890   -6.9600   21.4660 O   0  0  0  0  0  0  0  0  0  0  0  0
  -21.5280   -6.2250   22.6210 C   0  0  0  0  0  0  0  0  0  0  0  0
  -21.0940   -6.7870   23.8420 C   0  0  0  0  0  3  0  0  0  0  0  0
  -20.9800   -5.9770   24.9900 C   0  0  0  0  0  3  0  0  0  0  0  0
  -21.2950   -4.6070   24.9180 C   0  0  0  0  0  0  0  0  0  0  0  0
  -21.7220   -4.0440   23.7030 C   0  0  0  0  0  3  0  0  0  0  0  0
  -21.8360   -4.8500   22.5570 C   0  0  0  0  0  0  0  0  0  0  0  0
  -22.2290   -4.2990   21.3840 F   0  0  0  0  0  0  0  0  0  0  0  0
  -21.1800   -3.8260   26.0180 F   0  0  0  0  0  0  0  0  0  0  0  0
  -22.6890  -13.5930   21.0850 C   0  0  0  0  0  0  0  0  0  0  0  0
  -21.9480  -12.9060   21.9470 N   0  0  0  0  0  0  0  0  0  0  0  0
  -22.2610  -14.6150   20.5490 O   0  0  0  0  0  0  0  0  0  0  0  0
  -22.3080  -12.0830   22.4090 H   0  0  0  0  0  0  0  0  0  0  0  0
  -21.0060  -13.2090   22.1530 H   0  0  0  0  0  0  0  0  0  0  0  0
  -25.3270  -15.2520   20.2770 N   0  0  0  0  0  0  0  0  0  0  0  0
  -24.5560  -15.9060   20.3610 H   0  0  0  0  0  0  0  0  0  0  0  0
  -26.1730  -15.6820   19.9280 H   0  0  0  0  0  0  0  0  0  0  0  0
  -29.9210  -21.7510   15.9900 C   0  0  0  0  0  1  0  0  0  0  0  0
  -29.2880  -22.7950   16.7250 O   0  0  0  0  0  0  0  0  0  0  0  0
  -28.1070  -25.0130   20.7480 C   0  0  0  0  0  2  0  0  0  0  0  0
  -28.3080  -26.3940   20.1830 O   0  0  0  0  0  0  0  0  0  0  0  0
  -24.6190  -31.8820   23.2560 C   0  0  0  0  0  0  0  0  0  0  0  0
  -27.2130  -27.2870   20.1930 C   0  0  0  0  0  0  0  0  0  0  0  0
  -23.4120  -30.4830   21.6180 C   0  0  0  0  0  3  0  0  0  0  0  0
  -24.8570  -28.9250   20.1910 C   0  0  0  0  0  0  0  0  0  0  0  0
  -25.9540  -30.7900   21.4340 C   0  0  0  0  0  2  0  0  0  0  0  0
  -26.0310  -29.4080   20.7830 C   0  0  0  0  0  0  0  0  0  0  0  0
  -27.2180  -28.6030   20.7690 C   0  0  0  0  0  3  0  0  0  0  0  0
  -26.0170  -26.8670   19.5780 C   0  0  0  0  0  3  0  0  0  0  0  0
  -24.8540  -27.6630   19.5770 C   0  0  0  0  0  3  0  0  0  0  0  0
  -23.6230  -29.8050   20.2390 C   0  0  0  0  0  2  0  0  0  0  0  0
  -24.6810  -31.0710   22.1580 N   0  0  0  0  0  0  0  0  0  0  0  0
  -23.5370  -32.1600   23.7940 O   0  0  0  0  0  0  0  0  0  0  0  0
  -22.7470  -29.4700   22.5810 C   0  0  0  0  0  0  0  0  0  0  0  0
  -21.4210  -29.2890   22.4540 N   0  0  0  0  0  0  0  0  0  0  0  0
  -23.4250  -28.8510   23.4060 O   0  0  0  0  0  0  0  0  0  0  0  0
  -20.9320  -29.8400   21.7630 H   0  0  0  0  0  0  0  0  0  0  0  0
  -18.0500  -28.0660   22.9400 C   0  0  0  0  0  0  0  0  0  0  0  0
  -20.6040  -28.3500   23.2250 C   0  0  0  0  0  3  0  0  0  0  0  0
  -20.7220  -26.9150   22.6610 C   0  0  0  0  0  2  0  0  0  0  0  0
  -19.6310  -26.5760   21.6410 C   0  0  0  0  0  2  0  0  0  0  0  0
  -18.2430  -26.7140   22.2740 C   0  0  0  0  0  2  0  0  0  0  0  0
  -19.1590  -28.8410   23.3720 C   0  0  0  0  0  0  0  0  0  0  0  0
  -18.9260  -30.1050   23.9540 C   0  0  0  0  0  3  0  0  0  0  0  0
  -17.6160  -30.5960   24.1080 C   0  0  0  0  0  3  0  0  0  0  0  0
  -16.5210  -29.8180   23.6950 C   0  0  0  0  0  3  0  0  0  0  0  0
  -16.7390  -28.5550   23.1150 C   0  0  0  0  0  3  0  0  0  0  0  0
  -25.9030  -32.5140   23.8760 C   0  0  0  0  0  3  0  0  0  0  0  0
  -26.4180  -31.7460   25.1560 C   0  0  1  0  0  0  0  0  0  0  0  0
  -25.3250  -31.5180   26.2260 C   0  0  0  0  0  1  0  0  0  0  0  0
  -26.9970  -30.3640   24.7730 C   0  0  0  0  0  1  0  0  0  0  0  0
  -27.5720  -32.5400   25.8140 C   0  0  0  0  0  1  0  0  0  0  0  0
  -25.5960  -33.9140   24.2050 N   0  0  0  0  0  0  0  0  0  0  0  0
  -25.9270  -34.9670   23.4450 C   0  0  0  0  0  0  0  0  0  0  0  0
  -26.5920  -34.8610   22.4120 O   0  0  0  0  0  0  0  0  0  0  0  0
  -25.0070  -34.0700   25.0100 H   0  0  0  0  0  0  0  0  0  0  0  0
  -24.2040  -36.7650   23.0960 C   0  0  0  0  0  1  0  0  0  0  0  0
  -25.4460  -36.3560   23.9040 C   0  0  0  0  0  3  0  0  0  0  0  0
  -27.5850  -37.2370   24.7300 C   0  0  0  0  0  1  0  0  0  0  0  0
  -26.4800  -37.4070   23.7890 N   0  0  0  0  0  0  0  0  0  0  0  0
  -26.0770  -38.3280   23.9360 H   0  0  0  0  0  0  0  0  0  0  0  0
  2  1  1  0
  2 53  1  0
  3  7  1  0
  3  1  2  0
  4  6  2  0
  4  5  2  0
  5  2  1  0
  6  3  1  0
  7  8  1  0
  9 10  1  0
  9 11  1  0
 10 12  1  0
 11 12  1  0
 11  7  1  0
 12 21  1  0
 13 21  1  0
 14 19  1  0
 15 16  1  0
 15 14  1  0
 17 16  1  0
 17 26  1  0
 17 18  1  0
 19 13  1  0
 19 18  1  0
 20 13  2  0
 21 22  1  0
 23 24  2  0
 24 43  1  0
 25 24  1  0
 25 28  1  0
 26 23  1  0
 26 27  1  0
 27 25  2  0
 28 29  1  0
 29 30  2  0
 31 34  1  0
 31 30  1  0
 32 31  2  0
 33 32  1  0
 33 28  2  0
 34 35  1  0
 35 36  1  0
 36 37  2  0
 38 37  1  0
 38 42  1  0
 39 38  2  0
 40 35  2  0
 40 39  1  0
 41 40  1  0
 43 44  1  0
 44 47  1  0
 44 46  1  0
 45 43  2  0
 48 49  1  0
 48 23  1  0
 50 48  1  0
 51 52  1  0
 52  4  1  0
 54 56  1  0
 54 53  1  0
 55 66  2  0
 56 61  1  0
 57 65  1  0
 57 67  1  0
 58 64  1  0
 58 60  1  0
 59 65  1  0
 60 59  1  0
 61 60  2  0
 62 56  2  0
 63 62  1  0
 63 58  2  0
 64 57  1  0
 65 55  1  0
 67 69  2  0
 68 67  1  0
 70 68  1  0
 71 80  2  0
 71 76  1  0
 72 68  1  0
 72 76  1  0
 73 72  1  0
 74 75  1  0
 74 73  1  0
 75 71  1  0
 76 77  2  0
 77 78  1  0
 79 78  2  0
 80 79  1  0
 81 55  1  0
 81 86  1  0
 81 82  1  0
 82 85  1  1
 82 83  1  0
 84 82  1  0
 86 89  1  0
 87 91  1  0
 87 86  1  0
 88 87  2  0
 91 90  1  0
 93 91  1  0
 93 94  1  0
 93 92  1  0
M  ISO  4  13 100  21 100  53 101  54 101
M  END
>  <TORSDO>  (25) 
F 19

>  <SCORE>  (25) 
-14.298

>  <name>  (25) 
24

>  <ligand_id>  (25) 
24

>  <original_smiles>  (25) 
[H]c1c(N([H])C2([H])C([H])([H])C([H])([H])C2([H])N([H])C(=O)N2C([H])([H])C([H])([H])C([H])([H])C([H])(n3nc(-c4c([H])c([H])c(Oc5c([H])c([H])c(F)c([H])c5F)c([H])c4[H])c(C(=O)N([H])[H])c3N([H])[H])C2([H])[H])nc(OC([H])([H])[H])nc1C([H])([H])Oc1c([H])c([H])c2c(c1[H])C([H])([H])N(C(=O)C([H])(N([H])C(=O)C([H])(N([H])C([H])([H])[H])C([H])([H])[H])C(C([H])([H])[H])(C([H])([H])[H])C([H])([H])[H])C([H])(C(=O)N([H])C1([H])c3c([H])c([H])c([H])c([H])c3C([H])([H])C([H])([H])C1([H])[H])C2([H])[H]

>  <smiles>  (25) 
[H]c1c(N([H])C2([H])C([H])([H])C([H])([H])C2([H])N([H])C(=O)N2C([H])([H])C([H])([H])C([H])([H])C([H])(n3nc(-c4c([H])c([H])c(Oc5c([H])c([H])c(F)c([H])c5F)c([H])c4[H])c(C(=O)N([H])[H])c3N([H])[H])C2([H])[H])nc(OC([H])([H])[H])nc1C([H])([H])Oc1c([H])c([H])c2c(c1[H])C([H])([H])N(C(=O)C([H])(N([H])C(=O)C([H])(N([H])C([H])([H])[H])C([H])([H])[H])C(C([H])([H])[H])(C([H])([H])[H])C([H])([H])[H])C([H])(C(=O)N([H])C1([H])c3c([H])c([H])c([H])c([H])c3C([H])([H])C([H])([H])C1([H])[H])C2([H])[H]

$$$$
25:0:0
     RDKit          3D

 89 98  0  0  1  0  0  0  0  0999 V2000
  -29.9370  -22.1700   19.1400 C   0  0  0  0  0  3  0  0  0  0  0  0
  -29.5310  -19.7670   19.7520 C   0  0  0  0  0  0  0  0  0  0  0  0
  -28.7630  -22.8100   19.7370 C   0  0  0  0  0  0  0  0  0  0  0  0
  -28.3500  -20.4170   20.3460 C   0  0  0  0  0  0  0  0  0  0  0  0
  -27.3510  -19.6000   21.1520 C   0  0  0  0  0  1  0  0  0  0  0  0
  -30.3050  -20.7840   19.1750 N   0  0  0  0  0  0  0  0  0  0  0  0
  -28.0020  -21.7960   20.3130 N   0  0  0  0  0  0  0  0  0  0  0  0
  -30.6670  -15.2490   19.4210 C   0  0  0  0  0  0  0  0  0  0  0  0
  -30.4700  -12.8310   18.5060 C   0  0  0  0  0  2  0  0  0  0  0  0
  -29.3950  -12.6850   17.4000 C   0  0  0  0  0  2  0  0  0  0  0  0
  -28.0050  -12.4470   18.0170 C   0  0  0  0  0  2  0  0  0  0  0  0
  -27.7290  -13.3960   19.2100 C   0  0  0  0  0  3  0  0  0  0  0  0
  -28.9150  -13.4790   20.1930 C   0  0  0  0  0  2  0  0  0  0  0  0
  -30.0740  -13.9580   19.4230 N   0  0  0  0  0  0  0  0  0  0  0  0
  -31.7990  -15.2720   18.9170 O   0  0  0  0  0  0  0  0  0  0  0  0
  -30.9680  -17.8140   21.2660 C   0  0  0  0  0  2  0  0  0  0  0  0
  -30.1920  -16.4840   21.3800 C   0  0  0  0  0  2  0  0  0  0  0  0
  -30.0940  -18.1380   20.0830 C   0  0  0  0  0  3  0  0  0  0  0  0
  -29.9950  -16.4740   19.9000 N   0  0  0  0  0  0  0  0  0  0  0  0
  -25.5090  -13.9930   20.3170 C   0  0  0  0  0  0  0  0  0  0  0  0
  -24.4740  -13.2300   20.7830 C   0  0  0  0  0  0  0  0  0  0  0  0
  -24.8740  -11.8690   20.6070 C   0  0  0  0  0  0  0  0  0  0  0  0
  -26.4700  -13.0980   19.8770 N   0  0  0  0  0  0  0  0  0  0  0  0
  -26.1070  -11.8110   20.1160 N   0  0  0  0  0  0  0  0  0  0  0  0
  -24.1260  -10.6220   20.8210 C   0  0  0  0  0  0  0  0  0  0  0  0
  -24.5700   -9.6410   21.7340 C   0  0  0  0  0  3  0  0  0  0  0  0
  -23.8190   -8.4620   21.9380 C   0  0  0  0  0  3  0  0  0  0  0  0
  -22.6130   -8.2570   21.2290 C   0  0  0  0  0  0  0  0  0  0  0  0
  -22.1870   -9.2260   20.3050 C   0  0  0  0  0  3  0  0  0  0  0  0
  -22.9370  -10.3970   20.0980 C   0  0  0  0  0  3  0  0  0  0  0  0
  -21.8330   -7.1310   21.3430 O   0  0  0  0  0  0  0  0  0  0  0  0
  -21.7020   -6.4630   22.5350 C   0  0  0  0  0  0  0  0  0  0  0  0
  -21.1970   -7.0960   23.6910 C   0  0  0  0  0  3  0  0  0  0  0  0
  -21.0130   -6.3550   24.8760 C   0  0  0  0  0  3  0  0  0  0  0  0
  -21.3250   -4.9830   24.9050 C   0  0  0  0  0  0  0  0  0  0  0  0
  -21.8220   -4.3500   23.7530 C   0  0  0  0  0  3  0  0  0  0  0  0
  -22.0080   -5.0870   22.5700 C   0  0  0  0  0  0  0  0  0  0  0  0
  -22.4680   -4.4680   21.4570 F   0  0  0  0  0  0  0  0  0  0  0  0
  -21.1420   -4.2690   26.0400 F   0  0  0  0  0  0  0  0  0  0  0  0
  -23.1500  -13.7370   21.2730 C   0  0  0  0  0  0  0  0  0  0  0  0
  -22.5250  -13.0210   22.2000 N   0  0  0  0  0  0  0  0  0  0  0  0
  -22.6840  -14.8010   20.8680 O   0  0  0  0  0  0  0  0  0  0  0  0
  -22.9170  -12.1570   22.5450 H   0  0  0  0  0  0  0  0  0  0  0  0
  -21.6400  -13.3390   22.5690 H   0  0  0  0  0  0  0  0  0  0  0  0
  -25.7070  -15.3650   20.2020 N   0  0  0  0  0  0  0  0  0  0  0  0
  -24.9940  -16.0380   20.4690 H   0  0  0  0  0  0  0  0  0  0  0  0
  -26.5280  -15.7960   19.7980 H   0  0  0  0  0  0  0  0  0  0  0  0
  -28.0650  -24.3790   19.4410 C   0  0  0  0  0  2  0  0  0  0  0  0
  -28.2720  -25.9020   19.9780 O   0  0  0  0  0  0  0  0  0  0  0  0
  -24.4980  -31.6230   23.0680 C   0  0  0  0  0  0  0  0  0  0  0  0
  -27.2380  -26.9680   19.9090 C   0  0  0  0  0  0  0  0  0  0  0  0
  -23.3560  -30.2340   21.3840 C   0  0  0  0  0  3  0  0  0  0  0  0
  -24.8670  -28.7400   19.9130 C   0  0  0  0  0  0  0  0  0  0  0  0
  -25.9100  -30.5560   21.2480 C   0  0  0  0  0  2  0  0  0  0  0  0
  -26.0350  -29.1730   20.5510 C   0  0  0  0  0  0  0  0  0  0  0  0
  -27.2150  -28.3070   20.5300 C   0  0  0  0  0  3  0  0  0  0  0  0
  -26.0380  -26.6870   19.2150 C   0  0  0  0  0  3  0  0  0  0  0  0
  -24.8900  -27.5170   19.2260 C   0  0  0  0  0  3  0  0  0  0  0  0
  -23.6110  -29.6050   19.9860 C   0  0  0  0  0  2  0  0  0  0  0  0
  -24.6080  -30.8290   21.9550 N   0  0  0  0  0  0  0  0  0  0  0  0
  -23.3970  -31.8550   23.5950 O   0  0  0  0  0  0  0  0  0  0  0  0
  -22.7020  -29.1810   22.3170 C   0  0  0  0  0  0  0  0  0  0  0  0
  -21.3790  -28.9720   22.1880 N   0  0  0  0  0  0  0  0  0  0  0  0
  -23.3910  -28.5550   23.1270 O   0  0  0  0  0  0  0  0  0  0  0  0
  -20.8750  -29.5320   21.5140 H   0  0  0  0  0  0  0  0  0  0  0  0
  -18.0390  -27.6420   22.6690 C   0  0  0  0  0  0  0  0  0  0  0  0
  -20.5910  -27.9830   22.9290 C   0  0  0  0  0  3  0  0  0  0  0  0
  -20.7340  -26.5740   22.3050 C   0  0  0  0  0  2  0  0  0  0  0  0
  -19.6370  -26.2510   21.2850 C   0  0  0  0  0  2  0  0  0  0  0  0
  -18.2550  -26.3260   21.9410 C   0  0  0  0  0  2  0  0  0  0  0  0
  -19.1360  -28.4270   23.1200 C   0  0  0  0  0  0  0  0  0  0  0  0
  -18.8770  -29.6570   23.7640 C   0  0  0  0  0  3  0  0  0  0  0  0
  -17.5560  -30.1030   23.9610 C   0  0  0  0  0  3  0  0  0  0  0  0
  -16.4750  -29.3160   23.5250 C   0  0  0  0  0  3  0  0  0  0  0  0
  -16.7170  -28.0870   22.8860 C   0  0  0  0  0  3  0  0  0  0  0  0
  -25.7440  -32.2920   23.7200 C   0  0  0  0  0  3  0  0  0  0  0  0
  -25.3880  -33.6820   24.0560 N   0  0  0  0  0  0  0  0  0  0  0  0
  -25.6890  -34.7530   23.3100 C   0  0  0  0  0  0  0  0  0  0  0  0
  -26.3580  -34.6790   22.2770 O   0  0  0  0  0  0  0  0  0  0  0  0
  -24.7940  -33.8110   24.8620 H   0  0  0  0  0  0  0  0  0  0  0  0
  -23.9010  -36.4990   22.9920 C   0  0  0  0  0  1  0  0  0  0  0  0
  -25.1660  -36.1250   23.7840 C   0  0  0  0  0  3  0  0  0  0  0  0
  -27.2790  -37.0790   24.5940 C   0  0  0  0  0  1  0  0  0  0  0  0
  -26.1630  -37.2120   23.6620 N   0  0  0  0  0  0  0  0  0  0  0  0
  -25.7300  -38.1190   23.8120 H   0  0  0  0  0  0  0  0  0  0  0  0
  -26.2490  -31.5340   25.0100 C   0  0  1  0  0  0  0  0  0  0  0  0
  -25.1360  -31.2700   26.0530 C   0  0  0  0  0  1  0  0  0  0  0  0
  -26.8730  -30.1700   24.6390 C   0  0  0  0  0  1  0  0  0  0  0  0
  -27.3630  -32.3540   25.6990 C   0  0  0  0  0  1  0  0  0  0  0  0
  1  6  2  0
  1  3  1  0
  2  4  2  0
  3  7  2  0
  4  5  1  0
  6  2  1  0
  7  4  1  0
  8 14  1  0
  8 19  1  0
  9 14  1  0
 10 11  1  0
 10  9  1  0
 12 11  1  0
 12 23  1  0
 12 13  1  0
 14 13  1  0
 15  8  2  0
 16 17  1  0
 18  2  1  0
 18 16  1  0
 19 18  1  0
 19 17  1  0
 20 21  2  0
 21 40  1  0
 22 21  1  0
 22 25  1  0
 23 24  1  0
 23 20  1  0
 24 22  2  0
 25 26  1  0
 26 27  2  0
 28 31  1  0
 28 27  1  0
 29 28  2  0
 30 29  1  0
 30 25  2  0
 31 32  1  0
 32 37  2  0
 32 33  1  0
 33 34  2  0
 34 35  1  0
 35 39  1  0
 36 35  2  0
 37 36  1  0
 38 37  1  0
 40 41  1  0
 41 43  1  0
 41 44  1  0
 42 40  2  0
 45 20  1  0
 45 46  1  0
 47 45  1  0
 48  3  1  0
 48 49  1  0
 50 61  2  0
 51 49  1  0
 51 56  1  0
 52 60  1  0
 52 62  1  0
 53 59  1  0
 53 55  1  0
 54 60  1  0
 55 54  1  0
 56 55  2  0
 57 58  1  0
 57 51  2  0
 58 53  2  0
 59 52  1  0
 60 50  1  0
 62 64  2  0
 63 62  1  0
 65 63  1  0
 66 75  2  0
 66 71  1  0
 67 63  1  0
 67 71  1  0
 68 67  1  0
 69 70  1  0
 69 68  1  0
 70 66  1  0
 71 72  2  0
 72 73  1  0
 74 73  2  0
 75 74  1  0
 76 50  1  0
 76 77  1  0
 76 86  1  0
 77 80  1  0
 78 82  1  0
 78 77  1  0
 79 78  2  0
 82 81  1  0
 84 82  1  0
 84 85  1  0
 84 83  1  0
 86 89  1  1
 86 87  1  0
 88 86  1  0
M  ISO  4   8 100  19 100  48 101  49 101
M  END
>  <TORSDO>  (26) 
F 17

>  <SCORE>  (26) 
-13.146

>  <name>  (26) 
25

>  <ligand_id>  (26) 
25

>  <original_smiles>  (26) 
[H]c1nc(C2([H])N(C(=O)N3C([H])([H])C([H])([H])C([H])([H])C([H])(n4nc(-c5c([H])c([H])c(Oc6c([H])c([H])c(F)c([H])c6F)c([H])c5[H])c(C(=O)N([H])[H])c4N([H])[H])C3([H])[H])C([H])([H])C2([H])[H])c(C([H])([H])[H])nc1C([H])([H])Oc1c([H])c([H])c2c(c1[H])C([H])([H])N(C(=O)C([H])(N([H])C(=O)C([H])(N([H])C([H])([H])[H])C([H])([H])[H])C(C([H])([H])[H])(C([H])([H])[H])C([H])([H])[H])C([H])(C(=O)N([H])C1([H])c3c([H])c([H])c([H])c([H])c3C([H])([H])C([H])([H])C1([H])[H])C2([H])[H]

>  <smiles>  (26) 
[H]c1nc(C2([H])N(C(=O)N3C([H])([H])C([H])([H])C([H])([H])C([H])(n4nc(-c5c([H])c([H])c(Oc6c([H])c([H])c(F)c([H])c6F)c([H])c5[H])c(C(=O)N([H])[H])c4N([H])[H])C3([H])[H])C([H])([H])C2([H])[H])c(C([H])([H])[H])nc1C([H])([H])Oc1c([H])c([H])c2c(c1[H])C([H])([H])N(C(=O)C([H])(N([H])C(=O)C([H])(N([H])C([H])([H])[H])C([H])([H])[H])C(C([H])([H])[H])(C([H])([H])[H])C([H])([H])[H])C([H])(C(=O)N([H])C1([H])c3c([H])c([H])c([H])c([H])c3C([H])([H])C([H])([H])C1([H])[H])C2([H])[H]

$$$$
26:0:0
     RDKit          3D

 88 97  0  0  1  0  0  0  0  0999 V2000
  -28.4610  -20.9870   21.4780 C   0  0  0  0  0  3  0  0  0  0  0  0
  -28.2000  -22.4170   21.3710 C   0  0  0  0  0  3  0  0  0  0  0  0
  -29.5060  -21.0880   19.4040 C   0  0  0  0  0  3  0  0  0  0  0  0
  -29.1240  -20.1990   20.4730 C   0  0  0  0  0  0  0  0  0  0  0  0
  -28.5870  -23.2240   20.2480 C   0  0  0  0  0  0  0  0  0  0  0  0
  -29.2520  -22.4680   19.2950 N   0  0  0  0  0  0  0  0  0  0  0  0
  -30.5220  -15.1120   20.1850 C   0  0  0  0  0  0  0  0  0  0  0  0
  -30.3650  -12.7670   19.2050 C   0  0  0  0  0  2  0  0  0  0  0  0
  -29.3990  -12.7010   17.9980 C   0  0  0  0  0  2  0  0  0  0  0  0
  -27.9530  -12.4780   18.4710 C   0  0  0  0  0  2  0  0  0  0  0  0
  -27.5740  -13.4070   19.6520 C   0  0  0  0  0  3  0  0  0  0  0  0
  -28.6530  -13.4390   20.7540 C   0  0  0  0  0  2  0  0  0  0  0  0
  -29.9040  -13.8600   20.1150 N   0  0  0  0  0  0  0  0  0  0  0  0
  -31.7120  -15.1540   19.8550 O   0  0  0  0  0  0  0  0  0  0  0  0
  -29.5300  -17.4320   19.4070 C   0  0  0  0  0  2  0  0  0  0  0  0
  -30.2110  -17.5150   21.2820 C   0  0  0  0  0  2  0  0  0  0  0  0
  -29.2490  -18.5260   20.5210 C   0  0  0  0  0  3  0  0  0  0  0  0
  -29.7840  -16.3230   20.4230 N   0  0  0  0  0  0  0  0  0  0  0  0
  -25.2200  -13.9810   20.4650 C   0  0  0  0  0  0  0  0  0  0  0  0
  -24.1620  -13.2040   20.8510 C   0  0  0  0  0  0  0  0  0  0  0  0
  -24.6220  -11.8520   20.7920 C   0  0  0  0  0  0  0  0  0  0  0  0
  -26.2520  -13.1030   20.1860 N   0  0  0  0  0  0  0  0  0  0  0  0
  -25.9040  -11.8160   20.4480 N   0  0  0  0  0  0  0  0  0  0  0  0
  -23.8970  -10.5890   20.9840 C   0  0  0  0  0  0  0  0  0  0  0  0
  -24.3290   -9.6220   21.9200 C   0  0  0  0  0  3  0  0  0  0  0  0
  -23.6030   -8.4260   22.1020 C   0  0  0  0  0  3  0  0  0  0  0  0
  -22.4290   -8.1860   21.3480 C   0  0  0  0  0  0  0  0  0  0  0  0
  -22.0170   -9.1400   20.3990 C   0  0  0  0  0  3  0  0  0  0  0  0
  -22.7450  -10.3280   20.2160 C   0  0  0  0  0  3  0  0  0  0  0  0
  -21.6740   -7.0420   21.4370 O   0  0  0  0  0  0  0  0  0  0  0  0
  -21.5950   -6.3220   22.6030 C   0  0  0  0  0  0  0  0  0  0  0  0
  -21.0960   -6.8890   23.7950 C   0  0  0  0  0  3  0  0  0  0  0  0
  -20.9680   -6.0940   24.9530 C   0  0  0  0  0  3  0  0  0  0  0  0
  -21.3260   -4.7320   24.9150 C   0  0  0  0  0  0  0  0  0  0  0  0
  -21.8180   -4.1660   23.7260 C   0  0  0  0  0  3  0  0  0  0  0  0
  -21.9480   -4.9580   22.5730 C   0  0  0  0  0  0  0  0  0  0  0  0
  -22.4020   -4.4010   21.4240 F   0  0  0  0  0  0  0  0  0  0  0  0
  -21.1960   -3.9670   26.0240 F   0  0  0  0  0  0  0  0  0  0  0  0
  -22.7730  -13.6800   21.1630 C   0  0  0  0  0  0  0  0  0  0  0  0
  -22.0670  -12.9780   22.0400 N   0  0  0  0  0  0  0  0  0  0  0  0
  -22.3250  -14.7110   20.6620 O   0  0  0  0  0  0  0  0  0  0  0  0
  -22.4460  -12.1430   22.4640 H   0  0  0  0  0  0  0  0  0  0  0  0
  -21.1350  -13.2770   22.2930 H   0  0  0  0  0  0  0  0  0  0  0  0
  -25.3890  -15.3540   20.3080 N   0  0  0  0  0  0  0  0  0  0  0  0
  -24.6460  -16.0210   20.4780 H   0  0  0  0  0  0  0  0  0  0  0  0
  -26.2590  -15.7880   20.0290 H   0  0  0  0  0  0  0  0  0  0  0  0
  -27.8990  -24.7070   19.8690 C   0  0  0  0  0  2  0  0  0  0  0  0
  -28.2270  -26.1920   20.2720 O   0  0  0  0  0  0  0  0  0  0  0  0
  -24.6570  -31.9330   23.2830 C   0  0  0  0  0  0  0  0  0  0  0  0
  -27.2080  -27.2290   20.1770 C   0  0  0  0  0  0  0  0  0  0  0  0
  -23.4470  -30.5590   21.6370 C   0  0  0  0  0  3  0  0  0  0  0  0
  -24.8870  -29.0050   20.1780 C   0  0  0  0  0  0  0  0  0  0  0  0
  -26.0030  -30.8180   21.4600 C   0  0  0  0  0  2  0  0  0  0  0  0
  -26.0730  -29.4320   20.7890 C   0  0  0  0  0  0  0  0  0  0  0  0
  -27.2300  -28.5590   20.7770 C   0  0  0  0  0  3  0  0  0  0  0  0
  -26.0040  -26.9330   19.4980 C   0  0  0  0  0  3  0  0  0  0  0  0
  -24.8680  -27.7710   19.5170 C   0  0  0  0  0  3  0  0  0  0  0  0
  -23.6570  -29.8990   20.2480 C   0  0  0  0  0  2  0  0  0  0  0  0
  -24.7240  -31.1260   22.1800 N   0  0  0  0  0  0  0  0  0  0  0  0
  -23.5740  -32.2100   23.8230 O   0  0  0  0  0  0  0  0  0  0  0  0
  -22.7760  -29.5400   22.5920 C   0  0  0  0  0  0  0  0  0  0  0  0
  -21.4500  -29.3540   22.4640 N   0  0  0  0  0  0  0  0  0  0  0  0
  -23.4520  -28.9170   23.4150 O   0  0  0  0  0  0  0  0  0  0  0  0
  -20.9580  -29.9050   21.7740 H   0  0  0  0  0  0  0  0  0  0  0  0
  -18.0820  -28.1060   22.9530 C   0  0  0  0  0  0  0  0  0  0  0  0
  -20.6370  -28.4040   23.2300 C   0  0  0  0  0  3  0  0  0  0  0  0
  -20.7590  -26.9740   22.6550 C   0  0  0  0  0  2  0  0  0  0  0  0
  -19.6650  -26.6370   21.6360 C   0  0  0  0  0  2  0  0  0  0  0  0
  -18.2790  -26.7630   22.2740 C   0  0  0  0  0  2  0  0  0  0  0  0
  -19.1880  -28.8860   23.3870 C   0  0  0  0  0  0  0  0  0  0  0  0
  -18.9470  -30.1420   23.9840 C   0  0  0  0  0  3  0  0  0  0  0  0
  -17.6330  -30.6210   24.1500 C   0  0  0  0  0  3  0  0  0  0  0  0
  -16.5410  -29.8410   23.7290 C   0  0  0  0  0  3  0  0  0  0  0  0
  -16.7670  -28.5850   23.1370 C   0  0  0  0  0  3  0  0  0  0  0  0
  -25.9410  -32.5650   23.9060 C   0  0  0  0  0  3  0  0  0  0  0  0
  -25.6350  -33.9650   24.2380 N   0  0  0  0  0  0  0  0  0  0  0  0
  -25.9360  -35.0190   23.4680 C   0  0  0  0  0  0  0  0  0  0  0  0
  -26.5710  -34.9160   22.4140 O   0  0  0  0  0  0  0  0  0  0  0  0
  -25.0710  -34.1190   25.0600 H   0  0  0  0  0  0  0  0  0  0  0  0
  -24.1800  -36.7990   23.1970 C   0  0  0  0  0  1  0  0  0  0  0  0
  -25.4650  -36.4070   23.9440 C   0  0  0  0  0  3  0  0  0  0  0  0
  -27.6270  -37.3200   24.6640 C   0  0  0  0  0  1  0  0  0  0  0  0
  -26.4810  -37.4670   23.7680 N   0  0  0  0  0  0  0  0  0  0  0  0
  -26.0770  -38.3870   23.9250 H   0  0  0  0  0  0  0  0  0  0  0  0
  -26.4500  -31.7960   25.1860 C   0  0  1  0  0  0  0  0  0  0  0  0
  -25.3520  -31.5680   26.2500 C   0  0  0  0  0  1  0  0  0  0  0  0
  -27.0310  -30.4150   24.8050 C   0  0  0  0  0  1  0  0  0  0  0  0
  -27.6020  -32.5900   25.8470 C   0  0  0  0  0  1  0  0  0  0  0  0
  2  1  1  0
  3  4  1  0
  4  1  2  0
  5  2  2  0
  6  3  2  0
  6  5  1  0
  7 18  1  0
  8 13  1  0
  9 10  1  0
  9  8  1  0
 11 10  1  0
 11 22  1  0
 11 12  1  0
 13  7  1  0
 13 12  1  0
 14  7  2  0
 15 18  1  0
 15 17  1  0
 17  4  1  0
 17 16  1  0
 18 16  1  0
 19 20  2  0
 20 39  1  0
 21 20  1  0
 21 24  1  0
 22 23  1  0
 22 19  1  0
 23 21  2  0
 24 25  1  0
 25 26  2  0
 27 30  1  0
 27 26  1  0
 28 27  2  0
 29 28  1  0
 29 24  2  0
 30 31  1  0
 31 32  1  0
 32 33  2  0
 34 33  1  0
 34 38  1  0
 35 34  2  0
 36 31  2  0
 36 35  1  0
 37 36  1  0
 39 40  1  0
 40 43  1  0
 40 42  1  0
 41 39  2  0
 44 19  1  0
 44 45  1  0
 46 44  1  0
 47  5  1  0
 47 48  1  0
 49 60  2  0
 50 48  1  0
 50 55  1  0
 51 59  1  0
 51 61  1  0
 52 58  1  0
 52 54  1  0
 53 59  1  0
 54 53  1  0
 55 54  2  0
 56 57  1  0
 56 50  2  0
 57 52  2  0
 58 51  1  0
 59 49  1  0
 61 63  2  0
 62 61  1  0
 64 62  1  0
 65 74  2  0
 65 70  1  0
 66 62  1  0
 66 70  1  0
 67 66  1  0
 68 69  1  0
 68 67  1  0
 69 65  1  0
 70 71  2  0
 71 72  1  0
 73 72  2  0
 74 73  1  0
 75 49  1  0
 75 76  1  0
 75 85  1  0
 76 79  1  0
 77 81  1  0
 77 76  1  0
 78 77  2  0
 81 80  1  0
 83 84  1  0
 83 81  1  0
 83 82  1  0
 85 88  1  1
 85 86  1  0
 87 85  1  0
M  ISO  4   7 100  18 100  47 101  48 101
M  END
>  <TORSDO>  (27) 
F 17

>  <SCORE>  (27) 
-14.979

>  <name>  (27) 
26

>  <ligand_id>  (27) 
26

>  <original_smiles>  (27) 
[H]c1nc(C([H])([H])Oc2c([H])c([H])c3c(c2[H])C([H])([H])N(C(=O)C([H])(N([H])C(=O)C([H])(N([H])C([H])([H])[H])C([H])([H])[H])C(C([H])([H])[H])(C([H])([H])[H])C([H])([H])[H])C([H])(C(=O)N([H])C2([H])c4c([H])c([H])c([H])c([H])c4C([H])([H])C([H])([H])C2([H])[H])C3([H])[H])c([H])c([H])c1C1([H])C([H])([H])N(C(=O)N2C([H])([H])C([H])([H])C([H])([H])C([H])(n3nc(-c4c([H])c([H])c(Oc5c([H])c([H])c(F)c([H])c5F)c([H])c4[H])c(C(=O)N([H])[H])c3N([H])[H])C2([H])[H])C1([H])[H]

>  <smiles>  (27) 
[H]c1nc(C([H])([H])Oc2c([H])c([H])c3c(c2[H])C([H])([H])N(C(=O)C([H])(N([H])C(=O)C([H])(N([H])C([H])([H])[H])C([H])([H])[H])C(C([H])([H])[H])(C([H])([H])[H])C([H])([H])[H])C([H])(C(=O)N([H])C2([H])c4c([H])c([H])c([H])c([H])c4C([H])([H])C([H])([H])C2([H])[H])C3([H])[H])c([H])c([H])c1C1([H])C([H])([H])N(C(=O)N2C([H])([H])C([H])([H])C([H])([H])C([H])(n3nc(-c4c([H])c([H])c(Oc5c([H])c([H])c(F)c([H])c5F)c([H])c4[H])c(C(=O)N([H])[H])c3N([H])[H])C2([H])[H])C1([H])[H]

$$$$
27:0:0
     RDKit          3D

 97106  0  0  1  0  0  0  0  0999 V2000
  -29.5130  -22.3070   21.3830 C   0  0  0  0  0  0  0  0  0  0  0  0
  -30.1500  -21.0720   21.1230 C   0  0  0  0  0  0  0  0  0  0  0  0
  -30.3030  -23.4600   21.2310 C   0  0  0  0  0  0  0  0  0  0  0  0
  -32.0910  -22.1810   20.6160 C   0  0  0  0  0  0  0  0  0  0  0  0
  -28.0500  -22.3880   21.8160 C   0  0  0  0  0  1  0  0  0  0  0  0
  -33.5340  -22.1290   20.1700 C   0  0  0  0  0  1  0  0  0  0  0  0
  -31.4450  -21.0240   20.7370 N   0  0  0  0  0  0  0  0  0  0  0  0
  -31.5850  -23.3840   20.8560 N   0  0  0  0  0  0  0  0  0  0  0  0
  -29.7850  -24.7270   21.5010 N   0  0  0  0  0  0  0  0  0  0  0  0
  -28.7790  -24.7830   21.6070 H   0  0  0  0  0  0  0  0  0  0  0  0
  -29.4540  -19.7200   21.2710 C   0  0  0  0  0  2  0  0  0  0  0  0
  -30.4650  -18.6810   21.5250 N   0  0  0  0  0  4  0  0  0  0  0  0
  -31.1840  -18.9040   20.8500 H   0  0  0  0  0  0  0  0  0  0  0  0
  -30.8640  -18.8840   22.4270 H   0  0  0  0  0  0  0  0  0  0  0  0
  -30.8800  -14.3870   20.0490 C   0  0  0  0  0  0  0  0  0  0  0  0
  -30.5000  -12.2250   18.9230 C   0  0  0  0  0  2  0  0  0  0  0  0
  -29.5000  -12.4040   17.7620 C   0  0  0  0  0  2  0  0  0  0  0  0
  -28.0470  -12.2950   18.2650 C   0  0  0  0  0  2  0  0  0  0  0  0
  -27.7790  -13.1690   19.5190 C   0  0  0  0  0  3  0  0  0  0  0  0
  -28.8790  -12.9530   20.5830 C   0  0  0  0  0  2  0  0  0  0  0  0
  -30.1810  -13.2240   19.9520 N   0  0  0  0  0  0  0  0  0  0  0  0
  -31.9450  -14.5870   19.4560 O   0  0  0  0  0  0  0  0  0  0  0  0
  -29.8660  -16.6160   20.0980 C   0  0  0  0  0  2  0  0  0  0  0  0
  -31.0650  -16.2030   21.7010 C   0  0  0  0  0  2  0  0  0  0  0  0
  -30.0040  -17.2690   21.4660 C   0  0  0  0  0  3  0  0  0  0  0  0
  -30.2860  -15.3640   20.7670 N   0  0  0  0  0  0  0  0  0  0  0  0
  -25.4320  -13.8300   20.3430 C   0  0  0  0  0  0  0  0  0  0  0  0
  -24.3680  -13.0820   20.7700 C   0  0  0  0  0  0  0  0  0  0  0  0
  -24.7990  -11.7200   20.7220 C   0  0  0  0  0  0  0  0  0  0  0  0
  -26.4460  -12.9260   20.0660 N   0  0  0  0  0  0  0  0  0  0  0  0
  -26.0700  -11.6530   20.3490 N   0  0  0  0  0  0  0  0  0  0  0  0
  -24.0580  -10.4740   20.9540 C   0  0  0  0  0  0  0  0  0  0  0  0
  -24.4770   -9.5360   21.9240 C   0  0  0  0  0  3  0  0  0  0  0  0
  -23.7400   -8.3530   22.1420 C   0  0  0  0  0  3  0  0  0  0  0  0
  -22.5680   -8.0990   21.3890 C   0  0  0  0  0  0  0  0  0  0  0  0
  -22.1690   -9.0250   20.4090 C   0  0  0  0  0  3  0  0  0  0  0  0
  -22.9080  -10.2000   20.1900 C   0  0  0  0  0  3  0  0  0  0  0  0
  -21.8020   -6.9660   21.5150 O   0  0  0  0  0  0  0  0  0  0  0  0
  -21.6900   -6.3010   22.7090 C   0  0  0  0  0  0  0  0  0  0  0  0
  -21.2000   -6.9350   23.8720 C   0  0  0  0  0  3  0  0  0  0  0  0
  -21.0380   -6.1940   25.0610 C   0  0  0  0  0  3  0  0  0  0  0  0
  -21.3530   -4.8230   25.0850 C   0  0  0  0  0  0  0  0  0  0  0  0
  -21.8340   -4.1890   23.9270 C   0  0  0  0  0  3  0  0  0  0  0  0
  -21.9990   -4.9260   22.7410 C   0  0  0  0  0  0  0  0  0  0  0  0
  -22.4440   -4.3050   21.6220 F   0  0  0  0  0  0  0  0  0  0  0  0
  -21.1890   -4.1110   26.2250 F   0  0  0  0  0  0  0  0  0  0  0  0
  -22.9960  -13.5880   21.1130 C   0  0  0  0  0  0  0  0  0  0  0  0
  -22.3010  -12.9130   22.0230 N   0  0  0  0  0  0  0  0  0  0  0  0
  -22.5500  -14.6180   20.6100 O   0  0  0  0  0  0  0  0  0  0  0  0
  -22.6710  -12.0790   22.4530 H   0  0  0  0  0  0  0  0  0  0  0  0
  -21.3840  -13.2370   22.2950 H   0  0  0  0  0  0  0  0  0  0  0  0
  -25.6160  -15.1950   20.1490 N   0  0  0  0  0  0  0  0  0  0  0  0
  -24.8720  -15.8690   20.2860 H   0  0  0  0  0  0  0  0  0  0  0  0
  -26.4610  -15.6090   19.7770 H   0  0  0  0  0  0  0  0  0  0  0  0
  -30.4210  -25.9150   20.9410 C   0  0  0  0  0  2  0  0  0  0  0  0
  -29.4500  -27.1010   20.9590 C   0  0  0  0  0  2  0  0  0  0  0  0
  -28.3330  -26.7440   20.1500 O   0  0  0  0  0  0  0  0  0  0  0  0
  -24.5320  -31.9540   23.2400 C   0  0  0  0  0  0  0  0  0  0  0  0
  -27.2000  -27.5250   20.1990 C   0  0  0  0  0  0  0  0  0  0  0  0
  -23.3280  -30.5480   21.5960 C   0  0  0  0  0  3  0  0  0  0  0  0
  -24.7880  -29.0000   20.1920 C   0  0  0  0  0  0  0  0  0  0  0  0
  -25.8490  -30.9130   21.4050 C   0  0  0  0  0  2  0  0  0  0  0  0
  -25.9390  -29.5390   20.7800 C   0  0  0  0  0  0  0  0  0  0  0  0
  -27.1460  -28.8120   20.7860 C   0  0  0  0  0  3  0  0  0  0  0  0
  -26.0330  -26.9950   19.6130 C   0  0  0  0  0  3  0  0  0  0  0  0
  -24.8270  -27.7230   19.6050 C   0  0  0  0  0  3  0  0  0  0  0  0
  -23.5420  -29.8530   20.2250 C   0  0  0  0  0  2  0  0  0  0  0  0
  -24.5880  -31.1520   22.1400 N   0  0  0  0  0  0  0  0  0  0  0  0
  -23.4500  -32.2340   23.7740 O   0  0  0  0  0  0  0  0  0  0  0  0
  -22.6690  -29.5360   22.5610 C   0  0  0  0  0  0  0  0  0  0  0  0
  -21.3480  -29.3490   22.4150 N   0  0  0  0  0  0  0  0  0  0  0  0
  -23.3430  -28.9220   23.3920 O   0  0  0  0  0  0  0  0  0  0  0  0
  -20.8680  -29.8930   21.7120 H   0  0  0  0  0  0  0  0  0  0  0  0
  -17.9730  -28.1410   22.8560 C   0  0  0  0  0  0  0  0  0  0  0  0
  -20.5220  -28.4190   23.1830 C   0  0  0  0  0  3  0  0  0  0  0  0
  -20.6480  -26.9800   22.6300 C   0  0  0  0  0  2  0  0  0  0  0  0
  -19.5720  -26.6340   21.5980 C   0  0  0  0  0  2  0  0  0  0  0  0
  -18.1740  -26.7820   22.2060 C   0  0  0  0  0  2  0  0  0  0  0  0
  -19.0770  -28.9160   23.3000 C   0  0  0  0  0  0  0  0  0  0  0  0
  -18.8370  -30.1880   23.8630 C   0  0  0  0  0  3  0  0  0  0  0  0
  -17.5260  -30.6840   23.9900 C   0  0  0  0  0  3  0  0  0  0  0  0
  -16.4360  -29.9050   23.5640 C   0  0  0  0  0  3  0  0  0  0  0  0
  -16.6610  -28.6350   23.0020 C   0  0  0  0  0  3  0  0  0  0  0  0
  -25.8200  -32.5810   23.8640 C   0  0  0  0  0  3  0  0  0  0  0  0
  -26.3270  -31.8150   25.1460 C   0  0  1  0  0  0  0  0  0  0  0  0
  -25.2270  -31.5910   26.2090 C   0  0  0  0  0  1  0  0  0  0  0  0
  -26.9040  -30.4320   24.7620 C   0  0  0  0  0  1  0  0  0  0  0  0
  -27.4780  -32.6080   25.8110 C   0  0  0  0  0  1  0  0  0  0  0  0
  -25.5210  -33.9830   24.1780 N   0  0  0  0  0  0  0  0  0  0  0  0
  -25.8820  -35.0250   23.4180 C   0  0  0  0  0  0  0  0  0  0  0  0
  -26.5720  -34.9070   22.4020 O   0  0  0  0  0  0  0  0  0  0  0  0
  -24.9130  -34.1500   24.9660 H   0  0  0  0  0  0  0  0  0  0  0  0
  -24.1940  -36.8400   22.9970 C   0  0  0  0  0  1  0  0  0  0  0  0
  -25.4000  -36.4210   23.8540 C   0  0  0  0  0  3  0  0  0  0  0  0
  -27.5190  -37.2780   24.7530 C   0  0  0  0  0  1  0  0  0  0  0  0
  -26.4520  -37.4580   23.7730 N   0  0  0  0  0  0  0  0  0  0  0  0
  -26.0550  -38.3850   23.9060 H   0  0  0  0  0  0  0  0  0  0  0  0
  1  5  1  0
  2 11  1  0
  2  1  2  0
  3  1  1  0
  3  9  1  0
  4  7  2  0
  4  8  1  0
  6  4  1  0
  7  2  1  0
  8  3  2  0
  9 10  1  0
 11 12  1  0
 12 14  1  0
 13 12  1  0
 15 26  1  0
 16 21  1  0
 17 18  1  0
 17 16  1  0
 19 18  1  0
 19 30  1  0
 19 20  1  0
 21 15  1  0
 21 20  1  0
 22 15  2  0
 23 26  1  0
 23 25  1  0
 25 12  1  0
 25 24  1  0
 26 24  1  0
 27 28  2  0
 28 47  1  0
 29 28  1  0
 29 32  1  0
 30 27  1  0
 30 31  1  0
 31 29  2  0
 32 33  1  0
 33 34  2  0
 35 38  1  0
 35 34  1  0
 36 35  2  0
 37 36  1  0
 37 32  2  0
 38 39  1  0
 39 44  2  0
 39 40  1  0
 40 41  2  0
 41 42  1  0
 42 46  1  0
 43 42  2  0
 44 43  1  0
 45 44  1  0
 47 48  1  0
 48 51  1  0
 48 50  1  0
 49 47  2  0
 52 53  1  0
 52 27  1  0
 54 52  1  0
 55 56  1  0
 55  9  1  0
 57 59  1  0
 57 56  1  0
 58 69  2  0
 59 64  1  0
 60 68  1  0
 60 70  1  0
 61 67  1  0
 61 63  1  0
 62 68  1  0
 63 64  2  0
 63 62  1  0
 65 59  2  0
 66 65  1  0
 66 61  2  0
 67 60  1  0
 68 58  1  0
 70 72  2  0
 71 70  1  0
 73 71  1  0
 74 83  2  0
 74 79  1  0
 75 71  1  0
 75 79  1  0
 76 75  1  0
 77 78  1  0
 77 76  1  0
 78 74  1  0
 79 80  2  0
 80 81  1  0
 82 81  2  0
 83 82  1  0
 84 58  1  0
 84 89  1  0
 84 85  1  0
 85 88  1  1
 85 86  1  0
 87 85  1  0
 89 92  1  0
 90 94  1  0
 90 89  1  0
 91 90  2  0
 94 93  1  0
 96 94  1  0
 96 97  1  0
 96 95  1  0
M  ISO  4  15 100  26 100  56 101  57 101
M  END
>  <TORSDO>  (28) 
F 20

>  <SCORE>  (28) 
-13.818

>  <name>  (28) 
27

>  <ligand_id>  (28) 
27

>  <original_smiles>  (28) 
[H]c1c([H])c([H])c2c(c1[H])C([H])([H])C([H])([H])C([H])([H])C2([H])N([H])C(=O)C1([H])N(C(=O)C([H])(N([H])C(=O)C([H])(N([H])C([H])([H])[H])C([H])([H])[H])C(C([H])([H])[H])(C([H])([H])[H])C([H])([H])[H])C([H])([H])c2c([H])c(OC([H])([H])C([H])([H])N([H])c3nc(C([H])([H])[H])nc(C([H])([H])[N+]([H])([H])C4([H])C([H])([H])N(C(=O)N5C([H])([H])C([H])([H])C([H])([H])C([H])(n6nc(-c7c([H])c([H])c(Oc8c([H])c([H])c(F)c([H])c8F)c([H])c7[H])c(C(=O)N([H])[H])c6N([H])[H])C5([H])[H])C4([H])[H])c3C([H])([H])[H])c([H])c([H])c2C1([H])[H]

>  <smiles>  (28) 
[H]c1c([H])c([H])c2c(c1[H])C([H])([H])C([H])([H])C([H])([H])C2([H])N([H])C(=O)C1([H])N(C(=O)C([H])(N([H])C(=O)C([H])(N([H])C([H])([H])[H])C([H])([H])[H])C(C([H])([H])[H])(C([H])([H])[H])C([H])([H])[H])C([H])([H])c2c([H])c(OC([H])([H])C([H])([H])N([H])c3nc(C([H])([H])[H])nc(C([H])([H])[N+]([H])([H])C4([H])C([H])([H])N(C(=O)N5C([H])([H])C([H])([H])C([H])([H])C([H])(n6nc(-c7c([H])c([H])c(Oc8c([H])c([H])c(F)c([H])c8F)c([H])c7[H])c(C(=O)N([H])[H])c6N([H])[H])C5([H])[H])C4([H])[H])c3C([H])([H])[H])c([H])c([H])c2C1([H])[H]

$$$$
28:0:0
     RDKit          3D

 95104  0  0  1  0  0  0  0  0999 V2000
  -30.0070  -24.6260   19.6650 C   0  0  0  0  0  3  0  0  0  0  0  0
  -30.3400  -23.2420   19.6130 C   0  0  0  0  0  0  0  0  0  0  0  0
  -29.3690  -22.2490   19.9370 C   0  0  0  0  0  0  0  0  0  0  0  0
  -28.7220  -25.0810   20.0280 C   0  0  0  0  0  0  0  0  0  0  0  0
  -28.0950  -22.8020   20.2990 C   0  0  0  0  0  0  0  0  0  0  0  0
  -31.7490  -22.8780   19.1770 C   0  0  0  0  0  1  0  0  0  0  0  0
  -27.7830  -24.1490   20.3540 N   0  0  0  0  0  0  0  0  0  0  0  0
  -26.8130  -21.7190   20.7010 Cl  0  0  0  0  0  0  0  0  0  0  0  0
  -28.5020  -26.4880   20.1040 O   0  0  0  0  0  0  0  0  0  0  0  0
  -24.4850  -31.6780   23.1180 C   0  0  0  0  0  0  0  0  0  0  0  0
  -27.2970  -27.2130   20.1050 C   0  0  0  0  0  0  0  0  0  0  0  0
  -23.3510  -30.2440   21.4560 C   0  0  0  0  0  3  0  0  0  0  0  0
  -24.8730  -28.7410   20.0500 C   0  0  0  0  0  0  0  0  0  0  0  0
  -25.8740  -30.6570   21.2980 C   0  0  0  0  0  2  0  0  0  0  0  0
  -26.0120  -29.2770   20.6630 C   0  0  0  0  0  0  0  0  0  0  0  0
  -27.2210  -28.5220   20.6810 C   0  0  0  0  0  3  0  0  0  0  0  0
  -26.1400  -26.7290   19.4620 C   0  0  0  0  0  3  0  0  0  0  0  0
  -24.9380  -27.4710   19.4440 C   0  0  0  0  0  3  0  0  0  0  0  0
  -23.6080  -29.5770   20.0770 C   0  0  0  0  0  2  0  0  0  0  0  0
  -24.5870  -30.8770   22.0150 N   0  0  0  0  0  0  0  0  0  0  0  0
  -23.3870  -31.9120   23.6430 O   0  0  0  0  0  0  0  0  0  0  0  0
  -22.7130  -29.2040   22.4060 C   0  0  0  0  0  0  0  0  0  0  0  0
  -21.3950  -28.9870   22.2700 N   0  0  0  0  0  0  0  0  0  0  0  0
  -23.4080  -28.5890   23.2220 O   0  0  0  0  0  0  0  0  0  0  0  0
  -20.8920  -29.5330   21.5850 H   0  0  0  0  0  0  0  0  0  0  0  0
  -18.0580  -27.6750   22.7310 C   0  0  0  0  0  0  0  0  0  0  0  0
  -20.6020  -28.0200   23.0300 C   0  0  0  0  0  3  0  0  0  0  0  0
  -20.7590  -26.5960   22.4510 C   0  0  0  0  0  2  0  0  0  0  0  0
  -19.6810  -26.2400   21.4220 C   0  0  0  0  0  2  0  0  0  0  0  0
  -18.2860  -26.3370   22.0500 C   0  0  0  0  0  2  0  0  0  0  0  0
  -19.1440  -28.4730   23.1780 C   0  0  0  0  0  0  0  0  0  0  0  0
  -18.8780  -29.7240   23.7730 C   0  0  0  0  0  3  0  0  0  0  0  0
  -17.5550  -30.1820   23.9260 C   0  0  0  0  0  3  0  0  0  0  0  0
  -16.4800  -29.3820   23.4980 C   0  0  0  0  0  3  0  0  0  0  0  0
  -16.7320  -28.1310   22.9060 C   0  0  0  0  0  3  0  0  0  0  0  0
  -25.7370  -32.3540   23.7590 C   0  0  0  0  0  3  0  0  0  0  0  0
  -26.2760  -31.5880   25.0290 C   0  0  1  0  0  0  0  0  0  0  0  0
  -25.1880  -31.2940   26.0880 C   0  0  0  0  0  1  0  0  0  0  0  0
  -26.9150  -30.2390   24.6220 C   0  0  0  0  0  1  0  0  0  0  0  0
  -27.3940  -32.4160   25.7050 C   0  0  0  0  0  1  0  0  0  0  0  0
  -25.3700  -33.7350   24.1030 N   0  0  0  0  0  0  0  0  0  0  0  0
  -25.6750  -34.8110   23.3670 C   0  0  0  0  0  0  0  0  0  0  0  0
  -26.3650  -34.7470   22.3450 O   0  0  0  0  0  0  0  0  0  0  0  0
  -24.7600  -33.8540   24.8990 H   0  0  0  0  0  0  0  0  0  0  0  0
  -23.8930  -36.5480   23.0010 C   0  0  0  0  0  1  0  0  0  0  0  0
  -25.1280  -36.1740   23.8360 C   0  0  0  0  0  3  0  0  0  0  0  0
  -27.2120  -37.1150   24.7290 C   0  0  0  0  0  1  0  0  0  0  0  0
  -26.1260  -37.2640   23.7650 N   0  0  0  0  0  0  0  0  0  0  0  0
  -25.6850  -38.1650   23.9220 H   0  0  0  0  0  0  0  0  0  0  0  0
  -29.6570  -20.6700   19.7700 C   0  0  0  0  0  2  0  0  0  0  0  0
  -31.1980  -20.4750   21.7250 C   0  0  0  0  0  1  0  0  0  0  0  0
  -30.0790  -19.8380   20.9850 N   0  0  2  0  0  4  0  0  0  0  0  0
  -29.2960  -19.9780   21.6050 H   0  0  0  0  0  0  0  0  0  0  0  0
  -28.4640  -17.4140   20.2200 C   0  0  0  0  0  2  0  0  0  0  0  0
  -28.8910  -17.7480   21.6680 C   0  0  0  0  0  2  0  0  0  0  0  0
  -29.9570  -17.1980   19.8780 C   0  0  0  0  0  3  0  0  0  0  0  0
  -30.2070  -18.2840   21.0510 C   0  0  0  0  0  3  0  0  0  0  0  0
  -30.8890  -14.6780   19.5990 C   0  0  0  0  0  0  0  0  0  0  0  0
  -30.4990  -12.4710   18.4990 C   0  0  0  0  0  2  0  0  0  0  0  0
  -29.4270  -12.6670   17.3990 C   0  0  0  0  0  2  0  0  0  0  0  0
  -28.0030  -12.5470   17.9800 C   0  0  0  0  0  2  0  0  0  0  0  0
  -27.8170  -13.3600   19.2890 C   0  0  0  0  0  3  0  0  0  0  0  0
  -28.9930  -13.1350   20.2720 C   0  0  0  0  0  2  0  0  0  0  0  0
  -30.2440  -13.4620   19.5650 N   0  0  0  0  0  0  0  0  0  0  0  0
  -31.9560  -14.8500   19.0080 O   0  0  0  0  0  0  0  0  0  0  0  0
  -30.1840  -15.7120   20.1780 N   0  0  0  0  0  0  0  0  0  0  0  0
  -29.4340  -15.3320   20.7310 H   0  0  0  0  0  0  0  0  0  0  0  0
  -25.5650  -14.0070   20.3540 C   0  0  0  0  0  0  0  0  0  0  0  0
  -24.5110  -13.2650   20.8060 C   0  0  0  0  0  0  0  0  0  0  0  0
  -24.8730  -11.9000   20.5920 C   0  0  0  0  0  0  0  0  0  0  0  0
  -26.5200  -13.1020   19.9150 N   0  0  0  0  0  0  0  0  0  0  0  0
  -26.1120  -11.8210   20.1110 N   0  0  0  0  0  0  0  0  0  0  0  0
  -24.0870  -10.6730   20.7690 C   0  0  0  0  0  0  0  0  0  0  0  0
  -24.5470   -9.6220   21.5910 C   0  0  0  0  0  3  0  0  0  0  0  0
  -23.7700   -8.4540   21.7550 C   0  0  0  0  0  3  0  0  0  0  0  0
  -22.5200   -8.3340   21.1040 C   0  0  0  0  0  0  0  0  0  0  0  0
  -22.0780   -9.3780   20.2720 C   0  0  0  0  0  3  0  0  0  0  0  0
  -22.8530  -10.5370   20.1030 C   0  0  0  0  0  3  0  0  0  0  0  0
  -21.7080   -7.2280   21.1870 O   0  0  0  0  0  0  0  0  0  0  0  0
  -21.6960   -6.4270   22.3010 C   0  0  0  0  0  0  0  0  0  0  0  0
  -21.3950   -6.9360   23.5840 C   0  0  0  0  0  3  0  0  0  0  0  0
  -21.3250   -6.0660   24.6900 C   0  0  0  0  0  3  0  0  0  0  0  0
  -21.5440   -4.6850   24.5140 C   0  0  0  0  0  0  0  0  0  0  0  0
  -21.8360   -4.1740   23.2370 C   0  0  0  0  0  3  0  0  0  0  0  0
  -21.9120   -5.0440   22.1340 C   0  0  0  0  0  0  0  0  0  0  0  0
  -22.1760   -4.5450   20.9020 F   0  0  0  0  0  0  0  0  0  0  0  0
  -21.4690   -3.8470   25.5740 F   0  0  0  0  0  0  0  0  0  0  0  0
  -23.1980  -13.8000   21.3000 C   0  0  0  0  0  0  0  0  0  0  0  0
  -22.5400  -13.0840   22.2050 N   0  0  0  0  0  0  0  0  0  0  0  0
  -22.7720  -14.8890   20.9210 O   0  0  0  0  0  0  0  0  0  0  0  0
  -22.9010  -12.2100   22.5580 H   0  0  0  0  0  0  0  0  0  0  0  0
  -21.6600  -13.4310   22.5590 H   0  0  0  0  0  0  0  0  0  0  0  0
  -25.7540  -15.3780   20.2610 N   0  0  0  0  0  0  0  0  0  0  0  0
  -24.9930  -16.0130   20.4810 H   0  0  0  0  0  0  0  0  0  0  0  0
  -26.5170  -15.8240   19.7720 H   0  0  0  0  0  0  0  0  0  0  0  0
  1  4  1  0
  2  1  2  0
  2  3  1  0
  3  5  2  0
  4  9  1  0
  4  7  2  0
  5  7  1  0
  5  8  1  0
  6  2  1  0
  9 11  1  0
 10 21  2  0
 11 16  1  0
 12 20  1  0
 12 22  1  0
 13 19  1  0
 13 15  1  0
 14 20  1  0
 15 16  2  0
 15 14  1  0
 17 11  2  0
 18 17  1  0
 18 13  2  0
 19 12  1  0
 20 10  1  0
 22 24  2  0
 23 22  1  0
 25 23  1  0
 26 35  2  0
 26 31  1  0
 27 23  1  0
 27 31  1  0
 28 27  1  0
 29 30  1  0
 29 28  1  0
 30 26  1  0
 31 32  2  0
 32 33  1  0
 34 33  2  0
 35 34  1  0
 36 10  1  0
 36 41  1  0
 36 37  1  0
 37 40  1  1
 37 38  1  0
 39 37  1  0
 41 44  1  0
 42 46  1  0
 42 41  1  0
 43 42  2  0
 46 45  1  0
 48 46  1  0
 48 49  1  0
 48 47  1  0
 50  3  1  0
 50 52  1  0
 52 53  1  1
 52 51  1  0
 54 55  1  0
 56 66  1  0
 56 54  1  0
 56 57  1  0
 57 52  1  0
 57 55  1  0
 58 66  1  0
 59 64  1  0
 60 61  1  0
 60 59  1  0
 62 61  1  0
 62 71  1  0
 62 63  1  0
 64 58  1  0
 64 63  1  0
 65 58  2  0
 66 67  1  0
 68 69  2  0
 69 88  1  0
 70 73  1  0
 70 69  1  0
 71 72  1  0
 71 68  1  0
 72 70  2  0
 73 74  1  0
 74 75  2  0
 76 79  1  0
 76 75  1  0
 77 76  2  0
 78 77  1  0
 78 73  2  0
 79 80  1  0
 80 81  1  0
 81 82  2  0
 83 82  1  0
 83 87  1  0
 84 83  2  0
 85 80  2  0
 85 84  1  0
 86 85  1  0
 88 89  1  0
 89 91  1  0
 89 92  1  0
 90 88  2  0
 93 68  1  0
 93 94  1  0
 95 93  1  0
M  ISO  4   4 101   9 101  58 100  66 100
M  END
>  <TORSDO>  (29) 
F 19

>  <SCORE>  (29) 
-11.710

>  <name>  (29) 
28

>  <ligand_id>  (29) 
28

>  <original_smiles>  (29) 
[H]c1c([H])c([H])c2c(c1[H])C([H])([H])C([H])([H])C([H])([H])C2([H])N([H])C(=O)C1([H])N(C(=O)C([H])(N([H])C(=O)C([H])(N([H])C([H])([H])[H])C([H])([H])[H])C(C([H])([H])[H])(C([H])([H])[H])C([H])([H])[H])C([H])([H])c2c([H])c(Oc3nc(Cl)c(C([H])([H])[N+]([H])(C([H])([H])[H])C4([H])C([H])([H])C([H])([H])C4([H])N([H])C(=O)N4C([H])([H])C([H])([H])C([H])([H])C([H])(n5nc(-c6c([H])c([H])c(Oc7c([H])c([H])c(F)c([H])c7F)c([H])c6[H])c(C(=O)N([H])[H])c5N([H])[H])C4([H])[H])c(C([H])([H])[H])c3[H])c([H])c([H])c2C1([H])[H]

>  <smiles>  (29) 
[H]c1c([H])c([H])c2c(c1[H])C([H])([H])C([H])([H])C([H])([H])C2([H])N([H])C(=O)C1([H])N(C(=O)C([H])(N([H])C(=O)C([H])(N([H])C([H])([H])[H])C([H])([H])[H])C(C([H])([H])[H])(C([H])([H])[H])C([H])([H])[H])C([H])([H])c2c([H])c(Oc3nc(Cl)c(C([H])([H])[N+]([H])(C([H])([H])[H])C4([H])C([H])([H])C([H])([H])C4([H])N([H])C(=O)N4C([H])([H])C([H])([H])C([H])([H])C([H])(n5nc(-c6c([H])c([H])c(Oc7c([H])c([H])c(F)c([H])c7F)c([H])c6[H])c(C(=O)N([H])[H])c5N([H])[H])C4([H])[H])c(C([H])([H])[H])c3[H])c([H])c([H])c2C1([H])[H]

$$$$
29:0:0
     RDKit          3D

 89 98  0  0  1  0  0  0  0  0999 V2000
  -29.0830  -22.6310   20.3890 C   0  0  0  0  0  3  0  0  0  0  0  0
  -30.4380  -15.3330   20.3600 C   0  0  0  0  0  0  0  0  0  0  0  0
  -30.4320  -12.8630   19.5200 C   0  0  0  0  0  2  0  0  0  0  0  0
  -29.5290  -12.5730   18.2930 C   0  0  0  0  0  2  0  0  0  0  0  0
  -28.0910  -12.2720   18.7410 C   0  0  0  0  0  2  0  0  0  0  0  0
  -27.6060  -13.2750   19.8160 C   0  0  0  0  0  3  0  0  0  0  0  0
  -28.6390  -13.5000   20.9420 C   0  0  0  0  0  2  0  0  0  0  0  0
  -29.8570  -14.0260   20.3000 N   0  0  0  0  0  0  0  0  0  0  0  0
  -31.6680  -15.2910   20.1880 O   0  0  0  0  0  0  0  0  0  0  0  0
  -30.3170  -20.1920   19.8020 C   0  0  0  0  0  2  0  0  0  0  0  0
  -29.8900  -17.9690   21.2720 C   0  0  0  0  0  2  0  0  0  0  0  0
  -29.3760  -17.7100   19.3390 C   0  0  0  0  0  2  0  0  0  0  0  0
  -28.9530  -20.8720   19.9220 C   0  0  0  0  0  3  0  0  0  0  0  0
  -29.3980  -19.0900   20.2010 C   0  0  2  0  0  0  0  0  0  0  0  0
  -29.7180  -16.6550   20.4260 N   0  0  0  0  0  0  0  0  0  0  0  0
  -25.2390  -13.8260   20.5750 C   0  0  0  0  0  0  0  0  0  0  0  0
  -24.1720  -13.0450   20.9240 C   0  0  0  0  0  0  0  0  0  0  0  0
  -24.6370  -11.6940   20.8770 C   0  0  0  0  0  0  0  0  0  0  0  0
  -26.2800  -12.9520   20.3240 N   0  0  0  0  0  0  0  0  0  0  0  0
  -25.9310  -11.6620   20.5730 N   0  0  0  0  0  0  0  0  0  0  0  0
  -23.9070  -10.4290   21.0410 C   0  0  0  0  0  0  0  0  0  0  0  0
  -24.3630   -9.4210   21.9180 C   0  0  0  0  0  3  0  0  0  0  0  0
  -23.6300   -8.2250   22.0760 C   0  0  0  0  0  3  0  0  0  0  0  0
  -22.4280   -8.0280   21.3550 C   0  0  0  0  0  0  0  0  0  0  0  0
  -21.9920   -9.0250   20.4650 C   0  0  0  0  0  3  0  0  0  0  0  0
  -22.7250  -10.2130   20.3050 C   0  0  0  0  0  3  0  0  0  0  0  0
  -21.6650   -6.8880   21.4240 O   0  0  0  0  0  0  0  0  0  0  0  0
  -21.6850   -6.0740   22.5280 C   0  0  0  0  0  0  0  0  0  0  0  0
  -21.4010   -6.5640   23.8210 C   0  0  0  0  0  3  0  0  0  0  0  0
  -21.3670   -5.6800   24.9170 C   0  0  0  0  0  3  0  0  0  0  0  0
  -21.6040   -4.3060   24.7220 C   0  0  0  0  0  0  0  0  0  0  0  0
  -21.8820   -3.8150   23.4340 C   0  0  0  0  0  3  0  0  0  0  0  0
  -21.9190   -4.6970   22.3390 C   0  0  0  0  0  0  0  0  0  0  0  0
  -22.1660   -4.2150   21.0970 F   0  0  0  0  0  0  0  0  0  0  0  0
  -21.5640   -3.4540   25.7740 F   0  0  0  0  0  0  0  0  0  0  0  0
  -22.7750  -13.5200   21.1900 C   0  0  0  0  0  0  0  0  0  0  0  0
  -22.0420  -12.8160   22.0450 N   0  0  0  0  0  0  0  0  0  0  0  0
  -22.3430  -14.5510   20.6740 O   0  0  0  0  0  0  0  0  0  0  0  0
  -22.4070  -11.9810   22.4800 H   0  0  0  0  0  0  0  0  0  0  0  0
  -21.1040  -13.1150   22.2690 H   0  0  0  0  0  0  0  0  0  0  0  0
  -25.4110  -15.1980   20.4250 N   0  0  0  0  0  0  0  0  0  0  0  0
  -24.6560  -15.8630   20.5460 H   0  0  0  0  0  0  0  0  0  0  0  0
  -26.2880  -15.6340   20.1620 H   0  0  0  0  0  0  0  0  0  0  0  0
  -30.4500  -23.0440   20.0030 N   0  0  0  0  0  4  0  0  0  0  0  0
  -30.5070  -23.2260   19.0170 H   0  0  0  0  0  0  0  0  0  0  0  0
  -31.1150  -22.3230   20.2290 H   0  0  0  0  0  0  0  0  0  0  0  0
  -30.7180  -23.8840   20.4880 H   0  0  0  0  0  0  0  0  0  0  0  0
  -28.0790  -24.1260   20.0210 C   0  0  0  0  0  2  0  0  0  0  0  0
  -28.2500  -25.7760   20.2640 O   0  0  0  0  0  0  0  0  0  0  0  0
  -24.6650  -31.8180   23.1620 C   0  0  0  0  0  0  0  0  0  0  0  0
  -27.2360  -26.8900   20.1830 C   0  0  0  0  0  0  0  0  0  0  0  0
  -23.4840  -30.4290   21.5110 C   0  0  0  0  0  3  0  0  0  0  0  0
  -24.9400  -28.8030   20.1120 C   0  0  0  0  0  0  0  0  0  0  0  0
  -26.0550  -30.6160   21.3920 C   0  0  0  0  0  2  0  0  0  0  0  0
  -26.1250  -29.1990   20.7450 C   0  0  0  0  0  0  0  0  0  0  0  0
  -27.2630  -28.2630   20.7540 C   0  0  0  0  0  3  0  0  0  0  0  0
  -26.0180  -26.6550   19.5020 C   0  0  0  0  0  3  0  0  0  0  0  0
  -24.9150  -27.5520   19.4720 C   0  0  0  0  0  3  0  0  0  0  0  0
  -23.7270  -29.7360   20.1400 C   0  0  0  0  0  2  0  0  0  0  0  0
  -24.7570  -30.9830   22.0770 N   0  0  0  0  0  0  0  0  0  0  0  0
  -23.5700  -32.1160   23.6690 O   0  0  0  0  0  0  0  0  0  0  0  0
  -22.7690  -29.4440   22.4740 C   0  0  0  0  0  0  0  0  0  0  0  0
  -21.4340  -29.3080   22.3540 N   0  0  0  0  0  0  0  0  0  0  0  0
  -23.4230  -28.8000   23.2990 O   0  0  0  0  0  0  0  0  0  0  0  0
  -20.9620  -29.8760   21.6660 H   0  0  0  0  0  0  0  0  0  0  0  0
  -18.0330  -28.1450   22.8470 C   0  0  0  0  0  0  0  0  0  0  0  0
  -20.5960  -28.3790   23.1200 C   0  0  0  0  0  3  0  0  0  0  0  0
  -20.6820  -26.9470   22.5410 C   0  0  0  0  0  2  0  0  0  0  0  0
  -19.5780  -26.6400   21.5230 C   0  0  0  0  0  2  0  0  0  0  0  0
  -18.1950  -26.7980   22.1620 C   0  0  0  0  0  2  0  0  0  0  0  0
  -19.1600  -28.8930   23.2810 C   0  0  0  0  0  0  0  0  0  0  0  0
  -18.9510  -30.1520   23.8830 C   0  0  0  0  0  3  0  0  0  0  0  0
  -17.6500  -30.6620   24.0580 C   0  0  0  0  0  3  0  0  0  0  0  0
  -16.5390  -29.9130   23.6350 C   0  0  0  0  0  3  0  0  0  0  0  0
  -16.7310  -28.6560   23.0350 C   0  0  0  0  0  3  0  0  0  0  0  0
  -25.9310  -32.4560   23.8100 C   0  0  0  0  0  3  0  0  0  0  0  0
  -26.4550  -31.6540   25.0650 C   0  0  1  0  0  0  0  0  0  0  0  0
  -25.3670  -31.3810   26.1300 C   0  0  0  0  0  1  0  0  0  0  0  0
  -27.0450  -30.2920   24.6370 C   0  0  0  0  0  1  0  0  0  0  0  0
  -27.6060  -32.4340   25.7450 C   0  0  0  0  0  1  0  0  0  0  0  0
  -25.5970  -33.8380   24.2010 N   0  0  0  0  0  0  0  0  0  0  0  0
  -25.9100  -34.9340   23.4970 C   0  0  0  0  0  0  0  0  0  0  0  0
  -26.5730  -34.8900   22.4580 O   0  0  0  0  0  0  0  0  0  0  0  0
  -25.0090  -33.9440   25.0130 H   0  0  0  0  0  0  0  0  0  0  0  0
  -24.1490  -36.7200   23.2660 C   0  0  0  0  0  1  0  0  0  0  0  0
  -25.4130  -36.2940   24.0300 C   0  0  0  0  0  3  0  0  0  0  0  0
  -27.5540  -37.1760   24.8470 C   0  0  0  0  0  1  0  0  0  0  0  0
  -26.4240  -37.3700   23.9420 N   0  0  0  0  0  0  0  0  0  0  0  0
  -26.0060  -38.2730   24.1490 H   0  0  0  0  0  0  0  0  0  0  0  0
  1 48  1  0
  2 15  1  0
  3  8  1  0
  4  5  1  0
  4  3  1  0
  6  5  1  0
  6 19  1  0
  6  7  1  0
  8  2  1  0
  8  7  1  0
  9  2  2  0
 10 13  1  0
 14 10  1  6
 12 15  1  0
 13 14  1  0
 13  1  1  0
 14 12  1  0
 14 11  1  0
 15 11  1  0
 16 17  2  0
 17 36  1  0
 18 17  1  0
 18 21  1  0
 19 20  1  0
 19 16  1  0
 20 18  2  0
 21 22  1  0
 22 23  2  0
 24 27  1  0
 24 23  1  0
 25 24  2  0
 26 25  1  0
 26 21  2  0
 27 28  1  0
 28 29  1  0
 29 30  2  0
 31 30  1  0
 31 35  1  0
 32 31  2  0
 33 28  2  0
 33 32  1  0
 34 33  1  0
 36 37  1  0
 37 40  1  0
 37 39  1  0
 38 36  2  0
 41 42  1  0
 41 16  1  0
 43 41  1  0
 44 46  1  0
 44  1  1  0
 44 47  1  0
 45 44  1  0
 48 49  1  0
 50 61  2  0
 51 49  1  0
 51 56  1  0
 52 60  1  0
 52 62  1  0
 53 59  1  0
 53 55  1  0
 54 60  1  0
 55 56  2  0
 55 54  1  0
 57 51  2  0
 58 57  1  0
 58 53  2  0
 59 52  1  0
 60 50  1  0
 62 64  2  0
 63 62  1  0
 65 63  1  0
 66 75  2  0
 66 71  1  0
 67 63  1  0
 67 71  1  0
 68 67  1  0
 69 70  1  0
 69 68  1  0
 70 66  1  0
 71 72  2  0
 72 73  1  0
 74 73  2  0
 75 74  1  0
 76 50  1  0
 76 81  1  0
 76 77  1  0
 77 80  1  1
 77 78  1  0
 79 77  1  0
 81 84  1  0
 82 86  1  0
 82 81  1  0
 83 82  2  0
 86 85  1  0
 88 86  1  0
 88 89  1  0
 88 87  1  0
M  ISO  4   2 100  15 100  48 101  49 101
M  END
>  <TORSDO>  (30) 
F 18

>  <SCORE>  (30) 
-16.261

>  <name>  (30) 
29

>  <ligand_id>  (30) 
29

>  <original_smiles>  (30) 
[H]c1c([H])c([H])c2c(c1[H])C([H])([H])C([H])([H])C([H])([H])C2([H])N([H])C(=O)C1([H])N(C(=O)C([H])(N([H])C(=O)C([H])(N([H])C([H])([H])[H])C([H])([H])[H])C(C([H])([H])[H])(C([H])([H])[H])C([H])([H])[H])C([H])([H])c2c([H])c(OC([H])([H])C([H])(C3([H])C([H])([H])C34C([H])([H])N(C(=O)N3C([H])([H])C([H])([H])C([H])([H])C([H])(n5nc(-c6c([H])c([H])c(Oc7c([H])c([H])c(F)c([H])c7F)c([H])c6[H])c(C(=O)N([H])[H])c5N([H])[H])C3([H])[H])C4([H])[H])[N+]([H])([H])[H])c([H])c([H])c2C1([H])[H]

>  <smiles>  (30) 
[H]c1c([H])c([H])c2c(c1[H])C([H])([H])C([H])([H])C([H])([H])C2([H])N([H])C(=O)C1([H])N(C(=O)C([H])(N([H])C(=O)C([H])(N([H])C([H])([H])[H])C([H])([H])[H])C(C([H])([H])[H])(C([H])([H])[H])C([H])([H])[H])C([H])([H])c2c([H])c(OC([H])([H])C([H])(C3([H])C([H])([H])C34C([H])([H])N(C(=O)N3C([H])([H])C([H])([H])C([H])([H])C([H])(n5nc(-c6c([H])c([H])c(Oc7c([H])c([H])c(F)c([H])c7F)c([H])c6[H])c(C(=O)N([H])[H])c5N([H])[H])C3([H])[H])C4([H])[H])[N+]([H])([H])[H])c([H])c([H])c2C1([H])[H]

$$$$
30:0:0
     RDKit          3D

 91100  0  0  1  0  0  0  0  0999 V2000
  -29.9940  -22.7200   18.1000 C   0  0  0  0  0  0  0  0  0  0  0  0
  -28.9020  -23.4920   19.8890 C   0  0  0  0  0  0  0  0  0  0  0  0
  -29.5190  -21.1800   19.7120 C   0  0  0  0  0  0  0  0  0  0  0  0
  -28.9930  -18.7380   20.8490 C   0  0  0  0  0  2  0  0  0  0  0  0
  -30.2980  -18.6500   19.2980 C   0  0  0  0  0  2  0  0  0  0  0  0
  -30.1090  -17.6390   20.5000 C   0  0  0  0  0  3  0  0  0  0  0  0
  -30.6540  -23.0160   16.7610 C   0  0  0  0  0  1  0  0  0  0  0  0
  -29.4550  -23.7660   18.7150 N   0  0  0  0  0  4  0  0  0  0  0  0
  -30.0530  -21.4580   18.5260 N   0  0  0  0  0  0  0  0  0  0  0  0
  -28.9170  -22.2010   20.4280 N   0  0  0  0  0  2  0  0  0  0  0  0
  -29.8470  -19.7680   20.1910 N   0  0  0  0  0  0  0  0  0  0  0  0
  -30.5050  -14.9330   20.1290 C   0  0  0  0  0  0  0  0  0  0  0  0
  -30.3310  -12.6110   19.1310 C   0  0  0  0  0  2  0  0  0  0  0  0
  -29.3670  -12.6350   17.9220 C   0  0  0  0  0  2  0  0  0  0  0  0
  -27.9120  -12.4230   18.3860 C   0  0  0  0  0  2  0  0  0  0  0  0
  -27.5440  -13.3070   19.6080 C   0  0  0  0  0  3  0  0  0  0  0  0
  -28.6310  -13.2770   20.7010 C   0  0  0  0  0  2  0  0  0  0  0  0
  -29.8890  -13.6850   20.0630 N   0  0  0  0  0  0  0  0  0  0  0  0
  -31.7040  -14.9950   19.8480 O   0  0  0  0  0  0  0  0  0  0  0  0
  -29.7400  -16.1150   20.3030 N   0  0  0  0  0  0  0  0  0  0  0  0
  -28.7570  -15.9270   20.4350 H   0  0  0  0  0  0  0  0  0  0  0  0
  -25.1790  -13.8670   20.4140 C   0  0  0  0  0  0  0  0  0  0  0  0
  -24.1260  -13.0870   20.8080 C   0  0  0  0  0  0  0  0  0  0  0  0
  -24.5930  -11.7390   20.7510 C   0  0  0  0  0  0  0  0  0  0  0  0
  -26.2180  -12.9970   20.1370 N   0  0  0  0  0  0  0  0  0  0  0  0
  -25.8740  -11.7080   20.4030 N   0  0  0  0  0  0  0  0  0  0  0  0
  -23.8740  -10.4720   20.9510 C   0  0  0  0  0  0  0  0  0  0  0  0
  -24.3080   -9.5160   21.8970 C   0  0  0  0  0  3  0  0  0  0  0  0
  -23.5910   -8.3150   22.0820 C   0  0  0  0  0  3  0  0  0  0  0  0
  -22.4230   -8.0610   21.3230 C   0  0  0  0  0  0  0  0  0  0  0  0
  -22.0080   -9.0070   20.3690 C   0  0  0  0  0  3  0  0  0  0  0  0
  -22.7270  -10.2000   20.1820 C   0  0  0  0  0  3  0  0  0  0  0  0
  -21.6770   -6.9100   21.4170 O   0  0  0  0  0  0  0  0  0  0  0  0
  -21.6010   -6.1960   22.5870 C   0  0  0  0  0  0  0  0  0  0  0  0
  -21.0940   -6.7650   23.7750 C   0  0  0  0  0  3  0  0  0  0  0  0
  -20.9670   -5.9750   24.9370 C   0  0  0  0  0  3  0  0  0  0  0  0
  -21.3320   -4.6180   24.9080 C   0  0  0  0  0  0  0  0  0  0  0  0
  -21.8330   -4.0480   23.7240 C   0  0  0  0  0  3  0  0  0  0  0  0
  -21.9640   -4.8340   22.5660 C   0  0  0  0  0  0  0  0  0  0  0  0
  -22.4260   -4.2740   21.4220 F   0  0  0  0  0  0  0  0  0  0  0  0
  -21.2070   -3.8540   26.0200 F   0  0  0  0  0  0  0  0  0  0  0  0
  -22.7340  -13.5610   21.1110 C   0  0  0  0  0  0  0  0  0  0  0  0
  -22.0210  -12.8550   21.9820 N   0  0  0  0  0  0  0  0  0  0  0  0
  -22.2860  -14.5910   20.6110 O   0  0  0  0  0  0  0  0  0  0  0  0
  -22.3990  -12.0270   22.4180 H   0  0  0  0  0  0  0  0  0  0  0  0
  -21.0880  -13.1580   22.2240 H   0  0  0  0  0  0  0  0  0  0  0  0
  -25.3280  -15.2390   20.2410 N   0  0  0  0  0  0  0  0  0  0  0  0
  -24.5500  -15.8780   20.3660 H   0  0  0  0  0  0  0  0  0  0  0  0
  -26.1390  -15.6830   19.8290 H   0  0  0  0  0  0  0  0  0  0  0  0
  -28.1520  -24.7730   20.5840 C   0  0  0  0  0  2  0  0  0  0  0  0
  -28.3680  -26.2610   20.2080 O   0  0  0  0  0  0  0  0  0  0  0  0
  -24.6210  -31.8540   23.2210 C   0  0  0  0  0  0  0  0  0  0  0  0
  -27.2800  -27.1960   20.2090 C   0  0  0  0  0  0  0  0  0  0  0  0
  -23.4500  -30.4560   21.5610 C   0  0  0  0  0  3  0  0  0  0  0  0
  -24.9280  -28.8930   20.1580 C   0  0  0  0  0  0  0  0  0  0  0  0
  -26.0030  -30.7460   21.4290 C   0  0  0  0  0  2  0  0  0  0  0  0
  -26.0940  -29.3580   20.7790 C   0  0  0  0  0  0  0  0  0  0  0  0
  -27.2730  -28.5260   20.7840 C   0  0  0  0  0  3  0  0  0  0  0  0
  -26.0870  -26.8230   19.5550 C   0  0  0  0  0  3  0  0  0  0  0  0
  -24.9330  -27.6360   19.5330 C   0  0  0  0  0  3  0  0  0  0  0  0
  -23.6920  -29.7780   20.1850 C   0  0  0  0  0  2  0  0  0  0  0  0
  -24.7100  -31.0410   22.1240 N   0  0  0  0  0  0  0  0  0  0  0  0
  -23.5280  -32.1290   23.7360 O   0  0  0  0  0  0  0  0  0  0  0  0
  -22.7660  -29.4430   22.5110 C   0  0  0  0  0  0  0  0  0  0  0  0
  -21.4380  -29.2770   22.3780 N   0  0  0  0  0  0  0  0  0  0  0  0
  -23.4320  -28.8070   23.3330 O   0  0  0  0  0  0  0  0  0  0  0  0
  -20.9600  -29.8390   21.6890 H   0  0  0  0  0  0  0  0  0  0  0  0
  -18.0460  -28.1120   22.8770 C   0  0  0  0  0  0  0  0  0  0  0  0
  -20.6090  -28.3400   23.1390 C   0  0  0  0  0  3  0  0  0  0  0  0
  -20.6910  -26.9150   22.5430 C   0  0  0  0  0  2  0  0  0  0  0  0
  -19.5820  -26.6200   21.5270 C   0  0  0  0  0  2  0  0  0  0  0  0
  -18.2040  -26.7710   22.1800 C   0  0  0  0  0  2  0  0  0  0  0  0
  -19.1760  -28.8550   23.3140 C   0  0  0  0  0  0  0  0  0  0  0  0
  -18.9730  -30.1080   23.9310 C   0  0  0  0  0  3  0  0  0  0  0  0
  -17.6750  -30.6210   24.1130 C   0  0  0  0  0  3  0  0  0  0  0  0
  -16.5600  -29.8760   23.6910 C   0  0  0  0  0  3  0  0  0  0  0  0
  -16.7470  -28.6210   23.0790 C   0  0  0  0  0  3  0  0  0  0  0  0
  -25.8890  -32.4920   23.8650 C   0  0  0  0  0  3  0  0  0  0  0  0
  -25.5680  -33.8900   24.1890 N   0  0  0  0  0  0  0  0  0  0  0  0
  -25.9020  -34.9470   23.4340 C   0  0  0  0  0  0  0  0  0  0  0  0
  -26.5780  -34.8450   22.4070 O   0  0  0  0  0  0  0  0  0  0  0  0
  -24.9680  -34.0410   24.9870 H   0  0  0  0  0  0  0  0  0  0  0  0
  -24.1760  -36.7420   23.0720 C   0  0  0  0  0  1  0  0  0  0  0  0
  -25.4120  -36.3360   23.8910 C   0  0  0  0  0  3  0  0  0  0  0  0
  -27.5290  -37.2350   24.7480 C   0  0  0  0  0  1  0  0  0  0  0  0
  -26.4470  -37.3860   23.7790 N   0  0  0  0  0  0  0  0  0  0  0  0
  -26.0400  -38.3120   23.8930 H   0  0  0  0  0  0  0  0  0  0  0  0
  -26.3800  -31.7260   25.1560 C   0  0  1  0  0  0  0  0  0  0  0  0
  -25.2660  -31.5030   26.2060 C   0  0  0  0  0  1  0  0  0  0  0  0
  -26.9630  -30.3430   24.7910 C   0  0  0  0  0  1  0  0  0  0  0  0
  -27.5200  -32.5230   25.8320 C   0  0  0  0  0  1  0  0  0  0  0  0
  1  9  1  0
  1  8  2  0
  2 10  1  0
  2 50  1  0
  3 11  1  0
  3 10  1  0
  5 11  1  0
  5  6  1  0
  6 20  1  0
  6  4  1  0
  7  1  1  0
  8  2  2  0
  9  3  2  0
 11  4  1  0
 12 20  1  0
 13 18  1  0
 14 15  1  0
 14 13  1  0
 16 15  1  0
 16 25  1  0
 16 17  1  0
 18 12  1  0
 18 17  1  0
 19 12  2  0
 20 21  1  0
 22 23  2  0
 23 42  1  0
 24 23  1  0
 24 27  1  0
 25 26  1  0
 25 22  1  0
 26 24  2  0
 27 28  1  0
 28 29  2  0
 30 33  1  0
 30 29  1  0
 31 30  2  0
 32 31  1  0
 32 27  2  0
 33 34  1  0
 34 35  1  0
 35 36  2  0
 37 36  1  0
 37 41  1  0
 38 37  2  0
 39 34  2  0
 39 38  1  0
 40 39  1  0
 42 43  1  0
 43 46  1  0
 43 45  1  0
 44 42  2  0
 47 48  1  0
 47 22  1  0
 49 47  1  0
 51 53  1  0
 51 50  1  0
 52 63  2  0
 53 58  1  0
 54 62  1  0
 54 64  1  0
 55 61  1  0
 55 57  1  0
 56 62  1  0
 57 58  2  0
 57 56  1  0
 59 53  2  0
 60 59  1  0
 60 55  2  0
 61 54  1  0
 62 52  1  0
 64 66  2  0
 65 64  1  0
 67 65  1  0
 68 77  2  0
 68 73  1  0
 69 65  1  0
 69 73  1  0
 70 69  1  0
 71 72  1  0
 71 70  1  0
 72 68  1  0
 73 74  2  0
 74 75  1  0
 76 75  2  0
 77 76  1  0
 78 52  1  0
 78 79  1  0
 78 88  1  0
 79 82  1  0
 80 84  1  0
 80 79  1  0
 81 80  2  0
 84 83  1  0
 86 84  1  0
 86 87  1  0
 86 85  1  0
 88 91  1  1
 88 89  1  0
 90 88  1  0
M  ISO  4  12 100  20 100  50 101  51 101
M  END
>  <TORSDO>  (31) 
F 17

>  <SCORE>  (31) 
-14.821

>  <name>  (31) 
30

>  <ligand_id>  (31) 
30

>  <original_smiles>  (31) 
[H]c1c([H])c([H])c2c(c1[H])C([H])([H])C([H])([H])C([H])([H])C2([H])N([H])C(=O)C1([H])N(C(=O)C([H])(N([H])C(=O)C([H])(N([H])C([H])([H])[H])C([H])([H])[H])C(C([H])([H])[H])(C([H])([H])[H])C([H])([H])[H])C([H])([H])c2c([H])c(OC([H])([H])c3nc(N4C([H])([H])C([H])(N([H])C(=O)N5C([H])([H])C([H])([H])C([H])([H])C([H])(n6nc(-c7c([H])c([H])c(Oc8c([H])c([H])c(F)c([H])c8F)c([H])c7[H])c(C(=O)N([H])[H])c6N([H])[H])C5([H])[H])C4([H])[H])nc(C([H])([H])[H])n3)c([H])c([H])c2C1([H])[H]

>  <smiles>  (31) 
[H]c1c([H])c([H])c2c(c1[H])C([H])([H])C([H])([H])C([H])([H])C2([H])N([H])C(=O)C1([H])N(C(=O)C([H])(N([H])C(=O)C([H])(N([H])C([H])([H])[H])C([H])([H])[H])C(C([H])([H])[H])(C([H])([H])[H])C([H])([H])[H])C([H])([H])c2c([H])c(OC([H])([H])c3nc(N4C([H])([H])C([H])(N([H])C(=O)N5C([H])([H])C([H])([H])C([H])([H])C([H])(n6nc(-c7c([H])c([H])c(Oc8c([H])c([H])c(F)c([H])c8F)c([H])c7[H])c(C(=O)N([H])[H])c6N([H])[H])C5([H])[H])C4([H])[H])nc(C([H])([H])[H])n3)c([H])c([H])c2C1([H])[H]

$$$$
31:0:0
     RDKit          3D

 91100  0  0  1  0  0  0  0  0999 V2000
  -30.8390  -21.2900   20.2280 C   0  0  0  0  0  3  0  0  0  0  0  0
  -30.3580  -23.5830   20.1180 C   0  0  0  0  0  0  0  0  0  0  0  0
  -28.9600  -23.3680   20.2420 C   0  0  0  0  0  0  0  0  0  0  0  0
  -29.4790  -20.9150   20.3310 C   0  0  0  0  0  0  0  0  0  0  0  0
  -30.9560  -24.9680   19.9450 C   0  0  0  0  0  1  0  0  0  0  0  0
  -31.2670  -22.5740   20.1220 N   0  0  0  0  0  0  0  0  0  0  0  0
  -28.5500  -21.9970   20.3350 N   0  0  0  0  0  0  0  0  0  0  0  0
  -30.5420  -14.9660   20.0740 C   0  0  0  0  0  0  0  0  0  0  0  0
  -30.3010  -12.6550   19.0740 C   0  0  0  0  0  2  0  0  0  0  0  0
  -29.3200  -12.6630   17.8830 C   0  0  0  0  0  2  0  0  0  0  0  0
  -27.8740  -12.4600   18.3720 C   0  0  0  0  0  2  0  0  0  0  0  0
  -27.5330  -13.3340   19.6100 C   0  0  0  0  0  3  0  0  0  0  0  0
  -28.6450  -13.3240   20.6780 C   0  0  0  0  0  2  0  0  0  0  0  0
  -29.8810  -13.7390   20.0070 N   0  0  0  0  0  0  0  0  0  0  0  0
  -31.7400  -14.9530   19.7670 O   0  0  0  0  0  0  0  0  0  0  0  0
  -29.9050  -18.6590   21.5080 C   0  0  0  0  0  3  0  0  0  0  0  0
  -28.9730  -18.5340   19.3290 C   0  0  0  0  0  3  0  0  0  0  0  0
  -30.7010  -17.3420   21.0190 C   0  0  0  0  0  3  0  0  0  0  0  0
  -28.8290  -16.9320   19.6360 C   0  0  0  0  0  3  0  0  0  0  0  0
  -29.1680  -19.4650   20.4880 N   0  0  0  0  0  0  0  0  0  0  0  0
  -29.9220  -16.2150   20.3960 N   0  0  0  0  0  0  0  0  0  0  0  0
  -25.1980  -13.8750   20.4910 C   0  0  0  0  0  0  0  0  0  0  0  0
  -24.1570  -13.0860   20.8900 C   0  0  0  0  0  0  0  0  0  0  0  0
  -24.6220  -11.7380   20.7970 C   0  0  0  0  0  0  0  0  0  0  0  0
  -26.2290  -13.0090   20.1710 N   0  0  0  0  0  0  0  0  0  0  0  0
  -25.8960  -11.7150   20.4220 N   0  0  0  0  0  0  0  0  0  0  0  0
  -23.9070  -10.4690   20.9880 C   0  0  0  0  0  0  0  0  0  0  0  0
  -24.3530   -9.5020   21.9160 C   0  0  0  0  0  3  0  0  0  0  0  0
  -23.6350   -8.2990   22.0960 C   0  0  0  0  0  3  0  0  0  0  0  0
  -22.4580   -8.0560   21.3490 C   0  0  0  0  0  0  0  0  0  0  0  0
  -22.0310   -9.0130   20.4100 C   0  0  0  0  0  3  0  0  0  0  0  0
  -22.7500  -10.2070   20.2300 C   0  0  0  0  0  3  0  0  0  0  0  0
  -21.7120   -6.9060   21.4370 O   0  0  0  0  0  0  0  0  0  0  0  0
  -21.6310   -6.1890   22.6030 C   0  0  0  0  0  0  0  0  0  0  0  0
  -21.1410   -6.7610   23.7980 C   0  0  0  0  0  3  0  0  0  0  0  0
  -21.0070   -5.9680   24.9550 C   0  0  0  0  0  3  0  0  0  0  0  0
  -21.3550   -4.6050   24.9200 C   0  0  0  0  0  0  0  0  0  0  0  0
  -21.8380   -4.0320   23.7300 C   0  0  0  0  0  3  0  0  0  0  0  0
  -21.9720   -4.8210   22.5750 C   0  0  0  0  0  0  0  0  0  0  0  0
  -22.4180   -4.2590   21.4260 F   0  0  0  0  0  0  0  0  0  0  0  0
  -21.2200   -3.8410   26.0300 F   0  0  0  0  0  0  0  0  0  0  0  0
  -22.7740  -13.5520   21.2410 C   0  0  0  0  0  0  0  0  0  0  0  0
  -22.0880  -12.8340   22.1230 N   0  0  0  0  0  0  0  0  0  0  0  0
  -22.3110  -14.5900   20.7690 O   0  0  0  0  0  0  0  0  0  0  0  0
  -22.4740  -11.9930   22.5270 H   0  0  0  0  0  0  0  0  0  0  0  0
  -21.1630  -13.1300   22.3980 H   0  0  0  0  0  0  0  0  0  0  0  0
  -25.3450  -15.2520   20.3450 N   0  0  0  0  0  0  0  0  0  0  0  0
  -24.5830  -15.8950   20.5300 H   0  0  0  0  0  0  0  0  0  0  0  0
  -26.1740  -15.7120   19.9940 H   0  0  0  0  0  0  0  0  0  0  0  0
  -27.9060  -24.6430   20.1980 C   0  0  0  0  0  2  0  0  0  0  0  0
  -28.2380  -26.1690   20.2740 O   0  0  0  0  0  0  0  0  0  0  0  0
  -24.6370  -31.8850   23.2500 C   0  0  0  0  0  0  0  0  0  0  0  0
  -27.1920  -27.1640   20.2110 C   0  0  0  0  0  0  0  0  0  0  0  0
  -23.4330  -30.5020   21.6070 C   0  0  0  0  0  3  0  0  0  0  0  0
  -24.8740  -28.9270   20.1790 C   0  0  0  0  0  0  0  0  0  0  0  0
  -25.9900  -30.7540   21.4460 C   0  0  0  0  0  2  0  0  0  0  0  0
  -26.0580  -29.3640   20.7880 C   0  0  0  0  0  0  0  0  0  0  0  0
  -27.2190  -28.5030   20.7810 C   0  0  0  0  0  3  0  0  0  0  0  0
  -25.9790  -26.8320   19.5640 C   0  0  0  0  0  3  0  0  0  0  0  0
  -24.8490  -27.6750   19.5510 C   0  0  0  0  0  3  0  0  0  0  0  0
  -23.6520  -29.8310   20.2250 C   0  0  0  0  0  2  0  0  0  0  0  0
  -24.7070  -31.0680   22.1550 N   0  0  0  0  0  0  0  0  0  0  0  0
  -23.5510  -32.1730   23.7770 O   0  0  0  0  0  0  0  0  0  0  0  0
  -22.7480  -29.4920   22.5610 C   0  0  0  0  0  0  0  0  0  0  0  0
  -21.4190  -29.3270   22.4300 N   0  0  0  0  0  0  0  0  0  0  0  0
  -23.4140  -28.8600   23.3850 O   0  0  0  0  0  0  0  0  0  0  0  0
  -20.9390  -29.8880   21.7390 H   0  0  0  0  0  0  0  0  0  0  0  0
  -18.0290  -28.1530   22.9270 C   0  0  0  0  0  0  0  0  0  0  0  0
  -20.5900  -28.3930   23.1950 C   0  0  0  0  0  3  0  0  0  0  0  0
  -20.6790  -26.9630   22.6140 C   0  0  0  0  0  2  0  0  0  0  0  0
  -19.5730  -26.6540   21.5990 C   0  0  0  0  0  2  0  0  0  0  0  0
  -18.1940  -26.8060   22.2430 C   0  0  0  0  0  2  0  0  0  0  0  0
  -19.1530  -28.9050   23.3600 C   0  0  0  0  0  0  0  0  0  0  0  0
  -18.9430  -30.1650   23.9620 C   0  0  0  0  0  3  0  0  0  0  0  0
  -17.6410  -30.6720   24.1340 C   0  0  0  0  0  3  0  0  0  0  0  0
  -16.5310  -29.9180   23.7160 C   0  0  0  0  0  3  0  0  0  0  0  0
  -16.7260  -28.6600   23.1170 C   0  0  0  0  0  3  0  0  0  0  0  0
  -25.9160  -32.5120   23.8820 C   0  0  0  0  0  3  0  0  0  0  0  0
  -25.6070  -33.9110   24.2190 N   0  0  0  0  0  0  0  0  0  0  0  0
  -25.9150  -34.9670   23.4560 C   0  0  0  0  0  0  0  0  0  0  0  0
  -26.5550  -34.8660   22.4050 O   0  0  0  0  0  0  0  0  0  0  0  0
  -25.0320  -34.0620   25.0350 H   0  0  0  0  0  0  0  0  0  0  0  0
  -24.1570  -36.7470   23.1740 C   0  0  0  0  0  1  0  0  0  0  0  0
  -25.4380  -36.3540   23.9290 C   0  0  0  0  0  3  0  0  0  0  0  0
  -27.5990  -37.2610   24.6630 C   0  0  0  0  0  1  0  0  0  0  0  0
  -26.4540  -37.4160   23.7680 N   0  0  0  0  0  0  0  0  0  0  0  0
  -26.0470  -38.3330   23.9300 H   0  0  0  0  0  0  0  0  0  0  0  0
  -26.4160  -31.7370   25.1640 C   0  0  1  0  0  0  0  0  0  0  0  0
  -25.3120  -31.5060   26.2220 C   0  0  0  0  0  1  0  0  0  0  0  0
  -26.9960  -30.3550   24.7800 C   0  0  0  0  0  1  0  0  0  0  0  0
  -27.5660  -32.5250   25.8360 C   0  0  0  0  0  1  0  0  0  0  0  0
  1  4  1  0
  2  6  1  0
  2  3  2  0
  3  7  1  0
  4  7  2  0
  4 20  1  0
  5  2  1  0
  6  1  2  0
  8 21  1  0
  9 14  1  0
 10 11  1  0
 10  9  1  0
 12 11  1  0
 12 25  1  0
 12 13  1  0
 14  8  1  0
 14 13  1  0
 15  8  2  0
 17 19  2  0
 17 20  1  0
 18 16  2  0
 19 21  1  0
 20 16  1  0
 21 18  1  0
 22 23  2  0
 23 42  1  0
 24 23  1  0
 24 27  1  0
 25 26  1  0
 25 22  1  0
 26 24  2  0
 27 28  1  0
 28 29  2  0
 30 33  1  0
 30 29  1  0
 31 30  2  0
 32 31  1  0
 32 27  2  0
 33 34  1  0
 34 35  1  0
 35 36  2  0
 37 36  1  0
 37 41  1  0
 38 37  2  0
 39 34  2  0
 39 38  1  0
 40 39  1  0
 42 43  1  0
 43 46  1  0
 43 45  1  0
 44 42  2  0
 47 22  1  0
 47 48  1  0
 49 47  1  0
 50  3  1  0
 50 51  1  0
 52 63  2  0
 53 51  1  0
 53 58  1  0
 54 62  1  0
 54 64  1  0
 55 61  1  0
 55 57  1  0
 56 62  1  0
 57 56  1  0
 58 57  2  0
 59 53  2  0
 60 59  1  0
 60 55  2  0
 61 54  1  0
 62 52  1  0
 64 66  2  0
 65 64  1  0
 67 65  1  0
 68 77  2  0
 68 73  1  0
 69 65  1  0
 69 73  1  0
 70 69  1  0
 71 72  1  0
 71 70  1  0
 72 68  1  0
 73 74  2  0
 74 75  1  0
 76 75  2  0
 77 76  1  0
 78 52  1  0
 78 79  1  0
 78 88  1  0
 79 82  1  0
 80 84  1  0
 80 79  1  0
 81 80  2  0
 84 83  1  0
 86 84  1  0
 86 87  1  0
 86 85  1  0
 88 91  1  1
 88 89  1  0
 90 88  1  0
M  ISO  4   8 100  21 100  50 101  51 101
M  END
>  <TORSDO>  (32) 
F 17

>  <SCORE>  (32) 
-14.968

>  <name>  (32) 
31

>  <ligand_id>  (32) 
31

>  <original_smiles>  (32) 
[H]c1nc(C([H])([H])[H])c(C([H])([H])Oc2c([H])c([H])c3c(c2[H])C([H])([H])N(C(=O)C([H])(N([H])C(=O)C([H])(N([H])C([H])([H])[H])C([H])([H])[H])C(C([H])([H])[H])(C([H])([H])[H])C([H])([H])[H])C([H])(C(=O)N([H])C2([H])c4c([H])c([H])c([H])c([H])c4C([H])([H])C([H])([H])C2([H])[H])C3([H])[H])nc1N1C([H])([H])C([H])([H])N(C(=O)N2C([H])([H])C([H])([H])C([H])([H])C([H])(n3nc(-c4c([H])c([H])c(Oc5c([H])c([H])c(F)c([H])c5F)c([H])c4[H])c(C(=O)N([H])[H])c3N([H])[H])C2([H])[H])C([H])([H])C1([H])[H]

>  <smiles>  (32) 
[H]c1nc(C([H])([H])[H])c(C([H])([H])Oc2c([H])c([H])c3c(c2[H])C([H])([H])N(C(=O)C([H])(N([H])C(=O)C([H])(N([H])C([H])([H])[H])C([H])([H])[H])C(C([H])([H])[H])(C([H])([H])[H])C([H])([H])[H])C([H])(C(=O)N([H])C2([H])c4c([H])c([H])c([H])c([H])c4C([H])([H])C([H])([H])C2([H])[H])C3([H])[H])nc1N1C([H])([H])C([H])([H])N(C(=O)N2C([H])([H])C([H])([H])C([H])([H])C([H])(n3nc(-c4c([H])c([H])c(Oc5c([H])c([H])c(F)c([H])c5F)c([H])c4[H])c(C(=O)N([H])[H])c3N([H])[H])C2([H])[H])C([H])([H])C1([H])[H]

$$$$
32:0:0
     RDKit          3D

 87 96  0  0  1  0  0  0  0  0999 V2000
  -27.5690  -21.8810   20.0680 C   0  0  0  0  0  2  0  0  0  0  0  0
  -28.8570  -21.1580   20.2180 C   0  0  0  0  0  0  0  0  0  0  0  0
  -28.2980  -24.2740   20.2730 C   0  0  0  0  0  0  0  0  0  0  0  0
  -27.3090  -23.3150   20.0940 N   0  0  0  0  0  0  0  0  0  0  0  0
  -29.7780  -22.2160   20.3820 N   0  0  0  0  0  0  0  0  0  0  0  0
  -29.5320  -23.6240   20.4120 N   0  0  0  0  0  0  0  0  0  0  0  0
  -30.3760  -15.5740   20.0900 C   0  0  0  0  0  0  0  0  0  0  0  0
  -30.3790  -13.0880   19.2240 C   0  0  0  0  0  2  0  0  0  0  0  0
  -29.4390  -12.7680   18.0330 C   0  0  0  0  0  2  0  0  0  0  0  0
  -28.0210  -12.4470   18.5300 C   0  0  0  0  0  2  0  0  0  0  0  0
  -27.5710  -13.4230   19.6460 C   0  0  0  0  0  3  0  0  0  0  0  0
  -28.6460  -13.6710   20.7240 C   0  0  0  0  0  2  0  0  0  0  0  0
  -29.8070  -14.2490   20.0250 N   0  0  0  0  0  0  0  0  0  0  0  0
  -31.6030  -15.5000   19.8990 O   0  0  0  0  0  0  0  0  0  0  0  0
  -30.1610  -18.2850   20.9860 C   0  0  0  0  0  2  0  0  0  0  0  0
  -28.6940  -17.9230   19.6100 C   0  0  0  0  0  2  0  0  0  0  0  0
  -29.3320  -19.3970   20.0790 C   0  0  0  0  0  3  0  0  0  0  0  0
  -29.7150  -16.9390   20.3010 N   0  0  0  0  0  0  0  0  0  0  0  0
  -25.2450  -13.9320   20.5310 C   0  0  0  0  0  0  0  0  0  0  0  0
  -24.2050  -13.1380   20.9210 C   0  0  0  0  0  0  0  0  0  0  0  0
  -24.6770  -11.7920   20.8310 C   0  0  0  0  0  0  0  0  0  0  0  0
  -26.2780  -13.0730   20.2130 N   0  0  0  0  0  0  0  0  0  0  0  0
  -25.9560  -11.7770   20.4640 N   0  0  0  0  0  0  0  0  0  0  0  0
  -23.9650  -10.5210   21.0160 C   0  0  0  0  0  0  0  0  0  0  0  0
  -24.4120   -9.5470   21.9370 C   0  0  0  0  0  3  0  0  0  0  0  0
  -23.6930   -8.3450   22.1110 C   0  0  0  0  0  3  0  0  0  0  0  0
  -22.5140   -8.1070   21.3650 C   0  0  0  0  0  0  0  0  0  0  0  0
  -22.0860   -9.0690   20.4340 C   0  0  0  0  0  3  0  0  0  0  0  0
  -22.8050  -10.2630   20.2580 C   0  0  0  0  0  3  0  0  0  0  0  0
  -21.7670   -6.9560   21.4490 O   0  0  0  0  0  0  0  0  0  0  0  0
  -21.6920   -6.2290   22.6100 C   0  0  0  0  0  0  0  0  0  0  0  0
  -21.1850   -6.7860   23.8050 C   0  0  0  0  0  3  0  0  0  0  0  0
  -21.0580   -5.9850   24.9580 C   0  0  0  0  0  3  0  0  0  0  0  0
  -21.4310   -4.6280   24.9150 C   0  0  0  0  0  0  0  0  0  0  0  0
  -21.9310   -4.0700   23.7250 C   0  0  0  0  0  3  0  0  0  0  0  0
  -22.0590   -4.8690   22.5760 C   0  0  0  0  0  0  0  0  0  0  0  0
  -22.5210   -4.3230   21.4250 F   0  0  0  0  0  0  0  0  0  0  0  0
  -21.3030   -3.8560   26.0190 F   0  0  0  0  0  0  0  0  0  0  0  0
  -22.8190  -13.6000   21.2570 C   0  0  0  0  0  0  0  0  0  0  0  0
  -22.1300  -12.8870   22.1390 N   0  0  0  0  0  0  0  0  0  0  0  0
  -22.3570  -14.6320   20.7720 O   0  0  0  0  0  0  0  0  0  0  0  0
  -22.5180  -12.0520   22.5540 H   0  0  0  0  0  0  0  0  0  0  0  0
  -21.2020  -13.1830   22.4070 H   0  0  0  0  0  0  0  0  0  0  0  0
  -25.3940  -15.3100   20.3900 N   0  0  0  0  0  0  0  0  0  0  0  0
  -24.6350  -15.9580   20.5750 H   0  0  0  0  0  0  0  0  0  0  0  0
  -26.2340  -15.7650   20.0580 H   0  0  0  0  0  0  0  0  0  0  0  0
  -28.2250  -25.8200   20.2730 O   0  0  0  0  0  0  0  0  0  0  0  0
  -24.6680  -31.9140   23.2600 C   0  0  0  0  0  0  0  0  0  0  0  0
  -27.1690  -26.9140   20.2580 C   0  0  0  0  0  0  0  0  0  0  0  0
  -23.4640  -30.5210   21.6290 C   0  0  0  0  0  3  0  0  0  0  0  0
  -24.8930  -28.8820   20.2070 C   0  0  0  0  0  0  0  0  0  0  0  0
  -26.0340  -30.6840   21.4860 C   0  0  0  0  0  2  0  0  0  0  0  0
  -26.0860  -29.2600   20.8340 C   0  0  0  0  0  0  0  0  0  0  0  0
  -27.2090  -28.2990   20.8290 C   0  0  0  0  0  3  0  0  0  0  0  0
  -25.9460  -26.7200   19.5710 C   0  0  0  0  0  3  0  0  0  0  0  0
  -24.8550  -27.6360   19.5560 C   0  0  0  0  0  3  0  0  0  0  0  0
  -23.6860  -29.8280   20.2550 C   0  0  0  0  0  2  0  0  0  0  0  0
  -24.7450  -31.0720   22.1780 N   0  0  0  0  0  0  0  0  0  0  0  0
  -23.5800  -32.2130   23.7820 O   0  0  0  0  0  0  0  0  0  0  0  0
  -22.7620  -29.5370   22.6020 C   0  0  0  0  0  0  0  0  0  0  0  0
  -21.4340  -29.3610   22.4680 N   0  0  0  0  0  0  0  0  0  0  0  0
  -23.4220  -28.9290   23.4490 O   0  0  0  0  0  0  0  0  0  0  0  0
  -20.9510  -29.8990   21.7620 H   0  0  0  0  0  0  0  0  0  0  0  0
  -18.0590  -28.1180   22.9660 C   0  0  0  0  0  0  0  0  0  0  0  0
  -20.6140  -28.4220   23.2430 C   0  0  0  0  0  3  0  0  0  0  0  0
  -20.7370  -26.9840   22.6860 C   0  0  0  0  0  2  0  0  0  0  0  0
  -19.6480  -26.6360   21.6680 C   0  0  0  0  0  2  0  0  0  0  0  0
  -18.2600  -26.7650   22.3000 C   0  0  0  0  0  2  0  0  0  0  0  0
  -19.1630  -28.9020   23.3940 C   0  0  0  0  0  0  0  0  0  0  0  0
  -18.9190  -30.1620   23.9810 C   0  0  0  0  0  3  0  0  0  0  0  0
  -17.6050  -30.6400   24.1410 C   0  0  0  0  0  3  0  0  0  0  0  0
  -16.5160  -29.8540   23.7250 C   0  0  0  0  0  3  0  0  0  0  0  0
  -16.7440  -28.5940   23.1440 C   0  0  0  0  0  3  0  0  0  0  0  0
  -25.9400  -32.5570   23.8910 C   0  0  0  0  0  3  0  0  0  0  0  0
  -25.6260  -33.9600   24.2240 N   0  0  0  0  0  0  0  0  0  0  0  0
  -25.9330  -35.0190   23.4620 C   0  0  0  0  0  0  0  0  0  0  0  0
  -26.5680  -34.9180   22.4100 O   0  0  0  0  0  0  0  0  0  0  0  0
  -25.0560  -34.1110   25.0430 H   0  0  0  0  0  0  0  0  0  0  0  0
  -24.1830  -36.8140   23.1930 C   0  0  0  0  0  1  0  0  0  0  0  0
  -25.4640  -36.4100   23.9420 C   0  0  0  0  0  3  0  0  0  0  0  0
  -27.6240  -37.3210   24.6760 C   0  0  0  0  0  1  0  0  0  0  0  0
  -26.4870  -37.4650   23.7720 N   0  0  0  0  0  0  0  0  0  0  0  0
  -26.0830  -38.3870   23.9130 H   0  0  0  0  0  0  0  0  0  0  0  0
  -26.4430  -31.8000   25.1830 C   0  0  1  0  0  0  0  0  0  0  0  0
  -25.3400  -31.5790   26.2470 C   0  0  0  0  0  1  0  0  0  0  0  0
  -27.0240  -30.4130   24.8240 C   0  0  0  0  0  1  0  0  0  0  0  0
  -27.5910  -32.5970   25.8450 C   0  0  0  0  0  1  0  0  0  0  0  0
  1  4  1  0
  1  2  1  0
  2  5  2  0
  3  6  2  0
  4  3  2  0
  5  6  1  0
  7 18  1  0
  8 13  1  0
  9 10  1  0
  9  8  1  0
 11 10  1  0
 11 22  1  0
 11 12  1  0
 13  7  1  0
 13 12  1  0
 14  7  2  0
 16 17  1  0
 16 18  1  0
 17  2  1  0
 17 15  1  0
 18 15  1  0
 19 20  2  0
 20 39  1  0
 21 20  1  0
 21 24  1  0
 22 23  1  0
 22 19  1  0
 23 21  2  0
 24 25  1  0
 25 26  2  0
 27 30  1  0
 27 26  1  0
 28 27  2  0
 29 28  1  0
 29 24  2  0
 30 31  1  0
 31 32  1  0
 32 33  2  0
 34 33  1  0
 34 38  1  0
 35 34  2  0
 36 31  2  0
 36 35  1  0
 37 36  1  0
 39 40  1  0
 40 43  1  0
 40 42  1  0
 41 39  2  0
 44 19  1  0
 44 45  1  0
 46 44  1  0
 47  3  1  0
 48 59  2  0
 49 47  1  0
 49 54  1  0
 50 58  1  0
 50 60  1  0
 51 57  1  0
 51 53  1  0
 52 58  1  0
 53 52  1  0
 54 53  2  0
 55 49  2  0
 56 55  1  0
 56 51  2  0
 57 50  1  0
 58 48  1  0
 60 62  2  0
 61 60  1  0
 63 61  1  0
 64 73  2  0
 64 69  1  0
 65 61  1  0
 65 69  1  0
 66 65  1  0
 67 68  1  0
 67 66  1  0
 68 64  1  0
 69 70  2  0
 70 71  1  0
 72 71  2  0
 73 72  1  0
 74 48  1  0
 74 75  1  0
 74 84  1  0
 75 78  1  0
 76 80  1  0
 76 75  1  0
 77 76  2  0
 80 79  1  0
 82 83  1  0
 82 80  1  0
 82 81  1  0
 84 87  1  1
 84 85  1  0
 86 84  1  0
M  ISO  4   3 101   7 100  18 100  47 101
M  END
>  <TORSDO>  (33) 
F 16

>  <SCORE>  (33) 
-15.857

>  <name>  (33) 
32

>  <ligand_id>  (33) 
32

>  <original_smiles>  (33) 
[H]c1nc(Oc2c([H])c([H])c3c(c2[H])C([H])([H])N(C(=O)C([H])(N([H])C(=O)C([H])(N([H])C([H])([H])[H])C([H])([H])[H])C(C([H])([H])[H])(C([H])([H])[H])C([H])([H])[H])C([H])(C(=O)N([H])C2([H])c4c([H])c([H])c([H])c([H])c4C([H])([H])C([H])([H])C2([H])[H])C3([H])[H])nnc1C1([H])C([H])([H])N(C(=O)N2C([H])([H])C([H])([H])C([H])([H])C([H])(n3nc(-c4c([H])c([H])c(Oc5c([H])c([H])c(F)c([H])c5F)c([H])c4[H])c(C(=O)N([H])[H])c3N([H])[H])C2([H])[H])C1([H])[H]

>  <smiles>  (33) 
[H]c1nc(Oc2c([H])c([H])c3c(c2[H])C([H])([H])N(C(=O)C([H])(N([H])C(=O)C([H])(N([H])C([H])([H])[H])C([H])([H])[H])C(C([H])([H])[H])(C([H])([H])[H])C([H])([H])[H])C([H])(C(=O)N([H])C2([H])c4c([H])c([H])c([H])c([H])c4C([H])([H])C([H])([H])C2([H])[H])C3([H])[H])nnc1C1([H])C([H])([H])N(C(=O)N2C([H])([H])C([H])([H])C([H])([H])C([H])(n3nc(-c4c([H])c([H])c(Oc5c([H])c([H])c(F)c([H])c5F)c([H])c4[H])c(C(=O)N([H])[H])c3N([H])[H])C2([H])[H])C1([H])[H]

$$$$
33:0:0
     RDKit          3D

 92102  0  0  1  0  0  0  0  0999 V2000
  -29.5550  -22.5560   21.0840 C   0  0  0  0  0  3  0  0  0  0  0  0
  -29.1780  -20.3970   20.0490 C   0  0  0  0  0  0  0  0  0  0  0  0
  -28.3210  -21.1620   19.1620 C   0  0  0  0  0  0  0  0  0  0  0  0
  -28.6940  -23.3180   20.2090 C   0  0  0  0  0  0  0  0  0  0  0  0
  -29.7970  -21.1750   21.0050 N   0  0  0  0  0  0  0  0  0  0  0  0
  -28.1160  -22.5400   19.2350 N   0  0  0  0  0  0  0  0  0  0  0  0
  -30.7450  -14.9960   19.9440 C   0  0  0  0  0  0  0  0  0  0  0  0
  -30.5150  -12.6850   18.9250 C   0  0  0  0  0  2  0  0  0  0  0  0
  -29.4980  -12.6830   17.7610 C   0  0  0  0  0  2  0  0  0  0  0  0
  -28.0670  -12.4620   18.2860 C   0  0  0  0  0  2  0  0  0  0  0  0
  -27.7510  -13.3400   19.5240 C   0  0  0  0  0  3  0  0  0  0  0  0
  -28.8870  -13.2920   20.5700 C   0  0  0  0  0  2  0  0  0  0  0  0
  -30.1070  -13.7510   19.8890 N   0  0  0  0  0  0  0  0  0  0  0  0
  -31.9060  -15.0330   19.5170 O   0  0  0  0  0  0  0  0  0  0  0  0
  -28.7490  -18.0270   21.3380 C   0  0  0  0  0  2  0  0  0  0  0  0
  -28.9740  -16.4850   21.1350 C   0  0  0  0  0  2  0  0  0  0  0  0
  -30.4170  -17.6780   19.7170 C   0  0  0  0  0  2  0  0  0  0  0  0
  -29.2320  -18.7330   20.0710 C   0  0  0  0  0  3  0  0  0  0  0  0
  -30.0520  -16.2350   20.1560 N   0  0  0  0  0  0  0  0  0  0  0  0
  -25.4230  -13.8940   20.4370 C   0  0  0  0  0  0  0  0  0  0  0  0
  -24.3900  -13.1060   20.8610 C   0  0  0  0  0  0  0  0  0  0  0  0
  -24.8490  -11.7580   20.7500 C   0  0  0  0  0  0  0  0  0  0  0  0
  -26.4500  -13.0260   20.1020 N   0  0  0  0  0  0  0  0  0  0  0  0
  -26.1160  -11.7330   20.3520 N   0  0  0  0  0  0  0  0  0  0  0  0
  -24.1330  -10.4910   20.9440 C   0  0  0  0  0  0  0  0  0  0  0  0
  -24.5780   -9.5250   21.8730 C   0  0  0  0  0  3  0  0  0  0  0  0
  -23.8600   -8.3240   22.0560 C   0  0  0  0  0  3  0  0  0  0  0  0
  -22.6830   -8.0790   21.3100 C   0  0  0  0  0  0  0  0  0  0  0  0
  -22.2580   -9.0340   20.3680 C   0  0  0  0  0  3  0  0  0  0  0  0
  -22.9760  -10.2270   20.1840 C   0  0  0  0  0  3  0  0  0  0  0  0
  -21.9340   -6.9310   21.4020 O   0  0  0  0  0  0  0  0  0  0  0  0
  -21.8320   -6.2320   22.5790 C   0  0  0  0  0  0  0  0  0  0  0  0
  -21.3340   -6.8270   23.7590 C   0  0  0  0  0  3  0  0  0  0  0  0
  -21.1820   -6.0530   24.9270 C   0  0  0  0  0  3  0  0  0  0  0  0
  -21.5170   -4.6860   24.9150 C   0  0  0  0  0  0  0  0  0  0  0  0
  -22.0090   -4.0910   23.7400 C   0  0  0  0  0  3  0  0  0  0  0  0
  -22.1630   -4.8630   22.5740 C   0  0  0  0  0  0  0  0  0  0  0  0
  -22.6160   -4.2790   21.4380 F   0  0  0  0  0  0  0  0  0  0  0  0
  -21.3640   -3.9400   26.0340 F   0  0  0  0  0  0  0  0  0  0  0  0
  -23.0170  -13.5760   21.2450 C   0  0  0  0  0  0  0  0  0  0  0  0
  -22.3560  -12.8610   22.1490 N   0  0  0  0  0  0  0  0  0  0  0  0
  -22.5430  -14.6110   20.7800 O   0  0  0  0  0  0  0  0  0  0  0  0
  -22.7560  -12.0230   22.5450 H   0  0  0  0  0  0  0  0  0  0  0  0
  -21.4370  -13.1560   22.4480 H   0  0  0  0  0  0  0  0  0  0  0  0
  -25.5600  -15.2680   20.2830 N   0  0  0  0  0  0  0  0  0  0  0  0
  -24.7840  -15.9020   20.4440 H   0  0  0  0  0  0  0  0  0  0  0  0
  -26.3530  -15.7170   19.8440 H   0  0  0  0  0  0  0  0  0  0  0  0
  -26.0580  -20.9040   17.8390 C   0  0  0  0  0  2  0  0  0  0  0  0
  -26.3730  -19.5560   18.4200 C   0  0  0  0  0  2  0  0  0  0  0  0
  -27.5050  -20.5080   18.0780 C   0  0  0  0  0  3  0  0  0  0  0  0
  -28.0300  -24.7910   20.5650 C   0  0  0  0  0  2  0  0  0  0  0  0
  -28.3610  -26.2150   20.0510 O   0  0  0  0  0  0  0  0  0  0  0  0
  -24.6500  -31.8270   23.1020 C   0  0  0  0  0  0  0  0  0  0  0  0
  -27.3110  -27.1990   20.0330 C   0  0  0  0  0  0  0  0  0  0  0  0
  -23.4840  -30.4430   21.4280 C   0  0  0  0  0  3  0  0  0  0  0  0
  -24.9640  -28.9080   19.9990 C   0  0  0  0  0  0  0  0  0  0  0  0
  -26.0360  -30.7420   21.2960 C   0  0  0  0  0  2  0  0  0  0  0  0
  -26.1330  -29.3620   20.6260 C   0  0  0  0  0  0  0  0  0  0  0  0
  -27.3110  -28.5240   20.6250 C   0  0  0  0  0  3  0  0  0  0  0  0
  -26.1190  -26.8500   19.3630 C   0  0  0  0  0  3  0  0  0  0  0  0
  -24.9690  -27.6630   19.3520 C   0  0  0  0  0  3  0  0  0  0  0  0
  -23.7270  -29.7890   20.0430 C   0  0  0  0  0  2  0  0  0  0  0  0
  -24.7420  -31.0240   21.9980 N   0  0  0  0  0  0  0  0  0  0  0  0
  -23.5550  -32.0920   23.6200 O   0  0  0  0  0  0  0  0  0  0  0  0
  -22.8050  -29.4140   22.3680 C   0  0  0  0  0  0  0  0  0  0  0  0
  -21.4740  -29.2620   22.2510 N   0  0  0  0  0  0  0  0  0  0  0  0
  -23.4790  -28.7560   23.1650 O   0  0  0  0  0  0  0  0  0  0  0  0
  -20.9880  -29.8440   21.5830 H   0  0  0  0  0  0  0  0  0  0  0  0
  -18.0740  -28.1440   22.8170 C   0  0  0  0  0  0  0  0  0  0  0  0
  -20.6480  -28.3130   23.0020 C   0  0  0  0  0  3  0  0  0  0  0  0
  -20.6820  -26.9090   22.3540 C   0  0  0  0  0  2  0  0  0  0  0  0
  -19.5360  -26.6730   21.3660 C   0  0  0  0  0  2  0  0  0  0  0  0
  -18.1830  -26.8270   22.0670 C   0  0  0  0  0  2  0  0  0  0  0  0
  -19.2320  -28.8490   23.2430 C   0  0  0  0  0  0  0  0  0  0  0  0
  -19.0740  -30.0840   23.9070 C   0  0  0  0  0  3  0  0  0  0  0  0
  -17.7930  -30.6130   24.1490 C   0  0  0  0  0  3  0  0  0  0  0  0
  -16.6500  -29.9040   23.7380 C   0  0  0  0  0  3  0  0  0  0  0  0
  -16.7930  -28.6710   23.0780 C   0  0  0  0  0  3  0  0  0  0  0  0
  -25.9150  -32.4660   23.7520 C   0  0  0  0  0  3  0  0  0  0  0  0
  -25.5830  -33.8560   24.1060 N   0  0  0  0  0  0  0  0  0  0  0  0
  -25.9140  -34.9300   23.3770 C   0  0  0  0  0  0  0  0  0  0  0  0
  -26.5990  -34.8560   22.3530 O   0  0  0  0  0  0  0  0  0  0  0  0
  -24.9780  -33.9870   24.9040 H   0  0  0  0  0  0  0  0  0  0  0  0
  -24.1840  -36.7240   23.0310 C   0  0  0  0  0  1  0  0  0  0  0  0
  -25.4080  -36.3030   23.8600 C   0  0  0  0  0  3  0  0  0  0  0  0
  -27.5130  -37.1820   24.7680 C   0  0  0  0  0  1  0  0  0  0  0  0
  -26.4360  -37.3660   23.7990 N   0  0  0  0  0  0  0  0  0  0  0  0
  -26.0200  -38.2790   23.9580 H   0  0  0  0  0  0  0  0  0  0  0  0
  -26.4210  -31.6810   25.0240 C   0  0  1  0  0  0  0  0  0  0  0  0
  -25.3140  -31.4100   26.0710 C   0  0  0  0  0  1  0  0  0  0  0  0
  -27.0310  -30.3190   24.6250 C   0  0  0  0  0  1  0  0  0  0  0  0
  -27.5490  -32.4820   25.7180 C   0  0  0  0  0  1  0  0  0  0  0  0
  2  5  2  0
  3  6  2  0
  3  2  1  0
  4 51  1  0
  4  1  2  0
  5  1  1  0
  6  4  1  0
  7 19  1  0
  8 13  1  0
  9 10  1  0
  9  8  1  0
 11 10  1  0
 11 23  1  0
 11 12  1  0
 13  7  1  0
 13 12  1  0
 14  7  2  0
 16 15  1  0
 17 18  1  0
 17 19  1  0
 18  2  1  0
 18 15  1  0
 19 16  1  0
 20 21  2  0
 21 40  1  0
 22 21  1  0
 22 25  1  0
 23 24  1  0
 23 20  1  0
 24 22  2  0
 25 26  1  0
 26 27  2  0
 28 31  1  0
 28 27  1  0
 29 28  2  0
 30 29  1  0
 30 25  2  0
 31 32  1  0
 32 33  1  0
 33 34  2  0
 35 34  1  0
 35 39  1  0
 36 35  2  0
 37 32  2  0
 37 36  1  0
 38 37  1  0
 40 41  1  0
 41 44  1  0
 41 43  1  0
 42 40  2  0
 45 20  1  0
 45 46  1  0
 47 45  1  0
 48 50  1  0
 48 49  1  0
 50 49  1  0
 50  3  1  0
 52 51  1  0
 53 64  2  0
 54 52  1  0
 54 59  1  0
 55 63  1  0
 55 65  1  0
 56 62  1  0
 56 58  1  0
 57 63  1  0
 58 57  1  0
 59 58  2  0
 60 54  2  0
 61 60  1  0
 61 56  2  0
 62 55  1  0
 63 53  1  0
 65 67  2  0
 66 65  1  0
 68 66  1  0
 69 78  2  0
 69 74  1  0
 70 66  1  0
 70 74  1  0
 71 70  1  0
 72 73  1  0
 72 71  1  0
 73 69  1  0
 74 75  2  0
 75 76  1  0
 77 76  2  0
 78 77  1  0
 79 53  1  0
 79 80  1  0
 79 89  1  0
 80 83  1  0
 81 85  1  0
 81 80  1  0
 82 81  2  0
 85 84  1  0
 87 85  1  0
 87 88  1  0
 87 86  1  0
 89 92  1  1
 89 90  1  0
 91 89  1  0
M  ISO  4   7 100  19 100  51 101  52 101
M  END
>  <TORSDO>  (34) 
F 18

>  <SCORE>  (34) 
-13.731

>  <name>  (34) 
33

>  <ligand_id>  (34) 
33

>  <original_smiles>  (34) 
[H]c1nc(C2([H])C([H])([H])N(C(=O)N3C([H])([H])C([H])([H])C([H])([H])C([H])(n4nc(-c5c([H])c([H])c(Oc6c([H])c([H])c(F)c([H])c6F)c([H])c5[H])c(C(=O)N([H])[H])c4N([H])[H])C3([H])[H])C([H])([H])C2([H])[H])c(C2([H])C([H])([H])C2([H])[H])nc1C([H])([H])Oc1c([H])c([H])c2c(c1[H])C([H])([H])N(C(=O)C([H])(N([H])C(=O)C([H])(N([H])C([H])([H])[H])C([H])([H])[H])C(C([H])([H])[H])(C([H])([H])[H])C([H])([H])[H])C([H])(C(=O)N([H])C1([H])c3c([H])c([H])c([H])c([H])c3C([H])([H])C([H])([H])C1([H])[H])C2([H])[H]

>  <smiles>  (34) 
[H]c1nc(C2([H])C([H])([H])N(C(=O)N3C([H])([H])C([H])([H])C([H])([H])C([H])(n4nc(-c5c([H])c([H])c(Oc6c([H])c([H])c(F)c([H])c6F)c([H])c5[H])c(C(=O)N([H])[H])c4N([H])[H])C3([H])[H])C([H])([H])C2([H])[H])c(C2([H])C([H])([H])C2([H])[H])nc1C([H])([H])Oc1c([H])c([H])c2c(c1[H])C([H])([H])N(C(=O)C([H])(N([H])C(=O)C([H])(N([H])C([H])([H])[H])C([H])([H])[H])C(C([H])([H])[H])(C([H])([H])[H])C([H])([H])[H])C([H])(C(=O)N([H])C1([H])c3c([H])c([H])c([H])c([H])c3C([H])([H])C([H])([H])C1([H])[H])C2([H])[H]

$$$$
34:0:0
     RDKit          3D

 91100  0  0  1  0  0  0  0  0999 V2000
  -28.5680  -22.1170   19.9990 C   0  0  0  0  0  3  0  0  0  0  0  0
  -28.8680  -23.5560   20.1020 C   0  0  0  0  0  0  0  0  0  0  0  0
  -29.7530  -21.3870   20.1100 C   0  0  0  0  0  0  0  0  0  0  0  0
  -32.1310  -22.2680   20.4330 C   0  0  0  0  0  1  0  0  0  0  0  0
  -30.1770  -23.6790   20.2720 N   0  0  0  0  0  0  0  0  0  0  0  0
  -30.6930  -22.4090   20.2730 N   0  0  0  0  0  0  0  0  0  0  0  0
  -30.2460  -20.0070   20.0940 N   0  0  0  0  0  0  0  0  0  0  0  0
  -31.2540  -19.9570   20.2080 H   0  0  0  0  0  0  0  0  0  0  0  0
  -30.7870  -14.8640   19.9080 C   0  0  0  0  0  0  0  0  0  0  0  0
  -30.5220  -12.5620   18.9340 C   0  0  0  0  0  2  0  0  0  0  0  0
  -29.5090  -12.5730   17.7680 C   0  0  0  0  0  2  0  0  0  0  0  0
  -28.0750  -12.3780   18.2960 C   0  0  0  0  0  2  0  0  0  0  0  0
  -27.7630  -13.2810   19.5190 C   0  0  0  0  0  3  0  0  0  0  0  0
  -28.8950  -13.2370   20.5680 C   0  0  0  0  0  2  0  0  0  0  0  0
  -30.1290  -13.6420   19.8800 N   0  0  0  0  0  0  0  0  0  0  0  0
  -31.9430  -14.9000   19.4720 O   0  0  0  0  0  0  0  0  0  0  0  0
  -29.1130  -18.0130   21.2620 C   0  0  0  0  0  2  0  0  0  0  0  0
  -29.1100  -16.4590   21.0800 C   0  0  0  0  0  2  0  0  0  0  0  0
  -30.5220  -17.4270   19.4770 C   0  0  0  0  0  2  0  0  0  0  0  0
  -29.5880  -18.6430   19.9470 C   0  0  0  0  0  3  0  0  0  0  0  0
  -30.0960  -16.0860   20.0530 N   0  0  0  0  0  0  0  0  0  0  0  0
  -25.4440  -13.8510   20.4530 C   0  0  0  0  0  0  0  0  0  0  0  0
  -24.4040  -13.0690   20.8720 C   0  0  0  0  0  0  0  0  0  0  0  0
  -24.8500  -11.7180   20.7490 C   0  0  0  0  0  0  0  0  0  0  0  0
  -26.4590  -12.9760   20.1010 N   0  0  0  0  0  0  0  0  0  0  0  0
  -26.1140  -11.6850   20.3410 N   0  0  0  0  0  0  0  0  0  0  0  0
  -24.1260  -10.4540   20.9390 C   0  0  0  0  0  0  0  0  0  0  0  0
  -24.5650   -9.4840   21.8670 C   0  0  0  0  0  3  0  0  0  0  0  0
  -23.8410   -8.2850   22.0460 C   0  0  0  0  0  3  0  0  0  0  0  0
  -22.6630   -8.0490   21.2970 C   0  0  0  0  0  0  0  0  0  0  0  0
  -22.2440   -9.0080   20.3590 C   0  0  0  0  0  3  0  0  0  0  0  0
  -22.9690  -10.1980   20.1780 C   0  0  0  0  0  3  0  0  0  0  0  0
  -21.9090   -6.9040   21.3870 O   0  0  0  0  0  0  0  0  0  0  0  0
  -21.7850   -6.2150   22.5660 C   0  0  0  0  0  0  0  0  0  0  0  0
  -21.2560   -6.8170   23.7290 C   0  0  0  0  0  3  0  0  0  0  0  0
  -21.0810   -6.0520   24.9010 C   0  0  0  0  0  3  0  0  0  0  0  0
  -21.4220   -4.6860   24.9070 C   0  0  0  0  0  0  0  0  0  0  0  0
  -21.9430   -4.0830   23.7490 C   0  0  0  0  0  3  0  0  0  0  0  0
  -22.1200   -4.8450   22.5810 C   0  0  0  0  0  0  0  0  0  0  0  0
  -22.6020   -4.2550   21.4610 F   0  0  0  0  0  0  0  0  0  0  0  0
  -21.2470   -3.9490   26.0300 F   0  0  0  0  0  0  0  0  0  0  0  0
  -23.0360  -13.5460   21.2680 C   0  0  0  0  0  0  0  0  0  0  0  0
  -22.3730  -12.8260   22.1660 N   0  0  0  0  0  0  0  0  0  0  0  0
  -22.5690  -14.5910   20.8190 O   0  0  0  0  0  0  0  0  0  0  0  0
  -22.7650  -11.9810   22.5530 H   0  0  0  0  0  0  0  0  0  0  0  0
  -21.4570  -13.1260   22.4700 H   0  0  0  0  0  0  0  0  0  0  0  0
  -25.6010  -15.2270   20.3140 N   0  0  0  0  0  0  0  0  0  0  0  0
  -24.8450  -15.8760   20.5040 H   0  0  0  0  0  0  0  0  0  0  0  0
  -26.4130  -15.6730   19.9110 H   0  0  0  0  0  0  0  0  0  0  0  0
  -27.8950  -24.8290   19.9910 C   0  0  0  0  0  2  0  0  0  0  0  0
  -28.2550  -26.2840   20.2690 O   0  0  0  0  0  0  0  0  0  0  0  0
  -24.6660  -31.8730   23.3210 C   0  0  0  0  0  0  0  0  0  0  0  0
  -27.2020  -27.2480   20.2040 C   0  0  0  0  0  0  0  0  0  0  0  0
  -23.4480  -30.5130   21.6670 C   0  0  0  0  0  3  0  0  0  0  0  0
  -24.8790  -28.9670   20.2130 C   0  0  0  0  0  0  0  0  0  0  0  0
  -25.9990  -30.7790   21.4940 C   0  0  0  0  0  2  0  0  0  0  0  0
  -26.0600  -29.4040   20.8220 C   0  0  0  0  0  0  0  0  0  0  0  0
  -27.2260  -28.5600   20.8080 C   0  0  0  0  0  3  0  0  0  0  0  0
  -25.9930  -26.9060   19.5500 C   0  0  0  0  0  3  0  0  0  0  0  0
  -24.8520  -27.7280   19.5640 C   0  0  0  0  0  3  0  0  0  0  0  0
  -23.6560  -29.8620   20.2760 C   0  0  0  0  0  2  0  0  0  0  0  0
  -24.7240  -31.0730   22.2170 N   0  0  0  0  0  0  0  0  0  0  0  0
  -23.5840  -32.1590   23.8580 O   0  0  0  0  0  0  0  0  0  0  0  0
  -22.7700  -29.4910   22.6130 C   0  0  0  0  0  0  0  0  0  0  0  0
  -21.4450  -29.3100   22.4670 N   0  0  0  0  0  0  0  0  0  0  0  0
  -23.4370  -28.8630   23.4400 O   0  0  0  0  0  0  0  0  0  0  0  0
  -20.9660  -29.8690   21.7740 H   0  0  0  0  0  0  0  0  0  0  0  0
  -18.0660  -28.0870   22.9080 C   0  0  0  0  0  0  0  0  0  0  0  0
  -20.6170  -28.3680   23.2240 C   0  0  0  0  0  3  0  0  0  0  0  0
  -20.7410  -26.9360   22.6540 C   0  0  0  0  0  2  0  0  0  0  0  0
  -19.6600  -26.6020   21.6210 C   0  0  0  0  0  2  0  0  0  0  0  0
  -18.2660  -26.7380   22.2380 C   0  0  0  0  0  2  0  0  0  0  0  0
  -19.1700  -28.8580   23.3560 C   0  0  0  0  0  0  0  0  0  0  0  0
  -18.9290  -30.1200   23.9430 C   0  0  0  0  0  3  0  0  0  0  0  0
  -17.6170  -30.6090   24.0850 C   0  0  0  0  0  3  0  0  0  0  0  0
  -16.5270  -29.8350   23.6520 C   0  0  0  0  0  3  0  0  0  0  0  0
  -16.7530  -28.5750   23.0680 C   0  0  0  0  0  3  0  0  0  0  0  0
  -25.9530  -32.4870   23.9520 C   0  0  0  0  0  3  0  0  0  0  0  0
  -25.6590  -33.8880   24.2880 N   0  0  0  0  0  0  0  0  0  0  0  0
  -25.9740  -34.9390   23.5200 C   0  0  0  0  0  0  0  0  0  0  0  0
  -26.6110  -34.8320   22.4690 O   0  0  0  0  0  0  0  0  0  0  0  0
  -25.0890  -34.0450   25.1060 H   0  0  0  0  0  0  0  0  0  0  0  0
  -24.2290  -36.7320   23.2420 C   0  0  0  0  0  1  0  0  0  0  0  0
  -25.5100  -36.3310   23.9910 C   0  0  0  0  0  3  0  0  0  0  0  0
  -27.6800  -37.2270   24.7120 C   0  0  0  0  0  1  0  0  0  0  0  0
  -26.5360  -37.3840   23.8190 N   0  0  0  0  0  0  0  0  0  0  0  0
  -26.1360  -38.3060   23.9730 H   0  0  0  0  0  0  0  0  0  0  0  0
  -26.4490  -31.7040   25.2290 C   0  0  1  0  0  0  0  0  0  0  0  0
  -25.3470  -31.4770   26.2890 C   0  0  0  0  0  1  0  0  0  0  0  0
  -27.0180  -30.3210   24.8390 C   0  0  0  0  0  1  0  0  0  0  0  0
  -27.6060  -32.4820   25.9010 C   0  0  0  0  0  1  0  0  0  0  0  0
  1  2  1  0
  1  3  2  0
  2  5  2  0
  3  6  1  0
  5  6  1  0
  6  4  1  0
  7  3  1  0
  7  8  1  0
  9 21  1  0
 10 15  1  0
 11 12  1  0
 11 10  1  0
 13 12  1  0
 13 25  1  0
 13 14  1  0
 15  9  1  0
 15 14  1  0
 16  9  2  0
 18 17  1  0
 19 20  1  0
 19 21  1  0
 20  7  1  0
 20 17  1  0
 21 18  1  0
 22 23  2  0
 23 42  1  0
 24 23  1  0
 24 27  1  0
 25 26  1  0
 25 22  1  0
 26 24  2  0
 27 28  1  0
 28 29  2  0
 30 33  1  0
 30 29  1  0
 31 30  2  0
 32 31  1  0
 32 27  2  0
 33 34  1  0
 34 39  2  0
 34 35  1  0
 35 36  2  0
 36 37  1  0
 37 41  1  0
 38 37  2  0
 39 38  1  0
 40 39  1  0
 42 43  1  0
 43 46  1  0
 43 45  1  0
 44 42  2  0
 47 22  1  0
 47 48  1  0
 49 47  1  0
 50  2  1  0
 50 51  1  0
 52 63  2  0
 53 51  1  0
 53 58  1  0
 54 62  1  0
 54 64  1  0
 55 61  1  0
 55 57  1  0
 56 62  1  0
 57 56  1  0
 58 57  2  0
 59 60  1  0
 59 53  2  0
 60 55  2  0
 61 54  1  0
 62 52  1  0
 64 66  2  0
 65 64  1  0
 67 65  1  0
 68 77  2  0
 68 73  1  0
 69 65  1  0
 69 73  1  0
 70 69  1  0
 71 72  1  0
 71 70  1  0
 72 68  1  0
 73 74  2  0
 74 75  1  0
 76 75  2  0
 77 76  1  0
 78 52  1  0
 78 79  1  0
 78 88  1  0
 79 82  1  0
 80 84  1  0
 80 79  1  0
 81 80  2  0
 84 83  1  0
 86 87  1  0
 86 84  1  0
 86 85  1  0
 88 91  1  1
 88 89  1  0
 90 88  1  0
M  ISO  4   9 100  21 100  50 101  51 101
M  END
>  <TORSDO>  (35) 
F 18

>  <SCORE>  (35) 
-13.976

>  <name>  (35) 
34

>  <ligand_id>  (35) 
34

>  <original_smiles>  (35) 
[H]c1c([H])c([H])c2c(c1[H])C([H])([H])C([H])([H])C([H])([H])C2([H])N([H])C(=O)C1([H])N(C(=O)C([H])(N([H])C(=O)C([H])(N([H])C([H])([H])[H])C([H])([H])[H])C(C([H])([H])[H])(C([H])([H])[H])C([H])([H])[H])C([H])([H])c2c([H])c(OC([H])([H])c3nn(C([H])([H])[H])c(N([H])C4([H])C([H])([H])N(C(=O)N5C([H])([H])C([H])([H])C([H])([H])C([H])(n6nc(-c7c([H])c([H])c(Oc8c([H])c([H])c(F)c([H])c8F)c([H])c7[H])c(C(=O)N([H])[H])c6N([H])[H])C5([H])[H])C([H])([H])C4([H])[H])c3[H])c([H])c([H])c2C1([H])[H]

>  <smiles>  (35) 
[H]c1c([H])c([H])c2c(c1[H])C([H])([H])C([H])([H])C([H])([H])C2([H])N([H])C(=O)C1([H])N(C(=O)C([H])(N([H])C(=O)C([H])(N([H])C([H])([H])[H])C([H])([H])[H])C(C([H])([H])[H])(C([H])([H])[H])C([H])([H])[H])C([H])([H])c2c([H])c(OC([H])([H])c3nn(C([H])([H])[H])c(N([H])C4([H])C([H])([H])N(C(=O)N5C([H])([H])C([H])([H])C([H])([H])C([H])(n6nc(-c7c([H])c([H])c(Oc8c([H])c([H])c(F)c([H])c8F)c([H])c7[H])c(C(=O)N([H])[H])c6N([H])[H])C5([H])[H])C([H])([H])C4([H])[H])c3[H])c([H])c([H])c2C1([H])[H]

$$$$
35:0:0
     RDKit          3D

 95104  0  0  1  0  0  0  0  0999 V2000
  -30.0120  -21.5390   18.5310 C   0  0  0  0  0  0  0  0  0  0  0  0
  -30.2990  -20.2530   18.0640 C   0  0  0  0  0  0  0  0  0  0  0  0
  -29.3490  -21.6990   19.7860 C   0  0  0  0  0  0  0  0  0  0  0  0
  -29.6380  -19.1720   19.9630 C   0  0  0  0  0  0  0  0  0  0  0  0
  -31.0360  -20.2770   16.7560 C   0  0  0  0  0  2  0  0  0  0  0  0
  -30.6880  -22.5520   17.5800 C   0  0  2  0  0  0  0  0  0  0  0  0
  -31.9790  -23.0910   18.2320 C   0  0  0  0  0  1  0  0  0  0  0  0
  -29.8160  -23.7670   17.1850 C   0  0  0  0  0  1  0  0  0  0  0  0
  -30.4990  -21.9990   15.0780 C   0  0  0  0  0  1  0  0  0  0  0  0
  -30.1020  -19.0960   18.7240 N   0  0  0  0  0  0  0  0  0  0  0  0
  -29.2420  -20.4370   20.4820 N   0  0  0  0  0  0  0  0  0  0  0  0
  -31.1140  -21.7140   16.4000 N   0  0  2  0  0  4  0  0  0  0  0  0
  -32.1000  -21.8940   16.2680 H   0  0  0  0  0  0  0  0  0  0  0  0
  -29.0840  -23.2270   20.4540 C   0  0  0  0  0  2  0  0  0  0  0  0
  -28.0540  -24.5360   20.0090 C   0  0  0  0  0  2  0  0  0  0  0  0
  -28.2520  -26.0910   20.2630 O   0  0  0  0  0  0  0  0  0  0  0  0
  -24.6410  -31.8570   23.2330 C   0  0  0  0  0  0  0  0  0  0  0  0
  -27.1960  -27.0900   20.2000 C   0  0  0  0  0  0  0  0  0  0  0  0
  -23.4310  -30.4600   21.6040 C   0  0  0  0  0  3  0  0  0  0  0  0
  -24.8690  -28.8620   20.1810 C   0  0  0  0  0  0  0  0  0  0  0  0
  -25.9880  -30.7040   21.4300 C   0  0  0  0  0  2  0  0  0  0  0  0
  -26.0540  -29.3040   20.7820 C   0  0  0  0  0  0  0  0  0  0  0  0
  -27.2140  -28.4330   20.7730 C   0  0  0  0  0  3  0  0  0  0  0  0
  -25.9800  -26.7590   19.5630 C   0  0  0  0  0  3  0  0  0  0  0  0
  -24.8460  -27.6040   19.5600 C   0  0  0  0  0  3  0  0  0  0  0  0
  -23.6450  -29.7690   20.2290 C   0  0  0  0  0  2  0  0  0  0  0  0
  -24.7070  -31.0300   22.1420 N   0  0  0  0  0  0  0  0  0  0  0  0
  -23.5570  -32.1490   23.7630 O   0  0  0  0  0  0  0  0  0  0  0  0
  -22.7510  -29.4620   22.5760 C   0  0  0  0  0  0  0  0  0  0  0  0
  -21.4220  -29.2950   22.4540 N   0  0  0  0  0  0  0  0  0  0  0  0
  -23.4230  -28.8400   23.4030 O   0  0  0  0  0  0  0  0  0  0  0  0
  -20.9360  -29.8440   21.7590 H   0  0  0  0  0  0  0  0  0  0  0  0
  -18.0430  -28.0940   22.9700 C   0  0  0  0  0  0  0  0  0  0  0  0
  -20.6010  -28.3640   23.2340 C   0  0  0  0  0  3  0  0  0  0  0  0
  -20.7050  -26.9270   22.6710 C   0  0  0  0  0  2  0  0  0  0  0  0
  -19.6030  -26.5940   21.6600 C   0  0  0  0  0  2  0  0  0  0  0  0
  -18.2210  -26.7410   22.3030 C   0  0  0  0  0  2  0  0  0  0  0  0
  -19.1590  -28.8630   23.3920 C   0  0  0  0  0  0  0  0  0  0  0  0
  -18.9370  -30.1280   23.9790 C   0  0  0  0  0  3  0  0  0  0  0  0
  -17.6300  -30.6250   24.1460 C   0  0  0  0  0  3  0  0  0  0  0  0
  -16.5280  -29.8550   23.7350 C   0  0  0  0  0  3  0  0  0  0  0  0
  -16.7340  -28.5910   23.1550 C   0  0  0  0  0  3  0  0  0  0  0  0
  -25.9230  -32.4930   23.8530 C   0  0  0  0  0  3  0  0  0  0  0  0
  -26.4370  -31.7260   25.1330 C   0  0  1  0  0  0  0  0  0  0  0  0
  -25.3440  -31.5000   26.2050 C   0  0  0  0  0  1  0  0  0  0  0  0
  -27.0150  -30.3450   24.7500 C   0  0  0  0  0  1  0  0  0  0  0  0
  -27.5940  -32.5180   25.7870 C   0  0  0  0  0  1  0  0  0  0  0  0
  -25.6120  -33.8930   24.1890 N   0  0  0  0  0  0  0  0  0  0  0  0
  -25.9360  -34.9520   23.4370 C   0  0  0  0  0  0  0  0  0  0  0  0
  -26.5940  -34.8530   22.3960 O   0  0  0  0  0  0  0  0  0  0  0  0
  -25.0300  -34.0420   25.0010 H   0  0  0  0  0  0  0  0  0  0  0  0
  -24.2040  -36.7490   23.1190 C   0  0  0  0  0  1  0  0  0  0  0  0
  -25.4570  -36.3400   23.9080 C   0  0  0  0  0  3  0  0  0  0  0  0
  -27.6070  -37.2210   24.7080 C   0  0  0  0  0  1  0  0  0  0  0  0
  -26.4890  -37.3940   23.7840 N   0  0  0  0  0  0  0  0  0  0  0  0
  -26.0860  -38.3130   23.9420 H   0  0  0  0  0  0  0  0  0  0  0  0
  -29.8690  -17.7520   20.8030 C   0  0  0  0  0  2  0  0  0  0  0  0
  -30.4710  -15.0370   20.3210 C   0  0  0  0  0  0  0  0  0  0  0  0
  -30.3850  -12.6680   19.3760 C   0  0  0  0  0  2  0  0  0  0  0  0
  -29.4440  -12.5650   18.1530 C   0  0  0  0  0  2  0  0  0  0  0  0
  -27.9850  -12.3430   18.5980 C   0  0  0  0  0  2  0  0  0  0  0  0
  -27.5680  -13.2740   19.7660 C   0  0  0  0  0  3  0  0  0  0  0  0
  -28.6320  -13.3250   20.8810 C   0  0  0  0  0  2  0  0  0  0  0  0
  -29.8800  -13.7690   20.2450 N   0  0  0  0  0  0  0  0  0  0  0  0
  -31.6950  -15.0850   20.1630 O   0  0  0  0  0  0  0  0  0  0  0  0
  -29.6730  -16.2250   20.3660 N   0  0  0  0  0  0  0  0  0  0  0  0
  -28.6960  -16.0180   20.2430 H   0  0  0  0  0  0  0  0  0  0  0  0
  -25.1870  -13.8400   20.5120 C   0  0  0  0  0  0  0  0  0  0  0  0
  -24.1270  -13.0600   20.8850 C   0  0  0  0  0  0  0  0  0  0  0  0
  -24.6000  -11.7120   20.8620 C   0  0  0  0  0  0  0  0  0  0  0  0
  -26.2360  -12.9680   20.2760 N   0  0  0  0  0  0  0  0  0  0  0  0
  -25.8930  -11.6820   20.5540 N   0  0  0  0  0  0  0  0  0  0  0  0
  -23.8800  -10.4460   21.0560 C   0  0  0  0  0  0  0  0  0  0  0  0
  -24.3230   -9.4780   21.9830 C   0  0  0  0  0  3  0  0  0  0  0  0
  -23.6010   -8.2790   22.1650 C   0  0  0  0  0  3  0  0  0  0  0  0
  -22.4210   -8.0380   21.4200 C   0  0  0  0  0  0  0  0  0  0  0  0
  -21.9960   -8.9970   20.4820 C   0  0  0  0  0  3  0  0  0  0  0  0
  -22.7200  -10.1870   20.2990 C   0  0  0  0  0  3  0  0  0  0  0  0
  -21.6710   -6.8910   21.5140 O   0  0  0  0  0  0  0  0  0  0  0  0
  -21.6470   -6.1370   22.6600 C   0  0  0  0  0  0  0  0  0  0  0  0
  -21.2520   -6.6810   23.9020 C   0  0  0  0  0  3  0  0  0  0  0  0
  -21.1720   -5.8530   25.0380 C   0  0  0  0  0  3  0  0  0  0  0  0
  -21.4800   -4.4840   24.9380 C   0  0  0  0  0  0  0  0  0  0  0  0
  -21.8710   -3.9400   23.7020 C   0  0  0  0  0  3  0  0  0  0  0  0
  -21.9500   -4.7640   22.5650 C   0  0  0  0  0  0  0  0  0  0  0  0
  -22.3080   -4.2310   21.3720 F   0  0  0  0  0  0  0  0  0  0  0  0
  -21.3980   -3.6870   26.0290 F   0  0  0  0  0  0  0  0  0  0  0  0
  -22.7260  -13.5310   21.1490 C   0  0  0  0  0  0  0  0  0  0  0  0
  -21.9990  -12.8360   22.0160 N   0  0  0  0  0  0  0  0  0  0  0  0
  -22.2840  -14.5530   20.6250 O   0  0  0  0  0  0  0  0  0  0  0  0
  -22.3660  -12.0090   22.4630 H   0  0  0  0  0  0  0  0  0  0  0  0
  -21.0610  -13.1320   22.2390 H   0  0  0  0  0  0  0  0  0  0  0  0
  -25.3380  -15.2110   20.3270 N   0  0  0  0  0  0  0  0  0  0  0  0
  -24.5550  -15.8500   20.4140 H   0  0  0  0  0  0  0  0  0  0  0  0
  -26.1770  -15.6580   19.9820 H   0  0  0  0  0  0  0  0  0  0  0  0
  1  3  1  0
  2  1  2  0
  2 10  1  0
  3 14  1  0
  3 11  2  0
  4 11  1  0
  4 57  1  0
  5  2  1  0
  6  7  1  1
  6  1  1  0
  8  6  1  0
  9 12  1  0
 10  4  2  0
 12  5  1  0
 12  6  1  0
 12 13  1  6
 15 16  1  0
 15 14  1  0
 17 28  2  0
 18 16  1  0
 18 23  1  0
 19 27  1  0
 19 29  1  0
 20 26  1  0
 20 22  1  0
 21 27  1  0
 22 21  1  0
 23 22  2  0
 24 18  2  0
 25 24  1  0
 25 20  2  0
 26 19  1  0
 27 17  1  0
 29 31  2  0
 30 29  1  0
 32 30  1  0
 33 42  2  0
 33 38  1  0
 34 30  1  0
 34 38  1  0
 35 34  1  0
 36 37  1  0
 36 35  1  0
 37 33  1  0
 38 39  2  0
 39 40  1  0
 41 40  2  0
 42 41  1  0
 43 17  1  0
 43 48  1  0
 43 44  1  0
 44 47  1  1
 44 45  1  0
 46 44  1  0
 48 51  1  0
 49 53  1  0
 49 48  1  0
 50 49  2  0
 53 52  1  0
 55 53  1  0
 55 56  1  0
 55 54  1  0
 58 66  1  0
 59 64  1  0
 60 61  1  0
 60 59  1  0
 62 61  1  0
 62 71  1  0
 62 63  1  0
 64 58  1  0
 64 63  1  0
 65 58  2  0
 66 57  1  0
 67 66  1  0
 68 69  2  0
 69 88  1  0
 70 69  1  0
 70 73  1  0
 71 68  1  0
 71 72  1  0
 72 70  2  0
 73 74  1  0
 74 75  2  0
 76 79  1  0
 76 75  1  0
 77 76  2  0
 78 77  1  0
 78 73  2  0
 79 80  1  0
 80 81  1  0
 81 82  2  0
 83 82  1  0
 83 87  1  0
 84 83  2  0
 85 80  2  0
 85 84  1  0
 86 85  1  0
 88 89  1  0
 89 92  1  0
 89 91  1  0
 90 88  2  0
 93 94  1  0
 93 68  1  0
 95 93  1  0
M  ISO  4  15 101  16 101  58 100  66 100
M  END
>  <TORSDO>  (36) 
F 19

>  <SCORE>  (36) 
-15.033

>  <name>  (36) 
35

>  <ligand_id>  (36) 
35

>  <original_smiles>  (36) 
[H]c1c([H])c([H])c2c(c1[H])C([H])([H])C([H])([H])C([H])([H])C2([H])N([H])C(=O)C1([H])N(C(=O)C([H])(N([H])C(=O)C([H])(N([H])C([H])([H])[H])C([H])([H])[H])C(C([H])([H])[H])(C([H])([H])[H])C([H])([H])[H])C([H])([H])c2c([H])c(OC([H])([H])C([H])([H])c3nc(C([H])([H])N([H])C(=O)N4C([H])([H])C([H])([H])C([H])([H])C([H])(n5nc(-c6c([H])c([H])c(Oc7c([H])c([H])c(F)c([H])c7F)c([H])c6[H])c(C(=O)N([H])[H])c5N([H])[H])C4([H])[H])nc4c3C(C([H])([H])[H])(C([H])([H])[H])[N+]([H])(C([H])([H])[H])C4([H])[H])c([H])c([H])c2C1([H])[H]

>  <smiles>  (36) 
[H]c1c([H])c([H])c2c(c1[H])C([H])([H])C([H])([H])C([H])([H])C2([H])N([H])C(=O)C1([H])N(C(=O)C([H])(N([H])C(=O)C([H])(N([H])C([H])([H])[H])C([H])([H])[H])C(C([H])([H])[H])(C([H])([H])[H])C([H])([H])[H])C([H])([H])c2c([H])c(OC([H])([H])C([H])([H])c3nc(C([H])([H])N([H])C(=O)N4C([H])([H])C([H])([H])C([H])([H])C([H])(n5nc(-c6c([H])c([H])c(Oc7c([H])c([H])c(F)c([H])c7F)c([H])c6[H])c(C(=O)N([H])[H])c5N([H])[H])C4([H])[H])nc4c3C(C([H])([H])[H])(C([H])([H])[H])[N+]([H])(C([H])([H])[H])C4([H])[H])c([H])c([H])c2C1([H])[H]

$$$$
36:0:0
     RDKit          3D

 94104  0  0  1  0  0  0  0  0999 V2000
  -27.8950  -22.4790   19.9600 C   0  0  0  0  0  3  0  0  0  0  0  0
  -30.5010  -22.0190   20.3820 C   0  0  0  0  0  0  0  0  0  0  0  0
  -28.7420  -23.5820   20.2950 C   0  0  0  0  0  0  0  0  0  0  0  0
  -29.6430  -20.9150   20.0520 C   0  0  0  0  0  0  0  0  0  0  0  0
  -28.3270  -21.1760   19.8340 N   0  0  0  0  0  0  0  0  0  0  0  0
  -30.0640  -23.3180   20.4910 N   0  0  0  0  0  0  0  0  0  0  0  0
  -30.1670  -19.5800   19.9240 N   0  0  0  0  0  0  0  0  0  0  0  0
  -31.1710  -19.5290   20.0650 H   0  0  0  0  0  0  0  0  0  0  0  0
  -30.6480  -14.5580   19.6650 C   0  0  0  0  0  0  0  0  0  0  0  0
  -30.2570  -12.3210   18.6280 C   0  0  0  0  0  2  0  0  0  0  0  0
  -29.1740  -12.4340   17.5340 C   0  0  0  0  0  2  0  0  0  0  0  0
  -27.7660  -12.2740   18.1420 C   0  0  0  0  0  2  0  0  0  0  0  0
  -27.5660  -13.1330   19.4190 C   0  0  0  0  0  3  0  0  0  0  0  0
  -28.7570  -12.9800   20.3890 C   0  0  0  0  0  2  0  0  0  0  0  0
  -29.9670  -13.3580   19.6470 N   0  0  0  0  0  0  0  0  0  0  0  0
  -31.7610  -14.6190   19.1330 O   0  0  0  0  0  0  0  0  0  0  0  0
  -29.2430  -17.6420   21.2820 C   0  0  0  0  0  2  0  0  0  0  0  0
  -29.1760  -16.1010   21.0890 C   0  0  0  0  0  2  0  0  0  0  0  0
  -30.3080  -17.0610   19.2560 C   0  0  0  0  0  2  0  0  0  0  0  0
  -29.4840  -18.2460   19.8970 C   0  0  0  0  0  3  0  0  0  0  0  0
  -29.9630  -15.7480   19.9000 N   0  0  0  0  0  0  0  0  0  0  0  0
  -25.2950  -13.7320   20.4520 C   0  0  0  0  0  0  0  0  0  0  0  0
  -24.2740  -12.9610   20.9360 C   0  0  0  0  0  0  0  0  0  0  0  0
  -24.7100  -11.6050   20.8110 C   0  0  0  0  0  0  0  0  0  0  0  0
  -26.2900  -12.8490   20.0670 N   0  0  0  0  0  0  0  0  0  0  0  0
  -25.9500  -11.5620   20.3400 N   0  0  0  0  0  0  0  0  0  0  0  0
  -23.9960  -10.3470   21.0570 C   0  0  0  0  0  0  0  0  0  0  0  0
  -24.4780   -9.3920   21.9780 C   0  0  0  0  0  3  0  0  0  0  0  0
  -23.7610   -8.1980   22.2130 C   0  0  0  0  0  3  0  0  0  0  0  0
  -22.5490   -7.9510   21.5260 C   0  0  0  0  0  0  0  0  0  0  0  0
  -22.0860   -8.8950   20.5930 C   0  0  0  0  0  3  0  0  0  0  0  0
  -22.8020  -10.0790   20.3570 C   0  0  0  0  0  3  0  0  0  0  0  0
  -21.7990   -6.8080   21.6710 O   0  0  0  0  0  0  0  0  0  0  0  0
  -21.7590   -6.1200   22.8570 C   0  0  0  0  0  0  0  0  0  0  0  0
  -21.3210   -6.7250   24.0550 C   0  0  0  0  0  3  0  0  0  0  0  0
  -21.2280   -5.9620   25.2370 C   0  0  0  0  0  3  0  0  0  0  0  0
  -21.5650   -4.5950   25.2200 C   0  0  0  0  0  0  0  0  0  0  0  0
  -21.9960   -3.9900   24.0260 C   0  0  0  0  0  3  0  0  0  0  0  0
  -22.0900   -4.7500   22.8480 C   0  0  0  0  0  0  0  0  0  0  0  0
  -22.4860   -4.1570   21.6960 F   0  0  0  0  0  0  0  0  0  0  0  0
  -21.4690   -3.8590   26.3520 F   0  0  0  0  0  0  0  0  0  0  0  0
  -22.9310  -13.4450   21.3970 C   0  0  0  0  0  0  0  0  0  0  0  0
  -22.3130  -12.7390   22.3360 N   0  0  0  0  0  0  0  0  0  0  0  0
  -22.4420  -14.4870   20.9580 O   0  0  0  0  0  0  0  0  0  0  0  0
  -22.7240  -11.8950   22.7100 H   0  0  0  0  0  0  0  0  0  0  0  0
  -21.4180  -13.0450   22.6890 H   0  0  0  0  0  0  0  0  0  0  0  0
  -25.4500  -15.1050   20.2860 N   0  0  0  0  0  0  0  0  0  0  0  0
  -24.7040  -15.7580   20.4950 H   0  0  0  0  0  0  0  0  0  0  0  0
  -26.2470  -15.5430   19.8420 H   0  0  0  0  0  0  0  0  0  0  0  0
  -32.4670  -20.8300   21.6540 C   0  0  0  0  0  2  0  0  0  0  0  0
  -32.6070  -22.3010   21.9360 C   0  0  0  0  0  2  0  0  0  0  0  0
  -31.9720  -21.8420   20.6370 C   0  0  0  0  0  3  0  0  0  0  0  0
  -28.1490  -24.9720   20.7770 C   0  0  0  0  0  2  0  0  0  0  0  0
  -28.4690  -26.2900   20.1560 O   0  0  0  0  0  0  0  0  0  0  0  0
  -24.5470  -31.6060   23.1210 C   0  0  0  0  0  0  0  0  0  0  0  0
  -27.3730  -27.1670   20.0820 C   0  0  0  0  0  0  0  0  0  0  0  0
  -23.4310  -30.1930   21.4320 C   0  0  0  0  0  3  0  0  0  0  0  0
  -24.9690  -28.7150   20.0180 C   0  0  0  0  0  0  0  0  0  0  0  0
  -25.9650  -30.5930   21.3220 C   0  0  0  0  0  2  0  0  0  0  0  0
  -26.1060  -29.2270   20.6570 C   0  0  0  0  0  0  0  0  0  0  0  0
  -27.3160  -28.4650   20.6800 C   0  0  0  0  0  3  0  0  0  0  0  0
  -26.2200  -26.7210   19.3990 C   0  0  0  0  0  3  0  0  0  0  0  0
  -25.0290  -27.4680   19.3770 C   0  0  0  0  0  3  0  0  0  0  0  0
  -23.7030  -29.5460   20.0480 C   0  0  0  0  0  2  0  0  0  0  0  0
  -24.6640  -30.8140   22.0150 N   0  0  0  0  0  0  0  0  0  0  0  0
  -23.4420  -31.8400   23.6320 O   0  0  0  0  0  0  0  0  0  0  0  0
  -22.7760  -29.1410   22.3600 C   0  0  0  0  0  0  0  0  0  0  0  0
  -21.4540  -28.9480   22.2190 N   0  0  0  0  0  0  0  0  0  0  0  0
  -23.4580  -28.5050   23.1680 O   0  0  0  0  0  0  0  0  0  0  0  0
  -20.9620  -29.5140   21.5410 H   0  0  0  0  0  0  0  0  0  0  0  0
  -18.0860  -27.7110   22.6840 C   0  0  0  0  0  0  0  0  0  0  0  0
  -20.6420  -27.9800   22.9600 C   0  0  0  0  0  3  0  0  0  0  0  0
  -20.7540  -26.5680   22.3400 C   0  0  0  0  0  2  0  0  0  0  0  0
  -19.6550  -26.2700   21.3170 C   0  0  0  0  0  2  0  0  0  0  0  0
  -18.2730  -26.3850   21.9640 C   0  0  0  0  0  2  0  0  0  0  0  0
  -19.1990  -28.4660   23.1370 C   0  0  0  0  0  0  0  0  0  0  0  0
  -18.9700  -29.7080   23.7700 C   0  0  0  0  0  3  0  0  0  0  0  0
  -17.6620  -30.1940   23.9520 C   0  0  0  0  0  3  0  0  0  0  0  0
  -16.5630  -29.4330   23.5150 C   0  0  0  0  0  3  0  0  0  0  0  0
  -16.7770  -28.1940   22.8870 C   0  0  0  0  0  3  0  0  0  0  0  0
  -25.7940  -32.2690   23.7850 C   0  0  0  0  0  3  0  0  0  0  0  0
  -25.4270  -33.6480   24.1380 N   0  0  0  0  0  0  0  0  0  0  0  0
  -25.7340  -34.7290   23.4080 C   0  0  0  0  0  0  0  0  0  0  0  0
  -26.4260  -34.6710   22.3860 O   0  0  0  0  0  0  0  0  0  0  0  0
  -24.8160  -33.7650   24.9320 H   0  0  0  0  0  0  0  0  0  0  0  0
  -23.9530  -36.4680   23.0540 C   0  0  0  0  0  1  0  0  0  0  0  0
  -25.1890  -36.0880   23.8850 C   0  0  0  0  0  3  0  0  0  0  0  0
  -27.2720  -37.0290   24.7850 C   0  0  0  0  0  1  0  0  0  0  0  0
  -26.1870  -37.1790   23.8190 N   0  0  0  0  0  0  0  0  0  0  0  0
  -25.7450  -38.0800   23.9760 H   0  0  0  0  0  0  0  0  0  0  0  0
  -26.3080  -31.4890   25.0570 C   0  0  1  0  0  0  0  0  0  0  0  0
  -25.2020  -31.1930   26.0960 C   0  0  0  0  0  1  0  0  0  0  0  0
  -26.9460  -30.1390   24.6520 C   0  0  0  0  0  1  0  0  0  0  0  0
  -27.4180  -32.3070   25.7580 C   0  0  0  0  0  1  0  0  0  0  0  0
  1  3  1  0
  2  6  1  0
  2 52  1  0
  3  6  2  0
  3 53  1  0
  4  2  2  0
  5  1  2  0
  5  4  1  0
  7  4  1  0
  7  8  1  0
  9 21  1  0
 10 15  1  0
 11 12  1  0
 11 10  1  0
 13 12  1  0
 13 25  1  0
 13 14  1  0
 15  9  1  0
 15 14  1  0
 16  9  2  0
 18 17  1  0
 19 20  1  0
 19 21  1  0
 20  7  1  0
 20 17  1  0
 21 18  1  0
 22 23  2  0
 23 42  1  0
 24 23  1  0
 24 27  1  0
 25 26  1  0
 25 22  1  0
 26 24  2  0
 27 28  1  0
 28 29  2  0
 30 33  1  0
 30 29  1  0
 31 30  2  0
 32 31  1  0
 32 27  2  0
 33 34  1  0
 34 35  1  0
 35 36  2  0
 37 36  1  0
 37 41  1  0
 38 37  2  0
 39 34  2  0
 39 38  1  0
 40 39  1  0
 42 43  1  0
 43 46  1  0
 43 45  1  0
 44 42  2  0
 47 22  1  0
 47 48  1  0
 49 47  1  0
 50 51  1  0
 52 50  1  0
 52 51  1  0
 54 53  1  0
 55 66  2  0
 56 54  1  0
 56 61  1  0
 57 65  1  0
 57 67  1  0
 58 64  1  0
 58 60  1  0
 59 65  1  0
 60 61  2  0
 60 59  1  0
 62 56  2  0
 63 62  1  0
 63 58  2  0
 64 57  1  0
 65 55  1  0
 67 69  2  0
 68 67  1  0
 70 68  1  0
 71 80  2  0
 71 76  1  0
 72 68  1  0
 72 76  1  0
 73 72  1  0
 74 75  1  0
 74 73  1  0
 75 71  1  0
 76 77  2  0
 77 78  1  0
 79 78  2  0
 80 79  1  0
 81 55  1  0
 81 82  1  0
 81 91  1  0
 82 85  1  0
 83 87  1  0
 83 82  1  0
 84 83  2  0
 87 86  1  0
 89 87  1  0
 89 90  1  0
 89 88  1  0
 91 94  1  1
 91 92  1  0
 93 91  1  0
M  ISO  4   9 100  21 100  53 101  54 101
M  END
>  <TORSDO>  (37) 
F 18

>  <SCORE>  (37) 
-12.681

>  <name>  (37) 
36

>  <ligand_id>  (37) 
36

>  <original_smiles>  (37) 
[H]c1nc(N([H])C2([H])C([H])([H])N(C(=O)N3C([H])([H])C([H])([H])C([H])([H])C([H])(n4nc(-c5c([H])c([H])c(Oc6c([H])c([H])c(F)c([H])c6F)c([H])c5[H])c(C(=O)N([H])[H])c4N([H])[H])C3([H])[H])C([H])([H])C2([H])[H])c(C2([H])C([H])([H])C2([H])[H])nc1C([H])([H])Oc1c([H])c([H])c2c(c1[H])C([H])([H])N(C(=O)C([H])(N([H])C(=O)C([H])(N([H])C([H])([H])[H])C([H])([H])[H])C(C([H])([H])[H])(C([H])([H])[H])C([H])([H])[H])C([H])(C(=O)N([H])C1([H])c3c([H])c([H])c([H])c([H])c3C([H])([H])C([H])([H])C1([H])[H])C2([H])[H]

>  <smiles>  (37) 
[H]c1nc(N([H])C2([H])C([H])([H])N(C(=O)N3C([H])([H])C([H])([H])C([H])([H])C([H])(n4nc(-c5c([H])c([H])c(Oc6c([H])c([H])c(F)c([H])c6F)c([H])c5[H])c(C(=O)N([H])[H])c4N([H])[H])C3([H])[H])C([H])([H])C2([H])[H])c(C2([H])C([H])([H])C2([H])[H])nc1C([H])([H])Oc1c([H])c([H])c2c(c1[H])C([H])([H])N(C(=O)C([H])(N([H])C(=O)C([H])(N([H])C([H])([H])[H])C([H])([H])[H])C(C([H])([H])[H])(C([H])([H])[H])C([H])([H])[H])C([H])(C(=O)N([H])C1([H])c3c([H])c([H])c([H])c([H])c3C([H])([H])C([H])([H])C1([H])[H])C2([H])[H]

$$$$
37:0:0
     RDKit          3D

 89 98  0  0  1  0  0  0  0  0999 V2000
  -30.5350  -15.0680   20.4010 C   0  0  0  0  0  0  0  0  0  0  0  0
  -30.4080  -12.7040   19.4560 C   0  0  0  0  0  2  0  0  0  0  0  0
  -29.4980  -12.6260   18.2100 C   0  0  0  0  0  2  0  0  0  0  0  0
  -28.0310  -12.4110   18.6260 C   0  0  0  0  0  2  0  0  0  0  0  0
  -27.6010  -13.3490   19.7850 C   0  0  0  0  0  3  0  0  0  0  0  0
  -28.6390  -13.4000   20.9230 C   0  0  0  0  0  2  0  0  0  0  0  0
  -29.9040  -13.8220   20.3100 N   0  0  0  0  0  0  0  0  0  0  0  0
  -31.7650  -15.0440   20.2490 O   0  0  0  0  0  0  0  0  0  0  0  0
  -30.0820  -18.5580   18.9660 C   0  0  0  0  0  2  0  0  0  0  0  0
  -30.7390  -19.9690   21.0410 C   0  0  0  0  0  2  0  0  0  0  0  0
  -29.9910  -16.9880   18.8730 C   0  0  0  0  0  2  0  0  0  0  0  0
  -29.4890  -17.5750   21.0440 C   0  0  0  0  0  2  0  0  0  0  0  0
  -30.5300  -21.4870   20.6900 C   0  0  0  0  0  2  0  0  0  0  0  0
  -28.5360  -20.3550   20.2910 C   0  0  0  0  0  2  0  0  0  0  0  0
  -29.6490  -19.0940   20.3530 C   0  0  2  0  0  0  0  0  0  0  0  0
  -29.8290  -16.3140   20.1810 N   0  0  0  0  0  0  0  0  0  0  0  0
  -29.0730  -21.7860   20.6770 N   0  0  2  0  0  4  0  0  0  0  0  0
  -28.8120  -21.8820   21.6480 H   0  0  0  0  0  0  0  0  0  0  0  0
  -25.2130  -13.9250   20.4820 C   0  0  0  0  0  0  0  0  0  0  0  0
  -24.1430  -13.1510   20.8370 C   0  0  0  0  0  0  0  0  0  0  0  0
  -24.6110  -11.8000   20.8330 C   0  0  0  0  0  0  0  0  0  0  0  0
  -26.2610  -13.0470   20.2710 N   0  0  0  0  0  0  0  0  0  0  0  0
  -25.9090  -11.7640   20.5500 N   0  0  0  0  0  0  0  0  0  0  0  0
  -23.8820  -10.5390   21.0210 C   0  0  0  0  0  0  0  0  0  0  0  0
  -24.3030   -9.5750   21.9630 C   0  0  0  0  0  3  0  0  0  0  0  0
  -23.5720   -8.3810   22.1400 C   0  0  0  0  0  3  0  0  0  0  0  0
  -22.4060   -8.1400   21.3750 C   0  0  0  0  0  0  0  0  0  0  0  0
  -22.0060   -9.0930   20.4210 C   0  0  0  0  0  3  0  0  0  0  0  0
  -22.7380  -10.2780   20.2420 C   0  0  0  0  0  3  0  0  0  0  0  0
  -21.6480   -6.9970   21.4600 O   0  0  0  0  0  0  0  0  0  0  0  0
  -21.5930   -6.2550   22.6120 C   0  0  0  0  0  0  0  0  0  0  0  0
  -21.1650   -6.8100   23.8380 C   0  0  0  0  0  3  0  0  0  0  0  0
  -21.0580   -5.9940   24.9810 C   0  0  0  0  0  3  0  0  0  0  0  0
  -21.3680   -4.6240   24.9010 C   0  0  0  0  0  0  0  0  0  0  0  0
  -21.7900   -4.0680   23.6800 C   0  0  0  0  0  3  0  0  0  0  0  0
  -21.8990   -4.8810   22.5380 C   0  0  0  0  0  0  0  0  0  0  0  0
  -22.2860   -4.3350   21.3600 F   0  0  0  0  0  0  0  0  0  0  0  0
  -21.2580   -3.8370   25.9970 F   0  0  0  0  0  0  0  0  0  0  0  0
  -22.7390  -13.6290   21.0690 C   0  0  0  0  0  0  0  0  0  0  0  0
  -21.9930  -12.9430   21.9270 N   0  0  0  0  0  0  0  0  0  0  0  0
  -22.3130  -14.6460   20.5240 O   0  0  0  0  0  0  0  0  0  0  0  0
  -22.3500  -12.1210   22.3900 H   0  0  0  0  0  0  0  0  0  0  0  0
  -21.0500  -13.2460   22.1250 H   0  0  0  0  0  0  0  0  0  0  0  0
  -25.3780  -15.2940   20.2950 N   0  0  0  0  0  0  0  0  0  0  0  0
  -24.6120  -15.9510   20.3900 H   0  0  0  0  0  0  0  0  0  0  0  0
  -26.2410  -15.7310   19.9950 H   0  0  0  0  0  0  0  0  0  0  0  0
  -28.6560  -23.1900   19.9860 C   0  0  0  0  0  2  0  0  0  0  0  0
  -28.2470  -24.6510   20.7900 C   0  0  0  0  0  2  0  0  0  0  0  0
  -28.3720  -26.1680   20.3510 O   0  0  0  0  0  0  0  0  0  0  0  0
  -24.6470  -31.9040   23.2650 C   0  0  0  0  0  0  0  0  0  0  0  0
  -27.2950  -27.1380   20.3440 C   0  0  0  0  0  0  0  0  0  0  0  0
  -23.4790  -30.4760   21.6310 C   0  0  0  0  0  3  0  0  0  0  0  0
  -24.9570  -28.8830   20.2530 C   0  0  0  0  0  0  0  0  0  0  0  0
  -26.0340  -30.7530   21.4930 C   0  0  0  0  0  2  0  0  0  0  0  0
  -26.1280  -29.3470   20.8650 C   0  0  0  0  0  0  0  0  0  0  0  0
  -27.3000  -28.4940   20.8830 C   0  0  0  0  0  3  0  0  0  0  0  0
  -26.0940  -26.7760   19.7000 C   0  0  0  0  0  3  0  0  0  0  0  0
  -24.9540  -27.6120   19.6530 C   0  0  0  0  0  3  0  0  0  0  0  0
  -23.7230  -29.7760   20.2670 C   0  0  0  0  0  2  0  0  0  0  0  0
  -24.7400  -31.0680   22.1850 N   0  0  0  0  0  0  0  0  0  0  0  0
  -23.5520  -32.1860   23.7760 O   0  0  0  0  0  0  0  0  0  0  0  0
  -22.7950  -29.4790   22.6000 C   0  0  0  0  0  0  0  0  0  0  0  0
  -21.4680  -29.3000   22.4640 N   0  0  0  0  0  0  0  0  0  0  0  0
  -23.4610  -28.8670   23.4390 O   0  0  0  0  0  0  0  0  0  0  0  0
  -20.9860  -29.8440   21.7620 H   0  0  0  0  0  0  0  0  0  0  0  0
  -18.0880  -28.0950   22.9620 C   0  0  0  0  0  0  0  0  0  0  0  0
  -20.6450  -28.3670   23.2380 C   0  0  0  0  0  3  0  0  0  0  0  0
  -20.7520  -26.9310   22.6740 C   0  0  0  0  0  2  0  0  0  0  0  0
  -19.6560  -26.5970   21.6570 C   0  0  0  0  0  2  0  0  0  0  0  0
  -18.2710  -26.7420   22.2940 C   0  0  0  0  0  2  0  0  0  0  0  0
  -19.2010  -28.8640   23.3900 C   0  0  0  0  0  0  0  0  0  0  0  0
  -18.9750  -30.1290   23.9750 C   0  0  0  0  0  3  0  0  0  0  0  0
  -17.6680  -30.6240   24.1350 C   0  0  0  0  0  3  0  0  0  0  0  0
  -16.5680  -29.8530   23.7210 C   0  0  0  0  0  3  0  0  0  0  0  0
  -16.7780  -28.5900   23.1410 C   0  0  0  0  0  3  0  0  0  0  0  0
  -25.9100  -32.5610   23.9010 C   0  0  0  0  0  3  0  0  0  0  0  0
  -25.5820  -33.9620   24.2060 N   0  0  0  0  0  0  0  0  0  0  0  0
  -25.9160  -35.0120   23.4440 C   0  0  0  0  0  0  0  0  0  0  0  0
  -26.5990  -34.9010   22.4220 O   0  0  0  0  0  0  0  0  0  0  0  0
  -24.9750  -34.1210   24.9980 H   0  0  0  0  0  0  0  0  0  0  0  0
  -24.1810  -36.7930   23.0550 C   0  0  0  0  0  1  0  0  0  0  0  0
  -25.4170  -36.4030   23.8810 C   0  0  0  0  0  3  0  0  0  0  0  0
  -27.5370  -37.3150   24.7220 C   0  0  0  0  0  1  0  0  0  0  0  0
  -26.4440  -37.4620   23.7650 N   0  0  0  0  0  0  0  0  0  0  0  0
  -26.0310  -38.3820   23.8950 H   0  0  0  0  0  0  0  0  0  0  0  0
  -26.4060  -31.8180   25.2020 C   0  0  1  0  0  0  0  0  0  0  0  0
  -25.2940  -31.5960   26.2550 C   0  0  0  0  0  1  0  0  0  0  0  0
  -27.0040  -30.4360   24.8530 C   0  0  0  0  0  1  0  0  0  0  0  0
  -27.5400  -32.6320   25.8700 C   0  0  0  0  0  1  0  0  0  0  0  0
  2  7  1  0
  3  4  1  0
  3  2  1  0
  5  4  1  0
  5 22  1  0
  5  6  1  0
  7  1  1  0
  7  6  1  0
  8  1  2  0
 11  9  1  0
 11 16  1  0
 13 10  1  0
 15 14  1  6
 14 17  1  0
 15  9  1  0
 15 10  1  0
 15 12  1  0
 16  1  1  0
 16 12  1  0
 17 13  1  0
 17 18  1  1
 19 20  2  0
 20 39  1  0
 21 20  1  0
 21 24  1  0
 22 19  1  0
 22 23  1  0
 23 21  2  0
 24 25  1  0
 25 26  2  0
 27 30  1  0
 27 26  1  0
 28 27  2  0
 29 28  1  0
 29 24  2  0
 30 31  1  0
 31 32  1  0
 32 33  2  0
 34 33  1  0
 34 38  1  0
 35 34  2  0
 36 31  2  0
 36 35  1  0
 37 36  1  0
 39 40  1  0
 40 43  1  0
 40 42  1  0
 41 39  2  0
 44 45  1  0
 44 19  1  0
 46 44  1  0
 47 17  1  0
 47 48  1  0
 49 48  1  0
 50 61  2  0
 51 49  1  0
 51 56  1  0
 52 60  1  0
 52 62  1  0
 53 59  1  0
 53 55  1  0
 54 60  1  0
 55 56  2  0
 55 54  1  0
 57 51  2  0
 58 57  1  0
 58 53  2  0
 59 52  1  0
 60 50  1  0
 62 64  2  0
 63 62  1  0
 65 63  1  0
 66 75  2  0
 66 71  1  0
 67 63  1  0
 67 71  1  0
 68 67  1  0
 69 70  1  0
 69 68  1  0
 70 66  1  0
 71 72  2  0
 72 73  1  0
 74 73  2  0
 75 74  1  0
 76 50  1  0
 76 77  1  0
 76 86  1  0
 77 80  1  0
 78 82  1  0
 78 77  1  0
 79 78  2  0
 82 81  1  0
 84 82  1  0
 84 85  1  0
 84 83  1  0
 86 89  1  1
 86 87  1  0
 88 86  1  0
M  ISO  4   1 100  16 100  48 101  49 101
M  END
>  <TORSDO>  (38) 
F 17

>  <SCORE>  (38) 
-16.033

>  <name>  (38) 
37

>  <ligand_id>  (38) 
37

>  <original_smiles>  (38) 
[H]c1c([H])c([H])c2c(c1[H])C([H])([H])C([H])([H])C([H])([H])C2([H])N([H])C(=O)C1([H])N(C(=O)C([H])(N([H])C(=O)C([H])(N([H])C([H])([H])[H])C([H])([H])[H])C(C([H])([H])[H])(C([H])([H])[H])C([H])([H])[H])C([H])([H])c2c([H])c(OC([H])([H])C([H])([H])[N+]3([H])C([H])([H])C([H])([H])C4(C([H])([H])N(C(=O)N5C([H])([H])C([H])([H])C([H])([H])C([H])(n6nc(-c7c([H])c([H])c(Oc8c([H])c([H])c(F)c([H])c8F)c([H])c7[H])c(C(=O)N([H])[H])c6N([H])[H])C5([H])[H])C([H])([H])C4([H])[H])C3([H])[H])c([H])c([H])c2C1([H])[H]

>  <smiles>  (38) 
[H]c1c([H])c([H])c2c(c1[H])C([H])([H])C([H])([H])C([H])([H])C2([H])N([H])C(=O)C1([H])N(C(=O)C([H])(N([H])C(=O)C([H])(N([H])C([H])([H])[H])C([H])([H])[H])C(C([H])([H])[H])(C([H])([H])[H])C([H])([H])[H])C([H])([H])c2c([H])c(OC([H])([H])C([H])([H])[N+]3([H])C([H])([H])C([H])([H])C4(C([H])([H])N(C(=O)N5C([H])([H])C([H])([H])C([H])([H])C([H])(n6nc(-c7c([H])c([H])c(Oc8c([H])c([H])c(F)c([H])c8F)c([H])c7[H])c(C(=O)N([H])[H])c6N([H])[H])C5([H])[H])C([H])([H])C4([H])[H])C3([H])[H])c([H])c([H])c2C1([H])[H]

$$$$
38:0:0
     RDKit          3D

 89 98  0  0  1  0  0  0  0  0999 V2000
  -30.4530  -23.3490   20.6340 C   0  0  0  0  0  2  0  0  0  0  0  0
  -30.1720  -23.2140   19.1690 C   0  0  0  0  0  2  0  0  0  0  0  0
  -29.0330  -23.0670   20.1670 C   0  0  1  0  0  0  0  0  0  0  0  0
  -28.5890  -21.4480   20.3870 C   0  0  0  0  0  0  0  0  0  0  0  0
  -29.3990  -20.2480   20.1960 N   0  0  0  0  0  0  0  0  0  0  0  0
  -27.4350  -21.2550   20.7690 O   0  0  0  0  0  0  0  0  0  0  0  0
  -30.3350  -20.4550   19.8790 H   0  0  0  0  0  0  0  0  0  0  0  0
  -30.4800  -15.1680   20.0660 C   0  0  0  0  0  0  0  0  0  0  0  0
  -30.3630  -12.7840   19.1170 C   0  0  0  0  0  2  0  0  0  0  0  0
  -29.3910  -12.6740   17.9190 C   0  0  0  0  0  2  0  0  0  0  0  0
  -27.9550  -12.4200   18.4100 C   0  0  0  0  0  2  0  0  0  0  0  0
  -27.5680  -13.3470   19.5910 C   0  0  0  0  0  3  0  0  0  0  0  0
  -28.6630  -13.4230   20.6760 C   0  0  0  0  0  2  0  0  0  0  0  0
  -29.8850  -13.8930   20.0110 N   0  0  0  0  0  0  0  0  0  0  0  0
  -31.6820  -15.1840   19.7620 O   0  0  0  0  0  0  0  0  0  0  0  0
  -29.3760  -17.5270   19.2890 C   0  0  0  0  0  2  0  0  0  0  0  0
  -30.2320  -17.6620   21.0660 C   0  0  0  0  0  2  0  0  0  0  0  0
  -29.1410  -18.6460   20.4190 C   0  0  0  0  0  3  0  0  0  0  0  0
  -29.7550  -16.4180   20.2920 N   0  0  0  0  0  0  0  0  0  0  0  0
  -25.2250  -13.8900   20.4420 C   0  0  0  0  0  0  0  0  0  0  0  0
  -24.1810  -13.1020   20.8390 C   0  0  0  0  0  0  0  0  0  0  0  0
  -24.6520  -11.7540   20.7690 C   0  0  0  0  0  0  0  0  0  0  0  0
  -26.2600  -13.0220   20.1450 N   0  0  0  0  0  0  0  0  0  0  0  0
  -25.9310  -11.7310   20.4100 N   0  0  0  0  0  0  0  0  0  0  0  0
  -23.9390  -10.4850   20.9660 C   0  0  0  0  0  0  0  0  0  0  0  0
  -24.3860   -9.5220   21.8980 C   0  0  0  0  0  3  0  0  0  0  0  0
  -23.6690   -8.3190   22.0840 C   0  0  0  0  0  3  0  0  0  0  0  0
  -22.4920   -8.0710   21.3390 C   0  0  0  0  0  0  0  0  0  0  0  0
  -22.0670   -9.0210   20.3930 C   0  0  0  0  0  3  0  0  0  0  0  0
  -22.7840  -10.2140   20.2050 C   0  0  0  0  0  3  0  0  0  0  0  0
  -21.7470   -6.9210   21.4340 O   0  0  0  0  0  0  0  0  0  0  0  0
  -21.6790   -6.2010   22.6000 C   0  0  0  0  0  0  0  0  0  0  0  0
  -21.2160   -6.7750   23.8050 C   0  0  0  0  0  3  0  0  0  0  0  0
  -21.0970   -5.9810   24.9630 C   0  0  0  0  0  3  0  0  0  0  0  0
  -21.4310   -4.6130   24.9170 C   0  0  0  0  0  0  0  0  0  0  0  0
  -21.8890   -4.0400   23.7170 C   0  0  0  0  0  3  0  0  0  0  0  0
  -22.0090   -4.8320   22.5620 C   0  0  0  0  0  0  0  0  0  0  0  0
  -22.4290   -4.2690   21.4020 F   0  0  0  0  0  0  0  0  0  0  0  0
  -21.3110   -3.8480   26.0260 F   0  0  0  0  0  0  0  0  0  0  0  0
  -22.7930  -13.5660   21.1650 C   0  0  0  0  0  0  0  0  0  0  0  0
  -22.1000  -12.8540   22.0480 N   0  0  0  0  0  0  0  0  0  0  0  0
  -22.3310  -14.5950   20.6740 O   0  0  0  0  0  0  0  0  0  0  0  0
  -22.4890  -12.0210   22.4670 H   0  0  0  0  0  0  0  0  0  0  0  0
  -21.1690  -13.1450   22.3070 H   0  0  0  0  0  0  0  0  0  0  0  0
  -25.3800  -15.2640   20.2830 N   0  0  0  0  0  0  0  0  0  0  0  0
  -24.6250  -15.9230   20.4400 H   0  0  0  0  0  0  0  0  0  0  0  0
  -26.2340  -15.7070   19.9680 H   0  0  0  0  0  0  0  0  0  0  0  0
  -27.9740  -24.4330   20.2380 C   0  0  0  0  0  2  0  0  0  0  0  0
  -28.2460  -26.0240   20.2310 O   0  0  0  0  0  0  0  0  0  0  0  0
  -24.6660  -31.8670   23.2340 C   0  0  0  0  0  0  0  0  0  0  0  0
  -27.2100  -27.0680   20.1890 C   0  0  0  0  0  0  0  0  0  0  0  0
  -23.4620  -30.4800   21.5940 C   0  0  0  0  0  3  0  0  0  0  0  0
  -24.9000  -28.8910   20.1620 C   0  0  0  0  0  0  0  0  0  0  0  0
  -26.0230  -30.7110   21.4320 C   0  0  0  0  0  2  0  0  0  0  0  0
  -26.0880  -29.3110   20.7720 C   0  0  0  0  0  0  0  0  0  0  0  0
  -27.2410  -28.4200   20.7630 C   0  0  0  0  0  3  0  0  0  0  0  0
  -25.9910  -26.7770   19.5380 C   0  0  0  0  0  3  0  0  0  0  0  0
  -24.8700  -27.6420   19.5260 C   0  0  0  0  0  3  0  0  0  0  0  0
  -23.6800  -29.8040   20.2140 C   0  0  0  0  0  2  0  0  0  0  0  0
  -24.7380  -31.0440   22.1410 N   0  0  0  0  0  0  0  0  0  0  0  0
  -23.5800  -32.1580   23.7610 O   0  0  0  0  0  0  0  0  0  0  0  0
  -22.7760  -29.4770   22.5580 C   0  0  0  0  0  0  0  0  0  0  0  0
  -21.4470  -29.3120   22.4350 N   0  0  0  0  0  0  0  0  0  0  0  0
  -23.4450  -28.8480   23.3820 O   0  0  0  0  0  0  0  0  0  0  0  0
  -20.9620  -29.8660   21.7450 H   0  0  0  0  0  0  0  0  0  0  0  0
  -18.0660  -28.1070   22.9470 C   0  0  0  0  0  0  0  0  0  0  0  0
  -20.6250  -28.3730   23.2060 C   0  0  0  0  0  3  0  0  0  0  0  0
  -20.7270  -26.9420   22.6280 C   0  0  0  0  0  2  0  0  0  0  0  0
  -19.6220  -26.6210   21.6160 C   0  0  0  0  0  2  0  0  0  0  0  0
  -18.2430  -26.7610   22.2630 C   0  0  0  0  0  2  0  0  0  0  0  0
  -19.1840  -28.8710   23.3750 C   0  0  0  0  0  0  0  0  0  0  0  0
  -18.9630  -30.1290   23.9760 C   0  0  0  0  0  3  0  0  0  0  0  0
  -17.6570  -30.6250   24.1500 C   0  0  0  0  0  3  0  0  0  0  0  0
  -16.5540  -29.8590   23.7350 C   0  0  0  0  0  3  0  0  0  0  0  0
  -16.7590  -28.6010   23.1410 C   0  0  0  0  0  3  0  0  0  0  0  0
  -25.9440  -32.5020   23.8620 C   0  0  0  0  0  3  0  0  0  0  0  0
  -25.6300  -33.8980   24.2110 N   0  0  0  0  0  0  0  0  0  0  0  0
  -25.9330  -34.9640   23.4580 C   0  0  0  0  0  0  0  0  0  0  0  0
  -26.5720  -34.8750   22.4070 O   0  0  0  0  0  0  0  0  0  0  0  0
  -25.0580  -34.0380   25.0300 H   0  0  0  0  0  0  0  0  0  0  0  0
  -24.1730  -36.7440   23.1980 C   0  0  0  0  0  1  0  0  0  0  0  0
  -25.4550  -36.3460   23.9470 C   0  0  0  0  0  3  0  0  0  0  0  0
  -27.6170  -37.2520   24.6830 C   0  0  0  0  0  1  0  0  0  0  0  0
  -26.4720  -37.4110   23.7910 N   0  0  0  0  0  0  0  0  0  0  0  0
  -26.0640  -38.3270   23.9570 H   0  0  0  0  0  0  0  0  0  0  0  0
  -26.4590  -31.7240   25.1360 C   0  0  1  0  0  0  0  0  0  0  0  0
  -25.3650  -31.4830   26.2030 C   0  0  0  0  0  1  0  0  0  0  0  0
  -27.0410  -30.3470   24.7430 C   0  0  0  0  0  1  0  0  0  0  0  0
  -27.6130  -32.5130   25.7990 C   0  0  0  0  0  1  0  0  0  0  0  0
  2  3  1  0
  2  1  1  0
  3 48  1  6
  3  4  1  0
  3  1  1  0
  4  6  2  0
  5  4  1  0
  7  5  1  0
  8 19  1  0
  9 14  1  0
 10 11  1  0
 10  9  1  0
 12 11  1  0
 12 23  1  0
 12 13  1  0
 14  8  1  0
 14 13  1  0
 15  8  2  0
 16 19  1  0
 16 18  1  0
 18  5  1  0
 18 17  1  0
 19 17  1  0
 20 21  2  0
 21 40  1  0
 22 21  1  0
 22 25  1  0
 23 24  1  0
 23 20  1  0
 24 22  2  0
 25 26  1  0
 26 27  2  0
 28 31  1  0
 28 27  1  0
 29 28  2  0
 30 29  1  0
 30 25  2  0
 31 32  1  0
 32 33  1  0
 33 34  2  0
 35 34  1  0
 35 39  1  0
 36 35  2  0
 37 32  2  0
 37 36  1  0
 38 37  1  0
 40 41  1  0
 41 44  1  0
 41 43  1  0
 42 40  2  0
 45 46  1  0
 45 20  1  0
 47 45  1  0
 49 48  1  0
 50 61  2  0
 51 49  1  0
 51 56  1  0
 52 60  1  0
 52 62  1  0
 53 59  1  0
 53 55  1  0
 54 60  1  0
 55 54  1  0
 56 55  2  0
 57 51  2  0
 58 57  1  0
 58 53  2  0
 59 52  1  0
 60 50  1  0
 62 64  2  0
 63 62  1  0
 65 63  1  0
 66 75  2  0
 66 71  1  0
 67 63  1  0
 67 71  1  0
 68 67  1  0
 69 70  1  0
 69 68  1  0
 70 66  1  0
 71 72  2  0
 72 73  1  0
 74 73  2  0
 75 74  1  0
 76 50  1  0
 76 77  1  0
 76 86  1  0
 77 80  1  0
 78 82  1  0
 78 77  1  0
 79 78  2  0
 82 81  1  0
 84 82  1  0
 84 85  1  0
 84 83  1  0
 86 89  1  1
 86 87  1  0
 88 86  1  0
M  ISO  4   8 100  19 100  48 101  49 101
M  END
>  <TORSDO>  (39) 
F 18

>  <SCORE>  (39) 
-15.076

>  <name>  (39) 
38

>  <ligand_id>  (39) 
38

>  <original_smiles>  (39) 
[H]c1c([H])c([H])c2c(c1[H])C([H])([H])C([H])([H])C([H])([H])C2([H])N([H])C(=O)C1([H])N(C(=O)C([H])(N([H])C(=O)C([H])(N([H])C([H])([H])[H])C([H])([H])[H])C(C([H])([H])[H])(C([H])([H])[H])C([H])([H])[H])C([H])([H])c2c([H])c(OC([H])([H])C3(C(=O)N([H])C4([H])C([H])([H])N(C(=O)N5C([H])([H])C([H])([H])C([H])([H])C([H])(n6nc(-c7c([H])c([H])c(Oc8c([H])c([H])c(F)c([H])c8F)c([H])c7[H])c(C(=O)N([H])[H])c6N([H])[H])C5([H])[H])C4([H])[H])C([H])([H])C3([H])[H])c([H])c([H])c2C1([H])[H]

>  <smiles>  (39) 
[H]c1c([H])c([H])c2c(c1[H])C([H])([H])C([H])([H])C([H])([H])C2([H])N([H])C(=O)C1([H])N(C(=O)C([H])(N([H])C(=O)C([H])(N([H])C([H])([H])[H])C([H])([H])[H])C(C([H])([H])[H])(C([H])([H])[H])C([H])([H])[H])C([H])([H])c2c([H])c(OC([H])([H])C3(C(=O)N([H])C4([H])C([H])([H])N(C(=O)N5C([H])([H])C([H])([H])C([H])([H])C([H])(n6nc(-c7c([H])c([H])c(Oc8c([H])c([H])c(F)c([H])c8F)c([H])c7[H])c(C(=O)N([H])[H])c6N([H])[H])C5([H])[H])C4([H])[H])C([H])([H])C3([H])[H])c([H])c([H])c2C1([H])[H]

$$$$
39:0:0
     RDKit          3D

 90 99  0  0  1  0  0  0  0  0999 V2000
  -30.8290  -16.4460   20.6090 C   0  0  0  0  0  0  0  0  0  0  0  0
  -31.0450  -13.9350   19.7070 C   0  0  0  0  0  2  0  0  0  0  0  0
  -30.2130  -13.4860   18.4760 C   0  0  0  0  0  2  0  0  0  0  0  0
  -28.8060  -13.0420   18.9030 C   0  0  0  0  0  2  0  0  0  0  0  0
  -28.2040  -14.0070   19.9470 C   0  0  0  0  0  3  0  0  0  0  0  0
  -29.1840  -14.3840   21.0820 C   0  0  0  0  0  2  0  0  0  0  0  0
  -30.3340  -15.0760   20.4430 N   0  0  0  0  0  0  0  0  0  0  0  0
  -32.0750  -16.3800   20.6320 O   0  0  0  0  0  0  0  0  0  0  0  0
  -29.7350  -20.3440   21.9410 C   0  0  0  0  0  3  0  0  0  0  0  0
  -29.3610  -21.8320   21.9490 C   0  0  0  0  0  3  0  0  0  0  0  0
  -29.8640  -19.4330   20.7750 C   0  0  0  0  0  0  0  0  0  0  0  0
  -29.5670  -20.4000   19.7390 C   0  0  0  0  0  0  0  0  0  0  0  0
  -29.0620  -22.7570   20.8140 C   0  0  0  0  0  0  0  0  0  0  0  0
  -29.6790  -19.5960   18.4770 C   0  0  0  0  0  2  0  0  0  0  0  0
  -29.9080  -18.0580   18.8360 C   0  0  0  0  0  3  0  0  0  0  0  0
  -29.2060  -21.8280   19.7250 N   0  0  0  0  0  0  0  0  0  0  0  0
  -30.0990  -17.8170   20.3180 N   0  0  0  0  0  0  0  0  0  0  0  0
  -25.8010  -14.4630   20.6040 C   0  0  0  0  0  0  0  0  0  0  0  0
  -24.7470  -13.6410   20.8790 C   0  0  0  0  0  0  0  0  0  0  0  0
  -25.2620  -12.3080   20.8340 C   0  0  0  0  0  0  0  0  0  0  0  0
  -26.8820  -13.6250   20.4010 N   0  0  0  0  0  0  0  0  0  0  0  0
  -26.5700  -12.3220   20.6000 N   0  0  0  0  0  0  0  0  0  0  0  0
  -24.5700  -11.0200   20.9420 C   0  0  0  0  0  0  0  0  0  0  0  0
  -24.9140  -10.0810   21.9390 C   0  0  0  0  0  3  0  0  0  0  0  0
  -24.2190   -8.8570   22.0370 C   0  0  0  0  0  3  0  0  0  0  0  0
  -23.1670   -8.5650   21.1360 C   0  0  0  0  0  0  0  0  0  0  0  0
  -22.8460   -9.4930   20.1280 C   0  0  0  0  0  3  0  0  0  0  0  0
  -23.5430  -10.7080   20.0290 C   0  0  0  0  0  3  0  0  0  0  0  0
  -22.4530   -7.3910   21.1410 O   0  0  0  0  0  0  0  0  0  0  0  0
  -22.1530   -6.7380   22.3100 C   0  0  0  0  0  0  0  0  0  0  0  0
  -21.4190   -7.3610   23.3420 C   0  0  0  0  0  3  0  0  0  0  0  0
  -21.0730   -6.6320   24.4970 C   0  0  0  0  0  3  0  0  0  0  0  0
  -21.4510   -5.2810   24.6180 C   0  0  0  0  0  0  0  0  0  0  0  0
  -22.1780   -4.6580   23.5880 C   0  0  0  0  0  3  0  0  0  0  0  0
  -22.5230   -5.3840   22.4350 C   0  0  0  0  0  0  0  0  0  0  0  0
  -23.2050   -4.7740   21.4360 F   0  0  0  0  0  0  0  0  0  0  0  0
  -21.1110   -4.5780   25.7240 F   0  0  0  0  0  0  0  0  0  0  0  0
  -23.3220  -14.0660   21.0760 C   0  0  0  0  0  0  0  0  0  0  0  0
  -22.5880  -13.3650   21.9300 N   0  0  0  0  0  0  0  0  0  0  0  0
  -22.8670  -15.0590   20.5060 O   0  0  0  0  0  0  0  0  0  0  0  0
  -22.9680  -12.5630   22.4110 H   0  0  0  0  0  0  0  0  0  0  0  0
  -21.6290  -13.6320   22.1080 H   0  0  0  0  0  0  0  0  0  0  0  0
  -25.9310  -15.8440   20.4770 N   0  0  0  0  0  0  0  0  0  0  0  0
  -25.1490  -16.4810   20.5720 H   0  0  0  0  0  0  0  0  0  0  0  0
  -26.8030  -16.3140   20.2740 H   0  0  0  0  0  0  0  0  0  0  0  0
  -28.2440  -24.4500   20.7120 C   0  0  0  0  0  2  0  0  0  0  0  0
  -28.5120  -26.1870   20.8330 O   0  0  0  0  0  0  0  0  0  0  0  0
  -24.9580  -32.4990   23.6640 C   0  0  0  0  0  0  0  0  0  0  0  0
  -27.5390  -27.4030   20.7500 C   0  0  0  0  0  0  0  0  0  0  0  0
  -23.7820  -31.0690   22.0470 C   0  0  0  0  0  3  0  0  0  0  0  0
  -25.2460  -29.4150   20.6580 C   0  0  0  0  0  0  0  0  0  0  0  0
  -26.3590  -31.2360   21.9200 C   0  0  0  0  0  2  0  0  0  0  0  0
  -26.4380  -29.7920   21.2860 C   0  0  0  0  0  0  0  0  0  0  0  0
  -27.5670  -28.8150   21.2990 C   0  0  0  0  0  3  0  0  0  0  0  0
  -26.3090  -27.2370   20.0620 C   0  0  0  0  0  3  0  0  0  0  0  0
  -25.2200  -28.1610   20.0210 C   0  0  0  0  0  3  0  0  0  0  0  0
  -24.0270  -30.3520   20.6890 C   0  0  0  0  0  2  0  0  0  0  0  0
  -25.0570  -31.6360   22.5960 N   0  0  0  0  0  0  0  0  0  0  0  0
  -23.8630  -32.7950   24.1740 O   0  0  0  0  0  0  0  0  0  0  0  0
  -23.0730  -30.1000   23.0320 C   0  0  0  0  0  0  0  0  0  0  0  0
  -21.8120  -29.7190   22.7530 N   0  0  0  0  0  0  0  0  0  0  0  0
  -23.6760  -29.6840   24.0240 O   0  0  0  0  0  0  0  0  0  0  0  0
  -21.3670  -30.1090   21.9330 H   0  0  0  0  0  0  0  0  0  0  0  0
  -18.5920  -28.0470   22.9730 C   0  0  0  0  0  0  0  0  0  0  0  0
  -21.0230  -28.7480   23.5240 C   0  0  0  0  0  3  0  0  0  0  0  0
  -21.4090  -27.2970   23.1530 C   0  0  0  0  0  2  0  0  0  0  0  0
  -20.5270  -26.7010   22.0520 C   0  0  0  0  0  2  0  0  0  0  0  0
  -19.0590  -26.6830   22.4920 C   0  0  0  0  0  2  0  0  0  0  0  0
  -19.5140  -29.0220   23.4400 C   0  0  0  0  0  0  0  0  0  0  0  0
  -19.0250  -30.2820   23.8490 C   0  0  0  0  0  3  0  0  0  0  0  0
  -17.6490  -30.5750   23.7900 C   0  0  0  0  0  3  0  0  0  0  0  0
  -16.7420  -29.6040   23.3340 C   0  0  0  0  0  3  0  0  0  0  0  0
  -17.2120  -28.3410   22.9330 C   0  0  0  0  0  3  0  0  0  0  0  0
  -26.2140  -33.1710   24.2970 C   0  0  0  0  0  3  0  0  0  0  0  0
  -25.9050  -34.5930   24.5430 N   0  0  0  0  0  0  0  0  0  0  0  0
  -26.2190  -35.6050   23.7220 C   0  0  0  0  0  0  0  0  0  0  0  0
  -26.8560  -35.4380   22.6800 O   0  0  0  0  0  0  0  0  0  0  0  0
  -25.3310  -34.7930   25.3490 H   0  0  0  0  0  0  0  0  0  0  0  0
  -24.4800  -37.3890   23.3390 C   0  0  0  0  0  1  0  0  0  0  0  0
  -25.7550  -37.0250   24.1160 C   0  0  0  0  0  3  0  0  0  0  0  0
  -27.9300  -37.9490   24.7880 C   0  0  0  0  0  1  0  0  0  0  0  0
  -26.7830  -38.0660   23.8920 N   0  0  0  0  0  0  0  0  0  0  0  0
  -26.3880  -38.9940   24.0060 H   0  0  0  0  0  0  0  0  0  0  0  0
  -26.6670  -32.4830   25.6460 C   0  0  1  0  0  0  0  0  0  0  0  0
  -25.5030  -32.1970   26.6250 C   0  0  0  0  0  1  0  0  0  0  0  0
  -27.3810  -31.1400   25.3700 C   0  0  0  0  0  1  0  0  0  0  0  0
  -27.6980  -33.3810   26.3700 C   0  0  0  0  0  1  0  0  0  0  0  0
  -28.7780  -17.2040   18.2210 C   0  0  0  0  0  2  0  0  0  0  0  0
  -27.0890  -18.8530   17.1720 C   0  0  0  0  0  1  0  0  0  0  0  0
  -28.1250  -17.7430   16.9260 C   0  0  0  0  0  2  0  0  0  0  0  0
  1  8  2  0
  2  7  1  0
  3  4  1  0
  3  2  1  0
  5  4  1  0
  5 21  1  0
  5  6  1  0
  7  1  1  0
  7  6  1  0
  9 10  1  0
 11  9  2  0
 12 11  1  0
 13 10  2  0
 14 15  1  0
 14 12  1  0
 15 88  1  0
 15 17  1  0
 16 12  2  0
 16 13  1  0
 17  1  1  0
 17 11  1  0
 18 19  2  0
 19 38  1  0
 20 19  1  0
 20 23  1  0
 21 22  1  0
 21 18  1  0
 22 20  2  0
 23 24  1  0
 24 25  2  0
 26 29  1  0
 26 25  1  0
 27 26  2  0
 28 27  1  0
 28 23  2  0
 29 30  1  0
 30 35  2  0
 30 31  1  0
 31 32  2  0
 32 33  1  0
 33 37  1  0
 34 33  2  0
 35 34  1  0
 36 35  1  0
 38 39  1  0
 39 42  1  0
 39 41  1  0
 40 38  2  0
 43 44  1  0
 43 18  1  0
 45 43  1  0
 46 13  1  0
 46 47  1  0
 48 59  2  0
 49 47  1  0
 49 54  1  0
 50 58  1  0
 50 60  1  0
 51 57  1  0
 51 53  1  0
 52 58  1  0
 53 54  2  0
 53 52  1  0
 55 49  2  0
 56 55  1  0
 56 51  2  0
 57 50  1  0
 58 48  1  0
 60 62  2  0
 61 60  1  0
 63 61  1  0
 64 69  1  0
 65 61  1  0
 66 65  1  0
 67 68  1  0
 67 66  1  0
 68 64  1  0
 69 65  1  0
 69 70  2  0
 71 70  1  0
 72 71  2  0
 73 64  2  0
 73 72  1  0
 74 48  1  0
 74 75  1  0
 74 84  1  0
 75 78  1  0
 76 80  1  0
 76 75  1  0
 77 76  2  0
 80 79  1  0
 82 83  1  0
 82 80  1  0
 82 81  1  0
 84 87  1  1
 84 85  1  0
 86 84  1  0
 90 89  1  0
 90 88  1  0
M  ISO  4   1 100  17 100  46 101  47 101
M  END
>  <TORSDO>  (40) 
F 18

>  <SCORE>  (40) 
-11.180

>  <name>  (40) 
39

>  <ligand_id>  (40) 
39

>  <original_smiles>  (40) 
[H]c1c(C([H])([H])Oc2c([H])c([H])c3c(c2[H])C([H])([H])N(C(=O)C([H])(N([H])C(=O)C([H])(N([H])C([H])([H])[H])C([H])([H])[H])C(C([H])([H])[H])(C([H])([H])[H])C([H])([H])[H])C([H])(C(=O)N([H])C2([H])c4c([H])c([H])c([H])c([H])c4C([H])([H])C([H])([H])C2([H])[H])C3([H])[H])nc2c(c1[H])N(C(=O)N1C([H])([H])C([H])([H])C([H])([H])C([H])(n3nc(-c4c([H])c([H])c(Oc5c([H])c([H])c(F)c([H])c5F)c([H])c4[H])c(C(=O)N([H])[H])c3N([H])[H])C1([H])[H])C([H])(C([H])([H])C([H])([H])C([H])([H])[H])C2([H])[H]

>  <smiles>  (40) 
[H]c1c(C([H])([H])Oc2c([H])c([H])c3c(c2[H])C([H])([H])N(C(=O)C([H])(N([H])C(=O)C([H])(N([H])C([H])([H])[H])C([H])([H])[H])C(C([H])([H])[H])(C([H])([H])[H])C([H])([H])[H])C([H])(C(=O)N([H])C2([H])c4c([H])c([H])c([H])c([H])c4C([H])([H])C([H])([H])C2([H])[H])C3([H])[H])nc2c(c1[H])N(C(=O)N1C([H])([H])C([H])([H])C([H])([H])C([H])(n3nc(-c4c([H])c([H])c(Oc5c([H])c([H])c(F)c([H])c5F)c([H])c4[H])c(C(=O)N([H])[H])c3N([H])[H])C1([H])[H])C([H])(C([H])([H])C([H])([H])C([H])([H])[H])C2([H])[H]

$$$$
40:0:0
     RDKit          3D

 92101  0  0  1  0  0  0  0  0999 V2000
  -30.4900  -22.6410   21.0250 C   0  0  0  0  0  3  0  0  0  0  0  0
  -27.8440  -23.1240   21.1400 C   0  0  0  0  0  3  0  0  0  0  0  0
  -29.5750  -21.5710   21.2310 C   0  0  0  0  0  0  0  0  0  0  0  0
  -28.7640  -24.2010   21.0260 C   0  0  0  0  0  0  0  0  0  0  0  0
  -28.2370  -21.8210   21.2420 N   0  0  0  0  0  0  0  0  0  0  0  0
  -30.0970  -23.9440   20.9250 N   0  0  0  0  0  0  0  0  0  0  0  0
  -30.0570  -20.1810   21.7220 C   0  0  0  0  0  2  0  0  0  0  0  0
  -31.0170  -17.9230   21.1620 C   0  0  0  0  0  2  0  0  0  0  0  0
  -29.0500  -18.0710   20.6820 C   0  0  0  0  0  2  0  0  0  0  0  0
  -30.1200  -17.0310   20.2990 C   0  0  0  0  0  3  0  0  0  0  0  0
  -30.1550  -19.0550   20.7410 N   0  0  1  0  0  4  0  0  0  0  0  0
  -30.4210  -19.3760   19.8230 H   0  0  0  0  0  0  0  0  0  0  0  0
  -30.6520  -14.5650   20.3530 C   0  0  0  0  0  0  0  0  0  0  0  0
  -30.3610  -12.3860   19.2330 C   0  0  0  0  0  2  0  0  0  0  0  0
  -29.4090  -12.5910   18.0350 C   0  0  0  0  0  2  0  0  0  0  0  0
  -27.9390  -12.4530   18.4760 C   0  0  0  0  0  2  0  0  0  0  0  0
  -27.6130  -13.2850   19.7440 C   0  0  0  0  0  3  0  0  0  0  0  0
  -28.6790  -13.0690   20.8450 C   0  0  0  0  0  2  0  0  0  0  0  0
  -29.9960  -13.3730   20.2650 N   0  0  0  0  0  0  0  0  0  0  0  0
  -31.7890  -14.7330   19.9050 O   0  0  0  0  0  0  0  0  0  0  0  0
  -29.8970  -15.6240   20.7290 N   0  0  0  0  0  0  0  0  0  0  0  0
  -28.9850  -15.3950   21.0940 H   0  0  0  0  0  0  0  0  0  0  0  0
  -25.2200  -13.8970   20.4650 C   0  0  0  0  0  0  0  0  0  0  0  0
  -24.1540  -13.1280   20.8460 C   0  0  0  0  0  0  0  0  0  0  0  0
  -24.6130  -11.7750   20.8200 C   0  0  0  0  0  0  0  0  0  0  0  0
  -26.2620  -13.0130   20.2330 N   0  0  0  0  0  0  0  0  0  0  0  0
  -25.9020  -11.7330   20.5040 N   0  0  0  0  0  0  0  0  0  0  0  0
  -23.8870  -10.5150   21.0210 C   0  0  0  0  0  0  0  0  0  0  0  0
  -24.3300   -9.5480   21.9490 C   0  0  0  0  0  3  0  0  0  0  0  0
  -23.6040   -8.3510   22.1380 C   0  0  0  0  0  3  0  0  0  0  0  0
  -22.4220   -8.1150   21.3970 C   0  0  0  0  0  0  0  0  0  0  0  0
  -21.9980   -9.0700   20.4580 C   0  0  0  0  0  3  0  0  0  0  0  0
  -22.7240  -10.2580   20.2670 C   0  0  0  0  0  3  0  0  0  0  0  0
  -21.6670   -6.9710   21.4960 O   0  0  0  0  0  0  0  0  0  0  0  0
  -21.6390   -6.2240   22.6460 C   0  0  0  0  0  0  0  0  0  0  0  0
  -21.2420   -6.7760   23.8840 C   0  0  0  0  0  3  0  0  0  0  0  0
  -21.1610   -5.9550   25.0270 C   0  0  0  0  0  3  0  0  0  0  0  0
  -21.4660   -4.5830   24.9330 C   0  0  0  0  0  0  0  0  0  0  0  0
  -21.8560   -4.0320   23.7000 C   0  0  0  0  0  3  0  0  0  0  0  0
  -21.9380   -4.8490   22.5600 C   0  0  0  0  0  0  0  0  0  0  0  0
  -22.2940   -4.3080   21.3700 F   0  0  0  0  0  0  0  0  0  0  0  0
  -21.3810   -3.7940   26.0290 F   0  0  0  0  0  0  0  0  0  0  0  0
  -22.7580  -13.6080   21.1240 C   0  0  0  0  0  0  0  0  0  0  0  0
  -22.0350  -12.9170   21.9960 N   0  0  0  0  0  0  0  0  0  0  0  0
  -22.3180  -14.6320   20.6010 O   0  0  0  0  0  0  0  0  0  0  0  0
  -22.4020  -12.0880   22.4400 H   0  0  0  0  0  0  0  0  0  0  0  0
  -21.0980  -13.2200   22.2240 H   0  0  0  0  0  0  0  0  0  0  0  0
  -25.3860  -15.2660   20.2770 N   0  0  0  0  0  0  0  0  0  0  0  0
  -24.6140  -15.9170   20.3730 H   0  0  0  0  0  0  0  0  0  0  0  0
  -26.2200  -15.6960   19.9000 H   0  0  0  0  0  0  0  0  0  0  0  0
  -28.3130  -25.6580   21.2980 C   0  0  0  0  0  2  0  0  0  0  0  0
  -28.3780  -26.6230   20.2200 O   0  0  0  0  0  0  0  0  0  0  0  0
  -24.6100  -31.9010   23.2510 C   0  0  0  0  0  0  0  0  0  0  0  0
  -27.2640  -27.4410   20.1820 C   0  0  0  0  0  0  0  0  0  0  0  0
  -23.4110  -30.4940   21.6100 C   0  0  0  0  0  3  0  0  0  0  0  0
  -24.8720  -28.9590   20.1830 C   0  0  0  0  0  0  0  0  0  0  0  0
  -25.9370  -30.8540   21.4150 C   0  0  0  0  0  2  0  0  0  0  0  0
  -26.0310  -29.4820   20.7750 C   0  0  0  0  0  0  0  0  0  0  0  0
  -27.2330  -28.7300   20.7720 C   0  0  0  0  0  3  0  0  0  0  0  0
  -26.0940  -26.9430   19.5760 C   0  0  0  0  0  3  0  0  0  0  0  0
  -24.8990  -27.6900   19.5780 C   0  0  0  0  0  3  0  0  0  0  0  0
  -23.6240  -29.8140   20.2310 C   0  0  0  0  0  2  0  0  0  0  0  0
  -24.6720  -31.0980   22.1510 N   0  0  0  0  0  0  0  0  0  0  0  0
  -23.5280  -32.1700   23.7910 O   0  0  0  0  0  0  0  0  0  0  0  0
  -22.7600  -29.4720   22.5720 C   0  0  0  0  0  0  0  0  0  0  0  0
  -21.4360  -29.2870   22.4440 N   0  0  0  0  0  0  0  0  0  0  0  0
  -23.4440  -28.8510   23.3890 O   0  0  0  0  0  0  0  0  0  0  0  0
  -20.9440  -29.8400   21.7570 H   0  0  0  0  0  0  0  0  0  0  0  0
  -18.0670  -28.0730   22.9320 C   0  0  0  0  0  0  0  0  0  0  0  0
  -20.6210  -28.3460   23.2150 C   0  0  0  0  0  3  0  0  0  0  0  0
  -20.7350  -26.9130   22.6430 C   0  0  0  0  0  2  0  0  0  0  0  0
  -19.6380  -26.5820   21.6250 C   0  0  0  0  0  2  0  0  0  0  0  0
  -18.2530  -26.7220   22.2630 C   0  0  0  0  0  2  0  0  0  0  0  0
  -19.1790  -28.8420   23.3650 C   0  0  0  0  0  0  0  0  0  0  0  0
  -18.9500  -30.1070   23.9500 C   0  0  0  0  0  3  0  0  0  0  0  0
  -17.6430  -30.6020   24.1080 C   0  0  0  0  0  3  0  0  0  0  0  0
  -16.5440  -29.8290   23.6920 C   0  0  0  0  0  3  0  0  0  0  0  0
  -16.7570  -28.5670   23.1100 C   0  0  0  0  0  3  0  0  0  0  0  0
  -25.8940  -32.5360   23.8710 C   0  0  0  0  0  3  0  0  0  0  0  0
  -26.4110  -31.7710   25.1520 C   0  0  1  0  0  0  0  0  0  0  0  0
  -25.3180  -31.5380   26.2200 C   0  0  0  0  0  1  0  0  0  0  0  0
  -26.9950  -30.3930   24.7640 C   0  0  0  0  0  1  0  0  0  0  0  0
  -27.5600  -32.5700   25.8100 C   0  0  0  0  0  1  0  0  0  0  0  0
  -25.5850  -33.9360   24.1930 N   0  0  0  0  0  0  0  0  0  0  0  0
  -25.9210  -34.9840   23.4290 C   0  0  0  0  0  0  0  0  0  0  0  0
  -26.5950  -34.8730   22.4010 O   0  0  0  0  0  0  0  0  0  0  0  0
  -24.9880  -34.0960   24.9910 H   0  0  0  0  0  0  0  0  0  0  0  0
  -24.1960  -36.7750   23.0530 C   0  0  0  0  0  1  0  0  0  0  0  0
  -25.4320  -36.3740   23.8750 C   0  0  0  0  0  3  0  0  0  0  0  0
  -27.5610  -37.2610   24.7140 C   0  0  0  0  0  1  0  0  0  0  0  0
  -26.4650  -37.4260   23.7640 N   0  0  0  0  0  0  0  0  0  0  0  0
  -26.0590  -38.3480   23.9060 H   0  0  0  0  0  0  0  0  0  0  0  0
  1  3  1  0
  2  5  1  0
  3  5  2  0
  3  7  1  0
  4  2  2  0
  4 51  1  0
  6  1  2  0
  6  4  1  0
  9 11  1  0
 10  9  1  0
 10 21  1  0
 10  8  1  0
 11  8  1  0
 11  7  1  0
 11 12  1  6
 13 21  1  0
 14 19  1  0
 15 16  1  0
 15 14  1  0
 17 16  1  0
 17 26  1  0
 17 18  1  0
 19 13  1  0
 19 18  1  0
 20 13  2  0
 21 22  1  0
 23 24  2  0
 24 43  1  0
 25 24  1  0
 25 28  1  0
 26 23  1  0
 26 27  1  0
 27 25  2  0
 28 29  1  0
 29 30  2  0
 31 34  1  0
 31 30  1  0
 32 31  2  0
 33 32  1  0
 33 28  2  0
 34 35  1  0
 35 36  1  0
 36 37  2  0
 38 37  1  0
 38 42  1  0
 39 38  2  0
 40 35  2  0
 40 39  1  0
 41 40  1  0
 43 44  1  0
 44 47  1  0
 44 46  1  0
 45 43  2  0
 48 49  1  0
 48 23  1  0
 50 48  1  0
 52 51  1  0
 53 64  2  0
 54 52  1  0
 54 59  1  0
 55 63  1  0
 55 65  1  0
 56 62  1  0
 56 58  1  0
 57 63  1  0
 58 57  1  0
 59 58  2  0
 60 61  1  0
 60 54  2  0
 61 56  2  0
 62 55  1  0
 63 53  1  0
 65 67  2  0
 66 65  1  0
 68 66  1  0
 69 78  2  0
 69 74  1  0
 70 66  1  0
 70 74  1  0
 71 70  1  0
 72 73  1  0
 72 71  1  0
 73 69  1  0
 74 75  2  0
 75 76  1  0
 77 76  2  0
 78 77  1  0
 79 53  1  0
 79 84  1  0
 79 80  1  0
 80 83  1  1
 80 81  1  0
 82 80  1  0
 84 87  1  0
 85 89  1  0
 85 84  1  0
 86 85  2  0
 89 88  1  0
 91 89  1  0
 91 92  1  0
 91 90  1  0
M  ISO  4  13 100  21 100  51 101  52 101
M  END
>  <TORSDO>  (41) 
F 19

>  <SCORE>  (41) 
-14.390

>  <name>  (41) 
40

>  <ligand_id>  (41) 
40

>  <original_smiles>  (41) 
[H]c1nc(C([H])([H])[N+]2([H])C([H])([H])C([H])(N([H])C(=O)N3C([H])([H])C([H])([H])C([H])([H])C([H])(n4nc(-c5c([H])c([H])c(Oc6c([H])c([H])c(F)c([H])c6F)c([H])c5[H])c(C(=O)N([H])[H])c4N([H])[H])C3([H])[H])C2([H])[H])c([H])nc1C([H])([H])Oc1c([H])c([H])c2c(c1[H])C([H])([H])N(C(=O)C([H])(N([H])C(=O)C([H])(N([H])C([H])([H])[H])C([H])([H])[H])C(C([H])([H])[H])(C([H])([H])[H])C([H])([H])[H])C([H])(C(=O)N([H])C1([H])c3c([H])c([H])c([H])c([H])c3C([H])([H])C([H])([H])C1([H])[H])C2([H])[H]

>  <smiles>  (41) 
[H]c1nc(C([H])([H])[N+]2([H])C([H])([H])C([H])(N([H])C(=O)N3C([H])([H])C([H])([H])C([H])([H])C([H])(n4nc(-c5c([H])c([H])c(Oc6c([H])c([H])c(F)c([H])c6F)c([H])c5[H])c(C(=O)N([H])[H])c4N([H])[H])C3([H])[H])C2([H])[H])c([H])nc1C([H])([H])Oc1c([H])c([H])c2c(c1[H])C([H])([H])N(C(=O)C([H])(N([H])C(=O)C([H])(N([H])C([H])([H])[H])C([H])([H])[H])C(C([H])([H])[H])(C([H])([H])[H])C([H])([H])[H])C([H])(C(=O)N([H])C1([H])c3c([H])c([H])c([H])c([H])c3C([H])([H])C([H])([H])C1([H])[H])C2([H])[H]

$$$$
41:0:0
     RDKit          3D

 95105  0  0  1  0  0  0  0  0999 V2000
  -28.3870  -22.6780   19.1880 C   0  0  0  0  0  3  0  0  0  0  0  0
  -29.8230  -22.3870   21.4450 C   0  0  0  0  0  0  0  0  0  0  0  0
  -28.6550  -23.8140   20.0060 C   0  0  0  0  0  0  0  0  0  0  0  0
  -29.5880  -21.2530   20.5960 C   0  0  0  0  0  0  0  0  0  0  0  0
  -28.8390  -21.4150   19.4700 N   0  0  0  0  0  0  0  0  0  0  0  0
  -29.3680  -23.6440   21.1490 N   0  0  0  0  0  0  0  0  0  0  0  0
  -30.4020  -21.3560   23.7940 C   0  0  0  0  0  2  0  0  0  0  0  0
  -30.2060  -22.8300   24.0170 C   0  0  0  0  0  2  0  0  0  0  0  0
  -30.6950  -22.3310   22.6700 C   0  0  0  0  0  3  0  0  0  0  0  0
  -30.3230  -19.8880   20.8380 C   0  0  0  0  0  2  0  0  0  0  0  0
  -30.3950  -14.4260   20.0740 C   0  0  0  0  0  0  0  0  0  0  0  0
  -30.0820  -12.2670   18.8970 C   0  0  0  0  0  2  0  0  0  0  0  0
  -29.0310  -12.4680   17.7850 C   0  0  0  0  0  2  0  0  0  0  0  0
  -27.6080  -12.2530   18.3370 C   0  0  0  0  0  2  0  0  0  0  0  0
  -27.3540  -13.0260   19.6590 C   0  0  0  0  0  3  0  0  0  0  0  0
  -28.5160  -12.8340   20.6610 C   0  0  0  0  0  2  0  0  0  0  0  0
  -29.7590  -13.2180   19.9770 N   0  0  0  0  0  0  0  0  0  0  0  0
  -31.5230  -14.5980   19.6030 O   0  0  0  0  0  0  0  0  0  0  0  0
  -29.4510  -16.1350   21.6520 C   0  0  0  0  0  2  0  0  0  0  0  0
  -29.1990  -16.4620   19.2560 C   0  0  0  0  0  2  0  0  0  0  0  0
  -30.0540  -17.5760   21.7650 C   0  0  0  0  0  2  0  0  0  0  0  0
  -29.7740  -17.9140   19.3730 C   0  0  0  0  0  2  0  0  0  0  0  0
  -29.6010  -15.5180   20.3230 N   0  0  0  0  0  0  0  0  0  0  0  0
  -29.6140  -18.5500   20.7140 N   0  0  2  0  0  4  0  0  0  0  0  0
  -28.6350  -18.7450   20.8620 H   0  0  0  0  0  0  0  0  0  0  0  0
  -25.0090  -13.5190   20.5820 C   0  0  0  0  0  0  0  0  0  0  0  0
  -24.0030  -12.6980   21.0120 C   0  0  0  0  0  0  0  0  0  0  0  0
  -24.5080  -11.3650   20.9080 C   0  0  0  0  0  0  0  0  0  0  0  0
  -26.0620  -12.6840   20.2440 N   0  0  0  0  0  0  0  0  0  0  0  0
  -25.7710  -11.3820   20.4990 N   0  0  0  0  0  0  0  0  0  0  0  0
  -23.8430  -10.0730   21.1180 C   0  0  0  0  0  0  0  0  0  0  0  0
  -24.3340   -9.1340   22.0510 C   0  0  0  0  0  3  0  0  0  0  0  0
  -23.6660   -7.9050   22.2500 C   0  0  0  0  0  3  0  0  0  0  0  0
  -22.4940   -7.6080   21.5150 C   0  0  0  0  0  0  0  0  0  0  0  0
  -22.0230   -8.5370   20.5690 C   0  0  0  0  0  3  0  0  0  0  0  0
  -22.6920   -9.7560   20.3700 C   0  0  0  0  0  3  0  0  0  0  0  0
  -21.7940   -6.4310   21.6220 O   0  0  0  0  0  0  0  0  0  0  0  0
  -21.7430   -5.7300   22.8000 C   0  0  0  0  0  0  0  0  0  0  0  0
  -21.2310   -6.3010   23.9870 C   0  0  0  0  0  3  0  0  0  0  0  0
  -21.1320   -5.5230   25.1570 C   0  0  0  0  0  3  0  0  0  0  0  0
  -21.5350   -4.1740   25.1420 C   0  0  0  0  0  0  0  0  0  0  0  0
  -22.0400   -3.6020   23.9620 C   0  0  0  0  0  3  0  0  0  0  0  0
  -22.1410   -4.3780   22.7930 C   0  0  0  0  0  0  0  0  0  0  0  0
  -22.6080   -3.8160   21.6520 F   0  0  0  0  0  0  0  0  0  0  0  0
  -21.4330   -3.4230   26.2640 F   0  0  0  0  0  0  0  0  0  0  0  0
  -22.6160  -13.1140   21.4080 C   0  0  0  0  0  0  0  0  0  0  0  0
  -21.9900  -12.3730   22.3140 N   0  0  0  0  0  0  0  0  0  0  0  0
  -22.1000  -14.1330   20.9500 O   0  0  0  0  0  0  0  0  0  0  0  0
  -22.4230  -11.5490   22.7030 H   0  0  0  0  0  0  0  0  0  0  0  0
  -21.0630  -12.6320   22.6240 H   0  0  0  0  0  0  0  0  0  0  0  0
  -25.1130  -14.8980   20.4300 N   0  0  0  0  0  0  0  0  0  0  0  0
  -24.3360  -15.5240   20.6140 H   0  0  0  0  0  0  0  0  0  0  0  0
  -25.9230  -15.3740   20.0540 H   0  0  0  0  0  0  0  0  0  0  0  0
  -28.3550  -25.2660   19.5080 C   0  0  0  0  0  2  0  0  0  0  0  0
  -28.1100  -26.3420   20.4760 O   0  0  0  0  0  0  0  0  0  0  0  0
  -24.4750  -31.8600   23.3070 C   0  0  0  0  0  0  0  0  0  0  0  0
  -26.9800  -27.1630   20.3910 C   0  0  0  0  0  0  0  0  0  0  0  0
  -23.2420  -30.4600   21.6890 C   0  0  0  0  0  3  0  0  0  0  0  0
  -24.6530  -28.8250   20.3280 C   0  0  0  0  0  0  0  0  0  0  0  0
  -25.7900  -30.6940   21.5270 C   0  0  0  0  0  2  0  0  0  0  0  0
  -25.8290  -29.2980   20.9210 C   0  0  0  0  0  0  0  0  0  0  0  0
  -26.9900  -28.4760   20.9490 C   0  0  0  0  0  3  0  0  0  0  0  0
  -25.7660  -26.7210   19.8100 C   0  0  0  0  0  3  0  0  0  0  0  0
  -24.6220  -27.5380   19.7690 C   0  0  0  0  0  3  0  0  0  0  0  0
  -23.4470  -29.7370   20.3320 C   0  0  0  0  0  2  0  0  0  0  0  0
  -24.5210  -31.0220   22.2320 N   0  0  0  0  0  0  0  0  0  0  0  0
  -23.3950  -32.1900   23.8190 O   0  0  0  0  0  0  0  0  0  0  0  0
  -22.5350  -29.4940   22.6670 C   0  0  0  0  0  0  0  0  0  0  0  0
  -21.2060  -29.3510   22.5180 N   0  0  0  0  0  0  0  0  0  0  0  0
  -23.1780  -28.8730   23.5170 O   0  0  0  0  0  0  0  0  0  0  0  0
  -20.7510  -29.9050   21.8050 H   0  0  0  0  0  0  0  0  0  0  0  0
  -17.7830  -28.2850   22.9850 C   0  0  0  0  0  0  0  0  0  0  0  0
  -20.3420  -28.4650   23.2980 C   0  0  0  0  0  3  0  0  0  0  0  0
  -20.4060  -27.0150   22.7660 C   0  0  0  0  0  2  0  0  0  0  0  0
  -19.3130  -26.6990   21.7410 C   0  0  0  0  0  2  0  0  0  0  0  0
  -17.9250  -26.9100   22.3520 C   0  0  0  0  0  2  0  0  0  0  0  0
  -18.9190  -29.0220   23.4140 C   0  0  0  0  0  0  0  0  0  0  0  0
  -18.7320  -30.3090   23.9610 C   0  0  0  0  0  3  0  0  0  0  0  0
  -17.4420  -30.8590   24.0880 C   0  0  0  0  0  3  0  0  0  0  0  0
  -16.3210  -30.1190   23.6760 C   0  0  0  0  0  3  0  0  0  0  0  0
  -16.4920  -28.8350   23.1290 C   0  0  0  0  0  3  0  0  0  0  0  0
  -25.7720  -32.4620   23.9300 C   0  0  0  0  0  3  0  0  0  0  0  0
  -26.2540  -31.6950   25.2220 C   0  0  1  0  0  0  0  0  0  0  0  0
  -25.1440  -31.4930   26.2790 C   0  0  0  0  0  1  0  0  0  0  0  0
  -26.8110  -30.3000   24.8520 C   0  0  0  0  0  1  0  0  0  0  0  0
  -27.4120  -32.4720   25.8910 C   0  0  0  0  0  1  0  0  0  0  0  0
  -25.5030  -33.8740   24.2380 N   0  0  0  0  0  0  0  0  0  0  0  0
  -25.8660  -34.9040   23.4610 C   0  0  0  0  0  0  0  0  0  0  0  0
  -26.5330  -34.7640   22.4320 O   0  0  0  0  0  0  0  0  0  0  0  0
  -24.9160  -34.0590   25.0370 H   0  0  0  0  0  0  0  0  0  0  0  0
  -24.1850  -36.7380   23.0810 C   0  0  0  0  0  1  0  0  0  0  0  0
  -25.4180  -36.3140   23.8950 C   0  0  0  0  0  3  0  0  0  0  0  0
  -27.5780  -37.1590   24.7050 C   0  0  0  0  0  1  0  0  0  0  0  0
  -26.4790  -37.3370   23.7600 N   0  0  0  0  0  0  0  0  0  0  0  0
  -26.0980  -38.2700   23.8880 H   0  0  0  0  0  0  0  0  0  0  0  0
  1  5  2  0
  1  3  1  0
  2  9  1  0
  3  6  2  0
  4 10  1  0
  4  2  2  0
  5  4  1  0
  6  2  1  0
  7  8  1  0
  9  7  1  0
  9  8  1  0
 11 23  1  0
 12 17  1  0
 13 14  1  0
 13 12  1  0
 15 14  1  0
 15 29  1  0
 15 16  1  0
 17 11  1  0
 17 16  1  0
 18 11  2  0
 19 21  1  0
 20 22  1  0
 20 23  1  0
 22 24  1  0
 23 19  1  0
 24 10  1  0
 24 25  1  1
 24 21  1  0
 26 27  2  0
 27 46  1  0
 28 27  1  0
 28 31  1  0
 29 30  1  0
 29 26  1  0
 30 28  2  0
 31 32  1  0
 32 33  2  0
 34 37  1  0
 34 33  1  0
 35 34  2  0
 36 35  1  0
 36 31  2  0
 37 38  1  0
 38 39  1  0
 39 40  2  0
 41 40  1  0
 41 45  1  0
 42 41  2  0
 43 38  2  0
 43 42  1  0
 44 43  1  0
 46 47  1  0
 47 50  1  0
 47 49  1  0
 48 46  2  0
 51 26  1  0
 51 52  1  0
 53 51  1  0
 54  3  1  0
 54 55  1  0
 56 67  2  0
 57 55  1  0
 57 62  1  0
 58 66  1  0
 58 68  1  0
 59 65  1  0
 59 61  1  0
 60 66  1  0
 61 62  2  0
 61 60  1  0
 63 57  2  0
 64 63  1  0
 64 59  2  0
 65 58  1  0
 66 56  1  0
 68 70  2  0
 69 68  1  0
 71 69  1  0
 72 81  2  0
 72 77  1  0
 73 69  1  0
 73 77  1  0
 74 73  1  0
 75 76  1  0
 75 74  1  0
 76 72  1  0
 77 78  2  0
 78 79  1  0
 80 79  2  0
 81 80  1  0
 82 56  1  0
 82 87  1  0
 82 83  1  0
 83 86  1  1
 83 84  1  0
 85 83  1  0
 87 90  1  0
 88 92  1  0
 88 87  1  0
 89 88  2  0
 92 91  1  0
 94 95  1  0
 94 92  1  0
 94 93  1  0
M  ISO  4  11 100  23 100  54 101  55 101
M  END
>  <TORSDO>  (42) 
F 19

>  <SCORE>  (42) 
-13.676

>  <name>  (42) 
41

>  <ligand_id>  (42) 
41

>  <original_smiles>  (42) 
[H]c1nc(C([H])([H])[N+]2([H])C([H])([H])C([H])([H])N(C(=O)N3C([H])([H])C([H])([H])C([H])([H])C([H])(n4nc(-c5c([H])c([H])c(Oc6c([H])c([H])c(F)c([H])c6F)c([H])c5[H])c(C(=O)N([H])[H])c4N([H])[H])C3([H])[H])C([H])([H])C2([H])[H])c(C2([H])C([H])([H])C2([H])[H])nc1C([H])([H])Oc1c([H])c([H])c2c(c1[H])C([H])([H])N(C(=O)C([H])(N([H])C(=O)C([H])(N([H])C([H])([H])[H])C([H])([H])[H])C(C([H])([H])[H])(C([H])([H])[H])C([H])([H])[H])C([H])(C(=O)N([H])C1([H])c3c([H])c([H])c([H])c([H])c3C([H])([H])C([H])([H])C1([H])[H])C2([H])[H]

>  <smiles>  (42) 
[H]c1nc(C([H])([H])[N+]2([H])C([H])([H])C([H])([H])N(C(=O)N3C([H])([H])C([H])([H])C([H])([H])C([H])(n4nc(-c5c([H])c([H])c(Oc6c([H])c([H])c(F)c([H])c6F)c([H])c5[H])c(C(=O)N([H])[H])c4N([H])[H])C3([H])[H])C([H])([H])C2([H])[H])c(C2([H])C([H])([H])C2([H])[H])nc1C([H])([H])Oc1c([H])c([H])c2c(c1[H])C([H])([H])N(C(=O)C([H])(N([H])C(=O)C([H])(N([H])C([H])([H])[H])C([H])([H])[H])C(C([H])([H])[H])(C([H])([H])[H])C([H])([H])[H])C([H])(C(=O)N([H])C1([H])c3c([H])c([H])c([H])c([H])c3C([H])([H])C([H])([H])C1([H])[H])C2([H])[H]

$$$$
42:0:0
     RDKit          3D

 93103  0  0  1  0  0  0  0  0999 V2000
  -28.4500  -22.2990   20.7040 C   0  0  0  0  0  3  0  0  0  0  0  0
  -28.7490  -23.6390   20.3880 C   0  0  0  0  0  0  0  0  0  0  0  0
  -30.0940  -22.1930   19.2550 C   0  0  0  0  0  3  0  0  0  0  0  0
  -29.2450  -21.4100   19.9620 N   0  0  0  0  0  0  0  0  0  0  0  0
  -29.7880  -23.4940   19.4980 N   0  0  0  0  0  0  0  0  0  0  0  0
  -30.2360  -24.2740   19.0300 H   0  0  0  0  0  0  0  0  0  0  0  0
  -32.4600  -21.1980   18.6460 C   0  0  0  0  0  2  0  0  0  0  0  0
  -32.3510  -22.5000   17.8850 C   0  0  0  0  0  2  0  0  0  0  0  0
  -31.1030  -21.7240   18.2470 C   0  0  0  0  0  3  0  0  0  0  0  0
  -28.0840  -25.0010   20.8690 C   0  0  0  0  0  2  0  0  0  0  0  0
  -28.3730  -26.3710   20.3030 O   0  0  0  0  0  0  0  0  0  0  0  0
  -24.6110  -31.8800   23.2440 C   0  0  0  0  0  0  0  0  0  0  0  0
  -27.2870  -27.2800   20.2600 C   0  0  0  0  0  0  0  0  0  0  0  0
  -23.4320  -30.4610   21.6020 C   0  0  0  0  0  3  0  0  0  0  0  0
  -24.9130  -28.9050   20.2010 C   0  0  0  0  0  0  0  0  0  0  0  0
  -25.9710  -30.7950   21.4340 C   0  0  0  0  0  2  0  0  0  0  0  0
  -26.0760  -29.4030   20.8060 C   0  0  0  0  0  0  0  0  0  0  0  0
  -27.2660  -28.6030   20.8270 C   0  0  0  0  0  3  0  0  0  0  0  0
  -26.1070  -26.8590   19.6120 C   0  0  0  0  0  3  0  0  0  0  0  0
  -24.9360  -27.6410   19.5910 C   0  0  0  0  0  3  0  0  0  0  0  0
  -23.6680  -29.7710   20.2310 C   0  0  0  0  0  2  0  0  0  0  0  0
  -24.6910  -31.0630   22.1520 N   0  0  0  0  0  0  0  0  0  0  0  0
  -23.5210  -32.1500   23.7700 O   0  0  0  0  0  0  0  0  0  0  0  0
  -22.7670  -29.4490   22.5650 C   0  0  0  0  0  0  0  0  0  0  0  0
  -21.4400  -29.2760   22.4410 N   0  0  0  0  0  0  0  0  0  0  0  0
  -23.4460  -28.8220   23.3830 O   0  0  0  0  0  0  0  0  0  0  0  0
  -20.9510  -29.8340   21.7540 H   0  0  0  0  0  0  0  0  0  0  0  0
  -18.0630  -28.0810   22.9560 C   0  0  0  0  0  0  0  0  0  0  0  0
  -20.6230  -28.3390   23.2140 C   0  0  0  0  0  3  0  0  0  0  0  0
  -20.7210  -26.9060   22.6390 C   0  0  0  0  0  2  0  0  0  0  0  0
  -19.6150  -26.5860   21.6280 C   0  0  0  0  0  2  0  0  0  0  0  0
  -18.2350  -26.7330   22.2770 C   0  0  0  0  0  2  0  0  0  0  0  0
  -19.1850  -28.8410   23.3820 C   0  0  0  0  0  0  0  0  0  0  0  0
  -18.9700  -30.1030   23.9780 C   0  0  0  0  0  3  0  0  0  0  0  0
  -17.6660  -30.6040   24.1520 C   0  0  0  0  0  3  0  0  0  0  0  0
  -16.5600  -29.8420   23.7410 C   0  0  0  0  0  3  0  0  0  0  0  0
  -16.7590  -28.5810   23.1490 C   0  0  0  0  0  3  0  0  0  0  0  0
  -25.8820  -32.5280   23.8730 C   0  0  0  0  0  3  0  0  0  0  0  0
  -26.3940  -31.7650   25.1560 C   0  0  1  0  0  0  0  0  0  0  0  0
  -25.2960  -31.5180   26.2170 C   0  0  0  0  0  1  0  0  0  0  0  0
  -26.9900  -30.3910   24.7690 C   0  0  0  0  0  1  0  0  0  0  0  0
  -27.5380  -32.5660   25.8210 C   0  0  0  0  0  1  0  0  0  0  0  0
  -25.5580  -33.9240   24.2000 N   0  0  0  0  0  0  0  0  0  0  0  0
  -25.8870  -34.9790   23.4430 C   0  0  0  0  0  0  0  0  0  0  0  0
  -26.5630  -34.8790   22.4160 O   0  0  0  0  0  0  0  0  0  0  0  0
  -24.9620  -34.0760   25.0000 H   0  0  0  0  0  0  0  0  0  0  0  0
  -24.1520  -36.7580   23.0620 C   0  0  0  0  0  1  0  0  0  0  0  0
  -25.3850  -36.3660   23.8910 C   0  0  0  0  0  3  0  0  0  0  0  0
  -27.5050  -37.2650   24.7440 C   0  0  0  0  0  1  0  0  0  0  0  0
  -26.4120  -37.4260   23.7880 N   0  0  0  0  0  0  0  0  0  0  0  0
  -26.0000  -38.3450   23.9310 H   0  0  0  0  0  0  0  0  0  0  0  0
  -29.0330  -19.8770   19.6920 C   0  0  0  0  0  2  0  0  0  0  0  0
  -30.6740  -14.8210   19.9940 C   0  0  0  0  0  0  0  0  0  0  0  0
  -30.4080  -12.5590   18.9380 C   0  0  0  0  0  2  0  0  0  0  0  0
  -29.4040  -12.6580   17.7700 C   0  0  0  0  0  2  0  0  0  0  0  0
  -27.9640  -12.4710   18.2850 C   0  0  0  0  0  2  0  0  0  0  0  0
  -27.6660  -13.3200   19.5480 C   0  0  0  0  0  3  0  0  0  0  0  0
  -28.7890  -13.2150   20.6030 C   0  0  0  0  0  2  0  0  0  0  0  0
  -30.0380  -13.5950   19.9350 N   0  0  0  0  0  0  0  0  0  0  0  0
  -31.8140  -14.9170   19.5290 O   0  0  0  0  0  0  0  0  0  0  0  0
  -29.5860  -18.0700   21.6320 C   0  0  0  0  0  2  0  0  0  0  0  0
  -29.8980  -16.5340   21.6710 C   0  0  0  0  0  2  0  0  0  0  0  0
  -29.7560  -17.2130   19.4430 C   0  0  0  0  0  2  0  0  0  0  0  0
  -29.9090  -18.6020   20.2260 C   0  0  0  0  0  3  0  0  0  0  0  0
  -29.9410  -15.9790   20.3060 N   0  0  0  0  0  0  0  0  0  0  0  0
  -25.3270  -13.8910   20.4250 C   0  0  0  0  0  0  0  0  0  0  0  0
  -24.2810  -13.1100   20.8320 C   0  0  0  0  0  0  0  0  0  0  0  0
  -24.7380  -11.7590   20.7440 C   0  0  0  0  0  0  0  0  0  0  0  0
  -26.3530  -13.0180   20.1080 N   0  0  0  0  0  0  0  0  0  0  0  0
  -26.0090  -11.7280   20.3590 N   0  0  0  0  0  0  0  0  0  0  0  0
  -24.0190  -10.4950   20.9460 C   0  0  0  0  0  0  0  0  0  0  0  0
  -24.4700   -9.5270   21.8690 C   0  0  0  0  0  3  0  0  0  0  0  0
  -23.7480   -8.3290   22.0580 C   0  0  0  0  0  3  0  0  0  0  0  0
  -22.5600   -8.0910   21.3260 C   0  0  0  0  0  0  0  0  0  0  0  0
  -22.1310   -9.0490   20.3910 C   0  0  0  0  0  3  0  0  0  0  0  0
  -22.8520  -10.2380   20.1990 C   0  0  0  0  0  3  0  0  0  0  0  0
  -21.8080   -6.9450   21.4270 O   0  0  0  0  0  0  0  0  0  0  0  0
  -21.7390   -6.2290   22.5960 C   0  0  0  0  0  0  0  0  0  0  0  0
  -21.2850   -6.8120   23.8000 C   0  0  0  0  0  3  0  0  0  0  0  0
  -21.1630   -6.0240   24.9610 C   0  0  0  0  0  3  0  0  0  0  0  0
  -21.4830   -4.6530   24.9200 C   0  0  0  0  0  0  0  0  0  0  0  0
  -21.9300   -4.0700   23.7200 C   0  0  0  0  0  3  0  0  0  0  0  0
  -22.0540   -4.8560   22.5610 C   0  0  0  0  0  0  0  0  0  0  0  0
  -22.4640   -4.2830   21.4030 F   0  0  0  0  0  0  0  0  0  0  0  0
  -21.3600   -3.8940   26.0320 F   0  0  0  0  0  0  0  0  0  0  0  0
  -22.9040  -13.5850   21.1960 C   0  0  0  0  0  0  0  0  0  0  0  0
  -22.2290  -12.8750   22.0890 N   0  0  0  0  0  0  0  0  0  0  0  0
  -22.4420  -14.6230   20.7220 O   0  0  0  0  0  0  0  0  0  0  0  0
  -22.6180  -12.0350   22.4920 H   0  0  0  0  0  0  0  0  0  0  0  0
  -21.3110  -13.1760   22.3780 H   0  0  0  0  0  0  0  0  0  0  0  0
  -25.4830  -15.2660   20.2730 N   0  0  0  0  0  0  0  0  0  0  0  0
  -24.7210  -15.9110   20.4470 H   0  0  0  0  0  0  0  0  0  0  0  0
  -26.3160  -15.7250   19.9310 H   0  0  0  0  0  0  0  0  0  0  0  0
  2  1  2  0
  2 10  1  0
  3  9  1  0
  3  5  1  0
  3  4  1  0
  4  1  1  0
  5  2  1  0
  6  5  1  0
  8  9  1  0
  8  7  1  0
  9  7  1  0
 11 10  1  0
 12 23  2  0
 13 11  1  0
 13 18  1  0
 14 22  1  0
 14 24  1  0
 15 21  1  0
 15 17  1  0
 16 22  1  0
 17 18  2  0
 17 16  1  0
 19 13  2  0
 20 19  1  0
 20 15  2  0
 21 14  1  0
 22 12  1  0
 24 26  2  0
 25 24  1  0
 27 25  1  0
 28 37  2  0
 28 33  1  0
 29 25  1  0
 29 33  1  0
 30 29  1  0
 31 32  1  0
 31 30  1  0
 32 28  1  0
 33 34  2  0
 34 35  1  0
 36 35  2  0
 37 36  1  0
 38 12  1  0
 38 43  1  0
 38 39  1  0
 39 42  1  1
 39 40  1  0
 41 39  1  0
 43 46  1  0
 44 48  1  0
 44 43  1  0
 45 44  2  0
 48 47  1  0
 50 48  1  0
 50 51  1  0
 50 49  1  0
 52  4  1  0
 53 65  1  0
 54 59  1  0
 55 56  1  0
 55 54  1  0
 57 56  1  0
 57 69  1  0
 57 58  1  0
 59 53  1  0
 59 58  1  0
 60 53  2  0
 61 62  1  0
 63 64  1  0
 63 65  1  0
 64 52  1  0
 64 61  1  0
 65 62  1  0
 66 67  2  0
 67 86  1  0
 68 67  1  0
 68 71  1  0
 69 70  1  0
 69 66  1  0
 70 68  2  0
 71 72  1  0
 72 73  2  0
 74 77  1  0
 74 73  1  0
 75 74  2  0
 76 75  1  0
 76 71  2  0
 77 78  1  0
 78 79  1  0
 79 80  2  0
 81 80  1  0
 81 85  1  0
 82 81  2  0
 83 78  2  0
 83 82  1  0
 84 83  1  0
 86 87  1  0
 87 90  1  0
 87 89  1  0
 88 86  2  0
 91 66  1  0
 91 92  1  0
 93 91  1  0
M  ISO  4  10 101  11 101  53 100  65 100
M  END
>  <TORSDO>  (43) 
F 19

>  <SCORE>  (43) 
-13.777

>  <name>  (43) 
42

>  <ligand_id>  (43) 
42

>  <original_smiles>  (43) 
[H]c1c([H])c([H])c2c(c1[H])C([H])([H])C([H])([H])C([H])([H])C2([H])N([H])C(=O)C1([H])N(C(=O)C([H])(N([H])C(=O)C([H])(N([H])C([H])([H])[H])C([H])([H])[H])C(C([H])([H])[H])(C([H])([H])[H])C([H])([H])[H])C([H])([H])c2c([H])c(OC([H])([H])c3c([H])n(C([H])([H])C4([H])C([H])([H])N(C(=O)N5C([H])([H])C([H])([H])C([H])([H])C([H])(n6nc(-c7c([H])c([H])c(Oc8c([H])c([H])c(F)c([H])c8F)c([H])c7[H])c(C(=O)N([H])[H])c6N([H])[H])C5([H])[H])C([H])([H])C4([H])[H])c(C4([H])C([H])([H])C4([H])[H])[n+]3[H])c([H])c([H])c2C1([H])[H]

>  <smiles>  (43) 
[H]c1c([H])c([H])c2c(c1[H])C([H])([H])C([H])([H])C([H])([H])C2([H])N([H])C(=O)C1([H])N(C(=O)C([H])(N([H])C(=O)C([H])(N([H])C([H])([H])[H])C([H])([H])[H])C(C([H])([H])[H])(C([H])([H])[H])C([H])([H])[H])C([H])([H])c2c([H])c(OC([H])([H])c3c([H])n(C([H])([H])C4([H])C([H])([H])N(C(=O)N5C([H])([H])C([H])([H])C([H])([H])C([H])(n6nc(-c7c([H])c([H])c(Oc8c([H])c([H])c(F)c([H])c8F)c([H])c7[H])c(C(=O)N([H])[H])c6N([H])[H])C5([H])[H])C([H])([H])C4([H])[H])c(C4([H])C([H])([H])C4([H])[H])[n+]3[H])c([H])c([H])c2C1([H])[H]

$$$$
43:0:0
     RDKit          3D

 90 99  0  0  1  0  0  0  0  0999 V2000
  -30.6490  -21.0530   19.3830 C   0  0  0  0  0  3  0  0  0  0  0  0
  -28.5200  -20.2570   19.2220 C   0  0  0  0  0  0  0  0  0  0  0  0
  -28.0770  -21.6580   19.1600 C   0  0  0  0  0  0  0  0  0  0  0  0
  -29.8870  -19.7990   19.3340 C   0  0  0  0  0  0  0  0  0  0  0  0
  -28.9070  -22.8600   19.2200 C   0  0  0  0  0  0  0  0  0  0  0  0
  -27.3380  -19.3270   19.1260 C   0  0  0  0  0  2  0  0  0  0  0  0
  -26.5750  -21.6910   18.9720 C   0  0  0  0  0  2  0  0  0  0  0  0
  -26.1750  -20.2300   18.6720 C   0  0  0  0  0  2  0  0  0  0  0  0
  -30.2270  -22.4170   19.3110 N   0  0  0  0  0  0  0  0  0  0  0  0
  -30.6150  -18.2220   19.5050 C   0  0  0  0  0  2  0  0  0  0  0  0
  -30.9000  -15.3660   19.6930 C   0  0  0  0  0  0  0  0  0  0  0  0
  -30.7850  -12.8940   18.9570 C   0  0  0  0  0  2  0  0  0  0  0  0
  -29.8040  -12.6510   17.7840 C   0  0  0  0  0  2  0  0  0  0  0  0
  -28.3750  -12.4310   18.3090 C   0  0  0  0  0  2  0  0  0  0  0  0
  -27.9940  -13.4560   19.4060 C   0  0  0  0  0  3  0  0  0  0  0  0
  -29.0970  -13.6460   20.4680 C   0  0  0  0  0  2  0  0  0  0  0  0
  -30.3030  -14.0820   19.7480 N   0  0  0  0  0  0  0  0  0  0  0  0
  -32.1030  -15.3370   19.4010 O   0  0  0  0  0  0  0  0  0  0  0  0
  -30.1780  -16.6500   19.7540 N   0  0  0  0  0  0  0  0  0  0  0  0
  -29.1960  -16.5310   19.9530 H   0  0  0  0  0  0  0  0  0  0  0  0
  -25.7180  -14.0890   20.3660 C   0  0  0  0  0  0  0  0  0  0  0  0
  -24.6450  -13.3440   20.7700 C   0  0  0  0  0  0  0  0  0  0  0  0
  -25.0350  -11.9760   20.6290 C   0  0  0  0  0  0  0  0  0  0  0  0
  -26.6910  -13.1790   19.9970 N   0  0  0  0  0  0  0  0  0  0  0  0
  -26.2980  -11.8980   20.2210 N   0  0  0  0  0  0  0  0  0  0  0  0
  -24.2570  -10.7420   20.8000 C   0  0  0  0  0  0  0  0  0  0  0  0
  -24.6470   -9.7440   21.7190 C   0  0  0  0  0  3  0  0  0  0  0  0
  -23.8700   -8.5760   21.8800 C   0  0  0  0  0  3  0  0  0  0  0  0
  -22.6870   -8.4000   21.1240 C   0  0  0  0  0  0  0  0  0  0  0  0
  -22.3160   -9.3870   20.1920 C   0  0  0  0  0  3  0  0  0  0  0  0
  -23.0930  -10.5460   20.0290 C   0  0  0  0  0  3  0  0  0  0  0  0
  -21.8830   -7.2890   21.1950 O   0  0  0  0  0  0  0  0  0  0  0  0
  -21.7340   -6.5820   22.3620 C   0  0  0  0  0  0  0  0  0  0  0  0
  -21.2370   -7.1840   23.5390 C   0  0  0  0  0  3  0  0  0  0  0  0
  -21.0360   -6.4050   24.6970 C   0  0  0  0  0  3  0  0  0  0  0  0
  -21.3200   -5.0260   24.6770 C   0  0  0  0  0  0  0  0  0  0  0  0
  -21.8080   -4.4250   23.5030 C   0  0  0  0  0  3  0  0  0  0  0  0
  -22.0120   -5.2010   22.3490 C   0  0  0  0  0  0  0  0  0  0  0  0
  -22.4640   -4.6120   21.2160 F   0  0  0  0  0  0  0  0  0  0  0  0
  -21.1180   -4.2760   25.7850 F   0  0  0  0  0  0  0  0  0  0  0  0
  -23.2970  -13.8720   21.1670 C   0  0  0  0  0  0  0  0  0  0  0  0
  -22.6020  -13.1700   22.0530 N   0  0  0  0  0  0  0  0  0  0  0  0
  -22.8760  -14.9410   20.7260 O   0  0  0  0  0  0  0  0  0  0  0  0
  -22.9590  -12.3030   22.4280 H   0  0  0  0  0  0  0  0  0  0  0  0
  -21.7010  -13.5020   22.3630 H   0  0  0  0  0  0  0  0  0  0  0  0
  -25.9370  -15.4570   20.2500 N   0  0  0  0  0  0  0  0  0  0  0  0
  -25.2060  -16.1350   20.4410 H   0  0  0  0  0  0  0  0  0  0  0  0
  -26.7630  -15.8700   19.8380 H   0  0  0  0  0  0  0  0  0  0  0  0
  -28.3860  -24.4740   18.8070 C   0  0  0  0  0  2  0  0  0  0  0  0
  -28.5880  -25.9910   19.3670 O   0  0  0  0  0  0  0  0  0  0  0  0
  -24.5760  -31.3490   22.8000 C   0  0  0  0  0  0  0  0  0  0  0  0
  -27.5150  -27.0180   19.3680 C   0  0  0  0  0  0  0  0  0  0  0  0
  -23.5010  -30.0230   21.0280 C   0  0  0  0  0  3  0  0  0  0  0  0
  -25.0750  -28.6900   19.4730 C   0  0  0  0  0  0  0  0  0  0  0  0
  -26.0410  -30.4560   20.9280 C   0  0  0  0  0  2  0  0  0  0  0  0
  -26.2240  -29.1280   20.1440 C   0  0  0  0  0  0  0  0  0  0  0  0
  -27.4370  -28.3120   20.0750 C   0  0  0  0  0  3  0  0  0  0  0  0
  -26.3290  -26.7360   18.6520 C   0  0  0  0  0  3  0  0  0  0  0  0
  -25.1500  -27.5160   18.7090 C   0  0  0  0  0  3  0  0  0  0  0  0
  -23.7860  -29.4960   19.5950 C   0  0  0  0  0  2  0  0  0  0  0  0
  -24.7250  -30.6310   21.6410 N   0  0  0  0  0  0  0  0  0  0  0  0
  -23.4670  -31.5000   23.3360 O   0  0  0  0  0  0  0  0  0  0  0  0
  -22.8890  -28.8860   21.8880 C   0  0  0  0  0  0  0  0  0  0  0  0
  -21.5650  -28.6670   21.7790 N   0  0  0  0  0  0  0  0  0  0  0  0
  -23.6110  -28.2070   22.6230 O   0  0  0  0  0  0  0  0  0  0  0  0
  -21.0330  -29.2700   21.1690 H   0  0  0  0  0  0  0  0  0  0  0  0
  -18.2550  -27.2700   22.2750 C   0  0  0  0  0  0  0  0  0  0  0  0
  -20.8140  -27.6080   22.4610 C   0  0  0  0  0  3  0  0  0  0  0  0
  -20.9390  -26.2640   21.7070 C   0  0  0  0  0  2  0  0  0  0  0  0
  -19.8020  -26.0250   20.7080 C   0  0  0  0  0  2  0  0  0  0  0  0
  -18.4480  -26.0270   21.4240 C   0  0  0  0  0  2  0  0  0  0  0  0
  -19.3640  -28.0210   22.7490 C   0  0  0  0  0  0  0  0  0  0  0  0
  -19.1260  -29.1850   23.5110 C   0  0  0  0  0  3  0  0  0  0  0  0
  -17.8120  -29.6020   23.8000 C   0  0  0  0  0  3  0  0  0  0  0  0
  -16.7190  -28.8490   23.3390 C   0  0  0  0  0  3  0  0  0  0  0  0
  -16.9410  -27.6840   22.5840 C   0  0  0  0  0  3  0  0  0  0  0  0
  -25.7920  -32.0280   23.4990 C   0  0  0  0  0  3  0  0  0  0  0  0
  -25.3920  -33.3960   23.8720 N   0  0  0  0  0  0  0  0  0  0  0  0
  -25.7560  -34.5070   23.2180 C   0  0  0  0  0  0  0  0  0  0  0  0
  -26.5240  -34.4910   22.2530 O   0  0  0  0  0  0  0  0  0  0  0  0
  -24.7180  -33.4800   24.6180 H   0  0  0  0  0  0  0  0  0  0  0  0
  -23.9940  -36.2620   22.8190 C   0  0  0  0  0  1  0  0  0  0  0  0
  -25.1770  -35.8500   23.7100 C   0  0  0  0  0  3  0  0  0  0  0  0
  -27.1870  -36.7690   24.7810 C   0  0  0  0  0  1  0  0  0  0  0  0
  -26.1730  -36.9440   23.7450 N   0  0  0  0  0  0  0  0  0  0  0  0
  -25.7190  -37.8410   23.8930 H   0  0  0  0  0  0  0  0  0  0  0  0
  -26.2890  -31.2420   24.7760 C   0  0  1  0  0  0  0  0  0  0  0  0
  -25.1680  -30.9370   25.7960 C   0  0  0  0  0  1  0  0  0  0  0  0
  -26.9380  -29.8970   24.3790 C   0  0  0  0  0  1  0  0  0  0  0  0
  -27.3800  -32.0620   25.5020 C   0  0  0  0  0  1  0  0  0  0  0  0
  2  4  2  0
  3  5  2  0
  3  2  1  0
  4  1  1  0
  4 10  1  0
  5  9  1  0
  6  2  1  0
  7  3  1  0
  8  7  1  0
  8  6  1  0
  9  1  2  0
 10 19  1  0
 11 17  1  0
 11 19  1  0
 12 17  1  0
 13 14  1  0
 13 12  1  0
 15 14  1  0
 15 24  1  0
 15 16  1  0
 17 16  1  0
 18 11  2  0
 19 20  1  0
 21 22  2  0
 22 41  1  0
 23 22  1  0
 23 26  1  0
 24 25  1  0
 24 21  1  0
 25 23  2  0
 26 27  1  0
 27 28  2  0
 29 32  1  0
 29 28  1  0
 30 29  2  0
 31 30  1  0
 31 26  2  0
 32 33  1  0
 33 34  1  0
 34 35  2  0
 36 35  1  0
 36 40  1  0
 37 36  2  0
 38 33  2  0
 38 37  1  0
 39 38  1  0
 41 42  1  0
 42 45  1  0
 42 44  1  0
 43 41  2  0
 46 21  1  0
 46 47  1  0
 48 46  1  0
 49  5  1  0
 49 50  1  0
 50 52  1  0
 51 62  2  0
 52 57  1  0
 53 61  1  0
 53 63  1  0
 54 60  1  0
 54 56  1  0
 55 61  1  0
 56 55  1  0
 57 56  2  0
 58 59  1  0
 58 52  2  0
 59 54  2  0
 60 53  1  0
 61 51  1  0
 63 65  2  0
 64 63  1  0
 66 64  1  0
 67 76  2  0
 67 72  1  0
 68 64  1  0
 68 72  1  0
 69 68  1  0
 70 71  1  0
 70 69  1  0
 71 67  1  0
 72 73  2  0
 73 74  1  0
 75 74  2  0
 76 75  1  0
 77 51  1  0
 77 78  1  0
 77 87  1  0
 78 81  1  0
 79 83  1  0
 79 78  1  0
 80 79  2  0
 83 82  1  0
 83 85  1  0
 85 86  1  0
 85 84  1  0
 87 90  1  1
 87 88  1  0
 89 87  1  0
M  ISO  4  11 100  19 100  49 101  50 101
M  END
>  <TORSDO>  (44) 
F 18

>  <SCORE>  (44) 
-13.774

>  <name>  (44) 
43

>  <ligand_id>  (44) 
43

>  <original_smiles>  (44) 
[H]c1nc(C([H])([H])Oc2c([H])c([H])c3c(c2[H])C([H])([H])N(C(=O)C([H])(N([H])C(=O)C([H])(N([H])C([H])([H])[H])C([H])([H])[H])C(C([H])([H])[H])(C([H])([H])[H])C([H])([H])[H])C([H])(C(=O)N([H])C2([H])c4c([H])c([H])c([H])c([H])c4C([H])([H])C([H])([H])C2([H])[H])C3([H])[H])c2c(c1C([H])([H])N([H])C(=O)N1C([H])([H])C([H])([H])C([H])([H])C([H])(n3nc(-c4c([H])c([H])c(Oc5c([H])c([H])c(F)c([H])c5F)c([H])c4[H])c(C(=O)N([H])[H])c3N([H])[H])C1([H])[H])C([H])([H])C([H])([H])C2([H])[H]

>  <smiles>  (44) 
[H]c1nc(C([H])([H])Oc2c([H])c([H])c3c(c2[H])C([H])([H])N(C(=O)C([H])(N([H])C(=O)C([H])(N([H])C([H])([H])[H])C([H])([H])[H])C(C([H])([H])[H])(C([H])([H])[H])C([H])([H])[H])C([H])(C(=O)N([H])C2([H])c4c([H])c([H])c([H])c([H])c4C([H])([H])C([H])([H])C2([H])[H])C3([H])[H])c2c(c1C([H])([H])N([H])C(=O)N1C([H])([H])C([H])([H])C([H])([H])C([H])(n3nc(-c4c([H])c([H])c(Oc5c([H])c([H])c(F)c([H])c5F)c([H])c4[H])c(C(=O)N([H])[H])c3N([H])[H])C1([H])[H])C([H])([H])C([H])([H])C2([H])[H]

$$$$
44:0:0
     RDKit          3D

 92101  0  0  1  0  0  0  0  0999 V2000
  -28.6490  -21.6840   20.6010 C   0  0  0  0  0  0  0  0  0  0  0  0
  -29.4480  -20.5070   20.0870 C   0  0  0  0  0  0  0  0  0  0  0  0
  -28.8410  -23.1130   20.1180 C   0  0  0  0  0  0  0  0  0  0  0  0
  -30.5150  -22.1550   18.8000 C   0  0  0  0  0  0  0  0  0  0  0  0
  -31.5990  -22.4190   17.7700 C   0  0  0  0  0  1  0  0  0  0  0  0
  -30.3790  -20.8730   19.1800 N   0  0  0  0  0  0  0  0  0  0  0  0
  -29.8200  -23.2340   19.1980 N   0  0  0  0  0  0  0  0  0  0  0  0
  -30.5930  -15.2580   20.2270 C   0  0  0  0  0  0  0  0  0  0  0  0
  -30.4940  -12.8560   19.3390 C   0  0  0  0  0  2  0  0  0  0  0  0
  -29.5630  -12.7410   18.1110 C   0  0  0  0  0  2  0  0  0  0  0  0
  -28.1110  -12.4900   18.5570 C   0  0  0  0  0  2  0  0  0  0  0  0
  -27.6880  -13.4230   19.7240 C   0  0  0  0  0  3  0  0  0  0  0  0
  -28.7550  -13.5220   20.8350 C   0  0  0  0  0  2  0  0  0  0  0  0
  -29.9920  -13.9840   20.1930 N   0  0  0  0  0  0  0  0  0  0  0  0
  -31.7980  -15.2640   19.9500 O   0  0  0  0  0  0  0  0  0  0  0  0
  -29.3560  -17.5400   19.4220 C   0  0  0  0  0  2  0  0  0  0  0  0
  -30.4970  -17.8080   21.0370 C   0  0  0  0  0  2  0  0  0  0  0  0
  -29.4160  -18.8170   20.4080 C   0  0  0  0  0  3  0  0  0  0  0  0
  -29.8890  -16.5210   20.4460 N   0  0  0  0  0  0  0  0  0  0  0  0
  -25.3300  -13.9620   20.5320 C   0  0  0  0  0  0  0  0  0  0  0  0
  -24.2750  -13.1730   20.9050 C   0  0  0  0  0  0  0  0  0  0  0  0
  -24.7470  -11.8250   20.8390 C   0  0  0  0  0  0  0  0  0  0  0  0
  -26.3700  -13.0950   20.2510 N   0  0  0  0  0  0  0  0  0  0  0  0
  -26.0330  -11.8030   20.5030 N   0  0  0  0  0  0  0  0  0  0  0  0
  -24.0270  -10.5560   21.0160 C   0  0  0  0  0  0  0  0  0  0  0  0
  -24.4440   -9.5990   21.9660 C   0  0  0  0  0  3  0  0  0  0  0  0
  -23.7220   -8.3960   22.1330 C   0  0  0  0  0  3  0  0  0  0  0  0
  -22.5700   -8.1450   21.3510 C   0  0  0  0  0  0  0  0  0  0  0  0
  -22.1740   -9.0910   20.3900 C   0  0  0  0  0  3  0  0  0  0  0  0
  -22.8960  -10.2840   20.2190 C   0  0  0  0  0  3  0  0  0  0  0  0
  -21.8220   -6.9940   21.4260 O   0  0  0  0  0  0  0  0  0  0  0  0
  -21.7010   -6.2890   22.5970 C   0  0  0  0  0  0  0  0  0  0  0  0
  -21.1320   -6.8600   23.7560 C   0  0  0  0  0  3  0  0  0  0  0  0
  -20.9630   -6.0790   24.9170 C   0  0  0  0  0  3  0  0  0  0  0  0
  -21.3530   -4.7260   24.9180 C   0  0  0  0  0  0  0  0  0  0  0  0
  -21.9140   -4.1530   23.7640 C   0  0  0  0  0  3  0  0  0  0  0  0
  -22.0850   -4.9320   22.6050 C   0  0  0  0  0  0  0  0  0  0  0  0
  -22.6070   -4.3690   21.4890 F   0  0  0  0  0  0  0  0  0  0  0  0
  -21.1830   -3.9740   26.0300 F   0  0  0  0  0  0  0  0  0  0  0  0
  -22.8820  -13.6400   21.2040 C   0  0  0  0  0  0  0  0  0  0  0  0
  -22.1660  -12.9200   22.0590 N   0  0  0  0  0  0  0  0  0  0  0  0
  -22.4360  -14.6780   20.7150 O   0  0  0  0  0  0  0  0  0  0  0  0
  -22.5400  -12.0830   22.4800 H   0  0  0  0  0  0  0  0  0  0  0  0
  -21.2270  -13.2070   22.2900 H   0  0  0  0  0  0  0  0  0  0  0  0
  -25.4860  -15.3360   20.3800 N   0  0  0  0  0  0  0  0  0  0  0  0
  -24.7240  -15.9900   20.5170 H   0  0  0  0  0  0  0  0  0  0  0  0
  -26.3400  -15.7820   20.0650 H   0  0  0  0  0  0  0  0  0  0  0  0
  -27.6880  -21.4350   21.5870 N   0  0  0  0  0  0  0  0  0  0  0  0
  -27.7420  -20.5730   22.1270 H   0  0  0  0  0  0  0  0  0  0  0  0
  -27.3410  -22.2100   22.1470 H   0  0  0  0  0  0  0  0  0  0  0  0
  -27.9440  -24.5370   20.4430 C   0  0  0  0  0  2  0  0  0  0  0  0
  -28.2530  -26.1010   20.1890 O   0  0  0  0  0  0  0  0  0  0  0  0
  -24.6010  -31.9250   23.1940 C   0  0  0  0  0  0  0  0  0  0  0  0
  -27.2150  -27.1450   20.1690 C   0  0  0  0  0  0  0  0  0  0  0  0
  -23.4180  -30.5210   21.5550 C   0  0  0  0  0  3  0  0  0  0  0  0
  -24.8820  -28.9430   20.1340 C   0  0  0  0  0  0  0  0  0  0  0  0
  -25.9770  -30.7810   21.3970 C   0  0  0  0  0  2  0  0  0  0  0  0
  -26.0660  -29.3790   20.7460 C   0  0  0  0  0  0  0  0  0  0  0  0
  -27.2320  -28.5010   20.7380 C   0  0  0  0  0  3  0  0  0  0  0  0
  -26.0020  -26.8460   19.5100 C   0  0  0  0  0  3  0  0  0  0  0  0
  -24.8710  -27.6930   19.4990 C   0  0  0  0  0  3  0  0  0  0  0  0
  -23.6520  -29.8420   20.1780 C   0  0  0  0  0  2  0  0  0  0  0  0
  -24.6870  -31.1010   22.1020 N   0  0  0  0  0  0  0  0  0  0  0  0
  -23.5110  -32.2040   23.7170 O   0  0  0  0  0  0  0  0  0  0  0  0
  -22.7390  -29.5150   22.5180 C   0  0  0  0  0  0  0  0  0  0  0  0
  -21.4110  -29.3370   22.3920 N   0  0  0  0  0  0  0  0  0  0  0  0
  -23.4130  -28.8950   23.3460 O   0  0  0  0  0  0  0  0  0  0  0  0
  -20.9220  -29.8880   21.7000 H   0  0  0  0  0  0  0  0  0  0  0  0
  -18.0330  -28.1290   22.9250 C   0  0  0  0  0  0  0  0  0  0  0  0
  -20.5970  -28.3940   23.1630 C   0  0  0  0  0  3  0  0  0  0  0  0
  -20.6940  -26.9670   22.5750 C   0  0  0  0  0  2  0  0  0  0  0  0
  -19.5810  -26.6520   21.5710 C   0  0  0  0  0  2  0  0  0  0  0  0
  -18.2060  -26.7880   22.2310 C   0  0  0  0  0  2  0  0  0  0  0  0
  -19.1560  -28.8890   23.3480 C   0  0  0  0  0  0  0  0  0  0  0  0
  -18.9400  -30.1430   23.9610 C   0  0  0  0  0  3  0  0  0  0  0  0
  -17.6360  -30.6360   24.1540 C   0  0  0  0  0  3  0  0  0  0  0  0
  -16.5290  -29.8740   23.7440 C   0  0  0  0  0  3  0  0  0  0  0  0
  -16.7280  -28.6220   23.1350 C   0  0  0  0  0  3  0  0  0  0  0  0
  -25.8700  -32.5780   23.8230 C   0  0  0  0  0  3  0  0  0  0  0  0
  -25.5460  -33.9760   24.1550 N   0  0  0  0  0  0  0  0  0  0  0  0
  -25.8720  -35.0370   23.4040 C   0  0  0  0  0  0  0  0  0  0  0  0
  -26.5430  -34.9420   22.3730 O   0  0  0  0  0  0  0  0  0  0  0  0
  -24.9490  -34.1230   24.9560 H   0  0  0  0  0  0  0  0  0  0  0  0
  -24.1430  -36.8330   23.0500 C   0  0  0  0  0  1  0  0  0  0  0  0
  -25.3790  -36.4230   23.8680 C   0  0  0  0  0  3  0  0  0  0  0  0
  -27.4970  -37.3150   24.7340 C   0  0  0  0  0  1  0  0  0  0  0  0
  -26.4110  -37.4790   23.7710 N   0  0  0  0  0  0  0  0  0  0  0  0
  -26.0000  -38.3970   23.9120 H   0  0  0  0  0  0  0  0  0  0  0  0
  -26.3820  -31.8160   25.1080 C   0  0  1  0  0  0  0  0  0  0  0  0
  -25.2810  -31.5690   26.1660 C   0  0  0  0  0  1  0  0  0  0  0  0
  -26.9830  -30.4410   24.7350 C   0  0  0  0  0  1  0  0  0  0  0  0
  -27.5210  -32.6200   25.7780 C   0  0  0  0  0  1  0  0  0  0  0  0
  1 48  1  0
  2  1  2  0
  3 51  1  0
  3  1  1  0
  4  6  2  0
  4  7  1  0
  5  4  1  0
  6  2  1  0
  7  3  2  0
  8 19  1  0
  9 14  1  0
 10 11  1  0
 10  9  1  0
 12 11  1  0
 12 23  1  0
 12 13  1  0
 14  8  1  0
 14 13  1  0
 15  8  2  0
 16 18  1  0
 16 19  1  0
 18  2  1  0
 18 17  1  0
 19 17  1  0
 20 21  2  0
 21 40  1  0
 22 21  1  0
 22 25  1  0
 23 24  1  0
 23 20  1  0
 24 22  2  0
 25 26  1  0
 26 27  2  0
 28 31  1  0
 28 27  1  0
 29 28  2  0
 30 29  1  0
 30 25  2  0
 31 32  1  0
 32 37  2  0
 32 33  1  0
 33 34  2  0
 34 35  1  0
 35 39  1  0
 36 35  2  0
 37 36  1  0
 38 37  1  0
 40 41  1  0
 41 44  1  0
 41 43  1  0
 42 40  2  0
 45 46  1  0
 45 20  1  0
 47 45  1  0
 48 49  1  0
 48 50  1  0
 52 51  1  0
 53 64  2  0
 54 52  1  0
 54 59  1  0
 55 63  1  0
 55 65  1  0
 56 62  1  0
 56 58  1  0
 57 63  1  0
 58 57  1  0
 59 58  2  0
 60 54  2  0
 61 60  1  0
 61 56  2  0
 62 55  1  0
 63 53  1  0
 65 67  2  0
 66 65  1  0
 68 66  1  0
 69 78  2  0
 69 74  1  0
 70 66  1  0
 70 74  1  0
 71 70  1  0
 72 73  1  0
 72 71  1  0
 73 69  1  0
 74 75  2  0
 75 76  1  0
 77 76  2  0
 78 77  1  0
 79 53  1  0
 79 80  1  0
 79 89  1  0
 80 83  1  0
 81 85  1  0
 81 80  1  0
 82 81  2  0
 85 84  1  0
 87 85  1  0
 87 88  1  0
 87 86  1  0
 89 92  1  1
 89 90  1  0
 91 89  1  0
M  ISO  4   8 100  19 100  51 101  52 101
M  END
>  <TORSDO>  (45) 
F 18

>  <SCORE>  (45) 
-16.064

>  <name>  (45) 
44

>  <ligand_id>  (45) 
44

>  <original_smiles>  (45) 
[H]c1c([H])c([H])c2c(c1[H])C([H])([H])C([H])([H])C([H])([H])C2([H])N([H])C(=O)C1([H])N(C(=O)C([H])(N([H])C(=O)C([H])(N([H])C([H])([H])[H])C([H])([H])[H])C(C([H])([H])[H])(C([H])([H])[H])C([H])([H])[H])C([H])([H])c2c([H])c(OC([H])([H])c3nc(C([H])([H])[H])nc(C4([H])C([H])([H])N(C(=O)N5C([H])([H])C([H])([H])C([H])([H])C([H])(n6nc(-c7c([H])c([H])c(Oc8c([H])c([H])c(F)c([H])c8F)c([H])c7[H])c(C(=O)N([H])[H])c6N([H])[H])C5([H])[H])C4([H])[H])c3N([H])[H])c([H])c([H])c2C1([H])[H]

>  <smiles>  (45) 
[H]c1c([H])c([H])c2c(c1[H])C([H])([H])C([H])([H])C([H])([H])C2([H])N([H])C(=O)C1([H])N(C(=O)C([H])(N([H])C(=O)C([H])(N([H])C([H])([H])[H])C([H])([H])[H])C(C([H])([H])[H])(C([H])([H])[H])C([H])([H])[H])C([H])([H])c2c([H])c(OC([H])([H])c3nc(C([H])([H])[H])nc(C4([H])C([H])([H])N(C(=O)N5C([H])([H])C([H])([H])C([H])([H])C([H])(n6nc(-c7c([H])c([H])c(Oc8c([H])c([H])c(F)c([H])c8F)c([H])c7[H])c(C(=O)N([H])[H])c6N([H])[H])C5([H])[H])C4([H])[H])c3N([H])[H])c([H])c([H])c2C1([H])[H]

$$$$
45:0:0
     RDKit          3D

 88 97  0  0  1  0  0  0  0  0999 V2000
  -28.0900  -22.9920   19.3720 C   0  0  0  0  0  2  0  0  0  0  0  0
  -29.1530  -23.1790   21.0430 C   0  0  0  0  0  2  0  0  0  0  0  0
  -28.4860  -21.7970   20.4480 C   0  0  0  0  0  3  0  0  0  0  0  0
  -28.0610  -24.2660   20.4270 C   0  0  0  0  0  3  0  0  0  0  0  0
  -30.5030  -15.3810   20.1900 C   0  0  0  0  0  0  0  0  0  0  0  0
  -30.4290  -12.9360   19.3100 C   0  0  0  0  0  2  0  0  0  0  0  0
  -29.4950  -12.7120   18.0970 C   0  0  0  0  0  2  0  0  0  0  0  0
  -28.0600  -12.4240   18.5660 C   0  0  0  0  0  2  0  0  0  0  0  0
  -27.6210  -13.3810   19.7040 C   0  0  0  0  0  3  0  0  0  0  0  0
  -28.6900  -13.5740   20.8010 C   0  0  0  0  0  2  0  0  0  0  0  0
  -29.8920  -14.0910   20.1260 N   0  0  0  0  0  0  0  0  0  0  0  0
  -31.7270  -15.3030   19.9940 O   0  0  0  0  0  0  0  0  0  0  0  0
  -28.9770  -17.5360   19.3960 C   0  0  0  0  0  2  0  0  0  0  0  0
  -30.6360  -17.9740   20.8940 C   0  0  0  0  0  2  0  0  0  0  0  0
  -28.3530  -19.0890   19.6670 C   0  0  0  0  0  2  0  0  0  0  0  0
  -30.0020  -19.5110   21.1930 C   0  0  0  0  0  2  0  0  0  0  0  0
  -29.8730  -16.7340   20.3650 N   0  0  0  0  0  0  0  0  0  0  0  0
  -29.2090  -20.2980   20.1300 N   0  0  2  0  0  4  0  0  0  0  0  0
  -29.8670  -20.4760   19.3850 H   0  0  0  0  0  0  0  0  0  0  0  0
  -25.2740  -13.9090   20.5320 C   0  0  0  0  0  0  0  0  0  0  0  0
  -24.2260  -13.1190   20.9120 C   0  0  0  0  0  0  0  0  0  0  0  0
  -24.7000  -11.7730   20.8480 C   0  0  0  0  0  0  0  0  0  0  0  0
  -26.3130  -13.0440   20.2460 N   0  0  0  0  0  0  0  0  0  0  0  0
  -25.9850  -11.7520   20.5070 N   0  0  0  0  0  0  0  0  0  0  0  0
  -23.9840  -10.5040   21.0350 C   0  0  0  0  0  0  0  0  0  0  0  0
  -24.4230   -9.5370   21.9660 C   0  0  0  0  0  3  0  0  0  0  0  0
  -23.7040   -8.3350   22.1430 C   0  0  0  0  0  3  0  0  0  0  0  0
  -22.5310   -8.0920   21.3890 C   0  0  0  0  0  0  0  0  0  0  0  0
  -22.1110   -9.0480   20.4460 C   0  0  0  0  0  3  0  0  0  0  0  0
  -22.8300  -10.2410   20.2670 C   0  0  0  0  0  3  0  0  0  0  0  0
  -21.7820   -6.9430   21.4760 O   0  0  0  0  0  0  0  0  0  0  0  0
  -21.7120   -6.2150   22.6380 C   0  0  0  0  0  0  0  0  0  0  0  0
  -21.2240   -6.7740   23.8400 C   0  0  0  0  0  3  0  0  0  0  0  0
  -21.1050   -5.9700   24.9920 C   0  0  0  0  0  3  0  0  0  0  0  0
  -21.4610   -4.6080   24.9420 C   0  0  0  0  0  0  0  0  0  0  0  0
  -21.9420   -4.0500   23.7440 C   0  0  0  0  0  3  0  0  0  0  0  0
  -22.0630   -4.8510   22.5950 C   0  0  0  0  0  0  0  0  0  0  0  0
  -22.5050   -4.3030   21.4380 F   0  0  0  0  0  0  0  0  0  0  0  0
  -21.3400   -3.8340   26.0450 F   0  0  0  0  0  0  0  0  0  0  0  0
  -22.8330  -13.5850   21.2180 C   0  0  0  0  0  0  0  0  0  0  0  0
  -22.1260  -12.8770   22.0910 N   0  0  0  0  0  0  0  0  0  0  0  0
  -22.3810  -14.6140   20.7160 O   0  0  0  0  0  0  0  0  0  0  0  0
  -22.5040  -12.0430   22.5180 H   0  0  0  0  0  0  0  0  0  0  0  0
  -21.1920  -13.1700   22.3360 H   0  0  0  0  0  0  0  0  0  0  0  0
  -25.4260  -15.2850   20.3790 N   0  0  0  0  0  0  0  0  0  0  0  0
  -24.6650  -15.9350   20.5470 H   0  0  0  0  0  0  0  0  0  0  0  0
  -26.2780  -15.7400   20.0820 H   0  0  0  0  0  0  0  0  0  0  0  0
  -28.2430  -25.9090   20.2440 O   0  0  0  0  0  0  0  0  0  0  0  0
  -24.6550  -31.8780   23.2300 C   0  0  0  0  0  0  0  0  0  0  0  0
  -27.2120  -26.9920   20.2190 C   0  0  0  0  0  0  0  0  0  0  0  0
  -23.4590  -30.4780   21.5950 C   0  0  0  0  0  3  0  0  0  0  0  0
  -24.9070  -28.8690   20.1750 C   0  0  0  0  0  0  0  0  0  0  0  0
  -26.0250  -30.6940   21.4400 C   0  0  0  0  0  2  0  0  0  0  0  0
  -26.0960  -29.2810   20.7870 C   0  0  0  0  0  0  0  0  0  0  0  0
  -27.2450  -28.3660   20.7780 C   0  0  0  0  0  3  0  0  0  0  0  0
  -25.9890  -26.7310   19.5640 C   0  0  0  0  0  3  0  0  0  0  0  0
  -24.8790  -27.6150   19.5420 C   0  0  0  0  0  3  0  0  0  0  0  0
  -23.6870  -29.7910   20.2200 C   0  0  0  0  0  2  0  0  0  0  0  0
  -24.7350  -31.0450   22.1420 N   0  0  0  0  0  0  0  0  0  0  0  0
  -23.5660  -32.1650   23.7560 O   0  0  0  0  0  0  0  0  0  0  0  0
  -22.7700  -29.4830   22.5650 C   0  0  0  0  0  0  0  0  0  0  0  0
  -21.4410  -29.3090   22.4380 N   0  0  0  0  0  0  0  0  0  0  0  0
  -23.4370  -28.8680   23.4010 O   0  0  0  0  0  0  0  0  0  0  0  0
  -20.9550  -29.8540   21.7410 H   0  0  0  0  0  0  0  0  0  0  0  0
  -18.0690  -28.0650   22.9390 C   0  0  0  0  0  0  0  0  0  0  0  0
  -20.6240  -28.3670   23.2130 C   0  0  0  0  0  3  0  0  0  0  0  0
  -20.7450  -26.9320   22.6500 C   0  0  0  0  0  2  0  0  0  0  0  0
  -19.6530  -26.5860   21.6330 C   0  0  0  0  0  2  0  0  0  0  0  0
  -18.2660  -26.7160   22.2690 C   0  0  0  0  0  2  0  0  0  0  0  0
  -19.1750  -28.8480   23.3670 C   0  0  0  0  0  0  0  0  0  0  0  0
  -18.9320  -30.1060   23.9580 C   0  0  0  0  0  3  0  0  0  0  0  0
  -17.6190  -30.5860   24.1210 C   0  0  0  0  0  3  0  0  0  0  0  0
  -16.5280  -29.8030   23.7050 C   0  0  0  0  0  3  0  0  0  0  0  0
  -16.7540  -28.5440   23.1210 C   0  0  0  0  0  3  0  0  0  0  0  0
  -25.9260  -32.5240   23.8600 C   0  0  0  0  0  3  0  0  0  0  0  0
  -26.4370  -31.7610   25.1440 C   0  0  1  0  0  0  0  0  0  0  0  0
  -25.3390  -31.5280   26.2090 C   0  0  0  0  0  1  0  0  0  0  0  0
  -27.0250  -30.3820   24.7720 C   0  0  0  0  0  1  0  0  0  0  0  0
  -27.5850  -32.5600   25.8070 C   0  0  0  0  0  1  0  0  0  0  0  0
  -25.6070  -33.9230   24.1970 N   0  0  0  0  0  0  0  0  0  0  0  0
  -25.9140  -34.9860   23.4420 C   0  0  0  0  0  0  0  0  0  0  0  0
  -26.5590  -34.8930   22.3940 O   0  0  0  0  0  0  0  0  0  0  0  0
  -25.0300  -34.0670   25.0140 H   0  0  0  0  0  0  0  0  0  0  0  0
  -24.1620  -36.7720   23.1520 C   0  0  0  0  0  1  0  0  0  0  0  0
  -25.4310  -36.3710   23.9210 C   0  0  0  0  0  3  0  0  0  0  0  0
  -27.5800  -37.2780   24.6910 C   0  0  0  0  0  1  0  0  0  0  0  0
  -26.4510  -37.4330   23.7770 N   0  0  0  0  0  0  0  0  0  0  0  0
  -26.0400  -38.3500   23.9340 H   0  0  0  0  0  0  0  0  0  0  0  0
  1  4  1  0
  3  1  1  0
  3  2  1  0
  4 48  1  0
  4  2  1  0
  5 17  1  0
  6 11  1  0
  7  8  1  0
  7  6  1  0
  9  8  1  0
  9 23  1  0
  9 10  1  0
 11  5  1  0
 11 10  1  0
 12  5  2  0
 13 15  1  0
 13 17  1  0
 14 16  1  0
 15 18  1  0
 17 14  1  0
 18 19  1  6
 18  3  1  0
 18 16  1  0
 20 21  2  0
 21 40  1  0
 22 21  1  0
 22 25  1  0
 23 24  1  0
 23 20  1  0
 24 22  2  0
 25 26  1  0
 26 27  2  0
 28 31  1  0
 28 27  1  0
 29 28  2  0
 30 29  1  0
 30 25  2  0
 31 32  1  0
 32 33  1  0
 33 34  2  0
 35 34  1  0
 35 39  1  0
 36 35  2  0
 37 32  2  0
 37 36  1  0
 38 37  1  0
 40 41  1  0
 41 44  1  0
 41 43  1  0
 42 40  2  0
 45 20  1  0
 45 46  1  0
 47 45  1  0
 49 60  2  0
 50 48  1  0
 50 55  1  0
 51 59  1  0
 51 61  1  0
 52 58  1  0
 52 54  1  0
 53 59  1  0
 54 53  1  0
 55 54  2  0
 56 50  2  0
 57 56  1  0
 57 52  2  0
 58 51  1  0
 59 49  1  0
 61 63  2  0
 62 61  1  0
 64 62  1  0
 65 74  2  0
 65 70  1  0
 66 62  1  0
 66 70  1  0
 67 66  1  0
 68 69  1  0
 68 67  1  0
 69 65  1  0
 70 71  2  0
 71 72  1  0
 73 72  2  0
 74 73  1  0
 75 49  1  0
 75 80  1  0
 75 76  1  0
 76 79  1  1
 76 77  1  0
 78 76  1  0
 80 83  1  0
 81 85  1  0
 81 80  1  0
 82 81  2  0
 85 84  1  0
 87 85  1  0
 87 88  1  0
 87 86  1  0
M  ISO  4   4 101   5 100  17 100  48 101
M  END
>  <TORSDO>  (46) 
F 16

>  <SCORE>  (46) 
-16.705

>  <name>  (46) 
45

>  <ligand_id>  (46) 
45

>  <original_smiles>  (46) 
[H]c1c([H])c([H])c2c(c1[H])C([H])([H])C([H])([H])C([H])([H])C2([H])N([H])C(=O)C1([H])N(C(=O)C([H])(N([H])C(=O)C([H])(N([H])C([H])([H])[H])C([H])([H])[H])C(C([H])([H])[H])(C([H])([H])[H])C([H])([H])[H])C([H])([H])c2c([H])c(OC3([H])C([H])([H])C([H])([N+]4([H])C([H])([H])C([H])([H])N(C(=O)N5C([H])([H])C([H])([H])C([H])([H])C([H])(n6nc(-c7c([H])c([H])c(Oc8c([H])c([H])c(F)c([H])c8F)c([H])c7[H])c(C(=O)N([H])[H])c6N([H])[H])C5([H])[H])C([H])([H])C4([H])[H])C3([H])[H])c([H])c([H])c2C1([H])[H]

>  <smiles>  (46) 
[H]c1c([H])c([H])c2c(c1[H])C([H])([H])C([H])([H])C([H])([H])C2([H])N([H])C(=O)C1([H])N(C(=O)C([H])(N([H])C(=O)C([H])(N([H])C([H])([H])[H])C([H])([H])[H])C(C([H])([H])[H])(C([H])([H])[H])C([H])([H])[H])C([H])([H])c2c([H])c(OC3([H])C([H])([H])C([H])([N+]4([H])C([H])([H])C([H])([H])N(C(=O)N5C([H])([H])C([H])([H])C([H])([H])C([H])(n6nc(-c7c([H])c([H])c(Oc8c([H])c([H])c(F)c([H])c8F)c([H])c7[H])c(C(=O)N([H])[H])c6N([H])[H])C5([H])[H])C([H])([H])C4([H])[H])C3([H])[H])c([H])c([H])c2C1([H])[H]

$$$$
46:0:0
     RDKit          3D

 97106  0  0  1  0  0  0  0  0999 V2000
  -32.9980  -22.9390   16.2220 C   0  0  0  0  0  2  0  0  0  0  0  0
  -33.0320  -24.3790   16.7320 C   0  0  0  0  0  2  0  0  0  0  0  0
  -31.7910  -23.0290   18.2770 C   0  0  0  0  0  2  0  0  0  0  0  0
  -32.7300  -22.1130   17.4770 C   0  0  0  0  0  3  0  0  0  0  0  0
  -32.1340  -24.4270   17.9090 N   0  0  2  0  0  4  0  0  0  0  0  0
  -32.6870  -24.8190   18.6580 H   0  0  0  0  0  0  0  0  0  0  0  0
  -32.1540  -20.7230   17.1440 C   0  0  0  0  0  2  0  0  0  0  0  0
  -31.1110  -19.5560   19.0820 C   0  0  0  0  0  0  0  0  0  0  0  0
  -32.1470  -19.7890   18.2670 N   0  0  0  0  0  0  0  0  0  0  0  0
  -30.1810  -20.3510   19.2260 O   0  0  0  0  0  0  0  0  0  0  0  0
  -32.8740  -19.0850   18.2570 H   0  0  0  0  0  0  0  0  0  0  0  0
  -30.7080  -14.5330   20.5760 C   0  0  0  0  0  0  0  0  0  0  0  0
  -30.4140  -12.3300   19.5280 C   0  0  0  0  0  2  0  0  0  0  0  0
  -29.5030  -12.4860   18.2950 C   0  0  0  0  0  2  0  0  0  0  0  0
  -28.0170  -12.3740   18.6970 C   0  0  0  0  0  2  0  0  0  0  0  0
  -27.6420  -13.2420   19.9290 C   0  0  0  0  0  3  0  0  0  0  0  0
  -28.6870  -13.1010   21.0620 C   0  0  0  0  0  2  0  0  0  0  0  0
  -30.0170  -13.3650   20.4910 N   0  0  0  0  0  0  0  0  0  0  0  0
  -31.9030  -14.6320   20.2870 O   0  0  0  0  0  0  0  0  0  0  0  0
  -30.3950  -18.1330   21.1240 C   0  0  0  0  0  2  0  0  0  0  0  0
  -30.3960  -17.1710   18.7750 C   0  0  0  0  0  2  0  0  0  0  0  0
  -30.3410  -16.6890   21.7000 C   0  0  0  0  0  2  0  0  0  0  0  0
  -29.4030  -16.2250   19.4720 C   0  0  0  0  0  2  0  0  0  0  0  0
  -31.0800  -18.1660   19.7390 C   0  0  0  0  0  3  0  0  0  0  0  0
  -29.9590  -15.6530   20.7130 N   0  0  0  0  0  0  0  0  0  0  0  0
  -25.2360  -13.8620   20.5800 C   0  0  0  0  0  0  0  0  0  0  0  0
  -24.1580  -13.0920   20.9270 C   0  0  0  0  0  0  0  0  0  0  0  0
  -24.6230  -11.7420   20.9250 C   0  0  0  0  0  0  0  0  0  0  0  0
  -26.2850  -12.9750   20.3880 N   0  0  0  0  0  0  0  0  0  0  0  0
  -25.9190  -11.6980   20.6540 N   0  0  0  0  0  0  0  0  0  0  0  0
  -23.8940  -10.4830   21.1080 C   0  0  0  0  0  0  0  0  0  0  0  0
  -24.3270   -9.5110   22.0350 C   0  0  0  0  0  3  0  0  0  0  0  0
  -23.6020   -8.3130   22.2070 C   0  0  0  0  0  3  0  0  0  0  0  0
  -22.4290   -8.0800   21.4510 C   0  0  0  0  0  0  0  0  0  0  0  0
  -22.0160   -9.0410   20.5120 C   0  0  0  0  0  3  0  0  0  0  0  0
  -22.7420  -10.2310   20.3390 C   0  0  0  0  0  3  0  0  0  0  0  0
  -21.6720   -6.9370   21.5340 O   0  0  0  0  0  0  0  0  0  0  0  0
  -21.6440   -6.1740   22.6730 C   0  0  0  0  0  0  0  0  0  0  0  0
  -21.2660   -6.7120   23.9220 C   0  0  0  0  0  3  0  0  0  0  0  0
  -21.1830   -5.8750   25.0540 C   0  0  0  0  0  3  0  0  0  0  0  0
  -21.4710   -4.5020   24.9380 C   0  0  0  0  0  0  0  0  0  0  0  0
  -21.8430   -3.9630   23.6930 C   0  0  0  0  0  3  0  0  0  0  0  0
  -21.9260   -4.7970   22.5640 C   0  0  0  0  0  0  0  0  0  0  0  0
  -22.2620   -4.2680   21.3630 F   0  0  0  0  0  0  0  0  0  0  0  0
  -21.3850   -3.6960   26.0220 F   0  0  0  0  0  0  0  0  0  0  0  0
  -22.7550  -13.5710   21.1590 C   0  0  0  0  0  0  0  0  0  0  0  0
  -22.0100  -12.8840   22.0180 N   0  0  0  0  0  0  0  0  0  0  0  0
  -22.3270  -14.5870   20.6140 O   0  0  0  0  0  0  0  0  0  0  0  0
  -22.3690  -12.0580   22.4750 H   0  0  0  0  0  0  0  0  0  0  0  0
  -21.0680  -13.1860   22.2180 H   0  0  0  0  0  0  0  0  0  0  0  0
  -25.4030  -15.2320   20.3940 N   0  0  0  0  0  0  0  0  0  0  0  0
  -24.6350  -15.8880   20.4800 H   0  0  0  0  0  0  0  0  0  0  0  0
  -26.2750  -15.6760   20.1380 H   0  0  0  0  0  0  0  0  0  0  0  0
  -30.9580  -25.3130   17.7190 C   0  0  0  0  0  2  0  0  0  0  0  0
  -30.2240  -25.6120   19.0370 C   0  0  0  0  0  2  0  0  0  0  0  0
  -28.9440  -26.4250   18.8230 C   0  0  0  0  0  2  0  0  0  0  0  0
  -28.4610  -26.8150   20.1010 O   0  0  0  0  0  0  0  0  0  0  0  0
  -24.6240  -31.8990   23.2150 C   0  0  0  0  0  0  0  0  0  0  0  0
  -27.2770  -27.5050   20.1030 C   0  0  0  0  0  0  0  0  0  0  0  0
  -23.4100  -30.4870   21.5840 C   0  0  0  0  0  3  0  0  0  0  0  0
  -24.8620  -28.9590   20.1480 C   0  0  0  0  0  0  0  0  0  0  0  0
  -25.9270  -30.8690   21.3630 C   0  0  0  0  0  2  0  0  0  0  0  0
  -26.0160  -29.4980   20.7300 C   0  0  0  0  0  0  0  0  0  0  0  0
  -27.2230  -28.7700   20.7190 C   0  0  0  0  0  3  0  0  0  0  0  0
  -26.1070  -26.9620   19.5290 C   0  0  0  0  0  3  0  0  0  0  0  0
  -24.8980  -27.6850   19.5520 C   0  0  0  0  0  3  0  0  0  0  0  0
  -23.6110  -29.8050   20.2020 C   0  0  0  0  0  2  0  0  0  0  0  0
  -24.6720  -31.1000   22.1120 N   0  0  0  0  0  0  0  0  0  0  0  0
  -23.5460  -32.1650   23.7650 O   0  0  0  0  0  0  0  0  0  0  0  0
  -22.7760  -29.4630   22.5500 C   0  0  0  0  0  0  0  0  0  0  0  0
  -21.4520  -29.2760   22.4350 N   0  0  0  0  0  0  0  0  0  0  0  0
  -23.4710  -28.8390   23.3570 O   0  0  0  0  0  0  0  0  0  0  0  0
  -20.9530  -29.8310   21.7550 H   0  0  0  0  0  0  0  0  0  0  0  0
  -18.0880  -28.0690   22.9570 C   0  0  0  0  0  0  0  0  0  0  0  0
  -20.6450  -28.3350   23.2120 C   0  0  0  0  0  3  0  0  0  0  0  0
  -20.7490  -26.9040   22.6350 C   0  0  0  0  0  2  0  0  0  0  0  0
  -19.6420  -26.5770   21.6290 C   0  0  0  0  0  2  0  0  0  0  0  0
  -18.2630  -26.7190   22.2820 C   0  0  0  0  0  2  0  0  0  0  0  0
  -19.2060  -28.8350   23.3790 C   0  0  0  0  0  0  0  0  0  0  0  0
  -18.9880  -30.0990   23.9680 C   0  0  0  0  0  3  0  0  0  0  0  0
  -17.6840  -30.5980   24.1410 C   0  0  0  0  0  3  0  0  0  0  0  0
  -16.5790  -29.8290   23.7350 C   0  0  0  0  0  3  0  0  0  0  0  0
  -16.7820  -28.5660   23.1500 C   0  0  0  0  0  3  0  0  0  0  0  0
  -25.9140  -32.5350   23.8230 C   0  0  0  0  0  3  0  0  0  0  0  0
  -25.5980  -33.9270   24.1680 N   0  0  0  0  0  0  0  0  0  0  0  0
  -25.9150  -34.9880   23.4110 C   0  0  0  0  0  0  0  0  0  0  0  0
  -26.5750  -34.8970   22.3720 O   0  0  0  0  0  0  0  0  0  0  0  0
  -25.0110  -34.0720   24.9760 H   0  0  0  0  0  0  0  0  0  0  0  0
  -24.1670  -36.7650   23.0870 C   0  0  0  0  0  1  0  0  0  0  0  0
  -25.4190  -36.3670   23.8830 C   0  0  0  0  0  3  0  0  0  0  0  0
  -27.5580  -37.2610   24.6920 C   0  0  0  0  0  1  0  0  0  0  0  0
  -26.4420  -37.4300   23.7670 N   0  0  0  0  0  0  0  0  0  0  0  0
  -26.0300  -38.3450   23.9300 H   0  0  0  0  0  0  0  0  0  0  0  0
  -26.4590  -31.7560   25.0820 C   0  0  1  0  0  0  0  0  0  0  0  0
  -25.3860  -31.4980   26.1660 C   0  0  0  0  0  1  0  0  0  0  0  0
  -27.0460  -30.3880   24.6640 C   0  0  0  0  0  1  0  0  0  0  0  0
  -27.6130  -32.5530   25.7320 C   0  0  0  0  0  1  0  0  0  0  0  0
  1  2  1  0
  1  4  1  0
  2  5  1  0
  4  7  1  0
  4  3  1  0
  5  3  1  0
  5  6  1  1
  7  9  1  0
  8 10  2  0
  9  8  1  0
 11  9  1  0
 12 25  1  0
 13 18  1  0
 14 15  1  0
 14 13  1  0
 16 15  1  0
 16 29  1  0
 16 17  1  0
 18 12  1  0
 18 17  1  0
 19 12  2  0
 20 22  1  0
 21 23  1  0
 21 24  1  0
 23 25  1  0
 24  8  1  0
 24 20  1  0
 25 22  1  0
 26 27  2  0
 27 46  1  0
 28 27  1  0
 28 31  1  0
 29 26  1  0
 29 30  1  0
 30 28  2  0
 31 32  1  0
 32 33  2  0
 34 37  1  0
 34 33  1  0
 35 34  2  0
 36 35  1  0
 36 31  2  0
 37 38  1  0
 38 39  1  0
 39 40  2  0
 41 40  1  0
 41 45  1  0
 42 41  2  0
 43 38  2  0
 43 42  1  0
 44 43  1  0
 46 47  1  0
 47 50  1  0
 47 49  1  0
 48 46  2  0
 51 52  1  0
 51 26  1  0
 53 51  1  0
 54  5  1  0
 54 55  1  0
 56 55  1  0
 56 57  1  0
 57 59  1  0
 58 69  2  0
 59 64  1  0
 60 68  1  0
 60 70  1  0
 61 67  1  0
 61 63  1  0
 62 68  1  0
 63 62  1  0
 64 63  2  0
 65 66  1  0
 65 59  2  0
 66 61  2  0
 67 60  1  0
 68 58  1  0
 70 72  2  0
 71 70  1  0
 73 71  1  0
 74 83  2  0
 74 79  1  0
 75 71  1  0
 75 79  1  0
 76 75  1  0
 77 78  1  0
 77 76  1  0
 78 74  1  0
 79 80  2  0
 80 81  1  0
 82 81  2  0
 83 82  1  0
 84 58  1  0
 84 85  1  0
 84 94  1  0
 85 88  1  0
 86 90  1  0
 86 85  1  0
 87 86  2  0
 90 89  1  0
 92 90  1  0
 92 93  1  0
 92 91  1  0
 94 97  1  1
 94 95  1  0
 96 94  1  0
M  ISO  4  12 100  25 100  56 101  57 101
M  END
>  <TORSDO>  (47) 
F 21

>  <SCORE>  (47) 
-13.469

>  <name>  (47) 
46

>  <ligand_id>  (47) 
46

>  <original_smiles>  (47) 
[H]c1c([H])c([H])c2c(c1[H])C([H])([H])C([H])([H])C([H])([H])C2([H])N([H])C(=O)C1([H])N(C(=O)C([H])(N([H])C(=O)C([H])(N([H])C([H])([H])[H])C([H])([H])[H])C(C([H])([H])[H])(C([H])([H])[H])C([H])([H])[H])C([H])([H])c2c([H])c(OC([H])([H])C([H])([H])C([H])([H])[N+]3([H])C([H])([H])C([H])([H])C([H])(C([H])([H])N([H])C(=O)C4([H])C([H])([H])C([H])([H])N(C(=O)N5C([H])([H])C([H])([H])C([H])([H])C([H])(n6nc(-c7c([H])c([H])c(Oc8c([H])c([H])c(F)c([H])c8F)c([H])c7[H])c(C(=O)N([H])[H])c6N([H])[H])C5([H])[H])C([H])([H])C4([H])[H])C3([H])[H])c([H])c([H])c2C1([H])[H]

>  <smiles>  (47) 
[H]c1c([H])c([H])c2c(c1[H])C([H])([H])C([H])([H])C([H])([H])C2([H])N([H])C(=O)C1([H])N(C(=O)C([H])(N([H])C(=O)C([H])(N([H])C([H])([H])[H])C([H])([H])[H])C(C([H])([H])[H])(C([H])([H])[H])C([H])([H])[H])C([H])([H])c2c([H])c(OC([H])([H])C([H])([H])C([H])([H])[N+]3([H])C([H])([H])C([H])([H])C([H])(C([H])([H])N([H])C(=O)C4([H])C([H])([H])C([H])([H])N(C(=O)N5C([H])([H])C([H])([H])C([H])([H])C([H])(n6nc(-c7c([H])c([H])c(Oc8c([H])c([H])c(F)c([H])c8F)c([H])c7[H])c(C(=O)N([H])[H])c6N([H])[H])C5([H])[H])C([H])([H])C4([H])[H])C3([H])[H])c([H])c([H])c2C1([H])[H]

$$$$
47:0:0
     RDKit          3D

 90 99  0  0  1  0  0  0  0  0999 V2000
  -30.5400  -15.1480   20.3900 C   0  0  0  0  0  0  0  0  0  0  0  0
  -30.4170  -12.7350   19.5100 C   0  0  0  0  0  2  0  0  0  0  0  0
  -29.5140  -12.5470   18.2700 C   0  0  0  0  0  2  0  0  0  0  0  0
  -28.0610  -12.2980   18.7040 C   0  0  0  0  0  2  0  0  0  0  0  0
  -27.6080  -13.2720   19.8220 C   0  0  0  0  0  3  0  0  0  0  0  0
  -28.6480  -13.4310   20.9510 C   0  0  0  0  0  2  0  0  0  0  0  0
  -29.8860  -13.8970   20.3090 N   0  0  0  0  0  0  0  0  0  0  0  0
  -31.7600  -15.0520   20.1970 O   0  0  0  0  0  0  0  0  0  0  0  0
  -28.9940  -19.8240   20.4310 C   0  0  0  0  0  0  0  0  0  0  0  0
  -28.3110  -18.6840   20.9990 C   0  0  0  0  0  0  0  0  0  0  0  0
  -28.4440  -21.2520   20.6290 C   0  0  0  0  0  0  0  0  0  0  0  0
  -26.7850  -20.1790   21.8830 C   0  0  0  0  0  0  0  0  0  0  0  0
  -30.2100  -19.2380   19.6490 C   0  0  0  0  0  3  0  0  0  0  0  0
  -28.6410  -17.0910   20.8550 C   0  0  0  0  0  2  0  0  0  0  0  0
  -30.8030  -17.7420   20.0260 C   0  0  0  0  0  3  0  0  0  0  0  0
  -25.5400  -20.3650   22.7260 C   0  0  0  0  0  1  0  0  0  0  0  0
  -27.2080  -18.9300   21.7230 N   0  0  0  0  0  0  0  0  0  0  0  0
  -27.3340  -21.2910   21.3950 N   0  0  0  0  0  0  0  0  0  0  0  0
  -29.9550  -16.5040   20.3520 N   0  0  0  0  0  0  0  0  0  0  0  0
  -25.2360  -13.8230   20.5730 C   0  0  0  0  0  0  0  0  0  0  0  0
  -24.1720  -13.0420   20.9260 C   0  0  0  0  0  0  0  0  0  0  0  0
  -24.6380  -11.6920   20.8780 C   0  0  0  0  0  0  0  0  0  0  0  0
  -26.2800  -12.9520   20.3240 N   0  0  0  0  0  0  0  0  0  0  0  0
  -25.9320  -11.6630   20.5760 N   0  0  0  0  0  0  0  0  0  0  0  0
  -23.9080  -10.4280   21.0410 C   0  0  0  0  0  0  0  0  0  0  0  0
  -24.3630   -9.4190   21.9190 C   0  0  0  0  0  3  0  0  0  0  0  0
  -23.6300   -8.2230   22.0760 C   0  0  0  0  0  3  0  0  0  0  0  0
  -22.4290   -8.0270   21.3540 C   0  0  0  0  0  0  0  0  0  0  0  0
  -21.9920   -9.0240   20.4650 C   0  0  0  0  0  3  0  0  0  0  0  0
  -22.7250  -10.2130   20.3070 C   0  0  0  0  0  3  0  0  0  0  0  0
  -21.6650   -6.8870   21.4240 O   0  0  0  0  0  0  0  0  0  0  0  0
  -21.6850   -6.0720   22.5270 C   0  0  0  0  0  0  0  0  0  0  0  0
  -21.4020   -6.5630   23.8200 C   0  0  0  0  0  3  0  0  0  0  0  0
  -21.3670   -5.6790   24.9160 C   0  0  0  0  0  3  0  0  0  0  0  0
  -21.6040   -4.3050   24.7220 C   0  0  0  0  0  0  0  0  0  0  0  0
  -21.8820   -3.8140   23.4350 C   0  0  0  0  0  3  0  0  0  0  0  0
  -21.9190   -4.6950   22.3400 C   0  0  0  0  0  0  0  0  0  0  0  0
  -22.1660   -4.2130   21.0980 F   0  0  0  0  0  0  0  0  0  0  0  0
  -21.5640   -3.4540   25.7740 F   0  0  0  0  0  0  0  0  0  0  0  0
  -22.7750  -13.5180   21.1900 C   0  0  0  0  0  0  0  0  0  0  0  0
  -22.0420  -12.8160   22.0460 N   0  0  0  0  0  0  0  0  0  0  0  0
  -22.3440  -14.5490   20.6740 O   0  0  0  0  0  0  0  0  0  0  0  0
  -22.4050  -11.9810   22.4820 H   0  0  0  0  0  0  0  0  0  0  0  0
  -21.1050  -13.1180   22.2710 H   0  0  0  0  0  0  0  0  0  0  0  0
  -25.3950  -15.1950   20.4090 N   0  0  0  0  0  0  0  0  0  0  0  0
  -24.6180  -15.8390   20.5180 H   0  0  0  0  0  0  0  0  0  0  0  0
  -26.2190  -15.6330   20.0210 H   0  0  0  0  0  0  0  0  0  0  0  0
  -28.8870  -22.8610   20.2660 C   0  0  0  0  0  3  0  0  0  0  0  0
  -27.8980  -24.3270   20.3190 C   0  0  0  0  0  3  0  0  0  0  0  0
  -28.2100  -25.9200   20.2380 O   0  0  0  0  0  0  0  0  0  0  0  0
  -24.6570  -31.8320   23.1780 C   0  0  0  0  0  0  0  0  0  0  0  0
  -27.1980  -26.9910   20.1800 C   0  0  0  0  0  0  0  0  0  0  0  0
  -23.4660  -30.4490   21.5300 C   0  0  0  0  0  3  0  0  0  0  0  0
  -24.9110  -28.8490   20.1130 C   0  0  0  0  0  0  0  0  0  0  0  0
  -26.0300  -30.6580   21.3960 C   0  0  0  0  0  2  0  0  0  0  0  0
  -26.0940  -29.2550   20.7420 C   0  0  0  0  0  0  0  0  0  0  0  0
  -27.2380  -28.3460   20.7520 C   0  0  0  0  0  3  0  0  0  0  0  0
  -25.9890  -26.7240   19.5020 C   0  0  0  0  0  3  0  0  0  0  0  0
  -24.8790  -27.6010   19.4730 C   0  0  0  0  0  3  0  0  0  0  0  0
  -23.6960  -29.7720   20.1530 C   0  0  0  0  0  2  0  0  0  0  0  0
  -24.7380  -31.0050   22.0870 N   0  0  0  0  0  0  0  0  0  0  0  0
  -23.5660  -32.1290   23.6910 O   0  0  0  0  0  0  0  0  0  0  0  0
  -22.7640  -29.4480   22.4840 C   0  0  0  0  0  0  0  0  0  0  0  0
  -21.4320  -29.3040   22.3580 N   0  0  0  0  0  0  0  0  0  0  0  0
  -23.4220  -28.8040   23.3050 O   0  0  0  0  0  0  0  0  0  0  0  0
  -20.9560  -29.8740   21.6720 H   0  0  0  0  0  0  0  0  0  0  0  0
  -18.0330  -28.1390   22.8480 C   0  0  0  0  0  0  0  0  0  0  0  0
  -20.5940  -28.3730   23.1210 C   0  0  0  0  0  3  0  0  0  0  0  0
  -20.6810  -26.9420   22.5410 C   0  0  0  0  0  2  0  0  0  0  0  0
  -19.5780  -26.6360   21.5220 C   0  0  0  0  0  2  0  0  0  0  0  0
  -18.1960  -26.7930   22.1630 C   0  0  0  0  0  2  0  0  0  0  0  0
  -19.1590  -28.8890   23.2810 C   0  0  0  0  0  0  0  0  0  0  0  0
  -18.9510  -30.1490   23.8810 C   0  0  0  0  0  3  0  0  0  0  0  0
  -17.6500  -30.6580   24.0560 C   0  0  0  0  0  3  0  0  0  0  0  0
  -16.5390  -29.9070   23.6350 C   0  0  0  0  0  3  0  0  0  0  0  0
  -16.7310  -28.6500   23.0340 C   0  0  0  0  0  3  0  0  0  0  0  0
  -25.9280  -32.4640   23.8210 C   0  0  0  0  0  3  0  0  0  0  0  0
  -25.5980  -33.8460   24.2120 N   0  0  0  0  0  0  0  0  0  0  0  0
  -25.9100  -34.9380   23.5030 C   0  0  0  0  0  0  0  0  0  0  0  0
  -26.5680  -34.8890   22.4610 O   0  0  0  0  0  0  0  0  0  0  0  0
  -25.0150  -33.9570   25.0280 H   0  0  0  0  0  0  0  0  0  0  0  0
  -24.1480  -36.7220   23.2640 C   0  0  0  0  0  1  0  0  0  0  0  0
  -25.4130  -36.3000   24.0300 C   0  0  0  0  0  3  0  0  0  0  0  0
  -27.5560  -37.1770   24.8460 C   0  0  0  0  0  1  0  0  0  0  0  0
  -26.4270  -37.3740   23.9420 N   0  0  0  0  0  0  0  0  0  0  0  0
  -26.0130  -38.2790   24.1470 H   0  0  0  0  0  0  0  0  0  0  0  0
  -26.4540  -31.6560   25.0730 C   0  0  1  0  0  0  0  0  0  0  0  0
  -25.3660  -31.3790   26.1380 C   0  0  0  0  0  1  0  0  0  0  0  0
  -27.0450  -30.2950   24.6400 C   0  0  0  0  0  1  0  0  0  0  0  0
  -27.6060  -32.4360   25.7500 C   0  0  0  0  0  1  0  0  0  0  0  0
  2  7  1  0
  3  4  1  0
  3  2  1  0
  5  4  1  0
  5 23  1  0
  5  6  1  0
  7  1  1  0
  7  6  1  0
  8  1  2  0
  9 11  1  0
  9 10  2  0
 10 17  1  0
 11 18  2  0
 12 16  1  0
 13 15  2  0
 13  9  1  0
 14 10  1  0
 15 19  1  0
 17 12  2  0
 18 12  1  0
 19  1  1  0
 19 14  1  0
 20 21  2  0
 21 40  1  0
 22 21  1  0
 22 25  1  0
 23 20  1  0
 23 24  1  0
 24 22  2  0
 25 26  1  0
 26 27  2  0
 28 31  1  0
 28 27  1  0
 29 28  2  0
 30 29  1  0
 30 25  2  0
 31 32  1  0
 32 33  1  0
 33 34  2  0
 35 34  1  0
 35 39  1  0
 36 35  2  0
 37 32  2  0
 37 36  1  0
 38 37  1  0
 40 41  1  0
 41 44  1  0
 41 43  1  0
 42 40  2  0
 45 46  1  0
 45 20  1  0
 47 45  1  0
 48 49  2  0
 48 11  1  0
 50 49  1  0
 51 62  2  0
 52 50  1  0
 52 57  1  0
 53 61  1  0
 53 63  1  0
 54 60  1  0
 54 56  1  0
 55 61  1  0
 56 57  2  0
 56 55  1  0
 58 52  2  0
 59 58  1  0
 59 54  2  0
 60 53  1  0
 61 51  1  0
 63 65  2  0
 64 63  1  0
 66 64  1  0
 67 76  2  0
 67 72  1  0
 68 64  1  0
 68 72  1  0
 69 68  1  0
 70 71  1  0
 70 69  1  0
 71 67  1  0
 72 73  2  0
 73 74  1  0
 75 74  2  0
 76 75  1  0
 77 51  1  0
 77 78  1  0
 77 87  1  0
 78 81  1  0
 79 83  1  0
 79 78  1  0
 80 79  2  0
 83 82  1  0
 85 83  1  0
 85 86  1  0
 85 84  1  0
 87 90  1  1
 87 88  1  0
 89 87  1  0
M  ISO  4   1 100  19 100  49 101  50 101
M  END
>  <TORSDO>  (48) 
F 17

>  <SCORE>  (48) 
7.306

>  <name>  (48) 
47

>  <ligand_id>  (48) 
47

>  <original_smiles>  (48) 
[H]c1c([H])c([H])c2c(c1[H])C([H])([H])C([H])([H])C([H])([H])C2([H])N([H])C(=O)C1([H])N(C(=O)C([H])(N([H])C(=O)C([H])(N([H])C([H])([H])[H])C([H])([H])[H])C(C([H])([H])[H])(C([H])([H])[H])C([H])([H])[H])C([H])([H])c2c([H])c(OC([H])([H])C([H])([H])c3nc(C([H])([H])[H])nc4c3C([H])([H])C([H])([H])N(C(=O)N3C([H])([H])C([H])([H])C([H])([H])C([H])(n5nc(-c6c([H])c([H])c(Oc7c([H])c([H])c(F)c([H])c7F)c([H])c6[H])c(C(=O)N([H])[H])c5N([H])[H])C3([H])[H])C4([H])[H])c([H])c([H])c2C1([H])[H]

>  <smiles>  (48) 
[H]c1c([H])c([H])c2c(c1[H])C([H])([H])C([H])([H])C([H])([H])C2([H])N([H])C(=O)C1([H])N(C(=O)C([H])(N([H])C(=O)C([H])(N([H])C([H])([H])[H])C([H])([H])[H])C(C([H])([H])[H])(C([H])([H])[H])C([H])([H])[H])C([H])([H])c2c([H])c(OC([H])([H])C([H])([H])c3nc(C([H])([H])[H])nc4c3C([H])([H])C([H])([H])N(C(=O)N3C([H])([H])C([H])([H])C([H])([H])C([H])(n5nc(-c6c([H])c([H])c(Oc7c([H])c([H])c(F)c([H])c7F)c([H])c6[H])c(C(=O)N([H])[H])c5N([H])[H])C3([H])[H])C4([H])[H])c([H])c([H])c2C1([H])[H]

$$$$
48:0:0
     RDKit          3D

 93101  0  0  1  0  0  0  0  0999 V2000
  -29.3950  -21.1770   20.6040 N   0  0  0  0  0  4  0  0  0  0  0  0
  -29.5760  -21.5830   19.7040 H   0  0  0  0  0  0  0  0  0  0  0  0
  -28.6140  -20.6130   20.9040 H   0  0  0  0  0  0  0  0  0  0  0  0
  -27.9950  -23.2690   18.8520 C   0  0  0  0  0  2  0  0  0  0  0  0
  -27.2100  -22.2180   19.6560 C   0  0  0  0  0  2  0  0  0  0  0  0
  -28.6640  -23.7460   20.1610 C   0  0  0  0  0  3  0  0  0  0  0  0
  -28.3320  -22.2710   20.7020 C   0  0  0  0  0  3  0  0  0  0  0  0
  -28.0760  -25.0640   20.8520 C   0  0  0  0  0  2  0  0  0  0  0  0
  -28.3580  -26.4320   20.3280 O   0  0  0  0  0  0  0  0  0  0  0  0
  -24.5970  -31.8800   23.2170 C   0  0  0  0  0  0  0  0  0  0  0  0
  -27.2720  -27.3170   20.2480 C   0  0  0  0  0  0  0  0  0  0  0  0
  -23.4300  -30.4760   21.5480 C   0  0  0  0  0  3  0  0  0  0  0  0
  -24.9170  -28.9360   20.1530 C   0  0  0  0  0  0  0  0  0  0  0  0
  -25.9700  -30.8150   21.4080 C   0  0  0  0  0  2  0  0  0  0  0  0
  -26.0730  -29.4310   20.7710 C   0  0  0  0  0  0  0  0  0  0  0  0
  -27.2590  -28.6340   20.8040 C   0  0  0  0  0  3  0  0  0  0  0  0
  -26.1030  -26.8800   19.5930 C   0  0  0  0  0  3  0  0  0  0  0  0
  -24.9380  -27.6680   19.5500 C   0  0  0  0  0  3  0  0  0  0  0  0
  -23.6730  -29.8020   20.1700 C   0  0  0  0  0  2  0  0  0  0  0  0
  -24.6830  -31.0740   22.1160 N   0  0  0  0  0  0  0  0  0  0  0  0
  -23.5030  -32.1540   23.7330 O   0  0  0  0  0  0  0  0  0  0  0  0
  -22.7540  -29.4600   22.4980 C   0  0  0  0  0  0  0  0  0  0  0  0
  -21.4280  -29.2840   22.3600 N   0  0  0  0  0  0  0  0  0  0  0  0
  -23.4200  -28.8320   23.3260 O   0  0  0  0  0  0  0  0  0  0  0  0
  -20.9450  -29.8460   21.6730 H   0  0  0  0  0  0  0  0  0  0  0  0
  -18.0490  -28.0840   22.8230 C   0  0  0  0  0  0  0  0  0  0  0  0
  -20.6030  -28.3450   23.1270 C   0  0  0  0  0  3  0  0  0  0  0  0
  -20.7100  -26.9090   22.5550 C   0  0  0  0  0  2  0  0  0  0  0  0
  -19.6220  -26.5850   21.5260 C   0  0  0  0  0  2  0  0  0  0  0  0
  -18.2320  -26.7320   22.1520 C   0  0  0  0  0  2  0  0  0  0  0  0
  -19.1620  -28.8440   23.2700 C   0  0  0  0  0  0  0  0  0  0  0  0
  -18.9350  -30.1040   23.8600 C   0  0  0  0  0  3  0  0  0  0  0  0
  -17.6290  -30.6050   24.0110 C   0  0  0  0  0  3  0  0  0  0  0  0
  -16.5300  -29.8420   23.5790 C   0  0  0  0  0  3  0  0  0  0  0  0
  -16.7400  -28.5830   22.9890 C   0  0  0  0  0  3  0  0  0  0  0  0
  -25.8660  -32.5230   23.8620 C   0  0  0  0  0  3  0  0  0  0  0  0
  -25.5440  -33.9210   24.1840 N   0  0  0  0  0  0  0  0  0  0  0  0
  -25.8810  -34.9720   23.4250 C   0  0  0  0  0  0  0  0  0  0  0  0
  -26.5670  -34.8670   22.4040 O   0  0  0  0  0  0  0  0  0  0  0  0
  -24.9450  -34.0750   24.9810 H   0  0  0  0  0  0  0  0  0  0  0  0
  -24.1510  -36.7570   23.0330 C   0  0  0  0  0  1  0  0  0  0  0  0
  -25.3800  -36.3590   23.8660 C   0  0  0  0  0  3  0  0  0  0  0  0
  -27.4890  -37.2600   24.7370 C   0  0  0  0  0  1  0  0  0  0  0  0
  -26.4070  -37.4160   23.7680 N   0  0  0  0  0  0  0  0  0  0  0  0
  -25.9900  -38.3330   23.9090 H   0  0  0  0  0  0  0  0  0  0  0  0
  -26.3590  -31.7580   25.1530 C   0  0  1  0  0  0  0  0  0  0  0  0
  -25.2510  -31.5250   26.2040 C   0  0  0  0  0  1  0  0  0  0  0  0
  -26.9500  -30.3780   24.7770 C   0  0  0  0  0  1  0  0  0  0  0  0
  -27.4910  -32.5590   25.8390 C   0  0  0  0  0  1  0  0  0  0  0  0
  -29.5540  -19.9130   19.7700 C   0  0  0  0  0  2  0  0  0  0  0  0
  -29.5300  -18.5050   20.5460 C   0  0  0  0  0  3  0  0  0  0  0  0
  -30.2650  -18.6460   21.7930 N   0  0  0  0  0  0  0  0  0  0  0  0
  -30.6230  -17.7400   22.0870 H   0  0  0  0  0  0  0  0  0  0  0  0
  -31.1080  -19.1930   21.6490 H   0  0  0  0  0  0  0  0  0  0  0  0
  -30.1350  -17.2300   19.7920 C   0  0  0  0  0  2  0  0  0  0  0  0
  -30.6330  -14.7090   20.0960 C   0  0  0  0  0  0  0  0  0  0  0  0
  -30.3380  -12.4890   19.0420 C   0  0  0  0  0  2  0  0  0  0  0  0
  -29.3510  -12.6370   17.8660 C   0  0  0  0  0  2  0  0  0  0  0  0
  -27.8970  -12.4750   18.3420 C   0  0  0  0  0  2  0  0  0  0  0  0
  -27.5860  -13.3220   19.6060 C   0  0  0  0  0  3  0  0  0  0  0  0
  -28.6890  -13.1820   20.6790 C   0  0  0  0  0  2  0  0  0  0  0  0
  -29.9780  -13.5060   20.0520 N   0  0  0  0  0  0  0  0  0  0  0  0
  -31.7910  -14.8100   19.6800 O   0  0  0  0  0  0  0  0  0  0  0  0
  -29.8930  -15.8410   20.3530 N   0  0  0  0  0  0  0  0  0  0  0  0
  -28.9730  -15.6760   20.7350 H   0  0  0  0  0  0  0  0  0  0  0  0
  -25.2230  -13.9060   20.4150 C   0  0  0  0  0  0  0  0  0  0  0  0
  -24.1710  -13.1280   20.8250 C   0  0  0  0  0  0  0  0  0  0  0  0
  -24.6330  -11.7780   20.7700 C   0  0  0  0  0  0  0  0  0  0  0  0
  -26.2570  -13.0290   20.1430 N   0  0  0  0  0  0  0  0  0  0  0  0
  -25.9120  -11.7430   20.4120 N   0  0  0  0  0  0  0  0  0  0  0  0
  -23.9130  -10.5150   20.9810 C   0  0  0  0  0  0  0  0  0  0  0  0
  -24.3740   -9.5470   21.8990 C   0  0  0  0  0  3  0  0  0  0  0  0
  -23.6540   -8.3490   22.0990 C   0  0  0  0  0  3  0  0  0  0  0  0
  -22.4600   -8.1110   21.3800 C   0  0  0  0  0  0  0  0  0  0  0  0
  -22.0200   -9.0670   20.4480 C   0  0  0  0  0  3  0  0  0  0  0  0
  -22.7390  -10.2560   20.2470 C   0  0  0  0  0  3  0  0  0  0  0  0
  -21.7100   -6.9640   21.4890 O   0  0  0  0  0  0  0  0  0  0  0  0
  -21.6930   -6.2230   22.6430 C   0  0  0  0  0  0  0  0  0  0  0  0
  -21.2950   -6.7780   23.8790 C   0  0  0  0  0  3  0  0  0  0  0  0
  -21.2250   -5.9630   25.0270 C   0  0  0  0  0  3  0  0  0  0  0  0
  -21.5390   -4.5930   24.9390 C   0  0  0  0  0  0  0  0  0  0  0  0
  -21.9270   -4.0370   23.7070 C   0  0  0  0  0  3  0  0  0  0  0  0
  -22.0000   -4.8490   22.5620 C   0  0  0  0  0  0  0  0  0  0  0  0
  -22.3540   -4.3050   21.3730 F   0  0  0  0  0  0  0  0  0  0  0  0
  -21.4650   -3.8080   26.0370 F   0  0  0  0  0  0  0  0  0  0  0  0
  -22.7840  -13.6060   21.1480 C   0  0  0  0  0  0  0  0  0  0  0  0
  -22.0830  -12.9090   22.0380 N   0  0  0  0  0  0  0  0  0  0  0  0
  -22.3270  -14.6290   20.6440 O   0  0  0  0  0  0  0  0  0  0  0  0
  -22.4620  -12.0820   22.4760 H   0  0  0  0  0  0  0  0  0  0  0  0
  -21.1490  -13.2060   22.2870 H   0  0  0  0  0  0  0  0  0  0  0  0
  -25.3770  -15.2760   20.2330 N   0  0  0  0  0  0  0  0  0  0  0  0
  -24.6050  -15.9240   20.3390 H   0  0  0  0  0  0  0  0  0  0  0  0
  -26.2030  -15.7100   19.8410 H   0  0  0  0  0  0  0  0  0  0  0  0
  1  3  1  0
  2  1  1  0
  4  5  1  0
  4  6  1  0
  5  7  1  0
  6  7  1  0
  6  8  1  0
  7  1  1  0
  9  8  1  0
 10 21  2  0
 11  9  1  0
 11 16  1  0
 12 20  1  0
 12 22  1  0
 13 19  1  0
 13 15  1  0
 14 20  1  0
 15 16  2  0
 15 14  1  0
 17 11  2  0
 18 17  1  0
 18 13  2  0
 19 12  1  0
 20 10  1  0
 22 24  2  0
 23 22  1  0
 25 23  1  0
 26 35  2  0
 26 31  1  0
 27 23  1  0
 27 31  1  0
 28 27  1  0
 29 30  1  0
 29 28  1  0
 30 26  1  0
 31 32  2  0
 32 33  1  0
 34 33  2  0
 35 34  1  0
 36 10  1  0
 36 37  1  0
 36 46  1  0
 37 40  1  0
 38 42  1  0
 38 37  1  0
 39 38  2  0
 42 41  1  0
 44 42  1  0
 44 45  1  0
 44 43  1  0
 46 49  1  1
 46 47  1  0
 48 46  1  0
 50  1  1  0
 51 50  1  0
 51 52  1  0
 52 53  1  0
 54 52  1  0
 55 64  1  0
 55 51  1  0
 56 64  1  0
 57 62  1  0
 58 59  1  0
 58 57  1  0
 60 59  1  0
 60 69  1  0
 60 61  1  0
 62 56  1  0
 62 61  1  0
 63 56  2  0
 64 65  1  0
 66 67  2  0
 67 86  1  0
 68 67  1  0
 68 71  1  0
 69 70  1  0
 69 66  1  0
 70 68  2  0
 71 72  1  0
 72 73  2  0
 74 77  1  0
 74 73  1  0
 75 74  2  0
 76 75  1  0
 76 71  2  0
 77 78  1  0
 78 79  1  0
 79 80  2  0
 81 80  1  0
 81 85  1  0
 82 81  2  0
 83 78  2  0
 83 82  1  0
 84 83  1  0
 86 87  1  0
 87 90  1  0
 87 89  1  0
 88 86  2  0
 91 92  1  0
 91 66  1  0
 93 91  1  0
M  ISO  4   8 101   9 101  56 100  64 100
M  END
>  <TORSDO>  (49) 
F 22

>  <SCORE>  (49) 
-13.338

>  <name>  (49) 
48

>  <ligand_id>  (49) 
48

>  <original_smiles>  (49) 
[H]c1c([H])c([H])c2c(c1[H])C([H])([H])C([H])([H])C([H])([H])C2([H])N([H])C(=O)C1([H])N(C(=O)C([H])(N([H])C(=O)C([H])(N([H])C([H])([H])[H])C([H])([H])[H])C(C([H])([H])[H])(C([H])([H])[H])C([H])([H])[H])C([H])([H])c2c([H])c(OC([H])([H])C3([H])C([H])([H])C([H])([H])C3([H])[N+]([H])([H])C([H])([H])C([H])(N([H])[H])C([H])([H])N([H])C(=O)N3C([H])([H])C([H])([H])C([H])([H])C([H])(n4nc(-c5c([H])c([H])c(Oc6c([H])c([H])c(F)c([H])c6F)c([H])c5[H])c(C(=O)N([H])[H])c4N([H])[H])C3([H])[H])c([H])c([H])c2C1([H])[H]

>  <smiles>  (49) 
[H]c1c([H])c([H])c2c(c1[H])C([H])([H])C([H])([H])C([H])([H])C2([H])N([H])C(=O)C1([H])N(C(=O)C([H])(N([H])C(=O)C([H])(N([H])C([H])([H])[H])C([H])([H])[H])C(C([H])([H])[H])(C([H])([H])[H])C([H])([H])[H])C([H])([H])c2c([H])c(OC([H])([H])C3([H])C([H])([H])C([H])([H])C3([H])[N+]([H])([H])C([H])([H])C([H])(N([H])[H])C([H])([H])N([H])C(=O)N3C([H])([H])C([H])([H])C([H])([H])C([H])(n4nc(-c5c([H])c([H])c(Oc6c([H])c([H])c(F)c([H])c6F)c([H])c5[H])c(C(=O)N([H])[H])c4N([H])[H])C3([H])[H])c([H])c([H])c2C1([H])[H]

$$$$
49:0:0
     RDKit          3D

 93103  0  0  1  0  0  0  0  0999 V2000
  -29.8890  -22.9370   20.8860 C   0  0  0  0  0  2  0  0  0  0  0  0
  -27.6450  -22.6890   21.2880 C   0  0  0  0  0  2  0  0  0  0  0  0
  -27.7660  -23.8120   19.2390 C   0  0  0  0  0  2  0  0  0  0  0  0
  -29.2920  -21.8880   19.8630 C   0  0  0  0  0  3  0  0  0  0  0  0
  -28.6660  -23.8280   21.3960 C   0  0  0  0  0  3  0  0  0  0  0  0
  -27.9500  -24.8520   20.4120 C   0  0  0  0  0  3  0  0  0  0  0  0
  -27.8880  -22.4180   19.8610 N   0  0  1  0  0  4  0  0  0  0  0  0
  -27.2500  -21.7420   19.4680 H   0  0  0  0  0  0  0  0  0  0  0  0
  -30.5930  -14.8500   19.9720 C   0  0  0  0  0  0  0  0  0  0  0  0
  -30.3770  -12.5750   18.9310 C   0  0  0  0  0  2  0  0  0  0  0  0
  -29.3570  -12.6550   17.7710 C   0  0  0  0  0  2  0  0  0  0  0  0
  -27.9180  -12.4610   18.2890 C   0  0  0  0  0  2  0  0  0  0  0  0
  -27.6190  -13.3210   19.5460 C   0  0  0  0  0  3  0  0  0  0  0  0
  -28.7490  -13.2080   20.5950 C   0  0  0  0  0  2  0  0  0  0  0  0
  -30.0030  -13.5990   19.9350 N   0  0  0  0  0  0  0  0  0  0  0  0
  -31.7390  -14.9890   19.5300 O   0  0  0  0  0  0  0  0  0  0  0  0
  -30.5630  -19.5460   19.4490 C   0  0  0  0  0  3  0  0  0  0  0  0
  -28.7880  -18.1690   20.8810 C   0  0  0  0  0  3  0  0  0  0  0  0
  -29.5080  -20.2900   20.0780 C   0  0  0  0  0  0  0  0  0  0  0  0
  -29.8300  -17.4110   20.2410 C   0  0  0  0  0  0  0  0  0  0  0  0
  -28.6240  -19.5430   20.8110 N   0  0  0  0  0  0  0  0  0  0  0  0
  -30.7230  -18.1700   19.5270 N   0  0  0  0  0  0  0  0  0  0  0  0
  -29.7990  -15.9200   20.3770 N   0  0  0  0  0  0  0  0  0  0  0  0
  -28.9450  -15.5910   20.7980 H   0  0  0  0  0  0  0  0  0  0  0  0
  -25.2890  -13.8960   20.4500 C   0  0  0  0  0  0  0  0  0  0  0  0
  -24.2460  -13.1160   20.8650 C   0  0  0  0  0  0  0  0  0  0  0  0
  -24.6960  -11.7640   20.7570 C   0  0  0  0  0  0  0  0  0  0  0  0
  -26.3080  -13.0210   20.1130 N   0  0  0  0  0  0  0  0  0  0  0  0
  -25.9630  -11.7310   20.3600 N   0  0  0  0  0  0  0  0  0  0  0  0
  -23.9750  -10.4990   20.9510 C   0  0  0  0  0  0  0  0  0  0  0  0
  -24.4220   -9.5290   21.8760 C   0  0  0  0  0  3  0  0  0  0  0  0
  -23.7010   -8.3290   22.0580 C   0  0  0  0  0  3  0  0  0  0  0  0
  -22.5190   -8.0910   21.3160 C   0  0  0  0  0  0  0  0  0  0  0  0
  -22.0910   -9.0510   20.3810 C   0  0  0  0  0  3  0  0  0  0  0  0
  -22.8130  -10.2420   20.1970 C   0  0  0  0  0  3  0  0  0  0  0  0
  -21.7680   -6.9440   21.4090 O   0  0  0  0  0  0  0  0  0  0  0  0
  -21.6760   -6.2370   22.5810 C   0  0  0  0  0  0  0  0  0  0  0  0
  -21.1790   -6.8210   23.7670 C   0  0  0  0  0  3  0  0  0  0  0  0
  -21.0370   -6.0390   24.9310 C   0  0  0  0  0  3  0  0  0  0  0  0
  -21.3800   -4.6740   24.9080 C   0  0  0  0  0  0  0  0  0  0  0  0
  -21.8700   -4.0900   23.7270 C   0  0  0  0  0  3  0  0  0  0  0  0
  -22.0150   -4.8680   22.5660 C   0  0  0  0  0  0  0  0  0  0  0  0
  -22.4670   -4.2960   21.4250 F   0  0  0  0  0  0  0  0  0  0  0  0
  -21.2360   -3.9210   26.0240 F   0  0  0  0  0  0  0  0  0  0  0  0
  -22.8730  -13.5900   21.2450 C   0  0  0  0  0  0  0  0  0  0  0  0
  -22.1980  -12.8670   22.1320 N   0  0  0  0  0  0  0  0  0  0  0  0
  -22.4090  -14.6340   20.7900 O   0  0  0  0  0  0  0  0  0  0  0  0
  -22.5870  -12.0210   22.5210 H   0  0  0  0  0  0  0  0  0  0  0  0
  -21.2790  -13.1650   22.4280 H   0  0  0  0  0  0  0  0  0  0  0  0
  -25.4470  -15.2720   20.3050 N   0  0  0  0  0  0  0  0  0  0  0  0
  -24.6760  -15.9120   20.4600 H   0  0  0  0  0  0  0  0  0  0  0  0
  -26.2350  -15.7100   19.8450 H   0  0  0  0  0  0  0  0  0  0  0  0
  -28.2810  -26.3330   20.2360 O   0  0  0  0  0  0  0  0  0  0  0  0
  -24.6160  -31.8840   23.2400 C   0  0  0  0  0  0  0  0  0  0  0  0
  -27.2110  -27.2730   20.1690 C   0  0  0  0  0  0  0  0  0  0  0  0
  -23.4120  -30.4930   21.5970 C   0  0  0  0  0  3  0  0  0  0  0  0
  -24.8620  -28.9470   20.1570 C   0  0  0  0  0  0  0  0  0  0  0  0
  -25.9590  -30.7930   21.4180 C   0  0  0  0  0  2  0  0  0  0  0  0
  -26.0370  -29.4130   20.7610 C   0  0  0  0  0  0  0  0  0  0  0  0
  -27.2160  -28.5910   20.7530 C   0  0  0  0  0  3  0  0  0  0  0  0
  -26.0150  -26.8950   19.5180 C   0  0  0  0  0  3  0  0  0  0  0  0
  -24.8590  -27.6970   19.5220 C   0  0  0  0  0  3  0  0  0  0  0  0
  -23.6270  -29.8270   20.2140 C   0  0  0  0  0  2  0  0  0  0  0  0
  -24.6810  -31.0760   22.1410 N   0  0  0  0  0  0  0  0  0  0  0  0
  -23.5320  -32.1600   23.7760 O   0  0  0  0  0  0  0  0  0  0  0  0
  -22.7470  -29.4740   22.5540 C   0  0  0  0  0  0  0  0  0  0  0  0
  -21.4210  -29.2940   22.4260 N   0  0  0  0  0  0  0  0  0  0  0  0
  -23.4250  -28.8480   23.3730 O   0  0  0  0  0  0  0  0  0  0  0  0
  -20.9310  -29.8510   21.7390 H   0  0  0  0  0  0  0  0  0  0  0  0
  -18.0430  -28.0950   22.9370 C   0  0  0  0  0  0  0  0  0  0  0  0
  -20.6030  -28.3520   23.1950 C   0  0  0  0  0  3  0  0  0  0  0  0
  -20.7000  -26.9240   22.6100 C   0  0  0  0  0  2  0  0  0  0  0  0
  -19.5940  -26.6090   21.5980 C   0  0  0  0  0  2  0  0  0  0  0  0
  -18.2150  -26.7510   22.2510 C   0  0  0  0  0  2  0  0  0  0  0  0
  -19.1640  -28.8540   23.3660 C   0  0  0  0  0  0  0  0  0  0  0  0
  -18.9480  -30.1110   23.9700 C   0  0  0  0  0  3  0  0  0  0  0  0
  -17.6450  -30.6120   24.1470 C   0  0  0  0  0  3  0  0  0  0  0  0
  -16.5380  -29.8500   23.7330 C   0  0  0  0  0  3  0  0  0  0  0  0
  -16.7380  -28.5930   23.1330 C   0  0  0  0  0  3  0  0  0  0  0  0
  -25.8970  -32.5180   23.8640 C   0  0  0  0  0  3  0  0  0  0  0  0
  -25.5830  -33.9130   24.2040 N   0  0  0  0  0  0  0  0  0  0  0  0
  -25.8930  -34.9720   23.4430 C   0  0  0  0  0  0  0  0  0  0  0  0
  -26.5420  -34.8760   22.3970 O   0  0  0  0  0  0  0  0  0  0  0  0
  -25.0050  -34.0610   25.0170 H   0  0  0  0  0  0  0  0  0  0  0  0
  -24.1430  -36.7540   23.1400 C   0  0  0  0  0  1  0  0  0  0  0  0
  -25.4090  -36.3570   23.9160 C   0  0  0  0  0  3  0  0  0  0  0  0
  -27.5560  -37.2610   24.6920 C   0  0  0  0  0  1  0  0  0  0  0  0
  -26.4300  -37.4180   23.7750 N   0  0  0  0  0  0  0  0  0  0  0  0
  -26.0200  -38.3350   23.9310 H   0  0  0  0  0  0  0  0  0  0  0  0
  -26.4140  -31.7420   25.1380 C   0  0  1  0  0  0  0  0  0  0  0  0
  -25.3220  -31.4960   26.2030 C   0  0  0  0  0  1  0  0  0  0  0  0
  -27.0030  -30.3680   24.7430 C   0  0  0  0  0  1  0  0  0  0  0  0
  -27.5620  -32.5380   25.8040 C   0  0  0  0  0  1  0  0  0  0  0  0
  2  5  1  0
  3  7  1  0
  3  6  1  0
  4 19  1  0
  4  1  1  0
  5  1  1  0
  6 53  1  0
  6  5  1  0
  7  8  1  6
  7  4  1  0
  7  2  1  0
  9 23  1  0
 10 15  1  0
 11 12  1  0
 11 10  1  0
 13 12  1  0
 13 28  1  0
 13 14  1  0
 15  9  1  0
 15 14  1  0
 16  9  2  0
 17 22  2  0
 17 19  1  0
 19 21  2  0
 20 23  1  0
 20 18  2  0
 21 18  1  0
 22 20  1  0
 23 24  1  0
 25 26  2  0
 26 45  1  0
 27 26  1  0
 27 30  1  0
 28 29  1  0
 28 25  1  0
 29 27  2  0
 30 31  1  0
 31 32  2  0
 33 36  1  0
 33 32  1  0
 34 33  2  0
 35 34  1  0
 35 30  2  0
 36 37  1  0
 37 38  1  0
 38 39  2  0
 40 39  1  0
 40 44  1  0
 41 40  2  0
 42 37  2  0
 42 41  1  0
 43 42  1  0
 45 46  1  0
 46 49  1  0
 46 48  1  0
 47 45  2  0
 50 25  1  0
 50 51  1  0
 52 50  1  0
 54 65  2  0
 55 53  1  0
 55 60  1  0
 56 64  1  0
 56 66  1  0
 57 63  1  0
 57 59  1  0
 58 64  1  0
 59 58  1  0
 60 59  2  0
 61 62  1  0
 61 55  2  0
 62 57  2  0
 63 56  1  0
 64 54  1  0
 66 68  2  0
 67 66  1  0
 69 67  1  0
 70 79  2  0
 70 75  1  0
 71 67  1  0
 71 75  1  0
 72 71  1  0
 73 74  1  0
 73 72  1  0
 74 70  1  0
 75 76  2  0
 76 77  1  0
 78 77  2  0
 79 78  1  0
 80 54  1  0
 80 81  1  0
 80 90  1  0
 81 84  1  0
 82 86  1  0
 82 81  1  0
 83 82  2  0
 86 85  1  0
 88 86  1  0
 88 89  1  0
 88 87  1  0
 90 93  1  1
 90 91  1  0
 92 90  1  0
M  ISO  4   6 101   9 100  23 100  53 101
M  END
>  <TORSDO>  (50) 
F 16

>  <SCORE>  (50) 
-15.402

>  <name>  (50) 
49

>  <ligand_id>  (50) 
49

>  <original_smiles>  (50) 
[H]c1nc(C2([H])C([H])([H])C3([H])C([H])(Oc4c([H])c([H])c5c(c4[H])C([H])([H])N(C(=O)C([H])(N([H])C(=O)C([H])(N([H])C([H])([H])[H])C([H])([H])[H])C(C([H])([H])[H])(C([H])([H])[H])C([H])([H])[H])C([H])(C(=O)N([H])C4([H])c6c([H])c([H])c([H])c([H])c6C([H])([H])C([H])([H])C4([H])[H])C5([H])[H])C([H])([H])[N+]2([H])C3([H])[H])c([H])nc1N([H])C(=O)N1C([H])([H])C([H])([H])C([H])([H])C([H])(n2nc(-c3c([H])c([H])c(Oc4c([H])c([H])c(F)c([H])c4F)c([H])c3[H])c(C(=O)N([H])[H])c2N([H])[H])C1([H])[H]

>  <smiles>  (50) 
[H]c1nc(C2([H])C([H])([H])C3([H])C([H])(Oc4c([H])c([H])c5c(c4[H])C([H])([H])N(C(=O)C([H])(N([H])C(=O)C([H])(N([H])C([H])([H])[H])C([H])([H])[H])C(C([H])([H])[H])(C([H])([H])[H])C([H])([H])[H])C([H])(C(=O)N([H])C4([H])c6c([H])c([H])c([H])c([H])c6C([H])([H])C([H])([H])C4([H])[H])C5([H])[H])C([H])([H])[N+]2([H])C3([H])[H])c([H])nc1N([H])C(=O)N1C([H])([H])C([H])([H])C([H])([H])C([H])(n2nc(-c3c([H])c([H])c(Oc4c([H])c([H])c(F)c([H])c4F)c([H])c3[H])c(C(=O)N([H])[H])c2N([H])[H])C1([H])[H]

$$$$
50:0:0
     RDKit          3D

 92102  0  0  1  0  0  0  0  0999 V2000
  -28.6800  -21.8900   19.5290 C   0  0  0  0  0  3  0  0  0  0  0  0
  -28.8980  -23.1910   20.0880 C   0  0  0  0  0  0  0  0  0  0  0  0
  -30.0940  -21.4840   21.1300 C   0  0  0  0  0  3  0  0  0  0  0  0
  -29.4050  -20.8190   20.1700 N   0  0  0  0  0  0  0  0  0  0  0  0
  -29.8160  -22.8310   21.0650 N   0  0  0  0  0  0  0  0  0  0  0  0
  -30.2090  -23.5010   21.7170 H   0  0  0  0  0  0  0  0  0  0  0  0
  -30.4730  -20.2200   23.4080 C   0  0  0  0  0  2  0  0  0  0  0  0
  -31.3180  -21.4710   23.4780 C   0  0  0  0  0  2  0  0  0  0  0  0
  -31.0040  -20.8430   22.1370 C   0  0  0  0  0  3  0  0  0  0  0  0
  -28.9580  -18.8800   18.5320 C   0  0  0  0  0  1  0  0  0  0  0  0
  -29.2630  -19.1830   20.0080 C   0  0  0  0  0  3  0  0  0  0  0  0
  -30.7980  -15.1860   20.3810 C   0  0  0  0  0  0  0  0  0  0  0  0
  -30.7410  -12.8030   19.4490 C   0  0  0  0  0  2  0  0  0  0  0  0
  -29.8330  -12.6860   18.2000 C   0  0  0  0  0  2  0  0  0  0  0  0
  -28.3630  -12.4720   18.6050 C   0  0  0  0  0  2  0  0  0  0  0  0
  -27.9220  -13.4150   19.7550 C   0  0  0  0  0  3  0  0  0  0  0  0
  -28.9530  -13.4700   20.8990 C   0  0  0  0  0  2  0  0  0  0  0  0
  -30.2160  -13.9150   20.2980 N   0  0  0  0  0  0  0  0  0  0  0  0
  -32.0130  -15.2410   20.1510 O   0  0  0  0  0  0  0  0  0  0  0  0
  -29.9220  -17.1200   21.7410 C   0  0  0  0  0  2  0  0  0  0  0  0
  -30.2840  -17.9400   20.5340 C   0  0  0  0  0  3  0  0  0  0  0  0
  -30.0040  -16.3870   20.5130 N   0  0  0  0  0  0  0  0  0  0  0  0
  -25.5320  -13.9880   20.4410 C   0  0  0  0  0  0  0  0  0  0  0  0
  -24.4610  -13.2120   20.7890 C   0  0  0  0  0  0  0  0  0  0  0  0
  -24.9300  -11.8620   20.7820 C   0  0  0  0  0  0  0  0  0  0  0  0
  -26.5810  -13.1110   20.2330 N   0  0  0  0  0  0  0  0  0  0  0  0
  -26.2290  -11.8270   20.5060 N   0  0  0  0  0  0  0  0  0  0  0  0
  -24.2040  -10.5990   20.9680 C   0  0  0  0  0  0  0  0  0  0  0  0
  -24.5900   -9.6600   21.9490 C   0  0  0  0  0  3  0  0  0  0  0  0
  -23.8630   -8.4630   22.1210 C   0  0  0  0  0  3  0  0  0  0  0  0
  -22.7360   -8.1940   21.3080 C   0  0  0  0  0  0  0  0  0  0  0  0
  -22.3680   -9.1220   20.3180 C   0  0  0  0  0  3  0  0  0  0  0  0
  -23.0950  -10.3110   20.1450 C   0  0  0  0  0  3  0  0  0  0  0  0
  -21.9860   -7.0460   21.3850 O   0  0  0  0  0  0  0  0  0  0  0  0
  -21.8230   -6.3700   22.5670 C   0  0  0  0  0  0  0  0  0  0  0  0
  -21.2760   -6.9920   23.7100 C   0  0  0  0  0  3  0  0  0  0  0  0
  -21.0620   -6.2410   24.8840 C   0  0  0  0  0  3  0  0  0  0  0  0
  -21.3850   -4.8710   24.9150 C   0  0  0  0  0  0  0  0  0  0  0  0
  -21.9250   -4.2500   23.7740 C   0  0  0  0  0  3  0  0  0  0  0  0
  -22.1410   -4.9970   22.6030 C   0  0  0  0  0  0  0  0  0  0  0  0
  -22.6410   -4.3900   21.5020 F   0  0  0  0  0  0  0  0  0  0  0  0
  -21.1720   -4.1490   26.0390 F   0  0  0  0  0  0  0  0  0  0  0  0
  -23.0570  -13.6860   21.0190 C   0  0  0  0  0  0  0  0  0  0  0  0
  -22.3170  -13.0030   21.8860 N   0  0  0  0  0  0  0  0  0  0  0  0
  -22.6250  -14.6980   20.4690 O   0  0  0  0  0  0  0  0  0  0  0  0
  -22.6820  -12.1860   22.3500 H   0  0  0  0  0  0  0  0  0  0  0  0
  -21.3750  -13.3040   22.0890 H   0  0  0  0  0  0  0  0  0  0  0  0
  -25.7000  -15.3570   20.2580 N   0  0  0  0  0  0  0  0  0  0  0  0
  -24.9370  -16.0200   20.3510 H   0  0  0  0  0  0  0  0  0  0  0  0
  -26.5710  -15.7880   19.9750 H   0  0  0  0  0  0  0  0  0  0  0  0
  -28.1080  -24.6590   19.8790 C   0  0  0  0  0  2  0  0  0  0  0  0
  -28.4590  -26.1650   20.2200 O   0  0  0  0  0  0  0  0  0  0  0  0
  -24.8160  -31.8540   23.3090 C   0  0  0  0  0  0  0  0  0  0  0  0
  -27.4540  -27.2250   20.1320 C   0  0  0  0  0  0  0  0  0  0  0  0
  -23.6580  -30.5380   21.5810 C   0  0  0  0  0  3  0  0  0  0  0  0
  -25.1400  -29.0270   20.1170 C   0  0  0  0  0  0  0  0  0  0  0  0
  -26.2220  -30.7830   21.5030 C   0  0  0  0  0  2  0  0  0  0  0  0
  -26.3070  -29.4200   20.7860 C   0  0  0  0  0  0  0  0  0  0  0  0
  -27.4600  -28.5340   20.7840 C   0  0  0  0  0  3  0  0  0  0  0  0
  -26.2700  -26.9720   19.3980 C   0  0  0  0  0  3  0  0  0  0  0  0
  -25.1410  -27.8180   19.4080 C   0  0  0  0  0  3  0  0  0  0  0  0
  -23.9140  -29.9280   20.1780 C   0  0  0  0  0  2  0  0  0  0  0  0
  -24.9190  -31.0800   22.1850 N   0  0  0  0  0  0  0  0  0  0  0  0
  -23.7160  -32.1170   23.8190 O   0  0  0  0  0  0  0  0  0  0  0  0
  -22.9530  -29.4900   22.4780 C   0  0  0  0  0  0  0  0  0  0  0  0
  -21.6260  -29.3270   22.3130 N   0  0  0  0  0  0  0  0  0  0  0  0
  -23.6020  -28.8240   23.2870 O   0  0  0  0  0  0  0  0  0  0  0  0
  -21.1530  -29.9100   21.6370 H   0  0  0  0  0  0  0  0  0  0  0  0
  -18.2360  -28.1110   22.6820 C   0  0  0  0  0  0  0  0  0  0  0  0
  -20.7870  -28.3590   23.0240 C   0  0  0  0  0  3  0  0  0  0  0  0
  -20.9060  -26.9530   22.3920 C   0  0  0  0  0  2  0  0  0  0  0  0
  -19.8310  -26.6750   21.3360 C   0  0  0  0  0  2  0  0  0  0  0  0
  -18.4320  -26.7940   21.9480 C   0  0  0  0  0  2  0  0  0  0  0  0
  -19.3420  -28.8530   23.1710 C   0  0  0  0  0  0  0  0  0  0  0  0
  -19.1070  -30.0890   23.8130 C   0  0  0  0  0  3  0  0  0  0  0  0
  -17.7960  -30.5790   23.9730 C   0  0  0  0  0  3  0  0  0  0  0  0
  -16.7040  -29.8340   23.4980 C   0  0  0  0  0  3  0  0  0  0  0  0
  -16.9240  -28.6000   22.8590 C   0  0  0  0  0  3  0  0  0  0  0  0
  -26.0770  -32.4600   23.9960 C   0  0  0  0  0  3  0  0  0  0  0  0
  -26.5490  -31.6390   25.2580 C   0  0  1  0  0  0  0  0  0  0  0  0
  -25.4230  -31.3790   26.2850 C   0  0  0  0  0  1  0  0  0  0  0  0
  -27.1320  -30.2680   24.8410 C   0  0  0  0  0  1  0  0  0  0  0  0
  -27.6880  -32.3980   25.9800 C   0  0  0  0  0  1  0  0  0  0  0  0
  -25.7610  -33.8460   24.3780 N   0  0  0  0  0  0  0  0  0  0  0  0
  -26.0990  -34.9300   23.6690 C   0  0  0  0  0  0  0  0  0  0  0  0
  -26.7780  -34.8710   22.6390 O   0  0  0  0  0  0  0  0  0  0  0  0
  -25.1640  -33.9690   25.1820 H   0  0  0  0  0  0  0  0  0  0  0  0
  -24.3680  -36.7330   23.3890 C   0  0  0  0  0  1  0  0  0  0  0  0
  -25.6120  -36.3000   24.1810 C   0  0  0  0  0  3  0  0  0  0  0  0
  -27.7450  -37.1560   25.0450 C   0  0  0  0  0  1  0  0  0  0  0  0
  -26.6430  -37.3590   24.1090 N   0  0  0  0  0  0  0  0  0  0  0  0
  -26.2330  -38.2700   24.2940 H   0  0  0  0  0  0  0  0  0  0  0  0
  1  2  2  0
  1  4  1  0
  2  5  1  0
  3  9  1  0
  4  3  1  0
  5  3  1  0
  5  6  1  0
  7  8  1  0
  9  7  1  0
  9  8  1  0
 11 10  1  0
 11  4  1  0
 12 22  1  0
 13 18  1  0
 14 15  1  0
 14 13  1  0
 16 15  1  0
 16 26  1  0
 16 17  1  0
 18 12  1  0
 18 17  1  0
 19 12  2  0
 21 11  1  0
 21 20  1  0
 22 21  1  0
 22 20  1  0
 23 24  2  0
 24 43  1  0
 25 24  1  0
 25 28  1  0
 26 23  1  0
 26 27  1  0
 27 25  2  0
 28 29  1  0
 29 30  2  0
 31 34  1  0
 31 30  1  0
 32 31  2  0
 33 32  1  0
 33 28  2  0
 34 35  1  0
 35 40  2  0
 35 36  1  0
 36 37  2  0
 37 38  1  0
 38 42  1  0
 39 38  2  0
 40 39  1  0
 41 40  1  0
 43 44  1  0
 44 47  1  0
 44 46  1  0
 45 43  2  0
 48 49  1  0
 48 23  1  0
 50 48  1  0
 51  2  1  0
 51 52  1  0
 53 64  2  0
 54 52  1  0
 54 59  1  0
 55 63  1  0
 55 65  1  0
 56 62  1  0
 56 58  1  0
 57 63  1  0
 58 57  1  0
 59 58  2  0
 60 61  1  0
 60 54  2  0
 61 56  2  0
 62 55  1  0
 63 53  1  0
 65 67  2  0
 66 65  1  0
 68 66  1  0
 69 78  2  0
 69 74  1  0
 70 66  1  0
 70 74  1  0
 71 70  1  0
 72 73  1  0
 72 71  1  0
 73 69  1  0
 74 75  2  0
 75 76  1  0
 77 76  2  0
 78 77  1  0
 79 53  1  0
 79 84  1  0
 79 80  1  0
 80 83  1  1
 80 81  1  0
 82 80  1  0
 84 87  1  0
 85 89  1  0
 85 84  1  0
 86 85  2  0
 89 88  1  0
 91 89  1  0
 91 92  1  0
 91 90  1  0
M  ISO  4  12 100  22 100  51 101  52 101
M  END
>  <TORSDO>  (51) 
F 19

>  <SCORE>  (51) 
-13.829

>  <name>  (51) 
50

>  <ligand_id>  (51) 
50

>  <original_smiles>  (51) 
[H]c1c([H])c([H])c2c(c1[H])C([H])([H])C([H])([H])C([H])([H])C2([H])N([H])C(=O)C1([H])N(C(=O)C([H])(N([H])C(=O)C([H])(N([H])C([H])([H])[H])C([H])([H])[H])C(C([H])([H])[H])(C([H])([H])[H])C([H])([H])[H])C([H])([H])c2c([H])c(OC([H])([H])c3c([H])n(C([H])(C([H])([H])[H])C4([H])N(C(=O)N5C([H])([H])C([H])([H])C([H])([H])C([H])(n6nc(-c7c([H])c([H])c(Oc8c([H])c([H])c(F)c([H])c8F)c([H])c7[H])c(C(=O)N([H])[H])c6N([H])[H])C5([H])[H])C4([H])[H])c(C4([H])C([H])([H])C4([H])[H])[n+]3[H])c([H])c([H])c2C1([H])[H]

>  <smiles>  (51) 
[H]c1c([H])c([H])c2c(c1[H])C([H])([H])C([H])([H])C([H])([H])C2([H])N([H])C(=O)C1([H])N(C(=O)C([H])(N([H])C(=O)C([H])(N([H])C([H])([H])[H])C([H])([H])[H])C(C([H])([H])[H])(C([H])([H])[H])C([H])([H])[H])C([H])([H])c2c([H])c(OC([H])([H])c3c([H])n(C([H])(C([H])([H])[H])C4([H])N(C(=O)N5C([H])([H])C([H])([H])C([H])([H])C([H])(n6nc(-c7c([H])c([H])c(Oc8c([H])c([H])c(F)c([H])c8F)c([H])c7[H])c(C(=O)N([H])[H])c6N([H])[H])C5([H])[H])C4([H])[H])c(C4([H])C([H])([H])C4([H])[H])[n+]3[H])c([H])c([H])c2C1([H])[H]

$$$$
51:0:0
     RDKit          3D

 88 97  0  0  1  0  0  0  0  0999 V2000
  -27.9260  -22.1880   19.3950 C   0  0  0  0  0  3  0  0  0  0  0  0
  -28.2580  -20.7690   19.3530 C   0  0  0  0  0  3  0  0  0  0  0  0
  -29.4210  -22.4270   21.1660 C   0  0  0  0  0  3  0  0  0  0  0  0
  -28.4890  -23.1350   20.3280 C   0  0  0  0  0  0  0  0  0  0  0  0
  -29.1830  -20.1460   20.2530 C   0  0  0  0  0  0  0  0  0  0  0  0
  -29.7420  -21.0590   21.1280 N   0  0  0  0  0  0  0  0  0  0  0  0
  -30.5310  -15.0280   20.0410 C   0  0  0  0  0  0  0  0  0  0  0  0
  -30.3230  -12.6830   19.0860 C   0  0  0  0  0  2  0  0  0  0  0  0
  -29.3380  -12.6230   17.8990 C   0  0  0  0  0  2  0  0  0  0  0  0
  -27.9010  -12.4070   18.4080 C   0  0  0  0  0  2  0  0  0  0  0  0
  -27.5490  -13.3350   19.6020 C   0  0  0  0  0  3  0  0  0  0  0  0
  -28.6580  -13.3710   20.6730 C   0  0  0  0  0  2  0  0  0  0  0  0
  -29.8820  -13.7930   19.9850 N   0  0  0  0  0  0  0  0  0  0  0  0
  -31.7280  -15.0090   19.7370 O   0  0  0  0  0  0  0  0  0  0  0  0
  -28.9070  -17.1640   20.7660 C   0  0  0  0  0  2  0  0  0  0  0  0
  -30.2270  -17.5610   19.2050 C   0  0  0  0  0  2  0  0  0  0  0  0
  -29.6270  -18.5220   20.3070 C   0  0  0  0  0  3  0  0  0  0  0  0
  -29.8450  -16.2900   19.9470 N   0  0  0  0  0  0  0  0  0  0  0  0
  -25.2180  -13.8990   20.4830 C   0  0  0  0  0  0  0  0  0  0  0  0
  -24.1700  -13.1200   20.8860 C   0  0  0  0  0  0  0  0  0  0  0  0
  -24.6260  -11.7680   20.8010 C   0  0  0  0  0  0  0  0  0  0  0  0
  -26.2420  -13.0240   20.1690 N   0  0  0  0  0  0  0  0  0  0  0  0
  -25.9000  -11.7360   20.4270 N   0  0  0  0  0  0  0  0  0  0  0  0
  -23.9030  -10.5040   20.9970 C   0  0  0  0  0  0  0  0  0  0  0  0
  -24.3550   -9.5270   21.9110 C   0  0  0  0  0  3  0  0  0  0  0  0
  -23.6300   -8.3300   22.0960 C   0  0  0  0  0  3  0  0  0  0  0  0
  -22.4390   -8.1030   21.3660 C   0  0  0  0  0  0  0  0  0  0  0  0
  -22.0070   -9.0670   20.4380 C   0  0  0  0  0  3  0  0  0  0  0  0
  -22.7330  -10.2560   20.2520 C   0  0  0  0  0  3  0  0  0  0  0  0
  -21.6830   -6.9580   21.4590 O   0  0  0  0  0  0  0  0  0  0  0  0
  -21.6290   -6.2260   22.6180 C   0  0  0  0  0  0  0  0  0  0  0  0
  -21.1520   -6.7770   23.8270 C   0  0  0  0  0  3  0  0  0  0  0  0
  -21.0480   -5.9700   24.9760 C   0  0  0  0  0  3  0  0  0  0  0  0
  -21.4100   -4.6110   24.9170 C   0  0  0  0  0  0  0  0  0  0  0  0
  -21.8810   -4.0580   23.7140 C   0  0  0  0  0  3  0  0  0  0  0  0
  -21.9860   -4.8640   22.5670 C   0  0  0  0  0  0  0  0  0  0  0  0
  -22.4190   -4.3220   21.4020 F   0  0  0  0  0  0  0  0  0  0  0  0
  -21.3040   -3.8320   26.0190 F   0  0  0  0  0  0  0  0  0  0  0  0
  -22.7900  -13.5960   21.2320 C   0  0  0  0  0  0  0  0  0  0  0  0
  -22.1030  -12.8870   22.1190 N   0  0  0  0  0  0  0  0  0  0  0  0
  -22.3340  -14.6340   20.7540 O   0  0  0  0  0  0  0  0  0  0  0  0
  -22.4880  -12.0460   22.5250 H   0  0  0  0  0  0  0  0  0  0  0  0
  -21.1810  -13.1890   22.3990 H   0  0  0  0  0  0  0  0  0  0  0  0
  -25.3810  -15.2730   20.3280 N   0  0  0  0  0  0  0  0  0  0  0  0
  -24.6220  -15.9260   20.4820 H   0  0  0  0  0  0  0  0  0  0  0  0
  -26.2100  -15.7070   19.9480 H   0  0  0  0  0  0  0  0  0  0  0  0
  -27.8270  -24.6400   20.6400 C   0  0  0  0  0  2  0  0  0  0  0  0
  -28.2560  -26.1080   20.2730 O   0  0  0  0  0  0  0  0  0  0  0  0
  -24.6040  -31.8730   23.1970 C   0  0  0  0  0  0  0  0  0  0  0  0
  -27.2390  -27.1440   20.2140 C   0  0  0  0  0  0  0  0  0  0  0  0
  -23.4390  -30.4720   21.5410 C   0  0  0  0  0  3  0  0  0  0  0  0
  -24.9180  -28.9090   20.1360 C   0  0  0  0  0  0  0  0  0  0  0  0
  -26.0010  -30.7390   21.4260 C   0  0  0  0  0  2  0  0  0  0  0  0
  -26.0870  -29.3480   20.7690 C   0  0  0  0  0  0  0  0  0  0  0  0
  -27.2530  -28.4840   20.7890 C   0  0  0  0  0  3  0  0  0  0  0  0
  -26.0530  -26.8320   19.5160 C   0  0  0  0  0  3  0  0  0  0  0  0
  -24.9180  -27.6660   19.4900 C   0  0  0  0  0  3  0  0  0  0  0  0
  -23.6840  -29.7970   20.1680 C   0  0  0  0  0  2  0  0  0  0  0  0
  -24.7010  -31.0500   22.1080 N   0  0  0  0  0  0  0  0  0  0  0  0
  -23.5070  -32.1510   23.7050 O   0  0  0  0  0  0  0  0  0  0  0  0
  -22.7490  -29.4620   22.4930 C   0  0  0  0  0  0  0  0  0  0  0  0
  -21.4200  -29.2990   22.3570 N   0  0  0  0  0  0  0  0  0  0  0  0
  -23.4140  -28.8260   23.3160 O   0  0  0  0  0  0  0  0  0  0  0  0
  -20.9410  -29.8600   21.6650 H   0  0  0  0  0  0  0  0  0  0  0  0
  -18.0220  -28.1520   22.8790 C   0  0  0  0  0  0  0  0  0  0  0  0
  -20.5900  -28.3590   23.1160 C   0  0  0  0  0  3  0  0  0  0  0  0
  -20.6570  -26.9380   22.5080 C   0  0  0  0  0  2  0  0  0  0  0  0
  -19.5330  -26.6570   21.5050 C   0  0  0  0  0  2  0  0  0  0  0  0
  -18.1620  -26.8180   22.1680 C   0  0  0  0  0  2  0  0  0  0  0  0
  -19.1620  -28.8830   23.3110 C   0  0  0  0  0  0  0  0  0  0  0  0
  -18.9750  -30.1350   23.9370 C   0  0  0  0  0  3  0  0  0  0  0  0
  -17.6840  -30.6550   24.1360 C   0  0  0  0  0  3  0  0  0  0  0  0
  -16.5590  -29.9200   23.7230 C   0  0  0  0  0  3  0  0  0  0  0  0
  -16.7280  -28.6710   23.1000 C   0  0  0  0  0  3  0  0  0  0  0  0
  -25.8680  -32.5180   23.8440 C   0  0  0  0  0  3  0  0  0  0  0  0
  -25.5390  -33.9140   24.1700 N   0  0  0  0  0  0  0  0  0  0  0  0
  -25.8610  -34.9730   23.4140 C   0  0  0  0  0  0  0  0  0  0  0  0
  -26.5320  -34.8780   22.3830 O   0  0  0  0  0  0  0  0  0  0  0  0
  -24.9480  -34.0650   24.9740 H   0  0  0  0  0  0  0  0  0  0  0  0
  -24.1140  -36.7500   23.0700 C   0  0  0  0  0  1  0  0  0  0  0  0
  -25.3610  -36.3560   23.8760 C   0  0  0  0  0  3  0  0  0  0  0  0
  -27.4830  -37.2630   24.7080 C   0  0  0  0  0  1  0  0  0  0  0  0
  -26.3810  -37.4210   23.7640 N   0  0  0  0  0  0  0  0  0  0  0  0
  -25.9650  -38.3360   23.9140 H   0  0  0  0  0  0  0  0  0  0  0  0
  -26.3570  -31.7580   25.1390 C   0  0  1  0  0  0  0  0  0  0  0  0
  -25.2390  -31.5270   26.1830 C   0  0  0  0  0  1  0  0  0  0  0  0
  -26.9600  -30.3820   24.7780 C   0  0  0  0  0  1  0  0  0  0  0  0
  -27.4860  -32.5670   25.8200 C   0  0  0  0  0  1  0  0  0  0  0  0
  1  4  1  0
  2  1  2  0
  2  5  1  0
  4 47  1  0
  4  3  2  0
  5  6  2  0
  6  3  1  0
  8 13  1  0
  9 10  1  0
  9  8  1  0
 11 10  1  0
 11 22  1  0
 11 12  1  0
 13  7  1  0
 13 12  1  0
 14  7  2  0
 16 18  1  0
 16 17  1  0
 17  5  1  0
 17 15  1  0
 18  7  1  0
 18 15  1  0
 19 20  2  0
 20 39  1  0
 21 20  1  0
 21 24  1  0
 22 23  1  0
 22 19  1  0
 23 21  2  0
 24 25  1  0
 25 26  2  0
 27 30  1  0
 27 26  1  0
 28 27  2  0
 29 28  1  0
 29 24  2  0
 30 31  1  0
 31 32  1  0
 32 33  2  0
 34 33  1  0
 34 38  1  0
 35 34  2  0
 36 31  2  0
 36 35  1  0
 37 36  1  0
 39 40  1  0
 40 43  1  0
 40 42  1  0
 41 39  2  0
 44 45  1  0
 44 19  1  0
 46 44  1  0
 48 47  1  0
 49 60  2  0
 50 48  1  0
 50 55  1  0
 51 59  1  0
 51 61  1  0
 52 58  1  0
 52 54  1  0
 53 59  1  0
 54 55  2  0
 54 53  1  0
 56 50  2  0
 57 56  1  0
 57 52  2  0
 58 51  1  0
 59 49  1  0
 61 63  2  0
 62 61  1  0
 64 62  1  0
 65 74  2  0
 65 70  1  0
 66 62  1  0
 66 70  1  0
 67 66  1  0
 68 69  1  0
 68 67  1  0
 69 65  1  0
 70 71  2  0
 71 72  1  0
 73 72  2  0
 74 73  1  0
 75 49  1  0
 75 76  1  0
 75 85  1  0
 76 79  1  0
 77 81  1  0
 77 76  1  0
 78 77  2  0
 81 80  1  0
 83 81  1  0
 83 84  1  0
 83 82  1  0
 85 88  1  1
 85 86  1  0
 87 85  1  0
M  ISO  4   7 100  18 100  47 101  48 101
M  END
>  <TORSDO>  (52) 
F 17

>  <SCORE>  (52) 
-15.231

>  <name>  (52) 
51

>  <ligand_id>  (52) 
51

>  <original_smiles>  (52) 
[H]c1nc(C2([H])C([H])([H])N(C(=O)N3C([H])([H])C([H])([H])C([H])([H])C([H])(n4nc(-c5c([H])c([H])c(Oc6c([H])c([H])c(F)c([H])c6F)c([H])c5[H])c(C(=O)N([H])[H])c4N([H])[H])C3([H])[H])C2([H])[H])c([H])c([H])c1C([H])([H])Oc1c([H])c([H])c2c(c1[H])C([H])([H])N(C(=O)C([H])(N([H])C(=O)C([H])(N([H])C([H])([H])[H])C([H])([H])[H])C(C([H])([H])[H])(C([H])([H])[H])C([H])([H])[H])C([H])(C(=O)N([H])C1([H])c3c([H])c([H])c([H])c([H])c3C([H])([H])C([H])([H])C1([H])[H])C2([H])[H]

>  <smiles>  (52) 
[H]c1nc(C2([H])C([H])([H])N(C(=O)N3C([H])([H])C([H])([H])C([H])([H])C([H])(n4nc(-c5c([H])c([H])c(Oc6c([H])c([H])c(F)c([H])c6F)c([H])c5[H])c(C(=O)N([H])[H])c4N([H])[H])C3([H])[H])C2([H])[H])c([H])c([H])c1C([H])([H])Oc1c([H])c([H])c2c(c1[H])C([H])([H])N(C(=O)C([H])(N([H])C(=O)C([H])(N([H])C([H])([H])[H])C([H])([H])[H])C(C([H])([H])[H])(C([H])([H])[H])C([H])([H])[H])C([H])(C(=O)N([H])C1([H])c3c([H])c([H])c([H])c([H])c3C([H])([H])C([H])([H])C1([H])[H])C2([H])[H]

$$$$
52:0:0
     RDKit          3D

 93103  0  0  1  0  0  0  0  0999 V2000
  -27.4000  -21.2010   19.0910 C   0  0  0  0  0  0  0  0  0  0  0  0
  -26.7650  -22.4270   18.9700 C   0  0  0  0  0  3  0  0  0  0  0  0
  -28.6800  -21.0900   19.6830 C   0  0  0  0  0  0  0  0  0  0  0  0
  -28.4340  -23.5530   20.0270 C   0  0  0  0  0  0  0  0  0  0  0  0
  -26.4990  -20.0980   18.5780 C   0  0  0  0  0  3  0  0  0  0  0  0
  -25.3850  -22.3170   18.3790 C   0  0  0  0  0  3  0  0  0  0  0  0
  -25.2320  -20.8140   18.0620 C   0  0  0  0  0  3  0  0  0  0  0  0
  -27.2660  -23.5890   19.3920 N   0  0  0  0  0  0  0  0  0  0  0  0
  -29.1480  -22.3370   20.1910 N   0  0  0  0  0  0  0  0  0  0  0  0
  -30.9500  -15.1250   19.7140 C   0  0  0  0  0  0  0  0  0  0  0  0
  -30.6170  -12.7520   18.8960 C   0  0  0  0  0  2  0  0  0  0  0  0
  -29.6250  -12.6260   17.7100 C   0  0  0  0  0  2  0  0  0  0  0  0
  -28.1590  -12.9140   18.1120 C   0  0  0  0  0  2  0  0  0  0  0  0
  -27.9840  -12.9770   19.6360 C   0  0  0  0  0  3  0  0  0  0  0  0
  -29.0170  -13.7010   20.4990 C   0  0  0  0  0  2  0  0  0  0  0  0
  -30.2370  -13.9380   19.7250 N   0  0  0  0  0  0  0  0  0  0  0  0
  -32.1310  -15.0570   19.3570 O   0  0  0  0  0  0  0  0  0  0  0  0
  -30.4170  -18.9710   18.7610 C   0  0  0  0  0  3  0  0  0  0  0  0
  -29.5240  -18.7040   21.0380 C   0  0  0  0  0  3  0  0  0  0  0  0
  -30.4000  -17.3590   18.5690 C   0  0  0  0  0  2  0  0  0  0  0  0
  -30.2580  -17.2510   20.9960 C   0  0  0  0  0  3  0  0  0  0  0  0
  -29.3360  -19.5500   19.7250 C   0  0  0  0  0  0  0  0  0  0  0  0
  -30.3060  -16.4060   19.7490 N   0  0  0  0  0  0  0  0  0  0  0  0
  -25.6520  -13.9720   20.4100 C   0  0  0  0  0  0  0  0  0  0  0  0
  -24.5470  -13.2620   20.8230 C   0  0  0  0  0  0  0  0  0  0  0  0
  -24.9030  -11.8860   20.7090 C   0  0  0  0  0  0  0  0  0  0  0  0
  -26.6120  -12.9980   20.1150 N   0  0  0  0  0  0  0  0  0  0  0  0
  -26.1370  -11.7590   20.3100 N   0  0  0  0  0  0  0  0  0  0  0  0
  -24.1560  -10.6500   20.8940 C   0  0  0  0  0  0  0  0  0  0  0  0
  -24.5880   -9.6720   21.8170 C   0  0  0  0  0  3  0  0  0  0  0  0
  -23.8560   -8.4800   21.9800 C   0  0  0  0  0  3  0  0  0  0  0  0
  -22.6830   -8.2670   21.2140 C   0  0  0  0  0  0  0  0  0  0  0  0
  -22.2790   -9.2330   20.2760 C   0  0  0  0  0  3  0  0  0  0  0  0
  -23.0110  -10.4170   20.1120 C   0  0  0  0  0  3  0  0  0  0  0  0
  -21.9140   -7.1340   21.2910 O   0  0  0  0  0  0  0  0  0  0  0  0
  -21.7720   -6.4480   22.4700 C   0  0  0  0  0  0  0  0  0  0  0  0
  -21.2080   -7.0440   23.6190 C   0  0  0  0  0  3  0  0  0  0  0  0
  -21.0130   -6.2750   24.7830 C   0  0  0  0  0  3  0  0  0  0  0  0
  -21.3760   -4.9160   24.7990 C   0  0  0  0  0  0  0  0  0  0  0  0
  -21.9370   -4.3220   23.6540 C   0  0  0  0  0  3  0  0  0  0  0  0
  -22.1320   -5.0880   22.4910 C   0  0  0  0  0  0  0  0  0  0  0  0
  -22.6530   -4.5070   21.3840 F   0  0  0  0  0  0  0  0  0  0  0  0
  -21.1800   -4.1740   25.9140 F   0  0  0  0  0  0  0  0  0  0  0  0
  -23.2010  -13.7930   21.2260 C   0  0  0  0  0  0  0  0  0  0  0  0
  -22.5070  -13.0820   22.1120 N   0  0  0  0  0  0  0  0  0  0  0  0
  -22.7660  -14.8530   20.7840 O   0  0  0  0  0  0  0  0  0  0  0  0
  -22.8640  -12.2190   22.4910 H   0  0  0  0  0  0  0  0  0  0  0  0
  -21.5980  -13.4070   22.4090 H   0  0  0  0  0  0  0  0  0  0  0  0
  -25.9110  -15.3320   20.2680 N   0  0  0  0  0  0  0  0  0  0  0  0
  -25.2160  -16.0510   20.4410 H   0  0  0  0  0  0  0  0  0  0  0  0
  -26.7840  -15.6990   19.9120 H   0  0  0  0  0  0  0  0  0  0  0  0
  -28.7280  -24.9710   20.7970 C   0  0  0  0  0  2  0  0  0  0  0  0
  -28.5560  -26.4200   20.2720 O   0  0  0  0  0  0  0  0  0  0  0  0
  -24.5980  -31.9050   23.2620 C   0  0  0  0  0  0  0  0  0  0  0  0
  -27.4100  -27.2760   20.3480 C   0  0  0  0  0  0  0  0  0  0  0  0
  -23.5000  -30.4920   21.5640 C   0  0  0  0  0  3  0  0  0  0  0  0
  -25.0410  -28.9440   20.2140 C   0  0  0  0  0  0  0  0  0  0  0  0
  -26.0510  -30.8190   21.5110 C   0  0  0  0  0  2  0  0  0  0  0  0
  -26.1820  -29.4260   20.8700 C   0  0  0  0  0  0  0  0  0  0  0  0
  -27.3720  -28.6130   20.9070 C   0  0  0  0  0  3  0  0  0  0  0  0
  -26.2400  -26.8740   19.6710 C   0  0  0  0  0  3  0  0  0  0  0  0
  -25.0830  -27.6810   19.6000 C   0  0  0  0  0  3  0  0  0  0  0  0
  -23.7950  -29.8160   20.1970 C   0  0  0  0  0  2  0  0  0  0  0  0
  -24.7340  -31.0930   22.1700 N   0  0  0  0  0  0  0  0  0  0  0  0
  -23.4840  -32.1680   23.7400 O   0  0  0  0  0  0  0  0  0  0  0  0
  -22.7980  -29.4710   22.4920 C   0  0  0  0  0  0  0  0  0  0  0  0
  -21.4760  -29.2970   22.3210 N   0  0  0  0  0  0  0  0  0  0  0  0
  -23.4470  -28.8360   23.3280 O   0  0  0  0  0  0  0  0  0  0  0  0
  -21.0120  -29.8600   21.6220 H   0  0  0  0  0  0  0  0  0  0  0  0
  -18.0690  -28.1440   22.7580 C   0  0  0  0  0  0  0  0  0  0  0  0
  -20.6310  -28.3480   23.0510 C   0  0  0  0  0  3  0  0  0  0  0  0
  -20.7120  -26.9380   22.4230 C   0  0  0  0  0  2  0  0  0  0  0  0
  -19.6110  -26.6740   21.3900 C   0  0  0  0  0  2  0  0  0  0  0  0
  -18.2270  -26.8190   22.0310 C   0  0  0  0  0  2  0  0  0  0  0  0
  -19.1990  -28.8700   23.2220 C   0  0  0  0  0  0  0  0  0  0  0  0
  -18.9970  -30.1120   23.8630 C   0  0  0  0  0  3  0  0  0  0  0  0
  -17.7000  -30.6280   24.0440 C   0  0  0  0  0  3  0  0  0  0  0  0
  -16.5850  -29.8980   23.5960 C   0  0  0  0  0  3  0  0  0  0  0  0
  -16.7710  -28.6580   22.9590 C   0  0  0  0  0  3  0  0  0  0  0  0
  -25.8330  -32.5620   23.9530 C   0  0  0  0  0  3  0  0  0  0  0  0
  -25.5000  -33.9680   24.2270 N   0  0  0  0  0  0  0  0  0  0  0  0
  -25.8610  -35.0040   23.4570 C   0  0  0  0  0  0  0  0  0  0  0  0
  -26.5760  -34.8750   22.4590 O   0  0  0  0  0  0  0  0  0  0  0  0
  -24.8720  -34.1410   24.9980 H   0  0  0  0  0  0  0  0  0  0  0  0
  -24.1330  -36.7740   22.9950 C   0  0  0  0  0  1  0  0  0  0  0  0
  -25.3510  -36.4040   23.8550 C   0  0  0  0  0  3  0  0  0  0  0  0
  -27.4460  -37.3410   24.7340 C   0  0  0  0  0  1  0  0  0  0  0  0
  -26.3810  -37.4610   23.7390 N   0  0  0  0  0  0  0  0  0  0  0  0
  -25.9630  -38.3820   23.8330 H   0  0  0  0  0  0  0  0  0  0  0  0
  -26.2620  -31.8300   25.2840 C   0  0  1  0  0  0  0  0  0  0  0  0
  -25.0940  -31.5970   26.2710 C   0  0  0  0  0  1  0  0  0  0  0  0
  -26.8960  -30.4540   24.9730 C   0  0  0  0  0  1  0  0  0  0  0  0
  -27.3450  -32.6590   26.0140 C   0  0  0  0  0  1  0  0  0  0  0  0
  1  3  1  0
  2  6  1  0
  2  1  1  0
  2  8  1  0
  3 22  1  0
  3  9  2  0
  4  9  1  0
  4 52  1  0
  5  1  2  0
  7  6  2  0
  7  5  1  0
  8  4  2  0
 10 16  1  0
 10 23  1  0
 11 16  1  0
 12 13  1  0
 12 11  1  0
 14 13  1  0
 14 27  1  0
 14 15  1  0
 16 15  1  0
 17 10  2  0
 18 22  2  0
 20 18  1  0
 20 23  1  0
 21 19  2  0
 22 19  1  0
 23 21  1  0
 24 25  2  0
 25 44  1  0
 26 25  1  0
 26 29  1  0
 27 28  1  0
 27 24  1  0
 28 26  2  0
 29 30  1  0
 30 31  2  0
 32 35  1  0
 32 31  1  0
 33 32  2  0
 34 33  1  0
 34 29  2  0
 35 36  1  0
 36 41  2  0
 36 37  1  0
 37 38  2  0
 38 39  1  0
 39 43  1  0
 40 39  2  0
 41 40  1  0
 42 41  1  0
 44 45  1  0
 45 48  1  0
 45 47  1  0
 46 44  2  0
 49 24  1  0
 49 50  1  0
 51 49  1  0
 53 55  1  0
 53 52  1  0
 54 65  2  0
 55 60  1  0
 56 64  1  0
 56 66  1  0
 57 59  1  0
 58 64  1  0
 59 60  2  0
 59 58  1  0
 61 55  2  0
 62 61  1  0
 62 57  2  0
 63 57  1  0
 63 56  1  0
 64 54  1  0
 66 68  2  0
 67 66  1  0
 69 67  1  0
 70 79  2  0
 70 75  1  0
 71 67  1  0
 71 75  1  0
 72 71  1  0
 73 74  1  0
 73 72  1  0
 74 70  1  0
 75 76  2  0
 76 77  1  0
 78 77  2  0
 79 78  1  0
 80 54  1  0
 80 81  1  0
 80 90  1  0
 81 84  1  0
 82 86  1  0
 82 81  1  0
 83 82  2  0
 86 85  1  0
 88 89  1  0
 88 86  1  0
 88 87  1  0
 90 93  1  1
 90 91  1  0
 92 90  1  0
M  ISO  4  10 100  23 100  52 101  53 101
M  END
>  <TORSDO>  (53) 
F 17

>  <SCORE>  (53) 
-14.847

>  <name>  (53) 
52

>  <ligand_id>  (53) 
52

>  <original_smiles>  (53) 
[H]c1c([H])c([H])c2c(c1[H])C([H])([H])C([H])([H])C([H])([H])C2([H])N([H])C(=O)C1([H])N(C(=O)C([H])(N([H])C(=O)C([H])(N([H])C([H])([H])[H])C([H])([H])[H])C(C([H])([H])[H])(C([H])([H])[H])C([H])([H])[H])C([H])([H])c2c([H])c(OC([H])([H])c3nc4c(c(C5([H])C([H])([H])C([H])([H])N(C(=O)N6C([H])([H])C([H])([H])C([H])([H])C([H])(n7nc(-c8c([H])c([H])c(Oc9c([H])c([H])c(F)c([H])c9F)c([H])c8[H])c(C(=O)N([H])[H])c7N([H])[H])C6([H])[H])C([H])([H])C5([H])[H])n3)C([H])([H])C([H])([H])C4([H])[H])c([H])c([H])c2C1([H])[H]

>  <smiles>  (53) 
[H]c1c([H])c([H])c2c(c1[H])C([H])([H])C([H])([H])C([H])([H])C2([H])N([H])C(=O)C1([H])N(C(=O)C([H])(N([H])C(=O)C([H])(N([H])C([H])([H])[H])C([H])([H])[H])C(C([H])([H])[H])(C([H])([H])[H])C([H])([H])[H])C([H])([H])c2c([H])c(OC([H])([H])c3nc4c(c(C5([H])C([H])([H])C([H])([H])N(C(=O)N6C([H])([H])C([H])([H])C([H])([H])C([H])(n7nc(-c8c([H])c([H])c(Oc9c([H])c([H])c(F)c([H])c9F)c([H])c8[H])c(C(=O)N([H])[H])c7N([H])[H])C6([H])[H])C([H])([H])C5([H])[H])n3)C([H])([H])C([H])([H])C4([H])[H])c([H])c([H])c2C1([H])[H]

$$$$
53:0:0
     RDKit          3D

 93102  0  0  1  0  0  0  0  0999 V2000
  -30.2870  -24.3140   19.2610 C   0  0  0  0  0  3  0  0  0  0  0  0
  -29.3110  -23.5310   19.9140 C   0  0  0  0  0  0  0  0  0  0  0  0
  -29.6630  -22.0330   19.9430 C   0  0  0  0  0  0  0  0  0  0  0  0
  -31.6050  -22.5610   18.7490 C   0  0  0  0  0  0  0  0  0  0  0  0
  -32.8640  -22.0170   18.1100 C   0  0  0  0  0  1  0  0  0  0  0  0
  -31.4100  -23.8570   18.6950 N   0  0  0  0  0  0  0  0  0  0  0  0
  -30.8030  -21.6860   19.3180 N   0  0  0  0  0  0  0  0  0  0  0  0
  -29.1500  -20.7190   20.4520 N   0  0  0  0  0  0  0  0  0  0  0  0
  -28.2630  -20.7440   20.9450 H   0  0  0  0  0  0  0  0  0  0  0  0
  -31.0450  -19.3390   21.4930 C   0  0  0  0  0  1  0  0  0  0  0  0
  -29.9240  -19.3080   20.4400 C   0  0  0  0  0  3  0  0  0  0  0  0
  -30.4320  -15.1260   20.3330 C   0  0  0  0  0  0  0  0  0  0  0  0
  -30.3440  -12.7600   19.3760 C   0  0  0  0  0  2  0  0  0  0  0  0
  -29.4100  -12.6750   18.1470 C   0  0  0  0  0  2  0  0  0  0  0  0
  -27.9490  -12.4450   18.5790 C   0  0  0  0  0  2  0  0  0  0  0  0
  -27.5250  -13.3590   19.7590 C   0  0  0  0  0  3  0  0  0  0  0  0
  -28.5850  -13.4100   20.8760 C   0  0  0  0  0  2  0  0  0  0  0  0
  -29.8360  -13.8590   20.2480 N   0  0  0  0  0  0  0  0  0  0  0  0
  -31.6630  -15.1540   20.2350 O   0  0  0  0  0  0  0  0  0  0  0  0
  -28.0940  -17.5580   19.5700 C   0  0  0  0  0  2  0  0  0  0  0  0
  -29.0830  -16.6630   18.8160 C   0  0  0  0  0  2  0  0  0  0  0  0
  -29.1790  -17.7930   20.6110 C   0  0  0  0  0  3  0  0  0  0  0  0
  -29.6540  -16.3270   20.1190 N   0  0  0  0  0  0  0  0  0  0  0  0
  -25.1360  -13.9140   20.4790 C   0  0  0  0  0  0  0  0  0  0  0  0
  -24.0760  -13.1330   20.8390 C   0  0  0  0  0  0  0  0  0  0  0  0
  -24.5570  -11.7880   20.8260 C   0  0  0  0  0  0  0  0  0  0  0  0
  -26.1920  -13.0460   20.2580 N   0  0  0  0  0  0  0  0  0  0  0  0
  -25.8530  -11.7620   20.5350 N   0  0  0  0  0  0  0  0  0  0  0  0
  -23.8410  -10.5210   21.0160 C   0  0  0  0  0  0  0  0  0  0  0  0
  -24.2670   -9.5680   21.9660 C   0  0  0  0  0  3  0  0  0  0  0  0
  -23.5480   -8.3670   22.1450 C   0  0  0  0  0  3  0  0  0  0  0  0
  -22.3890   -8.1110   21.3730 C   0  0  0  0  0  0  0  0  0  0  0  0
  -21.9830   -9.0550   20.4130 C   0  0  0  0  0  3  0  0  0  0  0  0
  -22.7030  -10.2470   20.2330 C   0  0  0  0  0  3  0  0  0  0  0  0
  -21.6430   -6.9620   21.4610 O   0  0  0  0  0  0  0  0  0  0  0  0
  -21.5810   -6.2320   22.6210 C   0  0  0  0  0  0  0  0  0  0  0  0
  -21.1100   -6.7900   23.8290 C   0  0  0  0  0  3  0  0  0  0  0  0
  -20.9970   -5.9860   24.9800 C   0  0  0  0  0  3  0  0  0  0  0  0
  -21.3430   -4.6220   24.9230 C   0  0  0  0  0  0  0  0  0  0  0  0
  -21.8070   -4.0630   23.7200 C   0  0  0  0  0  3  0  0  0  0  0  0
  -21.9230   -4.8660   22.5710 C   0  0  0  0  0  0  0  0  0  0  0  0
  -22.3500   -4.3170   21.4090 F   0  0  0  0  0  0  0  0  0  0  0  0
  -21.2280   -3.8460   26.0270 F   0  0  0  0  0  0  0  0  0  0  0  0
  -22.6720  -13.6000   21.0830 C   0  0  0  0  0  0  0  0  0  0  0  0
  -21.9400  -12.9120   21.9510 N   0  0  0  0  0  0  0  0  0  0  0  0
  -22.2320  -14.6140   20.5410 O   0  0  0  0  0  0  0  0  0  0  0  0
  -22.3090  -12.0940   22.4130 H   0  0  0  0  0  0  0  0  0  0  0  0
  -20.9960  -13.2080   22.1580 H   0  0  0  0  0  0  0  0  0  0  0  0
  -25.2800  -15.2830   20.2940 N   0  0  0  0  0  0  0  0  0  0  0  0
  -24.5070  -15.9310   20.3970 H   0  0  0  0  0  0  0  0  0  0  0  0
  -26.1380  -15.7280   19.9950 H   0  0  0  0  0  0  0  0  0  0  0  0
  -28.1050  -24.5850   20.3580 C   0  0  0  0  0  2  0  0  0  0  0  0
  -28.2650  -26.1650   20.2300 O   0  0  0  0  0  0  0  0  0  0  0  0
  -24.6440  -31.9160   23.2360 C   0  0  0  0  0  0  0  0  0  0  0  0
  -27.1920  -27.1490   20.2090 C   0  0  0  0  0  0  0  0  0  0  0  0
  -23.4320  -30.5180   21.6090 C   0  0  0  0  0  3  0  0  0  0  0  0
  -24.8670  -28.9260   20.1830 C   0  0  0  0  0  0  0  0  0  0  0  0
  -25.9880  -30.7660   21.4290 C   0  0  0  0  0  2  0  0  0  0  0  0
  -26.0540  -29.3670   20.7810 C   0  0  0  0  0  0  0  0  0  0  0  0
  -27.2160  -28.4980   20.7700 C   0  0  0  0  0  3  0  0  0  0  0  0
  -25.9750  -26.8180   19.5740 C   0  0  0  0  0  3  0  0  0  0  0  0
  -24.8430  -27.6670   19.5620 C   0  0  0  0  0  3  0  0  0  0  0  0
  -23.6440  -29.8320   20.2330 C   0  0  0  0  0  2  0  0  0  0  0  0
  -24.7090  -31.0900   22.1460 N   0  0  0  0  0  0  0  0  0  0  0  0
  -23.5600  -32.2060   23.7700 O   0  0  0  0  0  0  0  0  0  0  0  0
  -22.7540  -29.5180   22.5810 C   0  0  0  0  0  0  0  0  0  0  0  0
  -21.4260  -29.3410   22.4550 N   0  0  0  0  0  0  0  0  0  0  0  0
  -23.4270  -28.9030   23.4120 O   0  0  0  0  0  0  0  0  0  0  0  0
  -20.9390  -29.8870   21.7580 H   0  0  0  0  0  0  0  0  0  0  0  0
  -18.0540  -28.1120   22.9550 C   0  0  0  0  0  0  0  0  0  0  0  0
  -20.6080  -28.4050   23.2320 C   0  0  0  0  0  3  0  0  0  0  0  0
  -20.7280  -26.9670   22.6770 C   0  0  0  0  0  2  0  0  0  0  0  0
  -19.6360  -26.6200   21.6600 C   0  0  0  0  0  2  0  0  0  0  0  0
  -18.2490  -26.7580   22.2940 C   0  0  0  0  0  2  0  0  0  0  0  0
  -19.1620  -28.8920   23.3810 C   0  0  0  0  0  0  0  0  0  0  0  0
  -18.9240  -30.1580   23.9600 C   0  0  0  0  0  3  0  0  0  0  0  0
  -17.6130  -30.6450   24.1170 C   0  0  0  0  0  3  0  0  0  0  0  0
  -16.5200  -29.8620   23.7050 C   0  0  0  0  0  3  0  0  0  0  0  0
  -16.7410  -28.5970   23.1310 C   0  0  0  0  0  3  0  0  0  0  0  0
  -25.9250  -32.5540   23.8540 C   0  0  0  0  0  3  0  0  0  0  0  0
  -25.6080  -33.9460   24.2110 N   0  0  0  0  0  0  0  0  0  0  0  0
  -25.9020  -35.0150   23.4590 C   0  0  0  0  0  0  0  0  0  0  0  0
  -26.5350  -34.9330   22.4030 O   0  0  0  0  0  0  0  0  0  0  0  0
  -25.0390  -34.0830   25.0340 H   0  0  0  0  0  0  0  0  0  0  0  0
  -24.1370  -36.7930   23.2070 C   0  0  0  0  0  1  0  0  0  0  0  0
  -25.4200  -36.3930   23.9550 C   0  0  0  0  0  3  0  0  0  0  0  0
  -27.5780  -37.3010   24.6980 C   0  0  0  0  0  1  0  0  0  0  0  0
  -26.4330  -37.4620   23.8060 N   0  0  0  0  0  0  0  0  0  0  0  0
  -26.0230  -38.3750   23.9770 H   0  0  0  0  0  0  0  0  0  0  0  0
  -26.4560  -31.7730   25.1200 C   0  0  1  0  0  0  0  0  0  0  0  0
  -25.3730  -31.5230   26.1980 C   0  0  0  0  0  1  0  0  0  0  0  0
  -27.0400  -30.4010   24.7160 C   0  0  0  0  0  1  0  0  0  0  0  0
  -27.6100  -32.5660   25.7780 C   0  0  0  0  0  1  0  0  0  0  0  0
  1  2  2  0
  2  3  1  0
  2 52  1  0
  3  8  1  0
  4  7  1  0
  5  4  1  0
  6  4  2  0
  6  1  1  0
  7  3  2  0
  8  9  1  0
 11  8  1  0
 11 10  1  0
 13 18  1  0
 14 15  1  0
 14 13  1  0
 16 15  1  0
 16 27  1  0
 16 17  1  0
 18 12  1  0
 18 17  1  0
 19 12  2  0
 20 22  1  0
 21 20  1  0
 21 23  1  0
 22 11  1  0
 23 12  1  0
 23 22  1  0
 24 25  2  0
 25 44  1  0
 26 25  1  0
 26 29  1  0
 27 24  1  0
 27 28  1  0
 28 26  2  0
 29 30  1  0
 30 31  2  0
 32 35  1  0
 32 31  1  0
 33 32  2  0
 34 33  1  0
 34 29  2  0
 35 36  1  0
 36 37  1  0
 37 38  2  0
 39 38  1  0
 39 43  1  0
 40 39  2  0
 41 36  2  0
 41 40  1  0
 42 41  1  0
 44 45  1  0
 45 48  1  0
 45 47  1  0
 46 44  2  0
 49 50  1  0
 49 24  1  0
 51 49  1  0
 53 52  1  0
 54 65  2  0
 55 53  1  0
 55 60  1  0
 56 64  1  0
 56 66  1  0
 57 63  1  0
 57 59  1  0
 58 64  1  0
 59 58  1  0
 60 59  2  0
 61 55  2  0
 62 61  1  0
 62 57  2  0
 63 56  1  0
 64 54  1  0
 66 68  2  0
 67 66  1  0
 69 67  1  0
 70 79  2  0
 70 75  1  0
 71 67  1  0
 71 75  1  0
 72 71  1  0
 73 74  1  0
 73 72  1  0
 74 70  1  0
 75 76  2  0
 76 77  1  0
 78 77  2  0
 79 78  1  0
 80 54  1  0
 80 81  1  0
 80 90  1  0
 81 84  1  0
 82 86  1  0
 82 81  1  0
 83 82  2  0
 86 85  1  0
 88 86  1  0
 88 89  1  0
 88 87  1  0
 90 93  1  1
 90 91  1  0
 92 90  1  0
M  ISO  4  12 100  23 100  52 101  53 101
M  END
>  <TORSDO>  (54) 
F 18

>  <SCORE>  (54) 
-15.129

>  <name>  (54) 
53

>  <ligand_id>  (54) 
53

>  <original_smiles>  (54) 
[H]c1nc(C([H])([H])[H])nc(N([H])C([H])(C([H])([H])[H])C2([H])N(C(=O)N3C([H])([H])C([H])([H])C([H])([H])C([H])(n4nc(-c5c([H])c([H])c(Oc6c([H])c([H])c(F)c([H])c6F)c([H])c5[H])c(C(=O)N([H])[H])c4N([H])[H])C3([H])[H])C([H])([H])C2([H])[H])c1C([H])([H])Oc1c([H])c([H])c2c(c1[H])C([H])([H])N(C(=O)C([H])(N([H])C(=O)C([H])(N([H])C([H])([H])[H])C([H])([H])[H])C(C([H])([H])[H])(C([H])([H])[H])C([H])([H])[H])C([H])(C(=O)N([H])C1([H])c3c([H])c([H])c([H])c([H])c3C([H])([H])C([H])([H])C1([H])[H])C2([H])[H]

>  <smiles>  (54) 
[H]c1nc(C([H])([H])[H])nc(N([H])C([H])(C([H])([H])[H])C2([H])N(C(=O)N3C([H])([H])C([H])([H])C([H])([H])C([H])(n4nc(-c5c([H])c([H])c(Oc6c([H])c([H])c(F)c([H])c6F)c([H])c5[H])c(C(=O)N([H])[H])c4N([H])[H])C3([H])[H])C([H])([H])C2([H])[H])c1C([H])([H])Oc1c([H])c([H])c2c(c1[H])C([H])([H])N(C(=O)C([H])(N([H])C(=O)C([H])(N([H])C([H])([H])[H])C([H])([H])[H])C(C([H])([H])[H])(C([H])([H])[H])C([H])([H])[H])C([H])(C(=O)N([H])C1([H])c3c([H])c([H])c([H])c([H])c3C([H])([H])C([H])([H])C1([H])[H])C2([H])[H]

$$$$
54:0:0
     RDKit          3D

100109  0  0  1  0  0  0  0  0999 V2000
  -31.2660  -22.4050   21.1970 C   0  0  0  0  0  0  0  0  0  0  0  0
  -32.0440  -21.8570   22.2440 C   0  0  0  0  0  0  0  0  0  0  0  0
  -30.3530  -21.5130   20.5860 C   0  0  0  0  0  0  0  0  0  0  0  0
  -31.0860  -19.8100   21.9210 C   0  0  0  0  0  0  0  0  0  0  0  0
  -33.0600  -22.6520   23.0460 C   0  0  0  0  0  1  0  0  0  0  0  0
  -31.9500  -20.5540   22.5840 N   0  0  0  0  0  0  0  0  0  0  0  0
  -30.2560  -20.2370   20.9890 N   0  0  0  0  0  0  0  0  0  0  0  0
  -31.1610  -18.4610   22.1670 N   0  0  0  0  0  0  0  0  0  0  0  0
  -31.8210  -18.2090   22.8920 H   0  0  0  0  0  0  0  0  0  0  0  0
  -30.1300  -13.9340   19.4750 C   0  0  0  0  0  0  0  0  0  0  0  0
  -29.5500  -11.9390   18.1440 C   0  0  0  0  0  2  0  0  0  0  0  0
  -28.3980  -12.2520   17.1650 C   0  0  0  0  0  2  0  0  0  0  0  0
  -27.0340  -12.0510   17.8470 C   0  0  0  0  0  2  0  0  0  0  0  0
  -26.9440  -12.7640   19.2220 C   0  0  0  0  0  3  0  0  0  0  0  0
  -28.1840  -12.4350   20.0890 C   0  0  0  0  0  2  0  0  0  0  0  0
  -29.3920  -12.7970   19.3280 N   0  0  0  0  0  0  0  0  0  0  0  0
  -31.0870  -14.2100   18.7490 O   0  0  0  0  0  0  0  0  0  0  0  0
  -30.7470  -16.0390   22.2120 C   0  0  0  0  0  2  0  0  0  0  0  0
  -30.1570  -17.3010   20.1440 C   0  0  0  0  0  2  0  0  0  0  0  0
  -29.8680  -14.8580   21.7410 C   0  0  0  0  0  2  0  0  0  0  0  0
  -29.1840  -16.1760   19.7580 C   0  0  0  0  0  2  0  0  0  0  0  0
  -30.2670  -17.4060   21.6850 C   0  0  0  0  0  3  0  0  0  0  0  0
  -29.6040  -14.8740   20.2930 N   0  0  0  0  0  0  0  0  0  0  0  0
  -24.6820  -13.2820   20.3460 C   0  0  0  0  0  0  0  0  0  0  0  0
  -23.7120  -12.4670   20.8720 C   0  0  0  0  0  0  0  0  0  0  0  0
  -24.2000  -11.1340   20.7210 C   0  0  0  0  0  0  0  0  0  0  0  0
  -25.6980  -12.4410   19.9170 N   0  0  0  0  0  0  0  0  0  0  0  0
  -25.4210  -11.1420   20.2000 N   0  0  0  0  0  0  0  0  0  0  0  0
  -23.5530   -9.8440   20.9940 C   0  0  0  0  0  0  0  0  0  0  0  0
  -24.0930   -8.9310   21.9250 C   0  0  0  0  0  3  0  0  0  0  0  0
  -23.4450   -7.7030   22.1830 C   0  0  0  0  0  3  0  0  0  0  0  0
  -22.2390   -7.3830   21.5120 C   0  0  0  0  0  0  0  0  0  0  0  0
  -21.7200   -8.2870   20.5670 C   0  0  0  0  0  3  0  0  0  0  0  0
  -22.3710   -9.5050   20.3100 C   0  0  0  0  0  3  0  0  0  0  0  0
  -21.5520   -6.2080   21.6790 O   0  0  0  0  0  0  0  0  0  0  0  0
  -21.5510   -5.5380   22.8770 C   0  0  0  0  0  0  0  0  0  0  0  0
  -21.0820   -6.1380   24.0670 C   0  0  0  0  0  3  0  0  0  0  0  0
  -21.0340   -5.3890   25.2600 C   0  0  0  0  0  3  0  0  0  0  0  0
  -21.4450   -4.0420   25.2660 C   0  0  0  0  0  0  0  0  0  0  0  0
  -21.9050   -3.4440   24.0790 C   0  0  0  0  0  3  0  0  0  0  0  0
  -21.9550   -4.1880   22.8890 C   0  0  0  0  0  0  0  0  0  0  0  0
  -22.3790   -3.6000   21.7450 F   0  0  0  0  0  0  0  0  0  0  0  0
  -21.3960   -3.3210   26.4100 F   0  0  0  0  0  0  0  0  0  0  0  0
  -22.3680  -12.8930   21.3870 C   0  0  0  0  0  0  0  0  0  0  0  0
  -21.8290  -12.1700   22.3610 N   0  0  0  0  0  0  0  0  0  0  0  0
  -21.8070  -13.8980   20.9540 O   0  0  0  0  0  0  0  0  0  0  0  0
  -22.3010  -11.3610   22.7350 H   0  0  0  0  0  0  0  0  0  0  0  0
  -20.9290  -12.4310   22.7420 H   0  0  0  0  0  0  0  0  0  0  0  0
  -24.7740  -14.6590   20.1830 N   0  0  0  0  0  0  0  0  0  0  0  0
  -24.0380  -15.2920   20.4770 H   0  0  0  0  0  0  0  0  0  0  0  0
  -25.5340  -15.1210   19.7010 H   0  0  0  0  0  0  0  0  0  0  0  0
  -28.0360  -22.3400   19.9030 C   0  0  0  0  0  1  0  0  0  0  0  0
  -29.4240  -21.8720   19.4300 C   0  0  0  0  0  2  0  0  0  0  0  0
  -31.4680  -23.8360   20.6880 C   0  0  0  0  0  2  0  0  0  0  0  0
  -30.3920  -24.7650   21.0830 N   0  0  0  0  0  4  0  0  0  0  0  0
  -30.5260  -25.0350   22.0460 H   0  0  0  0  0  0  0  0  0  0  0  0
  -29.4900  -24.3210   21.0190 H   0  0  0  0  0  0  0  0  0  0  0  0
  -30.3620  -25.9820   20.2460 C   0  0  0  0  0  2  0  0  0  0  0  0
  -29.2280  -26.9060   20.6630 C   0  0  0  0  0  2  0  0  0  0  0  0
  -28.0000  -26.3090   20.2540 O   0  0  0  0  0  0  0  0  0  0  0  0
  -24.5110  -31.6730   23.3310 C   0  0  0  0  0  0  0  0  0  0  0  0
  -26.8850  -27.1140   20.2960 C   0  0  0  0  0  0  0  0  0  0  0  0
  -23.2040  -30.3400   21.7010 C   0  0  0  0  0  3  0  0  0  0  0  0
  -24.5490  -28.7000   20.2880 C   0  0  0  0  0  0  0  0  0  0  0  0
  -25.7290  -30.5730   21.4690 C   0  0  0  0  0  2  0  0  0  0  0  0
  -25.7290  -29.1900   20.8560 C   0  0  0  0  0  0  0  0  0  0  0  0
  -26.8920  -28.4100   20.8670 C   0  0  0  0  0  3  0  0  0  0  0  0
  -25.6870  -26.6190   19.7400 C   0  0  0  0  0  3  0  0  0  0  0  0
  -24.5190  -27.4090   19.7320 C   0  0  0  0  0  3  0  0  0  0  0  0
  -23.3540  -29.6230   20.3290 C   0  0  0  0  0  2  0  0  0  0  0  0
  -24.5010  -30.8700   22.2290 N   0  0  0  0  0  0  0  0  0  0  0  0
  -23.4550  -32.0140   23.8810 O   0  0  0  0  0  0  0  0  0  0  0  0
  -22.4960  -29.3760   22.6760 C   0  0  0  0  0  0  0  0  0  0  0  0
  -21.1690  -29.2490   22.5260 N   0  0  0  0  0  0  0  0  0  0  0  0
  -23.1370  -28.7400   23.5170 O   0  0  0  0  0  0  0  0  0  0  0  0
  -20.7190  -29.8010   21.8110 H   0  0  0  0  0  0  0  0  0  0  0  0
  -17.7410  -28.2110   22.9510 C   0  0  0  0  0  0  0  0  0  0  0  0
  -20.2950  -28.3710   23.2990 C   0  0  0  0  0  3  0  0  0  0  0  0
  -20.3600  -26.9220   22.7660 C   0  0  0  0  0  2  0  0  0  0  0  0
  -19.2780  -26.6130   21.7270 C   0  0  0  0  0  2  0  0  0  0  0  0
  -17.8830  -26.8360   22.3220 C   0  0  0  0  0  2  0  0  0  0  0  0
  -18.8770  -28.9380   23.3950 C   0  0  0  0  0  0  0  0  0  0  0  0
  -18.6920  -30.2280   23.9420 C   0  0  0  0  0  3  0  0  0  0  0  0
  -17.4050  -30.7880   24.0480 C   0  0  0  0  0  3  0  0  0  0  0  0
  -16.2840  -30.0570   23.6250 C   0  0  0  0  0  3  0  0  0  0  0  0
  -16.4510  -28.7690   23.0820 C   0  0  0  0  0  3  0  0  0  0  0  0
  -25.8450  -32.2160   23.9430 C   0  0  0  0  0  3  0  0  0  0  0  0
  -25.6300  -33.6250   24.2900 N   0  0  0  0  0  0  0  0  0  0  0  0
  -26.0350  -34.6590   23.5410 C   0  0  0  0  0  0  0  0  0  0  0  0
  -26.7000  -34.5220   22.5110 O   0  0  0  0  0  0  0  0  0  0  0  0
  -25.0400  -33.8100   25.0890 H   0  0  0  0  0  0  0  0  0  0  0  0
  -24.4330  -36.5610   23.1840 C   0  0  0  0  0  1  0  0  0  0  0  0
  -25.6370  -36.0710   24.0060 C   0  0  0  0  0  3  0  0  0  0  0  0
  -27.8150  -36.8020   24.8700 C   0  0  0  0  0  1  0  0  0  0  0  0
  -26.7370  -37.0550   23.9140 N   0  0  0  0  0  0  0  0  0  0  0  0
  -26.3920  -37.9990   24.0690 H   0  0  0  0  0  0  0  0  0  0  0  0
  -26.3300  -31.3960   25.2000 C   0  0  1  0  0  0  0  0  0  0  0  0
  -25.2320  -31.1980   26.2700 C   0  0  0  0  0  1  0  0  0  0  0  0
  -26.8330  -29.9980   24.7750 C   0  0  0  0  0  1  0  0  0  0  0  0
  -27.5290  -32.1110   25.8630 C   0  0  0  0  0  1  0  0  0  0  0  0
  1  2  2  0
  2  6  1  0
  2  5  1  0
  3  7  2  0
  3  1  1  0
  4  8  1  0
  4  6  2  0
  7  4  1  0
  8  9  1  0
 10 23  1  0
 11 16  1  0
 12 13  1  0
 12 11  1  0
 14 13  1  0
 14 27  1  0
 14 15  1  0
 16 10  1  0
 16 15  1  0
 17 10  2  0
 19 22  1  0
 20 18  1  0
 21 19  1  0
 21 23  1  0
 22  8  1  0
 22 18  1  0
 23 20  1  0
 24 25  2  0
 25 44  1  0
 26 25  1  0
 26 29  1  0
 27 28  1  0
 27 24  1  0
 28 26  2  0
 29 30  1  0
 30 31  2  0
 32 35  1  0
 32 31  1  0
 33 32  2  0
 34 33  1  0
 34 29  2  0
 35 36  1  0
 36 41  2  0
 36 37  1  0
 37 38  2  0
 38 39  1  0
 39 43  1  0
 40 39  2  0
 41 40  1  0
 42 41  1  0
 44 45  1  0
 45 47  1  0
 45 48  1  0
 46 44  2  0
 49 24  1  0
 49 50  1  0
 51 49  1  0
 53 52  1  0
 53  3  1  0
 54 55  1  0
 54  1  1  0
 55 56  1  0
 57 55  1  0
 58 59  1  0
 58 55  1  0
 60 62  1  0
 60 59  1  0
 61 72  2  0
 62 67  1  0
 63 71  1  0
 63 73  1  0
 64 70  1  0
 64 66  1  0
 65 71  1  0
 66 67  2  0
 66 65  1  0
 68 62  2  0
 69 68  1  0
 69 64  2  0
 70 63  1  0
 71 61  1  0
 73 75  2  0
 74 73  1  0
 76 74  1  0
 77 86  2  0
 77 82  1  0
 78 74  1  0
 78 82  1  0
 79 78  1  0
 80 81  1  0
 80 79  1  0
 81 77  1  0
 82 83  2  0
 83 84  1  0
 85 84  2  0
 86 85  1  0
 87 61  1  0
 87 88  1  0
 87 97  1  0
 88 91  1  0
 89 93  1  0
 89 88  1  0
 90 89  2  0
 93 92  1  0
 95 93  1  0
 95 96  1  0
 95 94  1  0
 97100  1  1
 97 98  1  0
 99 97  1  0
M  ISO  4  10 100  23 100  59 101  60 101
M  END
>  <TORSDO>  (55) 
F 21

>  <SCORE>  (55) 
-6.821

>  <name>  (55) 
54

>  <ligand_id>  (55) 
54

>  <original_smiles>  (55) 
[H]c1c([H])c([H])c2c(c1[H])C([H])([H])C([H])([H])C([H])([H])C2([H])N([H])C(=O)C1([H])N(C(=O)C([H])(N([H])C(=O)C([H])(N([H])C([H])([H])[H])C([H])([H])[H])C(C([H])([H])[H])(C([H])([H])[H])C([H])([H])[H])C([H])([H])c2c([H])c(OC([H])([H])C([H])([H])[N+]([H])([H])C([H])([H])c3c(C([H])([H])[H])nc(N([H])C4([H])C([H])([H])C([H])([H])N(C(=O)N5C([H])([H])C([H])([H])C([H])([H])C([H])(n6nc(-c7c([H])c([H])c(Oc8c([H])c([H])c(F)c([H])c8F)c([H])c7[H])c(C(=O)N([H])[H])c6N([H])[H])C5([H])[H])C([H])([H])C4([H])[H])nc3C([H])([H])C([H])([H])[H])c([H])c([H])c2C1([H])[H]

>  <smiles>  (55) 
[H]c1c([H])c([H])c2c(c1[H])C([H])([H])C([H])([H])C([H])([H])C2([H])N([H])C(=O)C1([H])N(C(=O)C([H])(N([H])C(=O)C([H])(N([H])C([H])([H])[H])C([H])([H])[H])C(C([H])([H])[H])(C([H])([H])[H])C([H])([H])[H])C([H])([H])c2c([H])c(OC([H])([H])C([H])([H])[N+]([H])([H])C([H])([H])c3c(C([H])([H])[H])nc(N([H])C4([H])C([H])([H])C([H])([H])N(C(=O)N5C([H])([H])C([H])([H])C([H])([H])C([H])(n6nc(-c7c([H])c([H])c(Oc8c([H])c([H])c(F)c([H])c8F)c([H])c7[H])c(C(=O)N([H])[H])c6N([H])[H])C5([H])[H])C([H])([H])C4([H])[H])nc3C([H])([H])C([H])([H])[H])c([H])c([H])c2C1([H])[H]

$$$$
55:0:0
     RDKit          3D

 89 98  0  0  1  0  0  0  0  0999 V2000
  -29.3960  -23.0710   18.6570 C   0  0  0  0  0  3  0  0  0  0  0  0
  -29.9520  -21.9170   18.0740 C   0  0  0  0  0  0  0  0  0  0  0  0
  -28.7100  -22.9930   19.8760 C   0  0  0  0  0  0  0  0  0  0  0  0
  -29.2520  -20.4760   19.7960 C   0  0  0  0  0  0  0  0  0  0  0  0
  -30.6360  -22.0200   16.7140 C   0  0  0  0  0  1  0  0  0  0  0  0
  -29.8960  -20.6790   18.6420 N   0  0  0  0  0  0  0  0  0  0  0  0
  -28.6600  -21.6330   20.4050 N   0  0  0  0  0  0  0  0  0  0  0  0
  -30.4540  -15.2080   20.2100 C   0  0  0  0  0  0  0  0  0  0  0  0
  -30.3540  -12.7850   19.3650 C   0  0  0  0  0  2  0  0  0  0  0  0
  -29.4150  -12.6120   18.1510 C   0  0  0  0  0  2  0  0  0  0  0  0
  -27.9800  -12.3440   18.6270 C   0  0  0  0  0  2  0  0  0  0  0  0
  -27.5480  -13.3200   19.7490 C   0  0  0  0  0  3  0  0  0  0  0  0
  -28.6160  -13.4660   20.8510 C   0  0  0  0  0  2  0  0  0  0  0  0
  -29.8460  -13.9300   20.1940 N   0  0  0  0  0  0  0  0  0  0  0  0
  -31.6660  -15.1740   19.9520 O   0  0  0  0  0  0  0  0  0  0  0  0
  -30.4590  -17.8530   20.8070 C   0  0  0  0  0  2  0  0  0  0  0  0
  -28.9940  -17.4380   19.4810 C   0  0  0  0  0  2  0  0  0  0  0  0
  -29.2760  -18.8190   20.2940 C   0  0  0  0  0  3  0  0  0  0  0  0
  -29.7920  -16.5090   20.4170 N   0  0  0  0  0  0  0  0  0  0  0  0
  -25.1970  -13.8840   20.5620 C   0  0  0  0  0  0  0  0  0  0  0  0
  -24.1380  -13.1070   20.9460 C   0  0  0  0  0  0  0  0  0  0  0  0
  -24.6020  -11.7560   20.8950 C   0  0  0  0  0  0  0  0  0  0  0  0
  -26.2300  -13.0050   20.2870 N   0  0  0  0  0  0  0  0  0  0  0  0
  -25.8850  -11.7200   20.5550 N   0  0  0  0  0  0  0  0  0  0  0  0
  -23.8780  -10.4930   21.0870 C   0  0  0  0  0  0  0  0  0  0  0  0
  -24.3250   -9.5130   21.9990 C   0  0  0  0  0  3  0  0  0  0  0  0
  -23.5950   -8.3190   22.1810 C   0  0  0  0  0  3  0  0  0  0  0  0
  -22.4060   -8.0930   21.4490 C   0  0  0  0  0  0  0  0  0  0  0  0
  -21.9770   -9.0630   20.5270 C   0  0  0  0  0  3  0  0  0  0  0  0
  -22.7090  -10.2480   20.3420 C   0  0  0  0  0  3  0  0  0  0  0  0
  -21.6480   -6.9510   21.5430 O   0  0  0  0  0  0  0  0  0  0  0  0
  -21.6190   -6.1960   22.6870 C   0  0  0  0  0  0  0  0  0  0  0  0
  -21.2130   -6.7360   23.9280 C   0  0  0  0  0  3  0  0  0  0  0  0
  -21.1330   -5.9070   25.0640 C   0  0  0  0  0  3  0  0  0  0  0  0
  -21.4500   -4.5380   24.9630 C   0  0  0  0  0  0  0  0  0  0  0  0
  -21.8510   -3.9980   23.7280 C   0  0  0  0  0  3  0  0  0  0  0  0
  -21.9310   -4.8230   22.5930 C   0  0  0  0  0  0  0  0  0  0  0  0
  -22.2980   -4.2930   21.4010 F   0  0  0  0  0  0  0  0  0  0  0  0
  -21.3640   -3.7410   26.0530 F   0  0  0  0  0  0  0  0  0  0  0  0
  -22.7480  -13.5870   21.2430 C   0  0  0  0  0  0  0  0  0  0  0  0
  -22.0290  -12.8880   22.1170 N   0  0  0  0  0  0  0  0  0  0  0  0
  -22.3080  -14.6180   20.7340 O   0  0  0  0  0  0  0  0  0  0  0  0
  -22.4010  -12.0590   22.5540 H   0  0  0  0  0  0  0  0  0  0  0  0
  -21.0970  -13.1910   22.3570 H   0  0  0  0  0  0  0  0  0  0  0  0
  -25.3580  -15.2550   20.4000 N   0  0  0  0  0  0  0  0  0  0  0  0
  -24.5920  -15.9070   20.5320 H   0  0  0  0  0  0  0  0  0  0  0  0
  -26.2020  -15.6960   20.0560 H   0  0  0  0  0  0  0  0  0  0  0  0
  -27.8930  -24.3970   20.4090 C   0  0  0  0  0  2  0  0  0  0  0  0
  -28.2160  -25.9710   20.1980 O   0  0  0  0  0  0  0  0  0  0  0  0
  -24.6380  -31.8610   23.2100 C   0  0  0  0  0  0  0  0  0  0  0  0
  -27.1970  -27.0350   20.1990 C   0  0  0  0  0  0  0  0  0  0  0  0
  -23.4400  -30.4620   21.5770 C   0  0  0  0  0  3  0  0  0  0  0  0
  -24.8880  -28.8640   20.1600 C   0  0  0  0  0  0  0  0  0  0  0  0
  -26.0030  -30.6900   21.4250 C   0  0  0  0  0  2  0  0  0  0  0  0
  -26.0720  -29.2830   20.7790 C   0  0  0  0  0  0  0  0  0  0  0  0
  -27.2250  -28.3870   20.7820 C   0  0  0  0  0  3  0  0  0  0  0  0
  -25.9870  -26.7580   19.5310 C   0  0  0  0  0  3  0  0  0  0  0  0
  -24.8680  -27.6190   19.5140 C   0  0  0  0  0  3  0  0  0  0  0  0
  -23.6680  -29.7800   20.2010 C   0  0  0  0  0  2  0  0  0  0  0  0
  -24.7140  -31.0290   22.1240 N   0  0  0  0  0  0  0  0  0  0  0  0
  -23.5500  -32.1550   23.7320 O   0  0  0  0  0  0  0  0  0  0  0  0
  -22.7570  -29.4620   22.5450 C   0  0  0  0  0  0  0  0  0  0  0  0
  -21.4290  -29.2910   22.4210 N   0  0  0  0  0  0  0  0  0  0  0  0
  -23.4300  -28.8420   23.3710 O   0  0  0  0  0  0  0  0  0  0  0  0
  -20.9380  -29.8520   21.7380 H   0  0  0  0  0  0  0  0  0  0  0  0
  -18.0500  -28.0790   22.9360 C   0  0  0  0  0  0  0  0  0  0  0  0
  -20.6090  -28.3540   23.1960 C   0  0  0  0  0  3  0  0  0  0  0  0
  -20.7100  -26.9170   22.6310 C   0  0  0  0  0  2  0  0  0  0  0  0
  -19.6060  -26.5880   21.6200 C   0  0  0  0  0  2  0  0  0  0  0  0
  -18.2260  -26.7280   22.2660 C   0  0  0  0  0  2  0  0  0  0  0  0
  -19.1660  -28.8490   23.3600 C   0  0  0  0  0  0  0  0  0  0  0  0
  -18.9420  -30.1120   23.9470 C   0  0  0  0  0  3  0  0  0  0  0  0
  -17.6340  -30.6050   24.1190 C   0  0  0  0  0  3  0  0  0  0  0  0
  -16.5330  -29.8350   23.7060 C   0  0  0  0  0  3  0  0  0  0  0  0
  -16.7420  -28.5750   23.1180 C   0  0  0  0  0  3  0  0  0  0  0  0
  -25.9130  -32.5010   23.8360 C   0  0  0  0  0  3  0  0  0  0  0  0
  -25.5970  -33.9000   24.1720 N   0  0  0  0  0  0  0  0  0  0  0  0
  -25.9160  -34.9610   23.4170 C   0  0  0  0  0  0  0  0  0  0  0  0
  -26.5770  -34.8650   22.3810 O   0  0  0  0  0  0  0  0  0  0  0  0
  -25.0120  -34.0490   24.9810 H   0  0  0  0  0  0  0  0  0  0  0  0
  -24.1850  -36.7560   23.0860 C   0  0  0  0  0  1  0  0  0  0  0  0
  -25.4310  -36.3460   23.8860 C   0  0  0  0  0  3  0  0  0  0  0  0
  -27.5660  -37.2370   24.7050 C   0  0  0  0  0  1  0  0  0  0  0  0
  -26.4600  -37.4030   23.7670 N   0  0  0  0  0  0  0  0  0  0  0  0
  -26.0500  -38.3210   23.9120 H   0  0  0  0  0  0  0  0  0  0  0  0
  -26.4210  -31.7350   25.1210 C   0  0  1  0  0  0  0  0  0  0  0  0
  -25.3270  -31.5100   26.1900 C   0  0  0  0  0  1  0  0  0  0  0  0
  -27.0080  -30.3520   24.7500 C   0  0  0  0  0  1  0  0  0  0  0  0
  -27.5680  -32.5350   25.7850 C   0  0  0  0  0  1  0  0  0  0  0  0
  1  3  1  0
  2  6  1  0
  2  1  2  0
  3  7  2  0
  3 48  1  0
  4  7  1  0
  5  2  1  0
  6  4  2  0
  8 19  1  0
  9 14  1  0
 10 11  1  0
 10  9  1  0
 12 11  1  0
 12 23  1  0
 12 13  1  0
 14  8  1  0
 14 13  1  0
 15  8  2  0
 17 18  1  0
 17 19  1  0
 18  4  1  0
 18 16  1  0
 19 16  1  0
 20 21  2  0
 21 40  1  0
 22 21  1  0
 22 25  1  0
 23 24  1  0
 23 20  1  0
 24 22  2  0
 25 26  1  0
 26 27  2  0
 28 31  1  0
 28 27  1  0
 29 28  2  0
 30 29  1  0
 30 25  2  0
 31 32  1  0
 32 33  1  0
 33 34  2  0
 35 34  1  0
 35 39  1  0
 36 35  2  0
 37 32  2  0
 37 36  1  0
 38 37  1  0
 40 41  1  0
 41 44  1  0
 41 43  1  0
 42 40  2  0
 45 46  1  0
 45 20  1  0
 47 45  1  0
 49 51  1  0
 49 48  1  0
 50 61  2  0
 51 56  1  0
 52 60  1  0
 52 62  1  0
 53 59  1  0
 53 55  1  0
 54 60  1  0
 55 56  2  0
 55 54  1  0
 57 51  2  0
 58 57  1  0
 58 53  2  0
 59 52  1  0
 60 50  1  0
 62 64  2  0
 63 62  1  0
 65 63  1  0
 66 75  2  0
 66 71  1  0
 67 63  1  0
 67 71  1  0
 68 67  1  0
 69 70  1  0
 69 68  1  0
 70 66  1  0
 71 72  2  0
 72 73  1  0
 74 73  2  0
 75 74  1  0
 76 50  1  0
 76 77  1  0
 76 86  1  0
 77 80  1  0
 78 82  1  0
 78 77  1  0
 79 78  2  0
 82 81  1  0
 84 82  1  0
 84 85  1  0
 84 83  1  0
 86 89  1  1
 86 87  1  0
 88 86  1  0
M  ISO  4   8 100  19 100  48 101  49 101
M  END
>  <TORSDO>  (56) 
F 17

>  <SCORE>  (56) 
-16.206

>  <name>  (56) 
55

>  <ligand_id>  (56) 
55

>  <original_smiles>  (56) 
[H]c1c(C([H])([H])[H])nc(C2([H])C([H])([H])N(C(=O)N3C([H])([H])C([H])([H])C([H])([H])C([H])(n4nc(-c5c([H])c([H])c(Oc6c([H])c([H])c(F)c([H])c6F)c([H])c5[H])c(C(=O)N([H])[H])c4N([H])[H])C3([H])[H])C2([H])[H])nc1C([H])([H])Oc1c([H])c([H])c2c(c1[H])C([H])([H])N(C(=O)C([H])(N([H])C(=O)C([H])(N([H])C([H])([H])[H])C([H])([H])[H])C(C([H])([H])[H])(C([H])([H])[H])C([H])([H])[H])C([H])(C(=O)N([H])C1([H])c3c([H])c([H])c([H])c([H])c3C([H])([H])C([H])([H])C1([H])[H])C2([H])[H]

>  <smiles>  (56) 
[H]c1c(C([H])([H])[H])nc(C2([H])C([H])([H])N(C(=O)N3C([H])([H])C([H])([H])C([H])([H])C([H])(n4nc(-c5c([H])c([H])c(Oc6c([H])c([H])c(F)c([H])c6F)c([H])c5[H])c(C(=O)N([H])[H])c4N([H])[H])C3([H])[H])C2([H])[H])nc1C([H])([H])Oc1c([H])c([H])c2c(c1[H])C([H])([H])N(C(=O)C([H])(N([H])C(=O)C([H])(N([H])C([H])([H])[H])C([H])([H])[H])C(C([H])([H])[H])(C([H])([H])[H])C([H])([H])[H])C([H])(C(=O)N([H])C1([H])c3c([H])c([H])c([H])c([H])c3C([H])([H])C([H])([H])C1([H])[H])C2([H])[H]

$$$$
56:0:0
     RDKit          3D

 92101  0  0  1  0  0  0  0  0999 V2000
  -28.4130  -23.8560   19.7600 C   0  0  0  0  0  0  0  0  0  0  0  0
  -28.8410  -21.7600   20.2010 C   0  0  0  0  0  0  0  0  0  0  0  0
  -30.5690  -23.4200   21.0410 C   0  0  0  0  0  1  0  0  0  0  0  0
  -27.3950  -23.1150   19.2810 N   0  0  0  0  0  0  0  0  0  0  0  0
  -27.6830  -21.7730   19.5370 N   0  0  0  0  0  0  0  0  0  0  0  0
  -29.3270  -23.0370   20.3910 N   0  0  0  0  0  0  0  0  0  0  0  0
  -29.5200  -20.5880   20.6850 N   0  0  0  0  0  0  0  0  0  0  0  0
  -30.2400  -20.9290   21.3130 H   0  0  0  0  0  0  0  0  0  0  0  0
  -30.6500  -14.7410   20.1410 C   0  0  0  0  0  0  0  0  0  0  0  0
  -30.3530  -12.4890   19.1140 C   0  0  0  0  0  2  0  0  0  0  0  0
  -29.3780  -12.5790   17.9230 C   0  0  0  0  0  2  0  0  0  0  0  0
  -27.9270  -12.4020   18.4070 C   0  0  0  0  0  2  0  0  0  0  0  0
  -27.5970  -13.2820   19.6420 C   0  0  0  0  0  3  0  0  0  0  0  0
  -28.6970  -13.2110   20.7230 C   0  0  0  0  0  2  0  0  0  0  0  0
  -29.9680  -13.5490   20.0770 N   0  0  0  0  0  0  0  0  0  0  0  0
  -31.8290  -14.7790   19.7720 O   0  0  0  0  0  0  0  0  0  0  0  0
  -28.8690  -18.2230   19.6070 C   0  0  0  0  0  2  0  0  0  0  0  0
  -30.1030  -18.2850   21.6740 C   0  0  0  0  0  2  0  0  0  0  0  0
  -29.4560  -16.7700   19.3120 C   0  0  0  0  0  2  0  0  0  0  0  0
  -30.6800  -16.8400   21.4220 C   0  0  0  0  0  2  0  0  0  0  0  0
  -29.8430  -19.1310   20.4000 C   0  0  0  0  0  3  0  0  0  0  0  0
  -29.9920  -15.9390   20.4470 N   0  0  0  0  0  0  0  0  0  0  0  0
  -25.2450  -13.8630   20.4750 C   0  0  0  0  0  0  0  0  0  0  0  0
  -24.1910  -13.0840   20.8660 C   0  0  0  0  0  0  0  0  0  0  0  0
  -24.6490  -11.7320   20.7940 C   0  0  0  0  0  0  0  0  0  0  0  0
  -26.2760  -12.9860   20.1820 N   0  0  0  0  0  0  0  0  0  0  0  0
  -25.9280  -11.6980   20.4400 N   0  0  0  0  0  0  0  0  0  0  0  0
  -23.9260  -10.4680   20.9870 C   0  0  0  0  0  0  0  0  0  0  0  0
  -24.3740   -9.4930   21.9050 C   0  0  0  0  0  3  0  0  0  0  0  0
  -23.6500   -8.2940   22.0870 C   0  0  0  0  0  3  0  0  0  0  0  0
  -22.4650   -8.0630   21.3490 C   0  0  0  0  0  0  0  0  0  0  0  0
  -22.0380   -9.0260   20.4170 C   0  0  0  0  0  3  0  0  0  0  0  0
  -22.7620  -10.2160   20.2350 C   0  0  0  0  0  3  0  0  0  0  0  0
  -21.7120   -6.9170   21.4400 O   0  0  0  0  0  0  0  0  0  0  0  0
  -21.6550   -6.1830   22.5970 C   0  0  0  0  0  0  0  0  0  0  0  0
  -21.1930   -6.7380   23.8100 C   0  0  0  0  0  3  0  0  0  0  0  0
  -21.0870   -5.9280   24.9580 C   0  0  0  0  0  3  0  0  0  0  0  0
  -21.4320   -4.5640   24.8940 C   0  0  0  0  0  0  0  0  0  0  0  0
  -21.8870   -4.0100   23.6850 C   0  0  0  0  0  3  0  0  0  0  0  0
  -21.9950   -4.8160   22.5390 C   0  0  0  0  0  0  0  0  0  0  0  0
  -22.4140   -4.2730   21.3710 F   0  0  0  0  0  0  0  0  0  0  0  0
  -21.3230   -3.7840   25.9950 F   0  0  0  0  0  0  0  0  0  0  0  0
  -22.8060  -13.5590   21.1950 C   0  0  0  0  0  0  0  0  0  0  0  0
  -22.1060  -12.8470   22.0730 N   0  0  0  0  0  0  0  0  0  0  0  0
  -22.3520  -14.5960   20.7130 O   0  0  0  0  0  0  0  0  0  0  0  0
  -22.4860  -12.0090   22.4870 H   0  0  0  0  0  0  0  0  0  0  0  0
  -21.1790  -13.1470   22.3370 H   0  0  0  0  0  0  0  0  0  0  0  0
  -25.4080  -15.2360   20.3190 N   0  0  0  0  0  0  0  0  0  0  0  0
  -24.6570  -15.8970   20.4810 H   0  0  0  0  0  0  0  0  0  0  0  0
  -26.2650  -15.6790   20.0080 H   0  0  0  0  0  0  0  0  0  0  0  0
  -28.6240  -25.3590   19.3220 C   0  0  0  0  0  2  0  0  0  0  0  0
  -28.3420  -26.4690   20.2670 O   0  0  0  0  0  0  0  0  0  0  0  0
  -24.5940  -31.8690   23.2340 C   0  0  0  0  0  0  0  0  0  0  0  0
  -27.2240  -27.3160   20.1580 C   0  0  0  0  0  0  0  0  0  0  0  0
  -23.3950  -30.4720   21.5860 C   0  0  0  0  0  3  0  0  0  0  0  0
  -24.8510  -28.9290   20.1480 C   0  0  0  0  0  0  0  0  0  0  0  0
  -25.9320  -30.7950   21.4070 C   0  0  0  0  0  2  0  0  0  0  0  0
  -26.0150  -29.4160   20.7560 C   0  0  0  0  0  0  0  0  0  0  0  0
  -27.1970  -28.6150   20.7600 C   0  0  0  0  0  3  0  0  0  0  0  0
  -26.0380  -26.8810   19.5270 C   0  0  0  0  0  3  0  0  0  0  0  0
  -24.8670  -27.6680   19.5260 C   0  0  0  0  0  3  0  0  0  0  0  0
  -23.6090  -29.7980   20.2030 C   0  0  0  0  0  2  0  0  0  0  0  0
  -24.6590  -31.0640   22.1320 N   0  0  0  0  0  0  0  0  0  0  0  0
  -23.5090  -32.1430   23.7690 O   0  0  0  0  0  0  0  0  0  0  0  0
  -22.7330  -29.4530   22.5450 C   0  0  0  0  0  0  0  0  0  0  0  0
  -21.4070  -29.2740   22.4180 N   0  0  0  0  0  0  0  0  0  0  0  0
  -23.4120  -28.8270   23.3630 O   0  0  0  0  0  0  0  0  0  0  0  0
  -20.9180  -29.8310   21.7310 H   0  0  0  0  0  0  0  0  0  0  0  0
  -18.0290  -28.0820   22.9230 C   0  0  0  0  0  0  0  0  0  0  0  0
  -20.5890  -28.3340   23.1850 C   0  0  0  0  0  3  0  0  0  0  0  0
  -20.6860  -26.9060   22.5990 C   0  0  0  0  0  2  0  0  0  0  0  0
  -19.5800  -26.5950   21.5870 C   0  0  0  0  0  2  0  0  0  0  0  0
  -18.2000  -26.7380   22.2350 C   0  0  0  0  0  2  0  0  0  0  0  0
  -19.1510  -28.8390   23.3550 C   0  0  0  0  0  0  0  0  0  0  0  0
  -18.9370  -30.0960   23.9590 C   0  0  0  0  0  3  0  0  0  0  0  0
  -17.6340  -30.5990   24.1320 C   0  0  0  0  0  3  0  0  0  0  0  0
  -16.5270  -29.8400   23.7160 C   0  0  0  0  0  3  0  0  0  0  0  0
  -16.7240  -28.5820   23.1190 C   0  0  0  0  0  3  0  0  0  0  0  0
  -25.8740  -32.5030   23.8610 C   0  0  0  0  0  3  0  0  0  0  0  0
  -25.5600  -33.8990   24.1990 N   0  0  0  0  0  0  0  0  0  0  0  0
  -25.8850  -34.9560   23.4450 C   0  0  0  0  0  0  0  0  0  0  0  0
  -26.5480  -34.8610   22.4100 O   0  0  0  0  0  0  0  0  0  0  0  0
  -24.9670  -34.0470   25.0030 H   0  0  0  0  0  0  0  0  0  0  0  0
  -24.1500  -36.7470   23.1090 C   0  0  0  0  0  1  0  0  0  0  0  0
  -25.3960  -36.3420   23.9130 C   0  0  0  0  0  3  0  0  0  0  0  0
  -27.5290  -37.2280   24.7440 C   0  0  0  0  0  1  0  0  0  0  0  0
  -26.4250  -37.3990   23.8040 N   0  0  0  0  0  0  0  0  0  0  0  0
  -26.0150  -38.3170   23.9580 H   0  0  0  0  0  0  0  0  0  0  0  0
  -26.3910  -31.7260   25.1340 C   0  0  1  0  0  0  0  0  0  0  0  0
  -25.2980  -31.4790   26.2000 C   0  0  0  0  0  1  0  0  0  0  0  0
  -26.9790  -30.3540   24.7360 C   0  0  0  0  0  1  0  0  0  0  0  0
  -27.5420  -32.5190   25.7980 C   0  0  0  0  0  1  0  0  0  0  0  0
  1  6  1  0
  2  6  1  0
  2  7  1  0
  4  5  1  0
  4  1  2  0
  5  2  2  0
  6  3  1  0
  7  8  1  0
  9 22  1  0
 10 15  1  0
 11 12  1  0
 11 10  1  0
 13 12  1  0
 13 26  1  0
 13 14  1  0
 15  9  1  0
 15 14  1  0
 16  9  2  0
 17 21  1  0
 19 17  1  0
 19 22  1  0
 20 18  1  0
 21  7  1  0
 21 18  1  0
 22 20  1  0
 23 24  2  0
 24 43  1  0
 25 24  1  0
 25 28  1  0
 26 27  1  0
 26 23  1  0
 27 25  2  0
 28 29  1  0
 29 30  2  0
 31 34  1  0
 31 30  1  0
 32 31  2  0
 33 32  1  0
 33 28  2  0
 34 35  1  0
 35 36  1  0
 36 37  2  0
 38 37  1  0
 38 42  1  0
 39 38  2  0
 40 35  2  0
 40 39  1  0
 41 40  1  0
 43 44  1  0
 44 47  1  0
 44 46  1  0
 45 43  2  0
 48 23  1  0
 48 49  1  0
 50 48  1  0
 51  1  1  0
 51 52  1  0
 53 64  2  0
 54 52  1  0
 54 59  1  0
 55 63  1  0
 55 65  1  0
 56 62  1  0
 56 58  1  0
 57 63  1  0
 58 59  2  0
 58 57  1  0
 60 54  2  0
 61 60  1  0
 61 56  2  0
 62 55  1  0
 63 53  1  0
 65 67  2  0
 66 65  1  0
 68 66  1  0
 69 78  2  0
 69 74  1  0
 70 66  1  0
 70 74  1  0
 71 70  1  0
 72 73  1  0
 72 71  1  0
 73 69  1  0
 74 75  2  0
 75 76  1  0
 77 76  2  0
 78 77  1  0
 79 53  1  0
 79 80  1  0
 79 89  1  0
 80 83  1  0
 81 85  1  0
 81 80  1  0
 82 81  2  0
 85 84  1  0
 87 85  1  0
 87 88  1  0
 87 86  1  0
 89 92  1  1
 89 90  1  0
 91 89  1  0
M  ISO  4   9 100  22 100  51 101  52 101
M  END
>  <TORSDO>  (57) 
F 17

>  <SCORE>  (57) 
-15.163

>  <name>  (57) 
56

>  <ligand_id>  (57) 
56

>  <original_smiles>  (57) 
[H]c1c([H])c([H])c2c(c1[H])C([H])([H])C([H])([H])C([H])([H])C2([H])N([H])C(=O)C1([H])N(C(=O)C([H])(N([H])C(=O)C([H])(N([H])C([H])([H])[H])C([H])([H])[H])C(C([H])([H])[H])(C([H])([H])[H])C([H])([H])[H])C([H])([H])c2c([H])c(OC([H])([H])c3nnc(N([H])C4([H])C([H])([H])C([H])([H])N(C(=O)N5C([H])([H])C([H])([H])C([H])([H])C([H])(n6nc(-c7c([H])c([H])c(Oc8c([H])c([H])c(F)c([H])c8F)c([H])c7[H])c(C(=O)N([H])[H])c6N([H])[H])C5([H])[H])C([H])([H])C4([H])[H])n3C([H])([H])[H])c([H])c([H])c2C1([H])[H]

>  <smiles>  (57) 
[H]c1c([H])c([H])c2c(c1[H])C([H])([H])C([H])([H])C([H])([H])C2([H])N([H])C(=O)C1([H])N(C(=O)C([H])(N([H])C(=O)C([H])(N([H])C([H])([H])[H])C([H])([H])[H])C(C([H])([H])[H])(C([H])([H])[H])C([H])([H])[H])C([H])([H])c2c([H])c(OC([H])([H])c3nnc(N([H])C4([H])C([H])([H])C([H])([H])N(C(=O)N5C([H])([H])C([H])([H])C([H])([H])C([H])(n6nc(-c7c([H])c([H])c(Oc8c([H])c([H])c(F)c([H])c8F)c([H])c7[H])c(C(=O)N([H])[H])c6N([H])[H])C5([H])[H])C([H])([H])C4([H])[H])n3C([H])([H])[H])c([H])c([H])c2C1([H])[H]

$$$$
57:0:0
     RDKit          3D

 94103  0  0  1  0  0  0  0  0999 V2000
  -29.1250  -20.6420   20.1150 C   0  0  0  0  0  0  0  0  0  0  0  0
  -30.4950  -20.6550   20.1130 C   0  0  0  0  0  0  0  0  0  0  0  0
  -28.4910  -19.3940   19.9790 C   0  0  0  0  0  0  0  0  0  0  0  0
  -30.5670  -18.3690   19.9100 C   0  0  0  0  0  0  0  0  0  0  0  0
  -29.8440  -24.2590   20.6690 C   0  0  0  0  0  0  0  0  0  0  0  0
  -28.5830  -22.0560   20.2930 C   0  0  0  0  0  3  0  0  0  0  0  0
  -31.0050  -22.0700   20.2810 C   0  0  0  0  0  3  0  0  0  0  0  0
  -31.2380  -19.5300   20.0150 N   0  0  0  0  0  0  0  0  0  0  0  0
  -29.2330  -18.2580   19.8690 N   0  0  0  0  0  0  0  0  0  0  0  0
  -29.7900  -22.9150   20.4250 N   0  0  0  0  0  0  0  0  0  0  0  0
  -30.9310  -24.8420   20.7540 O   0  0  0  0  0  0  0  0  0  0  0  0
  -26.4500  -18.8700   18.5710 C   0  0  0  0  0  1  0  0  0  0  0  0
  -26.9810  -19.2470   19.9600 C   0  0  0  0  0  2  0  0  0  0  0  0
  -31.4080  -17.0810   20.0090 C   0  0  0  0  0  2  0  0  0  0  0  0
  -31.3750  -14.6120   19.9220 C   0  0  0  0  0  0  0  0  0  0  0  0
  -30.9720  -12.3810   18.9520 C   0  0  0  0  0  2  0  0  0  0  0  0
  -29.9860  -12.5130   17.7750 C   0  0  0  0  0  2  0  0  0  0  0  0
  -28.5350  -12.4080   18.2810 C   0  0  0  0  0  2  0  0  0  0  0  0
  -28.2570  -13.3270   19.5010 C   0  0  0  0  0  3  0  0  0  0  0  0
  -29.3660  -13.2120   20.5710 C   0  0  0  0  0  2  0  0  0  0  0  0
  -30.6540  -13.4550   19.9120 N   0  0  0  0  0  0  0  0  0  0  0  0
  -32.5230  -14.6560   19.4730 O   0  0  0  0  0  0  0  0  0  0  0  0
  -30.7460  -15.7710   20.2370 N   0  0  0  0  0  0  0  0  0  0  0  0
  -29.7940  -15.7840   20.5670 H   0  0  0  0  0  0  0  0  0  0  0  0
  -25.9440  -13.9960   20.3970 C   0  0  0  0  0  0  0  0  0  0  0  0
  -24.8680  -13.2530   20.7990 C   0  0  0  0  0  0  0  0  0  0  0  0
  -25.2640  -11.8850   20.6830 C   0  0  0  0  0  0  0  0  0  0  0  0
  -26.9310  -13.0830   20.0620 N   0  0  0  0  0  0  0  0  0  0  0  0
  -26.5310  -11.8050   20.2940 N   0  0  0  0  0  0  0  0  0  0  0  0
  -24.4930  -10.6480   20.8640 C   0  0  0  0  0  0  0  0  0  0  0  0
  -24.8440   -9.6960   21.8460 C   0  0  0  0  0  3  0  0  0  0  0  0
  -24.0750   -8.5230   22.0130 C   0  0  0  0  0  3  0  0  0  0  0  0
  -22.9410   -8.2970   21.1980 C   0  0  0  0  0  0  0  0  0  0  0  0
  -22.6080   -9.2370   20.2080 C   0  0  0  0  0  3  0  0  0  0  0  0
  -23.3780  -10.4000   20.0390 C   0  0  0  0  0  3  0  0  0  0  0  0
  -22.1490   -7.1760   21.2730 O   0  0  0  0  0  0  0  0  0  0  0  0
  -21.8600   -6.5760   22.4730 C   0  0  0  0  0  0  0  0  0  0  0  0
  -21.2000   -7.2690   23.5110 C   0  0  0  0  0  3  0  0  0  0  0  0
  -20.8610   -6.5950   24.7020 C   0  0  0  0  0  3  0  0  0  0  0  0
  -21.1710   -5.2310   24.8520 C   0  0  0  0  0  0  0  0  0  0  0  0
  -21.8250   -4.5390   23.8180 C   0  0  0  0  0  3  0  0  0  0  0  0
  -22.1650   -5.2090   22.6300 C   0  0  0  0  0  0  0  0  0  0  0  0
  -22.7750   -4.5330   21.6280 F   0  0  0  0  0  0  0  0  0  0  0  0
  -20.8390   -4.5810   25.9930 F   0  0  0  0  0  0  0  0  0  0  0  0
  -23.5130  -13.7780   21.1780 C   0  0  0  0  0  0  0  0  0  0  0  0
  -22.8240  -13.0970   22.0870 N   0  0  0  0  0  0  0  0  0  0  0  0
  -23.0770  -14.8260   20.7040 O   0  0  0  0  0  0  0  0  0  0  0  0
  -23.1890  -12.2460   22.4900 H   0  0  0  0  0  0  0  0  0  0  0  0
  -21.9180  -13.4300   22.3850 H   0  0  0  0  0  0  0  0  0  0  0  0
  -26.1600  -15.3640   20.2660 N   0  0  0  0  0  0  0  0  0  0  0  0
  -25.4320  -16.0450   20.4480 H   0  0  0  0  0  0  0  0  0  0  0  0
  -27.0110  -15.7820   19.9120 H   0  0  0  0  0  0  0  0  0  0  0  0
  -28.5430  -25.0940   20.8520 C   0  0  0  0  0  2  0  0  0  0  0  0
  -28.7370  -26.5260   20.6040 O   0  0  0  0  0  0  0  0  0  0  0  0
  -24.6510  -31.7730   23.2760 C   0  0  0  0  0  0  0  0  0  0  0  0
  -27.5890  -27.2960   20.4860 C   0  0  0  0  0  0  0  0  0  0  0  0
  -23.6040  -30.3330   21.5630 C   0  0  0  0  0  3  0  0  0  0  0  0
  -25.1910  -28.8050   20.2730 C   0  0  0  0  0  0  0  0  0  0  0  0
  -26.1360  -30.7230   21.5630 C   0  0  0  0  0  2  0  0  0  0  0  0
  -26.2950  -29.3420   20.9490 C   0  0  0  0  0  0  0  0  0  0  0  0
  -27.5000  -28.5980   21.0460 C   0  0  0  0  0  3  0  0  0  0  0  0
  -26.4720  -26.7970   19.7800 C   0  0  0  0  0  3  0  0  0  0  0  0
  -25.2800  -27.5360   19.6800 C   0  0  0  0  0  3  0  0  0  0  0  0
  -23.9340  -29.6470   20.2120 C   0  0  0  0  0  2  0  0  0  0  0  0
  -24.8110  -30.9600   22.1930 N   0  0  0  0  0  0  0  0  0  0  0  0
  -23.5260  -32.0320   23.7240 O   0  0  0  0  0  0  0  0  0  0  0  0
  -22.8950  -29.3100   22.4810 C   0  0  0  0  0  0  0  0  0  0  0  0
  -21.5730  -29.1550   22.2990 N   0  0  0  0  0  0  0  0  0  0  0  0
  -23.5340  -28.6610   23.3130 O   0  0  0  0  0  0  0  0  0  0  0  0
  -21.1210  -29.7310   21.6030 H   0  0  0  0  0  0  0  0  0  0  0  0
  -18.1360  -28.1440   22.7820 C   0  0  0  0  0  0  0  0  0  0  0  0
  -20.7090  -28.2200   23.0200 C   0  0  0  0  0  3  0  0  0  0  0  0
  -20.7090  -26.8270   22.3490 C   0  0  0  0  0  2  0  0  0  0  0  0
  -19.5740  -26.6440   21.3380 C   0  0  0  0  0  2  0  0  0  0  0  0
  -18.2140  -26.8330   22.0170 C   0  0  0  0  0  2  0  0  0  0  0  0
  -19.3080  -28.8020   23.2390 C   0  0  0  0  0  0  0  0  0  0  0  0
  -19.1810  -30.0350   23.9160 C   0  0  0  0  0  3  0  0  0  0  0  0
  -17.9140  -30.6060   24.1390 C   0  0  0  0  0  3  0  0  0  0  0  0
  -16.7560  -29.9420   23.6990 C   0  0  0  0  0  3  0  0  0  0  0  0
  -16.8670  -28.7120   23.0250 C   0  0  0  0  0  3  0  0  0  0  0  0
  -25.8710  -32.4370   23.9870 C   0  0  0  0  0  3  0  0  0  0  0  0
  -26.2810  -31.7090   25.3260 C   0  0  1  0  0  0  0  0  0  0  0  0
  -25.0960  -31.4610   26.2880 C   0  0  0  0  0  1  0  0  0  0  0  0
  -26.9380  -30.3410   25.0230 C   0  0  0  0  0  1  0  0  0  0  0  0
  -27.3390  -32.5500   26.0770 C   0  0  0  0  0  1  0  0  0  0  0  0
  -25.5240  -33.8410   24.2460 N   0  0  0  0  0  0  0  0  0  0  0  0
  -25.8960  -34.8710   23.4740 C   0  0  0  0  0  0  0  0  0  0  0  0
  -26.6380  -34.7410   22.4950 O   0  0  0  0  0  0  0  0  0  0  0  0
  -24.8770  -34.0140   25.0000 H   0  0  0  0  0  0  0  0  0  0  0  0
  -24.1640  -36.6170   22.9490 C   0  0  0  0  0  1  0  0  0  0  0  0
  -25.3620  -36.2670   23.8460 C   0  0  0  0  0  3  0  0  0  0  0  0
  -27.4250  -37.2240   24.7700 C   0  0  0  0  0  1  0  0  0  0  0  0
  -26.3830  -37.3330   23.7530 N   0  0  0  0  0  0  0  0  0  0  0  0
  -25.9550  -38.2510   23.8330 H   0  0  0  0  0  0  0  0  0  0  0  0
  1  6  2  0
  2  1  1  0
  2  7  2  0
  3  1  1  0
  4 14  1  0
  4  8  2  0
  5 11  2  0
  5 53  1  0
  6 10  1  0
  7 10  1  0
  8  2  1  0
  9  4  1  0
  9  3  2  0
 10  5  1  0
 12 13  1  0
 13  3  1  0
 14 23  1  0
 15 23  1  0
 16 21  1  0
 17 18  1  0
 17 16  1  0
 19 18  1  0
 19 28  1  0
 19 20  1  0
 21 15  1  0
 21 20  1  0
 22 15  2  0
 23 24  1  0
 25 26  2  0
 26 45  1  0
 27 26  1  0
 27 30  1  0
 28 29  1  0
 28 25  1  0
 29 27  2  0
 30 31  1  0
 31 32  2  0
 33 36  1  0
 33 32  1  0
 34 33  2  0
 35 34  1  0
 35 30  2  0
 36 37  1  0
 37 42  2  0
 37 38  1  0
 38 39  2  0
 39 40  1  0
 40 44  1  0
 41 40  2  0
 42 41  1  0
 43 42  1  0
 45 46  1  0
 46 49  1  0
 46 48  1  0
 47 45  2  0
 50 25  1  0
 50 51  1  0
 52 50  1  0
 54 53  1  0
 55 66  2  0
 56 54  1  0
 56 61  1  0
 57 65  1  0
 57 67  1  0
 58 60  1  0
 59 65  1  0
 60 61  2  0
 60 59  1  0
 62 56  2  0
 63 62  1  0
 63 58  2  0
 64 58  1  0
 64 57  1  0
 65 55  1  0
 67 69  2  0
 68 67  1  0
 70 68  1  0
 71 80  2  0
 71 76  1  0
 72 68  1  0
 72 76  1  0
 73 72  1  0
 74 75  1  0
 74 73  1  0
 75 71  1  0
 76 77  2  0
 77 78  1  0
 79 78  2  0
 80 79  1  0
 81 55  1  0
 81 86  1  0
 81 82  1  0
 82 85  1  1
 82 83  1  0
 84 82  1  0
 86 89  1  0
 87 91  1  0
 87 86  1  0
 88 87  2  0
 91 90  1  0
 93 94  1  0
 93 91  1  0
 93 92  1  0
M  ISO  4  15 100  23 100  53 101  54 101
M  END
>  <TORSDO>  (58) 
F 19

>  <SCORE>  (58) 
-12.965

>  <name>  (58) 
57

>  <ligand_id>  (58) 
57

>  <original_smiles>  (58) 
[H]c1c([H])c([H])c2c(c1[H])C([H])([H])C([H])([H])C([H])([H])C2([H])N([H])C(=O)C1([H])N(C(=O)C([H])(N([H])C(=O)C([H])(N([H])C([H])([H])[H])C([H])([H])[H])C(C([H])([H])[H])(C([H])([H])[H])C([H])([H])[H])C([H])([H])c2c([H])c(OC([H])([H])C(=O)N3C([H])([H])c4nc(C([H])([H])N([H])C(=O)N5C([H])([H])C([H])([H])C([H])([H])C([H])(n6nc(-c7c([H])c([H])c(Oc8c([H])c([H])c(F)c([H])c8F)c([H])c7[H])c(C(=O)N([H])[H])c6N([H])[H])C5([H])[H])nc(C([H])([H])C([H])([H])[H])c4C3([H])[H])c([H])c([H])c2C1([H])[H]

>  <smiles>  (58) 
[H]c1c([H])c([H])c2c(c1[H])C([H])([H])C([H])([H])C([H])([H])C2([H])N([H])C(=O)C1([H])N(C(=O)C([H])(N([H])C(=O)C([H])(N([H])C([H])([H])[H])C([H])([H])[H])C(C([H])([H])[H])(C([H])([H])[H])C([H])([H])[H])C([H])([H])c2c([H])c(OC([H])([H])C(=O)N3C([H])([H])c4nc(C([H])([H])N([H])C(=O)N5C([H])([H])C([H])([H])C([H])([H])C([H])(n6nc(-c7c([H])c([H])c(Oc8c([H])c([H])c(F)c([H])c8F)c([H])c7[H])c(C(=O)N([H])[H])c6N([H])[H])C5([H])[H])nc(C([H])([H])C([H])([H])[H])c4C3([H])[H])c([H])c([H])c2C1([H])[H]

$$$$
58:0:0
     RDKit          3D

 92102  0  0  1  0  0  0  0  0999 V2000
  -29.5030  -23.3530   19.0140 C   0  0  0  0  0  3  0  0  0  0  0  0
  -29.9210  -22.0390   18.8580 C   0  0  0  0  0  0  0  0  0  0  0  0
  -29.4100  -21.2710   19.9610 C   0  0  0  0  0  0  0  0  0  0  0  0
  -29.0940  -18.7460   21.0780 C   0  0  0  0  0  2  0  0  0  0  0  0
  -30.0930  -18.7250   19.2770 C   0  0  0  0  0  2  0  0  0  0  0  0
  -30.1460  -17.6850   20.4780 C   0  0  0  0  0  3  0  0  0  0  0  0
  -28.7080  -22.1920   20.7290 N   0  0  0  0  0  0  0  0  0  0  0  0
  -28.7560  -23.5070   20.1650 N   0  0  0  0  0  0  0  0  0  0  0  0
  -29.7460  -19.8030   20.2560 N   0  0  0  0  0  0  0  0  0  0  0  0
  -30.5690  -14.9780   20.1370 C   0  0  0  0  0  0  0  0  0  0  0  0
  -30.4130  -12.6480   19.1530 C   0  0  0  0  0  2  0  0  0  0  0  0
  -29.4340  -12.6210   17.9570 C   0  0  0  0  0  2  0  0  0  0  0  0
  -27.9880  -12.4040   18.4410 C   0  0  0  0  0  2  0  0  0  0  0  0
  -27.6230  -13.3130   19.6430 C   0  0  0  0  0  3  0  0  0  0  0  0
  -28.7180  -13.3080   20.7290 C   0  0  0  0  0  2  0  0  0  0  0  0
  -29.9660  -13.7260   20.0780 N   0  0  0  0  0  0  0  0  0  0  0  0
  -31.7690  -15.0480   19.8490 O   0  0  0  0  0  0  0  0  0  0  0  0
  -29.7910  -16.1540   20.3180 N   0  0  0  0  0  0  0  0  0  0  0  0
  -28.8120  -15.9520   20.4510 H   0  0  0  0  0  0  0  0  0  0  0  0
  -25.2700  -13.8810   20.4720 C   0  0  0  0  0  0  0  0  0  0  0  0
  -24.2180  -13.0990   20.8640 C   0  0  0  0  0  0  0  0  0  0  0  0
  -24.6820  -11.7490   20.7960 C   0  0  0  0  0  0  0  0  0  0  0  0
  -26.3040  -13.0070   20.1840 N   0  0  0  0  0  0  0  0  0  0  0  0
  -25.9630  -11.7180   20.4440 N   0  0  0  0  0  0  0  0  0  0  0  0
  -23.9620  -10.4830   20.9880 C   0  0  0  0  0  0  0  0  0  0  0  0
  -24.3970   -9.5200   21.9240 C   0  0  0  0  0  3  0  0  0  0  0  0
  -23.6750   -8.3190   22.1030 C   0  0  0  0  0  3  0  0  0  0  0  0
  -22.5050   -8.0740   21.3460 C   0  0  0  0  0  0  0  0  0  0  0  0
  -22.0900   -9.0260   20.3990 C   0  0  0  0  0  3  0  0  0  0  0  0
  -22.8120  -10.2180   20.2170 C   0  0  0  0  0  3  0  0  0  0  0  0
  -21.7550   -6.9260   21.4360 O   0  0  0  0  0  0  0  0  0  0  0  0
  -21.6740   -6.2080   22.6010 C   0  0  0  0  0  0  0  0  0  0  0  0
  -21.1720   -6.7750   23.7930 C   0  0  0  0  0  3  0  0  0  0  0  0
  -21.0410   -5.9810   24.9500 C   0  0  0  0  0  3  0  0  0  0  0  0
  -21.4030   -4.6220   24.9170 C   0  0  0  0  0  0  0  0  0  0  0  0
  -21.9000   -4.0540   23.7300 C   0  0  0  0  0  3  0  0  0  0  0  0
  -22.0320   -4.8450   22.5750 C   0  0  0  0  0  0  0  0  0  0  0  0
  -22.4910   -4.2880   21.4280 F   0  0  0  0  0  0  0  0  0  0  0  0
  -21.2720   -3.8570   26.0250 F   0  0  0  0  0  0  0  0  0  0  0  0
  -22.8300  -13.5700   21.1860 C   0  0  0  0  0  0  0  0  0  0  0  0
  -22.1280  -12.8570   22.0590 N   0  0  0  0  0  0  0  0  0  0  0  0
  -22.3780  -14.6060   20.6980 O   0  0  0  0  0  0  0  0  0  0  0  0
  -22.5080  -12.0200   22.4750 H   0  0  0  0  0  0  0  0  0  0  0  0
  -21.1970  -13.1540   22.3180 H   0  0  0  0  0  0  0  0  0  0  0  0
  -25.4250  -15.2550   20.3080 N   0  0  0  0  0  0  0  0  0  0  0  0
  -24.6540  -15.8990   20.4390 H   0  0  0  0  0  0  0  0  0  0  0  0
  -26.2400  -15.6930   19.9000 H   0  0  0  0  0  0  0  0  0  0  0  0
  -30.8770  -22.2210   16.4080 C   0  0  0  0  0  2  0  0  0  0  0  0
  -30.1930  -20.8800   16.5260 C   0  0  0  0  0  2  0  0  0  0  0  0
  -30.8010  -21.5250   17.7480 C   0  0  0  0  0  3  0  0  0  0  0  0
  -28.0160  -24.7820   20.7280 C   0  0  0  0  0  2  0  0  0  0  0  0
  -28.3380  -26.1980   20.2590 O   0  0  0  0  0  0  0  0  0  0  0  0
  -24.6410  -31.8610   23.2320 C   0  0  0  0  0  0  0  0  0  0  0  0
  -27.2840  -27.1800   20.2270 C   0  0  0  0  0  0  0  0  0  0  0  0
  -23.4670  -30.4600   21.5770 C   0  0  0  0  0  3  0  0  0  0  0  0
  -24.9430  -28.9010   20.1670 C   0  0  0  0  0  0  0  0  0  0  0  0
  -26.0200  -30.7480   21.4380 C   0  0  0  0  0  2  0  0  0  0  0  0
  -26.1120  -29.3570   20.7900 C   0  0  0  0  0  0  0  0  0  0  0  0
  -27.2870  -28.5130   20.8020 C   0  0  0  0  0  3  0  0  0  0  0  0
  -26.0920  -26.8280   19.5590 C   0  0  0  0  0  3  0  0  0  0  0  0
  -24.9440  -27.6480   19.5370 C   0  0  0  0  0  3  0  0  0  0  0  0
  -23.7080  -29.7880   20.2000 C   0  0  0  0  0  2  0  0  0  0  0  0
  -24.7280  -31.0450   22.1380 N   0  0  0  0  0  0  0  0  0  0  0  0
  -23.5470  -32.1350   23.7510 O   0  0  0  0  0  0  0  0  0  0  0  0
  -22.7870  -29.4440   22.5310 C   0  0  0  0  0  0  0  0  0  0  0  0
  -21.4580  -29.2780   22.4020 N   0  0  0  0  0  0  0  0  0  0  0  0
  -23.4570  -28.8100   23.3490 O   0  0  0  0  0  0  0  0  0  0  0  0
  -20.9740  -29.8430   21.7190 H   0  0  0  0  0  0  0  0  0  0  0  0
  -18.0690  -28.1020   22.9130 C   0  0  0  0  0  0  0  0  0  0  0  0
  -20.6340  -28.3350   23.1640 C   0  0  0  0  0  3  0  0  0  0  0  0
  -20.7170  -26.9120   22.5660 C   0  0  0  0  0  2  0  0  0  0  0  0
  -19.6050  -26.6150   21.5560 C   0  0  0  0  0  2  0  0  0  0  0  0
  -18.2280  -26.7630   22.2110 C   0  0  0  0  0  2  0  0  0  0  0  0
  -19.2000  -28.8480   23.3450 C   0  0  0  0  0  0  0  0  0  0  0  0
  -18.9960  -30.1010   23.9620 C   0  0  0  0  0  3  0  0  0  0  0  0
  -17.6970  -30.6110   24.1470 C   0  0  0  0  0  3  0  0  0  0  0  0
  -16.5830  -29.8630   23.7310 C   0  0  0  0  0  3  0  0  0  0  0  0
  -16.7700  -28.6090   23.1210 C   0  0  0  0  0  3  0  0  0  0  0  0
  -25.9070  -32.5050   23.8740 C   0  0  0  0  0  3  0  0  0  0  0  0
  -25.5840  -33.9040   24.1950 N   0  0  0  0  0  0  0  0  0  0  0  0
  -25.9160  -34.9590   23.4390 C   0  0  0  0  0  0  0  0  0  0  0  0
  -26.5930  -34.8580   22.4130 O   0  0  0  0  0  0  0  0  0  0  0  0
  -24.9870  -34.0560   24.9940 H   0  0  0  0  0  0  0  0  0  0  0  0
  -24.1860  -36.7510   23.0690 C   0  0  0  0  0  1  0  0  0  0  0  0
  -25.4200  -36.3480   23.8940 C   0  0  0  0  0  3  0  0  0  0  0  0
  -27.5400  -37.2430   24.7510 C   0  0  0  0  0  1  0  0  0  0  0  0
  -26.4500  -37.4050   23.7920 N   0  0  0  0  0  0  0  0  0  0  0  0
  -26.0370  -38.3230   23.9340 H   0  0  0  0  0  0  0  0  0  0  0  0
  -26.4040  -31.7460   25.1660 C   0  0  1  0  0  0  0  0  0  0  0  0
  -25.2920  -31.5120   26.2170 C   0  0  0  0  0  1  0  0  0  0  0  0
  -27.0020  -30.3680   24.7990 C   0  0  0  0  0  1  0  0  0  0  0  0
  -27.5380  -32.5510   25.8440 C   0  0  0  0  0  1  0  0  0  0  0  0
  1  8  1  0
  2  1  2  0
  2  3  1  0
  3  9  1  0
  3  7  2  0
  5  9  1  0
  5  6  1  0
  6 18  1  0
  6  4  1  0
  8 51  1  0
  8  7  1  0
  9  4  1  0
 10 18  1  0
 11 16  1  0
 12 13  1  0
 12 11  1  0
 14 13  1  0
 14 23  1  0
 14 15  1  0
 16 10  1  0
 16 15  1  0
 17 10  2  0
 18 19  1  0
 20 21  2  0
 21 40  1  0
 22 21  1  0
 22 25  1  0
 23 24  1  0
 23 20  1  0
 24 22  2  0
 25 26  1  0
 26 27  2  0
 28 31  1  0
 28 27  1  0
 29 28  2  0
 30 29  1  0
 30 25  2  0
 31 32  1  0
 32 33  1  0
 33 34  2  0
 35 34  1  0
 35 39  1  0
 36 35  2  0
 37 32  2  0
 37 36  1  0
 38 37  1  0
 40 41  1  0
 41 44  1  0
 41 43  1  0
 42 40  2  0
 45 46  1  0
 45 20  1  0
 47 45  1  0
 48 49  1  0
 48 50  1  0
 49 50  1  0
 50  2  1  0
 52 51  1  0
 53 64  2  0
 54 52  1  0
 54 59  1  0
 55 63  1  0
 55 65  1  0
 56 62  1  0
 56 58  1  0
 57 63  1  0
 58 59  2  0
 58 57  1  0
 60 54  2  0
 61 60  1  0
 61 56  2  0
 62 55  1  0
 63 53  1  0
 65 67  2  0
 66 65  1  0
 68 66  1  0
 69 78  2  0
 69 74  1  0
 70 66  1  0
 70 74  1  0
 71 70  1  0
 72 73  1  0
 72 71  1  0
 73 69  1  0
 74 75  2  0
 75 76  1  0
 77 76  2  0
 78 77  1  0
 79 53  1  0
 79 80  1  0
 79 89  1  0
 80 83  1  0
 81 85  1  0
 81 80  1  0
 82 81  2  0
 85 84  1  0
 87 85  1  0
 87 88  1  0
 87 86  1  0
 89 92  1  1
 89 90  1  0
 91 89  1  0
M  ISO  4  10 100  18 100  51 101  52 101
M  END
>  <TORSDO>  (59) 
F 18

>  <SCORE>  (59) 
-14.354

>  <name>  (59) 
58

>  <ligand_id>  (59) 
58

>  <original_smiles>  (59) 
[H]c1c([H])c([H])c2c(c1[H])C([H])([H])C([H])([H])C([H])([H])C2([H])N([H])C(=O)C1([H])N(C(=O)C([H])(N([H])C(=O)C([H])(N([H])C([H])([H])[H])C([H])([H])[H])C(C([H])([H])[H])(C([H])([H])[H])C([H])([H])[H])C([H])([H])c2c([H])c(OC([H])([H])n3nc(N4C([H])([H])C([H])(N([H])C(=O)N5C([H])([H])C([H])([H])C([H])([H])C([H])(n6nc(-c7c([H])c([H])c(Oc8c([H])c([H])c(F)c([H])c8F)c([H])c7[H])c(C(=O)N([H])[H])c6N([H])[H])C5([H])[H])C4([H])[H])c(C4([H])C([H])([H])C4([H])[H])c3[H])c([H])c([H])c2C1([H])[H]

>  <smiles>  (59) 
[H]c1c([H])c([H])c2c(c1[H])C([H])([H])C([H])([H])C([H])([H])C2([H])N([H])C(=O)C1([H])N(C(=O)C([H])(N([H])C(=O)C([H])(N([H])C([H])([H])[H])C([H])([H])[H])C(C([H])([H])[H])(C([H])([H])[H])C([H])([H])[H])C([H])([H])c2c([H])c(OC([H])([H])n3nc(N4C([H])([H])C([H])(N([H])C(=O)N5C([H])([H])C([H])([H])C([H])([H])C([H])(n6nc(-c7c([H])c([H])c(Oc8c([H])c([H])c(F)c([H])c8F)c([H])c7[H])c(C(=O)N([H])[H])c6N([H])[H])C5([H])[H])C4([H])[H])c(C4([H])C([H])([H])C4([H])[H])c3[H])c([H])c([H])c2C1([H])[H]

$$$$
59:0:0
     RDKit          3D

 94103  0  0  1  0  0  0  0  0999 V2000
  -29.7480  -23.0250   20.6590 C   0  0  0  0  0  3  0  0  0  0  0  0
  -30.6290  -21.9180   20.6870 C   0  0  0  0  0  0  0  0  0  0  0  0
  -28.3800  -22.8150   20.4400 C   0  0  0  0  0  0  0  0  0  0  0  0
  -28.9320  -20.3610   20.3110 C   0  0  0  0  0  0  0  0  0  0  0  0
  -30.2120  -20.6370   20.5270 N   0  0  0  0  0  0  0  0  0  0  0  0
  -28.0180  -21.4360   20.2800 N   0  0  0  0  0  0  0  0  0  0  0  0
  -33.1290  -21.3580   20.1250 C   0  0  0  0  0  2  0  0  0  0  0  0
  -32.0950  -22.0530   20.9860 C   0  0  2  0  0  0  0  0  0  0  0  0
  -32.3860  -22.4910   22.4200 C   0  0  0  0  0  1  0  0  0  0  0  0
  -33.7990  -23.7850   20.2150 C   0  0  0  0  0  1  0  0  0  0  0  0
  -32.7830  -22.7520   19.9100 N   0  0  1  0  0  4  0  0  0  0  0  0
  -32.1470  -22.9260   19.1480 H   0  0  0  0  0  0  0  0  0  0  0  0
  -27.3340  -24.1200   20.4810 C   0  0  0  0  0  2  0  0  0  0  0  0
  -27.6820  -25.6560   20.6010 O   0  0  0  0  0  0  0  0  0  0  0  0
  -24.2230  -31.6320   23.2750 C   0  0  0  0  0  0  0  0  0  0  0  0
  -26.6700  -26.6930   20.4640 C   0  0  0  0  0  0  0  0  0  0  0  0
  -22.9820  -30.1880   21.7110 C   0  0  0  0  0  3  0  0  0  0  0  0
  -24.3870  -28.5150   20.3500 C   0  0  0  0  0  0  0  0  0  0  0  0
  -25.5430  -30.3800   21.5230 C   0  0  0  0  0  2  0  0  0  0  0  0
  -25.5820  -28.9550   20.9350 C   0  0  0  0  0  0  0  0  0  0  0  0
  -26.7230  -28.0600   20.9730 C   0  0  0  0  0  3  0  0  0  0  0  0
  -25.4530  -26.3700   19.8230 C   0  0  0  0  0  3  0  0  0  0  0  0
  -24.3400  -27.2370   19.7740 C   0  0  0  0  0  3  0  0  0  0  0  0
  -23.1810  -29.4440   20.3630 C   0  0  0  0  0  2  0  0  0  0  0  0
  -24.2700  -30.7570   22.2240 N   0  0  0  0  0  0  0  0  0  0  0  0
  -23.1460  -31.9670   23.7930 O   0  0  0  0  0  0  0  0  0  0  0  0
  -22.2860  -29.2440   22.7240 C   0  0  0  0  0  0  0  0  0  0  0  0
  -20.9710  -29.0220   22.5530 N   0  0  0  0  0  0  0  0  0  0  0  0
  -22.9340  -28.7130   23.6290 O   0  0  0  0  0  0  0  0  0  0  0  0
  -20.5030  -29.5010   21.7970 H   0  0  0  0  0  0  0  0  0  0  0  0
  -17.6300  -27.6660   22.9340 C   0  0  0  0  0  0  0  0  0  0  0  0
  -20.1390  -28.1260   23.3640 C   0  0  0  0  0  3  0  0  0  0  0  0
  -20.3700  -26.6480   22.9730 C   0  0  0  0  0  2  0  0  0  0  0  0
  -19.3780  -26.1400   21.9220 C   0  0  0  0  0  2  0  0  0  0  0  0
  -17.9400  -26.2650   22.4370 C   0  0  0  0  0  2  0  0  0  0  0  0
  -18.6640  -28.5450   23.3540 C   0  0  0  0  0  0  0  0  0  0  0  0
  -18.3220  -29.8490   23.7790 C   0  0  0  0  0  3  0  0  0  0  0  0
  -16.9800  -30.2750   23.7870 C   0  0  0  0  0  3  0  0  0  0  0  0
  -15.9610  -29.3960   23.3820 C   0  0  0  0  0  3  0  0  0  0  0  0
  -16.2860  -28.0930   22.9610 C   0  0  0  0  0  3  0  0  0  0  0  0
  -25.5180  -32.2680   23.8660 C   0  0  0  0  0  3  0  0  0  0  0  0
  -26.0360  -31.5330   25.1630 C   0  0  1  0  0  0  0  0  0  0  0  0
  -24.9450  -31.3350   26.2420 C   0  0  0  0  0  1  0  0  0  0  0  0
  -26.6100  -30.1410   24.8150 C   0  0  0  0  0  1  0  0  0  0  0  0
  -27.1950  -32.3380   25.7950 C   0  0  0  0  0  1  0  0  0  0  0  0
  -25.2310  -33.6810   24.1590 N   0  0  0  0  0  0  0  0  0  0  0  0
  -25.5540  -34.7090   23.3640 C   0  0  0  0  0  0  0  0  0  0  0  0
  -26.1920  -34.5680   22.3170 O   0  0  0  0  0  0  0  0  0  0  0  0
  -24.6600  -33.8660   24.9710 H   0  0  0  0  0  0  0  0  0  0  0  0
  -23.8310  -36.5130   23.0270 C   0  0  0  0  0  1  0  0  0  0  0  0
  -25.1010  -36.1180   23.7980 C   0  0  0  0  0  3  0  0  0  0  0  0
  -27.2710  -37.0140   24.5180 C   0  0  0  0  0  1  0  0  0  0  0  0
  -26.1370  -37.1560   23.6080 N   0  0  0  0  0  0  0  0  0  0  0  0
  -25.7440  -38.0850   23.7360 H   0  0  0  0  0  0  0  0  0  0  0  0
  -28.5780  -18.7230   20.3420 C   0  0  0  0  0  3  0  0  0  0  0  0
  -29.6370  -17.4030   20.0460 C   0  0  0  0  0  3  0  0  0  0  0  0
  -30.0700  -14.6370   19.9060 C   0  0  0  0  0  0  0  0  0  0  0  0
  -29.9300  -12.2660   18.9850 C   0  0  0  0  0  2  0  0  0  0  0  0
  -28.9070  -12.1720   17.8300 C   0  0  0  0  0  2  0  0  0  0  0  0
  -27.4920  -11.9210   18.3820 C   0  0  0  0  0  2  0  0  0  0  0  0
  -27.1490  -12.8530   19.5740 C   0  0  0  0  0  3  0  0  0  0  0  0
  -28.2870  -12.9150   20.6120 C   0  0  0  0  0  2  0  0  0  0  0  0
  -29.4900  -13.3630   19.9010 N   0  0  0  0  0  0  0  0  0  0  0  0
  -31.2500  -14.7020   19.5430 O   0  0  0  0  0  0  0  0  0  0  0  0
  -29.3010  -15.8310   20.1160 N   0  0  0  0  0  0  0  0  0  0  0  0
  -28.3410  -15.6340   20.3580 H   0  0  0  0  0  0  0  0  0  0  0  0
  -24.8340  -13.3890   20.5190 C   0  0  0  0  0  0  0  0  0  0  0  0
  -23.8160  -12.5940   20.9680 C   0  0  0  0  0  0  0  0  0  0  0  0
  -24.2940  -11.2500   20.8820 C   0  0  0  0  0  0  0  0  0  0  0  0
  -25.8630  -12.5280   20.1800 N   0  0  0  0  0  0  0  0  0  0  0  0
  -25.5550  -11.2350   20.4660 N   0  0  0  0  0  0  0  0  0  0  0  0
  -23.6020   -9.9760   21.1160 C   0  0  0  0  0  0  0  0  0  0  0  0
  -24.0660   -9.0460   22.0730 C   0  0  0  0  0  3  0  0  0  0  0  0
  -23.3680   -7.8380   22.2940 C   0  0  0  0  0  3  0  0  0  0  0  0
  -22.1940   -7.5520   21.5580 C   0  0  0  0  0  0  0  0  0  0  0  0
  -21.7500   -8.4700   20.5910 C   0  0  0  0  0  3  0  0  0  0  0  0
  -22.4480   -9.6690   20.3680 C   0  0  0  0  0  3  0  0  0  0  0  0
  -21.4690   -6.3920   21.6870 O   0  0  0  0  0  0  0  0  0  0  0  0
  -21.4120   -5.7050   22.8730 C   0  0  0  0  0  0  0  0  0  0  0  0
  -20.9040   -6.2940   24.0510 C   0  0  0  0  0  3  0  0  0  0  0  0
  -20.7980   -5.5310   25.2310 C   0  0  0  0  0  3  0  0  0  0  0  0
  -21.1920   -4.1800   25.2340 C   0  0  0  0  0  0  0  0  0  0  0  0
  -21.6920   -3.5900   24.0600 C   0  0  0  0  0  3  0  0  0  0  0  0
  -21.7990   -4.3500   22.8820 C   0  0  0  0  0  0  0  0  0  0  0  0
  -22.2630   -3.7700   21.7490 F   0  0  0  0  0  0  0  0  0  0  0  0
  -21.0830   -3.4450   26.3650 F   0  0  0  0  0  0  0  0  0  0  0  0
  -22.4380  -13.0490   21.3550 C   0  0  0  0  0  0  0  0  0  0  0  0
  -21.7890  -12.3360   22.2660 N   0  0  0  0  0  0  0  0  0  0  0  0
  -21.9480  -14.0740   20.8810 O   0  0  0  0  0  0  0  0  0  0  0  0
  -22.1980  -11.5080   22.6740 H   0  0  0  0  0  0  0  0  0  0  0  0
  -20.8670  -12.6240   22.5650 H   0  0  0  0  0  0  0  0  0  0  0  0
  -24.9610  -14.7630   20.3410 N   0  0  0  0  0  0  0  0  0  0  0  0
  -24.1900  -15.4000   20.5130 H   0  0  0  0  0  0  0  0  0  0  0  0
  -25.7530  -15.2150   19.9040 H   0  0  0  0  0  0  0  0  0  0  0  0
  1  2  2  0
  2  8  1  0
  3 13  1  0
  3  1  1  0
  4 55  1  0
  4  5  2  0
  5  2  1  0
  6  4  1  0
  6  3  2  0
  7  8  1  0
  8  9  1  1
 11  7  1  0
 11 10  1  0
 11  8  1  0
 11 12  1  6
 13 14  1  0
 15 26  2  0
 16 14  1  0
 16 21  1  0
 17 25  1  0
 17 27  1  0
 18 24  1  0
 18 20  1  0
 19 25  1  0
 20 21  2  0
 20 19  1  0
 22 16  2  0
 23 22  1  0
 23 18  2  0
 24 17  1  0
 25 15  1  0
 27 29  2  0
 28 27  1  0
 30 28  1  0
 31 40  2  0
 31 36  1  0
 32 28  1  0
 33 32  1  0
 34 35  1  0
 34 33  1  0
 35 31  1  0
 36 32  1  0
 36 37  2  0
 37 38  1  0
 39 38  2  0
 40 39  1  0
 41 15  1  0
 41 46  1  0
 41 42  1  0
 42 45  1  1
 42 43  1  0
 44 42  1  0
 46 49  1  0
 47 51  1  0
 47 46  1  0
 48 47  2  0
 51 50  1  0
 53 54  1  0
 53 51  1  0
 53 52  1  0
 56 65  1  0
 56 55  2  0
 57 65  1  0
 58 63  1  0
 59 60  1  0
 59 58  1  0
 61 60  1  0
 61 70  1  0
 61 62  1  0
 63 57  1  0
 63 62  1  0
 64 57  2  0
 65 66  1  0
 67 68  2  0
 68 87  1  0
 69 68  1  0
 69 72  1  0
 70 71  1  0
 70 67  1  0
 71 69  2  0
 72 73  1  0
 73 74  2  0
 75 78  1  0
 75 74  1  0
 76 75  2  0
 77 76  1  0
 77 72  2  0
 78 79  1  0
 79 84  2  0
 79 80  1  0
 80 81  2  0
 81 82  1  0
 82 86  1  0
 83 82  2  0
 84 83  1  0
 85 84  1  0
 87 88  1  0
 88 91  1  0
 88 90  1  0
 89 87  2  0
 92 93  1  0
 92 67  1  0
 94 92  1  0
M  ISO  4  13 101  14 101  57 100  65 100
M  END
>  <TORSDO>  (60) 
F 20

>  <SCORE>  (60) 
-10.585

>  <name>  (60) 
59

>  <ligand_id>  (60) 
59

>  <original_smiles>  (60) 
[H]c1c(C([H])([H])Oc2c([H])c([H])c3c(c2[H])C([H])([H])N(C(=O)C([H])(N([H])C(=O)C([H])(N([H])C([H])([H])[H])C([H])([H])[H])C(C([H])([H])[H])(C([H])([H])[H])C([H])([H])[H])C([H])(C(=O)N([H])C2([H])c4c([H])c([H])c([H])c([H])c4C([H])([H])C([H])([H])C2([H])[H])C3([H])[H])nc(C([H])([H])C([H])([H])N([H])C(=O)N2C([H])([H])C([H])([H])C([H])([H])C([H])(n3nc(-c4c([H])c([H])c(Oc5c([H])c([H])c(F)c([H])c5F)c([H])c4[H])c(C(=O)N([H])[H])c3N([H])[H])C2([H])[H])nc1C1(C([H])([H])[H])C([H])([H])[N+]1([H])C([H])([H])[H]

>  <smiles>  (60) 
[H]c1c(C([H])([H])Oc2c([H])c([H])c3c(c2[H])C([H])([H])N(C(=O)C([H])(N([H])C(=O)C([H])(N([H])C([H])([H])[H])C([H])([H])[H])C(C([H])([H])[H])(C([H])([H])[H])C([H])([H])[H])C([H])(C(=O)N([H])C2([H])c4c([H])c([H])c([H])c([H])c4C([H])([H])C([H])([H])C2([H])[H])C3([H])[H])nc(C([H])([H])C([H])([H])N([H])C(=O)N2C([H])([H])C([H])([H])C([H])([H])C([H])(n3nc(-c4c([H])c([H])c(Oc5c([H])c([H])c(F)c([H])c5F)c([H])c4[H])c(C(=O)N([H])[H])c3N([H])[H])C2([H])[H])nc1C1(C([H])([H])[H])C([H])([H])[N+]1([H])C([H])([H])[H]

$$$$
60:0:0
     RDKit          3D

 92101  0  0  1  0  0  0  0  0999 V2000
  -27.9890  -22.2390   22.4740 C   0  0  0  0  0  2  0  0  0  0  0  0
  -27.2960  -22.3180   21.1250 C   0  0  0  0  0  2  0  0  0  0  0  0
  -29.3160  -22.5070   21.7600 C   0  0  0  0  0  3  0  0  0  0  0  0
  -28.6400  -22.4390   20.3490 C   0  0  1  0  0  0  0  0  0  0  0  0
  -30.5670  -15.6700   19.7560 C   0  0  0  0  0  0  0  0  0  0  0  0
  -30.4590  -13.1700   18.9500 C   0  0  0  0  0  2  0  0  0  0  0  0
  -29.4850  -12.8560   17.7880 C   0  0  0  0  0  2  0  0  0  0  0  0
  -28.0780  -12.5640   18.3290 C   0  0  0  0  0  2  0  0  0  0  0  0
  -27.6700  -13.5520   19.4490 C   0  0  0  0  0  3  0  0  0  0  0  0
  -28.7870  -13.8280   20.4850 C   0  0  0  0  0  2  0  0  0  0  0  0
  -29.9380  -14.3680   19.7350 N   0  0  0  0  0  0  0  0  0  0  0  0
  -31.7700  -15.5420   19.4740 O   0  0  0  0  0  0  0  0  0  0  0  0
  -30.5740  -18.4090   19.1340 C   0  0  0  0  0  3  0  0  0  0  0  0
  -28.9000  -17.9030   20.4820 C   0  0  0  0  0  3  0  0  0  0  0  0
  -30.3640  -19.9950   19.7760 C   0  0  0  0  0  3  0  0  0  0  0  0
  -28.2900  -19.4580   20.0100 C   0  0  0  0  0  3  0  0  0  0  0  0
  -29.9690  -17.0850   19.7220 N   0  0  0  0  0  0  0  0  0  0  0  0
  -29.0430  -20.8060   19.7200 N   0  0  0  0  0  0  0  0  0  0  0  0
  -25.3790  -14.0800   20.4180 C   0  0  0  0  0  0  0  0  0  0  0  0
  -24.3440  -13.2990   20.8400 C   0  0  0  0  0  0  0  0  0  0  0  0
  -24.7910  -11.9480   20.7240 C   0  0  0  0  0  0  0  0  0  0  0  0
  -26.3880  -13.2100   20.0600 N   0  0  0  0  0  0  0  0  0  0  0  0
  -26.0560  -11.9160   20.3100 N   0  0  0  0  0  0  0  0  0  0  0  0
  -24.0620  -10.6850   20.9150 C   0  0  0  0  0  0  0  0  0  0  0  0
  -24.4860   -9.7190   21.8550 C   0  0  0  0  0  3  0  0  0  0  0  0
  -23.7510   -8.5280   22.0450 C   0  0  0  0  0  3  0  0  0  0  0  0
  -22.5760   -8.2920   21.2920 C   0  0  0  0  0  0  0  0  0  0  0  0
  -22.1670   -9.2460   20.3410 C   0  0  0  0  0  3  0  0  0  0  0  0
  -22.9030  -10.4280   20.1530 C   0  0  0  0  0  3  0  0  0  0  0  0
  -21.8140   -7.1530   21.3890 O   0  0  0  0  0  0  0  0  0  0  0  0
  -21.6860   -6.4690   22.5720 C   0  0  0  0  0  0  0  0  0  0  0  0
  -21.1520   -7.0760   23.7300 C   0  0  0  0  0  3  0  0  0  0  0  0
  -20.9740   -6.3160   24.9030 C   0  0  0  0  0  3  0  0  0  0  0  0
  -21.3230   -4.9530   24.9210 C   0  0  0  0  0  0  0  0  0  0  0  0
  -21.8490   -4.3460   23.7670 C   0  0  0  0  0  3  0  0  0  0  0  0
  -22.0300   -5.1020   22.5960 C   0  0  0  0  0  0  0  0  0  0  0  0
  -22.5170   -4.5060   21.4820 F   0  0  0  0  0  0  0  0  0  0  0  0
  -21.1450   -4.2240   26.0460 F   0  0  0  0  0  0  0  0  0  0  0  0
  -22.9760  -13.7790   21.2310 C   0  0  0  0  0  0  0  0  0  0  0  0
  -22.3080  -13.0690   22.1300 N   0  0  0  0  0  0  0  0  0  0  0  0
  -22.5120  -14.8230   20.7730 O   0  0  0  0  0  0  0  0  0  0  0  0
  -22.6970  -12.2250   22.5250 H   0  0  0  0  0  0  0  0  0  0  0  0
  -21.3890  -13.3700   22.4300 H   0  0  0  0  0  0  0  0  0  0  0  0
  -25.5410  -15.4570   20.2770 N   0  0  0  0  0  0  0  0  0  0  0  0
  -24.7870  -16.1080   20.4630 H   0  0  0  0  0  0  0  0  0  0  0  0
  -26.3440  -15.8940   19.8470 H   0  0  0  0  0  0  0  0  0  0  0  0
  -29.9440  -24.2350   23.4730 C   0  0  0  0  0  1  0  0  0  0  0  0
  -30.0500  -23.7560   22.0780 N   0  0  0  0  0  4  0  0  0  0  0  0
  -29.7760  -24.4960   21.4540 H   0  0  0  0  0  0  0  0  0  0  0  0
  -31.0240  -23.5640   21.9040 H   0  0  0  0  0  0  0  0  0  0  0  0
  -28.3850  -24.1630   19.5720 C   0  0  0  0  0  2  0  0  0  0  0  0
  -28.3070  -25.8320   20.0140 O   0  0  0  0  0  0  0  0  0  0  0  0
  -24.6260  -31.8310   23.0520 C   0  0  0  0  0  0  0  0  0  0  0  0
  -27.2800  -26.9710   19.9170 C   0  0  0  0  0  0  0  0  0  0  0  0
  -23.4560  -30.4320   21.4010 C   0  0  0  0  0  3  0  0  0  0  0  0
  -24.9360  -28.8800   19.9200 C   0  0  0  0  0  0  0  0  0  0  0  0
  -26.0190  -30.6850   21.2360 C   0  0  0  0  0  2  0  0  0  0  0  0
  -26.1220  -29.2770   20.5500 C   0  0  0  0  0  0  0  0  0  0  0  0
  -27.2760  -28.3450   20.5240 C   0  0  0  0  0  3  0  0  0  0  0  0
  -26.0620  -26.7700   19.2230 C   0  0  0  0  0  3  0  0  0  0  0  0
  -24.9410  -27.6550   19.2320 C   0  0  0  0  0  3  0  0  0  0  0  0
  -23.6940  -29.7800   20.0050 C   0  0  0  0  0  2  0  0  0  0  0  0
  -24.7240  -31.0150   21.9490 N   0  0  0  0  0  0  0  0  0  0  0  0
  -23.5350  -32.0780   23.5930 O   0  0  0  0  0  0  0  0  0  0  0  0
  -22.7990  -29.4050   22.3610 C   0  0  0  0  0  0  0  0  0  0  0  0
  -21.4740  -29.1920   22.2450 N   0  0  0  0  0  0  0  0  0  0  0  0
  -23.4920  -28.7980   23.1830 O   0  0  0  0  0  0  0  0  0  0  0  0
  -20.9640  -29.7350   21.5620 H   0  0  0  0  0  0  0  0  0  0  0  0
  -18.1510  -27.8200   22.7570 C   0  0  0  0  0  0  0  0  0  0  0  0
  -20.6960  -28.2090   23.0110 C   0  0  0  0  0  3  0  0  0  0  0  0
  -20.8640  -26.7880   22.4240 C   0  0  0  0  0  2  0  0  0  0  0  0
  -19.7750  -26.4230   21.4100 C   0  0  0  0  0  2  0  0  0  0  0  0
  -18.3900  -26.4910   22.0600 C   0  0  0  0  0  2  0  0  0  0  0  0
  -19.2330  -28.6330   23.1890 C   0  0  0  0  0  0  0  0  0  0  0  0
  -18.9510  -29.8720   23.8060 C   0  0  0  0  0  3  0  0  0  0  0  0
  -17.6220  -30.2990   23.9890 C   0  0  0  0  0  3  0  0  0  0  0  0
  -16.5560  -29.4840   23.5700 C   0  0  0  0  0  3  0  0  0  0  0  0
  -16.8220  -28.2460   22.9580 C   0  0  0  0  0  3  0  0  0  0  0  0
  -25.8830  -32.5090   23.6820 C   0  0  0  0  0  3  0  0  0  0  0  0
  -25.5190  -33.8890   24.0540 N   0  0  0  0  0  0  0  0  0  0  0  0
  -25.7980  -34.9820   23.3310 C   0  0  0  0  0  0  0  0  0  0  0  0
  -26.4480  -34.9360   22.2840 O   0  0  0  0  0  0  0  0  0  0  0  0
  -24.9360  -33.9950   24.8720 H   0  0  0  0  0  0  0  0  0  0  0  0
  -24.0010  -36.7330   23.0900 C   0  0  0  0  0  1  0  0  0  0  0  0
  -25.2780  -36.3400   23.8510 C   0  0  0  0  0  3  0  0  0  0  0  0
  -27.3970  -37.2850   24.6580 C   0  0  0  0  0  1  0  0  0  0  0  0
  -26.2690  -37.4340   23.7420 N   0  0  0  0  0  0  0  0  0  0  0  0
  -25.8320  -38.3340   23.9240 H   0  0  0  0  0  0  0  0  0  0  0  0
  -26.4290  -31.7380   24.9480 C   0  0  1  0  0  0  0  0  0  0  0  0
  -25.3510  -31.4550   26.0200 C   0  0  0  0  0  1  0  0  0  0  0  0
  -27.0530  -30.3830   24.5460 C   0  0  0  0  0  1  0  0  0  0  0  0
  -27.5570  -32.5600   25.6130 C   0  0  0  0  0  1  0  0  0  0  0  0
  2  1  1  0
  3 48  1  0
  3  1  1  0
  4 51  1  6
  4  2  1  0
  4  3  1  0
  6 11  1  0
  7  8  1  0
  7  6  1  0
  9  8  1  0
  9 22  1  0
  9 10  1  0
 11  5  1  0
 11 10  1  0
 12  5  2  0
 13 17  1  0
 13 15  2  0
 16 14  2  0
 17  5  1  0
 17 14  1  0
 18 15  1  0
 18 16  1  0
 18  4  1  0
 19 20  2  0
 20 39  1  0
 21 20  1  0
 21 24  1  0
 22 23  1  0
 22 19  1  0
 23 21  2  0
 24 25  1  0
 25 26  2  0
 27 30  1  0
 27 26  1  0
 28 27  2  0
 29 28  1  0
 29 24  2  0
 30 31  1  0
 31 36  2  0
 31 32  1  0
 32 33  2  0
 33 34  1  0
 34 38  1  0
 35 34  2  0
 36 35  1  0
 37 36  1  0
 39 40  1  0
 40 43  1  0
 40 42  1  0
 41 39  2  0
 44 19  1  0
 44 45  1  0
 46 44  1  0
 48 47  1  0
 49 48  1  0
 50 48  1  0
 51 52  1  0
 53 64  2  0
 54 52  1  0
 54 59  1  0
 55 63  1  0
 55 65  1  0
 56 62  1  0
 56 58  1  0
 57 63  1  0
 58 57  1  0
 59 58  2  0
 60 61  1  0
 60 54  2  0
 61 56  2  0
 62 55  1  0
 63 53  1  0
 65 67  2  0
 66 65  1  0
 68 66  1  0
 69 78  2  0
 69 74  1  0
 70 66  1  0
 70 74  1  0
 71 70  1  0
 72 73  1  0
 72 71  1  0
 73 69  1  0
 74 75  2  0
 75 76  1  0
 77 76  2  0
 78 77  1  0
 79 53  1  0
 79 80  1  0
 79 89  1  0
 80 83  1  0
 81 85  1  0
 81 80  1  0
 82 81  2  0
 85 84  1  0
 87 85  1  0
 87 88  1  0
 87 86  1  0
 89 92  1  1
 89 90  1  0
 91 89  1  0
M  ISO  4   5 100  17 100  51 101  52 101
M  END
>  <TORSDO>  (61) 
F 18

>  <SCORE>  (61) 
-15.082

>  <name>  (61) 
60

>  <ligand_id>  (61) 
60

>  <original_smiles>  (61) 
[H]c1c([H])c([H])c2c(c1[H])C([H])([H])C([H])([H])C([H])([H])C2([H])N([H])C(=O)C1([H])N(C(=O)C([H])(N([H])C(=O)C([H])(N([H])C([H])([H])[H])C([H])([H])[H])C(C([H])([H])[H])(C([H])([H])[H])C([H])([H])[H])C([H])([H])c2c([H])c(OC([H])([H])C3(N4C([H])([H])C([H])([H])N(C(=O)N5C([H])([H])C([H])([H])C([H])([H])C([H])(n6nc(-c7c([H])c([H])c(Oc8c([H])c([H])c(F)c([H])c8F)c([H])c7[H])c(C(=O)N([H])[H])c6N([H])[H])C5([H])[H])C([H])([H])C4([H])[H])C([H])([H])C([H])([H])C3([H])[N+]([H])([H])C([H])([H])[H])c([H])c([H])c2C1([H])[H]

>  <smiles>  (61) 
[H]c1c([H])c([H])c2c(c1[H])C([H])([H])C([H])([H])C([H])([H])C2([H])N([H])C(=O)C1([H])N(C(=O)C([H])(N([H])C(=O)C([H])(N([H])C([H])([H])[H])C([H])([H])[H])C(C([H])([H])[H])(C([H])([H])[H])C([H])([H])[H])C([H])([H])c2c([H])c(OC([H])([H])C3(N4C([H])([H])C([H])([H])N(C(=O)N5C([H])([H])C([H])([H])C([H])([H])C([H])(n6nc(-c7c([H])c([H])c(Oc8c([H])c([H])c(F)c([H])c8F)c([H])c7[H])c(C(=O)N([H])[H])c6N([H])[H])C5([H])[H])C([H])([H])C4([H])[H])C([H])([H])C([H])([H])C3([H])[N+]([H])([H])C([H])([H])[H])c([H])c([H])c2C1([H])[H]

$$$$
61:0:0
     RDKit          3D

 90 99  0  0  1  0  0  0  0  0999 V2000
  -28.9320  -21.2230   18.7790 C   0  0  0  0  0  3  0  0  0  0  0  0
  -28.5050  -22.5540   18.8530 C   0  0  0  0  0  0  0  0  0  0  0  0
  -28.8590  -23.0860   20.1430 C   0  0  0  0  0  0  0  0  0  0  0  0
  -27.7430  -23.3080   17.7950 C   0  0  0  0  0  1  0  0  0  0  0  0
  -29.4090  -21.9650   20.7910 N   0  0  0  0  0  0  0  0  0  0  0  0
  -29.4640  -20.7740   19.9860 N   0  0  0  0  0  0  0  0  0  0  0  0
  -29.9850  -18.8070   21.8240 C   0  0  0  0  0  2  0  0  0  0  0  0
  -31.1480  -17.8470   21.4600 C   0  0  0  0  0  2  0  0  0  0  0  0
  -30.0990  -19.3850   20.4260 C   0  0  0  0  0  3  0  0  0  0  0  0
  -30.7190  -17.8130   19.9600 C   0  0  0  0  0  3  0  0  0  0  0  0
  -30.9100  -15.0470   19.7660 C   0  0  0  0  0  0  0  0  0  0  0  0
  -30.7450  -12.6320   18.9440 C   0  0  0  0  0  2  0  0  0  0  0  0
  -29.7460  -12.4850   17.7730 C   0  0  0  0  0  2  0  0  0  0  0  0
  -28.3120  -12.2950   18.3030 C   0  0  0  0  0  2  0  0  0  0  0  0
  -27.9620  -13.2890   19.4410 C   0  0  0  0  0  3  0  0  0  0  0  0
  -29.0770  -13.3850   20.5010 C   0  0  0  0  0  2  0  0  0  0  0  0
  -30.2960  -13.7860   19.7880 N   0  0  0  0  0  0  0  0  0  0  0  0
  -32.1120  -15.0430   19.4770 O   0  0  0  0  0  0  0  0  0  0  0  0
  -30.1860  -16.2960   19.8690 N   0  0  0  0  0  0  0  0  0  0  0  0
  -29.1900  -16.1910   19.9950 H   0  0  0  0  0  0  0  0  0  0  0  0
  -25.6770  -13.9270   20.3960 C   0  0  0  0  0  0  0  0  0  0  0  0
  -24.6110  -13.1820   20.8160 C   0  0  0  0  0  0  0  0  0  0  0  0
  -25.0110  -11.8150   20.6910 C   0  0  0  0  0  0  0  0  0  0  0  0
  -26.6570  -13.0190   20.0340 N   0  0  0  0  0  0  0  0  0  0  0  0
  -26.2720  -11.7390   20.2770 N   0  0  0  0  0  0  0  0  0  0  0  0
  -24.2410  -10.5770   20.8790 C   0  0  0  0  0  0  0  0  0  0  0  0
  -24.6650   -9.5750   21.7780 C   0  0  0  0  0  3  0  0  0  0  0  0
  -23.8980   -8.4030   21.9580 C   0  0  0  0  0  3  0  0  0  0  0  0
  -22.6920   -8.2270   21.2390 C   0  0  0  0  0  0  0  0  0  0  0  0
  -22.2860   -9.2190   20.3270 C   0  0  0  0  0  3  0  0  0  0  0  0
  -23.0540  -10.3810   20.1460 C   0  0  0  0  0  3  0  0  0  0  0  0
  -21.8960   -7.1100   21.3300 O   0  0  0  0  0  0  0  0  0  0  0  0
  -21.8240   -6.3680   22.4830 C   0  0  0  0  0  0  0  0  0  0  0  0
  -21.3950   -6.9310   23.7050 C   0  0  0  0  0  3  0  0  0  0  0  0
  -21.2710   -6.1170   24.8490 C   0  0  0  0  0  3  0  0  0  0  0  0
  -21.5640   -4.7430   24.7710 C   0  0  0  0  0  0  0  0  0  0  0  0
  -21.9870   -4.1800   23.5530 C   0  0  0  0  0  3  0  0  0  0  0  0
  -22.1140   -4.9910   22.4130 C   0  0  0  0  0  0  0  0  0  0  0  0
  -22.5000   -4.4390   21.2360 F   0  0  0  0  0  0  0  0  0  0  0  0
  -21.4370   -3.9590   25.8670 F   0  0  0  0  0  0  0  0  0  0  0  0
  -23.2600  -13.7040   21.2110 C   0  0  0  0  0  0  0  0  0  0  0  0
  -22.5630  -13.0070   22.1000 N   0  0  0  0  0  0  0  0  0  0  0  0
  -22.8340  -14.7680   20.7610 O   0  0  0  0  0  0  0  0  0  0  0  0
  -22.9200  -12.1470   22.4880 H   0  0  0  0  0  0  0  0  0  0  0  0
  -21.6580  -13.3400   22.4010 H   0  0  0  0  0  0  0  0  0  0  0  0
  -25.8860  -15.2970   20.2640 N   0  0  0  0  0  0  0  0  0  0  0  0
  -25.1460  -15.9660   20.4540 H   0  0  0  0  0  0  0  0  0  0  0  0
  -26.6980  -15.7180   19.8360 H   0  0  0  0  0  0  0  0  0  0  0  0
  -28.4460  -24.5550   20.8560 C   0  0  0  0  0  2  0  0  0  0  0  0
  -28.7170  -26.0450   20.4030 O   0  0  0  0  0  0  0  0  0  0  0  0
  -24.7740  -31.6990   23.2000 C   0  0  0  0  0  0  0  0  0  0  0  0
  -27.6500  -27.0300   20.3430 C   0  0  0  0  0  0  0  0  0  0  0  0
  -23.7060  -30.2510   21.5170 C   0  0  0  0  0  3  0  0  0  0  0  0
  -25.2770  -28.7180   20.1750 C   0  0  0  0  0  0  0  0  0  0  0  0
  -26.2560  -30.6040   21.4700 C   0  0  0  0  0  2  0  0  0  0  0  0
  -26.4120  -29.2060   20.8370 C   0  0  0  0  0  0  0  0  0  0  0  0
  -27.6030  -28.3790   20.9000 C   0  0  0  0  0  3  0  0  0  0  0  0
  -26.4910  -26.6580   19.6350 C   0  0  0  0  0  3  0  0  0  0  0  0
  -25.3330  -27.4610   19.5540 C   0  0  0  0  0  3  0  0  0  0  0  0
  -24.0190  -29.5740   20.1540 C   0  0  0  0  0  2  0  0  0  0  0  0
  -24.9290  -30.8750   22.1170 N   0  0  0  0  0  0  0  0  0  0  0  0
  -23.6540  -31.9430   23.6760 O   0  0  0  0  0  0  0  0  0  0  0  0
  -23.0210  -29.2250   22.4540 C   0  0  0  0  0  0  0  0  0  0  0  0
  -21.7030  -29.0150   22.2800 N   0  0  0  0  0  0  0  0  0  0  0  0
  -23.6800  -28.6180   23.3020 O   0  0  0  0  0  0  0  0  0  0  0  0
  -21.2250  -29.5600   21.5760 H   0  0  0  0  0  0  0  0  0  0  0  0
  -18.3410  -27.7200   22.6730 C   0  0  0  0  0  0  0  0  0  0  0  0
  -20.8830  -28.0530   23.0230 C   0  0  0  0  0  3  0  0  0  0  0  0
  -21.0420  -26.6260   22.4480 C   0  0  0  0  0  2  0  0  0  0  0  0
  -19.9820  -26.2770   21.3990 C   0  0  0  0  0  2  0  0  0  0  0  0
  -18.5760  -26.3800   21.9970 C   0  0  0  0  0  2  0  0  0  0  0  0
  -19.4240  -28.5120   23.1410 C   0  0  0  0  0  0  0  0  0  0  0  0
  -19.1480  -29.7650   23.7320 C   0  0  0  0  0  3  0  0  0  0  0  0
  -17.8240  -30.2240   23.8600 C   0  0  0  0  0  3  0  0  0  0  0  0
  -16.7560  -29.4310   23.4080 C   0  0  0  0  0  3  0  0  0  0  0  0
  -17.0160  -28.1800   22.8190 C   0  0  0  0  0  3  0  0  0  0  0  0
  -25.9960  -32.3880   23.8830 C   0  0  0  0  0  3  0  0  0  0  0  0
  -25.6140  -33.7760   24.1900 N   0  0  0  0  0  0  0  0  0  0  0  0
  -25.9340  -34.8410   23.4420 C   0  0  0  0  0  0  0  0  0  0  0  0
  -26.6440  -34.7590   22.4370 O   0  0  0  0  0  0  0  0  0  0  0  0
  -24.9880  -33.9110   24.9700 H   0  0  0  0  0  0  0  0  0  0  0  0
  -24.1500  -36.5680   23.0230 C   0  0  0  0  0  1  0  0  0  0  0  0
  -25.3770  -36.2120   23.8780 C   0  0  0  0  0  3  0  0  0  0  0  0
  -27.4410  -37.1890   24.7810 C   0  0  0  0  0  1  0  0  0  0  0  0
  -26.3700  -37.3040   23.7950 N   0  0  0  0  0  0  0  0  0  0  0  0
  -25.9230  -38.2090   23.9180 H   0  0  0  0  0  0  0  0  0  0  0  0
  -26.4720  -31.6470   25.1930 C   0  0  1  0  0  0  0  0  0  0  0  0
  -25.3330  -31.3790   26.2060 C   0  0  0  0  0  1  0  0  0  0  0  0
  -27.1250  -30.2890   24.8530 C   0  0  0  0  0  1  0  0  0  0  0  0
  -27.5530  -32.4900   25.9060 C   0  0  0  0  0  1  0  0  0  0  0  0
  1  2  2  0
  1  6  1  0
  2  3  1  0
  3  5  2  0
  3 49  1  0
  4  2  1  0
  6  5  1  0
  8  7  1  0
  9  6  1  0
  9  7  1  0
 10 19  1  0
 10  9  1  0
 10  8  1  0
 11 17  1  0
 11 19  1  0
 12 17  1  0
 13 14  1  0
 13 12  1  0
 15 14  1  0
 15 24  1  0
 15 16  1  0
 17 16  1  0
 18 11  2  0
 19 20  1  0
 21 22  2  0
 22 41  1  0
 23 22  1  0
 23 26  1  0
 24 25  1  0
 24 21  1  0
 25 23  2  0
 26 27  1  0
 27 28  2  0
 29 32  1  0
 29 28  1  0
 30 29  2  0
 31 30  1  0
 31 26  2  0
 32 33  1  0
 33 34  1  0
 34 35  2  0
 36 35  1  0
 36 40  1  0
 37 36  2  0
 38 33  2  0
 38 37  1  0
 39 38  1  0
 41 42  1  0
 42 45  1  0
 42 44  1  0
 43 41  2  0
 46 21  1  0
 46 47  1  0
 48 46  1  0
 50 49  1  0
 51 62  2  0
 52 50  1  0
 52 57  1  0
 53 61  1  0
 53 63  1  0
 54 56  1  0
 55 61  1  0
 56 57  2  0
 56 55  1  0
 58 52  2  0
 59 58  1  0
 59 54  2  0
 60 54  1  0
 60 53  1  0
 61 51  1  0
 63 65  2  0
 64 63  1  0
 66 64  1  0
 67 76  2  0
 67 72  1  0
 68 64  1  0
 68 72  1  0
 69 68  1  0
 70 71  1  0
 70 69  1  0
 71 67  1  0
 72 73  2  0
 73 74  1  0
 75 74  2  0
 76 75  1  0
 77 51  1  0
 77 78  1  0
 77 87  1  0
 78 81  1  0
 79 83  1  0
 79 78  1  0
 80 79  2  0
 83 82  1  0
 85 83  1  0
 85 86  1  0
 85 84  1  0
 87 90  1  1
 87 88  1  0
 89 87  1  0
M  ISO  4  11 100  19 100  49 101  50 101
M  END
>  <TORSDO>  (62) 
F 18

>  <SCORE>  (62) 
-13.617

>  <name>  (62) 
61

>  <ligand_id>  (62) 
61

>  <original_smiles>  (62) 
[H]c1c([H])c([H])c2c(c1[H])C([H])([H])C([H])([H])C([H])([H])C2([H])N([H])C(=O)C1([H])N(C(=O)C([H])(N([H])C(=O)C([H])(N([H])C([H])([H])[H])C([H])([H])[H])C(C([H])([H])[H])(C([H])([H])[H])C([H])([H])[H])C([H])([H])c2c([H])c(OC([H])([H])c3nn(C4([H])C([H])([H])C([H])([H])C4([H])N([H])C(=O)N4C([H])([H])C([H])([H])C([H])([H])C([H])(n5nc(-c6c([H])c([H])c(Oc7c([H])c([H])c(F)c([H])c7F)c([H])c6[H])c(C(=O)N([H])[H])c5N([H])[H])C4([H])[H])c([H])c3C([H])([H])[H])c([H])c([H])c2C1([H])[H]

>  <smiles>  (62) 
[H]c1c([H])c([H])c2c(c1[H])C([H])([H])C([H])([H])C([H])([H])C2([H])N([H])C(=O)C1([H])N(C(=O)C([H])(N([H])C(=O)C([H])(N([H])C([H])([H])[H])C([H])([H])[H])C(C([H])([H])[H])(C([H])([H])[H])C([H])([H])[H])C([H])([H])c2c([H])c(OC([H])([H])c3nn(C4([H])C([H])([H])C([H])([H])C4([H])N([H])C(=O)N4C([H])([H])C([H])([H])C([H])([H])C([H])(n5nc(-c6c([H])c([H])c(Oc7c([H])c([H])c(F)c([H])c7F)c([H])c6[H])c(C(=O)N([H])[H])c5N([H])[H])C4([H])[H])c([H])c3C([H])([H])[H])c([H])c([H])c2C1([H])[H]

$$$$
62:0:0
     RDKit          3D

 92100  0  0  1  0  0  0  0  0999 V2000
  -31.2700  -22.0580   21.1050 C   0  0  0  0  0  1  0  0  0  0  0  0
  -30.2360  -21.9590   19.9630 C   0  0  0  0  0  3  0  0  0  0  0  0
  -29.1050  -22.8730   20.2180 N   0  0  0  0  0  0  0  0  0  0  0  0
  -28.6240  -22.6280   21.0810 H   0  0  0  0  0  0  0  0  0  0  0  0
  -29.4320  -24.3170   20.2270 C   0  0  0  0  0  2  0  0  0  0  0  0
  -28.1790  -25.1970   19.9430 C   0  0  0  0  0  2  0  0  0  0  0  0
  -28.3480  -26.6270   20.1280 O   0  0  0  0  0  0  0  0  0  0  0  0
  -24.5430  -31.8510   23.2160 C   0  0  0  0  0  0  0  0  0  0  0  0
  -27.1870  -27.3950   20.1090 C   0  0  0  0  0  0  0  0  0  0  0  0
  -23.3360  -30.4440   21.5860 C   0  0  0  0  0  3  0  0  0  0  0  0
  -24.7890  -28.9230   20.1430 C   0  0  0  0  0  0  0  0  0  0  0  0
  -25.8630  -30.8110   21.3710 C   0  0  0  0  0  2  0  0  0  0  0  0
  -25.9530  -29.4410   20.7240 C   0  0  0  0  0  0  0  0  0  0  0  0
  -27.1560  -28.6870   20.7000 C   0  0  0  0  0  3  0  0  0  0  0  0
  -25.9970  -26.9140   19.5130 C   0  0  0  0  0  3  0  0  0  0  0  0
  -24.8080  -27.6620   19.5320 C   0  0  0  0  0  3  0  0  0  0  0  0
  -23.5390  -29.7730   20.2030 C   0  0  0  0  0  2  0  0  0  0  0  0
  -24.5990  -31.0500   22.1150 N   0  0  0  0  0  0  0  0  0  0  0  0
  -23.4630  -32.1160   23.7630 O   0  0  0  0  0  0  0  0  0  0  0  0
  -22.7000  -29.4140   22.5500 C   0  0  0  0  0  0  0  0  0  0  0  0
  -21.3760  -29.2170   22.4310 N   0  0  0  0  0  0  0  0  0  0  0  0
  -23.3940  -28.7940   23.3600 O   0  0  0  0  0  0  0  0  0  0  0  0
  -20.8770  -29.7700   21.7480 H   0  0  0  0  0  0  0  0  0  0  0  0
  -18.0160  -27.9820   22.9350 C   0  0  0  0  0  0  0  0  0  0  0  0
  -20.5710  -28.2730   23.2050 C   0  0  0  0  0  3  0  0  0  0  0  0
  -20.6910  -26.8400   22.6330 C   0  0  0  0  0  2  0  0  0  0  0  0
  -19.5920  -26.5010   21.6210 C   0  0  0  0  0  2  0  0  0  0  0  0
  -18.2090  -26.6320   22.2650 C   0  0  0  0  0  2  0  0  0  0  0  0
  -19.1250  -28.7600   23.3610 C   0  0  0  0  0  0  0  0  0  0  0  0
  -18.8920  -30.0240   23.9440 C   0  0  0  0  0  3  0  0  0  0  0  0
  -17.5810  -30.5100   24.1080 C   0  0  0  0  0  3  0  0  0  0  0  0
  -16.4860  -29.7290   23.6990 C   0  0  0  0  0  3  0  0  0  0  0  0
  -16.7060  -28.4670   23.1180 C   0  0  0  0  0  3  0  0  0  0  0  0
  -25.8280  -32.4930   23.8260 C   0  0  0  0  0  3  0  0  0  0  0  0
  -26.3720  -31.7160   25.0860 C   0  0  1  0  0  0  0  0  0  0  0  0
  -25.2960  -31.4560   26.1660 C   0  0  0  0  0  1  0  0  0  0  0  0
  -26.9680  -30.3500   24.6720 C   0  0  0  0  0  1  0  0  0  0  0  0
  -27.5200  -32.5200   25.7410 C   0  0  0  0  0  1  0  0  0  0  0  0
  -25.5040  -33.8850   24.1720 N   0  0  0  0  0  0  0  0  0  0  0  0
  -25.8130  -34.9480   23.4180 C   0  0  0  0  0  0  0  0  0  0  0  0
  -26.4710  -34.8630   22.3770 O   0  0  0  0  0  0  0  0  0  0  0  0
  -24.9180  -34.0230   24.9820 H   0  0  0  0  0  0  0  0  0  0  0  0
  -24.0530  -36.7180   23.1010 C   0  0  0  0  0  1  0  0  0  0  0  0
  -25.3100  -36.3250   23.8930 C   0  0  0  0  0  3  0  0  0  0  0  0
  -27.4450  -37.2310   24.7000 C   0  0  0  0  0  1  0  0  0  0  0  0
  -26.3270  -37.3940   23.7760 N   0  0  0  0  0  0  0  0  0  0  0  0
  -25.9100  -38.3060   23.9360 H   0  0  0  0  0  0  0  0  0  0  0  0
  -29.7720  -20.4860   19.6200 C   0  0  0  0  0  2  0  0  0  0  0  0
  -30.2560  -19.4070   20.5320 N   0  0  0  0  0  4  0  0  0  0  0  0
  -31.2610  -19.4510   20.5420 H   0  0  0  0  0  0  0  0  0  0  0  0
  -29.9310  -19.6060   21.4640 H   0  0  0  0  0  0  0  0  0  0  0  0
  -29.8630  -18.0040   20.1820 C   0  0  0  0  0  2  0  0  0  0  0  0
  -30.8330  -14.5010   20.0890 C   0  0  0  0  0  0  0  0  0  0  0  0
  -30.3870  -12.3780   18.8810 C   0  0  0  0  0  2  0  0  0  0  0  0
  -29.3730  -12.5970   17.7400 C   0  0  0  0  0  2  0  0  0  0  0  0
  -27.9260  -12.4750   18.2590 C   0  0  0  0  0  2  0  0  0  0  0  0
  -27.6860  -13.2960   19.5530 C   0  0  0  0  0  3  0  0  0  0  0  0
  -28.8030  -13.0390   20.5850 C   0  0  0  0  0  2  0  0  0  0  0  0
  -30.0930  -13.3570   19.9470 N   0  0  0  0  0  0  0  0  0  0  0  0
  -31.8810  -14.6690   19.4600 O   0  0  0  0  0  0  0  0  0  0  0  0
  -30.8730  -16.8140   22.3430 C   0  0  0  0  0  2  0  0  0  0  0  0
  -30.1130  -15.5020   22.2500 C   0  0  0  0  0  2  0  0  0  0  0  0
  -30.8000  -16.9430   20.8280 C   0  0  0  0  0  3  0  0  0  0  0  0
  -30.2880  -15.5370   20.7910 N   0  0  0  0  0  0  0  0  0  0  0  0
  -25.3530  -13.9350   20.4270 C   0  0  0  0  0  0  0  0  0  0  0  0
  -24.2940  -13.1780   20.8510 C   0  0  0  0  0  0  0  0  0  0  0  0
  -24.7230  -11.8180   20.7660 C   0  0  0  0  0  0  0  0  0  0  0  0
  -26.3620  -13.0370   20.1130 N   0  0  0  0  0  0  0  0  0  0  0  0
  -25.9890  -11.7570   20.3750 N   0  0  0  0  0  0  0  0  0  0  0  0
  -23.9820  -10.5670   20.9810 C   0  0  0  0  0  0  0  0  0  0  0  0
  -24.4470   -9.5780   21.8750 C   0  0  0  0  0  3  0  0  0  0  0  0
  -23.7090   -8.3930   22.0790 C   0  0  0  0  0  3  0  0  0  0  0  0
  -22.4910   -8.1870   21.3890 C   0  0  0  0  0  0  0  0  0  0  0  0
  -22.0420   -9.1660   20.4850 C   0  0  0  0  0  3  0  0  0  0  0  0
  -22.7800  -10.3440   20.2790 C   0  0  0  0  0  3  0  0  0  0  0  0
  -21.7200   -7.0560   21.5040 O   0  0  0  0  0  0  0  0  0  0  0  0
  -21.7150   -6.3020   22.6510 C   0  0  0  0  0  0  0  0  0  0  0  0
  -21.3840   -6.8570   23.9060 C   0  0  0  0  0  3  0  0  0  0  0  0
  -21.3210   -6.0310   25.0470 C   0  0  0  0  0  3  0  0  0  0  0  0
  -21.5790   -4.6530   24.9330 C   0  0  0  0  0  0  0  0  0  0  0  0
  -21.9040   -4.0970   23.6840 C   0  0  0  0  0  3  0  0  0  0  0  0
  -21.9670   -4.9190   22.5440 C   0  0  0  0  0  0  0  0  0  0  0  0
  -22.2590   -4.3750   21.3390 F   0  0  0  0  0  0  0  0  0  0  0  0
  -21.5110   -3.8590   26.0270 F   0  0  0  0  0  0  0  0  0  0  0  0
  -22.9290  -13.6790   21.2230 C   0  0  0  0  0  0  0  0  0  0  0  0
  -22.2480  -12.9900   22.1310 N   0  0  0  0  0  0  0  0  0  0  0  0
  -22.4760  -14.7180   20.7430 O   0  0  0  0  0  0  0  0  0  0  0  0
  -22.6290  -12.1500   22.5430 H   0  0  0  0  0  0  0  0  0  0  0  0
  -21.3330  -13.3070   22.4200 H   0  0  0  0  0  0  0  0  0  0  0  0
  -25.5360  -15.3050   20.2610 N   0  0  0  0  0  0  0  0  0  0  0  0
  -24.7930  -15.9740   20.4240 H   0  0  0  0  0  0  0  0  0  0  0  0
  -26.3770  -15.7230   19.8840 H   0  0  0  0  0  0  0  0  0  0  0  0
  2  3  1  0
  2  1  1  0
  3  5  1  0
  3  4  1  0
  6  7  1  0
  6  5  1  0
  8 19  2  0
  9  7  1  0
  9 14  1  0
 10 18  1  0
 10 20  1  0
 11 17  1  0
 11 13  1  0
 12 18  1  0
 13 12  1  0
 14 13  2  0
 15 16  1  0
 15  9  2  0
 16 11  2  0
 17 10  1  0
 18  8  1  0
 20 22  2  0
 21 20  1  0
 23 21  1  0
 24 33  2  0
 24 29  1  0
 25 21  1  0
 25 29  1  0
 26 25  1  0
 27 28  1  0
 27 26  1  0
 28 24  1  0
 29 30  2  0
 30 31  1  0
 32 31  2  0
 33 32  1  0
 34  8  1  0
 34 39  1  0
 34 35  1  0
 35 38  1  1
 35 36  1  0
 37 35  1  0
 39 42  1  0
 40 44  1  0
 40 39  1  0
 41 40  2  0
 44 43  1  0
 46 44  1  0
 46 47  1  0
 46 45  1  0
 48  2  1  0
 48 49  1  0
 49 50  1  0
 49 51  1  0
 52 49  1  0
 53 64  1  0
 54 59  1  0
 55 56  1  0
 55 54  1  0
 57 56  1  0
 57 68  1  0
 57 58  1  0
 59 53  1  0
 59 58  1  0
 60 53  2  0
 62 61  1  0
 63 52  1  0
 63 61  1  0
 64 63  1  0
 64 62  1  0
 65 66  2  0
 66 85  1  0
 67 66  1  0
 67 70  1  0
 68 69  1  0
 68 65  1  0
 69 67  2  0
 70 71  1  0
 71 72  2  0
 73 76  1  0
 73 72  1  0
 74 73  2  0
 75 74  1  0
 75 70  2  0
 76 77  1  0
 77 78  1  0
 78 79  2  0
 80 79  1  0
 80 84  1  0
 81 80  2  0
 82 77  2  0
 82 81  1  0
 83 82  1  0
 85 86  1  0
 86 89  1  0
 86 88  1  0
 87 85  2  0
 90 91  1  0
 90 65  1  0
 92 90  1  0
M  ISO  4   6 101   7 101  53 100  64 100
M  END
>  <TORSDO>  (63) 
F 22

>  <SCORE>  (63) 
-12.137

>  <name>  (63) 
62

>  <ligand_id>  (63) 
62

>  <original_smiles>  (63) 
[H]c1c([H])c([H])c2c(c1[H])C([H])([H])C([H])([H])C([H])([H])C2([H])N([H])C(=O)C1([H])N(C(=O)C([H])(N([H])C(=O)C([H])(N([H])C([H])([H])[H])C([H])([H])[H])C(C([H])([H])[H])(C([H])([H])[H])C([H])([H])[H])C([H])([H])c2c([H])c(OC([H])([H])C([H])([H])N([H])C([H])(C([H])([H])[H])C([H])([H])[N+]([H])([H])C([H])([H])C3([H])N(C(=O)N4C([H])([H])C([H])([H])C([H])([H])C([H])(n5nc(-c6c([H])c([H])c(Oc7c([H])c([H])c(F)c([H])c7F)c([H])c6[H])c(C(=O)N([H])[H])c5N([H])[H])C4([H])[H])C([H])([H])C3([H])[H])c([H])c([H])c2C1([H])[H]

>  <smiles>  (63) 
[H]c1c([H])c([H])c2c(c1[H])C([H])([H])C([H])([H])C([H])([H])C2([H])N([H])C(=O)C1([H])N(C(=O)C([H])(N([H])C(=O)C([H])(N([H])C([H])([H])[H])C([H])([H])[H])C(C([H])([H])[H])(C([H])([H])[H])C([H])([H])[H])C([H])([H])c2c([H])c(OC([H])([H])C([H])([H])N([H])C([H])(C([H])([H])[H])C([H])([H])[N+]([H])([H])C([H])([H])C3([H])N(C(=O)N4C([H])([H])C([H])([H])C([H])([H])C([H])(n5nc(-c6c([H])c([H])c(Oc7c([H])c([H])c(F)c([H])c7F)c([H])c6[H])c(C(=O)N([H])[H])c5N([H])[H])C4([H])[H])C([H])([H])C3([H])[H])c([H])c([H])c2C1([H])[H]

$$$$
63:0:0
     RDKit          3D

 93102  0  0  1  0  0  0  0  0999 V2000
  -29.4750  -21.0680   20.2320 C   0  0  0  0  0  0  0  0  0  0  0  0
  -28.8270  -21.9530   21.1580 C   0  0  0  0  0  0  0  0  0  0  0  0
  -29.6850  -22.9870   18.8270 C   0  0  0  0  0  0  0  0  0  0  0  0
  -28.9730  -23.8570   19.7290 C   0  0  0  0  0  0  0  0  0  0  0  0
  -28.3150  -21.4670   22.5010 C   0  0  0  0  0  1  0  0  0  0  0  0
  -29.9320  -21.6450   19.0790 N   0  0  0  0  0  0  0  0  0  0  0  0
  -28.5840  -23.2860   20.9090 N   0  0  0  0  0  0  0  0  0  0  0  0
  -31.0240  -15.1460   20.2140 C   0  0  0  0  0  0  0  0  0  0  0  0
  -30.7680  -12.8220   19.3130 C   0  0  0  0  0  2  0  0  0  0  0  0
  -29.8490  -12.7950   18.0750 C   0  0  0  0  0  2  0  0  0  0  0  0
  -28.3810  -12.6230   18.5050 C   0  0  0  0  0  2  0  0  0  0  0  0
  -27.9800  -13.5910   19.6490 C   0  0  0  0  0  3  0  0  0  0  0  0
  -29.0300  -13.6350   20.7820 C   0  0  0  0  0  2  0  0  0  0  0  0
  -30.3270  -13.9530   20.1690 N   0  0  0  0  0  0  0  0  0  0  0  0
  -32.2270  -15.1320   19.9380 O   0  0  0  0  0  0  0  0  0  0  0  0
  -29.1970  -18.4820   19.3890 C   0  0  0  0  0  2  0  0  0  0  0  0
  -31.0510  -18.9370   20.8770 C   0  0  0  0  0  2  0  0  0  0  0  0
  -29.2200  -16.9350   19.7740 C   0  0  0  0  0  2  0  0  0  0  0  0
  -31.0760  -17.4180   21.3390 C   0  0  0  0  0  2  0  0  0  0  0  0
  -29.6520  -19.4830   20.4910 C   0  0  0  0  0  3  0  0  0  0  0  0
  -30.4050  -16.3760   20.4940 N   0  0  0  0  0  0  0  0  0  0  0  0
  -25.6180  -14.2230   20.4120 C   0  0  0  0  0  0  0  0  0  0  0  0
  -24.5360  -13.4660   20.7660 C   0  0  0  0  0  0  0  0  0  0  0  0
  -24.9660  -12.1060   20.7010 C   0  0  0  0  0  0  0  0  0  0  0  0
  -26.6380  -13.3230   20.1490 N   0  0  0  0  0  0  0  0  0  0  0  0
  -26.2540  -12.0440   20.3880 N   0  0  0  0  0  0  0  0  0  0  0  0
  -24.2100  -10.8580   20.8580 C   0  0  0  0  0  0  0  0  0  0  0  0
  -24.5930   -9.8750   21.7970 C   0  0  0  0  0  3  0  0  0  0  0  0
  -23.8360   -8.6930   21.9450 C   0  0  0  0  0  3  0  0  0  0  0  0
  -22.6840   -8.4840   21.1510 C   0  0  0  0  0  0  0  0  0  0  0  0
  -22.3200   -9.4540   20.2000 C   0  0  0  0  0  3  0  0  0  0  0  0
  -23.0770  -10.6280   20.0520 C   0  0  0  0  0  3  0  0  0  0  0  0
  -21.9030   -7.3550   21.2080 O   0  0  0  0  0  0  0  0  0  0  0  0
  -21.7720   -6.6280   22.3640 C   0  0  0  0  0  0  0  0  0  0  0  0
  -21.2240   -7.1890   23.5380 C   0  0  0  0  0  3  0  0  0  0  0  0
  -21.0430   -6.3870   24.6830 C   0  0  0  0  0  3  0  0  0  0  0  0
  -21.4000   -5.0250   24.6530 C   0  0  0  0  0  0  0  0  0  0  0  0
  -21.9420   -4.4640   23.4830 C   0  0  0  0  0  3  0  0  0  0  0  0
  -22.1240   -5.2640   22.3410 C   0  0  0  0  0  0  0  0  0  0  0  0
  -22.6270   -4.7140   21.2100 F   0  0  0  0  0  0  0  0  0  0  0  0
  -21.2200   -4.2530   25.7490 F   0  0  0  0  0  0  0  0  0  0  0  0
  -23.1520  -13.9710   21.0520 C   0  0  0  0  0  0  0  0  0  0  0  0
  -22.4090  -13.2720   21.9030 N   0  0  0  0  0  0  0  0  0  0  0  0
  -22.7390  -15.0190   20.5560 O   0  0  0  0  0  0  0  0  0  0  0  0
  -22.7550  -12.4240   22.3240 H   0  0  0  0  0  0  0  0  0  0  0  0
  -21.4790  -13.5900   22.1360 H   0  0  0  0  0  0  0  0  0  0  0  0
  -25.8100  -15.5930   20.2640 N   0  0  0  0  0  0  0  0  0  0  0  0
  -25.0540  -16.2570   20.3890 H   0  0  0  0  0  0  0  0  0  0  0  0
  -26.6610  -16.0200   19.9250 H   0  0  0  0  0  0  0  0  0  0  0  0
  -31.7110  -23.7100   17.4870 C   0  0  0  0  0  1  0  0  0  0  0  0
  -30.1950  -23.4740   17.4780 C   0  0  0  0  0  2  0  0  0  0  0  0
  -28.2130  -25.2110   19.3080 C   0  0  0  0  0  2  0  0  0  0  0  0
  -28.5060  -26.6370   19.7280 O   0  0  0  0  0  0  0  0  0  0  0  0
  -24.6300  -31.7520   23.1840 C   0  0  0  0  0  0  0  0  0  0  0  0
  -27.4040  -27.5430   19.7170 C   0  0  0  0  0  0  0  0  0  0  0  0
  -23.4770  -30.4420   21.4430 C   0  0  0  0  0  3  0  0  0  0  0  0
  -24.9820  -29.1030   19.8670 C   0  0  0  0  0  0  0  0  0  0  0  0
  -26.0050  -30.8790   21.2720 C   0  0  0  0  0  2  0  0  0  0  0  0
  -26.1410  -29.5640   20.5040 C   0  0  0  0  0  0  0  0  0  0  0  0
  -27.3520  -28.7960   20.4270 C   0  0  0  0  0  3  0  0  0  0  0  0
  -26.2180  -27.1900   19.0230 C   0  0  0  0  0  3  0  0  0  0  0  0
  -25.0270  -27.9260   19.1150 C   0  0  0  0  0  3  0  0  0  0  0  0
  -23.7070  -29.9110   20.0060 C   0  0  0  0  0  2  0  0  0  0  0  0
  -24.7230  -31.0390   22.0220 N   0  0  0  0  0  0  0  0  0  0  0  0
  -23.5400  -31.9300   23.7470 O   0  0  0  0  0  0  0  0  0  0  0  0
  -22.8760  -29.3120   22.3150 C   0  0  0  0  0  0  0  0  0  0  0  0
  -21.5610  -29.0670   22.1730 N   0  0  0  0  0  0  0  0  0  0  0  0
  -23.5910  -28.6640   23.0830 O   0  0  0  0  0  0  0  0  0  0  0  0
  -21.0390  -29.6470   21.5320 H   0  0  0  0  0  0  0  0  0  0  0  0
  -18.2600  -27.6410   22.5840 C   0  0  0  0  0  0  0  0  0  0  0  0
  -20.8010  -28.0250   22.8660 C   0  0  0  0  0  3  0  0  0  0  0  0
  -20.9800  -26.6530   22.1770 C   0  0  0  0  0  2  0  0  0  0  0  0
  -19.8920  -26.3500   21.1430 C   0  0  0  0  0  2  0  0  0  0  0  0
  -18.5080  -26.3630   21.7990 C   0  0  0  0  0  2  0  0  0  0  0  0
  -19.3360  -28.4290   23.0710 C   0  0  0  0  0  0  0  0  0  0  0  0
  -19.0500  -29.6240   23.7650 C   0  0  0  0  0  3  0  0  0  0  0  0
  -17.7200  -30.0340   23.9750 C   0  0  0  0  0  3  0  0  0  0  0  0
  -16.6570  -29.2420   23.5030 C   0  0  0  0  0  3  0  0  0  0  0  0
  -16.9280  -28.0470   22.8130 C   0  0  0  0  0  3  0  0  0  0  0  0
  -25.8860  -32.3950   23.8460 C   0  0  0  0  0  3  0  0  0  0  0  0
  -25.5460  -33.7830   24.1890 N   0  0  0  0  0  0  0  0  0  0  0  0
  -25.8450  -34.8500   23.4360 C   0  0  0  0  0  0  0  0  0  0  0  0
  -26.5070  -34.7710   22.3970 O   0  0  0  0  0  0  0  0  0  0  0  0
  -24.9560  -33.9190   24.9960 H   0  0  0  0  0  0  0  0  0  0  0  0
  -24.0560  -36.5920   23.1340 C   0  0  0  0  0  1  0  0  0  0  0  0
  -25.3310  -36.2240   23.9100 C   0  0  0  0  0  3  0  0  0  0  0  0
  -27.4520  -37.1790   24.6950 C   0  0  0  0  0  1  0  0  0  0  0  0
  -26.3280  -37.3070   23.7700 N   0  0  0  0  0  0  0  0  0  0  0  0
  -25.8960  -38.2150   23.9190 H   0  0  0  0  0  0  0  0  0  0  0  0
  -26.3800  -31.6150   25.1250 C   0  0  1  0  0  0  0  0  0  0  0  0
  -25.2630  -31.3420   26.1590 C   0  0  0  0  0  1  0  0  0  0  0  0
  -26.9980  -30.2520   24.7320 C   0  0  0  0  0  1  0  0  0  0  0  0
  -27.5000  -32.4190   25.8280 C   0  0  0  0  0  1  0  0  0  0  0  0
  1  2  1  0
  2  5  1  0
  3  6  1  0
  3  4  2  0
  4  7  1  0
  6  1  2  0
  7  2  2  0
  8 21  1  0
  9 14  1  0
 10 11  1  0
 10  9  1  0
 12 11  1  0
 12 25  1  0
 12 13  1  0
 14  8  1  0
 14 13  1  0
 15  8  2  0
 16 18  1  0
 16 20  1  0
 17 19  1  0
 18 21  1  0
 20  1  1  0
 20 17  1  0
 21 19  1  0
 22 23  2  0
 23 42  1  0
 24 23  1  0
 24 27  1  0
 25 26  1  0
 25 22  1  0
 26 24  2  0
 27 28  1  0
 28 29  2  0
 30 33  1  0
 30 29  1  0
 31 30  2  0
 32 31  1  0
 32 27  2  0
 33 34  1  0
 34 35  1  0
 35 36  2  0
 37 36  1  0
 37 41  1  0
 38 37  2  0
 39 34  2  0
 39 38  1  0
 40 39  1  0
 42 43  1  0
 43 46  1  0
 43 45  1  0
 44 42  2  0
 47 48  1  0
 47 22  1  0
 49 47  1  0
 51 50  1  0
 51  3  1  0
 52 53  1  0
 52  4  1  0
 54 65  2  0
 55 53  1  0
 55 60  1  0
 56 64  1  0
 56 66  1  0
 57 63  1  0
 57 59  1  0
 58 64  1  0
 59 58  1  0
 60 59  2  0
 61 62  1  0
 61 55  2  0
 62 57  2  0
 63 56  1  0
 64 54  1  0
 66 68  2  0
 67 66  1  0
 69 67  1  0
 70 79  2  0
 70 75  1  0
 71 67  1  0
 71 75  1  0
 72 71  1  0
 73 74  1  0
 73 72  1  0
 74 70  1  0
 75 76  2  0
 76 77  1  0
 78 77  2  0
 79 78  1  0
 80 54  1  0
 80 81  1  0
 80 90  1  0
 81 84  1  0
 82 86  1  0
 82 81  1  0
 83 82  2  0
 86 85  1  0
 88 86  1  0
 88 89  1  0
 88 87  1  0
 90 93  1  1
 90 91  1  0
 92 90  1  0
M  ISO  4   8 100  21 100  52 101  53 101
M  END
>  <TORSDO>  (64) 
F 18

>  <SCORE>  (64) 
-13.254

>  <name>  (64) 
63

>  <ligand_id>  (64) 
63

>  <original_smiles>  (64) 
[H]c1c([H])c([H])c2c(c1[H])C([H])([H])C([H])([H])C([H])([H])C2([H])N([H])C(=O)C1([H])N(C(=O)C([H])(N([H])C(=O)C([H])(N([H])C([H])([H])[H])C([H])([H])[H])C(C([H])([H])[H])(C([H])([H])[H])C([H])([H])[H])C([H])([H])c2c([H])c(OC([H])([H])c3nc(C([H])([H])[H])c(C4([H])C([H])([H])C([H])([H])N(C(=O)N5C([H])([H])C([H])([H])C([H])([H])C([H])(n6nc(-c7c([H])c([H])c(Oc8c([H])c([H])c(F)c([H])c8F)c([H])c7[H])c(C(=O)N([H])[H])c6N([H])[H])C5([H])[H])C([H])([H])C4([H])[H])nc3C([H])([H])C([H])([H])[H])c([H])c([H])c2C1([H])[H]

>  <smiles>  (64) 
[H]c1c([H])c([H])c2c(c1[H])C([H])([H])C([H])([H])C([H])([H])C2([H])N([H])C(=O)C1([H])N(C(=O)C([H])(N([H])C(=O)C([H])(N([H])C([H])([H])[H])C([H])([H])[H])C(C([H])([H])[H])(C([H])([H])[H])C([H])([H])[H])C([H])([H])c2c([H])c(OC([H])([H])c3nc(C([H])([H])[H])c(C4([H])C([H])([H])C([H])([H])N(C(=O)N5C([H])([H])C([H])([H])C([H])([H])C([H])(n6nc(-c7c([H])c([H])c(Oc8c([H])c([H])c(F)c([H])c8F)c([H])c7[H])c(C(=O)N([H])[H])c6N([H])[H])C5([H])[H])C([H])([H])C4([H])[H])nc3C([H])([H])C([H])([H])[H])c([H])c([H])c2C1([H])[H]

$$$$
64:0:0
     RDKit          3D

 87 92  0  0  1  0  0  0  0  0999 V2000
  -30.1570  -16.1800   20.2990 C   0  0  0  0  0  0  0  0  0  0  0  0
  -30.3300  -13.5240   19.5110 C   0  0  0  0  0  2  0  0  0  0  0  0
  -29.5300  -12.8610   18.3410 C   0  0  0  0  0  2  0  0  0  0  0  0
  -28.1470  -12.3980   18.8020 C   0  0  0  0  0  2  0  0  0  0  0  0
  -27.5410  -13.4360   19.7670 C   0  0  0  0  0  3  0  0  0  0  0  0
  -28.5150  -13.9910   20.8530 C   0  0  0  0  0  2  0  0  0  0  0  0
  -29.6050  -14.7640   20.1580 N   0  0  0  0  0  0  0  0  0  0  0  0
  -31.3900  -15.9220   20.2440 O   0  0  0  0  0  0  0  0  0  0  0  0
  -30.2070  -20.5430   19.7230 C   0  0  0  0  0  2  0  0  0  0  0  0
  -30.6860  -18.9510   20.0470 C   0  0  0  0  0  2  0  0  0  0  0  0
  -28.5900  -19.2290   20.3730 C   0  0  0  0  0  1  0  0  0  0  0  0
  -28.9350  -21.1760   20.4830 C   0  0  0  0  0  2  0  0  0  0  0  0
  -29.6830  -17.8020   20.2480 N   0  0  0  0  0  0  0  0  0  0  0  0
  -25.1710  -13.9040   20.4980 C   0  0  0  0  0  0  0  0  0  0  0  0
  -24.1160  -13.1100   20.8420 C   0  0  0  0  0  0  0  0  0  0  0  0
  -24.6060  -11.7670   20.8240 C   0  0  0  0  0  0  0  0  0  0  0  0
  -26.2350  -13.0530   20.2810 N   0  0  0  0  0  0  0  0  0  0  0  0
  -25.9090  -11.7560   20.5400 N   0  0  0  0  0  0  0  0  0  0  0  0
  -23.8860  -10.4960   21.0020 C   0  0  0  0  0  0  0  0  0  0  0  0
  -24.2970   -9.5370   21.9550 C   0  0  0  0  0  3  0  0  0  0  0  0
  -23.5680   -8.3390   22.1270 C   0  0  0  0  0  3  0  0  0  0  0  0
  -22.4160   -8.0900   21.3450 C   0  0  0  0  0  0  0  0  0  0  0  0
  -22.0240   -9.0360   20.3810 C   0  0  0  0  0  3  0  0  0  0  0  0
  -22.7520  -10.2260   20.2080 C   0  0  0  0  0  3  0  0  0  0  0  0
  -21.6630   -6.9430   21.4230 O   0  0  0  0  0  0  0  0  0  0  0  0
  -21.5800   -6.2130   22.5830 C   0  0  0  0  0  0  0  0  0  0  0  0
  -21.1030   -6.7780   23.7870 C   0  0  0  0  0  3  0  0  0  0  0  0
  -20.9680   -5.9750   24.9370 C   0  0  0  0  0  3  0  0  0  0  0  0
  -21.3010   -4.6070   24.8840 C   0  0  0  0  0  0  0  0  0  0  0  0
  -21.7690   -4.0410   23.6860 C   0  0  0  0  0  3  0  0  0  0  0  0
  -21.9060   -4.8430   22.5380 C   0  0  0  0  0  0  0  0  0  0  0  0
  -22.3390   -4.2870   21.3800 F   0  0  0  0  0  0  0  0  0  0  0  0
  -21.1650   -3.8340   25.9870 F   0  0  0  0  0  0  0  0  0  0  0  0
  -22.7070  -13.5720   21.0670 C   0  0  0  0  0  0  0  0  0  0  0  0
  -21.9660  -12.8830   21.9260 N   0  0  0  0  0  0  0  0  0  0  0  0
  -22.2720  -14.5820   20.5160 O   0  0  0  0  0  0  0  0  0  0  0  0
  -22.3330  -12.0680   22.3950 H   0  0  0  0  0  0  0  0  0  0  0  0
  -21.0190  -13.1750   22.1200 H   0  0  0  0  0  0  0  0  0  0  0  0
  -25.3150  -15.2770   20.3150 N   0  0  0  0  0  0  0  0  0  0  0  0
  -24.5350  -15.9190   20.4060 H   0  0  0  0  0  0  0  0  0  0  0  0
  -26.1690  -15.7290   20.0140 H   0  0  0  0  0  0  0  0  0  0  0  0
  -29.3320  -21.3370   21.8950 N   0  0  0  0  0  4  0  0  0  0  0  0
  -29.8130  -20.5250   22.2370 H   0  0  0  0  0  0  0  0  0  0  0  0
  -28.5230  -21.4870   22.4750 H   0  0  0  0  0  0  0  0  0  0  0  0
  -29.9370  -22.1330   22.0100 H   0  0  0  0  0  0  0  0  0  0  0  0
  -28.1020  -23.1430   20.1390 C   0  0  0  0  0 15  0  0  0  0  0  0
  -28.1400  -25.0700   20.3460 O   0  0  0  0  0  1  0  0  0  0  0  0
  -24.6870  -31.8160   23.1710 C   0  0  0  0  0  0  0  0  0  0  0  0
  -27.2070  -26.4320   20.2700 C   0  0  0  0  0  0  0  0  0  0  0  0
  -23.5170  -30.3990   21.5420 C   0  0  0  0  0  3  0  0  0  0  0  0
  -24.9730  -28.6730   20.1720 C   0  0  0  0  0  0  0  0  0  0  0  0
  -26.1100  -30.4430   21.4740 C   0  0  0  0  0  2  0  0  0  0  0  0
  -26.1710  -28.9700   20.8300 C   0  0  0  0  0  0  0  0  0  0  0  0
  -27.2530  -27.8880   20.8380 C   0  0  0  0  0  3  0  0  0  0  0  0
  -25.9710  -26.4310   19.5450 C   0  0  0  0  0  3  0  0  0  0  0  0
  -24.9310  -27.4330   19.5030 C   0  0  0  0  0  3  0  0  0  0  0  0
  -23.7810  -29.6640   20.1900 C   0  0  0  0  0  2  0  0  0  0  0  0
  -24.7990  -30.9280   22.1140 N   0  0  0  0  0  0  0  0  0  0  0  0
  -23.5860  -32.1360   23.6540 O   0  0  0  0  0  0  0  0  0  0  0  0
  -22.7640  -29.4610   22.5270 C   0  0  0  0  0  0  0  0  0  0  0  0
  -21.4270  -29.3340   22.4020 N   0  0  0  0  0  0  0  0  0  0  0  0
  -23.4000  -28.8390   23.3800 O   0  0  0  0  0  0  0  0  0  0  0  0
  -20.9580  -29.8830   21.6950 H   0  0  0  0  0  0  0  0  0  0  0  0
  -18.0210  -28.1580   22.9360 C   0  0  0  0  0  0  0  0  0  0  0  0
  -20.5870  -28.4110   23.1810 C   0  0  0  0  0  3  0  0  0  0  0  0
  -20.6700  -26.9730   22.6130 C   0  0  0  0  0  2  0  0  0  0  0  0
  -19.5620  -26.6590   21.6030 C   0  0  0  0  0  2  0  0  0  0  0  0
  -18.1850  -26.8110   22.2530 C   0  0  0  0  0  2  0  0  0  0  0  0
  -19.1480  -28.9170   23.3570 C   0  0  0  0  0  0  0  0  0  0  0  0
  -18.9350  -30.1740   23.9640 C   0  0  0  0  0  3  0  0  0  0  0  0
  -17.6320  -30.6730   24.1490 C   0  0  0  0  0  3  0  0  0  0  0  0
  -16.5220  -29.9150   23.7390 C   0  0  0  0  0  3  0  0  0  0  0  0
  -16.7170  -28.6580   23.1390 C   0  0  0  0  0  3  0  0  0  0  0  0
  -25.9320  -32.4870   23.8270 C   0  0  0  0  0  3  0  0  0  0  0  0
  -26.4090  -31.7470   25.1400 C   0  0  1  0  0  0  0  0  0  0  0  0
  -25.2870  -31.5450   26.1860 C   0  0  0  0  0  1  0  0  0  0  0  0
  -26.9940  -30.3550   24.8160 C   0  0  0  0  0  1  0  0  0  0  0  0
  -27.5480  -32.5510   25.8110 C   0  0  0  0  0  1  0  0  0  0  0  0
  -25.5980  -33.8920   24.1510 N   0  0  0  0  0  0  0  0  0  0  0  0
  -25.9370  -34.9620   23.4180 C   0  0  0  0  0  0  0  0  0  0  0  0
  -26.6120  -34.8710   22.3920 O   0  0  0  0  0  0  0  0  0  0  0  0
  -24.9930  -34.0340   24.9460 H   0  0  0  0  0  0  0  0  0  0  0  0
  -24.2080  -36.7740   23.1070 C   0  0  0  0  0  1  0  0  0  0  0  0
  -25.4570  -36.3530   23.8960 C   0  0  0  0  0  3  0  0  0  0  0  0
  -27.5990  -37.2440   24.7130 C   0  0  0  0  0  1  0  0  0  0  0  0
  -26.4900  -37.4080   23.7780 N   0  0  0  0  0  0  0  0  0  0  0  0
  -26.0830  -38.3280   23.9270 H   0  0  0  0  0  0  0  0  0  0  0  0
  2  7  1  0
  3  4  1  0
  3  2  1  0
  5  4  1  0
  5 17  1  0
  5  6  1  0
  7  1  1  0
  7  6  1  0
  8  1  2  0
  9 10  1  0
  9 12  1  0
 10 13  1  0
 12 42  1  0
 13  1  1  0
 13 11  1  0
 14 15  2  0
 15 34  1  0
 16 15  1  0
 16 19  1  0
 17 14  1  0
 17 18  1  0
 18 16  2  0
 19 20  1  0
 20 21  2  0
 22 25  1  0
 22 21  1  0
 23 22  2  0
 24 23  1  0
 24 19  2  0
 25 26  1  0
 26 27  1  0
 27 28  2  0
 29 28  1  0
 29 33  1  0
 30 29  2  0
 31 26  2  0
 31 30  1  0
 32 31  1  0
 34 35  1  0
 35 38  1  0
 35 37  1  0
 36 34  2  0
 39 40  1  0
 39 14  1  0
 41 39  1  0
 42 45  1  0
 42 43  1  0
 42 44  1  0
 48 59  2  0
 49 47  1  0
 49 54  1  0
 50 58  1  0
 50 60  1  0
 51 57  1  0
 51 53  1  0
 52 58  1  0
 53 54  2  0
 53 52  1  0
 55 49  2  0
 56 55  1  0
 56 51  2  0
 57 50  1  0
 58 48  1  0
 60 62  2  0
 61 60  1  0
 63 61  1  0
 64 73  2  0
 64 69  1  0
 65 61  1  0
 65 69  1  0
 66 65  1  0
 67 68  1  0
 67 66  1  0
 68 64  1  0
 69 70  2  0
 70 71  1  0
 72 71  2  0
 73 72  1  0
 74 48  1  0
 74 79  1  0
 74 75  1  0
 75 78  1  1
 75 76  1  0
 77 75  1  0
 79 82  1  0
 80 84  1  0
 80 79  1  0
 81 80  2  0
 84 83  1  0
 86 84  1  0
 86 87  1  0
 86 85  1  0
M  ISO  4   1 100  13 100  46 101  47 101
M  END
>  <TORSDO>  (65) 
F 17

>  <SCORE>  (65) 
-16.453

>  <name>  (65) 
64

>  <ligand_id>  (65) 
64

>  <original_smiles>  (65) 
[H]c1c([H])c([H])c2c(c1[H])C([H])([H])C([H])([H])C([H])([H])C2([H])N([H])C(=O)C1([H])N(C(=O)C([H])(N([H])C(=O)C([H])(N([H])C([H])([H])[H])C([H])([H])[H])C(C([H])([H])[H])(C([H])([H])[H])C([H])([H])[H])C([H])([H])c2c([H])c(OC([H])([H])C3([N+]([H])([H])[H])C([H])([H])N(C(=O)N4C([H])([H])C([H])([H])C([H])([H])C([H])(n5nc(-c6c([H])c([H])c(Oc7c([H])c([H])c(F)c([H])c7F)c([H])c6[H])c(C(=O)N([H])[H])c5N([H])[H])C4([H])[H])C([H])([H])C3([H])[H])c([H])c([H])c2C1([H])[H]

>  <smiles>  (65) 
[H]c1c([H])c([H])c2c(c1[H])C([H])([H])C([H])([H])C([H])([H])C2([H])N([H])C(=O)C1([H])N(C(=O)C([H])(N([H])C(=O)C([H])(N([H])C([H])([H])[H])C([H])([H])[H])C(C([H])([H])[H])(C([H])([H])[H])C([H])([H])[H])C([H])([H])c2c([H])c(OC([H])([H])C3([N+]([H])([H])[H])C([H])([H])N(C(=O)N4C([H])([H])C([H])([H])C([H])([H])C([H])(n5nc(-c6c([H])c([H])c(Oc7c([H])c([H])c(F)c([H])c7F)c([H])c6[H])c(C(=O)N([H])[H])c5N([H])[H])C4([H])[H])C([H])([H])C3([H])[H])c([H])c([H])c2C1([H])[H]

$$$$
65:0:0
     RDKit          3D

 88 97  0  0  1  0  0  0  0  0999 V2000
  -30.1300  -22.9090   20.3500 C   0  0  0  0  0  3  0  0  0  0  0  0
  -30.3750  -21.5340   20.3470 C   0  0  0  0  0  3  0  0  0  0  0  0
  -28.7260  -23.1370   20.1710 C   0  0  0  0  0  0  0  0  0  0  0  0
  -28.2160  -21.8240   20.0980 N   0  0  0  0  0  0  0  0  0  0  0  0
  -29.2050  -20.7890   20.2160 N   0  0  0  0  0  0  0  0  0  0  0  0
  -29.5840  -18.6000   21.4420 C   0  0  0  0  0  2  0  0  0  0  0  0
  -28.9510  -19.1940   20.2110 C   0  0  0  0  0  3  0  0  0  0  0  0
  -29.9880  -17.8320   20.1980 C   0  0  0  0  0  3  0  0  0  0  0  0
  -30.4980  -15.0890   20.0250 C   0  0  0  0  0  0  0  0  0  0  0  0
  -30.3810  -12.7300   19.0540 C   0  0  0  0  0  2  0  0  0  0  0  0
  -29.3840  -12.6720   17.8720 C   0  0  0  0  0  2  0  0  0  0  0  0
  -27.9530  -12.4170   18.3780 C   0  0  0  0  0  2  0  0  0  0  0  0
  -27.5920  -13.3220   19.5830 C   0  0  0  0  0  3  0  0  0  0  0  0
  -28.7040  -13.3470   20.6530 C   0  0  0  0  0  2  0  0  0  0  0  0
  -29.9280  -13.8090   19.9850 N   0  0  0  0  0  0  0  0  0  0  0  0
  -31.6840  -15.1650   19.6810 O   0  0  0  0  0  0  0  0  0  0  0  0
  -29.7120  -16.2700   20.2630 N   0  0  0  0  0  0  0  0  0  0  0  0
  -28.7600  -16.0470   20.5170 H   0  0  0  0  0  0  0  0  0  0  0  0
  -25.2550  -13.8690   20.4700 C   0  0  0  0  0  0  0  0  0  0  0  0
  -24.2160  -13.0780   20.8760 C   0  0  0  0  0  0  0  0  0  0  0  0
  -24.6820  -11.7300   20.7780 C   0  0  0  0  0  0  0  0  0  0  0  0
  -26.2860  -13.0020   20.1470 N   0  0  0  0  0  0  0  0  0  0  0  0
  -25.9550  -11.7090   20.3990 N   0  0  0  0  0  0  0  0  0  0  0  0
  -23.9690  -10.4600   20.9660 C   0  0  0  0  0  0  0  0  0  0  0  0
  -24.4080   -9.4980   21.9020 C   0  0  0  0  0  3  0  0  0  0  0  0
  -23.6920   -8.2950   22.0810 C   0  0  0  0  0  3  0  0  0  0  0  0
  -22.5250   -8.0430   21.3220 C   0  0  0  0  0  0  0  0  0  0  0  0
  -22.1050   -8.9940   20.3750 C   0  0  0  0  0  3  0  0  0  0  0  0
  -22.8210  -10.1890   20.1950 C   0  0  0  0  0  3  0  0  0  0  0  0
  -21.7830   -6.8900   21.4080 O   0  0  0  0  0  0  0  0  0  0  0  0
  -21.6810   -6.1840   22.5800 C   0  0  0  0  0  0  0  0  0  0  0  0
  -21.1610   -6.7650   23.7570 C   0  0  0  0  0  3  0  0  0  0  0  0
  -21.0110   -5.9820   24.9190 C   0  0  0  0  0  3  0  0  0  0  0  0
  -21.3720   -4.6220   24.9070 C   0  0  0  0  0  0  0  0  0  0  0  0
  -21.8860   -4.0420   23.7340 C   0  0  0  0  0  3  0  0  0  0  0  0
  -22.0370   -4.8210   22.5720 C   0  0  0  0  0  0  0  0  0  0  0  0
  -22.5120   -4.2500   21.4390 F   0  0  0  0  0  0  0  0  0  0  0  0
  -21.2220   -3.8690   26.0220 F   0  0  0  0  0  0  0  0  0  0  0  0
  -22.8340  -13.5400   21.2310 C   0  0  0  0  0  0  0  0  0  0  0  0
  -22.1560  -12.8220   22.1170 N   0  0  0  0  0  0  0  0  0  0  0  0
  -22.3670  -14.5760   20.7550 O   0  0  0  0  0  0  0  0  0  0  0  0
  -22.5440  -11.9850   22.5240 H   0  0  0  0  0  0  0  0  0  0  0  0
  -21.2310  -13.1180   22.3960 H   0  0  0  0  0  0  0  0  0  0  0  0
  -25.4040  -15.2450   20.3160 N   0  0  0  0  0  0  0  0  0  0  0  0
  -24.6310  -15.8870   20.4590 H   0  0  0  0  0  0  0  0  0  0  0  0
  -26.2070  -15.6880   19.8890 H   0  0  0  0  0  0  0  0  0  0  0  0
  -27.8320  -24.5530   19.9870 C   0  0  0  0  0  2  0  0  0  0  0  0
  -28.2060  -26.0730   20.2460 O   0  0  0  0  0  0  0  0  0  0  0  0
  -24.6420  -31.8620   23.2730 C   0  0  0  0  0  0  0  0  0  0  0  0
  -27.1900  -27.1200   20.1830 C   0  0  0  0  0  0  0  0  0  0  0  0
  -23.4420  -30.4940   21.6140 C   0  0  0  0  0  3  0  0  0  0  0  0
  -24.8870  -28.9310   20.1650 C   0  0  0  0  0  0  0  0  0  0  0  0
  -26.0040  -30.7260   21.4700 C   0  0  0  0  0  2  0  0  0  0  0  0
  -26.0700  -29.3390   20.7950 C   0  0  0  0  0  0  0  0  0  0  0  0
  -27.2190  -28.4520   20.7880 C   0  0  0  0  0  3  0  0  0  0  0  0
  -25.9790  -26.8390   19.5080 C   0  0  0  0  0  3  0  0  0  0  0  0
  -24.8580  -27.6960   19.5050 C   0  0  0  0  0  3  0  0  0  0  0  0
  -23.6670  -29.8420   20.2250 C   0  0  0  0  0  2  0  0  0  0  0  0
  -24.7170  -31.0510   22.1740 N   0  0  0  0  0  0  0  0  0  0  0  0
  -23.5540  -32.1480   23.7970 O   0  0  0  0  0  0  0  0  0  0  0  0
  -22.7530  -29.4780   22.5600 C   0  0  0  0  0  0  0  0  0  0  0  0
  -21.4230  -29.3160   22.4250 N   0  0  0  0  0  0  0  0  0  0  0  0
  -23.4170  -28.8380   23.3780 O   0  0  0  0  0  0  0  0  0  0  0  0
  -20.9430  -29.8840   21.7410 H   0  0  0  0  0  0  0  0  0  0  0  0
  -18.0330  -28.1260   22.9100 C   0  0  0  0  0  0  0  0  0  0  0  0
  -20.5940  -28.3730   23.1810 C   0  0  0  0  0  3  0  0  0  0  0  0
  -20.6890  -26.9470   22.5870 C   0  0  0  0  0  2  0  0  0  0  0  0
  -19.5860  -26.6450   21.5680 C   0  0  0  0  0  2  0  0  0  0  0  0
  -18.2040  -26.7870   22.2130 C   0  0  0  0  0  2  0  0  0  0  0  0
  -19.1550  -28.8780   23.3510 C   0  0  0  0  0  0  0  0  0  0  0  0
  -18.9410  -30.1300   23.9650 C   0  0  0  0  0  3  0  0  0  0  0  0
  -17.6370  -30.6320   24.1430 C   0  0  0  0  0  3  0  0  0  0  0  0
  -16.5300  -29.8780   23.7170 C   0  0  0  0  0  3  0  0  0  0  0  0
  -16.7290  -28.6260   23.1060 C   0  0  0  0  0  3  0  0  0  0  0  0
  -25.9170  -32.4870   23.9150 C   0  0  0  0  0  3  0  0  0  0  0  0
  -25.6160  -33.8890   24.2480 N   0  0  0  0  0  0  0  0  0  0  0  0
  -25.9260  -34.9420   23.4790 C   0  0  0  0  0  0  0  0  0  0  0  0
  -26.5620  -34.8360   22.4270 O   0  0  0  0  0  0  0  0  0  0  0  0
  -25.0480  -34.0470   25.0670 H   0  0  0  0  0  0  0  0  0  0  0  0
  -24.1730  -36.7280   23.1960 C   0  0  0  0  0  1  0  0  0  0  0  0
  -25.4550  -36.3330   23.9490 C   0  0  0  0  0  3  0  0  0  0  0  0
  -27.6210  -37.2380   24.6690 C   0  0  0  0  0  1  0  0  0  0  0  0
  -26.4750  -37.3900   23.7760 N   0  0  0  0  0  0  0  0  0  0  0  0
  -26.0720  -38.3100   23.9320 H   0  0  0  0  0  0  0  0  0  0  0  0
  -26.4070  -31.7120   25.2010 C   0  0  1  0  0  0  0  0  0  0  0  0
  -25.2990  -31.4820   26.2550 C   0  0  0  0  0  1  0  0  0  0  0  0
  -26.9830  -30.3280   24.8250 C   0  0  0  0  0  1  0  0  0  0  0  0
  -27.5590  -32.4970   25.8760 C   0  0  0  0  0  1  0  0  0  0  0  0
  2  1  2  0
  3  1  1  0
  4  3  2  0
  4  5  1  0
  5  2  1  0
  7  5  1  0
  7  6  1  0
  8  7  1  0
  8 17  1  0
  8  6  1  0
  9 17  1  0
 10 15  1  0
 11 12  1  0
 11 10  1  0
 13 12  1  0
 13 22  1  0
 13 14  1  0
 15  9  1  0
 15 14  1  0
 16  9  2  0
 17 18  1  0
 19 20  2  0
 20 39  1  0
 21 20  1  0
 21 24  1  0
 22 23  1  0
 22 19  1  0
 23 21  2  0
 24 25  1  0
 25 26  2  0
 27 30  1  0
 27 26  1  0
 28 27  2  0
 29 28  1  0
 29 24  2  0
 30 31  1  0
 31 32  1  0
 32 33  2  0
 34 33  1  0
 34 38  1  0
 35 34  2  0
 36 31  2  0
 36 35  1  0
 37 36  1  0
 39 40  1  0
 40 43  1  0
 40 42  1  0
 41 39  2  0
 44 45  1  0
 44 19  1  0
 46 44  1  0
 47  3  1  0
 47 48  1  0
 49 60  2  0
 50 48  1  0
 50 55  1  0
 51 59  1  0
 51 61  1  0
 52 58  1  0
 52 54  1  0
 53 59  1  0
 54 53  1  0
 55 54  2  0
 56 50  2  0
 57 56  1  0
 57 52  2  0
 58 51  1  0
 59 49  1  0
 61 63  2  0
 62 61  1  0
 64 62  1  0
 65 74  2  0
 65 70  1  0
 66 62  1  0
 66 70  1  0
 67 66  1  0
 68 69  1  0
 68 67  1  0
 69 65  1  0
 70 71  2  0
 71 72  1  0
 73 72  2  0
 74 73  1  0
 75 49  1  0
 75 76  1  0
 75 85  1  0
 76 79  1  0
 77 81  1  0
 77 76  1  0
 78 77  2  0
 81 80  1  0
 83 84  1  0
 83 81  1  0
 83 82  1  0
 85 88  1  1
 85 86  1  0
 87 85  1  0
M  ISO  4   9 100  17 100  47 101  48 101
M  END
>  <TORSDO>  (66) 
F 18

>  <SCORE>  (66) 
-14.109

>  <name>  (66) 
65

>  <ligand_id>  (66) 
65

>  <original_smiles>  (66) 
[H]c1c([H])c([H])c2c(c1[H])C([H])([H])C([H])([H])C([H])([H])C2([H])N([H])C(=O)C1([H])N(C(=O)C([H])(N([H])C(=O)C([H])(N([H])C([H])([H])[H])C([H])([H])[H])C(C([H])([H])[H])(C([H])([H])[H])C([H])([H])[H])C([H])([H])c2c([H])c(OC([H])([H])c3nn(C4([H])C([H])([H])C4([H])N([H])C(=O)N4C([H])([H])C([H])([H])C([H])([H])C([H])(n5nc(-c6c([H])c([H])c(Oc7c([H])c([H])c(F)c([H])c7F)c([H])c6[H])c(C(=O)N([H])[H])c5N([H])[H])C4([H])[H])c([H])c3[H])c([H])c([H])c2C1([H])[H]

>  <smiles>  (66) 
[H]c1c([H])c([H])c2c(c1[H])C([H])([H])C([H])([H])C([H])([H])C2([H])N([H])C(=O)C1([H])N(C(=O)C([H])(N([H])C(=O)C([H])(N([H])C([H])([H])[H])C([H])([H])[H])C(C([H])([H])[H])(C([H])([H])[H])C([H])([H])[H])C([H])([H])c2c([H])c(OC([H])([H])c3nn(C4([H])C([H])([H])C4([H])N([H])C(=O)N4C([H])([H])C([H])([H])C([H])([H])C([H])(n5nc(-c6c([H])c([H])c(Oc7c([H])c([H])c(F)c([H])c7F)c([H])c6[H])c(C(=O)N([H])[H])c5N([H])[H])C4([H])[H])c([H])c3[H])c([H])c([H])c2C1([H])[H]

$$$$
66:0:0
     RDKit          3D

 96108  0  0  1  0  0  0  0  0999 V2000
  -32.9690  -12.9260    9.2600 C   0  0  0  0  0  0  0  0  0  0  0  0
  -33.2030  -11.0870    7.6030 C   0  0  0  0  0  2  0  0  0  0  0  0
  -33.6000  -11.6870    6.2380 C   0  0  0  0  0  2  0  0  0  0  0  0
  -32.3490  -12.0950    5.4380 C   0  0  0  0  0  2  0  0  0  0  0  0
  -31.3380  -12.9120    6.2850 C   0  0  0  0  0  3  0  0  0  0  0  0
  -31.0940  -12.2700    7.6680 C   0  0  0  0  0  2  0  0  0  0  0  0
  -32.4040  -12.1110    8.3100 N   0  0  0  0  0  0  0  0  0  0  0  0
  -33.9550  -12.5330    9.8930 O   0  0  0  0  0  0  0  0  0  0  0  0
  -31.6390  -19.2280    8.7530 C   0  0  0  0  0  3  0  0  0  0  0  0
  -31.5280  -20.6160    8.6150 C   0  0  0  0  0  0  0  0  0  0  0  0
  -32.4880  -18.7240    9.7460 C   0  0  0  0  0  0  0  0  0  0  0  0
  -32.9730  -20.9570   10.3670 C   0  0  0  0  0  0  0  0  0  0  0  0
  -33.8920  -16.6430    9.7000 C   0  0  0  0  0  2  0  0  0  0  0  0
  -31.4500  -16.4410    9.5580 C   0  0  0  0  0  2  0  0  0  0  0  0
  -33.8630  -15.2430    8.9490 C   0  0  0  0  0  2  0  0  0  0  0  0
  -31.6540  -14.9450    9.9600 C   0  0  0  0  0  2  0  0  0  0  0  0
  -32.2020  -21.4600    9.4120 N   0  0  0  0  0  0  0  0  0  0  0  0
  -33.1520  -19.6150   10.5590 N   0  0  0  0  0  0  0  0  0  0  0  0
  -32.5950  -17.2970    9.9250 N   0  0  0  0  0  0  0  0  0  0  0  0
  -32.7280  -14.2880    9.1850 N   0  0  0  0  0  0  0  0  0  0  0  0
  -29.5430  -12.4210    4.5200 C   0  0  0  0  0  0  0  0  0  0  0  0
  -28.3300  -12.9950    4.2570 C   0  0  0  0  0  0  0  0  0  0  0  0
  -28.1960  -14.0730    5.1850 C   0  0  0  0  0  0  0  0  0  0  0  0
  -30.0890  -13.1450    5.5660 N   0  0  0  0  0  0  0  0  0  0  0  0
  -29.2920  -14.1850    5.9240 N   0  0  0  0  0  0  0  0  0  0  0  0
  -27.0630  -14.9710    5.4490 C   0  0  0  0  0  0  0  0  0  0  0  0
  -26.2150  -14.7880    6.5650 C   0  0  0  0  0  3  0  0  0  0  0  0
  -25.1450  -15.6760    6.8040 C   0  0  0  0  0  3  0  0  0  0  0  0
  -24.9120  -16.7610    5.9260 C   0  0  0  0  0  0  0  0  0  0  0  0
  -25.7430  -16.9260    4.8040 C   0  0  0  0  0  3  0  0  0  0  0  0
  -26.8060  -16.0380    4.5630 C   0  0  0  0  0  3  0  0  0  0  0  0
  -23.8800  -17.6580    6.0640 O   0  0  0  0  0  0  0  0  0  0  0  0
  -22.5840  -17.3120    5.7770 C   0  0  0  0  0  0  0  0  0  0  0  0
  -21.9550  -16.2090    6.3940 C   0  0  0  0  0  3  0  0  0  0  0  0
  -20.6000  -15.9310    6.1230 C   0  0  0  0  0  3  0  0  0  0  0  0
  -19.8730  -16.7560    5.2450 C   0  0  0  0  0  0  0  0  0  0  0  0
  -20.4960  -17.8590    4.6350 C   0  0  0  0  0  3  0  0  0  0  0  0
  -21.8470  -18.1370    4.9030 C   0  0  0  0  0  0  0  0  0  0  0  0
  -22.4390  -19.2120    4.3280 F   0  0  0  0  0  0  0  0  0  0  0  0
  -18.5690  -16.4920    4.9920 F   0  0  0  0  0  0  0  0  0  0  0  0
  -27.3080  -12.5080    3.2730 C   0  0  0  0  0  0  0  0  0  0  0  0
  -26.6390  -13.4230    2.5820 N   0  0  0  0  0  0  0  0  0  0  0  0
  -27.1340  -11.3060    3.0750 O   0  0  0  0  0  0  0  0  0  0  0  0
  -26.7990  -14.4080    2.7260 H   0  0  0  0  0  0  0  0  0  0  0  0
  -25.9620  -13.1320    1.8900 H   0  0  0  0  0  0  0  0  0  0  0  0
  -30.2180  -11.3310    3.9780 N   0  0  0  0  0  0  0  0  0  0  0  0
  -29.7970  -10.7380    3.2730 H   0  0  0  0  0  0  0  0  0  0  0  0
  -31.0900  -10.9680    4.3400 H   0  0  0  0  0  0  0  0  0  0  0  0
  -34.7450  -22.7710   11.2860 C   0  0  0  0  0  2  0  0  0  0  0  0
  -33.4300  -22.0350   11.4010 C   0  0  0  0  0  3  0  0  0  0  0  0
  -33.4850  -23.5900   11.1330 C   0  0  0  0  0  3  0  0  0  0  0  0
  -33.3970  -24.6190   12.2050 O   0  0  0  0  0  0  0  0  0  0  0  0
  -37.1960  -30.4530   14.1580 C   0  0  0  0  0  0  0  0  0  0  0  0
  -33.7480  -25.9560   11.9460 C   0  0  0  0  0  0  0  0  0  0  0  0
  -35.3790  -30.8120   12.5290 C   0  0  0  0  0  3  0  0  0  0  0  0
  -34.3910  -28.7060   11.4750 C   0  0  0  0  0  0  0  0  0  0  0  0
  -36.5860  -28.5490   12.6510 C   0  0  0  0  0  2  0  0  0  0  0  0
  -35.2990  -27.8910   12.1620 C   0  0  0  0  0  0  0  0  0  0  0  0
  -34.9890  -26.5160   12.3850 C   0  0  0  0  0  3  0  0  0  0  0  0
  -32.8690  -26.8190   11.2540 C   0  0  0  0  0  3  0  0  0  0  0  0
  -33.1800  -28.1700   11.0170 C   0  0  0  0  0  3  0  0  0  0  0  0
  -34.7630  -30.1590   11.2660 C   0  0  0  0  0  2  0  0  0  0  0  0
  -36.4130  -29.9350   13.1690 N   0  0  0  0  0  0  0  0  0  0  0  0
  -37.0880  -31.6370   14.5120 O   0  0  0  0  0  0  0  0  0  0  0  0
  -34.2370  -31.2190   13.4930 C   0  0  0  0  0  0  0  0  0  0  0  0
  -34.4990  -31.1380   14.8080 N   0  0  0  0  0  0  0  0  0  0  0  0
  -33.1560  -31.6200   13.0530 O   0  0  0  0  0  0  0  0  0  0  0  0
  -35.4070  -30.7980   15.0890 H   0  0  0  0  0  0  0  0  0  0  0  0
  -31.1860  -32.4000   15.5270 C   0  0  0  0  0  0  0  0  0  0  0  0
  -33.5840  -31.5040   15.8900 C   0  0  0  0  0  3  0  0  0  0  0  0
  -32.9120  -30.2530   16.5000 C   0  0  0  0  0  2  0  0  0  0  0  0
  -31.5610  -29.9190   15.8600 C   0  0  0  0  0  2  0  0  0  0  0  0
  -30.5890  -31.0920   16.0190 C   0  0  0  0  0  2  0  0  0  0  0  0
  -32.5910  -32.5880   15.4520 C   0  0  0  0  0  0  0  0  0  0  0  0
  -33.0930  -33.8120   14.9570 C   0  0  0  0  0  3  0  0  0  0  0  0
  -32.2200  -34.8340   14.5430 C   0  0  0  0  0  3  0  0  0  0  0  0
  -30.8290  -34.6480   14.6320 C   0  0  0  0  0  3  0  0  0  0  0  0
  -30.3150  -33.4360   15.1270 C   0  0  0  0  0  3  0  0  0  0  0  0
  -38.2800  -29.5900   14.8760 C   0  0  0  0  0  3  0  0  0  0  0  0
  -38.1480  -29.8260   16.3200 N   0  0  0  0  0  0  0  0  0  0  0  0
  -38.1250  -28.8630   17.2510 C   0  0  0  0  0  3  0  0  0  0  0  0
  -38.1450  -27.6620   16.9700 O   0  0  0  0  0  0  0  0  0  0  0  0
  -38.1840  -30.7880   16.6230 H   0  0  0  0  0  0  0  0  0  0  0  0
  -38.5130  -28.1360   19.6270 C   0  0  0  0  0  1  0  0  0  0  0  0
  -38.0710  -29.3010   18.7270 C   0  0  0  0  0  3  0  0  0  0  0  0
  -36.2120  -30.8510   18.3120 C   0  0  0  0  0  1  0  0  0  0  0  0
  -36.7350  -29.7760   19.1500 N   0  0  0  0  0  0  0  0  0  0  0  0
  -36.7560  -30.1040   20.1120 H   0  0  0  0  0  0  0  0  0  0  0  0
  -38.1600  -28.0500   14.5500 C   0  0  1  0  0  0  0  0  0  0  0  0
  -36.7190  -27.5010   14.6710 C   0  0  0  0  0  1  0  0  0  0  0  0
  -38.6590  -27.7500   13.1180 C   0  0  0  0  0  1  0  0  0  0  0  0
  -39.0670  -27.2420   15.5050 C   0  0  0  0  0  2  0  0  0  0  0  0
  -30.5920  -21.2430    7.5960 C   0  0  0  0  0  2  0  0  0  0  0  0
  -28.5180  -22.8590    7.4620 C   0  0  0  0  0  2  0  0  0  0  0  0
  -27.9770  -21.5400    7.9510 C   0  0  0  0  0  2  0  0  0  0  0  0
  -29.4070  -21.9300    8.2630 C   0  0  0  0  0  3  0  0  0  0  0  0
  1  8  2  0
  2  7  1  0
  3  2  1  0
  4  3  1  0
  5  4  1  0
  5  6  1  0
  6  7  1  0
  7  1  1  0
  9 11  1  0
 10  9  2  0
 10 17  1  0
 11 19  1  0
 11 18  2  0
 12 18  1  0
 13 19  1  0
 14 19  1  0
 14 16  1  0
 15 20  1  0
 15 13  1  0
 17 12  2  0
 20  1  1  0
 20 16  1  0
 21 24  1  0
 22 21  2  0
 22 23  1  0
 23 26  1  0
 23 25  2  0
 24 25  1  0
 24  5  1  0
 26 27  1  0
 27 28  2  0
 29 32  1  0
 29 28  1  0
 30 29  2  0
 31 30  1  0
 31 26  2  0
 33 32  1  0
 33 34  1  0
 35 34  2  0
 36 35  1  0
 37 38  1  0
 37 36  2  0
 38 33  2  0
 39 38  1  0
 40 36  1  0
 41 22  1  0
 42 44  1  0
 42 41  1  0
 43 41  2  0
 45 42  1  0
 46 48  1  0
 46 21  1  0
 47 46  1  0
 49 50  1  0
 50 12  1  0
 51 49  1  0
 51 50  1  0
 51 52  1  0
 53 64  2  0
 54 52  1  0
 54 59  1  0
 55 63  1  0
 55 65  1  0
 56 58  1  0
 57 63  1  0
 58 59  2  0
 58 57  1  0
 60 54  2  0
 61 60  1  0
 61 56  2  0
 62 56  1  0
 62 55  1  0
 63 53  1  0
 65 66  1  0
 66 68  1  0
 67 65  2  0
 69 73  1  0
 70 66  1  0
 70 71  1  0
 72 73  1  0
 72 71  1  0
 74 69  1  0
 74 70  1  0
 75 74  2  0
 76 77  2  0
 76 75  1  0
 77 78  1  0
 78 69  2  0
 79 53  1  0
 79 80  1  0
 80 83  1  0
 80 81  1  0
 81 85  1  0
 82 81  1  0
 85 87  1  0
 85 84  1  0
 86 87  1  0
 87 88  1  0
 89 90  1  6
 89 79  1  0
 89 92  1  0
 91 89  1  0
 92 82  1  0
 93 96  1  0
 93 10  1  0
 94 95  1  0
 94 96  1  0
 95 96  1  0
M  ISO  4   1 100  20 100  51 101  52 101
M  END
>  <TORSDO>  (67) 
F 18

>  <SCORE>  (67) 
-1.042

>  <name>  (67) 
66

>  <ligand_id>  (67) 
66

>  <original_smiles>  (67) 
[H]c1c(N2C([H])([H])C([H])([H])N(C(=O)N3C([H])([H])C([H])([H])C([H])([H])C([H])(n4nc(-c5c([H])c([H])c(Oc6c([H])c([H])c(F)c([H])c6F)c([H])c5[H])c(C(=O)N([H])[H])c4N([H])[H])C3([H])[H])C([H])([H])C2([H])[H])nc(C2([H])C([H])([H])C2([H])Oc2c([H])c([H])c3c(c2[H])C([H])([H])N(C(=O)C([H])(N([H])C(=O)C([H])(N([H])C([H])([H])[H])C([H])([H])[H])C(C([H])([H])[H])(C([H])([H])[H])C([H])([H])[H])C([H])(C(=O)N([H])C2([H])c4c([H])c([H])c([H])c([H])c4C([H])([H])C([H])([H])C2([H])[H])C3([H])[H])nc1C([H])([H])C1([H])C([H])([H])C1([H])[H]

>  <smiles>  (67) 
[H]c1c(N2C([H])([H])C([H])([H])N(C(=O)N3C([H])([H])C([H])([H])C([H])([H])C([H])(n4nc(-c5c([H])c([H])c(Oc6c([H])c([H])c(F)c([H])c6F)c([H])c5[H])c(C(=O)N([H])[H])c4N([H])[H])C3([H])[H])C([H])([H])C2([H])[H])nc(C2([H])C([H])([H])C2([H])Oc2c([H])c([H])c3c(c2[H])C([H])([H])N(C(=O)C([H])(N([H])C(=O)C([H])(N([H])C([H])([H])[H])C([H])([H])[H])C(C([H])([H])[H])(C([H])([H])[H])C([H])([H])[H])C([H])(C(=O)N([H])C2([H])c4c([H])c([H])c([H])c([H])c4C([H])([H])C([H])([H])C2([H])[H])C3([H])[H])nc1C([H])([H])C1([H])C([H])([H])C1([H])[H]

$$$$
67:0:0
     RDKit          3D

 94103  0  0  1  0  0  0  0  0999 V2000
  -28.8050  -24.5290   19.0270 C   0  0  0  0  0  3  0  0  0  0  0  0
  -28.3360  -25.3100   20.1120 C   0  0  0  0  0  0  0  0  0  0  0  0
  -28.4310  -22.6320   20.2530 C   0  0  0  0  0  0  0  0  0  0  0  0
  -29.2540  -25.1400   17.7180 C   0  0  0  0  0  1  0  0  0  0  0  0
  -28.8610  -23.1770   19.1070 N   0  0  0  0  0  0  0  0  0  0  0  0
  -27.9280  -24.6790   21.2470 N   0  0  0  0  0  0  0  0  0  0  0  0
  -27.9770  -23.3310   21.3160 N   0  0  0  0  0  2  0  0  0  0  0  0
  -28.9190  -20.2010   19.1920 C   0  0  0  0  0  2  0  0  0  0  0  0
  -29.6120  -20.3690   21.1580 C   0  0  0  0  0  2  0  0  0  0  0  0
  -28.5210  -21.1010   20.3700 C   0  0  0  0  0  3  0  0  0  0  0  0
  -29.7210  -19.3600   20.0920 N   0  0  1  0  0  4  0  0  0  0  0  0
  -30.6680  -19.3270   19.7430 H   0  0  0  0  0  0  0  0  0  0  0  0
  -29.2470  -17.9640   20.3680 C   0  0  0  0  0  2  0  0  0  0  0  0
  -31.0840  -17.4320   22.1150 C   0  0  0  0  0  1  0  0  0  0  0  0
  -30.3980  -16.9950   20.8050 C   0  0  0  0  0  3  0  0  0  0  0  0
  -30.6490  -14.5070   20.4800 C   0  0  0  0  0  0  0  0  0  0  0  0
  -30.3230  -12.3440   19.3510 C   0  0  0  0  0  2  0  0  0  0  0  0
  -29.4000  -12.5680   18.1390 C   0  0  0  0  0  2  0  0  0  0  0  0
  -27.9240  -12.4330   18.5610 C   0  0  0  0  0  2  0  0  0  0  0  0
  -27.5770  -13.2570   19.8350 C   0  0  0  0  0  3  0  0  0  0  0  0
  -28.6330  -13.0600   20.9460 C   0  0  0  0  0  2  0  0  0  0  0  0
  -29.9550  -13.3420   20.3690 N   0  0  0  0  0  0  0  0  0  0  0  0
  -31.7910  -14.6440   20.0380 O   0  0  0  0  0  0  0  0  0  0  0  0
  -29.9540  -15.5820   20.9170 N   0  0  0  0  0  0  0  0  0  0  0  0
  -29.0210  -15.4010   21.2580 H   0  0  0  0  0  0  0  0  0  0  0  0
  -25.1760  -13.8510   20.5400 C   0  0  0  0  0  0  0  0  0  0  0  0
  -24.1090  -13.0750   20.9000 C   0  0  0  0  0  0  0  0  0  0  0  0
  -24.5700  -11.7240   20.8680 C   0  0  0  0  0  0  0  0  0  0  0  0
  -26.2240  -12.9720   20.3080 N   0  0  0  0  0  0  0  0  0  0  0  0
  -25.8640  -11.6880   20.5650 N   0  0  0  0  0  0  0  0  0  0  0  0
  -23.8440  -10.4620   21.0540 C   0  0  0  0  0  0  0  0  0  0  0  0
  -24.2670   -9.4930   21.9910 C   0  0  0  0  0  3  0  0  0  0  0  0
  -23.5370   -8.2970   22.1650 C   0  0  0  0  0  3  0  0  0  0  0  0
  -22.3710   -8.0590   21.3990 C   0  0  0  0  0  0  0  0  0  0  0  0
  -21.9660   -9.0160   20.4520 C   0  0  0  0  0  3  0  0  0  0  0  0
  -22.6960  -10.2030   20.2770 C   0  0  0  0  0  3  0  0  0  0  0  0
  -21.6150   -6.9150   21.4800 O   0  0  0  0  0  0  0  0  0  0  0  0
  -21.5590   -6.1690   22.6310 C   0  0  0  0  0  0  0  0  0  0  0  0
  -21.1110   -6.7200   23.8510 C   0  0  0  0  0  3  0  0  0  0  0  0
  -20.9990   -5.9010   24.9940 C   0  0  0  0  0  3  0  0  0  0  0  0
  -21.3260   -4.5340   24.9160 C   0  0  0  0  0  0  0  0  0  0  0  0
  -21.7680   -3.9840   23.7010 C   0  0  0  0  0  3  0  0  0  0  0  0
  -21.8790   -4.7990   22.5610 C   0  0  0  0  0  0  0  0  0  0  0  0
  -22.2830   -4.2600   21.3840 F   0  0  0  0  0  0  0  0  0  0  0  0
  -21.2140   -3.7450   26.0100 F   0  0  0  0  0  0  0  0  0  0  0  0
  -22.7080  -13.5530   21.1600 C   0  0  0  0  0  0  0  0  0  0  0  0
  -21.9670  -12.8600   22.0180 N   0  0  0  0  0  0  0  0  0  0  0  0
  -22.2760  -14.5770   20.6350 O   0  0  0  0  0  0  0  0  0  0  0  0
  -22.3260  -12.0390   22.4810 H   0  0  0  0  0  0  0  0  0  0  0  0
  -21.0240  -13.1610   22.2130 H   0  0  0  0  0  0  0  0  0  0  0  0
  -25.3340  -15.2240   20.3690 N   0  0  0  0  0  0  0  0  0  0  0  0
  -24.5560  -15.8650   20.4820 H   0  0  0  0  0  0  0  0  0  0  0  0
  -26.1750  -15.6730   20.0340 H   0  0  0  0  0  0  0  0  0  0  0  0
  -28.3390  -26.6960   20.0980 O   0  0  0  0  0  0  0  0  0  0  0  0
  -24.5710  -31.8880   23.2450 C   0  0  0  0  0  0  0  0  0  0  0  0
  -27.1610  -27.4190   20.1390 C   0  0  0  0  0  0  0  0  0  0  0  0
  -23.3490  -30.5040   21.5980 C   0  0  0  0  0  3  0  0  0  0  0  0
  -24.7820  -28.9590   20.1580 C   0  0  0  0  0  0  0  0  0  0  0  0
  -25.8750  -30.8380   21.3910 C   0  0  0  0  0  2  0  0  0  0  0  0
  -25.9440  -29.4640   20.7510 C   0  0  0  0  0  0  0  0  0  0  0  0
  -27.1350  -28.6980   20.7460 C   0  0  0  0  0  3  0  0  0  0  0  0
  -25.9810  -26.9300   19.5370 C   0  0  0  0  0  3  0  0  0  0  0  0
  -24.7950  -27.6910   19.5460 C   0  0  0  0  0  3  0  0  0  0  0  0
  -23.5470  -29.8290   20.2110 C   0  0  0  0  0  2  0  0  0  0  0  0
  -24.6180  -31.0900   22.1380 N   0  0  0  0  0  0  0  0  0  0  0  0
  -23.4910  -32.1630   23.7880 O   0  0  0  0  0  0  0  0  0  0  0  0
  -22.6920  -29.4860   22.5570 C   0  0  0  0  0  0  0  0  0  0  0  0
  -21.3670  -29.3120   22.4300 N   0  0  0  0  0  0  0  0  0  0  0  0
  -23.3720  -28.8520   23.3680 O   0  0  0  0  0  0  0  0  0  0  0  0
  -20.8780  -29.8710   21.7440 H   0  0  0  0  0  0  0  0  0  0  0  0
  -17.9870  -28.1410   22.9290 C   0  0  0  0  0  0  0  0  0  0  0  0
  -20.5470  -28.3760   23.1960 C   0  0  0  0  0  3  0  0  0  0  0  0
  -20.6400  -26.9490   22.6070 C   0  0  0  0  0  2  0  0  0  0  0  0
  -19.5320  -26.6420   21.5960 C   0  0  0  0  0  2  0  0  0  0  0  0
  -18.1520  -26.7950   22.2420 C   0  0  0  0  0  2  0  0  0  0  0  0
  -19.1140  -28.8890   23.3610 C   0  0  0  0  0  0  0  0  0  0  0  0
  -18.9080  -30.1510   23.9590 C   0  0  0  0  0  3  0  0  0  0  0  0
  -17.6070  -30.6610   24.1370 C   0  0  0  0  0  3  0  0  0  0  0  0
  -16.4960  -29.9090   23.7180 C   0  0  0  0  0  3  0  0  0  0  0  0
  -16.6870  -28.6520   23.1180 C   0  0  0  0  0  3  0  0  0  0  0  0
  -25.8630  -32.5060   23.8630 C   0  0  0  0  0  3  0  0  0  0  0  0
  -26.3790  -31.7190   25.1290 C   0  0  1  0  0  0  0  0  0  0  0  0
  -25.2890  -31.4770   26.1990 C   0  0  0  0  0  1  0  0  0  0  0  0
  -26.9530  -30.3450   24.7120 C   0  0  0  0  0  1  0  0  0  0  0  0
  -27.5360  -32.5000   25.7980 C   0  0  0  0  0  1  0  0  0  0  0  0
  -25.5650  -33.9020   24.2080 N   0  0  0  0  0  0  0  0  0  0  0  0
  -25.8810  -34.9570   23.4460 C   0  0  0  0  0  0  0  0  0  0  0  0
  -26.5280  -34.8600   22.4010 O   0  0  0  0  0  0  0  0  0  0  0  0
  -25.0050  -34.0570   25.0330 H   0  0  0  0  0  0  0  0  0  0  0  0
  -24.1450  -36.7480   23.1420 C   0  0  0  0  0  1  0  0  0  0  0  0
  -25.4040  -36.3440   23.9220 C   0  0  0  0  0  3  0  0  0  0  0  0
  -27.5550  -37.2270   24.7050 C   0  0  0  0  0  1  0  0  0  0  0  0
  -26.4310  -37.3990   23.7880 N   0  0  0  0  0  0  0  0  0  0  0  0
  -26.0270  -38.3180   23.9480 H   0  0  0  0  0  0  0  0  0  0  0  0
  1  4  1  0
  1  5  1  0
  1  2  1  0
  2  6  2  0
  3  7  1  0
  5  3  2  0
  6  7  1  0
  8 11  1  0
  8 10  1  0
 10  3  1  0
 10  9  1  0
 11 13  1  0
 11  9  1  0
 11 12  1  6
 13 15  1  0
 15 24  1  0
 15 14  1  0
 16 24  1  0
 17 22  1  0
 18 19  1  0
 18 17  1  0
 20 19  1  0
 20 29  1  0
 20 21  1  0
 22 16  1  0
 22 21  1  0
 23 16  2  0
 24 25  1  0
 26 27  2  0
 27 46  1  0
 28 27  1  0
 28 31  1  0
 29 26  1  0
 29 30  1  0
 30 28  2  0
 31 32  1  0
 32 33  2  0
 34 37  1  0
 34 33  1  0
 35 34  2  0
 36 35  1  0
 36 31  2  0
 37 38  1  0
 38 39  1  0
 39 40  2  0
 41 40  1  0
 41 45  1  0
 42 41  2  0
 43 38  2  0
 43 42  1  0
 44 43  1  0
 46 47  1  0
 47 50  1  0
 47 49  1  0
 48 46  2  0
 51 52  1  0
 51 26  1  0
 53 51  1  0
 54  2  1  0
 54 56  1  0
 55 66  2  0
 56 61  1  0
 57 65  1  0
 57 67  1  0
 58 64  1  0
 58 60  1  0
 59 65  1  0
 60 59  1  0
 61 60  2  0
 62 63  1  0
 62 56  2  0
 63 58  2  0
 64 57  1  0
 65 55  1  0
 67 69  2  0
 68 67  1  0
 70 68  1  0
 71 80  2  0
 71 76  1  0
 72 68  1  0
 72 76  1  0
 73 72  1  0
 74 75  1  0
 74 73  1  0
 75 71  1  0
 76 77  2  0
 77 78  1  0
 79 78  2  0
 80 79  1  0
 81 55  1  0
 81 86  1  0
 81 82  1  0
 82 85  1  1
 82 83  1  0
 84 82  1  0
 86 89  1  0
 87 91  1  0
 87 86  1  0
 88 87  2  0
 91 90  1  0
 93 91  1  0
 93 94  1  0
 93 92  1  0
M  ISO  4   2 101  16 100  24 100  54 101
M  END
>  <TORSDO>  (68) 
F 19

>  <SCORE>  (68) 
-14.410

>  <name>  (68) 
67

>  <ligand_id>  (68) 
67

>  <original_smiles>  (68) 
[H]c1c([H])c([H])c2c(c1[H])C([H])([H])C([H])([H])C([H])([H])C2([H])N([H])C(=O)C1([H])N(C(=O)C([H])(N([H])C(=O)C([H])(N([H])C([H])([H])[H])C([H])([H])[H])C(C([H])([H])[H])(C([H])([H])[H])C([H])([H])[H])C([H])([H])c2c([H])c(Oc3nnc(C4([H])C([H])([H])[N+]([H])(C([H])([H])C([H])(N([H])C(=O)N5C([H])([H])C([H])([H])C([H])([H])C([H])(n6nc(-c7c([H])c([H])c(Oc8c([H])c([H])c(F)c([H])c8F)c([H])c7[H])c(C(=O)N([H])[H])c6N([H])[H])C5([H])[H])C([H])([H])[H])C4([H])[H])nc3C([H])([H])[H])c([H])c([H])c2C1([H])[H]

>  <smiles>  (68) 
[H]c1c([H])c([H])c2c(c1[H])C([H])([H])C([H])([H])C([H])([H])C2([H])N([H])C(=O)C1([H])N(C(=O)C([H])(N([H])C(=O)C([H])(N([H])C([H])([H])[H])C([H])([H])[H])C(C([H])([H])[H])(C([H])([H])[H])C([H])([H])[H])C([H])([H])c2c([H])c(Oc3nnc(C4([H])C([H])([H])[N+]([H])(C([H])([H])C([H])(N([H])C(=O)N5C([H])([H])C([H])([H])C([H])([H])C([H])(n6nc(-c7c([H])c([H])c(Oc8c([H])c([H])c(F)c([H])c8F)c([H])c7[H])c(C(=O)N([H])[H])c6N([H])[H])C5([H])[H])C([H])([H])[H])C4([H])[H])nc3C([H])([H])[H])c([H])c([H])c2C1([H])[H]

$$$$
68:0:0
     RDKit          3D

 94103  0  0  1  0  0  0  0  0999 V2000
  -27.4800  -21.5860   19.7020 C   0  0  0  0  0  0  0  0  0  0  0  0
  -26.6570  -22.7210   19.6340 C   0  0  0  0  0  0  0  0  0  0  0  0
  -28.8580  -21.7980   19.8770 C   0  0  0  0  0  0  0  0  0  0  0  0
  -28.4520  -24.1400   19.9190 C   0  0  0  0  0  0  0  0  0  0  0  0
  -25.2010  -22.5820   19.2490 C   0  0  0  0  0  1  0  0  0  0  0  0
  -27.1410  -23.9740   19.7570 N   0  0  0  0  0  0  0  0  0  0  0  0
  -29.3220  -23.0960   19.9840 N   0  0  0  0  0  0  0  0  0  0  0  0
  -26.9750  -20.3490   19.4870 F   0  0  0  0  0  0  0  0  0  0  0  0
  -29.8620  -20.6310   19.5980 C   0  0  0  0  0  2  0  0  0  0  0  0
  -28.8550  -18.3430   20.4980 C   0  0  0  0  0  2  0  0  0  0  0  0
  -30.7860  -18.2740   19.9400 C   0  0  0  0  0  2  0  0  0  0  0  0
  -29.9880  -17.3340   20.8710 C   0  0  0  0  0  3  0  0  0  0  0  0
  -29.9230  -19.3800   20.4560 N   0  0  1  0  0  4  0  0  0  0  0  0
  -30.1920  -19.6350   21.3920 H   0  0  0  0  0  0  0  0  0  0  0  0
  -30.6550  -14.8350   20.3250 C   0  0  0  0  0  0  0  0  0  0  0  0
  -30.4670  -12.6190   19.2190 C   0  0  0  0  0  2  0  0  0  0  0  0
  -29.4700  -12.7600   18.0450 C   0  0  0  0  0  2  0  0  0  0  0  0
  -28.0100  -12.5910   18.5220 C   0  0  0  0  0  2  0  0  0  0  0  0
  -27.6880  -13.4010   19.8070 C   0  0  0  0  0  3  0  0  0  0  0  0
  -28.7980  -13.2140   20.8670 C   0  0  0  0  0  2  0  0  0  0  0  0
  -30.0680  -13.6010   20.2370 N   0  0  0  0  0  0  0  0  0  0  0  0
  -31.8360  -15.0220   20.0200 O   0  0  0  0  0  0  0  0  0  0  0  0
  -29.7860  -15.8710   20.5550 N   0  0  0  0  0  0  0  0  0  0  0  0
  -28.8330  -15.5510   20.6360 H   0  0  0  0  0  0  0  0  0  0  0  0
  -25.3070  -13.9590   20.6110 C   0  0  0  0  0  0  0  0  0  0  0  0
  -24.2580  -13.1670   20.9900 C   0  0  0  0  0  0  0  0  0  0  0  0
  -24.7310  -11.8210   20.9050 C   0  0  0  0  0  0  0  0  0  0  0  0
  -26.3560  -13.0970   20.3260 N   0  0  0  0  0  0  0  0  0  0  0  0
  -26.0150  -11.8060   20.5630 N   0  0  0  0  0  0  0  0  0  0  0  0
  -24.0200  -10.5500   21.0790 C   0  0  0  0  0  0  0  0  0  0  0  0
  -24.4570   -9.5870   22.0120 C   0  0  0  0  0  3  0  0  0  0  0  0
  -23.7510   -8.3740   22.1770 C   0  0  0  0  0  3  0  0  0  0  0  0
  -22.5910   -8.1200   21.4070 C   0  0  0  0  0  0  0  0  0  0  0  0
  -22.1710   -9.0740   20.4630 C   0  0  0  0  0  3  0  0  0  0  0  0
  -22.8790  -10.2780   20.2970 C   0  0  0  0  0  3  0  0  0  0  0  0
  -21.8550   -6.9620   21.4820 O   0  0  0  0  0  0  0  0  0  0  0  0
  -21.7810   -6.2290   22.6380 C   0  0  0  0  0  0  0  0  0  0  0  0
  -21.2330   -6.7640   23.8260 C   0  0  0  0  0  3  0  0  0  0  0  0
  -21.1130   -5.9510   24.9720 C   0  0  0  0  0  3  0  0  0  0  0  0
  -21.5340   -4.6090   24.9300 C   0  0  0  0  0  0  0  0  0  0  0  0
  -22.0760   -4.0750   23.7490 C   0  0  0  0  0  3  0  0  0  0  0  0
  -22.1980   -4.8830   22.6050 C   0  0  0  0  0  0  0  0  0  0  0  0
  -22.7020   -4.3590   21.4620 F   0  0  0  0  0  0  0  0  0  0  0  0
  -21.4120   -3.8250   26.0290 F   0  0  0  0  0  0  0  0  0  0  0  0
  -22.8630  -13.6200   21.3130 C   0  0  0  0  0  0  0  0  0  0  0  0
  -22.1600  -12.8950   22.1770 N   0  0  0  0  0  0  0  0  0  0  0  0
  -22.4020  -14.6530   20.8290 O   0  0  0  0  0  0  0  0  0  0  0  0
  -22.5410  -12.0540   22.5880 H   0  0  0  0  0  0  0  0  0  0  0  0
  -21.2260  -13.1870   22.4340 H   0  0  0  0  0  0  0  0  0  0  0  0
  -25.4480  -15.3370   20.4620 N   0  0  0  0  0  0  0  0  0  0  0  0
  -24.6750  -15.9660   20.6430 H   0  0  0  0  0  0  0  0  0  0  0  0
  -26.2420  -15.7940   20.0350 H   0  0  0  0  0  0  0  0  0  0  0  0
  -28.9970  -25.5970   19.6760 C   0  0  0  0  0  2  0  0  0  0  0  0
  -28.6550  -26.7160   20.5650 O   0  0  0  0  0  0  0  0  0  0  0  0
  -24.5890  -31.9210   23.3480 C   0  0  0  0  0  0  0  0  0  0  0  0
  -27.4970  -27.4820   20.4180 C   0  0  0  0  0  0  0  0  0  0  0  0
  -23.5200  -30.5140   21.6210 C   0  0  0  0  0  3  0  0  0  0  0  0
  -25.0910  -29.0140   20.2720 C   0  0  0  0  0  0  0  0  0  0  0  0
  -26.0520  -30.8950   21.6030 C   0  0  0  0  0  2  0  0  0  0  0  0
  -26.2000  -29.5260   20.9550 C   0  0  0  0  0  0  0  0  0  0  0  0
  -27.3970  -28.7650   21.0330 C   0  0  0  0  0  3  0  0  0  0  0  0
  -26.3730  -27.0150   19.7060 C   0  0  0  0  0  3  0  0  0  0  0  0
  -25.1780  -27.7610   19.6390 C   0  0  0  0  0  3  0  0  0  0  0  0
  -23.8360  -29.8650   20.2480 C   0  0  0  0  0  2  0  0  0  0  0  0
  -24.7350  -31.1260   22.2500 N   0  0  0  0  0  0  0  0  0  0  0  0
  -23.4710  -32.1700   23.8210 O   0  0  0  0  0  0  0  0  0  0  0  0
  -22.8300  -29.4690   22.5290 C   0  0  0  0  0  0  0  0  0  0  0  0
  -21.5150  -29.2720   22.3290 N   0  0  0  0  0  0  0  0  0  0  0  0
  -23.4730  -28.8390   23.3740 O   0  0  0  0  0  0  0  0  0  0  0  0
  -21.0530  -29.8360   21.6290 H   0  0  0  0  0  0  0  0  0  0  0  0
  -18.1200  -28.0810   22.6860 C   0  0  0  0  0  0  0  0  0  0  0  0
  -20.6710  -28.3130   23.0410 C   0  0  0  0  0  3  0  0  0  0  0  0
  -20.7790  -26.9020   22.4190 C   0  0  0  0  0  2  0  0  0  0  0  0
  -19.7060  -26.6230   21.3610 C   0  0  0  0  0  2  0  0  0  0  0  0
  -18.3070  -26.7540   21.9680 C   0  0  0  0  0  2  0  0  0  0  0  0
  -19.2310  -28.8190   23.1750 C   0  0  0  0  0  0  0  0  0  0  0  0
  -19.0020  -30.0600   23.8090 C   0  0  0  0  0  3  0  0  0  0  0  0
  -17.6970  -30.5680   23.9500 C   0  0  0  0  0  3  0  0  0  0  0  0
  -16.6010  -29.8280   23.4770 C   0  0  0  0  0  3  0  0  0  0  0  0
  -16.8110  -28.5850   22.8520 C   0  0  0  0  0  3  0  0  0  0  0  0
  -25.8210  -32.5770   24.0500 C   0  0  0  0  0  3  0  0  0  0  0  0
  -26.2180  -31.8590   25.3990 C   0  0  1  0  0  0  0  0  0  0  0  0
  -25.0310  -31.6480   26.3680 C   0  0  0  0  0  1  0  0  0  0  0  0
  -26.8440  -30.4730   25.1150 C   0  0  0  0  0  1  0  0  0  0  0  0
  -27.2940  -32.6880   26.1400 C   0  0  0  0  0  1  0  0  0  0  0  0
  -25.4940  -33.9890   24.2910 N   0  0  0  0  0  0  0  0  0  0  0  0
  -25.8790  -35.0060   23.5100 C   0  0  0  0  0  0  0  0  0  0  0  0
  -26.6180  -34.8540   22.5330 O   0  0  0  0  0  0  0  0  0  0  0  0
  -24.8500  -34.1800   25.0450 H   0  0  0  0  0  0  0  0  0  0  0  0
  -24.1860  -36.7760   22.9420 C   0  0  0  0  0  1  0  0  0  0  0  0
  -25.3620  -36.4130   23.8630 C   0  0  0  0  0  3  0  0  0  0  0  0
  -27.4220  -37.3470   24.8200 C   0  0  0  0  0  1  0  0  0  0  0  0
  -26.4020  -37.4610   23.7810 N   0  0  0  0  0  0  0  0  0  0  0  0
  -25.9880  -38.3870   23.8400 H   0  0  0  0  0  0  0  0  0  0  0  0
  1  3  1  0
  2  1  2  0
  2  6  1  0
  3  7  2  0
  4  7  1  0
  5  2  1  0
  6  4  2  0
  8  1  1  0
  9  3  1  0
  9 13  1  0
 10 12  1  0
 11 13  1  0
 11 12  1  0
 12 23  1  0
 13 10  1  0
 13 14  1  1
 15 23  1  0
 16 21  1  0
 17 18  1  0
 17 16  1  0
 19 18  1  0
 19 28  1  0
 19 20  1  0
 21 15  1  0
 21 20  1  0
 22 15  2  0
 23 24  1  0
 25 26  2  0
 26 45  1  0
 27 26  1  0
 27 30  1  0
 28 29  1  0
 28 25  1  0
 29 27  2  0
 30 31  1  0
 31 32  2  0
 33 36  1  0
 33 32  1  0
 34 33  2  0
 35 34  1  0
 35 30  2  0
 36 37  1  0
 37 38  1  0
 38 39  2  0
 40 39  1  0
 40 44  1  0
 41 40  2  0
 42 37  2  0
 42 41  1  0
 43 42  1  0
 45 46  1  0
 46 49  1  0
 46 48  1  0
 47 45  2  0
 50 25  1  0
 50 51  1  0
 52 50  1  0
 53  4  1  0
 53 54  1  0
 55 66  2  0
 56 54  1  0
 56 61  1  0
 57 65  1  0
 57 67  1  0
 58 60  1  0
 59 65  1  0
 60 61  2  0
 60 59  1  0
 62 56  2  0
 63 62  1  0
 63 58  2  0
 64 58  1  0
 64 57  1  0
 65 55  1  0
 67 69  2  0
 68 67  1  0
 70 68  1  0
 71 80  2  0
 71 76  1  0
 72 68  1  0
 72 76  1  0
 73 72  1  0
 74 75  1  0
 74 73  1  0
 75 71  1  0
 76 77  2  0
 77 78  1  0
 79 78  2  0
 80 79  1  0
 81 55  1  0
 81 86  1  0
 81 82  1  0
 82 85  1  1
 82 83  1  0
 84 82  1  0
 86 89  1  0
 87 91  1  0
 87 86  1  0
 88 87  2  0
 91 90  1  0
 93 94  1  0
 93 91  1  0
 93 92  1  0
M  ISO  4  15 100  23 100  53 101  54 101
M  END
>  <TORSDO>  (69) 
F 19

>  <SCORE>  (69) 
-14.129

>  <name>  (69) 
68

>  <ligand_id>  (69) 
68

>  <original_smiles>  (69) 
[H]c1c([H])c([H])c2c(c1[H])C([H])([H])C([H])([H])C([H])([H])C2([H])N([H])C(=O)C1([H])N(C(=O)C([H])(N([H])C(=O)C([H])(N([H])C([H])([H])[H])C([H])([H])[H])C(C([H])([H])[H])(C([H])([H])[H])C([H])([H])[H])C([H])([H])c2c([H])c(OC([H])([H])c3nc(C([H])([H])[H])c(F)c(C([H])([H])[N+]4([H])C([H])([H])C([H])(N([H])C(=O)N5C([H])([H])C([H])([H])C([H])([H])C([H])(n6nc(-c7c([H])c([H])c(Oc8c([H])c([H])c(F)c([H])c8F)c([H])c7[H])c(C(=O)N([H])[H])c6N([H])[H])C5([H])[H])C4([H])[H])n3)c([H])c([H])c2C1([H])[H]

>  <smiles>  (69) 
[H]c1c([H])c([H])c2c(c1[H])C([H])([H])C([H])([H])C([H])([H])C2([H])N([H])C(=O)C1([H])N(C(=O)C([H])(N([H])C(=O)C([H])(N([H])C([H])([H])[H])C([H])([H])[H])C(C([H])([H])[H])(C([H])([H])[H])C([H])([H])[H])C([H])([H])c2c([H])c(OC([H])([H])c3nc(C([H])([H])[H])c(F)c(C([H])([H])[N+]4([H])C([H])([H])C([H])(N([H])C(=O)N5C([H])([H])C([H])([H])C([H])([H])C([H])(n6nc(-c7c([H])c([H])c(Oc8c([H])c([H])c(F)c([H])c8F)c([H])c7[H])c(C(=O)N([H])[H])c6N([H])[H])C5([H])[H])C4([H])[H])n3)c([H])c([H])c2C1([H])[H]

$$$$
69:0:0
     RDKit          3D

 86 94  0  0  1  0  0  0  0  0999 V2000
  -28.9570  -22.5610   20.2160 C   0  0  0  0  0  0  0  0  0  0  0  0
  -30.1500  -22.8720   20.1440 O   0  0  0  0  0  0  0  0  0  0  0  0
  -30.3660  -15.5560   20.0340 C   0  0  0  0  0  0  0  0  0  0  0  0
  -30.3290  -13.0760   19.1470 C   0  0  0  0  0  2  0  0  0  0  0  0
  -29.3740  -12.7580   17.9680 C   0  0  0  0  0  2  0  0  0  0  0  0
  -27.9630  -12.4330   18.4800 C   0  0  0  0  0  2  0  0  0  0  0  0
  -27.5250  -13.4040   19.6040 C   0  0  0  0  0  3  0  0  0  0  0  0
  -28.6160  -13.6570   20.6690 C   0  0  0  0  0  2  0  0  0  0  0  0
  -29.7710  -14.2400   19.9570 N   0  0  0  0  0  0  0  0  0  0  0  0
  -31.5930  -15.4500   19.8490 O   0  0  0  0  0  0  0  0  0  0  0  0
  -28.9040  -19.5810   19.1400 C   0  0  0  0  0  2  0  0  0  0  0  0
  -29.6420  -19.7170   21.2910 C   0  0  0  0  0  2  0  0  0  0  0  0
  -28.8040  -17.8610   19.3520 C   0  0  0  0  0  2  0  0  0  0  0  0
  -30.3830  -18.2010   20.9220 C   0  0  0  0  0  2  0  0  0  0  0  0
  -28.7500  -20.7440   20.3220 C   0  0  0  0  0  3  0  0  0  0  0  0
  -29.7430  -16.9530   20.2260 N   0  0  0  0  0  0  0  0  0  0  0  0
  -25.2060  -13.9140   20.5110 C   0  0  0  0  0  0  0  0  0  0  0  0
  -24.1660  -13.1210   20.9050 C   0  0  0  0  0  0  0  0  0  0  0  0
  -24.6350  -11.7730   20.8050 C   0  0  0  0  0  0  0  0  0  0  0  0
  -26.2360  -13.0530   20.1830 N   0  0  0  0  0  0  0  0  0  0  0  0
  -25.9100  -11.7560   20.4290 N   0  0  0  0  0  0  0  0  0  0  0  0
  -23.9170  -10.5040   20.9890 C   0  0  0  0  0  0  0  0  0  0  0  0
  -24.3580   -9.5310   21.9130 C   0  0  0  0  0  3  0  0  0  0  0  0
  -23.6370   -8.3300   22.0870 C   0  0  0  0  0  3  0  0  0  0  0  0
  -22.4600   -8.0930   21.3370 C   0  0  0  0  0  0  0  0  0  0  0  0
  -22.0390   -9.0540   20.4010 C   0  0  0  0  0  3  0  0  0  0  0  0
  -22.7610  -10.2460   20.2250 C   0  0  0  0  0  3  0  0  0  0  0  0
  -21.7100   -6.9440   21.4210 O   0  0  0  0  0  0  0  0  0  0  0  0
  -21.6190   -6.2270   22.5880 C   0  0  0  0  0  0  0  0  0  0  0  0
  -21.1210   -6.8000   23.7780 C   0  0  0  0  0  3  0  0  0  0  0  0
  -20.9790   -6.0080   24.9350 C   0  0  0  0  0  3  0  0  0  0  0  0
  -21.3260   -4.6440   24.9020 C   0  0  0  0  0  0  0  0  0  0  0  0
  -21.8170   -4.0710   23.7160 C   0  0  0  0  0  3  0  0  0  0  0  0
  -21.9590   -4.8600   22.5610 C   0  0  0  0  0  0  0  0  0  0  0  0
  -22.4130   -4.2960   21.4160 F   0  0  0  0  0  0  0  0  0  0  0  0
  -21.1830   -3.8810   26.0110 F   0  0  0  0  0  0  0  0  0  0  0  0
  -22.7830  -13.5860   21.2510 C   0  0  0  0  0  0  0  0  0  0  0  0
  -22.0970  -12.8660   22.1320 N   0  0  0  0  0  0  0  0  0  0  0  0
  -22.3210  -14.6230   20.7770 O   0  0  0  0  0  0  0  0  0  0  0  0
  -22.4840  -12.0270   22.5390 H   0  0  0  0  0  0  0  0  0  0  0  0
  -21.1700  -13.1590   22.4050 H   0  0  0  0  0  0  0  0  0  0  0  0
  -25.3580  -15.2910   20.3730 N   0  0  0  0  0  0  0  0  0  0  0  0
  -24.5990  -15.9400   20.5530 H   0  0  0  0  0  0  0  0  0  0  0  0
  -26.1970  -15.7450   20.0350 H   0  0  0  0  0  0  0  0  0  0  0  0
  -27.8690  -24.0180   20.2010 C   0  0  0  0  0  2  0  0  0  0  0  0
  -28.1660  -25.7060   20.2710 O   0  0  0  0  0  0  0  0  0  0  0  0
  -24.6790  -31.8780   23.2380 C   0  0  0  0  0  0  0  0  0  0  0  0
  -27.1890  -26.8800   20.2270 C   0  0  0  0  0  0  0  0  0  0  0  0
  -23.4800  -30.4910   21.5970 C   0  0  0  0  0  3  0  0  0  0  0  0
  -24.9190  -28.8580   20.1780 C   0  0  0  0  0  0  0  0  0  0  0  0
  -26.0550  -30.6510   21.4650 C   0  0  0  0  0  2  0  0  0  0  0  0
  -26.1140  -29.2290   20.8060 C   0  0  0  0  0  0  0  0  0  0  0  0
  -27.2400  -28.2660   20.7990 C   0  0  0  0  0  3  0  0  0  0  0  0
  -25.9620  -26.6950   19.5480 C   0  0  0  0  0  3  0  0  0  0  0  0
  -24.8760  -27.6150   19.5260 C   0  0  0  0  0  3  0  0  0  0  0  0
  -23.7120  -29.8030   20.2230 C   0  0  0  0  0  2  0  0  0  0  0  0
  -24.7610  -31.0370   22.1520 N   0  0  0  0  0  0  0  0  0  0  0  0
  -23.5890  -32.1780   23.7550 O   0  0  0  0  0  0  0  0  0  0  0  0
  -22.7690  -29.5070   22.5650 C   0  0  0  0  0  0  0  0  0  0  0  0
  -21.4380  -29.3500   22.4370 N   0  0  0  0  0  0  0  0  0  0  0  0
  -23.4260  -28.8820   23.4010 O   0  0  0  0  0  0  0  0  0  0  0  0
  -20.9590  -29.9070   21.7420 H   0  0  0  0  0  0  0  0  0  0  0  0
  -18.0480  -28.1480   22.9440 C   0  0  0  0  0  0  0  0  0  0  0  0
  -20.6080  -28.4160   23.2080 C   0  0  0  0  0  3  0  0  0  0  0  0
  -20.7090  -26.9830   22.6350 C   0  0  0  0  0  2  0  0  0  0  0  0
  -19.6080  -26.6600   21.6190 C   0  0  0  0  0  2  0  0  0  0  0  0
  -18.2260  -26.8010   22.2630 C   0  0  0  0  0  2  0  0  0  0  0  0
  -19.1660  -28.9130   23.3730 C   0  0  0  0  0  0  0  0  0  0  0  0
  -18.9430  -30.1690   23.9750 C   0  0  0  0  0  3  0  0  0  0  0  0
  -17.6360  -30.6650   24.1480 C   0  0  0  0  0  3  0  0  0  0  0  0
  -16.5330  -29.8980   23.7310 C   0  0  0  0  0  3  0  0  0  0  0  0
  -16.7410  -28.6410   23.1360 C   0  0  0  0  0  3  0  0  0  0  0  0
  -25.9480  -32.5180   23.8760 C   0  0  0  0  0  3  0  0  0  0  0  0
  -25.6350  -33.9200   24.2140 N   0  0  0  0  0  0  0  0  0  0  0  0
  -25.9430  -34.9830   23.4570 C   0  0  0  0  0  0  0  0  0  0  0  0
  -26.5800  -34.8860   22.4060 O   0  0  0  0  0  0  0  0  0  0  0  0
  -25.0640  -34.0670   25.0330 H   0  0  0  0  0  0  0  0  0  0  0  0
  -24.1870  -36.7730   23.1980 C   0  0  0  0  0  1  0  0  0  0  0  0
  -25.4720  -36.3710   23.9410 C   0  0  0  0  0  3  0  0  0  0  0  0
  -27.6380  -37.2800   24.6620 C   0  0  0  0  0  1  0  0  0  0  0  0
  -26.4900  -37.4310   23.7720 N   0  0  0  0  0  0  0  0  0  0  0  0
  -26.0850  -38.3500   23.9320 H   0  0  0  0  0  0  0  0  0  0  0  0
  -26.4440  -31.7540   25.1670 C   0  0  1  0  0  0  0  0  0  0  0  0
  -25.3380  -31.5330   26.2260 C   0  0  0  0  0  1  0  0  0  0  0  0
  -27.0230  -30.3680   24.8040 C   0  0  0  0  0  1  0  0  0  0  0  0
  -27.5930  -32.5460   25.8350 C   0  0  0  0  0  1  0  0  0  0  0  0
  2  1  2  0
  3 16  1  0
  4  9  1  0
  5  6  1  0
  5  4  1  0
  7  6  1  0
  7 20  1  0
  7  8  1  0
  9  3  1  0
  9  8  1  0
 10  3  2  0
 11 13  1  0
 11 15  1  0
 13 16  1  0
 14 12  1  0
 15  1  1  0
 15 12  1  0
 16 14  1  0
 17 18  2  0
 18 37  1  0
 19 18  1  0
 19 22  1  0
 20 21  1  0
 20 17  1  0
 21 19  2  0
 22 23  1  0
 23 24  2  0
 25 28  1  0
 25 24  1  0
 26 25  2  0
 27 26  1  0
 27 22  2  0
 28 29  1  0
 29 30  1  0
 30 31  2  0
 32 31  1  0
 32 36  1  0
 33 32  2  0
 34 29  2  0
 34 33  1  0
 35 34  1  0
 37 38  1  0
 38 41  1  0
 38 40  1  0
 39 37  2  0
 42 17  1  0
 42 43  1  0
 44 42  1  0
 45  1  1  0
 45 46  1  0
 47 58  2  0
 48 46  1  0
 48 53  1  0
 49 57  1  0
 49 59  1  0
 50 56  1  0
 50 52  1  0
 51 57  1  0
 52 51  1  0
 53 52  2  0
 54 48  2  0
 55 54  1  0
 55 50  2  0
 56 49  1  0
 57 47  1  0
 59 61  2  0
 60 59  1  0
 62 60  1  0
 63 72  2  0
 63 68  1  0
 64 60  1  0
 64 68  1  0
 65 64  1  0
 66 67  1  0
 66 65  1  0
 67 63  1  0
 68 69  2  0
 69 70  1  0
 71 70  2  0
 72 71  1  0
 73 47  1  0
 73 74  1  0
 73 83  1  0
 74 77  1  0
 75 79  1  0
 75 74  1  0
 76 75  2  0
 79 78  1  0
 81 82  1  0
 81 79  1  0
 81 80  1  0
 83 86  1  1
 83 84  1  0
 85 83  1  0
M  ISO  4   3 100  16 100  45 101  46 101
M  END
>  <TORSDO>  (70) 
F 17

>  <SCORE>  (70) 
-16.469

>  <name>  (70) 
69

>  <ligand_id>  (70) 
69

>  <original_smiles>  (70) 
[H]c1c([H])c([H])c2c(c1[H])C([H])([H])C([H])([H])C([H])([H])C2([H])N([H])C(=O)C1([H])N(C(=O)C([H])(N([H])C(=O)C([H])(N([H])C([H])([H])[H])C([H])([H])[H])C(C([H])([H])[H])(C([H])([H])[H])C([H])([H])[H])C([H])([H])c2c([H])c(OC([H])([H])C(=O)C3([H])C([H])([H])C([H])([H])N(C(=O)N4C([H])([H])C([H])([H])C([H])([H])C([H])(n5nc(-c6c([H])c([H])c(Oc7c([H])c([H])c(F)c([H])c7F)c([H])c6[H])c(C(=O)N([H])[H])c5N([H])[H])C4([H])[H])C([H])([H])C3([H])[H])c([H])c([H])c2C1([H])[H]

>  <smiles>  (70) 
[H]c1c([H])c([H])c2c(c1[H])C([H])([H])C([H])([H])C([H])([H])C2([H])N([H])C(=O)C1([H])N(C(=O)C([H])(N([H])C(=O)C([H])(N([H])C([H])([H])[H])C([H])([H])[H])C(C([H])([H])[H])(C([H])([H])[H])C([H])([H])[H])C([H])([H])c2c([H])c(OC([H])([H])C(=O)C3([H])C([H])([H])C([H])([H])N(C(=O)N4C([H])([H])C([H])([H])C([H])([H])C([H])(n5nc(-c6c([H])c([H])c(Oc7c([H])c([H])c(F)c([H])c7F)c([H])c6[H])c(C(=O)N([H])[H])c5N([H])[H])C4([H])[H])C([H])([H])C3([H])[H])c([H])c([H])c2C1([H])[H]

$$$$
70:0:0
     RDKit          3D

 94104  0  0  1  0  0  0  0  0999 V2000
  -27.2310  -22.2040   19.4860 C   0  0  0  0  0  0  0  0  0  0  0  0
  -28.1500  -23.0370   20.1530 C   0  0  0  0  0  0  0  0  0  0  0  0
  -28.8040  -20.6440   20.1830 C   0  0  0  0  0  0  0  0  0  0  0  0
  -29.1260  -21.9770   20.5990 N   0  0  0  0  0  0  0  0  0  0  0  0
  -27.6790  -20.8400   19.4380 N   0  0  0  0  0  0  0  0  0  0  0  0
  -30.7430  -15.5260   20.6940 C   0  0  0  0  0  0  0  0  0  0  0  0
  -30.7140  -13.0890   19.8870 C   0  0  0  0  0  2  0  0  0  0  0  0
  -29.9120  -12.8620   18.5850 C   0  0  0  0  0  2  0  0  0  0  0  0
  -28.4280  -12.6170   18.9050 C   0  0  0  0  0  2  0  0  0  0  0  0
  -27.8810  -13.6230   19.9490 C   0  0  0  0  0  3  0  0  0  0  0  0
  -28.8240  -13.8240   21.1530 C   0  0  0  0  0  2  0  0  0  0  0  0
  -30.1140  -14.2650   20.6050 N   0  0  0  0  0  0  0  0  0  0  0  0
  -31.9770  -15.4670   20.6410 O   0  0  0  0  0  0  0  0  0  0  0  0
  -30.5890  -18.2650   21.1210 C   0  0  0  0  0  2  0  0  0  0  0  0
  -28.8720  -17.5670   20.2520 C   0  0  0  0  0  2  0  0  0  0  0  0
  -29.5380  -19.0670   20.1920 C   0  0  0  0  0  3  0  0  0  0  0  0
  -30.1130  -16.8510   20.7340 N   0  0  0  0  0  0  0  0  0  0  0  0
  -25.4550  -14.1840   20.5040 C   0  0  0  0  0  0  0  0  0  0  0  0
  -24.3670  -13.4080   20.7870 C   0  0  0  0  0  0  0  0  0  0  0  0
  -24.8360  -12.0580   20.8040 C   0  0  0  0  0  0  0  0  0  0  0  0
  -26.5160  -13.3100   20.3520 N   0  0  0  0  0  0  0  0  0  0  0  0
  -26.1500  -12.0250   20.6030 N   0  0  0  0  0  0  0  0  0  0  0  0
  -24.0970  -10.7950   20.9370 C   0  0  0  0  0  0  0  0  0  0  0  0
  -24.4780   -9.8080   21.8740 C   0  0  0  0  0  3  0  0  0  0  0  0
  -23.7370   -8.6140   21.9970 C   0  0  0  0  0  3  0  0  0  0  0  0
  -22.6000   -8.3960   21.1850 C   0  0  0  0  0  0  0  0  0  0  0  0
  -22.2380   -9.3710   20.2380 C   0  0  0  0  0  3  0  0  0  0  0  0
  -22.9800  -10.5570   20.1110 C   0  0  0  0  0  3  0  0  0  0  0  0
  -21.8350   -7.2550   21.2180 O   0  0  0  0  0  0  0  0  0  0  0  0
  -21.7600   -6.4710   22.3410 C   0  0  0  0  0  0  0  0  0  0  0  0
  -21.3240   -6.9850   23.5810 C   0  0  0  0  0  3  0  0  0  0  0  0
  -21.1950   -6.1300   24.6940 C   0  0  0  0  0  3  0  0  0  0  0  0
  -21.4930   -4.7590   24.5650 C   0  0  0  0  0  0  0  0  0  0  0  0
  -21.9210   -4.2440   23.3300 C   0  0  0  0  0  3  0  0  0  0  0  0
  -22.0510   -5.0970   22.2200 C   0  0  0  0  0  0  0  0  0  0  0  0
  -22.4440   -4.5910   21.0260 F   0  0  0  0  0  0  0  0  0  0  0  0
  -21.3620   -3.9350   25.6310 F   0  0  0  0  0  0  0  0  0  0  0  0
  -22.9520  -13.8830   20.9300 C   0  0  0  0  0  0  0  0  0  0  0  0
  -22.1580  -13.2070   21.7520 N   0  0  0  0  0  0  0  0  0  0  0  0
  -22.5570  -14.8930   20.3480 O   0  0  0  0  0  0  0  0  0  0  0  0
  -22.4910  -12.3910   22.2440 H   0  0  0  0  0  0  0  0  0  0  0  0
  -21.2050  -13.5100   21.8910 H   0  0  0  0  0  0  0  0  0  0  0  0
  -25.6310  -15.5540   20.3300 N   0  0  0  0  0  0  0  0  0  0  0  0
  -24.8540  -16.2030   20.3650 H   0  0  0  0  0  0  0  0  0  0  0  0
  -26.5020  -15.9840   20.0530 H   0  0  0  0  0  0  0  0  0  0  0  0
  -24.7260  -22.6390   19.8840 C   0  0  0  0  0  2  0  0  0  0  0  0
  -23.5640  -23.2190   19.0710 C   0  0  0  0  0  2  0  0  0  0  0  0
  -25.5390  -23.7120   17.9970 C   0  0  0  0  0  2  0  0  0  0  0  0
  -25.8520  -22.4890   18.8640 C   0  0  0  0  0  3  0  0  0  0  0  0
  -24.1310  -23.6350   17.8310 O   0  0  0  0  0  0  0  0  0  0  0  0
  -27.6690  -19.5850   17.2840 C   0  0  0  0  0  1  0  0  0  0  0  0
  -27.0180  -19.7830   18.6610 C   0  0  0  0  0  2  0  0  0  0  0  0
  -27.7350  -24.7060   20.4010 C   0  0  0  0  0  2  0  0  0  0  0  0
  -28.2540  -26.2310   20.2700 O   0  0  0  0  0  0  0  0  0  0  0  0
  -24.7250  -32.0340   23.5330 C   0  0  0  0  0  0  0  0  0  0  0  0
  -27.2730  -27.3460   20.2820 C   0  0  0  0  0  0  0  0  0  0  0  0
  -23.5200  -30.6940   21.8610 C   0  0  0  0  0  3  0  0  0  0  0  0
  -24.9620  -29.1860   20.3530 C   0  0  0  0  0  0  0  0  0  0  0  0
  -26.0820  -30.9440   21.6900 C   0  0  0  0  0  2  0  0  0  0  0  0
  -26.1540  -29.5690   20.9800 C   0  0  0  0  0  0  0  0  0  0  0  0
  -27.3070  -28.6680   20.9330 C   0  0  0  0  0  3  0  0  0  0  0  0
  -26.0640  -27.1430   19.5740 C   0  0  0  0  0  3  0  0  0  0  0  0
  -24.9380  -27.9900   19.6310 C   0  0  0  0  0  3  0  0  0  0  0  0
  -23.7330  -30.0820   20.4540 C   0  0  0  0  0  2  0  0  0  0  0  0
  -24.7980  -31.2470   22.4150 N   0  0  0  0  0  0  0  0  0  0  0  0
  -23.6410  -32.2930   24.0810 O   0  0  0  0  0  0  0  0  0  0  0  0
  -22.8550  -29.6450   22.7910 C   0  0  0  0  0  0  0  0  0  0  0  0
  -21.5440  -29.4000   22.6110 N   0  0  0  0  0  0  0  0  0  0  0  0
  -23.5250  -29.0570   23.6420 O   0  0  0  0  0  0  0  0  0  0  0  0
  -21.0550  -29.9280   21.9010 H   0  0  0  0  0  0  0  0  0  0  0  0
  -18.2380  -27.9420   22.9310 C   0  0  0  0  0  0  0  0  0  0  0  0
  -20.7490  -28.4120   23.3480 C   0  0  0  0  0  3  0  0  0  0  0  0
  -20.9970  -26.9830   22.8080 C   0  0  0  0  0  2  0  0  0  0  0  0
  -19.9880  -26.5600   21.7350 C   0  0  0  0  0  2  0  0  0  0  0  0
  -18.5620  -26.6020   22.2910 C   0  0  0  0  0  2  0  0  0  0  0  0
  -19.2650  -28.7980   23.4130 C   0  0  0  0  0  0  0  0  0  0  0  0
  -18.9090  -30.0440   23.9720 C   0  0  0  0  0  3  0  0  0  0  0  0
  -17.5600  -30.4390   24.0550 C   0  0  0  0  0  3  0  0  0  0  0  0
  -16.5480  -29.5830   23.5880 C   0  0  0  0  0  3  0  0  0  0  0  0
  -16.8870  -28.3360   23.0320 C   0  0  0  0  0  3  0  0  0  0  0  0
  -26.0020  -32.6630   24.1680 C   0  0  0  0  0  3  0  0  0  0  0  0
  -26.4840  -31.9040   25.4670 C   0  0  1  0  0  0  0  0  0  0  0  0
  -25.3610  -31.6670   26.5030 C   0  0  0  0  0  1  0  0  0  0  0  0
  -27.0880  -30.5260   25.1120 C   0  0  0  0  0  1  0  0  0  0  0  0
  -27.6090  -32.7120   26.1560 C   0  0  0  0  0  1  0  0  0  0  0  0
  -25.7010  -34.0700   24.4820 N   0  0  0  0  0  0  0  0  0  0  0  0
  -26.0370  -35.1160   23.7160 C   0  0  0  0  0  0  0  0  0  0  0  0
  -26.6960  -34.9980   22.6800 O   0  0  0  0  0  0  0  0  0  0  0  0
  -25.1110  -34.2370   25.2850 H   0  0  0  0  0  0  0  0  0  0  0  0
  -24.3070  -36.9190   23.3890 C   0  0  0  0  0  1  0  0  0  0  0  0
  -25.5700  -36.5150   24.1680 C   0  0  0  0  0  3  0  0  0  0  0  0
  -27.7290  -37.4070   24.9270 C   0  0  0  0  0  1  0  0  0  0  0  0
  -26.6040  -37.5620   24.0110 N   0  0  0  0  0  0  0  0  0  0  0  0
  -26.2060  -38.4860   24.1510 H   0  0  0  0  0  0  0  0  0  0  0  0
  1  2  2  0
  2 53  1  0
  2  4  1  0
  3  4  2  0
  5  1  1  0
  5  3  1  0
  6 17  1  0
  7 12  1  0
  8  9  1  0
  8  7  1  0
 10  9  1  0
 10 21  1  0
 10 11  1  0
 12  6  1  0
 12 11  1  0
 13  6  2  0
 15 17  1  0
 16  3  1  0
 16 15  1  0
 16 14  1  0
 17 14  1  0
 18 19  2  0
 19 20  1  0
 19 38  1  0
 20 23  1  0
 21 18  1  0
 21 22  1  0
 22 20  2  0
 23 24  1  0
 24 25  2  0
 26 29  1  0
 26 25  1  0
 27 26  2  0
 28 27  1  0
 28 23  2  0
 29 30  1  0
 30 31  1  0
 31 32  2  0
 33 32  1  0
 33 37  1  0
 34 33  2  0
 35 30  2  0
 35 34  1  0
 36 35  1  0
 38 39  1  0
 39 42  1  0
 39 41  1  0
 40 38  2  0
 43 44  1  0
 43 18  1  0
 45 43  1  0
 47 46  1  0
 48 49  1  0
 49  1  1  0
 49 46  1  0
 50 48  1  0
 50 47  1  0
 51 52  1  0
 52  5  1  0
 54 56  1  0
 54 53  1  0
 55 66  2  0
 56 61  1  0
 57 65  1  0
 57 67  1  0
 58 64  1  0
 58 60  1  0
 59 65  1  0
 60 59  1  0
 61 60  2  0
 62 63  1  0
 62 56  2  0
 63 58  2  0
 64 57  1  0
 65 55  1  0
 67 69  2  0
 68 67  1  0
 70 68  1  0
 71 80  2  0
 71 76  1  0
 72 68  1  0
 72 76  1  0
 73 72  1  0
 74 75  1  0
 74 73  1  0
 75 71  1  0
 76 77  2  0
 77 78  1  0
 79 78  2  0
 80 79  1  0
 81 55  1  0
 81 86  1  0
 81 82  1  0
 82 85  1  1
 82 83  1  0
 84 82  1  0
 86 89  1  0
 87 91  1  0
 87 86  1  0
 88 87  2  0
 91 90  1  0
 93 94  1  0
 93 91  1  0
 93 92  1  0
M  ISO  4   6 100  17 100  53 101  54 101
M  END
>  <TORSDO>  (71) 
F 19

>  <SCORE>  (71) 
-15.042

>  <name>  (71) 
70

>  <ligand_id>  (71) 
70

>  <original_smiles>  (71) 
[H]c1c([H])c([H])c2c(c1[H])C([H])([H])C([H])([H])C([H])([H])C2([H])N([H])C(=O)C1([H])N(C(=O)C([H])(N([H])C(=O)C([H])(N([H])C([H])([H])[H])C([H])([H])[H])C(C([H])([H])[H])(C([H])([H])[H])C([H])([H])[H])C([H])([H])c2c([H])c(OC([H])([H])c3nc(C4([H])C([H])([H])N(C(=O)N5C([H])([H])C([H])([H])C([H])([H])C([H])(n6nc(-c7c([H])c([H])c(Oc8c([H])c([H])c(F)c([H])c8F)c([H])c7[H])c(C(=O)N([H])[H])c6N([H])[H])C5([H])[H])C4([H])[H])n(C([H])([H])C([H])([H])[H])c3C3([H])C([H])([H])OC([H])([H])C3([H])[H])c([H])c([H])c2C1([H])[H]

>  <smiles>  (71) 
[H]c1c([H])c([H])c2c(c1[H])C([H])([H])C([H])([H])C([H])([H])C2([H])N([H])C(=O)C1([H])N(C(=O)C([H])(N([H])C(=O)C([H])(N([H])C([H])([H])[H])C([H])([H])[H])C(C([H])([H])[H])(C([H])([H])[H])C([H])([H])[H])C([H])([H])c2c([H])c(OC([H])([H])c3nc(C4([H])C([H])([H])N(C(=O)N5C([H])([H])C([H])([H])C([H])([H])C([H])(n6nc(-c7c([H])c([H])c(Oc8c([H])c([H])c(F)c([H])c8F)c([H])c7[H])c(C(=O)N([H])[H])c6N([H])[H])C5([H])[H])C4([H])[H])n(C([H])([H])C([H])([H])[H])c3C3([H])C([H])([H])OC([H])([H])C3([H])[H])c([H])c([H])c2C1([H])[H]

$$$$
71:0:0
     RDKit          3D

 97106  0  0  1  0  0  0  0  0999 V2000
  -29.2820  -23.8730   18.6000 C   0  0  0  0  0  3  0  0  0  0  0  0
  -29.6980  -22.6630   18.0180 C   0  0  0  0  0  3  0  0  0  0  0  0
  -28.9720  -23.9200   19.9710 C   0  0  0  0  0  0  0  0  0  0  0  0
  -29.1290  -22.6540   20.6990 C   0  0  0  0  0  0  0  0  0  0  0  0
  -29.5940  -21.4480   20.0140 C   0  0  0  0  0  0  0  0  0  0  0  0
  -29.8430  -21.4980   18.6920 N   0  0  0  0  0  0  0  0  0  0  0  0
  -29.8990  -20.1690   20.6310 N   0  0  0  0  0  0  0  0  0  0  0  0
  -29.8310  -20.1140   21.6380 H   0  0  0  0  0  0  0  0  0  0  0  0
  -30.9160  -15.0380   20.0890 C   0  0  0  0  0  0  0  0  0  0  0  0
  -30.7150  -12.7470   19.0860 C   0  0  0  0  0  2  0  0  0  0  0  0
  -29.7550  -12.7360   17.8760 C   0  0  0  0  0  2  0  0  0  0  0  0
  -28.3000  -12.5050   18.3300 C   0  0  0  0  0  2  0  0  0  0  0  0
  -27.9130  -13.4100   19.5240 C   0  0  0  0  0  3  0  0  0  0  0  0
  -28.9940  -13.4100   20.6340 C   0  0  0  0  0  2  0  0  0  0  0  0
  -30.2590  -13.8190   20.0060 N   0  0  0  0  0  0  0  0  0  0  0  0
  -32.1210  -15.0600   19.8180 O   0  0  0  0  0  0  0  0  0  0  0  0
  -28.5910  -18.1020   20.0070 C   0  0  0  0  0  2  0  0  0  0  0  0
  -28.8680  -16.5770   19.9140 C   0  0  0  0  0  2  0  0  0  0  0  0
  -30.8320  -17.6290   20.6010 C   0  0  0  0  0  2  0  0  0  0  0  0
  -29.9440  -18.8000   19.9720 C   0  0  0  0  0  3  0  0  0  0  0  0
  -30.2390  -16.2550   20.3340 N   0  0  0  0  0  0  0  0  0  0  0  0
  -25.5390  -14.0170   20.2810 C   0  0  0  0  0  0  0  0  0  0  0  0
  -24.4830  -13.2500   20.6790 C   0  0  0  0  0  0  0  0  0  0  0  0
  -24.9500  -11.8990   20.6530 C   0  0  0  0  0  0  0  0  0  0  0  0
  -26.5830  -13.1360   20.0410 N   0  0  0  0  0  0  0  0  0  0  0  0
  -26.2360  -11.8570   20.3270 N   0  0  0  0  0  0  0  0  0  0  0  0
  -24.2270  -10.6410   20.8550 C   0  0  0  0  0  0  0  0  0  0  0  0
  -24.6490   -9.6980   21.8170 C   0  0  0  0  0  3  0  0  0  0  0  0
  -23.9260   -8.5020   22.0110 C   0  0  0  0  0  3  0  0  0  0  0  0
  -22.7670   -8.2420   21.2400 C   0  0  0  0  0  0  0  0  0  0  0  0
  -22.3670   -9.1730   20.2650 C   0  0  0  0  0  3  0  0  0  0  0  0
  -23.0920  -10.3600   20.0710 C   0  0  0  0  0  3  0  0  0  0  0  0
  -22.0190   -7.0960   21.3390 O   0  0  0  0  0  0  0  0  0  0  0  0
  -21.9150   -6.4070   22.5210 C   0  0  0  0  0  0  0  0  0  0  0  0
  -21.3940   -7.0030   23.6890 C   0  0  0  0  0  3  0  0  0  0  0  0
  -21.2380   -6.2350   24.8620 C   0  0  0  0  0  3  0  0  0  0  0  0
  -21.6000   -4.8750   24.8640 C   0  0  0  0  0  0  0  0  0  0  0  0
  -22.1200   -4.2800   23.7020 C   0  0  0  0  0  3  0  0  0  0  0  0
  -22.2740   -5.0450   22.5320 C   0  0  0  0  0  0  0  0  0  0  0  0
  -22.7530   -4.4610   21.4070 F   0  0  0  0  0  0  0  0  0  0  0  0
  -21.4460   -4.1340   25.9870 F   0  0  0  0  0  0  0  0  0  0  0  0
  -23.0900  -13.7280   20.9660 C   0  0  0  0  0  0  0  0  0  0  0  0
  -22.3850  -13.0460   21.8570 N   0  0  0  0  0  0  0  0  0  0  0  0
  -22.6400  -14.7430   20.4330 O   0  0  0  0  0  0  0  0  0  0  0  0
  -22.7710  -12.2300   22.3100 H   0  0  0  0  0  0  0  0  0  0  0  0
  -21.4470  -13.3350   22.0890 H   0  0  0  0  0  0  0  0  0  0  0  0
  -25.6730  -15.3890   20.0730 N   0  0  0  0  0  0  0  0  0  0  0  0
  -24.8760  -16.0090   20.1720 H   0  0  0  0  0  0  0  0  0  0  0  0
  -26.4800  -15.8430   19.6730 H   0  0  0  0  0  0  0  0  0  0  0  0
  -27.7800  -21.4850   22.5870 C   0  0  0  0  0  1  0  0  0  0  0  0
  -28.7580  -22.6180   22.2000 C   0  0  0  0  0  3  0  0  0  0  0  0
  -30.5310  -23.9330   23.3970 C   0  0  0  0  0  1  0  0  0  0  0  0
  -29.9620  -22.6110   23.0690 N   0  0  0  0  0  4  0  0  0  0  0  0
  -29.7280  -22.1760   23.9470 H   0  0  0  0  0  0  0  0  0  0  0  0
  -30.6890  -22.0660   22.6390 H   0  0  0  0  0  0  0  0  0  0  0  0
  -28.4400  -25.2970   20.5820 C   0  0  0  0  0  2  0  0  0  0  0  0
  -28.5220  -26.5950   19.8390 O   0  0  0  0  0  0  0  0  0  0  0  0
  -24.7160  -31.8570   23.0760 C   0  0  0  0  0  0  0  0  0  0  0  0
  -27.3980  -27.4390   19.8820 C   0  0  0  0  0  0  0  0  0  0  0  0
  -23.5240  -30.4910   21.4000 C   0  0  0  0  0  3  0  0  0  0  0  0
  -24.9940  -29.0040   19.9240 C   0  0  0  0  0  0  0  0  0  0  0  0
  -26.0520  -30.8750   21.1890 C   0  0  0  0  0  2  0  0  0  0  0  0
  -26.1620  -29.5090   20.5130 C   0  0  0  0  0  0  0  0  0  0  0  0
  -27.3720  -28.7490   20.4640 C   0  0  0  0  0  3  0  0  0  0  0  0
  -26.2050  -26.9810   19.2840 C   0  0  0  0  0  3  0  0  0  0  0  0
  -25.0200  -27.7480   19.2940 C   0  0  0  0  0  3  0  0  0  0  0  0
  -23.7420  -29.8630   19.9970 C   0  0  0  0  0  2  0  0  0  0  0  0
  -24.7850  -31.0900   21.9460 N   0  0  0  0  0  0  0  0  0  0  0  0
  -23.6340  -32.0870   23.6340 O   0  0  0  0  0  0  0  0  0  0  0  0
  -22.8900  -29.4290   22.3290 C   0  0  0  0  0  0  0  0  0  0  0  0
  -21.5610  -29.2570   22.2350 N   0  0  0  0  0  0  0  0  0  0  0  0
  -23.5950  -28.7640   23.0930 O   0  0  0  0  0  0  0  0  0  0  0  0
  -21.0510  -29.8580   21.6030 H   0  0  0  0  0  0  0  0  0  0  0  0
  -18.1910  -28.0620   22.8020 C   0  0  0  0  0  0  0  0  0  0  0  0
  -20.7630  -28.2820   22.9810 C   0  0  0  0  0  3  0  0  0  0  0  0
  -20.8180  -26.8840   22.3220 C   0  0  0  0  0  2  0  0  0  0  0  0
  -19.6720  -26.6300   21.3360 C   0  0  0  0  0  2  0  0  0  0  0  0
  -18.3220  -26.7510   22.0440 C   0  0  0  0  0  2  0  0  0  0  0  0
  -19.3350  -28.7870   23.2280 C   0  0  0  0  0  0  0  0  0  0  0  0
  -19.1560  -30.0170   23.8990 C   0  0  0  0  0  3  0  0  0  0  0  0
  -17.8640  -30.5210   24.1460 C   0  0  0  0  0  3  0  0  0  0  0  0
  -16.7350  -29.7910   23.7340 C   0  0  0  0  0  3  0  0  0  0  0  0
  -16.9000  -28.5620   23.0710 C   0  0  0  0  0  3  0  0  0  0  0  0
  -25.9910  -32.4970   23.7080 C   0  0  0  0  0  3  0  0  0  0  0  0
  -26.5260  -31.6990   24.9600 C   0  0  1  0  0  0  0  0  0  0  0  0
  -25.4460  -31.4150   26.0290 C   0  0  0  0  0  1  0  0  0  0  0  0
  -27.1340  -30.3470   24.5230 C   0  0  0  0  0  1  0  0  0  0  0  0
  -27.6590  -32.4990   25.6480 C   0  0  0  0  0  1  0  0  0  0  0  0
  -25.6520  -33.8770   24.0820 N   0  0  0  0  0  0  0  0  0  0  0  0
  -25.9590  -34.9600   23.3560 C   0  0  0  0  0  0  0  0  0  0  0  0
  -26.6260  -34.9040   22.3200 O   0  0  0  0  0  0  0  0  0  0  0  0
  -25.0510  -33.9920   24.8840 H   0  0  0  0  0  0  0  0  0  0  0  0
  -24.1910  -36.7370   23.0760 C   0  0  0  0  0  1  0  0  0  0  0  0
  -25.4450  -36.3210   23.8630 C   0  0  0  0  0  3  0  0  0  0  0  0
  -27.5630  -37.2300   24.7180 C   0  0  0  0  0  1  0  0  0  0  0  0
  -26.4530  -37.4010   23.7840 N   0  0  0  0  0  0  0  0  0  0  0  0
  -26.0230  -38.3040   23.9630 H   0  0  0  0  0  0  0  0  0  0  0  0
  1  3  1  0
  2  1  2  0
  2  6  1  0
  3 56  1  0
  3  4  2  0
  4 51  1  0
  5  7  1  0
  5  4  1  0
  6  5  2  0
  7  8  1  0
  9 21  1  0
 10 15  1  0
 11 12  1  0
 11 10  1  0
 13 12  1  0
 13 25  1  0
 13 14  1  0
 15  9  1  0
 15 14  1  0
 16  9  2  0
 18 17  1  0
 18 21  1  0
 20 17  1  0
 20 19  1  0
 20  7  1  0
 21 19  1  0
 22 23  2  0
 23 42  1  0
 24 23  1  0
 24 27  1  0
 25 22  1  0
 25 26  1  0
 26 24  2  0
 27 28  1  0
 28 29  2  0
 30 33  1  0
 30 29  1  0
 31 30  2  0
 32 31  1  0
 32 27  2  0
 33 34  1  0
 34 39  2  0
 34 35  1  0
 35 36  2  0
 36 37  1  0
 37 41  1  0
 38 37  2  0
 39 38  1  0
 40 39  1  0
 42 43  1  0
 43 46  1  0
 43 45  1  0
 44 42  2  0
 47 48  1  0
 47 22  1  0
 49 47  1  0
 51 50  1  0
 51 53  1  0
 53 52  1  0
 53 54  1  0
 55 53  1  0
 57 59  1  0
 57 56  1  0
 58 69  2  0
 59 64  1  0
 60 68  1  0
 60 70  1  0
 61 67  1  0
 61 63  1  0
 62 68  1  0
 63 62  1  0
 64 63  2  0
 65 66  1  0
 65 59  2  0
 66 61  2  0
 67 60  1  0
 68 58  1  0
 70 72  2  0
 71 70  1  0
 73 71  1  0
 74 83  2  0
 74 79  1  0
 75 71  1  0
 75 79  1  0
 76 75  1  0
 77 78  1  0
 77 76  1  0
 78 74  1  0
 79 80  2  0
 80 81  1  0
 82 81  2  0
 83 82  1  0
 84 58  1  0
 84 89  1  0
 84 85  1  0
 85 88  1  1
 85 86  1  0
 87 85  1  0
 89 92  1  0
 90 94  1  0
 90 89  1  0
 91 90  2  0
 94 93  1  0
 96 94  1  0
 96 97  1  0
 96 95  1  0
M  ISO  4   9 100  21 100  56 101  57 101
M  END
>  <TORSDO>  (72) 
F 19

>  <SCORE>  (72) 
-11.200

>  <name>  (72) 
71

>  <ligand_id>  (72) 
71

>  <original_smiles>  (72) 
[H]c1nc(N([H])C2([H])C([H])([H])N(C(=O)N3C([H])([H])C([H])([H])C([H])([H])C([H])(n4nc(-c5c([H])c([H])c(Oc6c([H])c([H])c(F)c([H])c6F)c([H])c5[H])c(C(=O)N([H])[H])c4N([H])[H])C3([H])[H])C([H])([H])C2([H])[H])c(C([H])(C([H])([H])[H])[N+]([H])([H])C([H])([H])[H])c(C([H])([H])Oc2c([H])c([H])c3c(c2[H])C([H])([H])N(C(=O)C([H])(N([H])C(=O)C([H])(N([H])C([H])([H])[H])C([H])([H])[H])C(C([H])([H])[H])(C([H])([H])[H])C([H])([H])[H])C([H])(C(=O)N([H])C2([H])c4c([H])c([H])c([H])c([H])c4C([H])([H])C([H])([H])C2([H])[H])C3([H])[H])c1[H]

>  <smiles>  (72) 
[H]c1nc(N([H])C2([H])C([H])([H])N(C(=O)N3C([H])([H])C([H])([H])C([H])([H])C([H])(n4nc(-c5c([H])c([H])c(Oc6c([H])c([H])c(F)c([H])c6F)c([H])c5[H])c(C(=O)N([H])[H])c4N([H])[H])C3([H])[H])C([H])([H])C2([H])[H])c(C([H])(C([H])([H])[H])[N+]([H])([H])C([H])([H])[H])c(C([H])([H])Oc2c([H])c([H])c3c(c2[H])C([H])([H])N(C(=O)C([H])(N([H])C(=O)C([H])(N([H])C([H])([H])[H])C([H])([H])[H])C(C([H])([H])[H])(C([H])([H])[H])C([H])([H])[H])C([H])(C(=O)N([H])C2([H])c4c([H])c([H])c([H])c([H])c4C([H])([H])C([H])([H])C2([H])[H])C3([H])[H])c1[H]

$$$$
72:0:0
     RDKit          3D

 95 96  0  0  1  0  0  0  0  0999 V2000
  -25.2100  -25.5470   22.7810 C   0  0  0  0  0 15  0  0  0  0  0  0
  -26.6490  -24.3300   22.1260 C   0  0  0  0  0  3  0  0  0  0  0  0
  -26.7660  -23.2620   21.0430 C   0  0  0  0  0  0  0  0  0  0  0  0
  -28.1620  -24.3400   22.2560 C   0  0  0  0  0  0  0  0  0  0  0  0
  -29.3460  -22.5710   20.5750 C   0  0  0  0  0  3  0  0  0  0  0  0
  -25.4360  -22.8480   20.4490 C   0  0  0  0  0  1  0  0  0  0  0  0
  -28.6620  -25.3750   23.2400 C   0  0  0  0  0  1  0  0  0  0  0  0
  -27.9200  -22.5370   20.3840 N   0  0  0  0  0  0  0  0  0  0  0  0
  -29.2890  -23.5920   21.5850 N   0  0  0  0  0  0  0  0  0  0  0  0
  -30.9140  -21.9270   19.5130 C   0  0  0  0  0  1  0  0  0  0  0  0
  -33.5230  -20.1200   18.2200 C   0  0  0  0  0  0  0  0  0  0  0  0
  -34.9730  -18.1970   16.8210 C   0  0  0  0  0  2  0  0  0  0  0  0
  -34.2450  -17.2720   15.7740 C   0  0  0  0  0  2  0  0  0  0  0  0
  -33.4040  -16.1880   16.4660 C   0  0  0  0  0  2  0  0  0  0  0  0
  -32.7300  -16.8020   17.7090 C   0  0  0  0  0  3  0  0  0  0  0  0
  -33.6960  -17.5330   18.6460 C   0  0  0  0  0  2  0  0  0  0  0  0
  -34.0380  -18.7560   17.9480 N   0  0  0  0  0  0  0  0  0  0  0  0
  -34.3070  -20.8270   17.5200 O   0  0  0  0  0  0  0  0  0  0  0  0
  -32.2260  -20.6210   19.0950 N   0  0  0  0  0  0  0  0  0  0  0  0
  -31.9150  -19.7910   19.5770 H   0  0  0  0  0  0  0  0  0  0  0  0
  -30.7230  -16.1420   19.0600 C   0  0  0  0  0  0  0  0  0  0  0  0
  -30.3630  -14.9780   19.6660 C   0  0  0  0  0  0  0  0  0  0  0  0
  -31.4290  -14.0570   19.4220 C   0  0  0  0  0  0  0  0  0  0  0  0
  -31.9440  -15.8840   18.4760 N   0  0  0  0  0  0  0  0  0  0  0  0
  -32.4130  -14.6470   18.7570 N   0  0  0  0  0  0  0  0  0  0  0  0
  -31.5410  -12.6310   19.7320 C   0  0  0  0  0  0  0  0  0  0  0  0
  -32.6550  -12.1080   20.4210 C   0  0  0  0  0  3  0  0  0  0  0  0
  -32.7250  -10.7310   20.7200 C   0  0  0  0  0  3  0  0  0  0  0  0
  -31.6710   -9.8680   20.3340 C   0  0  0  0  0  0  0  0  0  0  0  0
  -30.5760  -10.3940   19.6250 C   0  0  0  0  0  3  0  0  0  0  0  0
  -30.5110  -11.7620   19.3230 C   0  0  0  0  0  3  0  0  0  0  0  0
  -31.6600   -8.5140   20.5620 O   0  0  0  0  0  0  0  0  0  0  0  0
  -32.3820   -7.9520   21.5840 C   0  0  0  0  0  0  0  0  0  0  0  0
  -32.1290   -8.2680   22.9370 C   0  0  0  0  0  3  0  0  0  0  0  0
  -32.8470   -7.6140   23.9570 C   0  0  0  0  0  3  0  0  0  0  0  0
  -33.8100   -6.6400   23.6290 C   0  0  0  0  0  0  0  0  0  0  0  0
  -34.0590   -6.3210   22.2820 C   0  0  0  0  0  3  0  0  0  0  0  0
  -33.3450   -6.9750   21.2630 C   0  0  0  0  0  0  0  0  0  0  0  0
  -33.5730   -6.6500   19.9670 F   0  0  0  0  0  0  0  0  0  0  0  0
  -34.4940   -6.0050   24.6090 F   0  0  0  0  0  0  0  0  0  0  0  0
  -29.0520  -14.7120   20.3390 C   0  0  0  0  0  0  0  0  0  0  0  0
  -29.0550  -13.8870   21.3780 N   0  0  0  0  0  0  0  0  0  0  0  0
  -28.0220  -15.2780   19.9730 O   0  0  0  0  0  0  0  0  0  0  0  0
  -29.9070  -13.4470   21.6950 H   0  0  0  0  0  0  0  0  0  0  0  0
  -28.1940  -13.6930   21.8690 H   0  0  0  0  0  0  0  0  0  0  0  0
  -30.1130  -17.3880   18.9350 N   0  0  0  0  0  0  0  0  0  0  0  0
  -29.1640  -17.5350   19.2600 H   0  0  0  0  0  0  0  0  0  0  0  0
  -30.4440  -18.1320   18.3350 H   0  0  0  0  0  0  0  0  0  0  0  0
  -23.7210  -26.0880   24.1490 C   0  0  0  0  0 15  0  0  0  0  0  0
  -22.5260  -27.5440   24.6500 N   0  0  0  0  0  2  0  0  0  0  0  0
  -21.7810  -27.1080   25.1730 H   0  0  0  0  0  0  0  0  0  0  0  0
  -23.1140  -27.9810   25.3460 H   0  0  0  0  0  0  0  0  0  0  0  0
  -21.7730  -29.1340   23.7280 C   0  0  0  0  0 15  0  0  0  0  0  0
  -21.5480  -29.2410   21.4200 C   0  0  0  0  0 15  0  0  0  0  0  0
  -22.9410  -28.3350   20.1600 O   0  0  0  0  0  1  0  0  0  0  0  0
  -24.7400  -32.0010   23.2460 C   0  0  0  0  0  0  0  0  0  0  0  0
  -24.4540  -28.0370   19.7910 C   0  0  0  0  0  3  0  0  0  0  0  0
  -23.6190  -30.3560   21.8250 C   0  0  0  0  0  3  0  0  0  0  0  0
  -24.1710  -30.3880   19.2610 C   0  0  0  0  0  3  0  0  0  0  0  0
  -25.7030  -31.2270   21.0540 C   0  0  0  0  0  2  0  0  0  0  0  0
  -25.3550  -30.2160   19.9600 C   0  0  0  0  0  3  0  0  0  0  0  0
  -25.6240  -28.8560   20.1070 C   0  0  0  0  0  2  0  0  0  0  0  0
  -24.3650  -28.0840   18.4260 C   0  0  0  0  0  2  0  0  0  0  0  0
  -23.8140  -29.3800   18.2790 C   0  0  0  0  0  2  0  0  0  0  0  0
  -23.2030  -30.8940   20.2840 C   0  0  0  0  0  2  0  0  0  0  0  0
  -24.7230  -31.1930   22.1550 N   0  0  0  0  0  0  0  0  0  0  0  0
  -23.7730  -32.1920   24.0060 O   0  0  0  0  0  0  0  0  0  0  0  0
  -23.7710  -28.6000   22.3740 C   0  0  0  0  0  0  0  0  0  0  0  0
  -22.7490  -27.3570   21.9990 N   0  0  0  0  0  0  0  0  0  0  0  0
  -24.4010  -28.5130   23.3800 O   0  0  0  0  0  0  0  0  0  0  0  0
  -23.2650  -26.4910   22.0000 H   0  0  0  0  0  0  0  0  0  0  0  0
  -18.0730  -27.2350   21.8520 C   0  0  0  0  0  0  0  0  0  0  0  0
  -20.8970  -26.9910   22.1270 C   0  0  0  0  0  3  0  0  0  0  0  0
  -20.7370  -25.9220   21.1590 C   0  0  0  0  0  2  0  0  0  0  0  0
  -19.5550  -26.0910   20.2540 C   0  0  0  0  0  2  0  0  0  0  0  0
  -18.2490  -26.0190   21.0150 C   0  0  0  0  0  2  0  0  0  0  0  0
  -19.2660  -27.8030   22.4340 C   0  0  0  0  0  0  0  0  0  0  0  0
  -18.7490  -28.8830   23.3240 C   0  0  0  0  0  3  0  0  0  0  0  0
  -17.4170  -29.4310   23.3990 C   0  0  0  0  0  3  0  0  0  0  0  0
  -16.3620  -28.8120   22.7280 C   0  0  0  0  0  3  0  0  0  0  0  0
  -16.7140  -27.6760   21.9930 C   0  0  0  0  0  3  0  0  0  0  0  0
  -26.0950  -32.6140   23.6110 C   0  0  0  0  0  3  0  0  0  0  0  0
  -25.8540  -33.9360   24.1900 N   0  0  0  0  0  0  0  0  0  0  0  0
  -25.9110  -35.0730   23.4870 C   0  0  0  0  0  0  0  0  0  0  0  0
  -26.2070  -35.1080   22.2900 O   0  0  0  0  0  0  0  0  0  0  0  0
  -25.5390  -33.9670   25.1480 H   0  0  0  0  0  0  0  0  0  0  0  0
  -24.1720  -36.8370   23.9240 C   0  0  0  0  0  1  0  0  0  0  0  0
  -25.6060  -36.3790   24.2370 C   0  0  0  0  0  3  0  0  0  0  0  0
  -27.9060  -37.2190   24.4380 C   0  0  0  0  0  1  0  0  0  0  0  0
  -26.5590  -37.4650   23.9240 N   0  0  0  0  0  0  0  0  0  0  0  0
  -26.2330  -38.3480   24.3090 H   0  0  0  0  0  0  0  0  0  0  0  0
  -26.8720  -31.6750   24.6060 C   0  0  1  0  0  0  0  0  0  0  0  0
  -26.0250  -31.2100   25.8150 C   0  0  0  0  0  1  0  0  0  0  0  0
  -27.4340  -30.4200   23.9000 C   0  0  0  0  0  1  0  0  0  0  0  0
  -28.1090  -32.4290   25.1300 C   0  0  0  0  0  1  0  0  0  0  0  0
  2  4  1  0
  3  2  2  0
  4  7  1  0
  5  9  1  0
  6  3  1  0
  8  5  2  0
  8  3  1  0
  9  4  2  0
 11 19  1  0
 12 17  1  0
 13 14  1  0
 13 12  1  0
 15 14  1  0
 15 24  1  0
 15 16  1  0
 17 11  1  0
 17 16  1  0
 18 11  2  0
 19 10  1  0
 19 20  1  0
 21 22  2  0
 22 41  1  0
 23 22  1  0
 23 26  1  0
 24 25  1  0
 24 21  1  0
 25 23  2  0
 26 27  1  0
 27 28  2  0
 29 32  1  0
 29 28  1  0
 30 29  2  0
 31 30  1  0
 31 26  2  0
 32 33  1  0
 33 34  1  0
 34 35  2  0
 36 35  1  0
 36 40  1  0
 37 36  2  0
 38 33  2  0
 38 37  1  0
 39 38  1  0
 41 42  1  0
 42 44  1  0
 42 45  1  0
 43 41  2  0
 46 21  1  0
 46 47  1  0
 48 46  1  0
 50 51  1  0
 50 52  1  0
 56 67  2  0
 57 62  1  0
 57 55  1  0
 58 66  1  0
 58 68  1  0
 59 64  1  0
 59 61  1  0
 59 65  1  0
 60 66  1  0
 61 62  1  0
 61 60  1  0
 63 57  1  0
 64 63  1  0
 65 58  1  0
 66 56  1  0
 68 70  2  0
 69 71  1  0
 69 68  1  0
 72 81  2  0
 72 77  1  0
 73 69  1  0
 73 77  1  0
 74 73  1  0
 75 76  1  0
 75 74  1  0
 76 72  1  0
 77 78  2  0
 78 79  1  0
 80 79  2  0
 81 80  1  0
 82 56  1  0
 82 83  1  0
 82 92  1  0
 83 86  1  0
 84 83  1  0
 84 88  1  0
 85 84  2  0
 88 87  1  0
 90 88  1  0
 90 91  1  0
 90 89  1  0
 92 95  1  1
 92 93  1  0
 94 92  1  0
M  ISO  4  11 100  19 100  54 101  55 101
M  END
>  <TORSDO>  (73) 
F 22

>  <SCORE>  (73) 
-9.540

>  <name>  (73) 
72

>  <ligand_id>  (73) 
72

>  <original_smiles>  (73) 
[H]c1c([H])c([H])c2c(c1[H])C([H])([H])C([H])([H])C([H])([H])C2([H])N([H])C(=O)C1([H])N(C(=O)C([H])(N([H])C(=O)C([H])(N([H])C([H])([H])[H])C([H])([H])[H])C(C([H])([H])[H])(C([H])([H])[H])C([H])([H])[H])C([H])([H])c2c([H])c(OC([H])([H])C([H])([H])[N+]([H])([H])C([H])([H])C([H])([H])c3c(C([H])([H])[H])nc(C([H])([H])N([H])C(=O)N4C([H])([H])C([H])([H])C([H])([H])C([H])(n5nc(-c6c([H])c([H])c(Oc7c([H])c([H])c(F)c([H])c7F)c([H])c6[H])c(C(=O)N([H])[H])c5N([H])[H])C4([H])[H])nc3C([H])([H])[H])c([H])c([H])c2C1([H])[H]

>  <smiles>  (73) 
[H]c1c([H])c([H])c2c(c1[H])C([H])([H])C([H])([H])C([H])([H])C2([H])N([H])C(=O)C1([H])N(C(=O)C([H])(N([H])C(=O)C([H])(N([H])C([H])([H])[H])C([H])([H])[H])C(C([H])([H])[H])(C([H])([H])[H])C([H])([H])[H])C([H])([H])c2c([H])c(OC([H])([H])C([H])([H])[N+]([H])([H])C([H])([H])C([H])([H])c3c(C([H])([H])[H])nc(C([H])([H])N([H])C(=O)N4C([H])([H])C([H])([H])C([H])([H])C([H])(n5nc(-c6c([H])c([H])c(Oc7c([H])c([H])c(F)c([H])c7F)c([H])c6[H])c(C(=O)N([H])[H])c5N([H])[H])C4([H])[H])nc3C([H])([H])[H])c([H])c([H])c2C1([H])[H]

$$$$
73:0:0
     RDKit          3D

 91 99  0  0  1  0  0  0  0  0999 V2000
  -29.6540  -21.6600   18.5690 C   0  0  0  0  0  2  0  0  0  0  0  0
  -29.0440  -22.3500   19.8820 C   0  0  0  0  0  3  0  0  0  0  0  0
  -29.7730  -19.2170   19.8930 C   0  0  0  0  0  3  0  0  0  0  0  0
  -28.7560  -20.6320   20.4150 C   0  0  0  0  0  3  0  0  0  0  0  0
  -29.9000  -20.0020   18.5060 C   0  0  2  0  0  0  0  0  0  0  0  0
  -31.2940  -19.7160   17.9190 C   0  0  0  0  0  1  0  0  0  0  0  0
  -28.8650  -19.4060   17.5260 C   0  0  0  0  0  1  0  0  0  0  0  0
  -30.4660  -16.0660   19.8660 C   0  0  0  0  0  0  0  0  0  0  0  0
  -30.5830  -13.5050   19.0810 C   0  0  0  0  0  2  0  0  0  0  0  0
  -29.6530  -13.0510   17.9190 C   0  0  0  0  0  2  0  0  0  0  0  0
  -28.2580  -12.6800   18.4440 C   0  0  0  0  0  2  0  0  0  0  0  0
  -27.7740  -13.6910   19.5040 C   0  0  0  0  0  3  0  0  0  0  0  0
  -28.8410  -14.0490   20.5640 C   0  0  0  0  0  2  0  0  0  0  0  0
  -29.9660  -14.6880   19.8420 N   0  0  0  0  0  0  0  0  0  0  0  0
  -31.6910  -16.0160   19.6510 O   0  0  0  0  0  0  0  0  0  0  0  0
  -29.6820  -17.4210   19.9480 N   0  0  0  0  0  0  0  0  0  0  0  0
  -28.7110  -17.1710   20.0710 H   0  0  0  0  0  0  0  0  0  0  0  0
  -25.4650  -14.2010   20.4260 C   0  0  0  0  0  0  0  0  0  0  0  0
  -24.4260  -13.4120   20.8260 C   0  0  0  0  0  0  0  0  0  0  0  0
  -24.8880  -12.0640   20.7220 C   0  0  0  0  0  0  0  0  0  0  0  0
  -26.4890  -13.3370   20.0890 N   0  0  0  0  0  0  0  0  0  0  0  0
  -26.1610  -12.0400   20.3340 N   0  0  0  0  0  0  0  0  0  0  0  0
  -24.1680  -10.7970   20.9070 C   0  0  0  0  0  0  0  0  0  0  0  0
  -24.5890   -9.8360   21.8530 C   0  0  0  0  0  3  0  0  0  0  0  0
  -23.8630   -8.6380   22.0290 C   0  0  0  0  0  3  0  0  0  0  0  0
  -22.7010   -8.3910   21.2590 C   0  0  0  0  0  0  0  0  0  0  0  0
  -22.2980   -9.3410   20.3030 C   0  0  0  0  0  3  0  0  0  0  0  0
  -23.0250  -10.5310   20.1250 C   0  0  0  0  0  3  0  0  0  0  0  0
  -21.9480   -7.2450   21.3440 O   0  0  0  0  0  0  0  0  0  0  0  0
  -21.8080   -6.5620   22.5250 C   0  0  0  0  0  0  0  0  0  0  0  0
  -21.1880   -7.1420   23.6540 C   0  0  0  0  0  3  0  0  0  0  0  0
  -21.0030   -6.3800   24.8240 C   0  0  0  0  0  3  0  0  0  0  0  0
  -21.4270   -5.0380   24.8670 C   0  0  0  0  0  0  0  0  0  0  0  0
  -22.0400   -4.4580   23.7430 C   0  0  0  0  0  3  0  0  0  0  0  0
  -22.2270   -5.2170   22.5740 C   0  0  0  0  0  0  0  0  0  0  0  0
  -22.7990   -4.6450   21.4860 F   0  0  0  0  0  0  0  0  0  0  0  0
  -21.2410   -4.3040   25.9890 F   0  0  0  0  0  0  0  0  0  0  0  0
  -23.0450  -13.8820   21.1820 C   0  0  0  0  0  0  0  0  0  0  0  0
  -22.3690  -13.1740   22.0760 N   0  0  0  0  0  0  0  0  0  0  0  0
  -22.5820  -14.9160   20.7030 O   0  0  0  0  0  0  0  0  0  0  0  0
  -22.7580  -12.3370   22.4870 H   0  0  0  0  0  0  0  0  0  0  0  0
  -21.4460  -13.4740   22.3580 H   0  0  0  0  0  0  0  0  0  0  0  0
  -25.6190  -15.5770   20.2850 N   0  0  0  0  0  0  0  0  0  0  0  0
  -24.8520  -16.2210   20.4450 H   0  0  0  0  0  0  0  0  0  0  0  0
  -26.4240  -16.0200   19.8620 H   0  0  0  0  0  0  0  0  0  0  0  0
  -28.5780  -20.5830   21.8750 N   0  0  0  0  0  4  0  0  0  0  0  0
  -29.4380  -20.7960   22.3470 H   0  0  0  0  0  0  0  0  0  0  0  0
  -28.2760  -19.6690   22.1600 H   0  0  0  0  0  0  0  0  0  0  0  0
  -27.8820  -21.2450   22.1660 H   0  0  0  0  0  0  0  0  0  0  0  0
  -28.1040  -24.0780   19.8270 C   0  0  0  0  0  2  0  0  0  0  0  0
  -28.2850  -25.8430   19.9190 O   0  0  0  0  0  0  0  0  0  0  0  0
  -24.7320  -31.9270   23.2540 C   0  0  0  0  0  0  0  0  0  0  0  0
  -27.3020  -27.0540   19.9540 C   0  0  0  0  0  0  0  0  0  0  0  0
  -23.5550  -30.6250   21.5340 C   0  0  0  0  0  3  0  0  0  0  0  0
  -25.0170  -29.0790   20.0220 C   0  0  0  0  0  0  0  0  0  0  0  0
  -26.1350  -30.7960   21.4200 C   0  0  0  0  0  2  0  0  0  0  0  0
  -26.2110  -29.4050   20.6750 C   0  0  0  0  0  0  0  0  0  0  0  0
  -27.3380  -28.4240   20.6070 C   0  0  0  0  0  3  0  0  0  0  0  0
  -26.0690  -26.9460   19.2600 C   0  0  0  0  0  3  0  0  0  0  0  0
  -24.9860  -27.8790   19.2900 C   0  0  0  0  0  3  0  0  0  0  0  0
  -23.8020  -30.0180   20.1220 C   0  0  0  0  0  2  0  0  0  0  0  0
  -24.8320  -31.1450   22.1240 N   0  0  0  0  0  0  0  0  0  0  0  0
  -23.6370  -32.1840   23.7820 O   0  0  0  0  0  0  0  0  0  0  0  0
  -22.8460  -29.5830   22.4420 C   0  0  0  0  0  0  0  0  0  0  0  0
  -21.5200  -29.4110   22.2910 N   0  0  0  0  0  0  0  0  0  0  0  0
  -23.5050  -28.9260   23.2520 O   0  0  0  0  0  0  0  0  0  0  0  0
  -21.0390  -29.9920   21.6180 H   0  0  0  0  0  0  0  0  0  0  0  0
  -18.1410  -28.1490   22.7430 C   0  0  0  0  0  0  0  0  0  0  0  0
  -20.7030  -28.4200   23.0030 C   0  0  0  0  0  3  0  0  0  0  0  0
  -20.8070  -27.0310   22.3300 C   0  0  0  0  0  2  0  0  0  0  0  0
  -19.6990  -26.7730   21.3030 C   0  0  0  0  0  2  0  0  0  0  0  0
  -18.3220  -26.8560   21.9660 C   0  0  0  0  0  2  0  0  0  0  0  0
  -19.2570  -28.8920   23.2150 C   0  0  0  0  0  0  0  0  0  0  0  0
  -19.0280  -30.1020   23.9070 C   0  0  0  0  0  3  0  0  0  0  0  0
  -17.7190  -30.5680   24.1290 C   0  0  0  0  0  3  0  0  0  0  0  0
  -16.6190  -29.8250   23.6660 C   0  0  0  0  0  3  0  0  0  0  0  0
  -16.8300  -28.6170   22.9790 C   0  0  0  0  0  3  0  0  0  0  0  0
  -25.9900  -32.5460   23.9370 C   0  0  0  0  0  3  0  0  0  0  0  0
  -26.4490  -31.7510   25.2230 C   0  0  1  0  0  0  0  0  0  0  0  0
  -25.3180  -31.5250   26.2550 C   0  0  0  0  0  1  0  0  0  0  0  0
  -27.0180  -30.3650   24.8460 C   0  0  0  0  0  1  0  0  0  0  0  0
  -27.5940  -32.5140   25.9290 C   0  0  0  0  0  1  0  0  0  0  0  0
  -25.6760  -33.9430   24.2990 N   0  0  0  0  0  0  0  0  0  0  0  0
  -26.0050  -35.0200   23.5750 C   0  0  0  0  0  0  0  0  0  0  0  0
  -26.6610  -34.9450   22.5340 O   0  0  0  0  0  0  0  0  0  0  0  0
  -25.0930  -34.0740   25.1110 H   0  0  0  0  0  0  0  0  0  0  0  0
  -24.2750  -36.8370   23.3170 C   0  0  0  0  0  1  0  0  0  0  0  0
  -25.5370  -36.4020   24.0820 C   0  0  0  0  0  3  0  0  0  0  0  0
  -27.6820  -37.2810   24.8950 C   0  0  0  0  0  1  0  0  0  0  0  0
  -26.5690  -37.4560   23.9660 N   0  0  0  0  0  0  0  0  0  0  0  0
  -26.1650  -38.3760   24.1250 H   0  0  0  0  0  0  0  0  0  0  0  0
  1  2  1  0
  2 50  1  0
  2  4  1  0
  3 16  1  0
  3  4  1  0
  4 46  1  0
  5  1  1  0
  5  3  1  0
  5  6  1  6
  7  5  1  0
  8 16  1  0
  9 14  1  0
 10 11  1  0
 10  9  1  0
 12 11  1  0
 12 21  1  0
 12 13  1  0
 14  8  1  0
 14 13  1  0
 15  8  2  0
 16 17  1  0
 18 19  2  0
 19 38  1  0
 20 19  1  0
 20 23  1  0
 21 22  1  0
 21 18  1  0
 22 20  2  0
 23 24  1  0
 24 25  2  0
 26 29  1  0
 26 25  1  0
 27 26  2  0
 28 27  1  0
 28 23  2  0
 29 30  1  0
 30 35  2  0
 30 31  1  0
 31 32  2  0
 32 33  1  0
 33 37  1  0
 34 33  2  0
 35 34  1  0
 36 35  1  0
 38 39  1  0
 39 42  1  0
 39 41  1  0
 40 38  2  0
 43 18  1  0
 43 44  1  0
 45 43  1  0
 46 48  1  0
 46 49  1  0
 46 47  1  0
 50 51  1  0
 51 53  1  0
 52 63  2  0
 53 58  1  0
 54 62  1  0
 54 64  1  0
 55 61  1  0
 55 57  1  0
 56 62  1  0
 57 56  1  0
 58 57  2  0
 59 60  1  0
 59 53  2  0
 60 55  2  0
 61 54  1  0
 62 52  1  0
 64 66  2  0
 65 64  1  0
 67 65  1  0
 68 77  2  0
 68 73  1  0
 69 65  1  0
 69 73  1  0
 70 69  1  0
 71 72  1  0
 71 70  1  0
 72 68  1  0
 73 74  2  0
 74 75  1  0
 76 75  2  0
 77 76  1  0
 78 52  1  0
 78 83  1  0
 78 79  1  0
 79 82  1  1
 79 80  1  0
 81 79  1  0
 83 86  1  0
 84 88  1  0
 84 83  1  0
 85 84  2  0
 88 87  1  0
 90 88  1  0
 90 91  1  0
 90 89  1  0
M  ISO  4   8 100  16 100  50 101  51 101
M  END
>  <TORSDO>  (74) 
F 18

>  <SCORE>  (74) 
-15.792

>  <name>  (74) 
73

>  <ligand_id>  (74) 
73

>  <original_smiles>  (74) 
[H]c1c([H])c([H])c2c(c1[H])C([H])([H])C([H])([H])C([H])([H])C2([H])N([H])C(=O)C1([H])N(C(=O)C([H])(N([H])C(=O)C([H])(N([H])C([H])([H])[H])C([H])([H])[H])C(C([H])([H])[H])(C([H])([H])[H])C([H])([H])[H])C([H])([H])c2c([H])c(OC([H])([H])C3([H])C([H])([H])C(C([H])([H])[H])(C([H])([H])[H])C([H])(N([H])C(=O)N4C([H])([H])C([H])([H])C([H])([H])C([H])(n5nc(-c6c([H])c([H])c(Oc7c([H])c([H])c(F)c([H])c7F)c([H])c6[H])c(C(=O)N([H])[H])c5N([H])[H])C4([H])[H])C3([H])[N+]([H])([H])[H])c([H])c([H])c2C1([H])[H]

>  <smiles>  (74) 
[H]c1c([H])c([H])c2c(c1[H])C([H])([H])C([H])([H])C([H])([H])C2([H])N([H])C(=O)C1([H])N(C(=O)C([H])(N([H])C(=O)C([H])(N([H])C([H])([H])[H])C([H])([H])[H])C(C([H])([H])[H])(C([H])([H])[H])C([H])([H])[H])C([H])([H])c2c([H])c(OC([H])([H])C3([H])C([H])([H])C(C([H])([H])[H])(C([H])([H])[H])C([H])(N([H])C(=O)N4C([H])([H])C([H])([H])C([H])([H])C([H])(n5nc(-c6c([H])c([H])c(Oc7c([H])c([H])c(F)c([H])c7F)c([H])c6[H])c(C(=O)N([H])[H])c5N([H])[H])C4([H])[H])C3([H])[N+]([H])([H])[H])c([H])c([H])c2C1([H])[H]

$$$$
74:0:0
     RDKit          3D

 90 99  0  0  1  0  0  0  0  0999 V2000
  -30.4160  -15.7120   20.2330 C   0  0  0  0  0  0  0  0  0  0  0  0
  -30.5200  -13.1290   19.5620 C   0  0  0  0  0  2  0  0  0  0  0  0
  -29.6490  -12.6510   18.3640 C   0  0  0  0  0  2  0  0  0  0  0  0
  -28.2110  -12.3400   18.8060 C   0  0  0  0  0  2  0  0  0  0  0  0
  -27.6810  -13.4280   19.7640 C   0  0  0  0  0  3  0  0  0  0  0  0
  -28.6800  -13.7860   20.8910 C   0  0  0  0  0  2  0  0  0  0  0  0
  -29.8880  -14.3480   20.2430 N   0  0  0  0  0  0  0  0  0  0  0  0
  -31.6500  -15.6430   20.0810 O   0  0  0  0  0  0  0  0  0  0  0  0
  -28.3870  -19.5790   20.5990 C   0  0  0  0  0  3  0  0  0  0  0  0
  -28.0900  -21.0680   20.4840 C   0  0  0  0  0  0  0  0  0  0  0  0
  -28.8620  -22.1460   19.8120 C   0  0  0  0  0  0  0  0  0  0  0  0
  -30.0020  -21.2730   19.3580 C   0  0  0  0  0  0  0  0  0  0  0  0
  -29.5170  -18.7610   20.1060 C   0  0  0  0  0  0  0  0  0  0  0  0
  -26.7920  -21.5040   21.1380 C   0  0  0  0  0  1  0  0  0  0  0  0
  -30.2740  -19.8190   19.4960 N   0  0  0  0  0  0  0  0  0  0  0  0
  -29.6130  -17.0450   20.2560 N   0  0  0  0  0  0  0  0  0  0  0  0
  -28.6800  -16.7250   20.4560 H   0  0  0  0  0  0  0  0  0  0  0  0
  -25.3220  -14.0540   20.4760 C   0  0  0  0  0  0  0  0  0  0  0  0
  -24.2260  -13.3150   20.8160 C   0  0  0  0  0  0  0  0  0  0  0  0
  -24.6460  -11.9490   20.7920 C   0  0  0  0  0  0  0  0  0  0  0  0
  -26.3380  -13.1450   20.2530 N   0  0  0  0  0  0  0  0  0  0  0  0
  -25.9430  -11.8700   20.5130 N   0  0  0  0  0  0  0  0  0  0  0  0
  -23.8690  -10.7130   20.9580 C   0  0  0  0  0  0  0  0  0  0  0  0
  -24.2680   -9.7030   21.8590 C   0  0  0  0  0  3  0  0  0  0  0  0
  -23.4910   -8.5360   22.0170 C   0  0  0  0  0  3  0  0  0  0  0  0
  -22.2970   -8.3700   21.2750 C   0  0  0  0  0  0  0  0  0  0  0  0
  -21.9150   -9.3710   20.3630 C   0  0  0  0  0  3  0  0  0  0  0  0
  -22.6930  -10.5290   20.2030 C   0  0  0  0  0  3  0  0  0  0  0  0
  -21.4910   -7.2600   21.3450 O   0  0  0  0  0  0  0  0  0  0  0  0
  -21.4650   -6.4580   22.4580 C   0  0  0  0  0  0  0  0  0  0  0  0
  -21.1450   -6.9690   23.7350 C   0  0  0  0  0  3  0  0  0  0  0  0
  -21.0600   -6.0990   24.8410 C   0  0  0  0  0  3  0  0  0  0  0  0
  -21.2870   -4.7200   24.6710 C   0  0  0  0  0  0  0  0  0  0  0  0
  -21.5990   -4.2100   23.4000 C   0  0  0  0  0  3  0  0  0  0  0  0
  -21.6860   -5.0760   22.2960 C   0  0  0  0  0  0  0  0  0  0  0  0
  -21.9670   -4.5750   21.0690 F   0  0  0  0  0  0  0  0  0  0  0  0
  -21.1980   -3.8830   25.7320 F   0  0  0  0  0  0  0  0  0  0  0  0
  -22.8400  -13.8430   21.0480 C   0  0  0  0  0  0  0  0  0  0  0  0
  -22.0650  -13.1810   21.8990 N   0  0  0  0  0  0  0  0  0  0  0  0
  -22.4550  -14.8800   20.5090 O   0  0  0  0  0  0  0  0  0  0  0  0
  -22.3830  -12.3410   22.3590 H   0  0  0  0  0  0  0  0  0  0  0  0
  -21.1350  -13.5220   22.0990 H   0  0  0  0  0  0  0  0  0  0  0  0
  -25.5390  -15.4200   20.3050 N   0  0  0  0  0  0  0  0  0  0  0  0
  -24.7950  -16.1030   20.4010 H   0  0  0  0  0  0  0  0  0  0  0  0
  -26.3980  -15.8240   19.9590 H   0  0  0  0  0  0  0  0  0  0  0  0
  -32.5550  -21.6150   18.7180 C   0  0  0  0  0  2  0  0  0  0  0  0
  -32.0280  -22.8820   19.3400 C   0  0  0  0  0  2  0  0  0  0  0  0
  -31.0850  -21.9680   18.5860 C   0  0  0  0  0  3  0  0  0  0  0  0
  -28.2660  -23.8780   19.3750 C   0  0  0  0  0  2  0  0  0  0  0  0
  -28.4180  -25.5870   19.7410 O   0  0  0  0  0  0  0  0  0  0  0  0
  -24.6860  -31.6020   22.9160 C   0  0  0  0  0  0  0  0  0  0  0  0
  -27.4110  -26.7730   19.7000 C   0  0  0  0  0  0  0  0  0  0  0  0
  -23.5470  -30.2270   21.2270 C   0  0  0  0  0  3  0  0  0  0  0  0
  -25.0530  -28.7050   19.7350 C   0  0  0  0  0  0  0  0  0  0  0  0
  -26.1150  -30.4890   21.0920 C   0  0  0  0  0  2  0  0  0  0  0  0
  -26.2360  -29.0850   20.3810 C   0  0  0  0  0  0  0  0  0  0  0  0
  -27.3940  -28.1460   20.3390 C   0  0  0  0  0  3  0  0  0  0  0  0
  -26.1880  -26.6090   18.9970 C   0  0  0  0  0  3  0  0  0  0  0  0
  -25.0660  -27.4960   19.0180 C   0  0  0  0  0  3  0  0  0  0  0  0
  -23.8060  -29.6000   19.8260 C   0  0  0  0  0  2  0  0  0  0  0  0
  -24.8060  -30.8040   21.8010 N   0  0  0  0  0  0  0  0  0  0  0  0
  -23.5850  -31.8270   23.4500 O   0  0  0  0  0  0  0  0  0  0  0  0
  -22.8800  -29.1790   22.1600 C   0  0  0  0  0  0  0  0  0  0  0  0
  -21.5460  -29.0010   22.0680 N   0  0  0  0  0  0  0  0  0  0  0  0
  -23.5750  -28.5220   22.9400 O   0  0  0  0  0  0  0  0  0  0  0  0
  -21.0290  -29.5800   21.4210 H   0  0  0  0  0  0  0  0  0  0  0  0
  -18.2010  -27.7100   22.6450 C   0  0  0  0  0  0  0  0  0  0  0  0
  -20.7690  -28.0020   22.8110 C   0  0  0  0  0  3  0  0  0  0  0  0
  -20.8620  -26.6120   22.1370 C   0  0  0  0  0  2  0  0  0  0  0  0
  -19.7190  -26.3430   21.1520 C   0  0  0  0  0  2  0  0  0  0  0  0
  -18.3650  -26.4170   21.8640 C   0  0  0  0  0  2  0  0  0  0  0  0
  -19.3270  -28.4610   23.0760 C   0  0  0  0  0  0  0  0  0  0  0  0
  -19.1140  -29.6720   23.7720 C   0  0  0  0  0  3  0  0  0  0  0  0
  -17.8100  -30.1300   24.0390 C   0  0  0  0  0  3  0  0  0  0  0  0
  -16.7000  -29.3760   23.6200 C   0  0  0  0  0  3  0  0  0  0  0  0
  -16.8970  -28.1660   22.9280 C   0  0  0  0  0  3  0  0  0  0  0  0
  -25.9220  -32.2840   23.5760 C   0  0  0  0  0  3  0  0  0  0  0  0
  -25.5310  -33.6410   24.0070 N   0  0  0  0  0  0  0  0  0  0  0  0
  -25.7780  -34.7680   23.3240 C   0  0  0  0  0  0  0  0  0  0  0  0
  -26.4140  -34.7780   22.2680 O   0  0  0  0  0  0  0  0  0  0  0  0
  -24.9650  -33.7020   24.8410 H   0  0  0  0  0  0  0  0  0  0  0  0
  -23.9270  -36.4750   23.1820 C   0  0  0  0  0  1  0  0  0  0  0  0
  -25.2310  -36.0910   23.8990 C   0  0  0  0  0  3  0  0  0  0  0  0
  -27.3500  -37.0640   24.6810 C   0  0  0  0  0  1  0  0  0  0  0  0
  -26.1880  -37.2170   23.8110 N   0  0  0  0  0  0  0  0  0  0  0  0
  -25.7330  -38.0930   24.0470 H   0  0  0  0  0  0  0  0  0  0  0  0
  -26.4860  -31.4760   24.8100 C   0  0  1  0  0  0  0  0  0  0  0  0
  -25.4210  -31.1440   25.8800 C   0  0  0  0  0  1  0  0  0  0  0  0
  -27.1220  -30.1430   24.3560 C   0  0  0  0  0  1  0  0  0  0  0  0
  -27.6050  -32.2900   25.5020 C   0  0  0  0  0  1  0  0  0  0  0  0
  1  7  1  0
  1 16  1  0
  2  7  1  0
  3  4  1  0
  3  2  1  0
  5  4  1  0
  5 21  1  0
  5  6  1  0
  7  6  1  0
  8  1  2  0
 10  9  1  0
 10 14  1  0
 11 10  2  0
 12 15  2  0
 12 11  1  0
 13 16  1  0
 13  9  2  0
 15 13  1  0
 16 17  1  0
 18 19  2  0
 19 38  1  0
 20 19  1  0
 20 23  1  0
 21 18  1  0
 21 22  1  0
 22 20  2  0
 23 24  1  0
 24 25  2  0
 26 29  1  0
 26 25  1  0
 27 26  2  0
 28 27  1  0
 28 23  2  0
 29 30  1  0
 30 31  1  0
 31 32  2  0
 33 32  1  0
 33 37  1  0
 34 33  2  0
 35 30  2  0
 35 34  1  0
 36 35  1  0
 38 39  1  0
 39 42  1  0
 39 41  1  0
 40 38  2  0
 43 44  1  0
 43 18  1  0
 45 43  1  0
 46 47  1  0
 48 46  1  0
 48 47  1  0
 48 12  1  0
 49 50  1  0
 49 11  1  0
 51 62  2  0
 52 50  1  0
 52 57  1  0
 53 61  1  0
 53 63  1  0
 54 60  1  0
 54 56  1  0
 55 61  1  0
 56 55  1  0
 57 56  2  0
 58 59  1  0
 58 52  2  0
 59 54  2  0
 60 53  1  0
 61 51  1  0
 63 65  2  0
 64 63  1  0
 66 64  1  0
 67 76  2  0
 67 72  1  0
 68 64  1  0
 68 72  1  0
 69 68  1  0
 70 71  1  0
 70 69  1  0
 71 67  1  0
 72 73  2  0
 73 74  1  0
 75 74  2  0
 76 75  1  0
 77 51  1  0
 77 78  1  0
 77 87  1  0
 78 81  1  0
 79 83  1  0
 79 78  1  0
 80 79  2  0
 83 82  1  0
 85 83  1  0
 85 86  1  0
 85 84  1  0
 87 90  1  1
 87 88  1  0
 89 87  1  0
M  ISO  4   1 100  16 100  49 101  50 101
M  END
>  <TORSDO>  (75) 
F 17

>  <SCORE>  (75) 
-13.744

>  <name>  (75) 
74

>  <ligand_id>  (75) 
74

>  <original_smiles>  (75) 
[H]c1c([H])c([H])c2c(c1[H])C([H])([H])C([H])([H])C([H])([H])C2([H])N([H])C(=O)C1([H])N(C(=O)C([H])(N([H])C(=O)C([H])(N([H])C([H])([H])[H])C([H])([H])[H])C(C([H])([H])[H])(C([H])([H])[H])C([H])([H])[H])C([H])([H])c2c([H])c(OC([H])([H])c3c(C4([H])C([H])([H])C4([H])[H])nc(N([H])C(=O)N4C([H])([H])C([H])([H])C([H])([H])C([H])(n5nc(-c6c([H])c([H])c(Oc7c([H])c([H])c(F)c([H])c7F)c([H])c6[H])c(C(=O)N([H])[H])c5N([H])[H])C4([H])[H])c([H])c3C([H])([H])[H])c([H])c([H])c2C1([H])[H]

>  <smiles>  (75) 
[H]c1c([H])c([H])c2c(c1[H])C([H])([H])C([H])([H])C([H])([H])C2([H])N([H])C(=O)C1([H])N(C(=O)C([H])(N([H])C(=O)C([H])(N([H])C([H])([H])[H])C([H])([H])[H])C(C([H])([H])[H])(C([H])([H])[H])C([H])([H])[H])C([H])([H])c2c([H])c(OC([H])([H])c3c(C4([H])C([H])([H])C4([H])[H])nc(N([H])C(=O)N4C([H])([H])C([H])([H])C([H])([H])C([H])(n5nc(-c6c([H])c([H])c(Oc7c([H])c([H])c(F)c([H])c7F)c([H])c6[H])c(C(=O)N([H])[H])c5N([H])[H])C4([H])[H])c([H])c3C([H])([H])[H])c([H])c([H])c2C1([H])[H]

$$$$
75:0:0
     RDKit          3D

 94102  0  0  1  0  0  0  0  0999 V2000
  -29.2730  -20.7770   20.0840 C   0  0  0  0  0  2  0  0  0  0  0  0
  -29.3790  -22.2520   19.4980 N   0  0  0  0  0  4  0  0  0  0  0  0
  -29.3900  -22.0850   18.5060 H   0  0  0  0  0  0  0  0  0  0  0  0
  -30.3020  -22.6000   19.6980 H   0  0  0  0  0  0  0  0  0  0  0  0
  -28.3450  -23.4710   19.6070 C   0  0  0  0  0  2  0  0  0  0  0  0
  -29.8550  -24.9170   21.1850 C   0  0  0  0  0  1  0  0  0  0  0  0
  -28.5240  -24.9400   20.4240 C   0  0  0  0  0  3  0  0  0  0  0  0
  -28.4400  -26.4070   19.8880 O   0  0  0  0  0  0  0  0  0  0  0  0
  -24.8050  -31.9340   23.2160 C   0  0  0  0  0  0  0  0  0  0  0  0
  -27.3310  -27.3170   20.0070 C   0  0  0  0  0  0  0  0  0  0  0  0
  -23.5620  -30.5650   21.5860 C   0  0  0  0  0  3  0  0  0  0  0  0
  -24.9750  -29.0250   20.0870 C   0  0  0  0  0  0  0  0  0  0  0  0
  -26.1040  -30.8630   21.3360 C   0  0  0  0  0  2  0  0  0  0  0  0
  -26.1710  -29.4830   20.6570 C   0  0  0  0  0  0  0  0  0  0  0  0
  -27.3490  -28.6490   20.5910 C   0  0  0  0  0  3  0  0  0  0  0  0
  -26.1050  -26.9490   19.4170 C   0  0  0  0  0  3  0  0  0  0  0  0
  -24.9530  -27.7700   19.4540 C   0  0  0  0  0  3  0  0  0  0  0  0
  -23.7410  -29.9120   20.1900 C   0  0  0  0  0  2  0  0  0  0  0  0
  -24.8450  -31.1390   22.1020 N   0  0  0  0  0  0  0  0  0  0  0  0
  -23.7370  -32.1960   23.7880 O   0  0  0  0  0  0  0  0  0  0  0  0
  -22.9230  -29.5310   22.5490 C   0  0  0  0  0  0  0  0  0  0  0  0
  -21.6040  -29.3080   22.4230 N   0  0  0  0  0  0  0  0  0  0  0  0
  -23.6200  -28.9320   23.3700 O   0  0  0  0  0  0  0  0  0  0  0  0
  -21.0960  -29.8430   21.7330 H   0  0  0  0  0  0  0  0  0  0  0  0
  -18.2840  -27.9400   22.8850 C   0  0  0  0  0  0  0  0  0  0  0  0
  -20.8210  -28.3380   23.1920 C   0  0  0  0  0  3  0  0  0  0  0  0
  -21.0060  -26.9080   22.6350 C   0  0  0  0  0  2  0  0  0  0  0  0
  -19.9400  -26.5170   21.6060 C   0  0  0  0  0  2  0  0  0  0  0  0
  -18.5420  -26.5960   22.2270 C   0  0  0  0  0  2  0  0  0  0  0  0
  -19.3540  -28.7650   23.3250 C   0  0  0  0  0  0  0  0  0  0  0  0
  -19.0580  -30.0200   23.9000 C   0  0  0  0  0  3  0  0  0  0  0  0
  -17.7250  -30.4520   24.0410 C   0  0  0  0  0  3  0  0  0  0  0  0
  -16.6710  -29.6240   23.6190 C   0  0  0  0  0  3  0  0  0  0  0  0
  -16.9500  -28.3710   23.0450 C   0  0  0  0  0  3  0  0  0  0  0  0
  -26.0990  -32.5640   23.8150 C   0  0  0  0  0  3  0  0  0  0  0  0
  -25.7930  -33.9580   24.1730 N   0  0  0  0  0  0  0  0  0  0  0  0
  -26.1180  -35.0260   23.4320 C   0  0  0  0  0  0  0  0  0  0  0  0
  -26.7720  -34.9400   22.3890 O   0  0  0  0  0  0  0  0  0  0  0  0
  -25.2040  -34.0980   24.9800 H   0  0  0  0  0  0  0  0  0  0  0  0
  -24.3910  -36.8350   23.1420 C   0  0  0  0  0  1  0  0  0  0  0  0
  -25.6430  -36.4070   23.9250 C   0  0  0  0  0  3  0  0  0  0  0  0
  -27.7950  -37.2690   24.7370 C   0  0  0  0  0  1  0  0  0  0  0  0
  -26.6770  -37.4600   23.8170 N   0  0  0  0  0  0  0  0  0  0  0  0
  -26.2760  -38.3770   23.9920 H   0  0  0  0  0  0  0  0  0  0  0  0
  -26.6420  -31.7820   25.0740 C   0  0  1  0  0  0  0  0  0  0  0  0
  -25.5590  -31.4890   26.1400 C   0  0  0  0  0  1  0  0  0  0  0  0
  -27.2660  -30.4300   24.6560 C   0  0  0  0  0  1  0  0  0  0  0  0
  -27.7650  -32.6000   25.7540 C   0  0  0  0  0  1  0  0  0  0  0  0
  -29.7990  -19.3400   19.2980 C   0  0  0  0  0  2  0  0  0  0  0  0
  -30.9900  -15.2670   19.4380 C   0  0  0  0  0  0  0  0  0  0  0  0
  -30.7500  -12.9330   18.4170 C   0  0  0  0  0  2  0  0  0  0  0  0
  -29.6610  -12.8930   17.3150 C   0  0  0  0  0  2  0  0  0  0  0  0
  -28.2690  -12.6350   17.9250 C   0  0  0  0  0  2  0  0  0  0  0  0
  -28.0110  -13.5180   19.1690 C   0  0  0  0  0  3  0  0  0  0  0  0
  -29.2000  -13.4830   20.1390 C   0  0  0  0  0  2  0  0  0  0  0  0
  -30.3830  -13.9930   19.4120 N   0  0  0  0  0  0  0  0  0  0  0  0
  -32.0640  -15.3620   18.8330 O   0  0  0  0  0  0  0  0  0  0  0  0
  -30.9800  -18.4400   21.4200 C   0  0  0  0  0  2  0  0  0  0  0  0
  -30.1080  -16.2520   21.4480 C   0  0  0  0  0  2  0  0  0  0  0  0
  -31.0900  -17.1480   22.1950 C   0  0  0  0  0  3  0  0  0  0  0  0
  -30.6800  -18.0320   19.9610 C   0  0  0  0  0  3  0  0  0  0  0  0
  -30.3600  -16.4420   20.0070 N   0  0  0  0  0  0  0  0  0  0  0  0
  -25.7830  -14.0570   20.3090 C   0  0  0  0  0  0  0  0  0  0  0  0
  -24.7780  -13.2660   20.7910 C   0  0  0  0  0  0  0  0  0  0  0  0
  -25.2120  -11.9190   20.6040 C   0  0  0  0  0  0  0  0  0  0  0  0
  -26.7590  -13.1920   19.8440 N   0  0  0  0  0  0  0  0  0  0  0  0
  -26.4350  -11.8940   20.0840 N   0  0  0  0  0  0  0  0  0  0  0  0
  -24.5050  -10.6510   20.8300 C   0  0  0  0  0  0  0  0  0  0  0  0
  -24.9300   -9.7320   21.8160 C   0  0  0  0  0  3  0  0  0  0  0  0
  -24.2210   -8.5300   22.0270 C   0  0  0  0  0  3  0  0  0  0  0  0
  -23.0740   -8.2380   21.2540 C   0  0  0  0  0  0  0  0  0  0  0  0
  -22.6660   -9.1450   20.2590 C   0  0  0  0  0  3  0  0  0  0  0  0
  -23.3750  -10.3390   20.0460 C   0  0  0  0  0  3  0  0  0  0  0  0
  -22.3410   -7.0800   21.3670 O   0  0  0  0  0  0  0  0  0  0  0  0
  -22.0920   -6.5010   22.5870 C   0  0  0  0  0  0  0  0  0  0  0  0
  -21.4510   -7.2040   23.6270 C   0  0  0  0  0  3  0  0  0  0  0  0
  -21.1510   -6.5510   24.8390 C   0  0  0  0  0  3  0  0  0  0  0  0
  -21.4860   -5.1940   25.0100 C   0  0  0  0  0  0  0  0  0  0  0  0
  -22.1250   -4.4910   23.9730 C   0  0  0  0  0  3  0  0  0  0  0  0
  -22.4260   -5.1430   22.7640 C   0  0  0  0  0  0  0  0  0  0  0  0
  -23.0200   -4.4550   21.7600 F   0  0  0  0  0  0  0  0  0  0  0  0
  -21.1940   -4.5640   26.1710 F   0  0  0  0  0  0  0  0  0  0  0  0
  -23.4460  -13.7370   21.3010 C   0  0  0  0  0  0  0  0  0  0  0  0
  -22.8830  -13.0380   22.2800 N   0  0  0  0  0  0  0  0  0  0  0  0
  -22.9200  -14.7610   20.8690 O   0  0  0  0  0  0  0  0  0  0  0  0
  -23.3240  -12.2130   22.6570 H   0  0  0  0  0  0  0  0  0  0  0  0
  -21.9950  -13.3390   22.6590 H   0  0  0  0  0  0  0  0  0  0  0  0
  -25.9360  -15.4370   20.2050 N   0  0  0  0  0  0  0  0  0  0  0  0
  -25.1970  -16.0740   20.4790 H   0  0  0  0  0  0  0  0  0  0  0  0
  -26.7180  -15.9040   19.7650 H   0  0  0  0  0  0  0  0  0  0  0  0
  -31.1390  -16.0930   24.4650 C   0  0  0  0  0  1  0  0  0  0  0  0
  -30.8110  -17.2800   23.6460 N   0  0  0  0  0  4  0  0  0  0  0  0
  -29.8420  -17.5100   23.7960 H   0  0  0  0  0  0  0  0  0  0  0  0
  -31.3540  -18.0490   24.0090 H   0  0  0  0  0  0  0  0  0  0  0  0
  2  5  1  0
  2  4  1  0
  2  1  1  0
  3  2  1  0
  5  7  1  0
  7  6  1  0
  8 10  1  0
  8  7  1  0
  9 20  2  0
 10 15  1  0
 11 19  1  0
 11 21  1  0
 12 18  1  0
 12 14  1  0
 13 19  1  0
 14 13  1  0
 15 14  2  0
 16 17  1  0
 16 10  2  0
 17 12  2  0
 18 11  1  0
 19  9  1  0
 21 23  2  0
 22 21  1  0
 24 22  1  0
 25 34  2  0
 25 30  1  0
 26 22  1  0
 26 30  1  0
 27 26  1  0
 28 29  1  0
 28 27  1  0
 29 25  1  0
 30 31  2  0
 31 32  1  0
 33 32  2  0
 34 33  1  0
 35  9  1  0
 35 36  1  0
 35 45  1  0
 36 39  1  0
 37 41  1  0
 37 36  1  0
 38 37  2  0
 41 40  1  0
 43 41  1  0
 43 44  1  0
 43 42  1  0
 45 48  1  1
 45 46  1  0
 47 45  1  0
 49  1  1  0
 50 62  1  0
 51 56  1  0
 52 53  1  0
 52 51  1  0
 54 53  1  0
 54 66  1  0
 54 55  1  0
 56 50  1  0
 56 55  1  0
 57 50  2  0
 58 60  1  0
 59 60  1  0
 60 92  1  0
 61 49  1  0
 61 62  1  0
 61 58  1  0
 62 59  1  0
 63 64  2  0
 64 83  1  0
 65 64  1  0
 65 68  1  0
 66 67  1  0
 66 63  1  0
 67 65  2  0
 68 69  1  0
 69 70  2  0
 71 74  1  0
 71 70  1  0
 72 71  2  0
 73 72  1  0
 73 68  2  0
 74 75  1  0
 75 80  2  0
 75 76  1  0
 76 77  2  0
 77 78  1  0
 78 82  1  0
 79 78  2  0
 80 79  1  0
 81 80  1  0
 83 84  1  0
 84 86  1  0
 84 87  1  0
 85 83  2  0
 88 63  1  0
 88 89  1  0
 90 88  1  0
 92 93  1  0
 92 94  1  0
 92 91  1  0
M  ISO  4   7 101   8 101  50 100  62 100
M  END
>  <TORSDO>  (76) 
F 21

>  <SCORE>  (76) 
-8.053

>  <name>  (76) 
75

>  <ligand_id>  (76) 
75

>  <original_smiles>  (76) 
[H]c1c([H])c([H])c2c(c1[H])C([H])([H])C([H])([H])C([H])([H])C2([H])N([H])C(=O)C1([H])N(C(=O)C([H])(N([H])C(=O)C([H])(N([H])C([H])([H])[H])C([H])([H])[H])C(C([H])([H])[H])(C([H])([H])[H])C([H])([H])[H])C([H])([H])c2c([H])c(OC([H])(C([H])([H])[H])C([H])([H])[N+]([H])([H])C([H])([H])C([H])([H])C3([H])N(C(=O)N4C([H])([H])C([H])([H])C([H])([H])C([H])(n5nc(-c6c([H])c([H])c(Oc7c([H])c([H])c(F)c([H])c7F)c([H])c6[H])c(C(=O)N([H])[H])c5N([H])[H])C4([H])[H])C([H])([H])C([H])([N+]([H])([H])C([H])([H])[H])C3([H])[H])c([H])c([H])c2C1([H])[H]

>  <smiles>  (76) 
[H]c1c([H])c([H])c2c(c1[H])C([H])([H])C([H])([H])C([H])([H])C2([H])N([H])C(=O)C1([H])N(C(=O)C([H])(N([H])C(=O)C([H])(N([H])C([H])([H])[H])C([H])([H])[H])C(C([H])([H])[H])(C([H])([H])[H])C([H])([H])[H])C([H])([H])c2c([H])c(OC([H])(C([H])([H])[H])C([H])([H])[N+]([H])([H])C([H])([H])C([H])([H])C3([H])N(C(=O)N4C([H])([H])C([H])([H])C([H])([H])C([H])(n5nc(-c6c([H])c([H])c(Oc7c([H])c([H])c(F)c([H])c7F)c([H])c6[H])c(C(=O)N([H])[H])c5N([H])[H])C4([H])[H])C([H])([H])C([H])([N+]([H])([H])C([H])([H])[H])C3([H])[H])c([H])c([H])c2C1([H])[H]

$$$$
76:0:0
     RDKit          3D

 92101  0  0  1  0  0  0  0  0999 V2000
  -27.9140  -23.4840   20.2910 C   0  0  0  0  0  2  0  0  0  0  0  0
  -29.7190  -23.8310   19.4940 C   0  0  0  0  0  2  0  0  0  0  0  0
  -28.4410  -24.8120   19.5580 C   0  0  0  0  0  3  0  0  0  0  0  0
  -28.8560  -22.4700   19.4470 C   0  0  1  0  0  0  0  0  0  0  0  0
  -30.7800  -15.1850   19.7380 C   0  0  0  0  0  0  0  0  0  0  0  0
  -30.6380  -12.8240   18.7940 C   0  0  0  0  0  2  0  0  0  0  0  0
  -29.6080  -12.7850   17.6380 C   0  0  0  0  0  2  0  0  0  0  0  0
  -28.1820  -12.5610   18.1790 C   0  0  0  0  0  2  0  0  0  0  0  0
  -27.8670  -13.4680   19.3960 C   0  0  0  0  0  3  0  0  0  0  0  0
  -29.0070  -13.4610   20.4380 C   0  0  0  0  0  2  0  0  0  0  0  0
  -30.2270  -13.8990   19.7430 N   0  0  0  0  0  0  0  0  0  0  0  0
  -31.9440  -15.2840   19.3250 O   0  0  0  0  0  0  0  0  0  0  0  0
  -28.7560  -18.5100   20.5670 C   0  0  0  0  0  3  0  0  0  0  0  0
  -30.4310  -20.1540   19.2670 C   0  0  0  0  0  3  0  0  0  0  0  0
  -29.3010  -20.8840   19.8060 C   0  0  0  0  0  0  0  0  0  0  0  0
  -28.4660  -19.9370   20.4980 C   0  0  0  0  0  0  0  0  0  0  0  0
  -29.8810  -17.8500   19.9660 C   0  0  0  0  0  0  0  0  0  0  0  0
  -27.1800  -20.4250   21.1370 C   0  0  0  0  0  1  0  0  0  0  0  0
  -30.7030  -18.7690   19.3390 N   0  0  0  0  0  0  0  0  0  0  0  0
  -29.9530  -16.3040   20.0660 N   0  0  0  0  0  0  0  0  0  0  0  0
  -29.0980  -15.9400   20.4530 H   0  0  0  0  0  0  0  0  0  0  0  0
  -25.5720  -14.0470   20.3700 C   0  0  0  0  0  0  0  0  0  0  0  0
  -24.5270  -13.2720   20.7920 C   0  0  0  0  0  0  0  0  0  0  0  0
  -24.9580  -11.9170   20.6480 C   0  0  0  0  0  0  0  0  0  0  0  0
  -26.5700  -13.1650   19.9920 N   0  0  0  0  0  0  0  0  0  0  0  0
  -26.2160  -11.8750   20.2240 N   0  0  0  0  0  0  0  0  0  0  0  0
  -24.2230  -10.6580   20.8350 C   0  0  0  0  0  0  0  0  0  0  0  0
  -24.6390   -9.6910   21.7780 C   0  0  0  0  0  3  0  0  0  0  0  0
  -23.9050   -8.5000   21.9540 C   0  0  0  0  0  3  0  0  0  0  0  0
  -22.7380   -8.2660   21.1880 C   0  0  0  0  0  0  0  0  0  0  0  0
  -22.3390   -9.2210   20.2350 C   0  0  0  0  0  3  0  0  0  0  0  0
  -23.0750  -10.4040   20.0580 C   0  0  0  0  0  3  0  0  0  0  0  0
  -21.9750   -7.1260   21.2730 O   0  0  0  0  0  0  0  0  0  0  0  0
  -21.7970   -6.4660   22.4620 C   0  0  0  0  0  0  0  0  0  0  0  0
  -21.2200   -7.0980   23.5860 C   0  0  0  0  0  3  0  0  0  0  0  0
  -20.9910   -6.3640   24.7660 C   0  0  0  0  0  3  0  0  0  0  0  0
  -21.3270   -4.9980   24.8230 C   0  0  0  0  0  0  0  0  0  0  0  0
  -21.8960   -4.3660   23.7040 C   0  0  0  0  0  3  0  0  0  0  0  0
  -22.1280   -5.0980   22.5260 C   0  0  0  0  0  0  0  0  0  0  0  0
  -22.6560   -4.4780   21.4430 F   0  0  0  0  0  0  0  0  0  0  0  0
  -21.1010   -4.2900   25.9540 F   0  0  0  0  0  0  0  0  0  0  0  0
  -23.1690  -13.7590   21.2050 C   0  0  0  0  0  0  0  0  0  0  0  0
  -22.5050  -13.0380   22.1020 N   0  0  0  0  0  0  0  0  0  0  0  0
  -22.7080  -14.8120   20.7680 O   0  0  0  0  0  0  0  0  0  0  0  0
  -22.8910  -12.1840   22.4760 H   0  0  0  0  0  0  0  0  0  0  0  0
  -21.5970  -13.3460   22.4180 H   0  0  0  0  0  0  0  0  0  0  0  0
  -25.7460  -15.4240   20.2500 N   0  0  0  0  0  0  0  0  0  0  0  0
  -24.9970  -16.0740   20.4590 H   0  0  0  0  0  0  0  0  0  0  0  0
  -26.5400  -15.8680   19.8100 H   0  0  0  0  0  0  0  0  0  0  0  0
  -28.3220  -22.2930   18.1490 O   0  0  0  0  0  0  0  0  0  0  0  0
  -28.2200  -23.1540   17.7600 H   0  0  0  0  0  0  0  0  0  0  0  0
  -28.4640  -26.2990   20.0740 O   0  0  0  0  0  0  0  0  0  0  0  0
  -24.6560  -31.8250   23.1670 C   0  0  0  0  0  0  0  0  0  0  0  0
  -27.3710  -27.2490   20.0120 C   0  0  0  0  0  0  0  0  0  0  0  0
  -23.5010  -30.4490   21.4800 C   0  0  0  0  0  3  0  0  0  0  0  0
  -24.9960  -28.9490   20.0170 C   0  0  0  0  0  0  0  0  0  0  0  0
  -26.0490  -30.7770   21.3390 C   0  0  0  0  0  2  0  0  0  0  0  0
  -26.1610  -29.4040   20.6460 C   0  0  0  0  0  0  0  0  0  0  0  0
  -27.3450  -28.5700   20.6280 C   0  0  0  0  0  3  0  0  0  0  0  0
  -26.1730  -26.8970   19.3510 C   0  0  0  0  0  3  0  0  0  0  0  0
  -25.0180  -27.7110   19.3540 C   0  0  0  0  0  3  0  0  0  0  0  0
  -23.7470  -29.8160   20.0830 C   0  0  0  0  0  2  0  0  0  0  0  0
  -24.7550  -31.0380   22.0510 N   0  0  0  0  0  0  0  0  0  0  0  0
  -23.5610  -32.0670   23.6960 O   0  0  0  0  0  0  0  0  0  0  0  0
  -22.8400  -29.4000   22.4080 C   0  0  0  0  0  0  0  0  0  0  0  0
  -21.5210  -29.1890   22.2560 N   0  0  0  0  0  0  0  0  0  0  0  0
  -23.5190  -28.7790   23.2310 O   0  0  0  0  0  0  0  0  0  0  0  0
  -21.0280  -29.7420   21.5690 H   0  0  0  0  0  0  0  0  0  0  0  0
  -18.1740  -27.8630   22.6770 C   0  0  0  0  0  0  0  0  0  0  0  0
  -20.7180  -28.2070   22.9920 C   0  0  0  0  0  3  0  0  0  0  0  0
  -20.8780  -26.7920   22.3860 C   0  0  0  0  0  2  0  0  0  0  0  0
  -19.8040  -26.4560   21.3470 C   0  0  0  0  0  2  0  0  0  0  0  0
  -18.4080  -26.5380   21.9720 C   0  0  0  0  0  2  0  0  0  0  0  0
  -19.2590  -28.6540   23.1420 C   0  0  0  0  0  0  0  0  0  0  0  0
  -18.9860  -29.8920   23.7620 C   0  0  0  0  0  3  0  0  0  0  0  0
  -17.6620  -30.3420   23.9210 C   0  0  0  0  0  3  0  0  0  0  0  0
  -16.5910  -29.5480   23.4710 C   0  0  0  0  0  3  0  0  0  0  0  0
  -16.8490  -28.3110   22.8560 C   0  0  0  0  0  3  0  0  0  0  0  0
  -25.9130  -32.4750   23.8220 C   0  0  0  0  0  3  0  0  0  0  0  0
  -25.5750  -33.8660   24.1620 N   0  0  0  0  0  0  0  0  0  0  0  0
  -25.8940  -34.9340   23.4170 C   0  0  0  0  0  0  0  0  0  0  0  0
  -26.5670  -34.8520   22.3860 O   0  0  0  0  0  0  0  0  0  0  0  0
  -24.9780  -34.0020   24.9630 H   0  0  0  0  0  0  0  0  0  0  0  0
  -24.1280  -36.6980   23.0900 C   0  0  0  0  0  1  0  0  0  0  0  0
  -25.3840  -36.3110   23.8880 C   0  0  0  0  0  3  0  0  0  0  0  0
  -27.5040  -37.2410   24.7120 C   0  0  0  0  0  1  0  0  0  0  0  0
  -26.3960  -37.3840   23.7700 N   0  0  0  0  0  0  0  0  0  0  0  0
  -25.9720  -38.2970   23.9170 H   0  0  0  0  0  0  0  0  0  0  0  0
  -26.4110  -31.7040   25.1060 C   0  0  1  0  0  0  0  0  0  0  0  0
  -25.2970  -31.4450   26.1490 C   0  0  0  0  0  1  0  0  0  0  0  0
  -27.0230  -30.3360   24.7250 C   0  0  0  0  0  1  0  0  0  0  0  0
  -27.5350  -32.5100   25.7980 C   0  0  0  0  0  1  0  0  0  0  0  0
  2  3  1  0
  3 52  1  0
  3  1  1  0
  4 50  1  6
  4  2  1  0
  4 15  1  0
  4  1  1  0
  5 11  1  0
  5 20  1  0
  6 11  1  0
  7  8  1  0
  7  6  1  0
  9  8  1  0
  9 25  1  0
  9 10  1  0
 11 10  1  0
 12  5  2  0
 14 19  2  0
 14 15  1  0
 15 16  2  0
 16 13  1  0
 16 18  1  0
 17 20  1  0
 17 13  2  0
 19 17  1  0
 20 21  1  0
 22 23  2  0
 23 42  1  0
 24 23  1  0
 24 27  1  0
 25 26  1  0
 25 22  1  0
 26 24  2  0
 27 28  1  0
 28 29  2  0
 30 33  1  0
 30 29  1  0
 31 30  2  0
 32 31  1  0
 32 27  2  0
 33 34  1  0
 34 39  2  0
 34 35  1  0
 35 36  2  0
 36 37  1  0
 37 41  1  0
 38 37  2  0
 39 38  1  0
 40 39  1  0
 42 43  1  0
 43 46  1  0
 43 45  1  0
 44 42  2  0
 47 22  1  0
 47 48  1  0
 49 47  1  0
 51 50  1  0
 53 64  2  0
 54 52  1  0
 54 59  1  0
 55 63  1  0
 55 65  1  0
 56 62  1  0
 56 58  1  0
 57 63  1  0
 58 57  1  0
 59 58  2  0
 60 61  1  0
 60 54  2  0
 61 56  2  0
 62 55  1  0
 63 53  1  0
 65 67  2  0
 66 65  1  0
 68 66  1  0
 69 78  2  0
 69 74  1  0
 70 66  1  0
 70 74  1  0
 71 70  1  0
 72 73  1  0
 72 71  1  0
 73 69  1  0
 74 75  2  0
 75 76  1  0
 77 76  2  0
 78 77  1  0
 79 53  1  0
 79 80  1  0
 79 89  1  0
 80 83  1  0
 81 85  1  0
 81 80  1  0
 82 81  2  0
 85 84  1  0
 87 85  1  0
 87 88  1  0
 87 86  1  0
 89 92  1  1
 89 90  1  0
 91 89  1  0
M  ISO  4   3 101   5 100  20 100  52 101
M  END
>  <TORSDO>  (77) 
F 17

>  <SCORE>  (77) 
-12.910

>  <name>  (77) 
76

>  <ligand_id>  (77) 
76

>  <original_smiles>  (77) 
[H]OC1(c2c([H])nc(N([H])C(=O)N3C([H])([H])C([H])([H])C([H])([H])C([H])(n4nc(-c5c([H])c([H])c(Oc6c([H])c([H])c(F)c([H])c6F)c([H])c5[H])c(C(=O)N([H])[H])c4N([H])[H])C3([H])[H])c([H])c2C([H])([H])[H])C([H])([H])C([H])(Oc2c([H])c([H])c3c(c2[H])C([H])([H])N(C(=O)C([H])(N([H])C(=O)C([H])(N([H])C([H])([H])[H])C([H])([H])[H])C(C([H])([H])[H])(C([H])([H])[H])C([H])([H])[H])C([H])(C(=O)N([H])C2([H])c4c([H])c([H])c([H])c([H])c4C([H])([H])C([H])([H])C2([H])[H])C3([H])[H])C1([H])[H]

>  <smiles>  (77) 
[H]OC1(c2c([H])nc(N([H])C(=O)N3C([H])([H])C([H])([H])C([H])([H])C([H])(n4nc(-c5c([H])c([H])c(Oc6c([H])c([H])c(F)c([H])c6F)c([H])c5[H])c(C(=O)N([H])[H])c4N([H])[H])C3([H])[H])c([H])c2C([H])([H])[H])C([H])([H])C([H])(Oc2c([H])c([H])c3c(c2[H])C([H])([H])N(C(=O)C([H])(N([H])C(=O)C([H])(N([H])C([H])([H])[H])C([H])([H])[H])C(C([H])([H])[H])(C([H])([H])[H])C([H])([H])[H])C([H])(C(=O)N([H])C2([H])c4c([H])c([H])c([H])c([H])c4C([H])([H])C([H])([H])C2([H])[H])C3([H])[H])C1([H])[H]

$$$$
77:0:0
     RDKit          3D

 90 99  0  0  1  0  0  0  0  0999 V2000
  -30.0360  -21.4600   18.4560 C   0  0  0  0  0  0  0  0  0  0  0  0
  -29.3660  -19.9820   20.0680 C   0  0  0  0  0  0  0  0  0  0  0  0
  -28.7970  -22.5200   20.0630 C   0  0  0  0  0  0  0  0  0  0  0  0
  -30.0030  -20.2010   18.9230 N   0  0  0  0  0  4  0  0  0  0  0  0
  -29.5030  -22.5960   18.9360 N   0  0  0  0  0  0  0  0  0  0  0  0
  -28.7430  -21.1740   20.6580 N   0  0  0  0  0  2  0  0  0  0  0  0
  -30.2950  -22.1350   15.9330 C   0  0  0  0  0  2  0  0  0  0  0  0
  -30.7810  -20.7170   16.0410 C   0  0  0  0  0  2  0  0  0  0  0  0
  -30.8920  -21.6430   17.2360 C   0  0  0  0  0  3  0  0  0  0  0  0
  -29.7080  -18.3510   20.7160 C   0  0  0  0  0  2  0  0  0  0  0  0
  -30.3670  -15.4090   20.2410 C   0  0  0  0  0  0  0  0  0  0  0  0
  -30.3900  -12.9390   19.3460 C   0  0  0  0  0  2  0  0  0  0  0  0
  -29.4610  -12.6390   18.1400 C   0  0  0  0  0  2  0  0  0  0  0  0
  -28.0290  -12.3300   18.6090 C   0  0  0  0  0  2  0  0  0  0  0  0
  -27.5630  -13.3060   19.7160 C   0  0  0  0  0  3  0  0  0  0  0  0
  -28.6230  -13.5260   20.8150 C   0  0  0  0  0  2  0  0  0  0  0  0
  -29.8100  -14.0890   20.1430 N   0  0  0  0  0  0  0  0  0  0  0  0
  -31.6020  -15.3820   20.1240 O   0  0  0  0  0  0  0  0  0  0  0  0
  -29.5950  -16.7050   20.2670 N   0  0  0  0  0  0  0  0  0  0  0  0
  -28.6220  -16.5010   20.1090 H   0  0  0  0  0  0  0  0  0  0  0  0
  -25.2030  -13.8380   20.5110 C   0  0  0  0  0  0  0  0  0  0  0  0
  -24.1520  -13.0520   20.8880 C   0  0  0  0  0  0  0  0  0  0  0  0
  -24.6300  -11.7060   20.8490 C   0  0  0  0  0  0  0  0  0  0  0  0
  -26.2490  -12.9730   20.2510 N   0  0  0  0  0  0  0  0  0  0  0  0
  -25.9190  -11.6830   20.5240 N   0  0  0  0  0  0  0  0  0  0  0  0
  -23.9140  -10.4380   21.0420 C   0  0  0  0  0  0  0  0  0  0  0  0
  -24.3610   -9.4690   21.9660 C   0  0  0  0  0  3  0  0  0  0  0  0
  -23.6400   -8.2680   22.1500 C   0  0  0  0  0  3  0  0  0  0  0  0
  -22.4580   -8.0290   21.4090 C   0  0  0  0  0  0  0  0  0  0  0  0
  -22.0290   -8.9890   20.4740 C   0  0  0  0  0  3  0  0  0  0  0  0
  -22.7500  -10.1800   20.2880 C   0  0  0  0  0  3  0  0  0  0  0  0
  -21.7080   -6.8820   21.5030 O   0  0  0  0  0  0  0  0  0  0  0  0
  -21.6830   -6.1310   22.6510 C   0  0  0  0  0  0  0  0  0  0  0  0
  -21.2760   -6.6740   23.8880 C   0  0  0  0  0  3  0  0  0  0  0  0
  -21.1970   -5.8480   25.0280 C   0  0  0  0  0  3  0  0  0  0  0  0
  -21.5160   -4.4800   24.9310 C   0  0  0  0  0  0  0  0  0  0  0  0
  -21.9160   -3.9360   23.6980 C   0  0  0  0  0  3  0  0  0  0  0  0
  -21.9960   -4.7590   22.5610 C   0  0  0  0  0  0  0  0  0  0  0  0
  -22.3620   -4.2240   21.3710 F   0  0  0  0  0  0  0  0  0  0  0  0
  -21.4320   -3.6860   26.0230 F   0  0  0  0  0  0  0  0  0  0  0  0
  -22.7530  -13.5190   21.1650 C   0  0  0  0  0  0  0  0  0  0  0  0
  -22.0350  -12.8180   22.0340 N   0  0  0  0  0  0  0  0  0  0  0  0
  -22.3080  -14.5420   20.6470 O   0  0  0  0  0  0  0  0  0  0  0  0
  -22.4100  -11.9930   22.4780 H   0  0  0  0  0  0  0  0  0  0  0  0
  -21.0960  -13.1130   22.2610 H   0  0  0  0  0  0  0  0  0  0  0  0
  -25.3490  -15.2110   20.3330 N   0  0  0  0  0  0  0  0  0  0  0  0
  -24.5700  -15.8510   20.4460 H   0  0  0  0  0  0  0  0  0  0  0  0
  -26.1750  -15.6580   19.9580 H   0  0  0  0  0  0  0  0  0  0  0  0
  -27.9510  -24.0500   20.4790 C   0  0  0  0  0  2  0  0  0  0  0  0
  -28.2150  -25.7100   20.2570 O   0  0  0  0  0  0  0  0  0  0  0  0
  -24.6450  -31.8270   23.1830 C   0  0  0  0  0  0  0  0  0  0  0  0
  -27.2110  -26.8470   20.2410 C   0  0  0  0  0  0  0  0  0  0  0  0
  -23.4620  -30.4140   21.5540 C   0  0  0  0  0  3  0  0  0  0  0  0
  -24.9180  -28.7800   20.1620 C   0  0  0  0  0  0  0  0  0  0  0  0
  -26.0340  -30.6020   21.4250 C   0  0  0  0  0  2  0  0  0  0  0  0
  -26.1080  -29.1760   20.7860 C   0  0  0  0  0  0  0  0  0  0  0  0
  -27.2470  -28.2350   20.7920 C   0  0  0  0  0  3  0  0  0  0  0  0
  -25.9850  -26.6250   19.5690 C   0  0  0  0  0  3  0  0  0  0  0  0
  -24.8870  -27.5270   19.5300 C   0  0  0  0  0  3  0  0  0  0  0  0
  -23.7030  -29.7130   20.1890 C   0  0  0  0  0  2  0  0  0  0  0  0
  -24.7360  -30.9770   22.1070 N   0  0  0  0  0  0  0  0  0  0  0  0
  -23.5500  -32.1240   23.6910 O   0  0  0  0  0  0  0  0  0  0  0  0
  -22.7560  -29.4320   22.5280 C   0  0  0  0  0  0  0  0  0  0  0  0
  -21.4240  -29.2790   22.4070 N   0  0  0  0  0  0  0  0  0  0  0  0
  -23.4170  -28.8070   23.3610 O   0  0  0  0  0  0  0  0  0  0  0  0
  -20.9430  -29.8350   21.7130 H   0  0  0  0  0  0  0  0  0  0  0  0
  -18.0310  -28.0980   22.9390 C   0  0  0  0  0  0  0  0  0  0  0  0
  -20.5960  -28.3510   23.1850 C   0  0  0  0  0  3  0  0  0  0  0  0
  -20.6840  -26.9160   22.6160 C   0  0  0  0  0  2  0  0  0  0  0  0
  -19.5740  -26.5960   21.6090 C   0  0  0  0  0  2  0  0  0  0  0  0
  -18.1970  -26.7480   22.2610 C   0  0  0  0  0  2  0  0  0  0  0  0
  -19.1570  -28.8570   23.3580 C   0  0  0  0  0  0  0  0  0  0  0  0
  -18.9440  -30.1180   23.9570 C   0  0  0  0  0  3  0  0  0  0  0  0
  -17.6410  -30.6210   24.1370 C   0  0  0  0  0  3  0  0  0  0  0  0
  -16.5320  -29.8590   23.7300 C   0  0  0  0  0  3  0  0  0  0  0  0
  -16.7280  -28.6000   23.1360 C   0  0  0  0  0  3  0  0  0  0  0  0
  -25.9090  -32.4790   23.8190 C   0  0  0  0  0  3  0  0  0  0  0  0
  -26.4090  -31.7250   25.1130 C   0  0  1  0  0  0  0  0  0  0  0  0
  -25.3030  -31.5040   26.1720 C   0  0  0  0  0  1  0  0  0  0  0  0
  -26.9970  -30.3420   24.7550 C   0  0  0  0  0  1  0  0  0  0  0  0
  -27.5520  -32.5280   25.7780 C   0  0  0  0  0  1  0  0  0  0  0  0
  -25.5830  -33.8800   24.1470 N   0  0  0  0  0  0  0  0  0  0  0  0
  -25.9150  -34.9430   23.4020 C   0  0  0  0  0  0  0  0  0  0  0  0
  -26.5890  -34.8480   22.3740 O   0  0  0  0  0  0  0  0  0  0  0  0
  -24.9850  -34.0270   24.9480 H   0  0  0  0  0  0  0  0  0  0  0  0
  -24.1860  -36.7430   23.0620 C   0  0  0  0  0  1  0  0  0  0  0  0
  -25.4270  -36.3300   23.8700 C   0  0  0  0  0  3  0  0  0  0  0  0
  -27.5580  -37.2180   24.7100 C   0  0  0  0  0  1  0  0  0  0  0  0
  -26.4590  -37.3860   23.7640 N   0  0  0  0  0  0  0  0  0  0  0  0
  -26.0500  -38.3050   23.9130 H   0  0  0  0  0  0  0  0  0  0  0  0
  1  4  2  0
  1  5  1  0
  2  6  1  0
  2 10  1  0
  3 49  1  0
  3  6  1  0
  4  2  2  0
  5  3  2  0
  7  8  1  0
  7  9  1  0
  8  9  1  0
  9  1  1  0
 11 19  1  0
 12 17  1  0
 13 14  1  0
 13 12  1  0
 15 14  1  0
 15 24  1  0
 15 16  1  0
 17 11  1  0
 17 16  1  0
 18 11  2  0
 19 10  1  0
 20 19  1  0
 21 22  2  0
 22 41  1  0
 23 22  1  0
 23 26  1  0
 24 21  1  0
 24 25  1  0
 25 23  2  0
 26 27  1  0
 27 28  2  0
 29 32  1  0
 29 28  1  0
 30 29  2  0
 31 30  1  0
 31 26  2  0
 32 33  1  0
 33 34  1  0
 34 35  2  0
 36 35  1  0
 36 40  1  0
 37 36  2  0
 38 33  2  0
 38 37  1  0
 39 38  1  0
 41 42  1  0
 42 45  1  0
 42 44  1  0
 43 41  2  0
 46 47  1  0
 46 21  1  0
 48 46  1  0
 50 49  1  0
 51 62  2  0
 52 50  1  0
 52 57  1  0
 53 61  1  0
 53 63  1  0
 54 60  1  0
 54 56  1  0
 55 61  1  0
 56 57  2  0
 56 55  1  0
 58 52  2  0
 59 58  1  0
 59 54  2  0
 60 53  1  0
 61 51  1  0
 63 65  2  0
 64 63  1  0
 66 64  1  0
 67 76  2  0
 67 72  1  0
 68 64  1  0
 68 72  1  0
 69 68  1  0
 70 71  1  0
 70 69  1  0
 71 67  1  0
 72 73  2  0
 73 74  1  0
 75 74  2  0
 76 75  1  0
 77 51  1  0
 77 82  1  0
 77 78  1  0
 78 81  1  1
 78 79  1  0
 80 78  1  0
 82 85  1  0
 83 87  1  0
 83 82  1  0
 84 83  2  0
 87 86  1  0
 89 87  1  0
 89 90  1  0
 89 88  1  0
M  ISO  4  11 100  19 100  49 101  50 101
M  END
>  <TORSDO>  (78) 
F 19

>  <SCORE>  (78) 
-16.098

>  <name>  (78) 
77

>  <ligand_id>  (78) 
77

>  <original_smiles>  (78) 
[H]c1c([H])c([H])c2c(c1[H])C([H])([H])C([H])([H])C([H])([H])C2([H])N([H])C(=O)C1([H])N(C(=O)C([H])(N([H])C(=O)C([H])(N([H])C([H])([H])[H])C([H])([H])[H])C(C([H])([H])[H])(C([H])([H])[H])C([H])([H])[H])C([H])([H])c2c([H])c(OC([H])([H])c3nc(C([H])([H])N([H])C(=O)N4C([H])([H])C([H])([H])C([H])([H])C([H])(n5nc(-c6c([H])c([H])c(Oc7c([H])c([H])c(F)c([H])c7F)c([H])c6[H])c(C(=O)N([H])[H])c5N([H])[H])C4([H])[H])nc(C4([H])C([H])([H])C4([H])[H])n3)c([H])c([H])c2C1([H])[H]

>  <smiles>  (78) 
[H]c1c([H])c([H])c2c(c1[H])C([H])([H])C([H])([H])C([H])([H])C2([H])N([H])C(=O)C1([H])N(C(=O)C([H])(N([H])C(=O)C([H])(N([H])C([H])([H])[H])C([H])([H])[H])C(C([H])([H])[H])(C([H])([H])[H])C([H])([H])[H])C([H])([H])c2c([H])c(OC([H])([H])c3nc(C([H])([H])N([H])C(=O)N4C([H])([H])C([H])([H])C([H])([H])C([H])(n5nc(-c6c([H])c([H])c(Oc7c([H])c([H])c(F)c([H])c7F)c([H])c6[H])c(C(=O)N([H])[H])c5N([H])[H])C4([H])[H])nc(C4([H])C([H])([H])C4([H])[H])n3)c([H])c([H])c2C1([H])[H]

$$$$
78:0:0
     RDKit          3D

 90 99  0  0  1  0  0  0  0  0999 V2000
  -27.0830  -21.7390   20.0030 C   0  0  0  0  0  0  0  0  0  0  0  0
  -26.6330  -22.6090   21.1750 C   0  0  0  0  0  2  0  0  0  0  0  0
  -27.9360  -23.2760   21.6140 C   0  0  0  0  0  2  0  0  0  0  0  0
  -28.7690  -23.2240   20.3180 C   0  0  0  0  0  3  0  0  0  0  0  0
  -28.4310  -21.6890   19.8830 N   0  0  0  0  0  0  0  0  0  0  0  0
  -26.2550  -21.1260   19.3260 O   0  0  0  0  0  0  0  0  0  0  0  0
  -30.7240  -15.4710   20.0240 C   0  0  0  0  0  0  0  0  0  0  0  0
  -30.6040  -13.0700   19.1330 C   0  0  0  0  0  2  0  0  0  0  0  0
  -29.6670  -12.8770   17.9200 C   0  0  0  0  0  2  0  0  0  0  0  0
  -28.2220  -12.6260   18.3850 C   0  0  0  0  0  2  0  0  0  0  0  0
  -27.8030  -13.5960   19.5160 C   0  0  0  0  0  3  0  0  0  0  0  0
  -28.8620  -13.7590   20.6230 C   0  0  0  0  0  2  0  0  0  0  0  0
  -30.0890  -14.2140   19.9610 N   0  0  0  0  0  0  0  0  0  0  0  0
  -31.9430  -15.4050   19.8130 O   0  0  0  0  0  0  0  0  0  0  0  0
  -30.4380  -19.5720   19.9470 C   0  0  0  0  0  2  0  0  0  0  0  0
  -28.1450  -18.8230   20.0650 C   0  0  0  0  0  2  0  0  0  0  0  0
  -30.8620  -18.0900   20.5590 C   0  0  0  0  0  2  0  0  0  0  0  0
  -28.7810  -17.3450   19.6520 C   0  0  0  0  0  2  0  0  0  0  0  0
  -29.0060  -20.1960   20.3280 C   0  0  0  0  0  3  0  0  0  0  0  0
  -30.0960  -16.7940   20.2030 N   0  0  0  0  0  0  0  0  0  0  0  0
  -25.4890  -14.1900   20.4000 C   0  0  0  0  0  0  0  0  0  0  0  0
  -24.4210  -13.4310   20.7710 C   0  0  0  0  0  0  0  0  0  0  0  0
  -24.8430  -12.0690   20.6520 C   0  0  0  0  0  0  0  0  0  0  0  0
  -26.4920  -13.2980   20.0640 N   0  0  0  0  0  0  0  0  0  0  0  0
  -26.1200  -12.0120   20.2900 N   0  0  0  0  0  0  0  0  0  0  0  0
  -24.0910  -10.8210   20.8030 C   0  0  0  0  0  0  0  0  0  0  0  0
  -24.5020   -9.8150   21.7050 C   0  0  0  0  0  3  0  0  0  0  0  0
  -23.7440   -8.6350   21.8450 C   0  0  0  0  0  3  0  0  0  0  0  0
  -22.5640   -8.4490   21.0850 C   0  0  0  0  0  0  0  0  0  0  0  0
  -22.1760   -9.4460   20.1710 C   0  0  0  0  0  3  0  0  0  0  0  0
  -22.9340  -10.6190   20.0290 C   0  0  0  0  0  3  0  0  0  0  0  0
  -21.7760   -7.3260   21.1420 O   0  0  0  0  0  0  0  0  0  0  0  0
  -21.6770   -6.5750   22.2870 C   0  0  0  0  0  0  0  0  0  0  0  0
  -21.2000   -7.1210   23.4980 C   0  0  0  0  0  3  0  0  0  0  0  0
  -21.0470   -6.2940   24.6300 C   0  0  0  0  0  3  0  0  0  0  0  0
  -21.3620   -4.9240   24.5490 C   0  0  0  0  0  0  0  0  0  0  0  0
  -21.8290   -4.3780   23.3410 C   0  0  0  0  0  3  0  0  0  0  0  0
  -21.9850   -5.2020   22.2110 C   0  0  0  0  0  0  0  0  0  0  0  0
  -22.4180   -4.6680   21.0460 F   0  0  0  0  0  0  0  0  0  0  0  0
  -21.2060   -4.1260   25.6330 F   0  0  0  0  0  0  0  0  0  0  0  0
  -23.0540  -13.9340   21.1160 C   0  0  0  0  0  0  0  0  0  0  0  0
  -22.3420  -13.2300   21.9880 N   0  0  0  0  0  0  0  0  0  0  0  0
  -22.6290  -14.9910   20.6440 O   0  0  0  0  0  0  0  0  0  0  0  0
  -22.7010  -12.3810   22.3980 H   0  0  0  0  0  0  0  0  0  0  0  0
  -21.4210  -13.5510   22.2550 H   0  0  0  0  0  0  0  0  0  0  0  0
  -25.6830  -15.5640   20.2950 N   0  0  0  0  0  0  0  0  0  0  0  0
  -24.9390  -16.2280   20.4730 H   0  0  0  0  0  0  0  0  0  0  0  0
  -26.5430  -15.9960   19.9930 H   0  0  0  0  0  0  0  0  0  0  0  0
  -28.2900  -24.6850   19.4530 C   0  0  0  0  0  2  0  0  0  0  0  0
  -28.4010  -26.2680   19.7820 O   0  0  0  0  0  0  0  0  0  0  0  0
  -24.5670  -31.7960   22.9890 C   0  0  0  0  0  0  0  0  0  0  0  0
  -27.3360  -27.2800   19.7270 C   0  0  0  0  0  0  0  0  0  0  0  0
  -23.4240  -30.4260   21.2890 C   0  0  0  0  0  3  0  0  0  0  0  0
  -24.9470  -29.0020   19.7680 C   0  0  0  0  0  0  0  0  0  0  0  0
  -25.9660  -30.8100   21.1280 C   0  0  0  0  0  2  0  0  0  0  0  0
  -26.1130  -29.4500   20.4000 C   0  0  0  0  0  0  0  0  0  0  0  0
  -27.3040  -28.6030   20.3690 C   0  0  0  0  0  3  0  0  0  0  0  0
  -26.1410  -26.9790   19.0450 C   0  0  0  0  0  3  0  0  0  0  0  0
  -24.9800  -27.7840   19.0750 C   0  0  0  0  0  3  0  0  0  0  0  0
  -23.6750  -29.8470   19.8700 C   0  0  0  0  0  2  0  0  0  0  0  0
  -24.6740  -31.0280   21.8580 N   0  0  0  0  0  0  0  0  0  0  0  0
  -23.4720  -31.9970   23.5330 O   0  0  0  0  0  0  0  0  0  0  0  0
  -22.8090  -29.3290   22.1980 C   0  0  0  0  0  0  0  0  0  0  0  0
  -21.4890  -29.1040   22.0940 N   0  0  0  0  0  0  0  0  0  0  0  0
  -23.5280  -28.6860   22.9700 O   0  0  0  0  0  0  0  0  0  0  0  0
  -20.9500  -29.6980   21.4790 H   0  0  0  0  0  0  0  0  0  0  0  0
  -18.1740  -27.7540   22.6500 C   0  0  0  0  0  0  0  0  0  0  0  0
  -20.7320  -28.0870   22.8320 C   0  0  0  0  0  3  0  0  0  0  0  0
  -20.8520  -26.7020   22.1570 C   0  0  0  0  0  2  0  0  0  0  0  0
  -19.7230  -26.4140   21.1630 C   0  0  0  0  0  2  0  0  0  0  0  0
  -18.3650  -26.4650   21.8690 C   0  0  0  0  0  2  0  0  0  0  0  0
  -19.2830  -28.5250   23.0890 C   0  0  0  0  0  0  0  0  0  0  0  0
  -19.0450  -29.7340   23.7800 C   0  0  0  0  0  3  0  0  0  0  0  0
  -17.7310  -30.1730   24.0330 C   0  0  0  0  0  3  0  0  0  0  0  0
  -16.6360  -29.3940   23.6180 C   0  0  0  0  0  3  0  0  0  0  0  0
  -16.8610  -28.1910   22.9250 C   0  0  0  0  0  3  0  0  0  0  0  0
  -25.8180  -32.4750   23.6370 C   0  0  0  0  0  3  0  0  0  0  0  0
  -25.4500  -33.8470   24.0180 N   0  0  0  0  0  0  0  0  0  0  0  0
  -25.7290  -34.9440   23.3040 C   0  0  0  0  0  0  0  0  0  0  0  0
  -26.4010  -34.9160   22.2700 O   0  0  0  0  0  0  0  0  0  0  0  0
  -24.8840  -33.9570   24.8470 H   0  0  0  0  0  0  0  0  0  0  0  0
  -23.9270  -36.6680   23.0200 C   0  0  0  0  0  1  0  0  0  0  0  0
  -25.1750  -36.2840   23.8250 C   0  0  0  0  0  3  0  0  0  0  0  0
  -27.2480  -37.2220   24.7320 C   0  0  0  0  0  1  0  0  0  0  0  0
  -26.1550  -37.3870   23.7820 N   0  0  0  0  0  0  0  0  0  0  0  0
  -25.6980  -38.2750   23.9790 H   0  0  0  0  0  0  0  0  0  0  0  0
  -26.3650  -31.6960   24.9000 C   0  0  1  0  0  0  0  0  0  0  0  0
  -25.2790  -31.3900   25.9570 C   0  0  0  0  0  1  0  0  0  0  0  0
  -27.0080  -30.3550   24.4880 C   0  0  0  0  0  1  0  0  0  0  0  0
  -27.4830  -32.5200   25.5890 C   0  0  0  0  0  1  0  0  0  0  0  0
  1  2  1  0
  2  3  1  0
  4 49  1  0
  4  3  1  0
  5  1  1  0
  5  4  1  0
  6  1  2  0
  7 20  1  0
  8 13  1  0
  9 10  1  0
  9  8  1  0
 11 10  1  0
 11 24  1  0
 11 12  1  0
 13  7  1  0
 13 12  1  0
 14  7  2  0
 15 19  1  0
 15 17  1  0
 16 19  1  0
 18 16  1  0
 18 20  1  0
 19  5  1  0
 20 17  1  0
 21 22  2  0
 22 41  1  0
 23 22  1  0
 23 26  1  0
 24 25  1  0
 24 21  1  0
 25 23  2  0
 26 27  1  0
 27 28  2  0
 29 32  1  0
 29 28  1  0
 30 29  2  0
 31 30  1  0
 31 26  2  0
 32 33  1  0
 33 34  1  0
 34 35  2  0
 36 35  1  0
 36 40  1  0
 37 36  2  0
 38 33  2  0
 38 37  1  0
 39 38  1  0
 41 42  1  0
 42 45  1  0
 42 44  1  0
 43 41  2  0
 46 21  1  0
 46 47  1  0
 48 46  1  0
 49 50  1  0
 51 62  2  0
 52 50  1  0
 52 57  1  0
 53 61  1  0
 53 63  1  0
 54 60  1  0
 54 56  1  0
 55 61  1  0
 56 55  1  0
 57 56  2  0
 58 59  1  0
 58 52  2  0
 59 54  2  0
 60 53  1  0
 61 51  1  0
 63 65  2  0
 64 63  1  0
 66 64  1  0
 67 76  2  0
 67 72  1  0
 68 64  1  0
 68 72  1  0
 69 68  1  0
 70 71  1  0
 70 69  1  0
 71 67  1  0
 72 73  2  0
 73 74  1  0
 75 74  2  0
 76 75  1  0
 77 51  1  0
 77 78  1  0
 77 87  1  0
 78 81  1  0
 79 83  1  0
 79 78  1  0
 80 79  2  0
 83 82  1  0
 85 83  1  0
 85 86  1  0
 85 84  1  0
 87 90  1  1
 87 88  1  0
 89 87  1  0
M  ISO  4   7 100  20 100  49 101  50 101
M  END
>  <TORSDO>  (79) 
F 17

>  <SCORE>  (79) 
-14.454

>  <name>  (79) 
78

>  <ligand_id>  (79) 
78

>  <original_smiles>  (79) 
[H]c1c([H])c([H])c2c(c1[H])C([H])([H])C([H])([H])C([H])([H])C2([H])N([H])C(=O)C1([H])N(C(=O)C([H])(N([H])C(=O)C([H])(N([H])C([H])([H])[H])C([H])([H])[H])C(C([H])([H])[H])(C([H])([H])[H])C([H])([H])[H])C([H])([H])c2c([H])c(OC([H])([H])C3([H])N(C4([H])C([H])([H])C([H])([H])N(C(=O)N5C([H])([H])C([H])([H])C([H])([H])C([H])(n6nc(-c7c([H])c([H])c(Oc8c([H])c([H])c(F)c([H])c8F)c([H])c7[H])c(C(=O)N([H])[H])c6N([H])[H])C5([H])[H])C([H])([H])C4([H])[H])C(=O)C([H])([H])C3([H])[H])c([H])c([H])c2C1([H])[H]

>  <smiles>  (79) 
[H]c1c([H])c([H])c2c(c1[H])C([H])([H])C([H])([H])C([H])([H])C2([H])N([H])C(=O)C1([H])N(C(=O)C([H])(N([H])C(=O)C([H])(N([H])C([H])([H])[H])C([H])([H])[H])C(C([H])([H])[H])(C([H])([H])[H])C([H])([H])[H])C([H])([H])c2c([H])c(OC([H])([H])C3([H])N(C4([H])C([H])([H])C([H])([H])N(C(=O)N5C([H])([H])C([H])([H])C([H])([H])C([H])(n6nc(-c7c([H])c([H])c(Oc8c([H])c([H])c(F)c([H])c8F)c([H])c7[H])c(C(=O)N([H])[H])c6N([H])[H])C5([H])[H])C([H])([H])C4([H])[H])C(=O)C([H])([H])C3([H])[H])c([H])c([H])c2C1([H])[H]

$$$$
79:0:0
     RDKit          3D

 93102  0  0  1  0  0  0  0  0999 V2000
  -30.1030  -16.7540   19.9440 C   0  0  0  0  0  0  0  0  0  0  0  0
  -29.5500  -19.8260   19.9720 C   0  0  0  0  0  0  0  0  0  0  0  0
  -30.7580  -19.1250   20.4050 C   0  0  0  0  0  0  0  0  0  0  0  0
  -28.8300  -17.4280   19.6350 C   0  0  0  0  0  0  0  0  0  0  0  0
  -26.3610  -17.2260   19.6460 C   0  0  0  0  0  1  0  0  0  0  0  0
  -30.9940  -17.7340   20.3630 N   0  0  0  0  0  0  0  0  0  0  0  0
  -28.6200  -18.8470   19.5920 N   0  0  0  0  0  0  0  0  0  0  0  0
  -27.6870  -16.6580   19.3920 N   0  0  0  0  0  0  0  0  0  0  0  0
  -27.7680  -15.6720   19.6140 H   0  0  0  0  0  0  0  0  0  0  0  0
  -30.6190  -15.1530   19.9740 C   0  0  0  0  0  0  0  0  0  0  0  0
  -30.4430  -12.6950   19.2190 C   0  0  0  0  0  2  0  0  0  0  0  0
  -29.5060  -12.4950   18.0060 C   0  0  0  0  0  2  0  0  0  0  0  0
  -28.0530  -12.2890   18.4740 C   0  0  0  0  0  2  0  0  0  0  0  0
  -27.6460  -13.2960   19.5830 C   0  0  0  0  0  3  0  0  0  0  0  0
  -28.7230  -13.4590   20.6730 C   0  0  0  0  0  2  0  0  0  0  0  0
  -29.9600  -13.8930   20.0060 N   0  0  0  0  0  0  0  0  0  0  0  0
  -31.8290  -15.0120   19.7260 O   0  0  0  0  0  0  0  0  0  0  0  0
  -25.3050  -13.9010   20.3940 C   0  0  0  0  0  0  0  0  0  0  0  0
  -24.2400  -13.1510   20.8020 C   0  0  0  0  0  0  0  0  0  0  0  0
  -24.6780  -11.7910   20.7690 C   0  0  0  0  0  0  0  0  0  0  0  0
  -26.3270  -13.0080   20.1360 N   0  0  0  0  0  0  0  0  0  0  0  0
  -25.9620  -11.7280   20.4250 N   0  0  0  0  0  0  0  0  0  0  0  0
  -23.9260  -10.5500   20.9860 C   0  0  0  0  0  0  0  0  0  0  0  0
  -24.3700   -9.5660   21.8950 C   0  0  0  0  0  3  0  0  0  0  0  0
  -23.6130   -8.3930   22.1040 C   0  0  0  0  0  3  0  0  0  0  0  0
  -22.3980   -8.1960   21.4040 C   0  0  0  0  0  0  0  0  0  0  0  0
  -21.9740   -9.1720   20.4840 C   0  0  0  0  0  3  0  0  0  0  0  0
  -22.7300  -10.3360   20.2750 C   0  0  0  0  0  3  0  0  0  0  0  0
  -21.6120   -7.0770   21.5220 O   0  0  0  0  0  0  0  0  0  0  0  0
  -21.6070   -6.3150   22.6630 C   0  0  0  0  0  0  0  0  0  0  0  0
  -21.2540   -6.8560   23.9180 C   0  0  0  0  0  3  0  0  0  0  0  0
  -21.1950   -6.0250   25.0530 C   0  0  0  0  0  3  0  0  0  0  0  0
  -21.4800   -4.6500   24.9350 C   0  0  0  0  0  0  0  0  0  0  0  0
  -21.8280   -4.1080   23.6850 C   0  0  0  0  0  3  0  0  0  0  0  0
  -21.8880   -4.9380   22.5520 C   0  0  0  0  0  0  0  0  0  0  0  0
  -22.2030   -4.4080   21.3450 F   0  0  0  0  0  0  0  0  0  0  0  0
  -21.4180   -3.8480   26.0230 F   0  0  0  0  0  0  0  0  0  0  0  0
  -22.8660  -13.6640   21.1180 C   0  0  0  0  0  0  0  0  0  0  0  0
  -22.1660  -13.0170   22.0410 N   0  0  0  0  0  0  0  0  0  0  0  0
  -22.4280  -14.6820   20.5840 O   0  0  0  0  0  0  0  0  0  0  0  0
  -22.5370  -12.1980   22.5020 H   0  0  0  0  0  0  0  0  0  0  0  0
  -21.2450  -13.3470   22.2940 H   0  0  0  0  0  0  0  0  0  0  0  0
  -25.4690  -15.2650   20.1960 N   0  0  0  0  0  0  0  0  0  0  0  0
  -24.7070  -15.8990   20.4050 H   0  0  0  0  0  0  0  0  0  0  0  0
  -26.3690  -15.7420   20.1710 H   0  0  0  0  0  0  0  0  0  0  0  0
  -30.4950  -22.1870   18.8280 C   0  0  0  0  0  2  0  0  0  0  0  0
  -29.2470  -21.7640   18.1420 C   0  0  0  0  0  2  0  0  0  0  0  0
  -29.3790  -21.5350   19.6390 C   0  0  1  0  0  0  0  0  0  0  0  0
  -28.4570  -22.7090   20.4820 C   0  0  0  0  0  2  0  0  0  0  0  0
  -28.2280  -24.4900   20.5830 C   0  0  0  0  0  2  0  0  0  0  0  0
  -28.1780  -25.9380   19.8780 O   0  0  0  0  0  0  0  0  0  0  0  0
  -24.5900  -31.7460   23.0980 C   0  0  0  0  0  0  0  0  0  0  0  0
  -27.1380  -26.9780   19.9910 C   0  0  0  0  0  0  0  0  0  0  0  0
  -23.3880  -30.3890   21.4300 C   0  0  0  0  0  3  0  0  0  0  0  0
  -24.8310  -28.8200   19.9810 C   0  0  0  0  0  0  0  0  0  0  0  0
  -25.9510  -30.6190   21.2790 C   0  0  0  0  0  2  0  0  0  0  0  0
  -26.0210  -29.2260   20.6020 C   0  0  0  0  0  0  0  0  0  0  0  0
  -27.1740  -28.3280   20.5770 C   0  0  0  0  0  3  0  0  0  0  0  0
  -25.9160  -26.7010   19.3420 C   0  0  0  0  0  3  0  0  0  0  0  0
  -24.7980  -27.5740   19.3350 C   0  0  0  0  0  3  0  0  0  0  0  0
  -23.6110  -29.7360   20.0410 C   0  0  0  0  0  2  0  0  0  0  0  0
  -24.6650  -30.9410   21.9900 N   0  0  0  0  0  0  0  0  0  0  0  0
  -23.5020  -32.0240   23.6300 O   0  0  0  0  0  0  0  0  0  0  0  0
  -22.7000  -29.3670   22.3730 C   0  0  0  0  0  0  0  0  0  0  0  0
  -21.3680  -29.2210   22.2600 N   0  0  0  0  0  0  0  0  0  0  0  0
  -23.3720  -28.7070   23.1710 O   0  0  0  0  0  0  0  0  0  0  0  0
  -20.8830  -29.8020   21.5910 H   0  0  0  0  0  0  0  0  0  0  0  0
  -17.9700  -28.0890   22.8190 C   0  0  0  0  0  0  0  0  0  0  0  0
  -20.5430  -28.2710   23.0120 C   0  0  0  0  0  3  0  0  0  0  0  0
  -20.5850  -26.8670   22.3650 C   0  0  0  0  0  2  0  0  0  0  0  0
  -19.4420  -26.6240   21.3740 C   0  0  0  0  0  2  0  0  0  0  0  0
  -18.0860  -26.7720   22.0700 C   0  0  0  0  0  2  0  0  0  0  0  0
  -19.1220  -28.8000   23.2460 C   0  0  0  0  0  0  0  0  0  0  0  0
  -18.9570  -30.0350   23.9110 C   0  0  0  0  0  3  0  0  0  0  0  0
  -17.6710  -30.5570   24.1500 C   0  0  0  0  0  3  0  0  0  0  0  0
  -16.5350  -29.8430   23.7370 C   0  0  0  0  0  3  0  0  0  0  0  0
  -16.6840  -28.6100   23.0780 C   0  0  0  0  0  3  0  0  0  0  0  0
  -25.8660  -32.3690   23.7410 C   0  0  0  0  0  3  0  0  0  0  0  0
  -26.3610  -31.5810   25.0170 C   0  0  1  0  0  0  0  0  0  0  0  0
  -25.2530  -31.3490   26.0700 C   0  0  0  0  0  1  0  0  0  0  0  0
  -26.9340  -30.2000   24.6240 C   0  0  0  0  0  1  0  0  0  0  0  0
  -27.5120  -32.3590   25.6980 C   0  0  0  0  0  1  0  0  0  0  0  0
  -25.5540  -33.7630   24.0950 N   0  0  0  0  0  0  0  0  0  0  0  0
  -25.9040  -34.8350   23.3710 C   0  0  0  0  0  0  0  0  0  0  0  0
  -26.5870  -34.7540   22.3470 O   0  0  0  0  0  0  0  0  0  0  0  0
  -24.9490  -33.9000   24.8910 H   0  0  0  0  0  0  0  0  0  0  0  0
  -24.1860  -36.6470   23.0570 C   0  0  0  0  0  1  0  0  0  0  0  0
  -25.4240  -36.2160   23.8600 C   0  0  0  0  0  3  0  0  0  0  0  0
  -27.5540  -37.0760   24.7240 C   0  0  0  0  0  1  0  0  0  0  0  0
  -26.4610  -37.2670   23.7760 N   0  0  0  0  0  0  0  0  0  0  0  0
  -26.0570  -38.1860   23.9400 H   0  0  0  0  0  0  0  0  0  0  0  0
  -31.6380  -20.7090   22.2220 C   0  0  0  0  0  1  0  0  0  0  0  0
  -31.9550  -19.8770   20.9730 C   0  0  0  0  0  2  0  0  0  0  0  0
  1 10  1  0
  1  6  1  0
  2  3  1  0
  3 93  1  0
  4  1  2  0
  6  3  2  0
  7  4  1  0
  7  2  2  0
  8  9  1  0
  8  4  1  0
  8  5  1  0
 10 16  1  0
 11 16  1  0
 12 13  1  0
 12 11  1  0
 14 13  1  0
 14 21  1  0
 14 15  1  0
 16 15  1  0
 17 10  2  0
 18 19  2  0
 19 38  1  0
 20 19  1  0
 20 23  1  0
 21 18  1  0
 21 22  1  0
 22 20  2  0
 23 24  1  0
 24 25  2  0
 26 29  1  0
 26 25  1  0
 27 26  2  0
 28 27  1  0
 28 23  2  0
 29 30  1  0
 30 31  1  0
 31 32  2  0
 33 32  1  0
 33 37  1  0
 34 33  2  0
 35 30  2  0
 35 34  1  0
 36 35  1  0
 38 39  1  0
 39 42  1  0
 39 41  1  0
 40 38  2  0
 43 18  1  0
 43 44  1  0
 45 43  1  0
 46 48  1  0
 47 46  1  0
 47 48  1  0
 48  2  1  0
 48 49  1  1
 49 50  1  0
 51 53  1  0
 51 50  1  0
 52 63  2  0
 53 58  1  0
 54 62  1  0
 54 64  1  0
 55 61  1  0
 55 57  1  0
 56 62  1  0
 57 56  1  0
 58 57  2  0
 59 53  2  0
 60 59  1  0
 60 55  2  0
 61 54  1  0
 62 52  1  0
 64 66  2  0
 65 64  1  0
 67 65  1  0
 68 77  2  0
 68 73  1  0
 69 65  1  0
 69 73  1  0
 70 69  1  0
 71 72  1  0
 71 70  1  0
 72 68  1  0
 73 74  2  0
 74 75  1  0
 76 75  2  0
 77 76  1  0
 78 52  1  0
 78 83  1  0
 78 79  1  0
 79 82  1  1
 79 80  1  0
 81 79  1  0
 83 86  1  0
 84 88  1  0
 84 83  1  0
 85 84  2  0
 88 87  1  0
 90 88  1  0
 90 91  1  0
 90 89  1  0
 93 92  1  0
M  ISO  4   1 100  10 100  50 101  51 101
M  END
>  <TORSDO>  (80) 
F 20

>  <SCORE>  (80) 
-15.523

>  <name>  (80) 
79

>  <ligand_id>  (80) 
79

>  <original_smiles>  (80) 
[H]c1c([H])c([H])c2c(c1[H])C([H])([H])C([H])([H])C([H])([H])C2([H])N([H])C(=O)C1([H])N(C(=O)C([H])(N([H])C(=O)C([H])(N([H])C([H])([H])[H])C([H])([H])[H])C(C([H])([H])[H])(C([H])([H])[H])C([H])([H])[H])C([H])([H])c2c([H])c(OC([H])([H])C([H])([H])C3(c4nc(N([H])C([H])([H])[H])c(C(=O)N5C([H])([H])C([H])([H])C([H])([H])C([H])(n6nc(-c7c([H])c([H])c(Oc8c([H])c([H])c(F)c([H])c8F)c([H])c7[H])c(C(=O)N([H])[H])c6N([H])[H])C5([H])[H])nc4C([H])([H])C([H])([H])[H])C([H])([H])C3([H])[H])c([H])c([H])c2C1([H])[H]

>  <smiles>  (80) 
[H]c1c([H])c([H])c2c(c1[H])C([H])([H])C([H])([H])C([H])([H])C2([H])N([H])C(=O)C1([H])N(C(=O)C([H])(N([H])C(=O)C([H])(N([H])C([H])([H])[H])C([H])([H])[H])C(C([H])([H])[H])(C([H])([H])[H])C([H])([H])[H])C([H])([H])c2c([H])c(OC([H])([H])C([H])([H])C3(c4nc(N([H])C([H])([H])[H])c(C(=O)N5C([H])([H])C([H])([H])C([H])([H])C([H])(n6nc(-c7c([H])c([H])c(Oc8c([H])c([H])c(F)c([H])c8F)c([H])c7[H])c(C(=O)N([H])[H])c6N([H])[H])C5([H])[H])nc4C([H])([H])C([H])([H])[H])C([H])([H])C3([H])[H])c([H])c([H])c2C1([H])[H]

$$$$
80:0:0
     RDKit          3D

 93102  0  0  1  0  0  0  0  0999 V2000
  -28.4090  -22.5450   20.4350 C   0  0  0  0  0  3  0  0  0  0  0  0
  -28.8930  -23.8650   20.2200 C   0  0  0  0  0  0  0  0  0  0  0  0
  -29.3170  -21.4670   20.4550 C   0  0  0  0  0  0  0  0  0  0  0  0
  -31.0050  -22.9840   20.0980 C   0  0  0  0  0  0  0  0  0  0  0  0
  -32.4860  -23.2180   19.8910 C   0  0  0  0  0  1  0  0  0  0  0  0
  -30.2170  -24.0620   20.0560 N   0  0  0  0  0  0  0  0  0  0  0  0
  -30.6250  -21.7140   20.2810 N   0  0  0  0  0  0  0  0  0  0  0  0
  -28.8780  -20.1300   20.6550 N   0  0  0  0  0  0  0  0  0  0  0  0
  -27.8810  -20.0160   20.8000 H   0  0  0  0  0  0  0  0  0  0  0  0
  -30.6810  -14.6040   20.1180 C   0  0  0  0  0  0  0  0  0  0  0  0
  -30.3120  -12.4120   19.0340 C   0  0  0  0  0  2  0  0  0  0  0  0
  -29.3220  -12.5800   17.8630 C   0  0  0  0  0  2  0  0  0  0  0  0
  -27.8730  -12.4280   18.3640 C   0  0  0  0  0  2  0  0  0  0  0  0
  -27.5800  -13.2770   19.6310 C   0  0  0  0  0  3  0  0  0  0  0  0
  -28.6940  -13.1360   20.6920 C   0  0  0  0  0  2  0  0  0  0  0  0
  -29.9720  -13.4380   20.0390 N   0  0  0  0  0  0  0  0  0  0  0  0
  -31.8490  -14.6650   19.7240 O   0  0  0  0  0  0  0  0  0  0  0  0
  -28.9530  -17.9370   19.4100 C   0  0  0  0  0  2  0  0  0  0  0  0
  -29.8180  -18.0060   21.6880 C   0  0  0  0  0  2  0  0  0  0  0  0
  -29.7220  -16.6010   19.1680 C   0  0  0  0  0  2  0  0  0  0  0  0
  -30.5690  -16.6550   21.4340 C   0  0  0  0  0  2  0  0  0  0  0  0
  -29.6500  -18.8780   20.4200 C   0  0  0  0  0  3  0  0  0  0  0  0
  -30.0060  -15.7770   20.3740 N   0  0  0  0  0  0  0  0  0  0  0  0
  -25.2320  -13.8580   20.4920 C   0  0  0  0  0  0  0  0  0  0  0  0
  -24.1810  -13.0780   20.8890 C   0  0  0  0  0  0  0  0  0  0  0  0
  -24.6340  -11.7270   20.7970 C   0  0  0  0  0  0  0  0  0  0  0  0
  -26.2590  -12.9830   20.1800 N   0  0  0  0  0  0  0  0  0  0  0  0
  -25.9080  -11.6930   20.4250 N   0  0  0  0  0  0  0  0  0  0  0  0
  -23.9110  -10.4610   20.9870 C   0  0  0  0  0  0  0  0  0  0  0  0
  -24.3520   -9.4890   21.9100 C   0  0  0  0  0  3  0  0  0  0  0  0
  -23.6290   -8.2900   22.0890 C   0  0  0  0  0  3  0  0  0  0  0  0
  -22.4500   -8.0540   21.3430 C   0  0  0  0  0  0  0  0  0  0  0  0
  -22.0270   -9.0160   20.4080 C   0  0  0  0  0  3  0  0  0  0  0  0
  -22.7510  -10.2050   20.2270 C   0  0  0  0  0  3  0  0  0  0  0  0
  -21.6970   -6.9080   21.4310 O   0  0  0  0  0  0  0  0  0  0  0  0
  -21.6120   -6.1900   22.5970 C   0  0  0  0  0  0  0  0  0  0  0  0
  -21.1200   -6.7640   23.7900 C   0  0  0  0  0  3  0  0  0  0  0  0
  -20.9830   -5.9710   24.9470 C   0  0  0  0  0  3  0  0  0  0  0  0
  -21.3290   -4.6070   24.9120 C   0  0  0  0  0  0  0  0  0  0  0  0
  -21.8140   -4.0330   23.7240 C   0  0  0  0  0  3  0  0  0  0  0  0
  -21.9520   -4.8230   22.5690 C   0  0  0  0  0  0  0  0  0  0  0  0
  -22.4000   -4.2600   21.4210 F   0  0  0  0  0  0  0  0  0  0  0  0
  -21.1910   -3.8430   26.0210 F   0  0  0  0  0  0  0  0  0  0  0  0
  -22.8010  -13.5520   21.2430 C   0  0  0  0  0  0  0  0  0  0  0  0
  -22.1160  -12.8400   22.1300 N   0  0  0  0  0  0  0  0  0  0  0  0
  -22.3400  -14.5890   20.7670 O   0  0  0  0  0  0  0  0  0  0  0  0
  -22.5020  -12.0010   22.5370 H   0  0  0  0  0  0  0  0  0  0  0  0
  -21.1920  -13.1390   22.4080 H   0  0  0  0  0  0  0  0  0  0  0  0
  -25.3960  -15.2320   20.3470 N   0  0  0  0  0  0  0  0  0  0  0  0
  -24.6440  -15.8900   20.5230 H   0  0  0  0  0  0  0  0  0  0  0  0
  -26.2450  -15.6760   20.0230 H   0  0  0  0  0  0  0  0  0  0  0  0
  -27.9000  -25.0450   20.0220 C   0  0  0  0  0  2  0  0  0  0  0  0
  -28.2600  -26.4650   20.2170 O   0  0  0  0  0  0  0  0  0  0  0  0
  -24.6160  -31.8840   23.2800 C   0  0  0  0  0  0  0  0  0  0  0  0
  -27.1690  -27.3500   20.1560 C   0  0  0  0  0  0  0  0  0  0  0  0
  -23.3930  -30.5150   21.6330 C   0  0  0  0  0  3  0  0  0  0  0  0
  -24.8220  -28.9830   20.1790 C   0  0  0  0  0  0  0  0  0  0  0  0
  -25.9360  -30.8160   21.4430 C   0  0  0  0  0  2  0  0  0  0  0  0
  -26.0000  -29.4490   20.7780 C   0  0  0  0  0  0  0  0  0  0  0  0
  -27.1780  -28.6430   20.7630 C   0  0  0  0  0  3  0  0  0  0  0  0
  -25.9660  -26.9540   19.5170 C   0  0  0  0  0  3  0  0  0  0  0  0
  -24.8060  -27.7400   19.5400 C   0  0  0  0  0  3  0  0  0  0  0  0
  -23.5930  -29.8620   20.2430 C   0  0  0  0  0  2  0  0  0  0  0  0
  -24.6680  -31.0860   22.1740 N   0  0  0  0  0  0  0  0  0  0  0  0
  -23.5370  -32.1650   23.8210 O   0  0  0  0  0  0  0  0  0  0  0  0
  -22.7290  -29.4870   22.5800 C   0  0  0  0  0  0  0  0  0  0  0  0
  -21.4030  -29.3090   22.4450 N   0  0  0  0  0  0  0  0  0  0  0  0
  -23.4040  -28.8570   23.3990 O   0  0  0  0  0  0  0  0  0  0  0  0
  -20.9190  -29.8690   21.7590 H   0  0  0  0  0  0  0  0  0  0  0  0
  -18.0230  -28.1100   22.9160 C   0  0  0  0  0  0  0  0  0  0  0  0
  -20.5790  -28.3700   23.2080 C   0  0  0  0  0  3  0  0  0  0  0  0
  -20.6860  -26.9380   22.6330 C   0  0  0  0  0  2  0  0  0  0  0  0
  -19.5930  -26.6170   21.6090 C   0  0  0  0  0  2  0  0  0  0  0  0
  -18.2060  -26.7610   22.2420 C   0  0  0  0  0  2  0  0  0  0  0  0
  -19.1390  -28.8720   23.3560 C   0  0  0  0  0  0  0  0  0  0  0  0
  -18.9150  -30.1340   23.9460 C   0  0  0  0  0  3  0  0  0  0  0  0
  -17.6080  -30.6360   24.1020 C   0  0  0  0  0  3  0  0  0  0  0  0
  -16.5080  -29.8710   23.6790 C   0  0  0  0  0  3  0  0  0  0  0  0
  -16.7160  -28.6090   23.0920 C   0  0  0  0  0  3  0  0  0  0  0  0
  -25.9070  -32.4980   23.9000 C   0  0  0  0  0  3  0  0  0  0  0  0
  -25.6130  -33.8970   24.2380 N   0  0  0  0  0  0  0  0  0  0  0  0
  -25.9230  -34.9480   23.4670 C   0  0  0  0  0  0  0  0  0  0  0  0
  -26.5580  -34.8410   22.4140 O   0  0  0  0  0  0  0  0  0  0  0  0
  -25.0450  -34.0550   25.0570 H   0  0  0  0  0  0  0  0  0  0  0  0
  -24.1750  -36.7340   23.1840 C   0  0  0  0  0  1  0  0  0  0  0  0
  -25.4540  -36.3380   23.9380 C   0  0  0  0  0  3  0  0  0  0  0  0
  -27.6220  -37.2350   24.6630 C   0  0  0  0  0  1  0  0  0  0  0  0
  -26.4780  -37.3930   23.7700 N   0  0  0  0  0  0  0  0  0  0  0  0
  -26.0760  -38.3130   23.9300 H   0  0  0  0  0  0  0  0  0  0  0  0
  -26.4190  -31.7130   25.1710 C   0  0  1  0  0  0  0  0  0  0  0  0
  -25.3240  -31.4800   26.2390 C   0  0  0  0  0  1  0  0  0  0  0  0
  -26.9880  -30.3320   24.7720 C   0  0  0  0  0  1  0  0  0  0  0  0
  -27.5770  -32.4930   25.8360 C   0  0  0  0  0  1  0  0  0  0  0  0
  1  3  1  0
  2  1  2  0
  3  8  1  0
  4  7  1  0
  5  4  1  0
  6  4  2  0
  6  2  1  0
  7  3  2  0
  8  9  1  0
 10 23  1  0
 11 16  1  0
 12 13  1  0
 12 11  1  0
 14 13  1  0
 14 27  1  0
 14 15  1  0
 16 10  1  0
 16 15  1  0
 17 10  2  0
 18 22  1  0
 20 18  1  0
 20 23  1  0
 21 19  1  0
 22  8  1  0
 22 19  1  0
 23 21  1  0
 24 25  2  0
 25 44  1  0
 26 25  1  0
 26 29  1  0
 27 28  1  0
 27 24  1  0
 28 26  2  0
 29 30  1  0
 30 31  2  0
 32 35  1  0
 32 31  1  0
 33 32  2  0
 34 33  1  0
 34 29  2  0
 35 36  1  0
 36 37  1  0
 37 38  2  0
 39 38  1  0
 39 43  1  0
 40 39  2  0
 41 36  2  0
 41 40  1  0
 42 41  1  0
 44 45  1  0
 45 48  1  0
 45 47  1  0
 46 44  2  0
 49 24  1  0
 49 50  1  0
 51 49  1  0
 52 53  1  0
 52  2  1  0
 54 65  2  0
 55 53  1  0
 55 60  1  0
 56 64  1  0
 56 66  1  0
 57 63  1  0
 57 59  1  0
 58 64  1  0
 59 58  1  0
 60 59  2  0
 61 62  1  0
 61 55  2  0
 62 57  2  0
 63 56  1  0
 64 54  1  0
 66 68  2  0
 67 66  1  0
 69 67  1  0
 70 79  2  0
 70 75  1  0
 71 67  1  0
 71 75  1  0
 72 71  1  0
 73 74  1  0
 73 72  1  0
 74 70  1  0
 75 76  2  0
 76 77  1  0
 78 77  2  0
 79 78  1  0
 80 54  1  0
 80 81  1  0
 80 90  1  0
 81 84  1  0
 82 86  1  0
 82 81  1  0
 83 82  2  0
 86 85  1  0
 88 89  1  0
 88 86  1  0
 88 87  1  0
 90 93  1  1
 90 91  1  0
 92 90  1  0
M  ISO  4  10 100  23 100  52 101  53 101
M  END
>  <TORSDO>  (81) 
F 17

>  <SCORE>  (81) 
-15.059

>  <name>  (81) 
80

>  <ligand_id>  (81) 
80

>  <original_smiles>  (81) 
[H]c1c(N([H])C2([H])C([H])([H])C([H])([H])N(C(=O)N3C([H])([H])C([H])([H])C([H])([H])C([H])(n4nc(-c5c([H])c([H])c(Oc6c([H])c([H])c(F)c([H])c6F)c([H])c5[H])c(C(=O)N([H])[H])c4N([H])[H])C3([H])[H])C([H])([H])C2([H])[H])nc(C([H])([H])[H])nc1C([H])([H])Oc1c([H])c([H])c2c(c1[H])C([H])([H])N(C(=O)C([H])(N([H])C(=O)C([H])(N([H])C([H])([H])[H])C([H])([H])[H])C(C([H])([H])[H])(C([H])([H])[H])C([H])([H])[H])C([H])(C(=O)N([H])C1([H])c3c([H])c([H])c([H])c([H])c3C([H])([H])C([H])([H])C1([H])[H])C2([H])[H]

>  <smiles>  (81) 
[H]c1c(N([H])C2([H])C([H])([H])C([H])([H])N(C(=O)N3C([H])([H])C([H])([H])C([H])([H])C([H])(n4nc(-c5c([H])c([H])c(Oc6c([H])c([H])c(F)c([H])c6F)c([H])c5[H])c(C(=O)N([H])[H])c4N([H])[H])C3([H])[H])C([H])([H])C2([H])[H])nc(C([H])([H])[H])nc1C([H])([H])Oc1c([H])c([H])c2c(c1[H])C([H])([H])N(C(=O)C([H])(N([H])C(=O)C([H])(N([H])C([H])([H])[H])C([H])([H])[H])C(C([H])([H])[H])(C([H])([H])[H])C([H])([H])[H])C([H])(C(=O)N([H])C1([H])c3c([H])c([H])c([H])c([H])c3C([H])([H])C([H])([H])C1([H])[H])C2([H])[H]

$$$$
81:0:0
     RDKit          3D

 98107  0  0  1  0  0  0  0  0999 V2000
  -28.7680  -23.0980   20.3740 C   0  0  0  0  0  0  0  0  0  0  0  0
  -29.3220  -21.8210   20.7050 C   0  0  0  0  0  0  0  0  0  0  0  0
  -28.7420  -24.0760   21.4090 C   0  0  0  0  0  0  0  0  0  0  0  0
  -29.8760  -22.6280   22.7890 C   0  0  0  0  0  0  0  0  0  0  0  0
  -30.5080  -22.3700   24.1390 C   0  0  0  0  0  1  0  0  0  0  0  0
  -29.8740  -21.6180   21.9220 N   0  0  0  0  0  0  0  0  0  0  0  0
  -29.3340  -23.8200   22.5930 N   0  0  0  0  0  0  0  0  0  0  0  0
  -30.5910  -20.0830   19.1610 C   0  0  0  0  0  2  0  0  0  0  0  0
  -29.3190  -20.5930   19.7940 C   0  0  0  0  0  3  0  0  0  0  0  0
  -30.0440  -19.4450   20.3490 N   0  0  1  0  0  4  0  0  0  0  0  0
  -30.3860  -19.7600   21.2480 H   0  0  0  0  0  0  0  0  0  0  0  0
  -29.4730  -18.0630   20.1990 C   0  0  0  0  0  2  0  0  0  0  0  0
  -30.5220  -16.9300   20.4570 C   0  0  0  0  0  2  0  0  0  0  0  0
  -30.6670  -14.4450   20.0740 C   0  0  0  0  0  0  0  0  0  0  0  0
  -30.2990  -12.2620   18.9930 C   0  0  0  0  0  2  0  0  0  0  0  0
  -29.3000  -12.4430   17.8330 C   0  0  0  0  0  2  0  0  0  0  0  0
  -27.8510  -12.3030   18.3410 C   0  0  0  0  0  2  0  0  0  0  0  0
  -27.5750  -13.1570   19.6090 C   0  0  0  0  0  3  0  0  0  0  0  0
  -28.6920  -12.9810   20.6640 C   0  0  0  0  0  2  0  0  0  0  0  0
  -29.9770  -13.2730   20.0130 N   0  0  0  0  0  0  0  0  0  0  0  0
  -31.7940  -14.5730   19.5910 O   0  0  0  0  0  0  0  0  0  0  0  0
  -29.9930  -15.5360   20.5110 N   0  0  0  0  0  0  0  0  0  0  0  0
  -29.0640  -15.3870   20.8730 H   0  0  0  0  0  0  0  0  0  0  0  0
  -25.2300  -13.7610   20.4750 C   0  0  0  0  0  0  0  0  0  0  0  0
  -24.1790  -12.9890   20.8900 C   0  0  0  0  0  0  0  0  0  0  0  0
  -24.6260  -11.6350   20.8040 C   0  0  0  0  0  0  0  0  0  0  0  0
  -26.2520  -12.8780   20.1650 N   0  0  0  0  0  0  0  0  0  0  0  0
  -25.8960  -11.5930   20.4210 N   0  0  0  0  0  0  0  0  0  0  0  0
  -23.9000  -10.3740   21.0100 C   0  0  0  0  0  0  0  0  0  0  0  0
  -24.3570   -9.4000   21.9230 C   0  0  0  0  0  3  0  0  0  0  0  0
  -23.6320   -8.2040   22.1160 C   0  0  0  0  0  3  0  0  0  0  0  0
  -22.4350   -7.9750   21.3960 C   0  0  0  0  0  0  0  0  0  0  0  0
  -21.9980   -8.9380   20.4710 C   0  0  0  0  0  3  0  0  0  0  0  0
  -22.7220  -10.1250   20.2750 C   0  0  0  0  0  3  0  0  0  0  0  0
  -21.6800   -6.8310   21.5000 O   0  0  0  0  0  0  0  0  0  0  0  0
  -21.6500   -6.0910   22.6540 C   0  0  0  0  0  0  0  0  0  0  0  0
  -21.2220   -6.6410   23.8830 C   0  0  0  0  0  3  0  0  0  0  0  0
  -21.1400   -5.8250   25.0290 C   0  0  0  0  0  3  0  0  0  0  0  0
  -21.4760   -4.4610   24.9490 C   0  0  0  0  0  0  0  0  0  0  0  0
  -21.8970   -3.9100   23.7260 C   0  0  0  0  0  3  0  0  0  0  0  0
  -21.9810   -4.7230   22.5810 C   0  0  0  0  0  0  0  0  0  0  0  0
  -22.3660   -4.1820   21.4000 F   0  0  0  0  0  0  0  0  0  0  0  0
  -21.3900   -3.6760   26.0480 F   0  0  0  0  0  0  0  0  0  0  0  0
  -22.8030  -13.4710   21.2500 C   0  0  0  0  0  0  0  0  0  0  0  0
  -22.1160  -12.7580   22.1370 N   0  0  0  0  0  0  0  0  0  0  0  0
  -22.3470  -14.5130   20.7800 O   0  0  0  0  0  0  0  0  0  0  0  0
  -22.4990  -11.9140   22.5360 H   0  0  0  0  0  0  0  0  0  0  0  0
  -21.1960  -13.0620   22.4190 H   0  0  0  0  0  0  0  0  0  0  0  0
  -25.3940  -15.1350   20.3140 N   0  0  0  0  0  0  0  0  0  0  0  0
  -24.6330  -15.7850   20.4680 H   0  0  0  0  0  0  0  0  0  0  0  0
  -26.2120  -15.5720   19.9090 H   0  0  0  0  0  0  0  0  0  0  0  0
  -28.1550  -23.3900   18.9980 C   0  0  0  0  0  2  0  0  0  0  0  0
  -28.3930  -24.6620   16.8820 C   0  0  0  0  0  1  0  0  0  0  0  0
  -29.0020  -24.2860   18.1730 N   0  0  0  0  0  4  0  0  0  0  0  0
  -29.1980  -25.1410   18.6690 H   0  0  0  0  0  0  0  0  0  0  0  0
  -29.8850  -23.8450   17.9730 H   0  0  0  0  0  0  0  0  0  0  0  0
  -27.8680  -25.3560   21.3890 C   0  0  0  0  0  2  0  0  0  0  0  0
  -28.1870  -26.4250   20.4620 O   0  0  0  0  0  0  0  0  0  0  0  0
  -24.5110  -31.8680   23.2750 C   0  0  0  0  0  0  0  0  0  0  0  0
  -27.1130  -27.2900   20.3420 C   0  0  0  0  0  0  0  0  0  0  0  0
  -23.3120  -30.4630   21.6320 C   0  0  0  0  0  3  0  0  0  0  0  0
  -24.7640  -28.8740   20.2580 C   0  0  0  0  0  0  0  0  0  0  0  0
  -25.8520  -30.7580   21.4870 C   0  0  0  0  0  2  0  0  0  0  0  0
  -25.9230  -29.3740   20.8680 C   0  0  0  0  0  0  0  0  0  0  0  0
  -27.1050  -28.5900   20.9070 C   0  0  0  0  0  3  0  0  0  0  0  0
  -25.9460  -26.8230   19.7020 C   0  0  0  0  0  3  0  0  0  0  0  0
  -24.7740  -27.6000   19.6670 C   0  0  0  0  0  3  0  0  0  0  0  0
  -23.5370  -29.7570   20.2670 C   0  0  0  0  0  2  0  0  0  0  0  0
  -24.5750  -31.0440   22.1890 N   0  0  0  0  0  0  0  0  0  0  0  0
  -23.4240  -32.1730   23.7860 O   0  0  0  0  0  0  0  0  0  0  0  0
  -22.6150  -29.4740   22.5960 C   0  0  0  0  0  0  0  0  0  0  0  0
  -21.2870  -29.3280   22.4520 N   0  0  0  0  0  0  0  0  0  0  0  0
  -23.2690  -28.8400   23.4290 O   0  0  0  0  0  0  0  0  0  0  0  0
  -20.8240  -29.8890   21.7510 H   0  0  0  0  0  0  0  0  0  0  0  0
  -17.8680  -28.2650   22.9440 C   0  0  0  0  0  0  0  0  0  0  0  0
  -20.4330  -28.4250   23.2240 C   0  0  0  0  0  3  0  0  0  0  0  0
  -20.4820  -26.9890   22.6540 C   0  0  0  0  0  2  0  0  0  0  0  0
  -19.3720  -26.7050   21.6370 C   0  0  0  0  0  2  0  0  0  0  0  0
  -17.9940  -26.9060   22.2750 C   0  0  0  0  0  2  0  0  0  0  0  0
  -19.0130  -28.9840   23.3760 C   0  0  0  0  0  0  0  0  0  0  0  0
  -18.8410  -30.2570   23.9610 C   0  0  0  0  0  3  0  0  0  0  0  0
  -17.5560  -30.8090   24.1200 C   0  0  0  0  0  3  0  0  0  0  0  0
  -16.4240  -30.0850   23.7050 C   0  0  0  0  0  3  0  0  0  0  0  0
  -16.5810  -28.8150   23.1220 C   0  0  0  0  0  3  0  0  0  0  0  0
  -25.7960  -32.4840   23.9110 C   0  0  0  0  0  3  0  0  0  0  0  0
  -25.5050  -33.8870   24.2270 N   0  0  0  0  0  0  0  0  0  0  0  0
  -25.8530  -34.9280   23.4580 C   0  0  0  0  0  0  0  0  0  0  0  0
  -26.5240  -34.8060   22.4300 O   0  0  0  0  0  0  0  0  0  0  0  0
  -24.9110  -34.0580   25.0250 H   0  0  0  0  0  0  0  0  0  0  0  0
  -24.1450  -36.7360   23.0850 C   0  0  0  0  0  1  0  0  0  0  0  0
  -25.3820  -36.3270   23.9000 C   0  0  0  0  0  3  0  0  0  0  0  0
  -27.5240  -37.1990   24.7250 C   0  0  0  0  0  1  0  0  0  0  0  0
  -26.4270  -37.3670   23.7760 N   0  0  0  0  0  0  0  0  0  0  0  0
  -26.0310  -38.2940   23.9090 H   0  0  0  0  0  0  0  0  0  0  0  0
  -26.2840  -31.7110   25.1970 C   0  0  1  0  0  0  0  0  0  0  0  0
  -25.1700  -31.4900   26.2480 C   0  0  0  0  0  1  0  0  0  0  0  0
  -26.8560  -30.3270   24.8190 C   0  0  0  0  0  1  0  0  0  0  0  0
  -27.4330  -32.4940   25.8750 C   0  0  0  0  0  1  0  0  0  0  0  0
  1  2  2  0
  1  3  1  0
  2  6  1  0
  3  7  2  0
  4  5  1  0
  6  4  2  0
  7  4  1  0
  8  9  1  0
  8 10  1  0
  9 10  1  0
  9  2  1  0
 10 11  1  1
 12 10  1  0
 12 13  1  0
 13 22  1  0
 14 22  1  0
 15 20  1  0
 16 17  1  0
 16 15  1  0
 18 17  1  0
 18 27  1  0
 18 19  1  0
 20 14  1  0
 20 19  1  0
 21 14  2  0
 22 23  1  0
 24 25  2  0
 25 44  1  0
 26 25  1  0
 26 29  1  0
 27 28  1  0
 27 24  1  0
 28 26  2  0
 29 30  1  0
 30 31  2  0
 32 35  1  0
 32 31  1  0
 33 32  2  0
 34 33  1  0
 34 29  2  0
 35 36  1  0
 36 37  1  0
 37 38  2  0
 39 38  1  0
 39 43  1  0
 40 39  2  0
 41 36  2  0
 41 40  1  0
 42 41  1  0
 44 45  1  0
 45 48  1  0
 45 47  1  0
 46 44  2  0
 49 50  1  0
 49 24  1  0
 51 49  1  0
 52  1  1  0
 53 54  1  0
 54 55  1  0
 54 52  1  0
 56 54  1  0
 57  3  1  0
 58 57  1  0
 59 70  2  0
 60 58  1  0
 60 65  1  0
 61 69  1  0
 61 71  1  0
 62 68  1  0
 62 64  1  0
 63 69  1  0
 64 65  2  0
 64 63  1  0
 66 60  2  0
 67 66  1  0
 67 62  2  0
 68 61  1  0
 69 59  1  0
 71 73  2  0
 72 71  1  0
 74 72  1  0
 75 84  2  0
 75 80  1  0
 76 72  1  0
 76 80  1  0
 77 76  1  0
 78 79  1  0
 78 77  1  0
 79 75  1  0
 80 81  2  0
 81 82  1  0
 83 82  2  0
 84 83  1  0
 85 59  1  0
 85 86  1  0
 85 95  1  0
 86 89  1  0
 87 91  1  0
 87 86  1  0
 88 87  2  0
 91 90  1  0
 93 91  1  0
 93 94  1  0
 93 92  1  0
 95 98  1  1
 95 96  1  0
 97 95  1  0
M  ISO  4  14 100  22 100  57 101  58 101
M  END
>  <TORSDO>  (82) 
F 22

>  <SCORE>  (82) 
-13.405

>  <name>  (82) 
81

>  <ligand_id>  (82) 
81

>  <original_smiles>  (82) 
[H]c1c([H])c([H])c2c(c1[H])C([H])([H])C([H])([H])C([H])([H])C2([H])N([H])C(=O)C1([H])N(C(=O)C([H])(N([H])C(=O)C([H])(N([H])C([H])([H])[H])C([H])([H])[H])C(C([H])([H])[H])(C([H])([H])[H])C([H])([H])[H])C([H])([H])c2c([H])c(OC([H])([H])c3nc(C([H])([H])[H])nc(C4([H])C([H])([H])[N+]4([H])C([H])([H])C([H])([H])N([H])C(=O)N4C([H])([H])C([H])([H])C([H])([H])C([H])(n5nc(-c6c([H])c([H])c(Oc7c([H])c([H])c(F)c([H])c7F)c([H])c6[H])c(C(=O)N([H])[H])c5N([H])[H])C4([H])[H])c3C([H])([H])[N+]([H])([H])C([H])([H])[H])c([H])c([H])c2C1([H])[H]

>  <smiles>  (82) 
[H]c1c([H])c([H])c2c(c1[H])C([H])([H])C([H])([H])C([H])([H])C2([H])N([H])C(=O)C1([H])N(C(=O)C([H])(N([H])C(=O)C([H])(N([H])C([H])([H])[H])C([H])([H])[H])C(C([H])([H])[H])(C([H])([H])[H])C([H])([H])[H])C([H])([H])c2c([H])c(OC([H])([H])c3nc(C([H])([H])[H])nc(C4([H])C([H])([H])[N+]4([H])C([H])([H])C([H])([H])N([H])C(=O)N4C([H])([H])C([H])([H])C([H])([H])C([H])(n5nc(-c6c([H])c([H])c(Oc7c([H])c([H])c(F)c([H])c7F)c([H])c6[H])c(C(=O)N([H])[H])c5N([H])[H])C4([H])[H])c3C([H])([H])[N+]([H])([H])C([H])([H])[H])c([H])c([H])c2C1([H])[H]

$$$$
82:0:0
     RDKit          3D

 94 96  0  0  1  0  0  0  0  0999 V2000
  -24.1750  -25.3920   21.6650 C   0  0  0  0  0  2  0  0  0  0  0  0
  -25.3750  -24.4340   19.4510 C   0  0  0  0  0  2  0  0  0  0  0  0
  -23.2530  -24.8150   20.6540 C   0  0  0  0  0  2  0  0  0  0  0  0
  -24.5330  -23.5070   20.0900 C   0  0  0  0  0  2  0  0  0  0  0  0
  -25.6360  -25.5610   21.4620 C   0  0  0  0  0  0  0  0  0  0  0  0
  -26.1740  -25.1410   20.2860 N   0  0  0  0  0  0  0  0  0  0  0  0
  -20.2620  -26.5950   18.1850 C   0  0  0  0  0  2  0  0  0  0  0  0
  -20.5250  -27.6350   18.5920 C   0  0  0  0  0  2  0  0  0  0  0  0
  -21.2890  -26.1990   20.3760 C   0  0  0  0  0  2  0  0  0  0  0  0
  -18.8690  -28.0620   16.7830 C   0  0  0  0  0  1  0  0  0  0  0  0
  -19.2120  -27.4660   18.0980 N   0  0  1  0  0  4  0  0  0  0  0  0
  -18.5520  -27.5280   18.8670 H   0  0  0  0  0  0  0  0  0  0  0  0
  -26.1860  -21.9800   20.4250 C   0  0  0  0  0 15  0  0  0  0  0  0
  -27.4790  -19.9840   19.9530 C   0  0  0  0  0 15  0  0  0  0  0  0
  -30.2190  -17.1420   20.2700 C   0  0  0  0  0  0  0  0  0  0  0  0
  -31.3690  -14.4720   19.8530 C   0  0  0  0  0  2  0  0  0  0  0  0
  -30.9260  -13.3990   18.7660 C   0  0  0  0  0  2  0  0  0  0  0  0
  -29.5470  -12.8210   19.0890 C   0  0  0  0  0  2  0  0  0  0  0  0
  -28.7490  -13.9460   19.7590 C   0  0  0  0  0  3  0  0  0  0  0  0
  -29.4100  -14.6240   20.9580 C   0  0  0  0  0  2  0  0  0  0  0  0
  -30.2720  -15.5840   20.2940 N   0  0  0  0  0  0  0  0  0  0  0  0
  -31.5150  -17.1680   20.2590 O   0  0  0  0  0  0  0  0  0  0  0  0
  -29.1140  -18.5980   20.2110 N   0  0  0  0  0  2  0  0  0  0  0  0
  -29.8620  -19.2750   20.2910 H   0  0  0  0  0  0  0  0  0  0  0  0
  -26.4580  -14.6150   20.3420 C   0  0  0  0  0  0  0  0  0  0  0  0
  -25.3490  -13.9040   20.6580 C   0  0  0  0  0  0  0  0  0  0  0  0
  -25.7470  -12.5290   20.6630 C   0  0  0  0  0  0  0  0  0  0  0  0
  -27.4250  -13.6620   20.1350 N   0  0  0  0  0  0  0  0  0  0  0  0
  -27.0380  -12.4040   20.4120 N   0  0  0  0  0  0  0  0  0  0  0  0
  -24.9540  -11.3170   20.8090 C   0  0  0  0  0  0  0  0  0  0  0  0
  -25.1900  -10.3970   21.8510 C   0  0  0  0  0  3  0  0  0  0  0  0
  -24.3860   -9.2440   21.9720 C   0  0  0  0  0  3  0  0  0  0  0  0
  -23.3420   -9.0120   21.0470 C   0  0  0  0  0  0  0  0  0  0  0  0
  -23.1350   -9.9190   19.9930 C   0  0  0  0  0  3  0  0  0  0  0  0
  -23.9370  -11.0620   19.8710 C   0  0  0  0  0  3  0  0  0  0  0  0
  -22.5230   -7.9110   21.0730 O   0  0  0  0  0  0  0  0  0  0  0  0
  -22.0700   -7.3830   22.2530 C   0  0  0  0  0  0  0  0  0  0  0  0
  -21.3530   -8.1590   23.1910 C   0  0  0  0  0  3  0  0  0  0  0  0
  -20.8470   -7.5560   24.3600 C   0  0  0  0  0  3  0  0  0  0  0  0
  -21.0470   -6.1820   24.5860 C   0  0  0  0  0  0  0  0  0  0  0  0
  -21.7580   -5.4090   23.6520 C   0  0  0  0  0  3  0  0  0  0  0  0
  -22.2660   -6.0090   22.4870 C   0  0  0  0  0  0  0  0  0  0  0  0
  -22.9320   -5.2560   21.5780 F   0  0  0  0  0  0  0  0  0  0  0  0
  -20.5520   -5.6010   25.7050 F   0  0  0  0  0  0  0  0  0  0  0  0
  -23.9800  -14.4740   20.8320 C   0  0  0  0  0  0  0  0  0  0  0  0
  -23.1650  -13.8480   21.6680 N   0  0  0  0  0  0  0  0  0  0  0  0
  -23.6510  -15.5140   20.2610 O   0  0  0  0  0  0  0  0  0  0  0  0
  -23.4560  -13.0130   22.1520 H   0  0  0  0  0  0  0  0  0  0  0  0
  -22.2370  -14.2110   21.8290 H   0  0  0  0  0  0  0  0  0  0  0  0
  -26.7240  -15.9780   20.1860 N   0  0  0  0  0  0  0  0  0  0  0  0
  -25.9930  -16.6750   20.2660 H   0  0  0  0  0  0  0  0  0  0  0  0
  -27.6010  -16.3640   19.8670 H   0  0  0  0  0  0  0  0  0  0  0  0
  -26.6900  -26.2320   22.5100 C   0  0  0  0  0  2  0  0  0  0  0  0
  -27.9560  -27.0430   22.1690 O   0  0  0  0  0  0  0  0  0  0  0  0
  -24.8530  -32.8840   23.6880 C   0  0  0  0  0  0  0  0  0  0  0  0
  -27.6020  -28.1130   21.4180 C   0  0  0  0  0  0  0  0  0  0  0  0
  -23.9810  -31.4610   21.9220 C   0  0  0  0  0  3  0  0  0  0  0  0
  -25.5600  -29.8480   20.7540 C   0  0  0  0  0  0  0  0  0  0  0  0
  -26.4810  -31.7090   22.1710 C   0  0  0  0  0  2  0  0  0  0  0  0
  -26.5940  -30.3090   21.5860 C   0  0  0  0  0  0  0  0  0  0  0  0
  -27.6470  -29.4330   21.9310 C   0  0  0  0  0  3  0  0  0  0  0  0
  -26.7160  -27.7540   20.4070 C   0  0  0  0  0  3  0  0  0  0  0  0
  -25.6420  -28.5950   20.1240 C   0  0  0  0  0  3  0  0  0  0  0  0
  -24.3650  -30.7480   20.5950 C   0  0  0  0  0  2  0  0  0  0  0  0
  -25.1200  -32.0760   22.6230 N   0  0  0  0  0  0  0  0  0  0  0  0
  -23.6900  -33.1640   24.0210 O   0  0  0  0  0  0  0  0  0  0  0  0
  -23.3950  -30.4500   22.8780 C   0  0  0  0  0  0  0  0  0  0  0  0
  -22.1290  -30.2750   22.7590 N   0  0  0  0  0  0  0  0  0  0  0  0
  -24.0620  -29.8190   23.6970 O   0  0  0  0  0  0  0  0  0  0  0  0
  -21.5840  -30.8590   22.1430 H   0  0  0  0  0  0  0  0  0  0  0  0
  -18.6400  -28.2360   23.3450 C   0  0  0  0  0  3  0  0  0  0  0  0
  -21.7530  -28.9500   23.0580 C   0  0  0  0  0  2  0  0  0  0  0  0
  -22.1580  -27.5540   21.1930 C   0  0  0  0  0  1  0  0  0  0  0  0
  -20.4170  -25.8380   20.9100 C   0  0  0  0  0  1  0  0  0  0  0  0
  -18.6040  -26.5540   22.2550 C   0  0  0  0  0 15  0  0  0  0  0  0
  -19.9390  -29.1480   23.7690 C   0  0  0  0  0  0  0  0  0  0  0  0
  -19.6150  -30.5350   24.1690 C   0  0  0  0  0  3  0  0  0  0  0  0
  -18.3400  -31.1790   24.1750 C   0  0  0  0  0  3  0  0  0  0  0  0
  -17.2240  -30.4290   23.7840 C   0  0  0  0  0  3  0  0  0  0  0  0
  -17.3900  -29.0460   23.4100 C   0  0  0  0  0  3  0  0  0  0  0  0
  -26.0020  -33.4970   24.5230 C   0  0  0  0  0  3  0  0  0  0  0  0
  -26.2200  -32.7810   25.9100 C   0  0  1  0  0  0  0  0  0  0  0  0
  -24.9190  -32.5830   26.7240 C   0  0  0  0  0  1  0  0  0  0  0  0
  -26.8730  -31.3920   25.7150 C   0  0  0  0  0  1  0  0  0  0  0  0
  -27.2050  -33.6140   26.7620 C   0  0  0  0  0  1  0  0  0  0  0  0
  -25.6670  -34.9110   24.7070 N   0  0  0  0  0  0  0  0  0  0  0  0
  -26.1080  -35.8900   23.9120 C   0  0  0  0  0  0  0  0  0  0  0  0
  -26.9150  -35.6970   22.9980 O   0  0  0  0  0  0  0  0  0  0  0  0
  -24.9750  -35.1290   25.4100 H   0  0  0  0  0  0  0  0  0  0  0  0
  -24.4760  -37.6480   23.1600 C   0  0  0  0  0  1  0  0  0  0  0  0
  -25.5770  -37.3110   24.1770 C   0  0  0  0  0  3  0  0  0  0  0  0
  -27.5900  -38.2320   25.2340 C   0  0  0  0  0  1  0  0  0  0  0  0
  -26.6330  -38.3440   24.1360 N   0  0  0  0  0  0  0  0  0  0  0  0
  -26.2290  -39.2770   24.1650 H   0  0  0  0  0  0  0  0  0  0  0  0
  2  4  1  0
  2  6  1  0
  3  1  1  0
  4  3  1  0
  5  1  1  0
  5 53  1  0
  6  5  2  0
  7  8  1  0
  9 74  1  0
  9 73  1  0
 10 11  1  0
 11  7  1  0
 11  8  1  0
 11 12  1  1
 15 21  1  0
 16 21  1  0
 17 18  1  0
 17 16  1  0
 19 18  1  0
 19 28  1  0
 19 20  1  0
 21 20  1  0
 22 15  2  0
 23 15  1  0
 23 24  1  0
 25 26  2  0
 26 27  1  0
 26 45  1  0
 27 30  1  0
 28 25  1  0
 28 29  1  0
 29 27  2  0
 30 31  1  0
 31 32  2  0
 33 36  1  0
 33 32  1  0
 34 33  2  0
 35 34  1  0
 35 30  2  0
 36 37  1  0
 37 42  2  0
 37 38  1  0
 38 39  2  0
 39 40  1  0
 40 44  1  0
 41 40  2  0
 42 41  1  0
 43 42  1  0
 45 46  1  0
 46 49  1  0
 46 48  1  0
 47 45  2  0
 50 51  1  0
 50 25  1  0
 52 50  1  0
 54 53  1  0
 55 66  2  0
 56 61  1  0
 56 54  1  0
 57 65  1  0
 57 67  1  0
 58 60  1  0
 59 65  1  0
 60 61  2  0
 60 59  1  0
 62 56  2  0
 63 62  1  0
 63 58  2  0
 64 58  1  0
 64 57  1  0
 65 55  1  0
 67 69  2  0
 68 67  1  0
 68 72  1  0
 70 68  1  0
 71 80  2  0
 71 76  1  0
 72 76  1  0
 76 77  2  0
 77 78  1  0
 79 78  2  0
 80 79  1  0
 81 55  1  0
 81 86  1  0
 81 82  1  0
 82 83  1  1
 82 85  1  0
 84 82  1  0
 86 89  1  0
 87 91  1  0
 87 86  1  0
 88 87  2  0
 91 90  1  0
 93 94  1  0
 93 91  1  0
 93 92  1  0
M  ISO  4  15 100  23 100  53 101  54 101
M  END
>  <TORSDO>  (83) 
F 20

>  <SCORE>  (83) 
-6.339

>  <name>  (83) 
82

>  <ligand_id>  (83) 
82

>  <original_smiles>  (83) 
[H]c1nc(C([H])([H])Oc2c([H])c([H])c3c(c2[H])C([H])([H])N(C(=O)C([H])(N([H])C(=O)C([H])(N([H])C([H])([H])[H])C([H])([H])[H])C(C([H])([H])[H])(C([H])([H])[H])C([H])([H])[H])C([H])(C(=O)N([H])C2([H])c4c([H])c([H])c([H])c([H])c4C([H])([H])C([H])([H])C2([H])[H])C3([H])[H])c([H])c(C2([H])C([H])([H])[N+]([H])(C([H])([H])[H])C2([H])[H])c1C([H])([H])C([H])([H])N([H])C(=O)N1C([H])([H])C([H])([H])C([H])([H])C([H])(n2nc(-c3c([H])c([H])c(Oc4c([H])c([H])c(F)c([H])c4F)c([H])c3[H])c(C(=O)N([H])[H])c2N([H])[H])C1([H])[H]

>  <smiles>  (83) 
[H]c1nc(C([H])([H])Oc2c([H])c([H])c3c(c2[H])C([H])([H])N(C(=O)C([H])(N([H])C(=O)C([H])(N([H])C([H])([H])[H])C([H])([H])[H])C(C([H])([H])[H])(C([H])([H])[H])C([H])([H])[H])C([H])(C(=O)N([H])C2([H])c4c([H])c([H])c([H])c([H])c4C([H])([H])C([H])([H])C2([H])[H])C3([H])[H])c([H])c(C2([H])C([H])([H])[N+]([H])(C([H])([H])[H])C2([H])[H])c1C([H])([H])C([H])([H])N([H])C(=O)N1C([H])([H])C([H])([H])C([H])([H])C([H])(n2nc(-c3c([H])c([H])c(Oc4c([H])c([H])c(F)c([H])c4F)c([H])c3[H])c(C(=O)N([H])[H])c2N([H])[H])C1([H])[H]

$$$$
83:0:0
     RDKit          3D

 87 95  0  0  1  0  0  0  0  0999 V2000
  -28.6710  -21.0470   19.8780 N   0  0  0  0  0  4  0  0  0  0  0  0
  -27.6710  -20.9150   19.8860 H   0  0  0  0  0  0  0  0  0  0  0  0
  -28.9060  -21.1140   18.9000 H   0  0  0  0  0  0  0  0  0  0  0  0
  -30.4410  -15.3740   19.7820 C   0  0  0  0  0  0  0  0  0  0  0  0
  -30.3740  -12.9270   18.8570 C   0  0  0  0  0  2  0  0  0  0  0  0
  -29.3570  -12.7160   17.7050 C   0  0  0  0  0  2  0  0  0  0  0  0
  -27.9560  -12.4260   18.2670 C   0  0  0  0  0  2  0  0  0  0  0  0
  -27.6050  -13.3640   19.4510 C   0  0  0  0  0  3  0  0  0  0  0  0
  -28.7440  -13.4900   20.4850 C   0  0  0  0  0  2  0  0  0  0  0  0
  -29.8930  -14.0520   19.7580 N   0  0  0  0  0  0  0  0  0  0  0  0
  -31.6030  -15.3780   19.3340 O   0  0  0  0  0  0  0  0  0  0  0  0
  -28.2690  -18.5660   21.0860 C   0  0  0  0  0  2  0  0  0  0  0  0
  -28.8290  -17.0520   21.1440 C   0  0  0  0  0  2  0  0  0  0  0  0
  -29.8200  -18.1980   19.4350 C   0  0  0  0  0  2  0  0  0  0  0  0
  -29.2580  -19.5410   20.3700 C   0  0  0  0  0  3  0  0  0  0  0  0
  -29.7150  -16.6810   20.0000 N   0  0  0  0  0  0  0  0  0  0  0  0
  -25.3280  -13.9050   20.4490 C   0  0  0  0  0  0  0  0  0  0  0  0
  -24.2990  -13.1210   20.8850 C   0  0  0  0  0  0  0  0  0  0  0  0
  -24.7420  -11.7700   20.7430 C   0  0  0  0  0  0  0  0  0  0  0  0
  -26.3310  -13.0340   20.0650 N   0  0  0  0  0  0  0  0  0  0  0  0
  -25.9960  -11.7390   20.3040 N   0  0  0  0  0  0  0  0  0  0  0  0
  -24.0210  -10.5080   20.9430 C   0  0  0  0  0  0  0  0  0  0  0  0
  -24.4890   -9.5200   21.8380 C   0  0  0  0  0  3  0  0  0  0  0  0
  -23.7620   -8.3260   22.0280 C   0  0  0  0  0  3  0  0  0  0  0  0
  -22.5530   -8.1090   21.3240 C   0  0  0  0  0  0  0  0  0  0  0  0
  -22.1030   -9.0880   20.4200 C   0  0  0  0  0  3  0  0  0  0  0  0
  -22.8290  -10.2730   20.2270 C   0  0  0  0  0  3  0  0  0  0  0  0
  -21.7930   -6.9700   21.4280 O   0  0  0  0  0  0  0  0  0  0  0  0
  -21.7360   -6.2480   22.5930 C   0  0  0  0  0  0  0  0  0  0  0  0
  -21.2950   -6.8220   23.8060 C   0  0  0  0  0  3  0  0  0  0  0  0
  -21.1810   -6.0250   24.9610 C   0  0  0  0  0  3  0  0  0  0  0  0
  -21.5010   -4.6540   24.9040 C   0  0  0  0  0  0  0  0  0  0  0  0
  -21.9380   -4.0810   23.6980 C   0  0  0  0  0  3  0  0  0  0  0  0
  -22.0520   -4.8740   22.5440 C   0  0  0  0  0  0  0  0  0  0  0  0
  -22.4490   -4.3130   21.3770 F   0  0  0  0  0  0  0  0  0  0  0  0
  -21.3870   -3.8880   26.0140 F   0  0  0  0  0  0  0  0  0  0  0  0
  -22.9430  -13.6000   21.3070 C   0  0  0  0  0  0  0  0  0  0  0  0
  -22.2960  -12.8820   22.2160 N   0  0  0  0  0  0  0  0  0  0  0  0
  -22.4710  -14.6500   20.8710 O   0  0  0  0  0  0  0  0  0  0  0  0
  -22.6980  -12.0400   22.6020 H   0  0  0  0  0  0  0  0  0  0  0  0
  -21.3920  -13.1910   22.5470 H   0  0  0  0  0  0  0  0  0  0  0  0
  -25.4770  -15.2790   20.3100 N   0  0  0  0  0  0  0  0  0  0  0  0
  -24.7020  -15.9030   20.4950 H   0  0  0  0  0  0  0  0  0  0  0  0
  -26.2400  -15.7310   19.8220 H   0  0  0  0  0  0  0  0  0  0  0  0
  -28.8430  -22.6160   20.4690 C   0  0  0  0  0  3  0  0  0  0  0  0
  -27.9680  -24.1680   20.0560 C   0  0  0  0  0  3  0  0  0  0  0  0
  -28.1700  -25.8030   20.3440 O   0  0  0  0  0  0  0  0  0  0  0  0
  -24.6210  -31.8290   23.1980 C   0  0  0  0  0  0  0  0  0  0  0  0
  -27.1840  -26.9270   20.2240 C   0  0  0  0  0  0  0  0  0  0  0  0
  -23.4430  -30.4390   21.5400 C   0  0  0  0  0  3  0  0  0  0  0  0
  -24.9060  -28.8400   20.1230 C   0  0  0  0  0  0  0  0  0  0  0  0
  -26.0090  -30.6460   21.4260 C   0  0  0  0  0  2  0  0  0  0  0  0
  -26.0850  -29.2330   20.7720 C   0  0  0  0  0  0  0  0  0  0  0  0
  -27.2170  -28.2970   20.7970 C   0  0  0  0  0  3  0  0  0  0  0  0
  -25.9840  -26.6980   19.5170 C   0  0  0  0  0  3  0  0  0  0  0  0
  -24.8860  -27.5970   19.4720 C   0  0  0  0  0  3  0  0  0  0  0  0
  -23.6890  -29.7680   20.1600 C   0  0  0  0  0  2  0  0  0  0  0  0
  -24.7110  -31.0000   22.1090 N   0  0  0  0  0  0  0  0  0  0  0  0
  -23.5280  -32.1150   23.7140 O   0  0  0  0  0  0  0  0  0  0  0  0
  -22.7400  -29.4370   22.4950 C   0  0  0  0  0  0  0  0  0  0  0  0
  -21.4120  -29.2680   22.3560 N   0  0  0  0  0  0  0  0  0  0  0  0
  -23.4000  -28.8130   23.3300 O   0  0  0  0  0  0  0  0  0  0  0  0
  -20.9290  -29.8250   21.6640 H   0  0  0  0  0  0  0  0  0  0  0  0
  -18.0330  -28.0390   22.8250 C   0  0  0  0  0  0  0  0  0  0  0  0
  -20.5870  -28.3280   23.1210 C   0  0  0  0  0  3  0  0  0  0  0  0
  -20.7080  -26.8950   22.5520 C   0  0  0  0  0  2  0  0  0  0  0  0
  -19.6220  -26.5600   21.5240 C   0  0  0  0  0  2  0  0  0  0  0  0
  -18.2320  -26.6920   22.1500 C   0  0  0  0  0  2  0  0  0  0  0  0
  -19.1390  -28.8150   23.2670 C   0  0  0  0  0  0  0  0  0  0  0  0
  -18.8980  -30.0720   23.8630 C   0  0  0  0  0  3  0  0  0  0  0  0
  -17.5850  -30.5560   24.0160 C   0  0  0  0  0  3  0  0  0  0  0  0
  -16.4940  -29.7790   23.5880 C   0  0  0  0  0  3  0  0  0  0  0  0
  -16.7200  -28.5220   22.9990 C   0  0  0  0  0  3  0  0  0  0  0  0
  -25.8870  -32.4720   23.8400 C   0  0  0  0  0  3  0  0  0  0  0  0
  -25.5770  -33.8800   24.1460 N   0  0  0  0  0  0  0  0  0  0  0  0
  -25.9040  -34.9240   23.3740 C   0  0  0  0  0  0  0  0  0  0  0  0
  -26.5600  -34.8050   22.3360 O   0  0  0  0  0  0  0  0  0  0  0  0
  -24.9930  -34.0450   24.9520 H   0  0  0  0  0  0  0  0  0  0  0  0
  -24.1650  -36.7200   23.0450 C   0  0  0  0  0  1  0  0  0  0  0  0
  -25.4300  -36.3220   23.8230 C   0  0  0  0  0  3  0  0  0  0  0  0
  -27.5810  -37.2370   24.5800 C   0  0  0  0  0  1  0  0  0  0  0  0
  -26.4560  -37.3750   23.6600 N   0  0  0  0  0  0  0  0  0  0  0  0
  -26.0490  -38.2960   23.7930 H   0  0  0  0  0  0  0  0  0  0  0  0
  -26.3670  -31.7260   25.1470 C   0  0  1  0  0  0  0  0  0  0  0  0
  -25.2470  -31.5240   26.1940 C   0  0  0  0  0  1  0  0  0  0  0  0
  -26.9460  -30.3330   24.8110 C   0  0  0  0  0  1  0  0  0  0  0  0
  -27.5050  -32.5290   25.8250 C   0  0  0  0  0  1  0  0  0  0  0  0
  1  2  1  0
  1 45  1  0
  3  1  1  0
  4 16  1  0
  5 10  1  0
  6  7  1  0
  6  5  1  0
  8  7  1  0
  8 20  1  0
  8  9  1  0
 10  4  1  0
 10  9  1  0
 11  4  2  0
 12 13  1  0
 14 16  1  0
 14 15  1  0
 15  1  1  0
 15 12  1  0
 16 13  1  0
 17 18  2  0
 18 37  1  0
 19 18  1  0
 19 22  1  0
 20 21  1  0
 20 17  1  0
 21 19  2  0
 22 23  1  0
 23 24  2  0
 25 28  1  0
 25 24  1  0
 26 25  2  0
 27 26  1  0
 27 22  2  0
 28 29  1  0
 29 30  1  0
 30 31  2  0
 32 31  1  0
 32 36  1  0
 33 32  2  0
 34 29  2  0
 34 33  1  0
 35 34  1  0
 37 38  1  0
 38 41  1  0
 38 40  1  0
 39 37  2  0
 42 17  1  0
 42 43  1  0
 44 42  1  0
 46 47  1  0
 46 45  2  0
 48 59  2  0
 49 47  1  0
 49 54  1  0
 50 58  1  0
 50 60  1  0
 51 57  1  0
 51 53  1  0
 52 58  1  0
 53 54  2  0
 53 52  1  0
 55 49  2  0
 56 55  1  0
 56 51  2  0
 57 50  1  0
 58 48  1  0
 60 62  2  0
 61 60  1  0
 63 61  1  0
 64 73  2  0
 64 69  1  0
 65 61  1  0
 65 69  1  0
 66 65  1  0
 67 68  1  0
 67 66  1  0
 68 64  1  0
 69 70  2  0
 70 71  1  0
 72 71  2  0
 73 72  1  0
 74 48  1  0
 74 75  1  0
 74 84  1  0
 75 78  1  0
 76 80  1  0
 76 75  1  0
 77 76  2  0
 80 79  1  0
 82 83  1  0
 82 80  1  0
 82 81  1  0
 84 87  1  1
 84 85  1  0
 86 84  1  0
M  ISO  4   4 100  16 100  46 101  47 101
M  END
>  <TORSDO>  (84) 
F 18

>  <SCORE>  (84) 
-15.235

>  <name>  (84) 
83

>  <ligand_id>  (84) 
83

>  <original_smiles>  (84) 
[H]c1c([H])c([H])c2c(c1[H])C([H])([H])C([H])([H])C([H])([H])C2([H])N([H])C(=O)C1([H])N(C(=O)C([H])(N([H])C(=O)C([H])(N([H])C([H])([H])[H])C([H])([H])[H])C(C([H])([H])[H])(C([H])([H])[H])C([H])([H])[H])C([H])([H])c2c([H])c(OC([H])([H])C([H])([H])[N+]([H])([H])C3([H])C([H])([H])N(C(=O)N4C([H])([H])C([H])([H])C([H])([H])C([H])(n5nc(-c6c([H])c([H])c(Oc7c([H])c([H])c(F)c([H])c7F)c([H])c6[H])c(C(=O)N([H])[H])c5N([H])[H])C4([H])[H])C([H])([H])C3([H])[H])c([H])c([H])c2C1([H])[H]

>  <smiles>  (84) 
[H]c1c([H])c([H])c2c(c1[H])C([H])([H])C([H])([H])C([H])([H])C2([H])N([H])C(=O)C1([H])N(C(=O)C([H])(N([H])C(=O)C([H])(N([H])C([H])([H])[H])C([H])([H])[H])C(C([H])([H])[H])(C([H])([H])[H])C([H])([H])[H])C([H])([H])c2c([H])c(OC([H])([H])C([H])([H])[N+]([H])([H])C3([H])C([H])([H])N(C(=O)N4C([H])([H])C([H])([H])C([H])([H])C([H])(n5nc(-c6c([H])c([H])c(Oc7c([H])c([H])c(F)c([H])c7F)c([H])c6[H])c(C(=O)N([H])[H])c5N([H])[H])C4([H])[H])C([H])([H])C3([H])[H])c([H])c([H])c2C1([H])[H]

$$$$
84:0:0
     RDKit          3D

 92101  0  0  1  0  0  0  0  0999 V2000
  -30.4430  -14.9470   20.2390 C   0  0  0  0  0  0  0  0  0  0  0  0
  -30.4390  -12.4770   19.6780 C   0  0  0  0  0  2  0  0  0  0  0  0
  -29.5680  -12.1740   18.4400 C   0  0  0  0  0  2  0  0  0  0  0  0
  -28.1060  -11.9410   18.8620 C   0  0  0  0  0  2  0  0  0  0  0  0
  -27.5980  -13.0150   19.8600 C   0  0  0  0  0  3  0  0  0  0  0  0
  -28.6050  -13.2970   20.9950 C   0  0  0  0  0  2  0  0  0  0  0  0
  -29.8660  -13.6810   20.3510 N   0  0  0  0  0  0  0  0  0  0  0  0
  -31.6560  -14.9600   19.9940 O   0  0  0  0  0  0  0  0  0  0  0  0
  -30.9740  -21.8440   21.2460 C   0  0  0  0  0  3  0  0  0  0  0  0
  -30.4870  -23.1170   20.9410 C   0  0  0  0  0  0  0  0  0  0  0  0
  -28.8310  -22.2050   19.5540 C   0  0  0  0  0  0  0  0  0  0  0  0
  -29.3260  -20.7960   19.8990 C   0  0  0  0  0  0  0  0  0  0  0  0
  -30.1040  -18.6020   18.9650 C   0  0  0  0  0  2  0  0  0  0  0  0
  -28.6790  -18.5000   20.7930 C   0  0  0  0  0  2  0  0  0  0  0  0
  -29.9520  -17.0190   18.7500 C   0  0  0  0  0  2  0  0  0  0  0  0
  -28.6270  -16.8720   20.6880 C   0  0  0  0  0  2  0  0  0  0  0  0
  -31.1080  -24.3680   21.5240 C   0  0  0  0  0  1  0  0  0  0  0  0
  -30.4010  -20.7390   20.7350 N   0  0  0  0  0  0  0  0  0  0  0  0
  -29.4410  -23.2820   20.1170 N   0  0  0  0  0  0  0  0  0  0  0  0
  -28.9780  -19.3750   19.5910 N   0  0  0  0  0  0  0  0  0  0  0  0
  -29.6890  -16.1270   19.9330 N   0  0  0  0  0  0  0  0  0  0  0  0
  -25.2250  -13.5740   20.6290 C   0  0  0  0  0  0  0  0  0  0  0  0
  -24.1650  -12.7900   20.9930 C   0  0  0  0  0  0  0  0  0  0  0  0
  -24.6310  -11.4410   20.9360 C   0  0  0  0  0  0  0  0  0  0  0  0
  -26.2670  -12.7030   20.3670 N   0  0  0  0  0  0  0  0  0  0  0  0
  -25.9210  -11.4130   20.6180 N   0  0  0  0  0  0  0  0  0  0  0  0
  -23.9080  -10.1740   21.1070 C   0  0  0  0  0  0  0  0  0  0  0  0
  -24.3380   -9.1950   22.0300 C   0  0  0  0  0  3  0  0  0  0  0  0
  -23.6120   -7.9950   22.1920 C   0  0  0  0  0  3  0  0  0  0  0  0
  -22.4410   -7.7660   21.4300 C   0  0  0  0  0  0  0  0  0  0  0  0
  -22.0290   -8.7350   20.4970 C   0  0  0  0  0  3  0  0  0  0  0  0
  -22.7560   -9.9250   20.3340 C   0  0  0  0  0  3  0  0  0  0  0  0
  -21.6860   -6.6200   21.5020 O   0  0  0  0  0  0  0  0  0  0  0  0
  -21.6130   -5.8780   22.6530 C   0  0  0  0  0  0  0  0  0  0  0  0
  -21.1480   -6.4270   23.8670 C   0  0  0  0  0  3  0  0  0  0  0  0
  -21.0240   -5.6100   25.0080 C   0  0  0  0  0  3  0  0  0  0  0  0
  -21.3550   -4.2440   24.9360 C   0  0  0  0  0  0  0  0  0  0  0  0
  -21.8150   -3.6940   23.7270 C   0  0  0  0  0  3  0  0  0  0  0  0
  -21.9400   -4.5070   22.5880 C   0  0  0  0  0  0  0  0  0  0  0  0
  -22.3630   -3.9680   21.4190 F   0  0  0  0  0  0  0  0  0  0  0  0
  -21.2300   -3.4560   26.0300 F   0  0  0  0  0  0  0  0  0  0  0  0
  -22.7690  -13.2620   21.2760 C   0  0  0  0  0  0  0  0  0  0  0  0
  -22.0460  -12.5540   22.1380 N   0  0  0  0  0  0  0  0  0  0  0  0
  -22.3280  -14.2930   20.7710 O   0  0  0  0  0  0  0  0  0  0  0  0
  -22.4160  -11.7210   22.5700 H   0  0  0  0  0  0  0  0  0  0  0  0
  -21.1090  -12.8530   22.3710 H   0  0  0  0  0  0  0  0  0  0  0  0
  -25.3840  -14.9470   20.4710 N   0  0  0  0  0  0  0  0  0  0  0  0
  -24.6170  -15.5980   20.5950 H   0  0  0  0  0  0  0  0  0  0  0  0
  -26.2250  -15.3890   20.1230 H   0  0  0  0  0  0  0  0  0  0  0  0
  -27.6070  -22.8890   18.7470 C   0  0  0  0  0  2  0  0  0  0  0  0
  -27.6090  -24.4640   18.1090 C   0  0  0  0  0  2  0  0  0  0  0  0
  -27.7390  -25.8980   18.6990 O   0  0  0  0  0  0  0  0  0  0  0  0
  -24.7060  -31.2860   22.6610 C   0  0  0  0  0  0  0  0  0  0  0  0
  -26.7100  -26.9010   18.8150 C   0  0  0  0  0  0  0  0  0  0  0  0
  -23.2710  -30.1530   21.0070 C   0  0  0  0  0  3  0  0  0  0  0  0
  -24.4790  -28.7180   19.2480 C   0  0  0  0  0  0  0  0  0  0  0  0
  -25.8030  -30.3410   20.5960 C   0  0  0  0  0  2  0  0  0  0  0  0
  -25.7350  -29.0420   19.7760 C   0  0  0  0  0  0  0  0  0  0  0  0
  -26.8450  -28.1480   19.5480 C   0  0  0  0  0  3  0  0  0  0  0  0
  -25.4260  -26.6760   18.2690 C   0  0  0  0  0  3  0  0  0  0  0  0
  -24.3370  -27.5500   18.4810 C   0  0  0  0  0  3  0  0  0  0  0  0
  -23.3110  -29.6470   19.5390 C   0  0  0  0  0  2  0  0  0  0  0  0
  -24.6210  -30.6070   21.4750 N   0  0  0  0  0  0  0  0  0  0  0  0
  -23.6980  -31.5430   23.3350 O   0  0  0  0  0  0  0  0  0  0  0  0
  -22.6470  -29.0600   21.9090 C   0  0  0  0  0  0  0  0  0  0  0  0
  -21.3050  -28.9660   21.9180 N   0  0  0  0  0  0  0  0  0  0  0  0
  -23.3680  -28.3040   22.5650 O   0  0  0  0  0  0  0  0  0  0  0  0
  -20.7800  -29.6270   21.3630 H   0  0  0  0  0  0  0  0  0  0  0  0
  -17.9360  -27.8380   22.6270 C   0  0  0  0  0  0  0  0  0  0  0  0
  -20.5200  -27.9750   22.6580 C   0  0  0  0  0  3  0  0  0  0  0  0
  -20.4960  -26.6180   21.9170 C   0  0  0  0  0  2  0  0  0  0  0  0
  -19.2860  -26.4570   20.9910 C   0  0  0  0  0  2  0  0  0  0  0  0
  -17.9820  -26.5740   21.7850 C   0  0  0  0  0  2  0  0  0  0  0  0
  -19.1270  -28.5050   23.0230 C   0  0  0  0  0  0  0  0  0  0  0  0
  -19.0270  -29.6940   23.7780 C   0  0  0  0  0  3  0  0  0  0  0  0
  -17.7690  -30.2160   24.1360 C   0  0  0  0  0  3  0  0  0  0  0  0
  -16.5950  -29.5450   23.7530 C   0  0  0  0  0  3  0  0  0  0  0  0
  -16.6800  -28.3570   23.0040 C   0  0  0  0  0  3  0  0  0  0  0  0
  -26.0750  -31.7870   23.2160 C   0  0  0  0  0  3  0  0  0  0  0  0
  -25.8440  -33.0870   23.8680 N   0  0  0  0  0  0  0  0  0  0  0  0
  -26.1800  -34.2740   23.3480 C   0  0  0  0  0  0  0  0  0  0  0  0
  -26.7840  -34.3870   22.2780 O   0  0  0  0  0  0  0  0  0  0  0  0
  -25.3020  -33.0730   24.7200 H   0  0  0  0  0  0  0  0  0  0  0  0
  -24.5270  -36.1640   23.5150 C   0  0  0  0  0  1  0  0  0  0  0  0
  -25.7860  -35.5380   24.1370 C   0  0  0  0  0  3  0  0  0  0  0  0
  -27.9990  -36.1310   25.0210 C   0  0  0  0  0  1  0  0  0  0  0  0
  -26.8620  -36.5500   24.2060 N   0  0  0  0  0  0  0  0  0  0  0  0
  -26.5090  -37.4270   24.5800 H   0  0  0  0  0  0  0  0  0  0  0  0
  -26.7420  -30.7760   24.2280 C   0  0  1  0  0  0  0  0  0  0  0  0
  -25.8030  -30.3300   25.3740 C   0  0  0  0  0  1  0  0  0  0  0  0
  -27.2250  -29.5030   23.4960 C   0  0  0  0  0  1  0  0  0  0  0  0
  -27.9960  -31.4220   24.8630 C   0  0  0  0  0  1  0  0  0  0  0  0
  1  7  1  0
  2  7  1  0
  3  4  1  0
  3  2  1  0
  5  4  1  0
  5 25  1  0
  5  6  1  0
  7  6  1  0
  8  1  2  0
 10  9  1  0
 10 17  1  0
 11 12  2  0
 11 19  1  0
 12 18  1  0
 13 20  1  0
 15 13  1  0
 15 21  1  0
 16 14  1  0
 18  9  2  0
 19 10  2  0
 20 12  1  0
 20 14  1  0
 21  1  1  0
 21 16  1  0
 22 23  2  0
 23 42  1  0
 24 23  1  0
 24 27  1  0
 25 26  1  0
 25 22  1  0
 26 24  2  0
 27 28  1  0
 28 29  2  0
 30 33  1  0
 30 29  1  0
 31 30  2  0
 32 31  1  0
 32 27  2  0
 33 34  1  0
 34 35  1  0
 35 36  2  0
 37 36  1  0
 37 41  1  0
 38 37  2  0
 39 34  2  0
 39 38  1  0
 40 39  1  0
 42 43  1  0
 43 46  1  0
 43 45  1  0
 44 42  2  0
 47 48  1  0
 47 22  1  0
 49 47  1  0
 50 11  1  0
 51 52  1  0
 51 50  1  0
 52 54  1  0
 53 64  2  0
 54 59  1  0
 55 63  1  0
 55 65  1  0
 56 62  1  0
 56 58  1  0
 57 63  1  0
 58 57  1  0
 59 58  2  0
 60 61  1  0
 60 54  2  0
 61 56  2  0
 62 55  1  0
 63 53  1  0
 65 66  1  0
 65 67  2  0
 68 66  1  0
 69 78  2  0
 69 74  1  0
 70 66  1  0
 70 74  1  0
 71 70  1  0
 72 73  1  0
 72 71  1  0
 73 69  1  0
 74 75  2  0
 75 76  1  0
 77 76  2  0
 78 77  1  0
 79 53  1  0
 79 80  1  0
 79 89  1  0
 80 83  1  0
 81 80  1  0
 81 85  1  0
 82 81  2  0
 85 84  1  0
 85 87  1  0
 87 88  1  0
 87 86  1  0
 89 92  1  1
 89 90  1  0
 91 89  1  0
M  ISO  4   1 100  21 100  51 101  52 101
M  END
>  <TORSDO>  (85) 
F 17

>  <SCORE>  (85) 
-13.433

>  <name>  (85) 
84

>  <ligand_id>  (85) 
84

>  <original_smiles>  (85) 
[H]c1nc(N2C([H])([H])C([H])([H])N(C(=O)N3C([H])([H])C([H])([H])C([H])([H])C([H])(n4nc(-c5c([H])c([H])c(Oc6c([H])c([H])c(F)c([H])c6F)c([H])c5[H])c(C(=O)N([H])[H])c4N([H])[H])C3([H])[H])C([H])([H])C2([H])[H])c(C([H])([H])C([H])([H])Oc2c([H])c([H])c3c(c2[H])C([H])([H])N(C(=O)C([H])(N([H])C(=O)C([H])(N([H])C([H])([H])[H])C([H])([H])[H])C(C([H])([H])[H])(C([H])([H])[H])C([H])([H])[H])C([H])(C(=O)N([H])C2([H])c4c([H])c([H])c([H])c([H])c4C([H])([H])C([H])([H])C2([H])[H])C3([H])[H])nc1C([H])([H])[H]

>  <smiles>  (85) 
[H]c1nc(N2C([H])([H])C([H])([H])N(C(=O)N3C([H])([H])C([H])([H])C([H])([H])C([H])(n4nc(-c5c([H])c([H])c(Oc6c([H])c([H])c(F)c([H])c6F)c([H])c5[H])c(C(=O)N([H])[H])c4N([H])[H])C3([H])[H])C([H])([H])C2([H])[H])c(C([H])([H])C([H])([H])Oc2c([H])c([H])c3c(c2[H])C([H])([H])N(C(=O)C([H])(N([H])C(=O)C([H])(N([H])C([H])([H])[H])C([H])([H])[H])C(C([H])([H])[H])(C([H])([H])[H])C([H])([H])[H])C([H])(C(=O)N([H])C2([H])c4c([H])c([H])c([H])c([H])c4C([H])([H])C([H])([H])C2([H])[H])C3([H])[H])nc1C([H])([H])[H]

$$$$
85:0:0
     RDKit          3D

 94103  0  0  1  0  0  0  0  0999 V2000
  -30.0960  -20.1050   22.4480 C   0  0  0  0  0  3  0  0  0  0  0  0
  -30.2490  -18.7160   22.6820 C   0  0  0  0  0  3  0  0  0  0  0  0
  -30.4470  -20.5890   21.1730 C   0  0  0  0  0  0  0  0  0  0  0  0
  -30.9210  -19.6750   20.2340 C   0  0  0  0  0  0  0  0  0  0  0  0
  -30.7350  -17.8670   21.6560 C   0  0  0  0  0  0  0  0  0  0  0  0
  -31.4150  -20.3640   18.9960 C   0  0  0  0  0  2  0  0  0  0  0  0
  -30.9260  -21.8240   19.1720 C   0  0  0  0  0  2  0  0  0  0  0  0
  -30.5860  -22.0370   20.6760 C   0  0  0  0  0  3  0  0  0  0  0  0
  -31.0570  -18.3430   20.4280 N   0  0  0  0  0  0  0  0  0  0  0  0
  -29.4310  -22.9690   20.8830 N   0  0  0  0  0  4  0  0  0  0  0  0
  -29.1930  -22.9490   21.8630 H   0  0  0  0  0  0  0  0  0  0  0  0
  -28.6330  -22.6120   20.3820 H   0  0  0  0  0  0  0  0  0  0  0  0
  -29.6730  -24.4090   20.5080 C   0  0  0  0  0  2  0  0  0  0  0  0
  -28.3930  -25.3060   20.5790 C   0  0  0  0  0  2  0  0  0  0  0  0
  -28.5490  -26.7130   20.2250 O   0  0  0  0  0  0  0  0  0  0  0  0
  -24.6710  -31.9140   23.2690 C   0  0  0  0  0  0  0  0  0  0  0  0
  -27.3810  -27.4720   20.2000 C   0  0  0  0  0  0  0  0  0  0  0  0
  -23.4890  -30.4980   21.6230 C   0  0  0  0  0  3  0  0  0  0  0  0
  -24.9670  -28.9790   20.2040 C   0  0  0  0  0  0  0  0  0  0  0  0
  -26.0160  -30.8820   21.4350 C   0  0  0  0  0  2  0  0  0  0  0  0
  -26.1230  -29.5110   20.7860 C   0  0  0  0  0  0  0  0  0  0  0  0
  -27.3360  -28.7740   20.7660 C   0  0  0  0  0  3  0  0  0  0  0  0
  -26.1990  -26.9680   19.6060 C   0  0  0  0  0  3  0  0  0  0  0  0
  -25.0010  -27.7080   19.6080 C   0  0  0  0  0  3  0  0  0  0  0  0
  -23.7140  -29.8260   20.2430 C   0  0  0  0  0  2  0  0  0  0  0  0
  -24.7430  -31.1140   22.1650 N   0  0  0  0  0  0  0  0  0  0  0  0
  -23.5870  -32.1700   23.8080 O   0  0  0  0  0  0  0  0  0  0  0  0
  -22.8480  -29.4660   22.5810 C   0  0  0  0  0  0  0  0  0  0  0  0
  -21.5300  -29.2490   22.4380 N   0  0  0  0  0  0  0  0  0  0  0  0
  -23.5350  -28.8660   23.4110 O   0  0  0  0  0  0  0  0  0  0  0  0
  -21.0360  -29.7890   21.7410 H   0  0  0  0  0  0  0  0  0  0  0  0
  -18.1850  -27.9550   22.8910 C   0  0  0  0  0  0  0  0  0  0  0  0
  -20.7280  -28.2950   23.2040 C   0  0  0  0  0  3  0  0  0  0  0  0
  -20.8820  -26.8610   22.6480 C   0  0  0  0  0  2  0  0  0  0  0  0
  -19.8100  -26.4930   21.6170 C   0  0  0  0  0  2  0  0  0  0  0  0
  -18.4140  -26.6060   22.2330 C   0  0  0  0  0  2  0  0  0  0  0  0
  -19.2720  -28.7560   23.3320 C   0  0  0  0  0  0  0  0  0  0  0  0
  -19.0040  -30.0190   23.9040 C   0  0  0  0  0  3  0  0  0  0  0  0
  -17.6820  -30.4840   24.0390 C   0  0  0  0  0  3  0  0  0  0  0  0
  -16.6080  -29.6800   23.6140 C   0  0  0  0  0  3  0  0  0  0  0  0
  -16.8620  -28.4180   23.0470 C   0  0  0  0  0  3  0  0  0  0  0  0
  -25.9480  -32.5640   23.8890 C   0  0  0  0  0  3  0  0  0  0  0  0
  -26.4700  -31.8100   25.1740 C   0  0  1  0  0  0  0  0  0  0  0  0
  -25.3760  -31.5640   26.2390 C   0  0  0  0  0  1  0  0  0  0  0  0
  -27.0760  -30.4380   24.7970 C   0  0  0  0  0  1  0  0  0  0  0  0
  -27.6030  -32.6290   25.8370 C   0  0  0  0  0  1  0  0  0  0  0  0
  -25.6240  -33.9610   24.2050 N   0  0  0  0  0  0  0  0  0  0  0  0
  -25.9590  -35.0110   23.4430 C   0  0  0  0  0  0  0  0  0  0  0  0
  -26.6430  -34.9060   22.4210 O   0  0  0  0  0  0  0  0  0  0  0  0
  -25.0160  -34.1160   24.9950 H   0  0  0  0  0  0  0  0  0  0  0  0
  -24.2290  -36.7930   23.0450 C   0  0  0  0  0  1  0  0  0  0  0  0
  -25.4540  -36.3980   23.8840 C   0  0  0  0  0  3  0  0  0  0  0  0
  -27.5650  -37.2980   24.7600 C   0  0  0  0  0  1  0  0  0  0  0  0
  -26.4830  -37.4560   23.7920 N   0  0  0  0  0  0  0  0  0  0  0  0
  -26.0680  -38.3740   23.9270 H   0  0  0  0  0  0  0  0  0  0  0  0
  -31.0610  -16.3970   21.9460 C   0  0  0  0  0  2  0  0  0  0  0  0
  -30.8980  -14.5580   20.2490 C   0  0  0  0  0  0  0  0  0  0  0  0
  -30.5270  -12.4920   18.9280 C   0  0  0  0  0  2  0  0  0  0  0  0
  -29.5210  -12.7270   17.7820 C   0  0  0  0  0  2  0  0  0  0  0  0
  -28.0710  -12.5640   18.2830 C   0  0  0  0  0  2  0  0  0  0  0  0
  -27.7980  -13.3600   19.5870 C   0  0  0  0  0  3  0  0  0  0  0  0
  -28.8960  -13.0730   20.6320 C   0  0  0  0  0  2  0  0  0  0  0  0
  -30.1920  -13.4170   20.0220 N   0  0  0  0  0  0  0  0  0  0  0  0
  -31.9670  -14.8080   19.6810 O   0  0  0  0  0  0  0  0  0  0  0  0
  -30.3530  -15.3890   21.1500 N   0  0  0  0  0  0  0  0  0  0  0  0
  -29.4250  -15.1550   21.4640 H   0  0  0  0  0  0  0  0  0  0  0  0
  -25.4290  -13.9600   20.3990 C   0  0  0  0  0  0  0  0  0  0  0  0
  -24.3770  -13.1820   20.8030 C   0  0  0  0  0  0  0  0  0  0  0  0
  -24.8410  -11.8320   20.7460 C   0  0  0  0  0  0  0  0  0  0  0  0
  -26.4650  -13.0820   20.1170 N   0  0  0  0  0  0  0  0  0  0  0  0
  -26.1160  -11.7970   20.3820 N   0  0  0  0  0  0  0  0  0  0  0  0
  -24.1270  -10.5650   20.9540 C   0  0  0  0  0  0  0  0  0  0  0  0
  -24.5740   -9.6110   21.8940 C   0  0  0  0  0  3  0  0  0  0  0  0
  -23.8590   -8.4100   22.0910 C   0  0  0  0  0  3  0  0  0  0  0  0
  -22.6860   -8.1530   21.3420 C   0  0  0  0  0  0  0  0  0  0  0  0
  -22.2580   -9.0970   20.3910 C   0  0  0  0  0  3  0  0  0  0  0  0
  -22.9740  -10.2890   20.1940 C   0  0  0  0  0  3  0  0  0  0  0  0
  -21.9410   -7.0040   21.4460 O   0  0  0  0  0  0  0  0  0  0  0  0
  -21.8650   -6.2980   22.6220 C   0  0  0  0  0  0  0  0  0  0  0  0
  -21.3730   -6.8790   23.8090 C   0  0  0  0  0  3  0  0  0  0  0  0
  -21.2490   -6.0980   24.9760 C   0  0  0  0  0  3  0  0  0  0  0  0
  -21.6060   -4.7370   24.9540 C   0  0  0  0  0  0  0  0  0  0  0  0
  -22.0890   -4.1540   23.7690 C   0  0  0  0  0  3  0  0  0  0  0  0
  -22.2150   -4.9330   22.6050 C   0  0  0  0  0  0  0  0  0  0  0  0
  -22.6630   -4.3610   21.4610 F   0  0  0  0  0  0  0  0  0  0  0  0
  -21.4810   -3.9840   26.0720 F   0  0  0  0  0  0  0  0  0  0  0  0
  -22.9910  -13.6530   21.1330 C   0  0  0  0  0  0  0  0  0  0  0  0
  -22.3010  -12.9550   22.0290 N   0  0  0  0  0  0  0  0  0  0  0  0
  -22.5280  -14.6780   20.6330 O   0  0  0  0  0  0  0  0  0  0  0  0
  -22.6860  -12.1270   22.4570 H   0  0  0  0  0  0  0  0  0  0  0  0
  -21.3740  -13.2560   22.2920 H   0  0  0  0  0  0  0  0  0  0  0  0
  -25.5860  -15.3320   20.2270 N   0  0  0  0  0  0  0  0  0  0  0  0
  -24.8300  -15.9880   20.3850 H   0  0  0  0  0  0  0  0  0  0  0  0
  -26.4290  -15.7730   19.8820 H   0  0  0  0  0  0  0  0  0  0  0  0
  1  2  1  0
  3  1  2  0
  4  9  2  0
  4  3  1  0
  5 56  1  0
  5  2  2  0
  6  7  1  0
  6  4  1  0
  7  8  1  0
  8 10  1  0
  8  3  1  0
  9  5  1  0
 10 11  1  0
 12 10  1  0
 13 14  1  0
 13 10  1  0
 15 14  1  0
 16 27  2  0
 17 15  1  0
 17 22  1  0
 18 26  1  0
 18 28  1  0
 19 25  1  0
 19 21  1  0
 20 26  1  0
 21 20  1  0
 22 21  2  0
 23 24  1  0
 23 17  2  0
 24 19  2  0
 25 18  1  0
 26 16  1  0
 28 30  2  0
 29 28  1  0
 31 29  1  0
 32 41  2  0
 32 37  1  0
 33 29  1  0
 33 37  1  0
 34 33  1  0
 35 36  1  0
 35 34  1  0
 36 32  1  0
 37 38  2  0
 38 39  1  0
 40 39  2  0
 41 40  1  0
 42 16  1  0
 42 47  1  0
 42 43  1  0
 43 46  1  1
 43 44  1  0
 45 43  1  0
 47 50  1  0
 48 52  1  0
 48 47  1  0
 49 48  2  0
 52 51  1  0
 54 52  1  0
 54 55  1  0
 54 53  1  0
 57 65  1  0
 58 63  1  0
 59 60  1  0
 59 58  1  0
 61 60  1  0
 61 70  1  0
 61 62  1  0
 63 57  1  0
 63 62  1  0
 64 57  2  0
 65 66  1  0
 65 56  1  0
 67 68  2  0
 68 87  1  0
 69 68  1  0
 69 72  1  0
 70 71  1  0
 70 67  1  0
 71 69  2  0
 72 73  1  0
 73 74  2  0
 75 78  1  0
 75 74  1  0
 76 75  2  0
 77 76  1  0
 77 72  2  0
 78 79  1  0
 79 80  1  0
 80 81  2  0
 82 81  1  0
 82 86  1  0
 83 82  2  0
 84 79  2  0
 84 83  1  0
 85 84  1  0
 87 88  1  0
 88 91  1  0
 88 90  1  0
 89 87  2  0
 92 93  1  0
 92 67  1  0
 94 92  1  0
M  ISO  4  14 101  15 101  57 100  65 100
M  END
>  <TORSDO>  (86) 
F 20

>  <SCORE>  (86) 
-12.680

>  <name>  (86) 
85

>  <ligand_id>  (86) 
85

>  <original_smiles>  (86) 
[H]c1c(C([H])([H])N([H])C(=O)N2C([H])([H])C([H])([H])C([H])([H])C([H])(n3nc(-c4c([H])c([H])c(Oc5c([H])c([H])c(F)c([H])c5F)c([H])c4[H])c(C(=O)N([H])[H])c3N([H])[H])C2([H])[H])nc2c(c1[H])C([H])([N+]([H])([H])C([H])([H])C([H])([H])Oc1c([H])c([H])c3c(c1[H])C([H])([H])N(C(=O)C([H])(N([H])C(=O)C([H])(N([H])C([H])([H])[H])C([H])([H])[H])C(C([H])([H])[H])(C([H])([H])[H])C([H])([H])[H])C([H])(C(=O)N([H])C1([H])c4c([H])c([H])c([H])c([H])c4C([H])([H])C([H])([H])C1([H])[H])C3([H])[H])C([H])([H])C2([H])[H]

>  <smiles>  (86) 
[H]c1c(C([H])([H])N([H])C(=O)N2C([H])([H])C([H])([H])C([H])([H])C([H])(n3nc(-c4c([H])c([H])c(Oc5c([H])c([H])c(F)c([H])c5F)c([H])c4[H])c(C(=O)N([H])[H])c3N([H])[H])C2([H])[H])nc2c(c1[H])C([H])([N+]([H])([H])C([H])([H])C([H])([H])Oc1c([H])c([H])c3c(c1[H])C([H])([H])N(C(=O)C([H])(N([H])C(=O)C([H])(N([H])C([H])([H])[H])C([H])([H])[H])C(C([H])([H])[H])(C([H])([H])[H])C([H])([H])[H])C([H])(C(=O)N([H])C1([H])c4c([H])c([H])c([H])c([H])c4C([H])([H])C([H])([H])C1([H])[H])C3([H])[H])C([H])([H])C2([H])[H]

$$$$
86:0:0
     RDKit          3D

 90 99  0  0  1  0  0  0  0  0999 V2000
  -29.1810  -22.0110   20.3580 C   0  0  0  0  0  3  0  0  0  0  0  0
  -28.8860  -20.6330   19.8680 C   0  0  0  0  0  0  0  0  0  0  0  0
  -28.3340  -23.2080   20.0630 C   0  0  0  0  0  0  0  0  0  0  0  0
  -27.0210  -21.6590   18.9040 C   0  0  0  0  0  0  0  0  0  0  0  0
  -25.7330  -21.4250   18.1390 C   0  0  0  0  0  1  0  0  0  0  0  0
  -27.7600  -20.5620   19.1330 N   0  0  0  0  0  0  0  0  0  0  0  0
  -27.2520  -22.9170   19.3070 N   0  0  0  0  0  0  0  0  0  0  0  0
  -30.7010  -15.1910   20.2650 C   0  0  0  0  0  0  0  0  0  0  0  0
  -30.5580  -12.7870   19.4240 C   0  0  0  0  0  2  0  0  0  0  0  0
  -29.6580  -12.6290   18.1800 C   0  0  0  0  0  2  0  0  0  0  0  0
  -28.1930  -12.4240   18.6050 C   0  0  0  0  0  2  0  0  0  0  0  0
  -27.7480  -13.4180   19.7100 C   0  0  0  0  0  3  0  0  0  0  0  0
  -28.7830  -13.5570   20.8460 C   0  0  0  0  0  2  0  0  0  0  0  0
  -30.0380  -13.9580   20.2030 N   0  0  0  0  0  0  0  0  0  0  0  0
  -31.9310  -15.0960   20.1670 O   0  0  0  0  0  0  0  0  0  0  0  0
  -30.1760  -18.6330   18.5530 C   0  0  0  0  0  2  0  0  0  0  0  0
  -30.7430  -17.1820   18.7430 C   0  0  0  0  0  2  0  0  0  0  0  0
  -29.3980  -17.6920   20.5570 C   0  0  0  0  0  2  0  0  0  0  0  0
  -29.7760  -19.1990   19.9210 C   0  0  0  0  0  3  0  0  0  0  0  0
  -30.0960  -16.4560   19.8700 N   0  0  0  0  0  0  0  0  0  0  0  0
  -25.3770  -14.0260   20.4340 C   0  0  0  0  0  0  0  0  0  0  0  0
  -24.3010  -13.2630   20.7930 C   0  0  0  0  0  0  0  0  0  0  0  0
  -24.7500  -11.9060   20.7780 C   0  0  0  0  0  0  0  0  0  0  0  0
  -26.4090  -13.1320   20.2070 N   0  0  0  0  0  0  0  0  0  0  0  0
  -26.0440  -11.8540   20.4870 N   0  0  0  0  0  0  0  0  0  0  0  0
  -24.0060  -10.6530   20.9620 C   0  0  0  0  0  0  0  0  0  0  0  0
  -24.4090   -9.6860   21.9080 C   0  0  0  0  0  3  0  0  0  0  0  0
  -23.6610   -8.5010   22.0830 C   0  0  0  0  0  3  0  0  0  0  0  0
  -22.4990   -8.2730   21.3070 C   0  0  0  0  0  0  0  0  0  0  0  0
  -22.1160   -9.2260   20.3460 C   0  0  0  0  0  3  0  0  0  0  0  0
  -22.8630  -10.4040   20.1710 C   0  0  0  0  0  3  0  0  0  0  0  0
  -21.7290   -7.1360   21.3900 O   0  0  0  0  0  0  0  0  0  0  0  0
  -21.6540   -6.3990   22.5460 C   0  0  0  0  0  0  0  0  0  0  0  0
  -21.1940   -6.9590   23.7580 C   0  0  0  0  0  3  0  0  0  0  0  0
  -21.0650   -6.1490   24.9040 C   0  0  0  0  0  3  0  0  0  0  0  0
  -21.3870   -4.7800   24.8380 C   0  0  0  0  0  0  0  0  0  0  0  0
  -21.8400   -4.2180   23.6330 C   0  0  0  0  0  3  0  0  0  0  0  0
  -21.9700   -5.0250   22.4890 C   0  0  0  0  0  0  0  0  0  0  0  0
  -22.3860   -4.4750   21.3220 F   0  0  0  0  0  0  0  0  0  0  0  0
  -21.2530   -4.0000   25.9380 F   0  0  0  0  0  0  0  0  0  0  0  0
  -22.9030  -13.7580   21.0340 C   0  0  0  0  0  0  0  0  0  0  0  0
  -22.1530  -13.0830   21.8980 N   0  0  0  0  0  0  0  0  0  0  0  0
  -22.4850  -14.7800   20.4930 O   0  0  0  0  0  0  0  0  0  0  0  0
  -22.5090  -12.2600   22.3620 H   0  0  0  0  0  0  0  0  0  0  0  0
  -21.2180  -13.3990   22.1040 H   0  0  0  0  0  0  0  0  0  0  0  0
  -25.5640  -15.3920   20.2520 N   0  0  0  0  0  0  0  0  0  0  0  0
  -24.8140  -16.0600   20.3820 H   0  0  0  0  0  0  0  0  0  0  0  0
  -26.4370  -15.8180   19.9680 H   0  0  0  0  0  0  0  0  0  0  0  0
  -28.2840  -24.7300   20.7870 C   0  0  0  0  0  2  0  0  0  0  0  0
  -28.3320  -26.2050   20.2150 O   0  0  0  0  0  0  0  0  0  0  0  0
  -24.6200  -31.9250   23.2700 C   0  0  0  0  0  0  0  0  0  0  0  0
  -27.2690  -27.1920   20.2750 C   0  0  0  0  0  0  0  0  0  0  0  0
  -23.4630  -30.5280   21.6050 C   0  0  0  0  0  3  0  0  0  0  0  0
  -24.9440  -28.9580   20.2090 C   0  0  0  0  0  0  0  0  0  0  0  0
  -26.0180  -30.8010   21.4880 C   0  0  0  0  0  2  0  0  0  0  0  0
  -26.1130  -29.4030   20.8370 C   0  0  0  0  0  0  0  0  0  0  0  0
  -27.2810  -28.5400   20.8420 C   0  0  0  0  0  3  0  0  0  0  0  0
  -26.0700  -26.8550   19.6220 C   0  0  0  0  0  3  0  0  0  0  0  0
  -24.9360  -27.6990   19.5870 C   0  0  0  0  0  3  0  0  0  0  0  0
  -23.7160  -29.8570   20.2290 C   0  0  0  0  0  2  0  0  0  0  0  0
  -24.7190  -31.1070   22.1770 N   0  0  0  0  0  0  0  0  0  0  0  0
  -23.5230  -32.1990   23.7810 O   0  0  0  0  0  0  0  0  0  0  0  0
  -22.7730  -29.5130   22.5510 C   0  0  0  0  0  0  0  0  0  0  0  0
  -21.4440  -29.3460   22.4140 N   0  0  0  0  0  0  0  0  0  0  0  0
  -23.4350  -28.8760   23.3740 O   0  0  0  0  0  0  0  0  0  0  0  0
  -20.9620  -29.9140   21.7300 H   0  0  0  0  0  0  0  0  0  0  0  0
  -18.0560  -28.1560   22.9010 C   0  0  0  0  0  0  0  0  0  0  0  0
  -20.6170  -28.3990   23.1700 C   0  0  0  0  0  3  0  0  0  0  0  0
  -20.7080  -26.9780   22.5700 C   0  0  0  0  0  2  0  0  0  0  0  0
  -19.6020  -26.6800   21.5510 C   0  0  0  0  0  2  0  0  0  0  0  0
  -18.2210  -26.8200   22.1990 C   0  0  0  0  0  2  0  0  0  0  0  0
  -19.1790  -28.9050   23.3450 C   0  0  0  0  0  0  0  0  0  0  0  0
  -18.9640  -30.1560   23.9650 C   0  0  0  0  0  3  0  0  0  0  0  0
  -17.6620  -30.6580   24.1450 C   0  0  0  0  0  3  0  0  0  0  0  0
  -16.5550  -29.9050   23.7170 C   0  0  0  0  0  3  0  0  0  0  0  0
  -16.7520  -28.6580   23.1010 C   0  0  0  0  0  3  0  0  0  0  0  0
  -25.8810  -32.5710   23.9260 C   0  0  0  0  0  3  0  0  0  0  0  0
  -25.5610  -33.9760   24.2250 N   0  0  0  0  0  0  0  0  0  0  0  0
  -25.9050  -35.0190   23.4600 C   0  0  0  0  0  0  0  0  0  0  0  0
  -26.5900  -34.9000   22.4410 O   0  0  0  0  0  0  0  0  0  0  0  0
  -24.9550  -34.1400   25.0150 H   0  0  0  0  0  0  0  0  0  0  0  0
  -24.1820  -36.8100   23.0630 C   0  0  0  0  0  1  0  0  0  0  0  0
  -25.4130  -36.4150   23.8920 C   0  0  0  0  0  3  0  0  0  0  0  0
  -27.5350  -37.3200   24.7360 C   0  0  0  0  0  1  0  0  0  0  0  0
  -26.4480  -37.4670   23.7730 N   0  0  0  0  0  0  0  0  0  0  0  0
  -26.0390  -38.3890   23.8960 H   0  0  0  0  0  0  0  0  0  0  0  0
  -26.3460  -31.8260   25.2380 C   0  0  1  0  0  0  0  0  0  0  0  0
  -25.2160  -31.6140   26.2730 C   0  0  0  0  0  1  0  0  0  0  0  0
  -26.9380  -30.4370   24.9040 C   0  0  0  0  0  1  0  0  0  0  0  0
  -27.4760  -32.6300   25.9260 C   0  0  0  0  0  1  0  0  0  0  0  0
  2  1  2  0
  3  1  1  0
  3 49  1  0
  4  6  2  0
  4  7  1  0
  5  4  1  0
  6  2  1  0
  7  3  2  0
  9 14  1  0
 10 11  1  0
 10  9  1  0
 12 11  1  0
 12 24  1  0
 12 13  1  0
 14  8  1  0
 14 13  1  0
 15  8  2  0
 16 17  1  0
 16 19  1  0
 17 20  1  0
 19  2  1  0
 19 18  1  0
 20  8  1  0
 20 18  1  0
 21 22  2  0
 22 41  1  0
 23 22  1  0
 23 26  1  0
 24 21  1  0
 24 25  1  0
 25 23  2  0
 26 27  1  0
 27 28  2  0
 29 32  1  0
 29 28  1  0
 30 29  2  0
 31 30  1  0
 31 26  2  0
 32 33  1  0
 33 34  1  0
 34 35  2  0
 36 35  1  0
 36 40  1  0
 37 36  2  0
 38 33  2  0
 38 37  1  0
 39 38  1  0
 41 42  1  0
 42 45  1  0
 42 44  1  0
 43 41  2  0
 46 47  1  0
 46 21  1  0
 48 46  1  0
 50 52  1  0
 50 49  1  0
 51 62  2  0
 52 57  1  0
 53 61  1  0
 53 63  1  0
 54 60  1  0
 54 56  1  0
 55 61  1  0
 56 57  2  0
 56 55  1  0
 58 52  2  0
 59 58  1  0
 59 54  2  0
 60 53  1  0
 61 51  1  0
 63 65  2  0
 64 63  1  0
 66 64  1  0
 67 76  2  0
 67 72  1  0
 68 64  1  0
 68 72  1  0
 69 68  1  0
 70 71  1  0
 70 69  1  0
 71 67  1  0
 72 73  2  0
 73 74  1  0
 75 74  2  0
 76 75  1  0
 77 51  1  0
 77 78  1  0
 77 87  1  0
 78 81  1  0
 79 83  1  0
 79 78  1  0
 80 79  2  0
 83 82  1  0
 85 83  1  0
 85 86  1  0
 85 84  1  0
 87 90  1  1
 87 88  1  0
 89 87  1  0
M  ISO  4   8 100  20 100  49 101  50 101
M  END
>  <TORSDO>  (87) 
F 17

>  <SCORE>  (87) 
-15.285

>  <name>  (87) 
86

>  <ligand_id>  (87) 
86

>  <original_smiles>  (87) 
[H]c1c(C([H])([H])Oc2c([H])c([H])c3c(c2[H])C([H])([H])N(C(=O)C([H])(N([H])C(=O)C([H])(N([H])C([H])([H])[H])C([H])([H])[H])C(C([H])([H])[H])(C([H])([H])[H])C([H])([H])[H])C([H])(C(=O)N([H])C2([H])c4c([H])c([H])c([H])c([H])c4C([H])([H])C([H])([H])C2([H])[H])C3([H])[H])nc(C([H])([H])[H])nc1C1([H])C([H])([H])N(C(=O)N2C([H])([H])C([H])([H])C([H])([H])C([H])(n3nc(-c4c([H])c([H])c(Oc5c([H])c([H])c(F)c([H])c5F)c([H])c4[H])c(C(=O)N([H])[H])c3N([H])[H])C2([H])[H])C([H])([H])C1([H])[H]

>  <smiles>  (87) 
[H]c1c(C([H])([H])Oc2c([H])c([H])c3c(c2[H])C([H])([H])N(C(=O)C([H])(N([H])C(=O)C([H])(N([H])C([H])([H])[H])C([H])([H])[H])C(C([H])([H])[H])(C([H])([H])[H])C([H])([H])[H])C([H])(C(=O)N([H])C2([H])c4c([H])c([H])c([H])c([H])c4C([H])([H])C([H])([H])C2([H])[H])C3([H])[H])nc(C([H])([H])[H])nc1C1([H])C([H])([H])N(C(=O)N2C([H])([H])C([H])([H])C([H])([H])C([H])(n3nc(-c4c([H])c([H])c(Oc5c([H])c([H])c(F)c([H])c5F)c([H])c4[H])c(C(=O)N([H])[H])c3N([H])[H])C2([H])[H])C([H])([H])C1([H])[H]

$$$$
87:0:0
     RDKit          3D

 91100  0  0  1  0  0  0  0  0999 V2000
  -29.1370  -23.2420   20.9920 N   0  0  0  0  0  4  0  0  0  0  0  0
  -29.5180  -23.3910   21.9140 H   0  0  0  0  0  0  0  0  0  0  0  0
  -28.1720  -22.9720   21.1080 H   0  0  0  0  0  0  0  0  0  0  0  0
  -31.1920  -21.8090   20.9650 C   0  0  0  0  0  2  0  0  0  0  0  0
  -30.0030  -20.8950   21.2080 C   0  0  0  0  0  3  0  0  0  0  0  0
  -29.8580  -22.1290   20.3390 C   0  0  0  0  0  3  0  0  0  0  0  0
  -29.9670  -19.5180   20.5820 C   0  0  0  0  0  2  0  0  0  0  0  0
  -30.4040  -18.5610   21.5370 O   0  0  0  0  0  0  0  0  0  0  0  0
  -30.6390  -14.4040   20.2830 C   0  0  0  0  0  0  0  0  0  0  0  0
  -30.2230  -12.3410   19.0050 C   0  0  0  0  0  2  0  0  0  0  0  0
  -29.2380  -12.6240   17.8560 C   0  0  0  0  0  2  0  0  0  0  0  0
  -27.7820  -12.4810   18.3410 C   0  0  0  0  0  2  0  0  0  0  0  0
  -27.5090  -13.2670   19.6500 C   0  0  0  0  0  3  0  0  0  0  0  0
  -28.6020  -12.9780   20.7040 C   0  0  0  0  0  2  0  0  0  0  0  0
  -29.9150  -13.2700   20.1020 N   0  0  0  0  0  0  0  0  0  0  0  0
  -31.6860  -14.6430   19.6750 O   0  0  0  0  0  0  0  0  0  0  0  0
  -30.9890  -16.2020   21.9480 C   0  0  0  0  0  2  0  0  0  0  0  0
  -29.3790  -16.4590   20.6850 C   0  0  0  0  0  2  0  0  0  0  0  0
  -30.6310  -17.2890   20.9450 C   0  0  0  0  0  3  0  0  0  0  0  0
  -30.1330  -15.2880   21.1660 N   0  0  0  0  0  0  0  0  0  0  0  0
  -25.1290  -13.8670   20.4290 C   0  0  0  0  0  0  0  0  0  0  0  0
  -24.0760  -13.0890   20.8310 C   0  0  0  0  0  0  0  0  0  0  0  0
  -24.5400  -11.7400   20.7840 C   0  0  0  0  0  0  0  0  0  0  0  0
  -26.1710  -12.9890   20.1680 N   0  0  0  0  0  0  0  0  0  0  0  0
  -25.8200  -11.7050   20.4350 N   0  0  0  0  0  0  0  0  0  0  0  0
  -23.8260  -10.4730   20.9960 C   0  0  0  0  0  0  0  0  0  0  0  0
  -24.2980   -9.5030   21.9070 C   0  0  0  0  0  3  0  0  0  0  0  0
  -23.5840   -8.3010   22.1070 C   0  0  0  0  0  3  0  0  0  0  0  0
  -22.3850   -8.0630   21.3950 C   0  0  0  0  0  0  0  0  0  0  0  0
  -21.9320   -9.0220   20.4730 C   0  0  0  0  0  3  0  0  0  0  0  0
  -22.6470  -10.2150   20.2720 C   0  0  0  0  0  3  0  0  0  0  0  0
  -21.6390   -6.9140   21.5050 O   0  0  0  0  0  0  0  0  0  0  0  0
  -21.6480   -6.1570   22.6490 C   0  0  0  0  0  0  0  0  0  0  0  0
  -21.2910   -6.6970   23.9040 C   0  0  0  0  0  3  0  0  0  0  0  0
  -21.2480   -5.8660   25.0410 C   0  0  0  0  0  3  0  0  0  0  0  0
  -21.5510   -4.4970   24.9250 C   0  0  0  0  0  0  0  0  0  0  0  0
  -21.9000   -3.9560   23.6760 C   0  0  0  0  0  3  0  0  0  0  0  0
  -21.9460   -4.7840   22.5400 C   0  0  0  0  0  0  0  0  0  0  0  0
  -22.2630   -4.2530   21.3340 F   0  0  0  0  0  0  0  0  0  0  0  0
  -21.5010   -3.6960   26.0150 F   0  0  0  0  0  0  0  0  0  0  0  0
  -22.6850  -13.5600   21.1500 C   0  0  0  0  0  0  0  0  0  0  0  0
  -21.9890  -12.8590   22.0380 N   0  0  0  0  0  0  0  0  0  0  0  0
  -22.2260  -14.5850   20.6450 O   0  0  0  0  0  0  0  0  0  0  0  0
  -22.3730  -12.0300   22.4650 H   0  0  0  0  0  0  0  0  0  0  0  0
  -21.0580  -13.1570   22.2920 H   0  0  0  0  0  0  0  0  0  0  0  0
  -25.2830  -15.2370   20.2460 N   0  0  0  0  0  0  0  0  0  0  0  0
  -24.5210  -15.8930   20.3820 H   0  0  0  0  0  0  0  0  0  0  0  0
  -26.1270  -15.6770   19.9020 H   0  0  0  0  0  0  0  0  0  0  0  0
  -29.1790  -24.5110   20.2290 C   0  0  0  0  0  2  0  0  0  0  0  0
  -28.4070  -25.6270   20.9460 C   0  0  0  0  0  2  0  0  0  0  0  0
  -28.4240  -26.8130   20.1520 O   0  0  0  0  0  0  0  0  0  0  0  0
  -24.5940  -31.9210   23.2680 C   0  0  0  0  0  0  0  0  0  0  0  0
  -27.2490  -27.5200   20.1780 C   0  0  0  0  0  0  0  0  0  0  0  0
  -23.3840  -30.5130   21.6290 C   0  0  0  0  0  3  0  0  0  0  0  0
  -24.8400  -28.9810   20.2030 C   0  0  0  0  0  0  0  0  0  0  0  0
  -25.9040  -30.8930   21.4180 C   0  0  0  0  0  2  0  0  0  0  0  0
  -25.9950  -29.5230   20.7820 C   0  0  0  0  0  0  0  0  0  0  0  0
  -27.2050  -28.7990   20.7660 C   0  0  0  0  0  3  0  0  0  0  0  0
  -26.0820  -26.9790   19.5960 C   0  0  0  0  0  3  0  0  0  0  0  0
  -24.8770  -27.7060   19.6090 C   0  0  0  0  0  3  0  0  0  0  0  0
  -23.5910  -29.8300   20.2510 C   0  0  0  0  0  2  0  0  0  0  0  0
  -24.6450  -31.1230   22.1650 N   0  0  0  0  0  0  0  0  0  0  0  0
  -23.5140  -32.1890   23.8130 O   0  0  0  0  0  0  0  0  0  0  0  0
  -22.7420  -29.4910   22.5940 C   0  0  0  0  0  0  0  0  0  0  0  0
  -21.4190  -29.3020   22.4670 N   0  0  0  0  0  0  0  0  0  0  0  0
  -23.4310  -28.8700   23.4080 O   0  0  0  0  0  0  0  0  0  0  0  0
  -20.9250  -29.8560   21.7800 H   0  0  0  0  0  0  0  0  0  0  0  0
  -18.0530  -28.0880   22.9570 C   0  0  0  0  0  0  0  0  0  0  0  0
  -20.6070  -28.3620   23.2370 C   0  0  0  0  0  3  0  0  0  0  0  0
  -20.7210  -26.9300   22.6660 C   0  0  0  0  0  2  0  0  0  0  0  0
  -19.6240  -26.5970   21.6490 C   0  0  0  0  0  2  0  0  0  0  0  0
  -18.2390  -26.7380   22.2880 C   0  0  0  0  0  2  0  0  0  0  0  0
  -19.1640  -28.8590   23.3880 C   0  0  0  0  0  0  0  0  0  0  0  0
  -18.9380  -30.1240   23.9710 C   0  0  0  0  0  3  0  0  0  0  0  0
  -17.6300  -30.6190   24.1290 C   0  0  0  0  0  3  0  0  0  0  0  0
  -16.5310  -29.8470   23.7150 C   0  0  0  0  0  3  0  0  0  0  0  0
  -16.7440  -28.5830   23.1340 C   0  0  0  0  0  3  0  0  0  0  0  0
  -25.8810  -32.5540   23.8830 C   0  0  0  0  0  3  0  0  0  0  0  0
  -25.5770  -33.9560   24.1990 N   0  0  0  0  0  0  0  0  0  0  0  0
  -25.9170  -34.9990   23.4310 C   0  0  0  0  0  0  0  0  0  0  0  0
  -26.5910  -34.8830   22.4040 O   0  0  0  0  0  0  0  0  0  0  0  0
  -24.9800  -34.1210   24.9970 H   0  0  0  0  0  0  0  0  0  0  0  0
  -24.1950  -36.7900   23.0490 C   0  0  0  0  0  1  0  0  0  0  0  0
  -25.4310  -36.3920   23.8710 C   0  0  0  0  0  3  0  0  0  0  0  0
  -27.5650  -37.2770   24.7020 C   0  0  0  0  0  1  0  0  0  0  0  0
  -26.4660  -37.4410   23.7530 N   0  0  0  0  0  0  0  0  0  0  0  0
  -26.0630  -38.3640   23.8940 H   0  0  0  0  0  0  0  0  0  0  0  0
  -26.4000  -31.7900   25.1630 C   0  0  1  0  0  0  0  0  0  0  0  0
  -25.3090  -31.5600   26.2340 C   0  0  0  0  0  1  0  0  0  0  0  0
  -26.9800  -30.4090   24.7750 C   0  0  0  0  0  1  0  0  0  0  0  0
  -27.5530  -32.5870   25.8180 C   0  0  0  0  0  1  0  0  0  0  0  0
  1  3  1  0
  1  2  1  0
  4  5  1  0
  5  7  1  0
  6  4  1  0
  6  1  1  0
  6  5  1  0
  7  8  1  0
  9 20  1  0
 10 15  1  0
 11 12  1  0
 11 10  1  0
 13 12  1  0
 13 24  1  0
 13 14  1  0
 15  9  1  0
 15 14  1  0
 16  9  2  0
 18 19  1  0
 18 20  1  0
 19  8  1  0
 19 17  1  0
 20 17  1  0
 21 22  2  0
 22 41  1  0
 23 22  1  0
 23 26  1  0
 24 21  1  0
 24 25  1  0
 25 23  2  0
 26 27  1  0
 27 28  2  0
 29 32  1  0
 29 28  1  0
 30 29  2  0
 31 30  1  0
 31 26  2  0
 32 33  1  0
 33 34  1  0
 34 35  2  0
 36 35  1  0
 36 40  1  0
 37 36  2  0
 38 33  2  0
 38 37  1  0
 39 38  1  0
 41 42  1  0
 42 45  1  0
 42 44  1  0
 43 41  2  0
 46 47  1  0
 46 21  1  0
 48 46  1  0
 49 50  1  0
 49  1  1  0
 51 53  1  0
 51 50  1  0
 52 63  2  0
 53 58  1  0
 54 62  1  0
 54 64  1  0
 55 61  1  0
 55 57  1  0
 56 62  1  0
 57 56  1  0
 58 57  2  0
 59 60  1  0
 59 53  2  0
 60 55  2  0
 61 54  1  0
 62 52  1  0
 64 66  2  0
 65 64  1  0
 67 65  1  0
 68 77  2  0
 68 73  1  0
 69 65  1  0
 69 73  1  0
 70 69  1  0
 71 72  1  0
 71 70  1  0
 72 68  1  0
 73 74  2  0
 74 75  1  0
 76 75  2  0
 77 76  1  0
 78 52  1  0
 78 79  1  0
 78 88  1  0
 79 82  1  0
 80 84  1  0
 80 79  1  0
 81 80  2  0
 84 83  1  0
 86 84  1  0
 86 87  1  0
 86 85  1  0
 88 91  1  1
 88 89  1  0
 90 88  1  0
M  ISO  4   9 100  20 100  50 101  51 101
M  END
>  <TORSDO>  (88) 
F 21

>  <SCORE>  (88) 
-13.489

>  <name>  (88) 
87

>  <ligand_id>  (88) 
87

>  <original_smiles>  (88) 
[H]c1c([H])c([H])c2c(c1[H])C([H])([H])C([H])([H])C([H])([H])C2([H])N([H])C(=O)C1([H])N(C(=O)C([H])(N([H])C(=O)C([H])(N([H])C([H])([H])[H])C([H])([H])[H])C(C([H])([H])[H])(C([H])([H])[H])C([H])([H])[H])C([H])([H])c2c([H])c(OC([H])([H])C([H])([H])[N+]([H])([H])C3([H])C([H])([H])C3([H])C([H])([H])OC3([H])C([H])([H])N(C(=O)N4C([H])([H])C([H])([H])C([H])([H])C([H])(n5nc(-c6c([H])c([H])c(Oc7c([H])c([H])c(F)c([H])c7F)c([H])c6[H])c(C(=O)N([H])[H])c5N([H])[H])C4([H])[H])C3([H])[H])c([H])c([H])c2C1([H])[H]

>  <smiles>  (88) 
[H]c1c([H])c([H])c2c(c1[H])C([H])([H])C([H])([H])C([H])([H])C2([H])N([H])C(=O)C1([H])N(C(=O)C([H])(N([H])C(=O)C([H])(N([H])C([H])([H])[H])C([H])([H])[H])C(C([H])([H])[H])(C([H])([H])[H])C([H])([H])[H])C([H])([H])c2c([H])c(OC([H])([H])C([H])([H])[N+]([H])([H])C3([H])C([H])([H])C3([H])C([H])([H])OC3([H])C([H])([H])N(C(=O)N4C([H])([H])C([H])([H])C([H])([H])C([H])(n5nc(-c6c([H])c([H])c(Oc7c([H])c([H])c(F)c([H])c7F)c([H])c6[H])c(C(=O)N([H])[H])c5N([H])[H])C4([H])[H])C3([H])[H])c([H])c([H])c2C1([H])[H]

$$$$
88:0:0
     RDKit          3D

 88 97  0  0  1  0  0  0  0  0999 V2000
  -31.0700  -22.2340   20.0650 C   0  0  0  0  0  2  0  0  0  0  0  0
  -29.5520  -20.5540   20.2240 C   0  0  0  0  0  0  0  0  0  0  0  0
  -28.9480  -22.9830   20.2260 C   0  0  0  0  0  0  0  0  0  0  0  0
  -30.8250  -20.9200   20.1190 N   0  0  0  0  0  0  0  0  0  0  0  0
  -30.2340  -23.2780   20.1090 N   0  0  0  0  0  0  0  0  0  0  0  0
  -28.5780  -21.5970   20.2810 N   0  0  0  0  0  2  0  0  0  0  0  0
  -30.4880  -15.2060   20.1750 C   0  0  0  0  0  0  0  0  0  0  0  0
  -30.3820  -12.7890   19.2780 C   0  0  0  0  0  2  0  0  0  0  0  0
  -29.4460  -12.6490   18.0550 C   0  0  0  0  0  2  0  0  0  0  0  0
  -27.9940  -12.4030   18.5030 C   0  0  0  0  0  2  0  0  0  0  0  0
  -27.5690  -13.3350   19.6680 C   0  0  0  0  0  3  0  0  0  0  0  0
  -28.6410  -13.4600   20.7690 C   0  0  0  0  0  2  0  0  0  0  0  0
  -29.8760  -13.9290   20.1190 N   0  0  0  0  0  0  0  0  0  0  0  0
  -31.6980  -15.1830   19.9210 O   0  0  0  0  0  0  0  0  0  0  0  0
  -29.9560  -17.6940   19.2600 C   0  0  0  0  0  2  0  0  0  0  0  0
  -29.8980  -17.6660   21.2360 C   0  0  0  0  0  2  0  0  0  0  0  0
  -29.3650  -18.8320   20.2440 C   0  0  0  0  0  3  0  0  0  0  0  0
  -29.7770  -16.4960   20.2250 N   0  0  0  0  0  0  0  0  0  0  0  0
  -25.2100  -13.8580   20.4920 C   0  0  0  0  0  0  0  0  0  0  0  0
  -24.1640  -13.0640   20.8770 C   0  0  0  0  0  0  0  0  0  0  0  0
  -24.6460  -11.7190   20.8190 C   0  0  0  0  0  0  0  0  0  0  0  0
  -26.2550  -12.9970   20.2070 N   0  0  0  0  0  0  0  0  0  0  0  0
  -25.9310  -11.7040   20.4750 N   0  0  0  0  0  0  0  0  0  0  0  0
  -23.9370  -10.4470   21.0130 C   0  0  0  0  0  0  0  0  0  0  0  0
  -24.3890   -9.4790   21.9370 C   0  0  0  0  0  3  0  0  0  0  0  0
  -23.6730   -8.2760   22.1220 C   0  0  0  0  0  3  0  0  0  0  0  0
  -22.4920   -8.0300   21.3820 C   0  0  0  0  0  0  0  0  0  0  0  0
  -22.0610   -8.9860   20.4470 C   0  0  0  0  0  3  0  0  0  0  0  0
  -22.7770  -10.1810   20.2590 C   0  0  0  0  0  3  0  0  0  0  0  0
  -21.7480   -6.8770   21.4750 O   0  0  0  0  0  0  0  0  0  0  0  0
  -21.7070   -6.1360   22.6280 C   0  0  0  0  0  0  0  0  0  0  0  0
  -21.2730   -6.6880   23.8540 C   0  0  0  0  0  3  0  0  0  0  0  0
  -21.1770   -5.8720   24.9980 C   0  0  0  0  0  3  0  0  0  0  0  0
  -21.5080   -4.5060   24.9210 C   0  0  0  0  0  0  0  0  0  0  0  0
  -21.9420   -3.9550   23.7030 C   0  0  0  0  0  3  0  0  0  0  0  0
  -22.0360   -4.7670   22.5580 C   0  0  0  0  0  0  0  0  0  0  0  0
  -22.4300   -4.2240   21.3790 F   0  0  0  0  0  0  0  0  0  0  0  0
  -21.4130   -3.7220   26.0210 F   0  0  0  0  0  0  0  0  0  0  0  0
  -22.7680  -13.5230   21.1790 C   0  0  0  0  0  0  0  0  0  0  0  0
  -22.0660  -12.8170   22.0600 N   0  0  0  0  0  0  0  0  0  0  0  0
  -22.3060  -14.5390   20.6650 O   0  0  0  0  0  0  0  0  0  0  0  0
  -22.4560  -11.9970   22.4990 H   0  0  0  0  0  0  0  0  0  0  0  0
  -21.1280  -13.1030   22.2980 H   0  0  0  0  0  0  0  0  0  0  0  0
  -25.3540  -15.2320   20.3320 N   0  0  0  0  0  0  0  0  0  0  0  0
  -24.5940  -15.8830   20.5050 H   0  0  0  0  0  0  0  0  0  0  0  0
  -26.2000  -15.6870   20.0100 H   0  0  0  0  0  0  0  0  0  0  0  0
  -27.9100  -24.3560   20.2380 C   0  0  0  0  0  2  0  0  0  0  0  0
  -28.2200  -25.9520   20.2890 O   0  0  0  0  0  0  0  0  0  0  0  0
  -24.6690  -31.8750   23.2530 C   0  0  0  0  0  0  0  0  0  0  0  0
  -27.1980  -27.0210   20.2430 C   0  0  0  0  0  0  0  0  0  0  0  0
  -23.4610  -30.4840   21.6220 C   0  0  0  0  0  3  0  0  0  0  0  0
  -24.8960  -28.8730   20.2010 C   0  0  0  0  0  0  0  0  0  0  0  0
  -26.0250  -30.6960   21.4620 C   0  0  0  0  0  2  0  0  0  0  0  0
  -26.0860  -29.2870   20.8130 C   0  0  0  0  0  0  0  0  0  0  0  0
  -27.2330  -28.3810   20.8090 C   0  0  0  0  0  3  0  0  0  0  0  0
  -25.9740  -26.7430   19.5940 C   0  0  0  0  0  3  0  0  0  0  0  0
  -24.8630  -27.6200   19.5710 C   0  0  0  0  0  3  0  0  0  0  0  0
  -23.6800  -29.7920   20.2460 C   0  0  0  0  0  2  0  0  0  0  0  0
  -24.7400  -31.0440   22.1650 N   0  0  0  0  0  0  0  0  0  0  0  0
  -23.5850  -32.1690   23.7800 O   0  0  0  0  0  0  0  0  0  0  0  0
  -22.7640  -29.4920   22.5920 C   0  0  0  0  0  0  0  0  0  0  0  0
  -21.4330  -29.3320   22.4680 N   0  0  0  0  0  0  0  0  0  0  0  0
  -23.4300  -28.8690   23.4220 O   0  0  0  0  0  0  0  0  0  0  0  0
  -20.9510  -29.8880   21.7760 H   0  0  0  0  0  0  0  0  0  0  0  0
  -18.0480  -28.1320   22.9730 C   0  0  0  0  0  0  0  0  0  0  0  0
  -20.6060  -28.4020   23.2430 C   0  0  0  0  0  3  0  0  0  0  0  0
  -20.7100  -26.9630   22.6830 C   0  0  0  0  0  2  0  0  0  0  0  0
  -19.6120  -26.6300   21.6680 C   0  0  0  0  0  2  0  0  0  0  0  0
  -18.2270  -26.7780   22.3070 C   0  0  0  0  0  2  0  0  0  0  0  0
  -19.1640  -28.9010   23.3970 C   0  0  0  0  0  0  0  0  0  0  0  0
  -18.9410  -30.1660   23.9810 C   0  0  0  0  0  3  0  0  0  0  0  0
  -17.6320  -30.6610   24.1460 C   0  0  0  0  0  3  0  0  0  0  0  0
  -16.5300  -29.8910   23.7340 C   0  0  0  0  0  3  0  0  0  0  0  0
  -16.7380  -28.6280   23.1520 C   0  0  0  0  0  3  0  0  0  0  0  0
  -25.9480  -32.5100   23.8780 C   0  0  0  0  0  3  0  0  0  0  0  0
  -25.6400  -33.9110   24.2170 N   0  0  0  0  0  0  0  0  0  0  0  0
  -25.9460  -34.9710   23.4560 C   0  0  0  0  0  0  0  0  0  0  0  0
  -26.5840  -34.8700   22.4040 O   0  0  0  0  0  0  0  0  0  0  0  0
  -25.0710  -34.0600   25.0390 H   0  0  0  0  0  0  0  0  0  0  0  0
  -24.1960  -36.7590   23.1820 C   0  0  0  0  0  1  0  0  0  0  0  0
  -25.4750  -36.3600   23.9350 C   0  0  0  0  0  3  0  0  0  0  0  0
  -27.6410  -37.2630   24.6630 C   0  0  0  0  0  1  0  0  0  0  0  0
  -26.4960  -37.4190   23.7710 N   0  0  0  0  0  0  0  0  0  0  0  0
  -26.0880  -38.3390   23.9330 H   0  0  0  0  0  0  0  0  0  0  0  0
  -26.4570  -31.7420   25.1600 C   0  0  1  0  0  0  0  0  0  0  0  0
  -25.3610  -31.5200   26.2310 C   0  0  0  0  0  1  0  0  0  0  0  0
  -27.0330  -30.3580   24.7840 C   0  0  0  0  0  1  0  0  0  0  0  0
  -27.6090  -32.5360   25.8190 C   0  0  0  0  0  1  0  0  0  0  0  0
  1  5  1  0
  1  4  1  0
  2  6  1  0
  3 47  1  0
  3  6  1  0
  4  2  2  0
  5  3  2  0
  7 18  1  0
  8 13  1  0
  9 10  1  0
  9  8  1  0
 11 10  1  0
 11 22  1  0
 11 12  1  0
 13  7  1  0
 13 12  1  0
 14  7  2  0
 15 18  1  0
 15 17  1  0
 17  2  1  0
 17 16  1  0
 18 16  1  0
 19 20  2  0
 20 39  1  0
 21 20  1  0
 21 24  1  0
 22 23  1  0
 22 19  1  0
 23 21  2  0
 24 25  1  0
 25 26  2  0
 27 30  1  0
 27 26  1  0
 28 27  2  0
 29 28  1  0
 29 24  2  0
 30 31  1  0
 31 32  1  0
 32 33  2  0
 34 33  1  0
 34 38  1  0
 35 34  2  0
 36 31  2  0
 36 35  1  0
 37 36  1  0
 39 40  1  0
 40 43  1  0
 40 42  1  0
 41 39  2  0
 44 19  1  0
 44 45  1  0
 46 44  1  0
 47 48  1  0
 49 60  2  0
 50 48  1  0
 50 55  1  0
 51 59  1  0
 51 61  1  0
 52 58  1  0
 52 54  1  0
 53 59  1  0
 54 53  1  0
 55 54  2  0
 56 50  2  0
 57 56  1  0
 57 52  2  0
 58 51  1  0
 59 49  1  0
 61 63  2  0
 62 61  1  0
 64 62  1  0
 65 74  2  0
 65 70  1  0
 66 62  1  0
 66 70  1  0
 67 66  1  0
 68 69  1  0
 68 67  1  0
 69 65  1  0
 70 71  2  0
 71 72  1  0
 73 72  2  0
 74 73  1  0
 75 49  1  0
 75 76  1  0
 75 85  1  0
 76 79  1  0
 77 81  1  0
 77 76  1  0
 78 77  2  0
 81 80  1  0
 83 84  1  0
 83 81  1  0
 83 82  1  0
 85 88  1  1
 85 86  1  0
 87 85  1  0
M  ISO  4   7 100  18 100  47 101  48 101
M  END
>  <TORSDO>  (89) 
F 17

>  <SCORE>  (89) 
-16.194

>  <name>  (89) 
88

>  <ligand_id>  (89) 
88

>  <original_smiles>  (89) 
[H]c1nc(C([H])([H])Oc2c([H])c([H])c3c(c2[H])C([H])([H])N(C(=O)C([H])(N([H])C(=O)C([H])(N([H])C([H])([H])[H])C([H])([H])[H])C(C([H])([H])[H])(C([H])([H])[H])C([H])([H])[H])C([H])(C(=O)N([H])C2([H])c4c([H])c([H])c([H])c([H])c4C([H])([H])C([H])([H])C2([H])[H])C3([H])[H])nc(C2([H])C([H])([H])N(C(=O)N3C([H])([H])C([H])([H])C([H])([H])C([H])(n4nc(-c5c([H])c([H])c(Oc6c([H])c([H])c(F)c([H])c6F)c([H])c5[H])c(C(=O)N([H])[H])c4N([H])[H])C3([H])[H])C2([H])[H])n1

>  <smiles>  (89) 
[H]c1nc(C([H])([H])Oc2c([H])c([H])c3c(c2[H])C([H])([H])N(C(=O)C([H])(N([H])C(=O)C([H])(N([H])C([H])([H])[H])C([H])([H])[H])C(C([H])([H])[H])(C([H])([H])[H])C([H])([H])[H])C([H])(C(=O)N([H])C2([H])c4c([H])c([H])c([H])c([H])c4C([H])([H])C([H])([H])C2([H])[H])C3([H])[H])nc(C2([H])C([H])([H])N(C(=O)N3C([H])([H])C([H])([H])C([H])([H])C([H])(n4nc(-c5c([H])c([H])c(Oc6c([H])c([H])c(F)c([H])c6F)c([H])c5[H])c(C(=O)N([H])[H])c4N([H])[H])C3([H])[H])C2([H])[H])n1

$$$$
89:0:0
     RDKit          3D

 93101  0  0  1  0  0  0  0  0999 V2000
  -29.3070  -22.8180   19.8860 N   0  0  0  0  0  4  0  0  0  0  0  0
  -28.6780  -22.5230   20.6140 H   0  0  0  0  0  0  0  0  0  0  0  0
  -28.8070  -22.7140   19.0170 H   0  0  0  0  0  0  0  0  0  0  0  0
  -30.1590  -24.5890   21.5010 C   0  0  0  0  0  1  0  0  0  0  0  0
  -29.6160  -24.3090   20.0830 C   0  0  0  0  0  3  0  0  0  0  0  0
  -28.4040  -25.3000   19.7910 C   0  0  0  0  0  2  0  0  0  0  0  0
  -28.5780  -26.7440   20.0780 O   0  0  0  0  0  0  0  0  0  0  0  0
  -24.7760  -31.8820   23.4030 C   0  0  0  0  0  0  0  0  0  0  0  0
  -27.4380  -27.5620   20.0710 C   0  0  0  0  0  0  0  0  0  0  0  0
  -23.5820  -30.5680   21.6860 C   0  0  0  0  0  3  0  0  0  0  0  0
  -25.0470  -29.1270   20.1650 C   0  0  0  0  0  0  0  0  0  0  0  0
  -26.1150  -30.9350   21.5110 C   0  0  0  0  0  2  0  0  0  0  0  0
  -26.2100  -29.6000   20.7840 C   0  0  0  0  0  0  0  0  0  0  0  0
  -27.4080  -28.8300   20.7280 C   0  0  0  0  0  3  0  0  0  0  0  0
  -26.2500  -27.1430   19.4270 C   0  0  0  0  0  3  0  0  0  0  0  0
  -25.0680  -27.9040   19.4790 C   0  0  0  0  0  3  0  0  0  0  0  0
  -23.7970  -29.9770   20.2680 C   0  0  0  0  0  2  0  0  0  0  0  0
  -24.8430  -31.1420   22.2570 N   0  0  0  0  0  0  0  0  0  0  0  0
  -23.6930  -32.1110   23.9580 O   0  0  0  0  0  0  0  0  0  0  0  0
  -22.9400  -29.4860   22.5870 C   0  0  0  0  0  0  0  0  0  0  0  0
  -21.6250  -29.2630   22.4190 N   0  0  0  0  0  0  0  0  0  0  0  0
  -23.6240  -28.8530   23.3950 O   0  0  0  0  0  0  0  0  0  0  0  0
  -21.1300  -29.8310   21.7450 H   0  0  0  0  0  0  0  0  0  0  0  0
  -18.2910  -27.9080   22.7670 C   0  0  0  0  0  0  0  0  0  0  0  0
  -20.8260  -28.2640   23.1290 C   0  0  0  0  0  3  0  0  0  0  0  0
  -21.0070  -26.8580   22.5080 C   0  0  0  0  0  2  0  0  0  0  0  0
  -19.9530  -26.5270   21.4480 C   0  0  0  0  0  2  0  0  0  0  0  0
  -18.5470  -26.5910   22.0520 C   0  0  0  0  0  2  0  0  0  0  0  0
  -19.3610  -28.7000   23.2600 C   0  0  0  0  0  0  0  0  0  0  0  0
  -19.0700  -29.9300   23.8860 C   0  0  0  0  0  3  0  0  0  0  0  0
  -17.7410  -30.3700   24.0270 C   0  0  0  0  0  3  0  0  0  0  0  0
  -16.6830  -29.5750   23.5520 C   0  0  0  0  0  3  0  0  0  0  0  0
  -16.9590  -28.3450   22.9270 C   0  0  0  0  0  3  0  0  0  0  0  0
  -26.0540  -32.4940   24.0550 C   0  0  0  0  0  3  0  0  0  0  0  0
  -26.5200  -31.7220   25.3510 C   0  0  1  0  0  0  0  0  0  0  0  0
  -25.3910  -31.5080   26.3870 C   0  0  0  0  0  1  0  0  0  0  0  0
  -27.0930  -30.3340   24.9830 C   0  0  0  0  0  1  0  0  0  0  0  0
  -27.6610  -32.5010   26.0440 C   0  0  0  0  0  1  0  0  0  0  0  0
  -25.7640  -33.9000   24.3670 N   0  0  0  0  0  0  0  0  0  0  0  0
  -26.1030  -34.9380   23.5920 C   0  0  0  0  0  0  0  0  0  0  0  0
  -26.7650  -34.8120   22.5580 O   0  0  0  0  0  0  0  0  0  0  0  0
  -25.1780  -34.0720   25.1710 H   0  0  0  0  0  0  0  0  0  0  0  0
  -24.3830  -36.7390   23.2410 C   0  0  0  0  0  1  0  0  0  0  0  0
  -25.6370  -36.3380   24.0340 C   0  0  0  0  0  3  0  0  0  0  0  0
  -27.7870  -37.2320   24.8140 C   0  0  0  0  0  1  0  0  0  0  0  0
  -26.6740  -37.3810   23.8800 N   0  0  0  0  0  0  0  0  0  0  0  0
  -26.2760  -38.3080   24.0070 H   0  0  0  0  0  0  0  0  0  0  0  0
  -30.4820  -21.8550   19.8350 C   0  0  0  0  0  2  0  0  0  0  0  0
  -31.1700  -14.9340   19.8950 C   0  0  0  0  0  0  0  0  0  0  0  0
  -30.9610  -12.6440   18.9440 C   0  0  0  0  0  2  0  0  0  0  0  0
  -29.9510  -12.6960   17.7760 C   0  0  0  0  0  2  0  0  0  0  0  0
  -28.5070  -12.5240   18.2900 C   0  0  0  0  0  2  0  0  0  0  0  0
  -28.1940  -13.4330   19.5080 C   0  0  0  0  0  3  0  0  0  0  0  0
  -29.3120  -13.3480   20.5710 C   0  0  0  0  0  2  0  0  0  0  0  0
  -30.5840  -13.6930   19.9130 N   0  0  0  0  0  0  0  0  0  0  0  0
  -32.2870  -15.0980   19.3910 O   0  0  0  0  0  0  0  0  0  0  0  0
  -29.6670  -18.1960   21.0580 C   0  0  0  0  0  3  0  0  0  0  0  0
  -31.0090  -19.4220   19.0390 C   0  0  0  0  0  3  0  0  0  0  0  0
  -29.6080  -19.6170   20.9620 C   0  0  0  0  0  0  0  0  0  0  0  0
  -30.2960  -20.2860   19.9140 C   0  0  0  0  0  0  0  0  0  0  0  0
  -30.4310  -17.4090   20.1590 C   0  0  0  0  0  0  0  0  0  0  0  0
  -28.8410  -20.3970   22.0150 C   0  0  0  0  0  1  0  0  0  0  0  0
  -31.0770  -18.0590   19.1540 N   0  0  0  0  0  0  0  0  0  0  0  0
  -30.4050  -15.9650   20.3680 N   0  0  0  0  0  0  0  0  0  0  0  0
  -29.6050  -15.6430   20.8870 H   0  0  0  0  0  0  0  0  0  0  0  0
  -25.8660  -14.0220   20.4250 C   0  0  0  0  0  0  0  0  0  0  0  0
  -24.8180  -13.2440   20.8350 C   0  0  0  0  0  0  0  0  0  0  0  0
  -25.2580  -11.8900   20.7050 C   0  0  0  0  0  0  0  0  0  0  0  0
  -26.8790  -13.1430   20.0740 N   0  0  0  0  0  0  0  0  0  0  0  0
  -26.5220  -11.8540   20.3000 N   0  0  0  0  0  0  0  0  0  0  0  0
  -24.5300  -10.6280   20.8870 C   0  0  0  0  0  0  0  0  0  0  0  0
  -24.8830   -9.7120   21.9010 C   0  0  0  0  0  3  0  0  0  0  0  0
  -24.1560   -8.5140   22.0680 C   0  0  0  0  0  3  0  0  0  0  0  0
  -23.0620   -8.2220   21.2180 C   0  0  0  0  0  0  0  0  0  0  0  0
  -22.7290   -9.1270   20.1940 C   0  0  0  0  0  3  0  0  0  0  0  0
  -23.4570  -10.3170   20.0260 C   0  0  0  0  0  3  0  0  0  0  0  0
  -22.3140   -7.0720   21.2900 O   0  0  0  0  0  0  0  0  0  0  0  0
  -21.9710   -6.5100   22.4930 C   0  0  0  0  0  0  0  0  0  0  0  0
  -21.2020   -7.2090   23.4490 C   0  0  0  0  0  3  0  0  0  0  0  0
  -20.8120   -6.5690   24.6440 C   0  0  0  0  0  3  0  0  0  0  0  0
  -21.1820   -5.2310   24.8790 C   0  0  0  0  0  0  0  0  0  0  0  0
  -21.9430   -4.5330   23.9250 C   0  0  0  0  0  3  0  0  0  0  0  0
  -22.3340   -5.1700   22.7350 C   0  0  0  0  0  0  0  0  0  0  0  0
  -23.0490   -4.4840   21.8100 F   0  0  0  0  0  0  0  0  0  0  0  0
  -20.8020   -4.6140   26.0230 F   0  0  0  0  0  0  0  0  0  0  0  0
  -23.4510  -13.7210   21.2330 C   0  0  0  0  0  0  0  0  0  0  0  0
  -22.7920  -13.0060   22.1370 N   0  0  0  0  0  0  0  0  0  0  0  0
  -22.9810  -14.7630   20.7760 O   0  0  0  0  0  0  0  0  0  0  0  0
  -23.1860  -12.1640   22.5270 H   0  0  0  0  0  0  0  0  0  0  0  0
  -21.8770  -13.3070   22.4450 H   0  0  0  0  0  0  0  0  0  0  0  0
  -26.0360  -15.3980   20.3010 N   0  0  0  0  0  0  0  0  0  0  0  0
  -25.2840  -16.0510   20.4900 H   0  0  0  0  0  0  0  0  0  0  0  0
  -26.8560  -15.8440   19.9090 H   0  0  0  0  0  0  0  0  0  0  0  0
  1  5  1  0
  1  2  1  0
  3  1  1  0
  5  4  1  0
  6  7  1  0
  6  5  1  0
  8 19  2  0
  9  7  1  0
  9 14  1  0
 10 18  1  0
 10 20  1  0
 11 17  1  0
 11 13  1  0
 12 18  1  0
 13 12  1  0
 14 13  2  0
 15 16  1  0
 15  9  2  0
 16 11  2  0
 17 10  1  0
 18  8  1  0
 20 22  2  0
 21 20  1  0
 23 21  1  0
 24 33  2  0
 24 29  1  0
 25 21  1  0
 25 29  1  0
 26 25  1  0
 27 28  1  0
 27 26  1  0
 28 24  1  0
 29 30  2  0
 30 31  1  0
 32 31  2  0
 33 32  1  0
 34  8  1  0
 34 39  1  0
 34 35  1  0
 35 38  1  1
 35 36  1  0
 37 35  1  0
 39 42  1  0
 40 44  1  0
 40 39  1  0
 41 40  2  0
 44 43  1  0
 46 47  1  0
 46 44  1  0
 46 45  1  0
 48  1  1  0
 48 60  1  0
 49 55  1  0
 49 64  1  0
 50 55  1  0
 51 52  1  0
 51 50  1  0
 53 52  1  0
 53 69  1  0
 53 54  1  0
 55 54  1  0
 56 49  2  0
 58 63  2  0
 58 60  1  0
 59 57  1  0
 59 62  1  0
 60 59  2  0
 61 64  1  0
 61 57  2  0
 63 61  1  0
 64 65  1  0
 66 67  2  0
 67 86  1  0
 68 67  1  0
 68 71  1  0
 69 70  1  0
 69 66  1  0
 70 68  2  0
 71 72  1  0
 72 73  2  0
 74 77  1  0
 74 73  1  0
 75 74  2  0
 76 75  1  0
 76 71  2  0
 77 78  1  0
 78 83  2  0
 78 79  1  0
 79 80  2  0
 80 81  1  0
 81 85  1  0
 82 81  2  0
 83 82  1  0
 84 83  1  0
 86 87  1  0
 87 90  1  0
 87 89  1  0
 88 86  2  0
 91 66  1  0
 91 92  1  0
 93 91  1  0
M  ISO  4   6 101   7 101  49 100  64 100
M  END
>  <TORSDO>  (90) 
F 19

>  <SCORE>  (90) 
-11.909

>  <name>  (90) 
89

>  <ligand_id>  (90) 
89

>  <original_smiles>  (90) 
[H]c1nc(N([H])C(=O)N2C([H])([H])C([H])([H])C([H])([H])C([H])(n3nc(-c4c([H])c([H])c(Oc5c([H])c([H])c(F)c([H])c5F)c([H])c4[H])c(C(=O)N([H])[H])c3N([H])[H])C2([H])[H])c([H])c(C([H])([H])[H])c1C([H])([H])[N+]([H])([H])C([H])(C([H])([H])[H])C([H])([H])Oc1c([H])c([H])c2c(c1[H])C([H])([H])N(C(=O)C([H])(N([H])C(=O)C([H])(N([H])C([H])([H])[H])C([H])([H])[H])C(C([H])([H])[H])(C([H])([H])[H])C([H])([H])[H])C([H])(C(=O)N([H])C1([H])c3c([H])c([H])c([H])c([H])c3C([H])([H])C([H])([H])C1([H])[H])C2([H])[H]

>  <smiles>  (90) 
[H]c1nc(N([H])C(=O)N2C([H])([H])C([H])([H])C([H])([H])C([H])(n3nc(-c4c([H])c([H])c(Oc5c([H])c([H])c(F)c([H])c5F)c([H])c4[H])c(C(=O)N([H])[H])c3N([H])[H])C2([H])[H])c([H])c(C([H])([H])[H])c1C([H])([H])[N+]([H])([H])C([H])(C([H])([H])[H])C([H])([H])Oc1c([H])c([H])c2c(c1[H])C([H])([H])N(C(=O)C([H])(N([H])C(=O)C([H])(N([H])C([H])([H])[H])C([H])([H])[H])C(C([H])([H])[H])(C([H])([H])[H])C([H])([H])[H])C([H])(C(=O)N([H])C1([H])c3c([H])c([H])c([H])c([H])c3C([H])([H])C([H])([H])C1([H])[H])C2([H])[H]

$$$$
90:0:0
     RDKit          3D

 92101  0  0  1  0  0  0  0  0999 V2000
  -30.2070  -21.0540   18.7440 C   0  0  0  0  0  0  0  0  0  0  0  0
  -28.7740  -21.4210   20.5520 C   0  0  0  0  0  2  0  0  0  0  0  0
  -29.2930  -20.2470   19.6490 C   0  0  0  0  0  3  0  0  0  0  0  0
  -29.5270  -22.7310   20.1110 C   0  0  0  0  0  3  0  0  0  0  0  0
  -30.8570  -20.3890   17.5490 C   0  0  0  0  0  1  0  0  0  0  0  0
  -30.3460  -22.2950   18.9910 N   0  0  0  0  0  0  0  0  0  0  0  0
  -29.1970  -18.1040   21.1150 C   0  0  0  0  0  2  0  0  0  0  0  0
  -30.3880  -17.9040   19.5010 C   0  0  0  0  0  2  0  0  0  0  0  0
  -30.2860  -17.0530   20.7780 C   0  0  0  0  0  3  0  0  0  0  0  0
  -29.9970  -19.0810   20.3300 N   0  0  1  0  0  4  0  0  0  0  0  0
  -30.7910  -19.4000   20.8650 H   0  0  0  0  0  0  0  0  0  0  0  0
  -30.6160  -14.5520   20.2320 C   0  0  0  0  0  0  0  0  0  0  0  0
  -30.3280  -12.3640   19.1000 C   0  0  0  0  0  2  0  0  0  0  0  0
  -29.3560  -12.5480   17.9140 C   0  0  0  0  0  2  0  0  0  0  0  0
  -27.8930  -12.3960   18.3780 C   0  0  0  0  0  2  0  0  0  0  0  0
  -27.5790  -13.2310   19.6480 C   0  0  0  0  0  3  0  0  0  0  0  0
  -28.6620  -13.0300   20.7310 C   0  0  0  0  0  2  0  0  0  0  0  0
  -29.9630  -13.3570   20.1270 N   0  0  0  0  0  0  0  0  0  0  0  0
  -31.7650  -14.7090   19.8100 O   0  0  0  0  0  0  0  0  0  0  0  0
  -29.8720  -15.6160   20.6520 N   0  0  0  0  0  0  0  0  0  0  0  0
  -28.9340  -15.3880   20.9470 H   0  0  0  0  0  0  0  0  0  0  0  0
  -25.2030  -13.8410   20.4170 C   0  0  0  0  0  0  0  0  0  0  0  0
  -24.1410  -13.0720   20.8080 C   0  0  0  0  0  0  0  0  0  0  0  0
  -24.5970  -11.7190   20.7630 C   0  0  0  0  0  0  0  0  0  0  0  0
  -26.2390  -12.9570   20.1590 N   0  0  0  0  0  0  0  0  0  0  0  0
  -25.8790  -11.6760   20.4270 N   0  0  0  0  0  0  0  0  0  0  0  0
  -23.8690  -10.4590   20.9660 C   0  0  0  0  0  0  0  0  0  0  0  0
  -24.3020   -9.5000   21.9080 C   0  0  0  0  0  3  0  0  0  0  0  0
  -23.5760   -8.3050   22.0970 C   0  0  0  0  0  3  0  0  0  0  0  0
  -22.4020   -8.0600   21.3450 C   0  0  0  0  0  0  0  0  0  0  0  0
  -21.9900   -9.0070   20.3910 C   0  0  0  0  0  3  0  0  0  0  0  0
  -22.7160  -10.1950   20.2000 C   0  0  0  0  0  3  0  0  0  0  0  0
  -21.6480   -6.9160   21.4430 O   0  0  0  0  0  0  0  0  0  0  0  0
  -21.5830   -6.1940   22.6070 C   0  0  0  0  0  0  0  0  0  0  0  0
  -21.1090   -6.7620   23.8100 C   0  0  0  0  0  3  0  0  0  0  0  0
  -20.9940   -5.9650   24.9680 C   0  0  0  0  0  3  0  0  0  0  0  0
  -21.3420   -4.6010   24.9220 C   0  0  0  0  0  0  0  0  0  0  0  0
  -21.8080   -4.0330   23.7220 C   0  0  0  0  0  3  0  0  0  0  0  0
  -21.9260   -4.8280   22.5680 C   0  0  0  0  0  0  0  0  0  0  0  0
  -22.3550   -4.2710   21.4100 F   0  0  0  0  0  0  0  0  0  0  0  0
  -21.2250   -3.8330   26.0300 F   0  0  0  0  0  0  0  0  0  0  0  0
  -22.7530  -13.5540   21.1110 C   0  0  0  0  0  0  0  0  0  0  0  0
  -22.0380  -12.8560   21.9850 N   0  0  0  0  0  0  0  0  0  0  0  0
  -22.3100  -14.5860   20.6060 O   0  0  0  0  0  0  0  0  0  0  0  0
  -22.4090  -12.0210   22.4150 H   0  0  0  0  0  0  0  0  0  0  0  0
  -21.1050  -13.1600   22.2290 H   0  0  0  0  0  0  0  0  0  0  0  0
  -25.3690  -15.2120   20.2390 N   0  0  0  0  0  0  0  0  0  0  0  0
  -24.5980  -15.8610   20.3510 H   0  0  0  0  0  0  0  0  0  0  0  0
  -26.1970  -15.6450   19.8530 H   0  0  0  0  0  0  0  0  0  0  0  0
  -28.7330  -24.0440   19.6710 C   0  0  0  0  0  2  0  0  0  0  0  0
  -28.3450  -25.1430   20.7330 C   0  0  0  0  0  2  0  0  0  0  0  0
  -28.4400  -26.5440   20.2960 O   0  0  0  0  0  0  0  0  0  0  0  0
  -24.5810  -31.8440   23.2410 C   0  0  0  0  0  0  0  0  0  0  0  0
  -27.2860  -27.3210   20.2730 C   0  0  0  0  0  0  0  0  0  0  0  0
  -23.4150  -30.4300   21.5830 C   0  0  0  0  0  3  0  0  0  0  0  0
  -24.9020  -28.8740   20.2030 C   0  0  0  0  0  0  0  0  0  0  0  0
  -25.9500  -30.7750   21.4420 C   0  0  0  0  0  2  0  0  0  0  0  0
  -26.0520  -29.3940   20.8110 C   0  0  0  0  0  0  0  0  0  0  0  0
  -27.2490  -28.6290   20.8310 C   0  0  0  0  0  3  0  0  0  0  0  0
  -26.1170  -26.8320   19.6540 C   0  0  0  0  0  3  0  0  0  0  0  0
  -24.9330  -27.5970   19.6150 C   0  0  0  0  0  3  0  0  0  0  0  0
  -23.6570  -29.7380   20.2140 C   0  0  0  0  0  2  0  0  0  0  0  0
  -24.6660  -31.0340   22.1460 N   0  0  0  0  0  0  0  0  0  0  0  0
  -23.4870  -32.1190   23.7540 O   0  0  0  0  0  0  0  0  0  0  0  0
  -22.7400  -29.4170   22.5390 C   0  0  0  0  0  0  0  0  0  0  0  0
  -21.4150  -29.2480   22.3990 N   0  0  0  0  0  0  0  0  0  0  0  0
  -23.4080  -28.7850   23.3610 O   0  0  0  0  0  0  0  0  0  0  0  0
  -20.9360  -29.8080   21.7070 H   0  0  0  0  0  0  0  0  0  0  0  0
  -18.0190  -28.1090   22.8930 C   0  0  0  0  0  0  0  0  0  0  0  0
  -20.5820  -28.3170   23.1610 C   0  0  0  0  0  3  0  0  0  0  0  0
  -20.6560  -26.8900   22.5690 C   0  0  0  0  0  2  0  0  0  0  0  0
  -19.5460  -26.6010   21.5520 C   0  0  0  0  0  2  0  0  0  0  0  0
  -18.1680  -26.7650   22.1990 C   0  0  0  0  0  2  0  0  0  0  0  0
  -19.1530  -28.8440   23.3300 C   0  0  0  0  0  0  0  0  0  0  0  0
  -18.9590  -30.1050   23.9360 C   0  0  0  0  0  3  0  0  0  0  0  0
  -17.6640  -30.6290   24.1110 C   0  0  0  0  0  3  0  0  0  0  0  0
  -16.5450  -29.8890   23.6910 C   0  0  0  0  0  3  0  0  0  0  0  0
  -16.7230  -28.6320   23.0880 C   0  0  0  0  0  3  0  0  0  0  0  0
  -25.8500  -32.4850   23.8850 C   0  0  0  0  0  3  0  0  0  0  0  0
  -26.3410  -31.7250   25.1780 C   0  0  1  0  0  0  0  0  0  0  0  0
  -25.2250  -31.4910   26.2230 C   0  0  0  0  0  1  0  0  0  0  0  0
  -26.9380  -30.3470   24.8090 C   0  0  0  0  0  1  0  0  0  0  0  0
  -27.4740  -32.5280   25.8590 C   0  0  0  0  0  1  0  0  0  0  0  0
  -25.5320  -33.8850   24.1970 N   0  0  0  0  0  0  0  0  0  0  0  0
  -25.8760  -34.9320   23.4350 C   0  0  0  0  0  0  0  0  0  0  0  0
  -26.5620  -34.8210   22.4160 O   0  0  0  0  0  0  0  0  0  0  0  0
  -24.9240  -34.0450   24.9870 H   0  0  0  0  0  0  0  0  0  0  0  0
  -24.1540  -36.7190   23.0300 C   0  0  0  0  0  1  0  0  0  0  0  0
  -25.3760  -36.3230   23.8720 C   0  0  0  0  0  3  0  0  0  0  0  0
  -27.4870  -37.2190   24.7500 C   0  0  0  0  0  1  0  0  0  0  0  0
  -26.4090  -37.3770   23.7760 N   0  0  0  0  0  0  0  0  0  0  0  0
  -25.9980  -38.2970   23.9050 H   0  0  0  0  0  0  0  0  0  0  0  0
  1  6  2  0
  1  3  1  0
  3 10  1  0
  3  2  1  0
  4 50  1  0
  4  2  1  0
  5  1  1  0
  6  4  1  0
  8 10  1  0
  8  9  1  0
  9 20  1  0
  9  7  1  0
 10 11  1  1
 10  7  1  0
 12 20  1  0
 13 18  1  0
 14 15  1  0
 14 13  1  0
 16 15  1  0
 16 25  1  0
 16 17  1  0
 18 12  1  0
 18 17  1  0
 19 12  2  0
 20 21  1  0
 22 23  2  0
 23 42  1  0
 24 23  1  0
 24 27  1  0
 25 22  1  0
 25 26  1  0
 26 24  2  0
 27 28  1  0
 28 29  2  0
 30 33  1  0
 30 29  1  0
 31 30  2  0
 32 31  1  0
 32 27  2  0
 33 34  1  0
 34 35  1  0
 35 36  2  0
 37 36  1  0
 37 41  1  0
 38 37  2  0
 39 34  2  0
 39 38  1  0
 40 39  1  0
 42 43  1  0
 43 46  1  0
 43 45  1  0
 44 42  2  0
 47 48  1  0
 47 22  1  0
 49 47  1  0
 50 51  1  0
 52 51  1  0
 53 64  2  0
 54 52  1  0
 54 59  1  0
 55 63  1  0
 55 65  1  0
 56 62  1  0
 56 58  1  0
 57 63  1  0
 58 59  2  0
 58 57  1  0
 60 54  2  0
 61 60  1  0
 61 56  2  0
 62 55  1  0
 63 53  1  0
 65 67  2  0
 66 65  1  0
 68 66  1  0
 69 78  2  0
 69 74  1  0
 70 66  1  0
 70 74  1  0
 71 70  1  0
 72 73  1  0
 72 71  1  0
 73 69  1  0
 74 75  2  0
 75 76  1  0
 77 76  2  0
 78 77  1  0
 79 53  1  0
 79 84  1  0
 79 80  1  0
 80 83  1  1
 80 81  1  0
 82 80  1  0
 84 87  1  0
 85 89  1  0
 85 84  1  0
 86 85  2  0
 89 88  1  0
 91 89  1  0
 91 92  1  0
 91 90  1  0
M  ISO  4  12 100  20 100  51 101  52 101
M  END
>  <TORSDO>  (91) 
F 19

>  <SCORE>  (91) 
-14.021

>  <name>  (91) 
90

>  <ligand_id>  (91) 
90

>  <original_smiles>  (91) 
[H]c1c([H])c([H])c2c(c1[H])C([H])([H])C([H])([H])C([H])([H])C2([H])N([H])C(=O)C1([H])N(C(=O)C([H])(N([H])C(=O)C([H])(N([H])C([H])([H])[H])C([H])([H])[H])C(C([H])([H])[H])(C([H])([H])[H])C([H])([H])[H])C([H])([H])c2c([H])c(OC([H])([H])C([H])([H])C3([H])N=C(C([H])([H])[H])C([H])([N+]4([H])C([H])([H])C([H])(N([H])C(=O)N5C([H])([H])C([H])([H])C([H])([H])C([H])(n6nc(-c7c([H])c([H])c(Oc8c([H])c([H])c(F)c([H])c8F)c([H])c7[H])c(C(=O)N([H])[H])c6N([H])[H])C5([H])[H])C4([H])[H])C3([H])[H])c([H])c([H])c2C1([H])[H]

>  <smiles>  (91) 
[H]c1c([H])c([H])c2c(c1[H])C([H])([H])C([H])([H])C([H])([H])C2([H])N([H])C(=O)C1([H])N(C(=O)C([H])(N([H])C(=O)C([H])(N([H])C([H])([H])[H])C([H])([H])[H])C(C([H])([H])[H])(C([H])([H])[H])C([H])([H])[H])C([H])([H])c2c([H])c(OC([H])([H])C([H])([H])C3([H])N=C(C([H])([H])[H])C([H])([N+]4([H])C([H])([H])C([H])(N([H])C(=O)N5C([H])([H])C([H])([H])C([H])([H])C([H])(n6nc(-c7c([H])c([H])c(Oc8c([H])c([H])c(F)c([H])c8F)c([H])c7[H])c(C(=O)N([H])[H])c6N([H])[H])C5([H])[H])C4([H])[H])C3([H])[H])c([H])c([H])c2C1([H])[H]

$$$$
91:0:0
     RDKit          3D

 91100  0  0  1  0  0  0  0  0999 V2000
  -28.7750  -21.6660   19.8470 N   0  0  1  0  0  4  0  0  0  0  0  0
  -27.8210  -21.4160   20.0730 H   0  0  0  0  0  0  0  0  0  0  0  0
  -28.9490  -23.1090   21.9930 C   0  0  0  0  0  1  0  0  0  0  0  0
  -28.9600  -23.1710   20.4540 C   0  0  0  0  0  3  0  0  0  0  0  0
  -28.0200  -24.5530   19.9930 C   0  0  0  0  0  2  0  0  0  0  0  0
  -28.2290  -26.1020   20.3000 O   0  0  0  0  0  0  0  0  0  0  0  0
  -24.6180  -31.8830   23.2500 C   0  0  0  0  0  0  0  0  0  0  0  0
  -27.1890  -27.1220   20.2140 C   0  0  0  0  0  0  0  0  0  0  0  0
  -23.4230  -30.4920   21.6030 C   0  0  0  0  0  3  0  0  0  0  0  0
  -24.8740  -28.9130   20.1740 C   0  0  0  0  0  0  0  0  0  0  0  0
  -25.9790  -30.7400   21.4510 C   0  0  0  0  0  2  0  0  0  0  0  0
  -26.0520  -29.3430   20.7970 C   0  0  0  0  0  0  0  0  0  0  0  0
  -27.2070  -28.4620   20.7980 C   0  0  0  0  0  3  0  0  0  0  0  0
  -25.9870  -26.8160   19.5360 C   0  0  0  0  0  3  0  0  0  0  0  0
  -24.8590  -27.6710   19.5240 C   0  0  0  0  0  3  0  0  0  0  0  0
  -23.6530  -29.8240   20.2200 C   0  0  0  0  0  2  0  0  0  0  0  0
  -24.6930  -31.0620   22.1580 N   0  0  0  0  0  0  0  0  0  0  0  0
  -23.5280  -32.1660   23.7780 O   0  0  0  0  0  0  0  0  0  0  0  0
  -22.7370  -29.4840   22.5610 C   0  0  0  0  0  0  0  0  0  0  0  0
  -21.4090  -29.3110   22.4320 N   0  0  0  0  0  0  0  0  0  0  0  0
  -23.4020  -28.8620   23.3900 O   0  0  0  0  0  0  0  0  0  0  0  0
  -20.9240  -29.8700   21.7450 H   0  0  0  0  0  0  0  0  0  0  0  0
  -18.0260  -28.1060   22.9320 C   0  0  0  0  0  0  0  0  0  0  0  0
  -20.5860  -28.3700   23.1980 C   0  0  0  0  0  3  0  0  0  0  0  0
  -20.6860  -26.9400   22.6190 C   0  0  0  0  0  2  0  0  0  0  0  0
  -19.5850  -26.6200   21.6030 C   0  0  0  0  0  2  0  0  0  0  0  0
  -18.2030  -26.7610   22.2490 C   0  0  0  0  0  2  0  0  0  0  0  0
  -19.1440  -28.8670   23.3650 C   0  0  0  0  0  0  0  0  0  0  0  0
  -18.9230  -30.1230   23.9710 C   0  0  0  0  0  3  0  0  0  0  0  0
  -17.6170  -30.6220   24.1430 C   0  0  0  0  0  3  0  0  0  0  0  0
  -16.5140  -29.8570   23.7250 C   0  0  0  0  0  3  0  0  0  0  0  0
  -16.7190  -28.6020   23.1250 C   0  0  0  0  0  3  0  0  0  0  0  0
  -25.8900  -32.5210   23.8860 C   0  0  0  0  0  3  0  0  0  0  0  0
  -25.5790  -33.9230   24.2160 N   0  0  0  0  0  0  0  0  0  0  0  0
  -25.8940  -34.9760   23.4500 C   0  0  0  0  0  0  0  0  0  0  0  0
  -26.5410  -34.8690   22.4040 O   0  0  0  0  0  0  0  0  0  0  0  0
  -25.0040  -34.0770   25.0310 H   0  0  0  0  0  0  0  0  0  0  0  0
  -24.1540  -36.7670   23.1340 C   0  0  0  0  0  1  0  0  0  0  0  0
  -25.4160  -36.3670   23.9150 C   0  0  0  0  0  3  0  0  0  0  0  0
  -27.5640  -37.2650   24.6950 C   0  0  0  0  0  1  0  0  0  0  0  0
  -26.4420  -37.4230   23.7730 N   0  0  0  0  0  0  0  0  0  0  0  0
  -26.0350  -38.3420   23.9260 H   0  0  0  0  0  0  0  0  0  0  0  0
  -26.3910  -31.7560   25.1720 C   0  0  1  0  0  0  0  0  0  0  0  0
  -25.2870  -31.5190   26.2310 C   0  0  0  0  0  1  0  0  0  0  0  0
  -26.9770  -30.3760   24.7950 C   0  0  0  0  0  1  0  0  0  0  0  0
  -27.5400  -32.5450   25.8420 C   0  0  0  0  0  1  0  0  0  0  0  0
  -28.8210  -21.7470   18.3610 C   0  0  0  0  0  2  0  0  0  0  0  0
  -30.5820  -22.2230   16.4060 C   0  0  0  0  0  2  0  0  0  0  0  0
  -30.2320  -23.5450   17.0380 C   0  0  0  0  0  2  0  0  0  0  0  0
  -30.1710  -22.2740   17.8600 C   0  0  0  0  0  3  0  0  0  0  0  0
  -29.6200  -20.3620   20.3230 C   0  0  0  0  0  2  0  0  0  0  0  0
  -30.4930  -15.1450   20.1140 C   0  0  0  0  0  0  0  0  0  0  0  0
  -30.3880  -12.7490   19.2320 C   0  0  0  0  0  2  0  0  0  0  0  0
  -29.4340  -12.6180   18.0260 C   0  0  0  0  0  2  0  0  0  0  0  0
  -27.9870  -12.3910   18.5110 C   0  0  0  0  0  2  0  0  0  0  0  0
  -27.5890  -13.3440   19.6710 C   0  0  0  0  0  3  0  0  0  0  0  0
  -28.6740  -13.4350   20.7610 C   0  0  0  0  0  2  0  0  0  0  0  0
  -29.8990  -13.8760   20.0860 N   0  0  0  0  0  0  0  0  0  0  0  0
  -31.7100  -15.1560   19.8790 O   0  0  0  0  0  0  0  0  0  0  0  0
  -29.6950  -17.5080   21.1240 C   0  0  0  0  0  2  0  0  0  0  0  0
  -29.9480  -17.5880   19.1460 C   0  0  0  0  0  2  0  0  0  0  0  0
  -29.2590  -18.6740   20.1070 C   0  0  0  0  0  3  0  0  0  0  0  0
  -29.7340  -16.3900   20.0870 N   0  0  0  0  0  0  0  0  0  0  0  0
  -25.2420  -13.8980   20.5180 C   0  0  0  0  0  0  0  0  0  0  0  0
  -24.1880  -13.1150   20.8980 C   0  0  0  0  0  0  0  0  0  0  0  0
  -24.6510  -11.7650   20.8260 C   0  0  0  0  0  0  0  0  0  0  0  0
  -26.2740  -13.0270   20.2210 N   0  0  0  0  0  0  0  0  0  0  0  0
  -25.9330  -11.7370   20.4760 N   0  0  0  0  0  0  0  0  0  0  0  0
  -23.9300  -10.4990   21.0140 C   0  0  0  0  0  0  0  0  0  0  0  0
  -24.3620   -9.5280   21.9460 C   0  0  0  0  0  3  0  0  0  0  0  0
  -23.6370   -8.3290   22.1210 C   0  0  0  0  0  3  0  0  0  0  0  0
  -22.4680   -8.0910   21.3600 C   0  0  0  0  0  0  0  0  0  0  0  0
  -22.0550   -9.0480   20.4180 C   0  0  0  0  0  3  0  0  0  0  0  0
  -22.7800  -10.2380   20.2410 C   0  0  0  0  0  3  0  0  0  0  0  0
  -21.7160   -6.9420   21.4410 O   0  0  0  0  0  0  0  0  0  0  0  0
  -21.6330   -6.2170   22.6030 C   0  0  0  0  0  0  0  0  0  0  0  0
  -21.1170   -6.7740   23.7930 C   0  0  0  0  0  3  0  0  0  0  0  0
  -20.9840   -5.9730   24.9440 C   0  0  0  0  0  3  0  0  0  0  0  0
  -21.3570   -4.6160   24.9090 C   0  0  0  0  0  0  0  0  0  0  0  0
  -21.8680   -4.0610   23.7230 C   0  0  0  0  0  3  0  0  0  0  0  0
  -22.0030   -4.8570   22.5720 C   0  0  0  0  0  0  0  0  0  0  0  0
  -22.4740   -4.3080   21.4290 F   0  0  0  0  0  0  0  0  0  0  0  0
  -21.2230   -3.8470   26.0160 F   0  0  0  0  0  0  0  0  0  0  0  0
  -22.7980  -13.5860   21.2120 C   0  0  0  0  0  0  0  0  0  0  0  0
  -22.0860  -12.8770   22.0790 N   0  0  0  0  0  0  0  0  0  0  0  0
  -22.3530  -14.6240   20.7240 O   0  0  0  0  0  0  0  0  0  0  0  0
  -22.4630  -12.0430   22.5050 H   0  0  0  0  0  0  0  0  0  0  0  0
  -21.1540  -13.1810   22.3270 H   0  0  0  0  0  0  0  0  0  0  0  0
  -25.4000  -15.2730   20.3740 N   0  0  0  0  0  0  0  0  0  0  0  0
  -24.6450  -15.9270   20.5520 H   0  0  0  0  0  0  0  0  0  0  0  0
  -26.2510  -15.7250   20.0630 H   0  0  0  0  0  0  0  0  0  0  0  0
  1  2  1  6
  1 51  1  0
  1  4  1  0
  4  3  1  0
  5  6  1  0
  5  4  1  0
  7 18  2  0
  8  6  1  0
  8 13  1  0
  9 17  1  0
  9 19  1  0
 10 16  1  0
 10 12  1  0
 11 17  1  0
 12 13  2  0
 12 11  1  0
 14  8  2  0
 15 14  1  0
 15 10  2  0
 16  9  1  0
 17  7  1  0
 19 21  2  0
 20 19  1  0
 22 20  1  0
 23 32  2  0
 23 28  1  0
 24 20  1  0
 24 28  1  0
 25 24  1  0
 26 27  1  0
 26 25  1  0
 27 23  1  0
 28 29  2  0
 29 30  1  0
 31 30  2  0
 32 31  1  0
 33  7  1  0
 33 34  1  0
 33 43  1  0
 34 37  1  0
 35 39  1  0
 35 34  1  0
 36 35  2  0
 39 38  1  0
 41 39  1  0
 41 42  1  0
 41 40  1  0
 43 46  1  1
 43 44  1  0
 45 43  1  0
 47  1  1  0
 48 49  1  0
 48 50  1  0
 49 50  1  0
 50 47  1  0
 53 58  1  0
 54 55  1  0
 54 53  1  0
 56 55  1  0
 56 67  1  0
 56 57  1  0
 58 52  1  0
 58 57  1  0
 59 52  2  0
 61 63  1  0
 61 62  1  0
 62 51  1  0
 62 60  1  0
 63 52  1  0
 63 60  1  0
 64 65  2  0
 65 84  1  0
 66 65  1  0
 66 69  1  0
 67 68  1  0
 67 64  1  0
 68 66  2  0
 69 70  1  0
 70 71  2  0
 72 75  1  0
 72 71  1  0
 73 72  2  0
 74 73  1  0
 74 69  2  0
 75 76  1  0
 76 77  1  0
 77 78  2  0
 79 78  1  0
 79 83  1  0
 80 79  2  0
 81 76  2  0
 81 80  1  0
 82 81  1  0
 84 85  1  0
 85 88  1  0
 85 87  1  0
 86 84  2  0
 89 64  1  0
 89 90  1  0
 91 89  1  0
M  ISO  4   5 101   6 101  52 100  63 100
M  END
>  <TORSDO>  (92) 
F 21

>  <SCORE>  (92) 
-14.689

>  <name>  (92) 
91

>  <ligand_id>  (92) 
91

>  <original_smiles>  (92) 
[H]c1c([H])c([H])c2c(c1[H])C([H])([H])C([H])([H])C([H])([H])C2([H])N([H])C(=O)C1([H])N(C(=O)C([H])(N([H])C(=O)C([H])(N([H])C([H])([H])[H])C([H])([H])[H])C(C([H])([H])[H])(C([H])([H])[H])C([H])([H])[H])C([H])([H])c2c([H])c(OC([H])([H])C([H])(C([H])([H])[H])[N+]([H])(C([H])([H])C3([H])C([H])([H])N(C(=O)N4C([H])([H])C([H])([H])C([H])([H])C([H])(n5nc(-c6c([H])c([H])c(Oc7c([H])c([H])c(F)c([H])c7F)c([H])c6[H])c(C(=O)N([H])[H])c5N([H])[H])C4([H])[H])C3([H])[H])C([H])([H])C3([H])C([H])([H])C3([H])[H])c([H])c([H])c2C1([H])[H]

>  <smiles>  (92) 
[H]c1c([H])c([H])c2c(c1[H])C([H])([H])C([H])([H])C([H])([H])C2([H])N([H])C(=O)C1([H])N(C(=O)C([H])(N([H])C(=O)C([H])(N([H])C([H])([H])[H])C([H])([H])[H])C(C([H])([H])[H])(C([H])([H])[H])C([H])([H])[H])C([H])([H])c2c([H])c(OC([H])([H])C([H])(C([H])([H])[H])[N+]([H])(C([H])([H])C3([H])C([H])([H])N(C(=O)N4C([H])([H])C([H])([H])C([H])([H])C([H])(n5nc(-c6c([H])c([H])c(Oc7c([H])c([H])c(F)c([H])c7F)c([H])c6[H])c(C(=O)N([H])[H])c5N([H])[H])C4([H])[H])C3([H])[H])C([H])([H])C3([H])C([H])([H])C3([H])[H])c([H])c([H])c2C1([H])[H]

$$$$
92:0:0
     RDKit          3D

 92101  0  0  1  0  0  0  0  0999 V2000
  -31.7910  -24.4130   19.7950 C   0  0  0  0  0  3  0  0  0  0  0  0
  -32.1770  -23.0740   19.7670 C   0  0  0  0  0  3  0  0  0  0  0  0
  -29.5330  -23.8070   20.0690 C   0  0  0  0  0  0  0  0  0  0  0  0
  -29.9400  -22.3300   20.0450 C   0  0  0  0  0  0  0  0  0  0  0  0
  -29.2750  -18.5000   19.0260 C   0  0  0  0  0  2  0  0  0  0  0  0
  -29.5370  -18.5620   21.3630 C   0  0  0  0  0  2  0  0  0  0  0  0
  -29.5510  -20.0920   18.9430 C   0  0  0  0  0  2  0  0  0  0  0  0
  -29.8150  -20.1530   21.3020 C   0  0  0  0  0  2  0  0  0  0  0  0
  -30.0200  -17.6700   20.1500 C   0  0  0  0  0  3  0  0  0  0  0  0
  -30.5020  -24.7570   19.9420 N   0  0  0  0  0  0  0  0  0  0  0  0
  -31.2740  -22.0860   19.8910 N   0  0  0  0  0  0  0  0  0  0  0  0
  -29.3050  -20.9820   20.1440 N   0  0  0  0  0  0  0  0  0  0  0  0
  -30.5640  -14.9570   19.9780 C   0  0  0  0  0  0  0  0  0  0  0  0
  -30.3820  -12.6520   18.9590 C   0  0  0  0  0  2  0  0  0  0  0  0
  -29.3680  -12.6710   17.7910 C   0  0  0  0  0  2  0  0  0  0  0  0
  -27.9350  -12.4480   18.3100 C   0  0  0  0  0  2  0  0  0  0  0  0
  -27.6100  -13.3180   19.5520 C   0  0  0  0  0  3  0  0  0  0  0  0
  -28.7390  -13.2730   20.6040 C   0  0  0  0  0  2  0  0  0  0  0  0
  -29.9710  -13.7010   19.9300 N   0  0  0  0  0  0  0  0  0  0  0  0
  -31.7410  -15.0540   19.6150 O   0  0  0  0  0  0  0  0  0  0  0  0
  -29.7770  -16.1100   20.2270 N   0  0  0  0  0  0  0  0  0  0  0  0
  -28.8280  -15.8670   20.4740 H   0  0  0  0  0  0  0  0  0  0  0  0
  -25.2750  -13.8590   20.4530 C   0  0  0  0  0  0  0  0  0  0  0  0
  -24.2420  -13.0650   20.8680 C   0  0  0  0  0  0  0  0  0  0  0  0
  -24.7140  -11.7200   20.7730 C   0  0  0  0  0  0  0  0  0  0  0  0
  -26.3070  -12.9960   20.1240 N   0  0  0  0  0  0  0  0  0  0  0  0
  -25.9830  -11.7030   20.3830 N   0  0  0  0  0  0  0  0  0  0  0  0
  -24.0100  -10.4460   20.9740 C   0  0  0  0  0  0  0  0  0  0  0  0
  -24.4670   -9.4870   21.9040 C   0  0  0  0  0  3  0  0  0  0  0  0
  -23.7600   -8.2800   22.0920 C   0  0  0  0  0  3  0  0  0  0  0  0
  -22.5830   -8.0220   21.3510 C   0  0  0  0  0  0  0  0  0  0  0  0
  -22.1450   -8.9700   20.4100 C   0  0  0  0  0  3  0  0  0  0  0  0
  -22.8520  -10.1690   20.2190 C   0  0  0  0  0  3  0  0  0  0  0  0
  -21.8460   -6.8660   21.4500 O   0  0  0  0  0  0  0  0  0  0  0  0
  -21.7710   -6.1590   22.6230 C   0  0  0  0  0  0  0  0  0  0  0  0
  -21.2790   -6.7380   23.8120 C   0  0  0  0  0  3  0  0  0  0  0  0
  -21.1530   -5.9550   24.9770 C   0  0  0  0  0  3  0  0  0  0  0  0
  -21.5100   -4.5930   24.9530 C   0  0  0  0  0  0  0  0  0  0  0  0
  -21.9940   -4.0140   23.7680 C   0  0  0  0  0  3  0  0  0  0  0  0
  -22.1210   -4.7940   22.6050 C   0  0  0  0  0  0  0  0  0  0  0  0
  -22.5700   -4.2240   21.4600 F   0  0  0  0  0  0  0  0  0  0  0  0
  -21.3810   -3.8390   26.0690 F   0  0  0  0  0  0  0  0  0  0  0  0
  -22.8600  -13.5220   21.2350 C   0  0  0  0  0  0  0  0  0  0  0  0
  -22.1920  -12.8020   22.1290 N   0  0  0  0  0  0  0  0  0  0  0  0
  -22.3830  -14.5530   20.7630 O   0  0  0  0  0  0  0  0  0  0  0  0
  -22.5930  -11.9690   22.5330 H   0  0  0  0  0  0  0  0  0  0  0  0
  -21.2670  -13.0900   22.4150 H   0  0  0  0  0  0  0  0  0  0  0  0
  -25.4140  -15.2350   20.3000 N   0  0  0  0  0  0  0  0  0  0  0  0
  -24.6440  -15.8730   20.4720 H   0  0  0  0  0  0  0  0  0  0  0  0
  -26.2190  -15.6910   19.8900 H   0  0  0  0  0  0  0  0  0  0  0  0
  -28.1820  -24.7060   20.1770 C   0  0  0  0  0  2  0  0  0  0  0  0
  -28.3220  -26.2630   20.2170 O   0  0  0  0  0  0  0  0  0  0  0  0
  -24.6700  -31.8710   23.2680 C   0  0  0  0  0  0  0  0  0  0  0  0
  -27.2290  -27.1940   20.1910 C   0  0  0  0  0  0  0  0  0  0  0  0
  -23.4570  -30.4880   21.6260 C   0  0  0  0  0  3  0  0  0  0  0  0
  -24.8930  -28.9180   20.1860 C   0  0  0  0  0  0  0  0  0  0  0  0
  -26.0070  -30.7580   21.4440 C   0  0  0  0  0  2  0  0  0  0  0  0
  -26.0750  -29.3710   20.7850 C   0  0  0  0  0  0  0  0  0  0  0  0
  -27.2430  -28.5260   20.7650 C   0  0  0  0  0  3  0  0  0  0  0  0
  -26.0180  -26.8280   19.5670 C   0  0  0  0  0  3  0  0  0  0  0  0
  -24.8760  -27.6610   19.5620 C   0  0  0  0  0  3  0  0  0  0  0  0
  -23.6670  -29.8160   20.2430 C   0  0  0  0  0  2  0  0  0  0  0  0
  -24.7320  -31.0600   22.1690 N   0  0  0  0  0  0  0  0  0  0  0  0
  -23.5880  -32.1540   23.8050 O   0  0  0  0  0  0  0  0  0  0  0  0
  -22.7830  -29.4770   22.5880 C   0  0  0  0  0  0  0  0  0  0  0  0
  -21.4550  -29.3030   22.4600 N   0  0  0  0  0  0  0  0  0  0  0  0
  -23.4570  -28.8500   23.4090 O   0  0  0  0  0  0  0  0  0  0  0  0
  -20.9680  -29.8610   21.7730 H   0  0  0  0  0  0  0  0  0  0  0  0
  -18.0780  -28.0920   22.9540 C   0  0  0  0  0  0  0  0  0  0  0  0
  -20.6350  -28.3620   23.2270 C   0  0  0  0  0  3  0  0  0  0  0  0
  -20.7420  -26.9320   22.6520 C   0  0  0  0  0  2  0  0  0  0  0  0
  -19.6440  -26.6070   21.6340 C   0  0  0  0  0  2  0  0  0  0  0  0
  -18.2600  -26.7450   22.2750 C   0  0  0  0  0  2  0  0  0  0  0  0
  -19.1930  -28.8590   23.3870 C   0  0  0  0  0  0  0  0  0  0  0  0
  -18.9670  -30.1190   23.9830 C   0  0  0  0  0  3  0  0  0  0  0  0
  -17.6590  -30.6130   24.1490 C   0  0  0  0  0  3  0  0  0  0  0  0
  -16.5590  -29.8440   23.7310 C   0  0  0  0  0  3  0  0  0  0  0  0
  -16.7690  -28.5860   23.1390 C   0  0  0  0  0  3  0  0  0  0  0  0
  -25.9530  -32.4990   23.8930 C   0  0  0  0  0  3  0  0  0  0  0  0
  -25.6460  -33.8960   24.2390 N   0  0  0  0  0  0  0  0  0  0  0  0
  -25.9470  -34.9560   23.4760 C   0  0  0  0  0  0  0  0  0  0  0  0
  -26.5800  -34.8600   22.4210 O   0  0  0  0  0  0  0  0  0  0  0  0
  -25.0800  -34.0440   25.0600 H   0  0  0  0  0  0  0  0  0  0  0  0
  -24.1860  -36.7350   23.2190 C   0  0  0  0  0  1  0  0  0  0  0  0
  -25.4740  -36.3420   23.9600 C   0  0  0  0  0  3  0  0  0  0  0  0
  -27.6400  -37.2530   24.6750 C   0  0  0  0  0  1  0  0  0  0  0  0
  -26.4890  -37.4040   23.7880 N   0  0  0  0  0  0  0  0  0  0  0  0
  -26.0820  -38.3210   23.9490 H   0  0  0  0  0  0  0  0  0  0  0  0
  -26.4690  -31.7190   25.1660 C   0  0  1  0  0  0  0  0  0  0  0  0
  -25.3760  -31.4810   26.2350 C   0  0  0  0  0  1  0  0  0  0  0  0
  -27.0450  -30.3400   24.7690 C   0  0  0  0  0  1  0  0  0  0  0  0
  -27.6240  -32.5060   25.8300 C   0  0  0  0  0  1  0  0  0  0  0  0
  1 10  1  0
  2  1  2  0
  2 11  1  0
  3 51  1  0
  4  3  1  0
  4 12  1  0
  5  9  1  0
  7  5  1  0
  7 12  1  0
  8  6  1  0
  9 21  1  0
  9  6  1  0
 10  3  2  0
 11  4  2  0
 12  8  1  0
 13 21  1  0
 14 19  1  0
 15 16  1  0
 15 14  1  0
 17 16  1  0
 17 26  1  0
 17 18  1  0
 19 13  1  0
 19 18  1  0
 20 13  2  0
 21 22  1  0
 23 24  2  0
 24 43  1  0
 25 24  1  0
 25 28  1  0
 26 27  1  0
 26 23  1  0
 27 25  2  0
 28 29  1  0
 29 30  2  0
 31 34  1  0
 31 30  1  0
 32 31  2  0
 33 32  1  0
 33 28  2  0
 34 35  1  0
 35 36  1  0
 36 37  2  0
 38 37  1  0
 38 42  1  0
 39 38  2  0
 40 35  2  0
 40 39  1  0
 41 40  1  0
 43 44  1  0
 44 47  1  0
 44 46  1  0
 45 43  2  0
 48 23  1  0
 48 49  1  0
 50 48  1  0
 51 52  1  0
 53 64  2  0
 54 52  1  0
 54 59  1  0
 55 63  1  0
 55 65  1  0
 56 62  1  0
 56 58  1  0
 57 63  1  0
 58 57  1  0
 59 58  2  0
 60 54  2  0
 61 60  1  0
 61 56  2  0
 62 55  1  0
 63 53  1  0
 65 67  2  0
 66 65  1  0
 68 66  1  0
 69 78  2  0
 69 74  1  0
 70 66  1  0
 70 74  1  0
 71 70  1  0
 72 73  1  0
 72 71  1  0
 73 69  1  0
 74 75  2  0
 75 76  1  0
 77 76  2  0
 78 77  1  0
 79 53  1  0
 79 80  1  0
 79 89  1  0
 80 83  1  0
 81 85  1  0
 81 80  1  0
 82 81  2  0
 85 84  1  0
 87 88  1  0
 87 85  1  0
 87 86  1  0
 89 92  1  1
 89 90  1  0
 91 89  1  0
M  ISO  4  13 100  21 100  51 101  52 101
M  END
>  <TORSDO>  (93) 
F 17

>  <SCORE>  (93) 
-14.580

>  <name>  (93) 
92

>  <ligand_id>  (93) 
92

>  <original_smiles>  (93) 
[H]c1nc(N2C([H])([H])C([H])([H])C([H])(N([H])C(=O)N3C([H])([H])C([H])([H])C([H])([H])C([H])(n4nc(-c5c([H])c([H])c(Oc6c([H])c([H])c(F)c([H])c6F)c([H])c5[H])c(C(=O)N([H])[H])c4N([H])[H])C3([H])[H])C([H])([H])C2([H])[H])c(C([H])([H])Oc2c([H])c([H])c3c(c2[H])C([H])([H])N(C(=O)C([H])(N([H])C(=O)C([H])(N([H])C([H])([H])[H])C([H])([H])[H])C(C([H])([H])[H])(C([H])([H])[H])C([H])([H])[H])C([H])(C(=O)N([H])C2([H])c4c([H])c([H])c([H])c([H])c4C([H])([H])C([H])([H])C2([H])[H])C3([H])[H])nc1[H]

>  <smiles>  (93) 
[H]c1nc(N2C([H])([H])C([H])([H])C([H])(N([H])C(=O)N3C([H])([H])C([H])([H])C([H])([H])C([H])(n4nc(-c5c([H])c([H])c(Oc6c([H])c([H])c(F)c([H])c6F)c([H])c5[H])c(C(=O)N([H])[H])c4N([H])[H])C3([H])[H])C([H])([H])C2([H])[H])c(C([H])([H])Oc2c([H])c([H])c3c(c2[H])C([H])([H])N(C(=O)C([H])(N([H])C(=O)C([H])(N([H])C([H])([H])[H])C([H])([H])[H])C(C([H])([H])[H])(C([H])([H])[H])C([H])([H])[H])C([H])(C(=O)N([H])C2([H])c4c([H])c([H])c([H])c([H])c4C([H])([H])C([H])([H])C2([H])[H])C3([H])[H])nc1[H]

$$$$
93:0:0
     RDKit          3D

 86 93  0  0  1  0  0  0  0  0999 V2000
  -30.2530  -16.2710   20.0440 C   0  0  0  0  0  0  0  0  0  0  0  0
  -30.4620  -13.5640   19.3900 C   0  0  0  0  0  2  0  0  0  0  0  0
  -29.6420  -12.8760   18.2440 C   0  0  0  0  0  2  0  0  0  0  0  0
  -28.2540  -12.4450   18.7250 C   0  0  0  0  0  2  0  0  0  0  0  0
  -27.6690  -13.5200   19.6580 C   0  0  0  0  0  3  0  0  0  0  0  0
  -28.6540  -14.0830   20.7290 C   0  0  0  0  0  2  0  0  0  0  0  0
  -29.7570  -14.8230   20.0220 N   0  0  0  0  0  0  0  0  0  0  0  0
  -31.4850  -16.0800   19.8610 O   0  0  0  0  0  0  0  0  0  0  0  0
  -29.4910  -19.3200   17.7840 C   0  0  0  0  0  2  0  0  0  0  0  0
  -30.7810  -19.6640   18.4630 C   0  0  0  0  0  2  0  0  0  0  0  0
  -29.2520  -20.3630   21.2810 C   0  0  0  0  0  2  0  0  0  0  0  0
  -29.2440  -18.6640   21.3070 C   0  0  0  0  0  2  0  0  0  0  0  0
  -29.5350  -19.4330   19.2950 C   0  0  1  0  0  0  0  0  0  0  0  0
  -28.7720  -21.1010   19.9420 C   0  0  0  0  0  3  0  0  0  0  0  0
  -27.2590  -20.8470   19.8510 C   0  0  0  0  0  1  0  0  0  0  0  0
  -29.5720  -17.8160   20.0650 N   0  0  0  0  0  0  0  0  0  0  0  0
  -25.3250  -14.0560   20.4280 C   0  0  0  0  0  0  0  0  0  0  0  0
  -24.2540  -13.2920   20.7900 C   0  0  0  0  0  0  0  0  0  0  0  0
  -24.7040  -11.9340   20.7600 C   0  0  0  0  0  0  0  0  0  0  0  0
  -26.3580  -13.1740   20.1900 N   0  0  0  0  0  0  0  0  0  0  0  0
  -26.0000  -11.8860   20.4510 N   0  0  0  0  0  0  0  0  0  0  0  0
  -23.9490  -10.6850   20.9500 C   0  0  0  0  0  0  0  0  0  0  0  0
  -24.3440   -9.7180   21.9000 C   0  0  0  0  0  3  0  0  0  0  0  0
  -23.5850   -8.5410   22.0840 C   0  0  0  0  0  3  0  0  0  0  0  0
  -22.4150   -8.3220   21.3160 C   0  0  0  0  0  0  0  0  0  0  0  0
  -22.0390   -9.2780   20.3560 C   0  0  0  0  0  3  0  0  0  0  0  0
  -22.7990  -10.4460   20.1720 C   0  0  0  0  0  3  0  0  0  0  0  0
  -21.6310   -7.1960   21.4060 O   0  0  0  0  0  0  0  0  0  0  0  0
  -21.5360   -6.4760   22.5700 C   0  0  0  0  0  0  0  0  0  0  0  0
  -21.0700   -7.0570   23.7700 C   0  0  0  0  0  3  0  0  0  0  0  0
  -20.9230   -6.2640   24.9250 C   0  0  0  0  0  3  0  0  0  0  0  0
  -21.2310   -4.8900   24.8820 C   0  0  0  0  0  0  0  0  0  0  0  0
  -21.6880   -4.3090   23.6860 C   0  0  0  0  0  3  0  0  0  0  0  0
  -21.8380   -5.1000   22.5330 C   0  0  0  0  0  0  0  0  0  0  0  0
  -22.2580   -4.5300   21.3790 F   0  0  0  0  0  0  0  0  0  0  0  0
  -21.0820   -4.1260   25.9890 F   0  0  0  0  0  0  0  0  0  0  0  0
  -22.8630  -13.7940   21.0460 C   0  0  0  0  0  0  0  0  0  0  0  0
  -22.1240  -13.1270   21.9220 N   0  0  0  0  0  0  0  0  0  0  0  0
  -22.4460  -14.8170   20.5030 O   0  0  0  0  0  0  0  0  0  0  0  0
  -22.4760  -12.3010   22.3820 H   0  0  0  0  0  0  0  0  0  0  0  0
  -21.1910  -13.4490   22.1400 H   0  0  0  0  0  0  0  0  0  0  0  0
  -25.5040  -15.4240   20.2460 N   0  0  0  0  0  0  0  0  0  0  0  0
  -24.7470  -16.0890   20.3580 H   0  0  0  0  0  0  0  0  0  0  0  0
  -26.3650  -15.8520   19.9300 H   0  0  0  0  0  0  0  0  0  0  0  0
  -28.6950  -23.2300   19.5040 C   0  0  0  0  0 15  0  0  0  0  0  0
  -28.4010  -25.1290   19.8470 O   0  0  0  0  0  1  0  0  0  0  0  0
  -24.7260  -31.6570   22.8750 C   0  0  0  0  0  0  0  0  0  0  0  0
  -27.4210  -26.4620   19.7600 C   0  0  0  0  0  0  0  0  0  0  0  0
  -23.5920  -30.2410   21.2210 C   0  0  0  0  0  3  0  0  0  0  0  0
  -25.0950  -28.6190   19.7680 C   0  0  0  0  0  0  0  0  0  0  0  0
  -26.1770  -30.3890   21.1180 C   0  0  0  0  0  2  0  0  0  0  0  0
  -26.2870  -28.9390   20.4250 C   0  0  0  0  0  0  0  0  0  0  0  0
  -27.4070  -27.8960   20.3890 C   0  0  0  0  0  3  0  0  0  0  0  0
  -26.1840  -26.4450   19.0350 C   0  0  0  0  0  3  0  0  0  0  0  0
  -25.1010  -27.4050   19.0480 C   0  0  0  0  0  3  0  0  0  0  0  0
  -23.8630  -29.5580   19.8420 C   0  0  0  0  0  2  0  0  0  0  0  0
  -24.8590  -30.8050   21.7900 N   0  0  0  0  0  0  0  0  0  0  0  0
  -23.6210  -31.9150   23.3860 O   0  0  0  0  0  0  0  0  0  0  0  0
  -22.8920  -29.2430   22.1880 C   0  0  0  0  0  0  0  0  0  0  0  0
  -21.5580  -29.0740   22.0910 N   0  0  0  0  0  0  0  0  0  0  0  0
  -23.5700  -28.6140   23.0050 O   0  0  0  0  0  0  0  0  0  0  0  0
  -21.0540  -29.6320   21.4170 H   0  0  0  0  0  0  0  0  0  0  0  0
  -18.2010  -27.8020   22.7070 C   0  0  0  0  0  0  0  0  0  0  0  0
  -20.7690  -28.0940   22.8550 C   0  0  0  0  0  3  0  0  0  0  0  0
  -20.8550  -26.6910   22.2100 C   0  0  0  0  0  2  0  0  0  0  0  0
  -19.7100  -26.4070   21.2320 C   0  0  0  0  0  2  0  0  0  0  0  0
  -18.3590  -26.4970   21.9470 C   0  0  0  0  0  2  0  0  0  0  0  0
  -19.3310  -28.5610   23.1190 C   0  0  0  0  0  0  0  0  0  0  0  0
  -19.1220  -29.7790   23.8010 C   0  0  0  0  0  3  0  0  0  0  0  0
  -17.8190  -30.2430   24.0690 C   0  0  0  0  0  3  0  0  0  0  0  0
  -16.7060  -29.4830   23.6670 C   0  0  0  0  0  3  0  0  0  0  0  0
  -16.8980  -28.2640   22.9930 C   0  0  0  0  0  3  0  0  0  0  0  0
  -25.9530  -32.3600   23.5330 C   0  0  0  0  0  3  0  0  0  0  0  0
  -25.5470  -33.7170   23.9660 N   0  0  0  0  0  0  0  0  0  0  0  0
  -25.7930  -34.8550   23.3010 C   0  0  0  0  0  0  0  0  0  0  0  0
  -26.4330  -34.8780   22.2470 O   0  0  0  0  0  0  0  0  0  0  0  0
  -24.9690  -33.7660   24.7910 H   0  0  0  0  0  0  0  0  0  0  0  0
  -23.9480  -36.5730   23.1710 C   0  0  0  0  0  1  0  0  0  0  0  0
  -25.2470  -36.1750   23.8910 C   0  0  0  0  0  3  0  0  0  0  0  0
  -27.3560  -37.1400   24.7080 C   0  0  0  0  0  1  0  0  0  0  0  0
  -26.2080  -37.3000   23.8200 N   0  0  0  0  0  0  0  0  0  0  0  0
  -25.7510  -38.1780   24.0480 H   0  0  0  0  0  0  0  0  0  0  0  0
  -26.5260  -31.5680   24.7750 C   0  0  1  0  0  0  0  0  0  0  0  0
  -25.4620  -31.2330   25.8470 C   0  0  0  0  0  1  0  0  0  0  0  0
  -27.1750  -30.2370   24.3390 C   0  0  0  0  0  1  0  0  0  0  0  0
  -27.6450  -32.3950   25.4540 C   0  0  0  0  0  1  0  0  0  0  0  0
  1 16  1  0
  2  7  1  0
  3  4  1  0
  3  2  1  0
  5  4  1  0
  5 20  1  0
  5  6  1  0
  7  1  1  0
  7  6  1  0
  8  1  2  0
  9 10  1  0
 13  9  1  6
 10 13  1  0
 11 12  1  0
 13 14  1  0
 13 16  1  0
 14 15  1  0
 14 11  1  0
 16 12  1  0
 17 18  2  0
 18 37  1  0
 19 18  1  0
 19 22  1  0
 20 17  1  0
 20 21  1  0
 21 19  2  0
 22 23  1  0
 23 24  2  0
 25 28  1  0
 25 24  1  0
 26 25  2  0
 27 26  1  0
 27 22  2  0
 28 29  1  0
 29 30  1  0
 30 31  2  0
 32 31  1  0
 32 36  1  0
 33 32  2  0
 34 29  2  0
 34 33  1  0
 35 34  1  0
 37 38  1  0
 38 41  1  0
 38 40  1  0
 39 37  2  0
 42 43  1  0
 42 17  1  0
 44 42  1  0
 47 58  2  0
 48 46  1  0
 48 53  1  0
 49 57  1  0
 49 59  1  0
 50 56  1  0
 50 52  1  0
 51 57  1  0
 52 51  1  0
 53 52  2  0
 54 55  1  0
 54 48  2  0
 55 50  2  0
 56 49  1  0
 57 47  1  0
 59 61  2  0
 60 59  1  0
 62 60  1  0
 63 72  2  0
 63 68  1  0
 64 60  1  0
 64 68  1  0
 65 64  1  0
 66 67  1  0
 66 65  1  0
 67 63  1  0
 68 69  2  0
 69 70  1  0
 71 70  2  0
 72 71  1  0
 73 47  1  0
 73 74  1  0
 73 83  1  0
 74 77  1  0
 75 79  1  0
 75 74  1  0
 76 75  2  0
 79 78  1  0
 81 79  1  0
 81 82  1  0
 81 80  1  0
 83 86  1  1
 83 84  1  0
 85 83  1  0
M  ISO  4   1 100  16 100  45 101  46 101
M  END
>  <TORSDO>  (94) 
F 16

>  <SCORE>  (94) 
-15.265

>  <name>  (94) 
93

>  <ligand_id>  (94) 
93

>  <original_smiles>  (94) 
[H]c1c([H])c([H])c2c(c1[H])C([H])([H])C([H])([H])C([H])([H])C2([H])N([H])C(=O)C1([H])N(C(=O)C([H])(N([H])C(=O)C([H])(N([H])C([H])([H])[H])C([H])([H])[H])C(C([H])([H])[H])(C([H])([H])[H])C([H])([H])[H])C([H])([H])c2c([H])c(OC([H])([H])C3(C([H])([H])[H])C([H])([H])C([H])([H])N(C(=O)N4C([H])([H])C([H])([H])C([H])([H])C([H])(n5nc(-c6c([H])c([H])c(Oc7c([H])c([H])c(F)c([H])c7F)c([H])c6[H])c(C(=O)N([H])[H])c5N([H])[H])C4([H])[H])C34C([H])([H])C4([H])[H])c([H])c([H])c2C1([H])[H]

>  <smiles>  (94) 
[H]c1c([H])c([H])c2c(c1[H])C([H])([H])C([H])([H])C([H])([H])C2([H])N([H])C(=O)C1([H])N(C(=O)C([H])(N([H])C(=O)C([H])(N([H])C([H])([H])[H])C([H])([H])[H])C(C([H])([H])[H])(C([H])([H])[H])C([H])([H])[H])C([H])([H])c2c([H])c(OC([H])([H])C3(C([H])([H])[H])C([H])([H])C([H])([H])N(C(=O)N4C([H])([H])C([H])([H])C([H])([H])C([H])(n5nc(-c6c([H])c([H])c(Oc7c([H])c([H])c(F)c([H])c7F)c([H])c6[H])c(C(=O)N([H])[H])c5N([H])[H])C4([H])[H])C34C([H])([H])C4([H])[H])c([H])c([H])c2C1([H])[H]

$$$$
94:0:0
     RDKit          3D

 89 97  0  0  1  0  0  0  0  0999 V2000
  -30.0410  -20.0880   19.0680 C   0  0  0  0  0  3  0  0  0  0  0  0
  -29.8420  -19.2880   20.2490 C   0  0  0  0  0  0  0  0  0  0  0  0
  -29.0140  -21.3560   21.1830 C   0  0  0  0  0  0  0  0  0  0  0  0
  -29.2680  -22.1640   20.0090 C   0  0  0  0  0  0  0  0  0  0  0  0
  -28.4830  -22.0020   22.4460 C   0  0  0  0  0  1  0  0  0  0  0  0
  -29.7700  -21.4480   18.9490 N   0  0  0  0  0  0  0  0  0  0  0  0
  -29.2920  -19.9880   21.2980 N   0  0  0  0  0  0  0  0  0  0  0  0
  -29.3450  -23.8110   19.9870 C   0  0  0  0  0  3  0  0  0  0  0  0
  -28.2280  -24.9300   19.4760 C   0  0  0  0  0  3  0  0  0  0  0  0
  -28.3950  -26.4580   19.6580 O   0  0  0  0  0  0  0  0  0  0  0  0
  -24.5780  -31.7320   23.0350 C   0  0  0  0  0  0  0  0  0  0  0  0
  -27.2790  -27.3580   19.6650 C   0  0  0  0  0  0  0  0  0  0  0  0
  -23.3910  -30.3700   21.3570 C   0  0  0  0  0  3  0  0  0  0  0  0
  -24.8640  -28.9550   19.8010 C   0  0  0  0  0  0  0  0  0  0  0  0
  -25.9180  -30.7820   21.1260 C   0  0  0  0  0  2  0  0  0  0  0  0
  -26.0380  -29.4350   20.3970 C   0  0  0  0  0  0  0  0  0  0  0  0
  -27.2450  -28.6530   20.3120 C   0  0  0  0  0  3  0  0  0  0  0  0
  -26.0760  -26.9710   19.0340 C   0  0  0  0  0  3  0  0  0  0  0  0
  -24.8940  -27.7370   19.1050 C   0  0  0  0  0  3  0  0  0  0  0  0
  -23.5960  -29.7810   19.9360 C   0  0  0  0  0  2  0  0  0  0  0  0
  -24.6500  -30.9800   21.8940 N   0  0  0  0  0  0  0  0  0  0  0  0
  -23.4980  -31.9320   23.6130 O   0  0  0  0  0  0  0  0  0  0  0  0
  -22.7970  -29.2770   22.2810 C   0  0  0  0  0  0  0  0  0  0  0  0
  -21.4780  -29.0370   22.1760 N   0  0  0  0  0  0  0  0  0  0  0  0
  -23.5250  -28.6510   23.0550 O   0  0  0  0  0  0  0  0  0  0  0  0
  -20.9450  -29.6000   21.5270 H   0  0  0  0  0  0  0  0  0  0  0  0
  -18.1860  -27.6150   22.6780 C   0  0  0  0  0  0  0  0  0  0  0  0
  -20.7290  -28.0200   22.9170 C   0  0  0  0  0  3  0  0  0  0  0  0
  -20.9050  -26.6230   22.2790 C   0  0  0  0  0  2  0  0  0  0  0  0
  -19.8060  -26.2780   21.2680 C   0  0  0  0  0  2  0  0  0  0  0  0
  -18.4300  -26.3100   21.9400 C   0  0  0  0  0  2  0  0  0  0  0  0
  -19.2640  -28.4250   23.1240 C   0  0  0  0  0  0  0  0  0  0  0  0
  -18.9790  -29.6430   23.7770 C   0  0  0  0  0  3  0  0  0  0  0  0
  -17.6490  -30.0540   23.9890 C   0  0  0  0  0  3  0  0  0  0  0  0
  -16.5860  -29.2430   23.5560 C   0  0  0  0  0  3  0  0  0  0  0  0
  -16.8550  -28.0240   22.9090 C   0  0  0  0  0  3  0  0  0  0  0  0
  -25.8450  -32.3940   23.6560 C   0  0  0  0  0  3  0  0  0  0  0  0
  -26.4260  -31.5900   24.8840 C   0  0  1  0  0  0  0  0  0  0  0  0
  -25.3740  -31.2650   25.9700 C   0  0  0  0  0  1  0  0  0  0  0  0
  -27.0500  -30.2540   24.4200 C   0  0  0  0  0  1  0  0  0  0  0  0
  -27.5650  -32.4000   25.5480 C   0  0  0  0  0  1  0  0  0  0  0  0
  -25.4820  -33.7600   24.0640 N   0  0  0  0  0  0  0  0  0  0  0  0
  -25.7320  -34.8640   23.3460 C   0  0  0  0  0  0  0  0  0  0  0  0
  -26.3590  -34.8410   22.2840 O   0  0  0  0  0  0  0  0  0  0  0  0
  -24.9150  -33.8470   24.8950 H   0  0  0  0  0  0  0  0  0  0  0  0
  -23.8990  -36.5800   23.1660 C   0  0  0  0  0  1  0  0  0  0  0  0
  -25.2020  -36.2050   23.8910 C   0  0  0  0  0  3  0  0  0  0  0  0
  -27.3320  -37.1670   24.6480 C   0  0  0  0  0  1  0  0  0  0  0  0
  -26.1740  -37.3160   23.7700 N   0  0  0  0  0  0  0  0  0  0  0  0
  -25.7310  -38.2070   23.9770 H   0  0  0  0  0  0  0  0  0  0  0  0
  -30.5910  -17.8370   20.4510 C   0  0  0  0  0  2  0  0  0  0  0  0
  -30.7810  -15.1800   20.5620 C   0  0  0  0  0  0  0  0  0  0  0  0
  -30.6840  -12.8070   19.7180 C   0  0  0  0  0  2  0  0  0  0  0  0
  -29.8300  -12.7310   18.4330 C   0  0  0  0  0  2  0  0  0  0  0  0
  -28.3420  -12.5440   18.7840 C   0  0  0  0  0  2  0  0  0  0  0  0
  -27.8690  -13.5110   19.9020 C   0  0  0  0  0  3  0  0  0  0  0  0
  -28.8550  -13.5720   21.0880 C   0  0  0  0  0  2  0  0  0  0  0  0
  -30.1640  -13.9370   20.5360 N   0  0  0  0  0  0  0  0  0  0  0  0
  -31.9960  -15.2190   20.3470 O   0  0  0  0  0  0  0  0  0  0  0  0
  -30.0400  -16.3830   20.6090 N   0  0  0  0  0  0  0  0  0  0  0  0
  -29.0440  -16.2970   20.7420 H   0  0  0  0  0  0  0  0  0  0  0  0
  -25.4670  -14.1140   20.5430 C   0  0  0  0  0  0  0  0  0  0  0  0
  -24.3750  -13.3480   20.8480 C   0  0  0  0  0  0  0  0  0  0  0  0
  -24.8210  -11.9910   20.8100 C   0  0  0  0  0  0  0  0  0  0  0  0
  -26.5060  -13.2250   20.3320 N   0  0  0  0  0  0  0  0  0  0  0  0
  -26.1240  -11.9410   20.5590 N   0  0  0  0  0  0  0  0  0  0  0  0
  -24.0670  -10.7370   20.9400 C   0  0  0  0  0  0  0  0  0  0  0  0
  -24.4520   -9.7340   21.8580 C   0  0  0  0  0  3  0  0  0  0  0  0
  -23.7000   -8.5470   21.9780 C   0  0  0  0  0  3  0  0  0  0  0  0
  -22.5470   -8.3530   21.1800 C   0  0  0  0  0  0  0  0  0  0  0  0
  -22.1810   -9.3440   20.2520 C   0  0  0  0  0  3  0  0  0  0  0  0
  -22.9340  -10.5240   20.1300 C   0  0  0  0  0  3  0  0  0  0  0  0
  -21.7700   -7.2210   21.2100 O   0  0  0  0  0  0  0  0  0  0  0  0
  -21.6840   -6.4370   22.3320 C   0  0  0  0  0  0  0  0  0  0  0  0
  -21.2380   -6.9510   23.5690 C   0  0  0  0  0  3  0  0  0  0  0  0
  -21.0980   -6.0950   24.6800 C   0  0  0  0  0  3  0  0  0  0  0  0
  -21.3930   -4.7250   24.5540 C   0  0  0  0  0  0  0  0  0  0  0  0
  -21.8320   -4.2080   23.3220 C   0  0  0  0  0  3  0  0  0  0  0  0
  -21.9730   -5.0620   22.2130 C   0  0  0  0  0  0  0  0  0  0  0  0
  -22.3760   -4.5560   21.0230 F   0  0  0  0  0  0  0  0  0  0  0  0
  -21.2520   -3.8990   25.6180 F   0  0  0  0  0  0  0  0  0  0  0  0
  -22.9740  -13.8430   21.0630 C   0  0  0  0  0  0  0  0  0  0  0  0
  -22.1990  -13.1460   21.8860 N   0  0  0  0  0  0  0  0  0  0  0  0
  -22.5770  -14.8810   20.5370 O   0  0  0  0  0  0  0  0  0  0  0  0
  -22.5340  -12.3060   22.3330 H   0  0  0  0  0  0  0  0  0  0  0  0
  -21.2570  -13.4590   22.0730 H   0  0  0  0  0  0  0  0  0  0  0  0
  -25.6550  -15.4860   20.4000 N   0  0  0  0  0  0  0  0  0  0  0  0
  -24.8860  -16.1420   20.4810 H   0  0  0  0  0  0  0  0  0  0  0  0
  -26.5140  -15.9210   20.0870 H   0  0  0  0  0  0  0  0  0  0  0  0
  1  2  1  0
  2 51  1  0
  2  7  2  0
  3  7  1  0
  3  5  1  0
  4  3  2  0
  6  1  2  0
  6  4  1  0
  8  4  1  0
  9 10  1  0
  9  8  2  0
 10 12  1  0
 11 22  2  0
 12 17  1  0
 13 21  1  0
 13 23  1  0
 14 20  1  0
 14 16  1  0
 15 21  1  0
 16 15  1  0
 17 16  2  0
 18 19  1  0
 18 12  2  0
 19 14  2  0
 20 13  1  0
 21 11  1  0
 23 25  2  0
 24 23  1  0
 26 24  1  0
 27 36  2  0
 27 32  1  0
 28 24  1  0
 28 32  1  0
 29 28  1  0
 30 31  1  0
 30 29  1  0
 31 27  1  0
 32 33  2  0
 33 34  1  0
 35 34  2  0
 36 35  1  0
 37 11  1  0
 37 42  1  0
 37 38  1  0
 38 41  1  1
 38 39  1  0
 40 38  1  0
 42 45  1  0
 43 47  1  0
 43 42  1  0
 44 43  2  0
 47 46  1  0
 49 47  1  0
 49 50  1  0
 49 48  1  0
 51 60  1  0
 52 60  1  0
 53 58  1  0
 54 55  1  0
 54 53  1  0
 56 55  1  0
 56 65  1  0
 56 57  1  0
 58 52  1  0
 58 57  1  0
 59 52  2  0
 60 61  1  0
 62 63  2  0
 63 82  1  0
 64 63  1  0
 64 67  1  0
 65 62  1  0
 65 66  1  0
 66 64  2  0
 67 68  1  0
 68 69  2  0
 70 73  1  0
 70 69  1  0
 71 70  2  0
 72 71  1  0
 72 67  2  0
 73 74  1  0
 74 75  1  0
 75 76  2  0
 77 76  1  0
 77 81  1  0
 78 77  2  0
 79 74  2  0
 79 78  1  0
 80 79  1  0
 82 83  1  0
 83 86  1  0
 83 85  1  0
 84 82  2  0
 87 88  1  0
 87 62  1  0
 89 87  1  0
M  ISO  4   9 101  10 101  52 100  60 100
M  END
>  <TORSDO>  (95) 
F 19

>  <SCORE>  (95) 
-13.138

>  <name>  (95) 
94

>  <ligand_id>  (95) 
94

>  <original_smiles>  (95) 
[H]c1nc(C([H])([H])C([H])([H])Oc2c([H])c([H])c3c(c2[H])C([H])([H])N(C(=O)C([H])(N([H])C(=O)C([H])(N([H])C([H])([H])[H])C([H])([H])[H])C(C([H])([H])[H])(C([H])([H])[H])C([H])([H])[H])C([H])(C(=O)N([H])C2([H])c4c([H])c([H])c([H])c([H])c4C([H])([H])C([H])([H])C2([H])[H])C3([H])[H])c(C([H])([H])[H])nc1C([H])([H])N([H])C(=O)N1C([H])([H])C([H])([H])C([H])([H])C([H])(n2nc(-c3c([H])c([H])c(Oc4c([H])c([H])c(F)c([H])c4F)c([H])c3[H])c(C(=O)N([H])[H])c2N([H])[H])C1([H])[H]

>  <smiles>  (95) 
[H]c1nc(C([H])([H])C([H])([H])Oc2c([H])c([H])c3c(c2[H])C([H])([H])N(C(=O)C([H])(N([H])C(=O)C([H])(N([H])C([H])([H])[H])C([H])([H])[H])C(C([H])([H])[H])(C([H])([H])[H])C([H])([H])[H])C([H])(C(=O)N([H])C2([H])c4c([H])c([H])c([H])c([H])c4C([H])([H])C([H])([H])C2([H])[H])C3([H])[H])c(C([H])([H])[H])nc1C([H])([H])N([H])C(=O)N1C([H])([H])C([H])([H])C([H])([H])C([H])(n2nc(-c3c([H])c([H])c(Oc4c([H])c([H])c(F)c([H])c4F)c([H])c3[H])c(C(=O)N([H])[H])c2N([H])[H])C1([H])[H]

$$$$
95:0:0
     RDKit          3D

 89 98  0  0  1  0  0  0  0  0999 V2000
  -30.5160  -15.1330   20.3760 C   0  0  0  0  0  0  0  0  0  0  0  0
  -30.4030  -12.7440   19.4660 C   0  0  0  0  0  2  0  0  0  0  0  0
  -29.4840  -12.6200   18.2270 C   0  0  0  0  0  2  0  0  0  0  0  0
  -28.0320  -12.3610   18.6660 C   0  0  0  0  0  2  0  0  0  0  0  0
  -27.5930  -13.3020   19.8180 C   0  0  0  0  0  3  0  0  0  0  0  0
  -28.6470  -13.4220   20.9380 C   0  0  0  0  0  2  0  0  0  0  0  0
  -29.8920  -13.8760   20.3010 N   0  0  0  0  0  0  0  0  0  0  0  0
  -31.7460  -15.1030   20.2300 O   0  0  0  0  0  0  0  0  0  0  0  0
  -28.8600  -18.5640   19.4480 C   0  0  0  0  0  0  0  0  0  0  0  0
  -29.5870  -19.0560   20.4970 C   0  0  0  0  0  0  0  0  0  0  0  0
  -28.2180  -20.7910   18.8780 C   0  0  0  0  0  0  0  0  0  0  0  0
  -28.8910  -21.4140   20.0000 C   0  0  0  0  0  0  0  0  0  0  0  0
  -28.9560  -16.9920   19.3570 C   0  0  0  0  0  3  0  0  0  0  0  0
  -30.2780  -17.7520   21.1330 C   0  0  0  0  0  3  0  0  0  0  0  0
  -27.5560  -21.6230   17.7910 C   0  0  0  0  0  1  0  0  0  0  0  0
  -28.1700  -19.4180   18.6340 N   0  0  0  0  0  0  0  0  0  0  0  0
  -29.6040  -20.4570   20.7960 N   0  0  0  0  0  0  0  0  0  0  0  0
  -29.8190  -16.4090   20.4640 N   0  0  0  0  0  0  0  0  0  0  0  0
  -25.2140  -13.8450   20.5710 C   0  0  0  0  0  0  0  0  0  0  0  0
  -24.1590  -13.0600   20.9350 C   0  0  0  0  0  0  0  0  0  0  0  0
  -24.6360  -11.7130   20.9000 C   0  0  0  0  0  0  0  0  0  0  0  0
  -26.2670  -12.9800   20.3250 N   0  0  0  0  0  0  0  0  0  0  0  0
  -25.9300  -11.6920   20.5970 N   0  0  0  0  0  0  0  0  0  0  0  0
  -23.9180  -10.4430   21.0800 C   0  0  0  0  0  0  0  0  0  0  0  0
  -24.3600   -9.4730   22.0070 C   0  0  0  0  0  3  0  0  0  0  0  0
  -23.6420   -8.2700   22.1790 C   0  0  0  0  0  3  0  0  0  0  0  0
  -22.4680   -8.0270   21.4280 C   0  0  0  0  0  0  0  0  0  0  0  0
  -22.0470   -8.9840   20.4880 C   0  0  0  0  0  3  0  0  0  0  0  0
  -22.7630  -10.1810   20.3120 C   0  0  0  0  0  3  0  0  0  0  0  0
  -21.7230   -6.8760   21.5090 O   0  0  0  0  0  0  0  0  0  0  0  0
  -21.6810   -6.1260   22.6560 C   0  0  0  0  0  0  0  0  0  0  0  0
  -21.2580   -6.6680   23.8900 C   0  0  0  0  0  3  0  0  0  0  0  0
  -21.1660   -5.8420   25.0280 C   0  0  0  0  0  3  0  0  0  0  0  0
  -21.4880   -4.4740   24.9330 C   0  0  0  0  0  0  0  0  0  0  0  0
  -21.9050   -3.9310   23.7040 C   0  0  0  0  0  3  0  0  0  0  0  0
  -21.9990   -4.7550   22.5690 C   0  0  0  0  0  0  0  0  0  0  0  0
  -22.3810   -4.2230   21.3820 F   0  0  0  0  0  0  0  0  0  0  0  0
  -21.3930   -3.6780   26.0230 F   0  0  0  0  0  0  0  0  0  0  0  0
  -22.7540  -13.5230   21.1970 C   0  0  0  0  0  0  0  0  0  0  0  0
  -22.0280  -12.8200   22.0600 N   0  0  0  0  0  0  0  0  0  0  0  0
  -22.3100  -14.5400   20.6660 O   0  0  0  0  0  0  0  0  0  0  0  0
  -22.4010  -12.0030   22.5230 H   0  0  0  0  0  0  0  0  0  0  0  0
  -21.0830  -13.1130   22.2690 H   0  0  0  0  0  0  0  0  0  0  0  0
  -25.3660  -15.2190   20.3990 N   0  0  0  0  0  0  0  0  0  0  0  0
  -24.5910  -15.8630   20.5190 H   0  0  0  0  0  0  0  0  0  0  0  0
  -26.2190  -15.6680   20.0990 H   0  0  0  0  0  0  0  0  0  0  0  0
  -29.0480  -23.1090   20.1960 C   0  0  0  0  0  3  0  0  0  0  0  0
  -27.9570  -24.4620   20.0450 C   0  0  0  0  0  3  0  0  0  0  0  0
  -28.2060  -26.0330   20.2880 O   0  0  0  0  0  0  0  0  0  0  0  0
  -24.6410  -31.9250   23.2600 C   0  0  0  0  0  0  0  0  0  0  0  0
  -27.1750  -27.0790   20.2510 C   0  0  0  0  0  0  0  0  0  0  0  0
  -23.4370  -30.5220   21.6340 C   0  0  0  0  0  3  0  0  0  0  0  0
  -24.8720  -28.9040   20.2290 C   0  0  0  0  0  0  0  0  0  0  0  0
  -26.0040  -30.7260   21.4880 C   0  0  0  0  0  2  0  0  0  0  0  0
  -26.0610  -29.3230   20.8380 C   0  0  0  0  0  0  0  0  0  0  0  0
  -27.2100  -28.4270   20.8280 C   0  0  0  0  0  3  0  0  0  0  0  0
  -25.9560  -26.7860   19.6060 C   0  0  0  0  0  3  0  0  0  0  0  0
  -24.8350  -27.6500   19.6010 C   0  0  0  0  0  3  0  0  0  0  0  0
  -23.6590  -29.8270   20.2660 C   0  0  0  0  0  2  0  0  0  0  0  0
  -24.7160  -31.0840   22.1800 N   0  0  0  0  0  0  0  0  0  0  0  0
  -23.5530  -32.2290   23.7720 O   0  0  0  0  0  0  0  0  0  0  0  0
  -22.7380  -29.5360   22.6030 C   0  0  0  0  0  0  0  0  0  0  0  0
  -21.4080  -29.3780   22.4660 N   0  0  0  0  0  0  0  0  0  0  0  0
  -23.3950  -28.9140   23.4420 O   0  0  0  0  0  0  0  0  0  0  0  0
  -20.9330  -29.9260   21.7620 H   0  0  0  0  0  0  0  0  0  0  0  0
  -18.0120  -28.2120   22.9700 C   0  0  0  0  0  0  0  0  0  0  0  0
  -20.5730  -28.4570   23.2440 C   0  0  0  0  0  3  0  0  0  0  0  0
  -20.6650  -27.0180   22.6850 C   0  0  0  0  0  2  0  0  0  0  0  0
  -19.5650  -26.6950   21.6690 C   0  0  0  0  0  2  0  0  0  0  0  0
  -18.1810  -26.8580   22.3020 C   0  0  0  0  0  2  0  0  0  0  0  0
  -19.1340  -28.9700   23.3960 C   0  0  0  0  0  0  0  0  0  0  0  0
  -18.9210  -30.2380   23.9800 C   0  0  0  0  0  3  0  0  0  0  0  0
  -17.6170  -30.7480   24.1380 C   0  0  0  0  0  3  0  0  0  0  0  0
  -16.5100  -29.9860   23.7260 C   0  0  0  0  0  3  0  0  0  0  0  0
  -16.7070  -28.7190   23.1490 C   0  0  0  0  0  3  0  0  0  0  0  0
  -25.9190  -32.5590   23.8900 C   0  0  0  0  0  3  0  0  0  0  0  0
  -25.6130  -33.9590   24.2230 N   0  0  0  0  0  0  0  0  0  0  0  0
  -25.9310  -35.0140   23.4600 C   0  0  0  0  0  0  0  0  0  0  0  0
  -26.5790  -34.9050   22.4170 O   0  0  0  0  0  0  0  0  0  0  0  0
  -25.0430  -34.1160   25.0410 H   0  0  0  0  0  0  0  0  0  0  0  0
  -24.1890  -36.8050   23.1460 C   0  0  0  0  0  1  0  0  0  0  0  0
  -25.4550  -36.4070   23.9230 C   0  0  0  0  0  3  0  0  0  0  0  0
  -27.6120  -37.3010   24.6870 C   0  0  0  0  0  1  0  0  0  0  0  0
  -26.4840  -37.4610   23.7730 N   0  0  0  0  0  0  0  0  0  0  0  0
  -26.0830  -38.3820   23.9220 H   0  0  0  0  0  0  0  0  0  0  0  0
  -26.4190  -31.7910   25.1770 C   0  0  1  0  0  0  0  0  0  0  0  0
  -25.3150  -31.5700   26.2380 C   0  0  0  0  0  1  0  0  0  0  0  0
  -26.9950  -30.4030   24.8070 C   0  0  0  0  0  1  0  0  0  0  0  0
  -27.5730  -32.5790   25.8430 C   0  0  0  0  0  1  0  0  0  0  0  0
  1 18  1  0
  2  7  1  0
  3  4  1  0
  3  2  1  0
  5  4  1  0
  5 22  1  0
  5  6  1  0
  7  1  1  0
  7  6  1  0
  8  1  2  0
  9 10  1  0
 10 17  1  0
 10 14  2  0
 11 12  1  0
 12 47  1  0
 12 17  2  0
 13  9  2  0
 13 18  1  0
 15 11  1  0
 16 11  2  0
 16  9  1  0
 18 14  1  0
 19 20  2  0
 20 39  1  0
 21 20  1  0
 21 24  1  0
 22 19  1  0
 22 23  1  0
 23 21  2  0
 24 25  1  0
 25 26  2  0
 27 30  1  0
 27 26  1  0
 28 27  2  0
 29 28  1  0
 29 24  2  0
 30 31  1  0
 31 32  1  0
 32 33  2  0
 34 33  1  0
 34 38  1  0
 35 34  2  0
 36 31  2  0
 36 35  1  0
 37 36  1  0
 39 40  1  0
 40 43  1  0
 40 42  1  0
 41 39  2  0
 44 45  1  0
 44 19  1  0
 46 44  1  0
 48 47  2  0
 48 49  1  0
 50 61  2  0
 51 49  1  0
 51 56  1  0
 52 60  1  0
 52 62  1  0
 53 59  1  0
 53 55  1  0
 54 60  1  0
 55 54  1  0
 56 55  2  0
 57 51  2  0
 58 57  1  0
 58 53  2  0
 59 52  1  0
 60 50  1  0
 62 64  2  0
 63 62  1  0
 65 63  1  0
 66 75  2  0
 66 71  1  0
 67 63  1  0
 67 71  1  0
 68 67  1  0
 69 70  1  0
 69 68  1  0
 70 66  1  0
 71 72  2  0
 72 73  1  0
 74 73  2  0
 75 74  1  0
 76 50  1  0
 76 77  1  0
 76 86  1  0
 77 80  1  0
 78 82  1  0
 78 77  1  0
 79 78  2  0
 82 81  1  0
 84 85  1  0
 84 82  1  0
 84 83  1  0
 86 89  1  1
 86 87  1  0
 88 86  1  0
M  ISO  4   1 100  18 100  48 101  49 101
M  END
>  <TORSDO>  (96) 
F 17

>  <SCORE>  (96) 
-16.344

>  <name>  (96) 
95

>  <ligand_id>  (96) 
95

>  <original_smiles>  (96) 
[H]c1c([H])c([H])c2c(c1[H])C([H])([H])C([H])([H])C([H])([H])C2([H])N([H])C(=O)C1([H])N(C(=O)C([H])(N([H])C(=O)C([H])(N([H])C([H])([H])[H])C([H])([H])[H])C(C([H])([H])[H])(C([H])([H])[H])C([H])([H])[H])C([H])([H])c2c([H])c(OC([H])([H])C([H])([H])c3nc4c(nc3C([H])([H])[H])C([H])([H])N(C(=O)N3C([H])([H])C([H])([H])C([H])([H])C([H])(n5nc(-c6c([H])c([H])c(Oc7c([H])c([H])c(F)c([H])c7F)c([H])c6[H])c(C(=O)N([H])[H])c5N([H])[H])C3([H])[H])C4([H])[H])c([H])c([H])c2C1([H])[H]

>  <smiles>  (96) 
[H]c1c([H])c([H])c2c(c1[H])C([H])([H])C([H])([H])C([H])([H])C2([H])N([H])C(=O)C1([H])N(C(=O)C([H])(N([H])C(=O)C([H])(N([H])C([H])([H])[H])C([H])([H])[H])C(C([H])([H])[H])(C([H])([H])[H])C([H])([H])[H])C([H])([H])c2c([H])c(OC([H])([H])C([H])([H])c3nc4c(nc3C([H])([H])[H])C([H])([H])N(C(=O)N3C([H])([H])C([H])([H])C([H])([H])C([H])(n5nc(-c6c([H])c([H])c(Oc7c([H])c([H])c(F)c([H])c7F)c([H])c6[H])c(C(=O)N([H])[H])c5N([H])[H])C3([H])[H])C4([H])[H])c([H])c([H])c2C1([H])[H]

$$$$
96:0:0
     RDKit          3D

 89 97  0  0  1  0  0  0  0  0999 V2000
  -29.6390  -21.4080   19.9430 C   0  0  0  0  0  2  0  0  0  0  0  0
  -27.4850  -21.5690   20.6770 C   0  0  0  0  0  2  0  0  0  0  0  0
  -29.3580  -19.8340   20.5400 C   0  0  0  0  0  3  0  0  0  0  0  0
  -28.6580  -22.6530   20.5750 C   0  0  1  0  0  0  0  0  0  0  0  0
  -29.1760  -22.9690   21.9900 C   0  0  0  0  0  1  0  0  0  0  0  0
  -27.9010  -20.0800   20.7340 N   0  0  0  0  0  4  0  0  0  0  0  0
  -27.3890  -19.5930   20.0160 H   0  0  0  0  0  0  0  0  0  0  0  0
  -27.6190  -19.6840   21.6160 H   0  0  0  0  0  0  0  0  0  0  0  0
  -29.9710  -18.2120   19.9890 C   0  0  0  0  0  2  0  0  0  0  0  0
  -30.4780  -15.3190   20.2360 C   0  0  0  0  0  0  0  0  0  0  0  0
  -30.4300  -12.8760   19.3590 C   0  0  0  0  0  2  0  0  0  0  0  0
  -29.5110  -12.6930   18.1240 C   0  0  0  0  0  2  0  0  0  0  0  0
  -28.0590  -12.4310   18.5610 C   0  0  0  0  0  2  0  0  0  0  0  0
  -27.6170  -13.3860   19.6970 C   0  0  0  0  0  3  0  0  0  0  0  0
  -28.6660  -13.5180   20.8240 C   0  0  0  0  0  2  0  0  0  0  0  0
  -29.9030  -14.0160   20.2000 N   0  0  0  0  0  0  0  0  0  0  0  0
  -31.6850  -15.3130   19.9540 O   0  0  0  0  0  0  0  0  0  0  0  0
  -29.7380  -16.5990   20.3840 N   0  0  0  0  0  0  0  0  0  0  0  0
  -28.7830  -16.4200   20.6600 H   0  0  0  0  0  0  0  0  0  0  0  0
  -25.2480  -13.9510   20.4480 C   0  0  0  0  0  0  0  0  0  0  0  0
  -24.1830  -13.1780   20.8150 C   0  0  0  0  0  0  0  0  0  0  0  0
  -24.6460  -11.8260   20.7820 C   0  0  0  0  0  0  0  0  0  0  0  0
  -26.2880  -13.0740   20.2030 N   0  0  0  0  0  0  0  0  0  0  0  0
  -25.9380  -11.7880   20.4730 N   0  0  0  0  0  0  0  0  0  0  0  0
  -23.9130  -10.5660   20.9690 C   0  0  0  0  0  0  0  0  0  0  0  0
  -24.3390   -9.5930   21.8990 C   0  0  0  0  0  3  0  0  0  0  0  0
  -23.6030   -8.4000   22.0750 C   0  0  0  0  0  3  0  0  0  0  0  0
  -22.4290   -8.1720   21.3200 C   0  0  0  0  0  0  0  0  0  0  0  0
  -22.0220   -9.1340   20.3790 C   0  0  0  0  0  3  0  0  0  0  0  0
  -22.7570  -10.3180   20.2000 C   0  0  0  0  0  3  0  0  0  0  0  0
  -21.6660   -7.0330   21.4060 O   0  0  0  0  0  0  0  0  0  0  0  0
  -21.6130   -6.2870   22.5560 C   0  0  0  0  0  0  0  0  0  0  0  0
  -21.1860   -6.8390   23.7830 C   0  0  0  0  0  3  0  0  0  0  0  0
  -21.0800   -6.0200   24.9250 C   0  0  0  0  0  3  0  0  0  0  0  0
  -21.3900   -4.6500   24.8400 C   0  0  0  0  0  0  0  0  0  0  0  0
  -21.8100   -4.0970   23.6170 C   0  0  0  0  0  3  0  0  0  0  0  0
  -21.9170   -4.9140   22.4780 C   0  0  0  0  0  0  0  0  0  0  0  0
  -22.3020   -4.3710   21.2980 F   0  0  0  0  0  0  0  0  0  0  0  0
  -21.2810   -3.8610   25.9350 F   0  0  0  0  0  0  0  0  0  0  0  0
  -22.7880  -13.6600   21.0790 C   0  0  0  0  0  0  0  0  0  0  0  0
  -22.0540  -12.9700   21.9450 N   0  0  0  0  0  0  0  0  0  0  0  0
  -22.3570  -14.6860   20.5540 O   0  0  0  0  0  0  0  0  0  0  0  0
  -22.4170  -12.1400   22.3910 H   0  0  0  0  0  0  0  0  0  0  0  0
  -21.1170  -13.2750   22.1640 H   0  0  0  0  0  0  0  0  0  0  0  0
  -25.4140  -15.3220   20.2690 N   0  0  0  0  0  0  0  0  0  0  0  0
  -24.6390  -15.9700   20.3630 H   0  0  0  0  0  0  0  0  0  0  0  0
  -26.2440  -15.7490   19.8820 H   0  0  0  0  0  0  0  0  0  0  0  0
  -28.1330  -24.2750   19.9350 C   0  0  0  0  0  2  0  0  0  0  0  0
  -28.2630  -25.8780   20.3270 O   0  0  0  0  0  0  0  0  0  0  0  0
  -24.6510  -31.8510   23.1950 C   0  0  0  0  0  0  0  0  0  0  0  0
  -27.2540  -26.9760   20.2100 C   0  0  0  0  0  0  0  0  0  0  0  0
  -23.4790  -30.4490   21.5470 C   0  0  0  0  0  3  0  0  0  0  0  0
  -24.9480  -28.8490   20.1370 C   0  0  0  0  0  0  0  0  0  0  0  0
  -26.0450  -30.6680   21.4270 C   0  0  0  0  0  2  0  0  0  0  0  0
  -26.1260  -29.2570   20.7730 C   0  0  0  0  0  0  0  0  0  0  0  0
  -27.2710  -28.3400   20.7890 C   0  0  0  0  0  3  0  0  0  0  0  0
  -26.0510  -26.7280   19.5100 C   0  0  0  0  0  3  0  0  0  0  0  0
  -24.9370  -27.6050   19.4840 C   0  0  0  0  0  3  0  0  0  0  0  0
  -23.7240  -29.7650   20.1730 C   0  0  0  0  0  2  0  0  0  0  0  0
  -24.7450  -31.0170   22.1100 N   0  0  0  0  0  0  0  0  0  0  0  0
  -23.5560  -32.1380   23.7050 O   0  0  0  0  0  0  0  0  0  0  0  0
  -22.7790  -29.4510   22.5070 C   0  0  0  0  0  0  0  0  0  0  0  0
  -21.4480  -29.2880   22.3750 N   0  0  0  0  0  0  0  0  0  0  0  0
  -23.4390  -28.8250   23.3390 O   0  0  0  0  0  0  0  0  0  0  0  0
  -20.9690  -29.8450   21.6810 H   0  0  0  0  0  0  0  0  0  0  0  0
  -18.0630  -28.0800   22.8660 C   0  0  0  0  0  0  0  0  0  0  0  0
  -20.6220  -28.3500   23.1420 C   0  0  0  0  0  3  0  0  0  0  0  0
  -20.7270  -26.9180   22.5660 C   0  0  0  0  0  2  0  0  0  0  0  0
  -19.6300  -26.5950   21.5460 C   0  0  0  0  0  2  0  0  0  0  0  0
  -18.2450  -26.7340   22.1840 C   0  0  0  0  0  2  0  0  0  0  0  0
  -19.1780  -28.8450   23.3000 C   0  0  0  0  0  0  0  0  0  0  0  0
  -18.9510  -30.1030   23.9010 C   0  0  0  0  0  3  0  0  0  0  0  0
  -17.6430  -30.5960   24.0680 C   0  0  0  0  0  3  0  0  0  0  0  0
  -16.5430  -29.8290   23.6470 C   0  0  0  0  0  3  0  0  0  0  0  0
  -16.7540  -28.5730   23.0520 C   0  0  0  0  0  3  0  0  0  0  0  0
  -25.9130  -32.5000   23.8400 C   0  0  0  0  0  3  0  0  0  0  0  0
  -25.5880  -33.9000   24.1650 N   0  0  0  0  0  0  0  0  0  0  0  0
  -25.9230  -34.9610   23.4190 C   0  0  0  0  0  0  0  0  0  0  0  0
  -26.6010  -34.8640   22.3930 O   0  0  0  0  0  0  0  0  0  0  0  0
  -24.9840  -34.0480   24.9600 H   0  0  0  0  0  0  0  0  0  0  0  0
  -24.1920  -36.7580   23.0690 C   0  0  0  0  0  1  0  0  0  0  0  0
  -25.4310  -36.3490   23.8810 C   0  0  0  0  0  3  0  0  0  0  0  0
  -27.5590  -37.2410   24.7260 C   0  0  0  0  0  1  0  0  0  0  0  0
  -26.4620  -37.4060   23.7760 N   0  0  0  0  0  0  0  0  0  0  0  0
  -26.0530  -38.3250   23.9210 H   0  0  0  0  0  0  0  0  0  0  0  0
  -26.4050  -31.7430   25.1350 C   0  0  1  0  0  0  0  0  0  0  0  0
  -25.2920  -31.5180   26.1860 C   0  0  0  0  0  1  0  0  0  0  0  0
  -26.9950  -30.3610   24.7780 C   0  0  0  0  0  1  0  0  0  0  0  0
  -27.5440  -32.5450   25.8090 C   0  0  0  0  0  1  0  0  0  0  0  0
  1  3  1  0
  1  4  1  0
  2  6  1  0
  3  9  1  0
  3  6  1  0
  4  2  1  0
  4  5  1  1
  6  8  1  0
  7  6  1  0
  9 18  1  0
 10 18  1  0
 11 16  1  0
 12 13  1  0
 12 11  1  0
 14 13  1  0
 14 23  1  0
 14 15  1  0
 16 10  1  0
 16 15  1  0
 17 10  2  0
 18 19  1  0
 20 21  2  0
 21 40  1  0
 22 21  1  0
 22 25  1  0
 23 20  1  0
 23 24  1  0
 24 22  2  0
 25 26  1  0
 26 27  2  0
 28 31  1  0
 28 27  1  0
 29 28  2  0
 30 29  1  0
 30 25  2  0
 31 32  1  0
 32 33  1  0
 33 34  2  0
 35 34  1  0
 35 39  1  0
 36 35  2  0
 37 32  2  0
 37 36  1  0
 38 37  1  0
 40 41  1  0
 41 44  1  0
 41 43  1  0
 42 40  2  0
 45 46  1  0
 45 20  1  0
 47 45  1  0
 48 49  1  0
 48  4  1  0
 50 61  2  0
 51 49  1  0
 51 56  1  0
 52 60  1  0
 52 62  1  0
 53 59  1  0
 53 55  1  0
 54 60  1  0
 55 56  2  0
 55 54  1  0
 57 51  2  0
 58 57  1  0
 58 53  2  0
 59 52  1  0
 60 50  1  0
 62 64  2  0
 63 62  1  0
 65 63  1  0
 66 75  2  0
 66 71  1  0
 67 63  1  0
 67 71  1  0
 68 67  1  0
 69 70  1  0
 69 68  1  0
 70 66  1  0
 71 72  2  0
 72 73  1  0
 74 73  2  0
 75 74  1  0
 76 50  1  0
 76 77  1  0
 76 86  1  0
 77 80  1  0
 78 82  1  0
 78 77  1  0
 79 78  2  0
 82 81  1  0
 84 82  1  0
 84 85  1  0
 84 83  1  0
 86 89  1  1
 86 87  1  0
 88 86  1  0
M  ISO  4  10 100  18 100  48 101  49 101
M  END
>  <TORSDO>  (97) 
F 18

>  <SCORE>  (97) 
-16.642

>  <name>  (97) 
96

>  <ligand_id>  (97) 
96

>  <original_smiles>  (97) 
[H]c1c([H])c([H])c2c(c1[H])C([H])([H])C([H])([H])C([H])([H])C2([H])N([H])C(=O)C1([H])N(C(=O)C([H])(N([H])C(=O)C([H])(N([H])C([H])([H])[H])C([H])([H])[H])C(C([H])([H])[H])(C([H])([H])[H])C([H])([H])[H])C([H])([H])c2c([H])c(OC([H])([H])C3(C([H])([H])[H])C([H])([H])C([H])(C([H])([H])N([H])C(=O)N4C([H])([H])C([H])([H])C([H])([H])C([H])(n5nc(-c6c([H])c([H])c(Oc7c([H])c([H])c(F)c([H])c7F)c([H])c6[H])c(C(=O)N([H])[H])c5N([H])[H])C4([H])[H])[N+]([H])([H])C3([H])[H])c([H])c([H])c2C1([H])[H]

>  <smiles>  (97) 
[H]c1c([H])c([H])c2c(c1[H])C([H])([H])C([H])([H])C([H])([H])C2([H])N([H])C(=O)C1([H])N(C(=O)C([H])(N([H])C(=O)C([H])(N([H])C([H])([H])[H])C([H])([H])[H])C(C([H])([H])[H])(C([H])([H])[H])C([H])([H])[H])C([H])([H])c2c([H])c(OC([H])([H])C3(C([H])([H])[H])C([H])([H])C([H])(C([H])([H])N([H])C(=O)N4C([H])([H])C([H])([H])C([H])([H])C([H])(n5nc(-c6c([H])c([H])c(Oc7c([H])c([H])c(F)c([H])c7F)c([H])c6[H])c(C(=O)N([H])[H])c5N([H])[H])C4([H])[H])[N+]([H])([H])C3([H])[H])c([H])c([H])c2C1([H])[H]

$$$$
97:0:0
     RDKit          3D

 92101  0  0  1  0  0  0  0  0999 V2000
  -28.7130  -22.6790   19.0520 C   0  0  0  0  0  3  0  0  0  0  0  0
  -28.9730  -23.7920   19.8930 C   0  0  0  0  0  0  0  0  0  0  0  0
  -29.6410  -23.4170   21.0840 C   0  0  0  0  0  0  0  0  0  0  0  0
  -29.7640  -21.1650   20.4380 C   0  0  0  0  0  0  0  0  0  0  0  0
  -29.9730  -24.4260   22.1660 C   0  0  0  0  0  1  0  0  0  0  0  0
  -29.0870  -21.3930   19.3220 N   0  0  0  0  0  0  0  0  0  0  0  0
  -30.0430  -22.1270   21.3220 N   0  0  0  0  0  0  0  0  0  0  0  0
  -30.3270  -19.8840   20.6730 N   0  0  0  0  0  0  0  0  0  0  0  0
  -30.9630  -19.8990   21.4610 H   0  0  0  0  0  0  0  0  0  0  0  0
  -29.4830  -17.7150   21.5990 C   0  0  0  0  0  2  0  0  0  0  0  0
  -29.8070  -18.5100   20.3740 C   0  0  0  0  0  3  0  0  0  0  0  0
  -30.5610  -17.1360   20.7000 C   0  0  0  0  0  3  0  0  0  0  0  0
  -30.9700  -14.6670   19.9810 C   0  0  0  0  0  0  0  0  0  0  0  0
  -30.6800  -12.4210   18.9330 C   0  0  0  0  0  2  0  0  0  0  0  0
  -29.6710  -12.5240   17.7690 C   0  0  0  0  0  2  0  0  0  0  0  0
  -28.2130  -12.4190   18.2670 C   0  0  0  0  0  2  0  0  0  0  0  0
  -27.9380  -13.2990   19.5140 C   0  0  0  0  0  3  0  0  0  0  0  0
  -29.0490  -13.1330   20.5730 C   0  0  0  0  0  2  0  0  0  0  0  0
  -30.3250  -13.4580   19.9200 N   0  0  0  0  0  0  0  0  0  0  0  0
  -32.1310  -14.7960   19.5830 O   0  0  0  0  0  0  0  0  0  0  0  0
  -30.1980  -15.7440   20.3380 N   0  0  0  0  0  0  0  0  0  0  0  0
  -29.2450  -15.4880   20.5440 H   0  0  0  0  0  0  0  0  0  0  0  0
  -25.6110  -13.9640   20.3750 C   0  0  0  0  0  0  0  0  0  0  0  0
  -24.5390  -13.2180   20.7860 C   0  0  0  0  0  0  0  0  0  0  0  0
  -24.9490  -11.8530   20.6990 C   0  0  0  0  0  0  0  0  0  0  0  0
  -26.6090  -13.0530   20.0670 N   0  0  0  0  0  0  0  0  0  0  0  0
  -26.2190  -11.7770   20.3210 N   0  0  0  0  0  0  0  0  0  0  0  0
  -24.1880  -10.6120   20.8980 C   0  0  0  0  0  0  0  0  0  0  0  0
  -24.5960   -9.6400   21.8380 C   0  0  0  0  0  3  0  0  0  0  0  0
  -23.8360   -8.4650   22.0250 C   0  0  0  0  0  3  0  0  0  0  0  0
  -22.6560   -8.2540   21.2740 C   0  0  0  0  0  0  0  0  0  0  0  0
  -22.2690   -9.2140   20.3210 C   0  0  0  0  0  3  0  0  0  0  0  0
  -23.0280  -10.3810   20.1300 C   0  0  0  0  0  3  0  0  0  0  0  0
  -21.8660   -7.1330   21.3730 O   0  0  0  0  0  0  0  0  0  0  0  0
  -21.7370   -6.4460   22.5530 C   0  0  0  0  0  0  0  0  0  0  0  0
  -21.2270   -7.0570   23.7200 C   0  0  0  0  0  3  0  0  0  0  0  0
  -21.0470   -6.2950   24.8920 C   0  0  0  0  0  3  0  0  0  0  0  0
  -21.3640   -4.9240   24.8970 C   0  0  0  0  0  0  0  0  0  0  0  0
  -21.8660   -4.3110   23.7340 C   0  0  0  0  0  3  0  0  0  0  0  0
  -22.0510   -5.0720   22.5650 C   0  0  0  0  0  0  0  0  0  0  0  0
  -22.5150   -4.4730   21.4420 F   0  0  0  0  0  0  0  0  0  0  0  0
  -21.1840   -4.1900   26.0200 F   0  0  0  0  0  0  0  0  0  0  0  0
  -23.1750  -13.7380   21.1430 C   0  0  0  0  0  0  0  0  0  0  0  0
  -22.4750  -13.0450   22.0360 N   0  0  0  0  0  0  0  0  0  0  0  0
  -22.7430  -14.7850   20.6650 O   0  0  0  0  0  0  0  0  0  0  0  0
  -22.8430  -12.2000   22.4490 H   0  0  0  0  0  0  0  0  0  0  0  0
  -21.5580  -13.3650   22.3140 H   0  0  0  0  0  0  0  0  0  0  0  0
  -25.8160  -15.3320   20.2160 N   0  0  0  0  0  0  0  0  0  0  0  0
  -25.0810  -16.0120   20.3740 H   0  0  0  0  0  0  0  0  0  0  0  0
  -26.6410  -15.7400   19.7950 H   0  0  0  0  0  0  0  0  0  0  0  0
  -28.6330  -25.2530   19.3630 C   0  0  0  0  0  2  0  0  0  0  0  0
  -28.3860  -26.4310   20.2310 O   0  0  0  0  0  0  0  0  0  0  0  0
  -24.5260  -31.7650   23.1770 C   0  0  0  0  0  0  0  0  0  0  0  0
  -27.2490  -27.2600   20.1140 C   0  0  0  0  0  0  0  0  0  0  0  0
  -23.3630  -30.3700   21.5030 C   0  0  0  0  0  3  0  0  0  0  0  0
  -24.8570  -28.8530   20.0760 C   0  0  0  0  0  0  0  0  0  0  0  0
  -25.9010  -30.7210   21.3600 C   0  0  0  0  0  2  0  0  0  0  0  0
  -26.0070  -29.3480   20.7010 C   0  0  0  0  0  0  0  0  0  0  0  0
  -27.2010  -28.5610   20.7130 C   0  0  0  0  0  3  0  0  0  0  0  0
  -26.0670  -26.8180   19.4730 C   0  0  0  0  0  3  0  0  0  0  0  0
  -24.8920  -27.5970   19.4500 C   0  0  0  0  0  3  0  0  0  0  0  0
  -23.6060  -29.7100   20.1190 C   0  0  0  0  0  2  0  0  0  0  0  0
  -24.6150  -30.9690   22.0720 N   0  0  0  0  0  0  0  0  0  0  0  0
  -23.4320  -32.0250   23.6990 O   0  0  0  0  0  0  0  0  0  0  0  0
  -22.6990  -29.3360   22.4440 C   0  0  0  0  0  0  0  0  0  0  0  0
  -21.3760  -29.1490   22.3010 N   0  0  0  0  0  0  0  0  0  0  0  0
  -23.3740  -28.7080   23.2640 O   0  0  0  0  0  0  0  0  0  0  0  0
  -20.8900  -29.7120   21.6170 H   0  0  0  0  0  0  0  0  0  0  0  0
  -18.0090  -27.8980   22.7250 C   0  0  0  0  0  0  0  0  0  0  0  0
  -20.5560  -28.1940   23.0480 C   0  0  0  0  0  3  0  0  0  0  0  0
  -20.6900  -26.7660   22.4680 C   0  0  0  0  0  2  0  0  0  0  0  0
  -19.6140  -26.4330   21.4300 C   0  0  0  0  0  2  0  0  0  0  0  0
  -18.2180  -26.5550   22.0460 C   0  0  0  0  0  2  0  0  0  0  0  0
  -19.1070  -28.6750   23.1810 C   0  0  0  0  0  0  0  0  0  0  0  0
  -18.8580  -29.9330   23.7730 C   0  0  0  0  0  3  0  0  0  0  0  0
  -17.5420  -30.4110   23.9180 C   0  0  0  0  0  3  0  0  0  0  0  0
  -16.4580  -29.6310   23.4780 C   0  0  0  0  0  3  0  0  0  0  0  0
  -16.6920  -28.3780   22.8850 C   0  0  0  0  0  3  0  0  0  0  0  0
  -25.7920  -32.4080   23.8230 C   0  0  0  0  0  3  0  0  0  0  0  0
  -25.4630  -33.8010   24.1590 N   0  0  0  0  0  0  0  0  0  0  0  0
  -25.7770  -34.8630   23.4030 C   0  0  0  0  0  0  0  0  0  0  0  0
  -26.4440  -34.7700   22.3680 O   0  0  0  0  0  0  0  0  0  0  0  0
  -24.8740  -33.9460   24.9670 H   0  0  0  0  0  0  0  0  0  0  0  0
  -24.0170  -36.6300   23.0720 C   0  0  0  0  0  1  0  0  0  0  0  0
  -25.2740  -36.2430   23.8690 C   0  0  0  0  0  3  0  0  0  0  0  0
  -27.3980  -37.1710   24.6820 C   0  0  0  0  0  1  0  0  0  0  0  0
  -26.2880  -37.3120   23.7430 N   0  0  0  0  0  0  0  0  0  0  0  0
  -25.8660  -38.2250   23.8890 H   0  0  0  0  0  0  0  0  0  0  0  0
  -26.2950  -31.6330   25.1020 C   0  0  1  0  0  0  0  0  0  0  0  0
  -25.1900  -31.3730   26.1530 C   0  0  0  0  0  1  0  0  0  0  0  0
  -26.9000  -30.2660   24.7080 C   0  0  0  0  0  1  0  0  0  0  0  0
  -27.4210  -32.4370   25.7910 C   0  0  0  0  0  1  0  0  0  0  0  0
  1  6  1  0
  1  2  2  0
  2  3  1  0
  3  7  2  0
  3  5  1  0
  4  8  1  0
  4  7  1  0
  6  4  2  0
  8  9  1  0
 11  8  1  0
 11 12  1  0
 11 10  1  0
 12 21  1  0
 12 10  1  0
 13 21  1  0
 14 19  1  0
 15 16  1  0
 15 14  1  0
 17 16  1  0
 17 26  1  0
 17 18  1  0
 19 13  1  0
 19 18  1  0
 20 13  2  0
 21 22  1  0
 23 24  2  0
 24 43  1  0
 25 24  1  0
 25 28  1  0
 26 27  1  0
 26 23  1  0
 27 25  2  0
 28 29  1  0
 29 30  2  0
 31 34  1  0
 31 30  1  0
 32 31  2  0
 33 32  1  0
 33 28  2  0
 34 35  1  0
 35 40  2  0
 35 36  1  0
 36 37  2  0
 37 38  1  0
 38 42  1  0
 39 38  2  0
 40 39  1  0
 41 40  1  0
 43 44  1  0
 44 47  1  0
 44 46  1  0
 45 43  2  0
 48 49  1  0
 48 23  1  0
 50 48  1  0
 51  2  1  0
 51 52  1  0
 53 64  2  0
 54 52  1  0
 54 59  1  0
 55 63  1  0
 55 65  1  0
 56 62  1  0
 56 58  1  0
 57 63  1  0
 58 59  2  0
 58 57  1  0
 60 54  2  0
 61 60  1  0
 61 56  2  0
 62 55  1  0
 63 53  1  0
 65 67  2  0
 66 65  1  0
 68 66  1  0
 69 78  2  0
 69 74  1  0
 70 66  1  0
 70 74  1  0
 71 70  1  0
 72 73  1  0
 72 71  1  0
 73 69  1  0
 74 75  2  0
 75 76  1  0
 77 76  2  0
 78 77  1  0
 79 53  1  0
 79 80  1  0
 79 89  1  0
 80 83  1  0
 81 85  1  0
 81 80  1  0
 82 81  2  0
 85 84  1  0
 87 85  1  0
 87 88  1  0
 87 86  1  0
 89 92  1  1
 89 90  1  0
 91 89  1  0
M  ISO  4  13 100  21 100  51 101  52 101
M  END
>  <TORSDO>  (98) 
F 18

>  <SCORE>  (98) 
-14.089

>  <name>  (98) 
97

>  <ligand_id>  (98) 
97

>  <original_smiles>  (98) 
[H]c1nc(N([H])C2([H])C([H])([H])C2([H])N([H])C(=O)N2C([H])([H])C([H])([H])C([H])([H])C([H])(n3nc(-c4c([H])c([H])c(Oc5c([H])c([H])c(F)c([H])c5F)c([H])c4[H])c(C(=O)N([H])[H])c3N([H])[H])C2([H])[H])nc(C([H])([H])[H])c1C([H])([H])Oc1c([H])c([H])c2c(c1[H])C([H])([H])N(C(=O)C([H])(N([H])C(=O)C([H])(N([H])C([H])([H])[H])C([H])([H])[H])C(C([H])([H])[H])(C([H])([H])[H])C([H])([H])[H])C([H])(C(=O)N([H])C1([H])c3c([H])c([H])c([H])c([H])c3C([H])([H])C([H])([H])C1([H])[H])C2([H])[H]

>  <smiles>  (98) 
[H]c1nc(N([H])C2([H])C([H])([H])C2([H])N([H])C(=O)N2C([H])([H])C([H])([H])C([H])([H])C([H])(n3nc(-c4c([H])c([H])c(Oc5c([H])c([H])c(F)c([H])c5F)c([H])c4[H])c(C(=O)N([H])[H])c3N([H])[H])C2([H])[H])nc(C([H])([H])[H])c1C([H])([H])Oc1c([H])c([H])c2c(c1[H])C([H])([H])N(C(=O)C([H])(N([H])C(=O)C([H])(N([H])C([H])([H])[H])C([H])([H])[H])C(C([H])([H])[H])(C([H])([H])[H])C([H])([H])[H])C([H])(C(=O)N([H])C1([H])c3c([H])c([H])c([H])c([H])c3C([H])([H])C([H])([H])C1([H])[H])C2([H])[H]

$$$$
98:0:0
     RDKit          3D

 91100  0  0  1  0  0  0  0  0999 V2000
  -28.8340  -23.0490   18.8200 C   0  0  0  0  0  0  0  0  0  0  0  0
  -28.7320  -23.4450   20.1450 C   0  0  0  0  0  0  0  0  0  0  0  0
  -29.3190  -21.1720   19.9140 C   0  0  0  0  0  0  0  0  0  0  0  0
  -29.4200  -18.6950   21.0900 C   0  0  0  0  0  2  0  0  0  0  0  0
  -29.9270  -18.6780   19.1090 C   0  0  0  0  0  2  0  0  0  0  0  0
  -30.2940  -17.6440   20.2560 C   0  0  0  0  0  3  0  0  0  0  0  0
  -28.5690  -23.8720   17.5960 C   0  0  0  0  0  1  0  0  0  0  0  0
  -29.0810  -22.0170   22.2710 C   0  0  0  0  0  1  0  0  0  0  0  0
  -29.2000  -21.6830   18.6890 N   0  0  0  0  0  0  0  0  0  0  0  0
  -29.0480  -22.1900   20.8300 N   0  0  0  0  0  0  0  0  0  0  0  0
  -29.8550  -19.7600   20.1400 N   0  0  0  0  0  0  0  0  0  0  0  0
  -30.6500  -14.9450   19.9440 C   0  0  0  0  0  0  0  0  0  0  0  0
  -30.4350  -12.6250   18.9580 C   0  0  0  0  0  2  0  0  0  0  0  0
  -29.4240  -12.6170   17.7890 C   0  0  0  0  0  2  0  0  0  0  0  0
  -27.9910  -12.4120   18.3140 C   0  0  0  0  0  2  0  0  0  0  0  0
  -27.6690  -13.3210   19.5290 C   0  0  0  0  0  3  0  0  0  0  0  0
  -28.7940  -13.3000   20.5860 C   0  0  0  0  0  2  0  0  0  0  0  0
  -30.0290  -13.7020   19.9020 N   0  0  0  0  0  0  0  0  0  0  0  0
  -31.8340  -15.0080   19.5970 O   0  0  0  0  0  0  0  0  0  0  0  0
  -29.9000  -16.1210   20.1790 N   0  0  0  0  0  0  0  0  0  0  0  0
  -28.9280  -15.9400   20.3800 H   0  0  0  0  0  0  0  0  0  0  0  0
  -25.3470  -13.9040   20.4360 C   0  0  0  0  0  0  0  0  0  0  0  0
  -24.3000  -13.1290   20.8530 C   0  0  0  0  0  0  0  0  0  0  0  0
  -24.7470  -11.7750   20.7570 C   0  0  0  0  0  0  0  0  0  0  0  0
  -26.3630  -13.0230   20.1060 N   0  0  0  0  0  0  0  0  0  0  0  0
  -26.0150  -11.7360   20.3640 N   0  0  0  0  0  0  0  0  0  0  0  0
  -24.0200  -10.5150   20.9570 C   0  0  0  0  0  0  0  0  0  0  0  0
  -24.4740   -9.5370   21.8670 C   0  0  0  0  0  3  0  0  0  0  0  0
  -23.7460   -8.3420   22.0580 C   0  0  0  0  0  3  0  0  0  0  0  0
  -22.5490   -8.1190   21.3370 C   0  0  0  0  0  0  0  0  0  0  0  0
  -22.1140   -9.0860   20.4130 C   0  0  0  0  0  3  0  0  0  0  0  0
  -22.8430  -10.2710   20.2220 C   0  0  0  0  0  3  0  0  0  0  0  0
  -21.7890   -6.9770   21.4370 O   0  0  0  0  0  0  0  0  0  0  0  0
  -21.7410   -6.2450   22.5960 C   0  0  0  0  0  0  0  0  0  0  0  0
  -21.2930   -6.8040   23.8130 C   0  0  0  0  0  3  0  0  0  0  0  0
  -21.1940   -5.9960   24.9640 C   0  0  0  0  0  3  0  0  0  0  0  0
  -21.5330   -4.6320   24.8980 C   0  0  0  0  0  0  0  0  0  0  0  0
  -21.9750   -4.0720   23.6860 C   0  0  0  0  0  3  0  0  0  0  0  0
  -22.0750   -4.8770   22.5380 C   0  0  0  0  0  0  0  0  0  0  0  0
  -22.4810   -4.3290   21.3670 F   0  0  0  0  0  0  0  0  0  0  0  0
  -21.4320   -3.8540   26.0010 F   0  0  0  0  0  0  0  0  0  0  0  0
  -22.9290  -13.6120   21.2220 C   0  0  0  0  0  0  0  0  0  0  0  0
  -22.2480  -12.8990   22.1130 N   0  0  0  0  0  0  0  0  0  0  0  0
  -22.4720  -14.6570   20.7600 O   0  0  0  0  0  0  0  0  0  0  0  0
  -22.6310  -12.0520   22.5050 H   0  0  0  0  0  0  0  0  0  0  0  0
  -21.3310  -13.2050   22.4060 H   0  0  0  0  0  0  0  0  0  0  0  0
  -25.5110  -15.2780   20.2830 N   0  0  0  0  0  0  0  0  0  0  0  0
  -24.7460  -15.9240   20.4460 H   0  0  0  0  0  0  0  0  0  0  0  0
  -26.3220  -15.7210   19.8730 H   0  0  0  0  0  0  0  0  0  0  0  0
  -28.2130  -24.8400   20.8140 C   0  0  0  0  0  2  0  0  0  0  0  0
  -28.4900  -26.2400   20.2300 O   0  0  0  0  0  0  0  0  0  0  0  0
  -24.6610  -31.8100   23.1670 C   0  0  0  0  0  0  0  0  0  0  0  0
  -27.4220  -27.1960   20.1940 C   0  0  0  0  0  0  0  0  0  0  0  0
  -23.5350  -30.3990   21.4880 C   0  0  0  0  0  3  0  0  0  0  0  0
  -25.0580  -28.8670   20.0970 C   0  0  0  0  0  0  0  0  0  0  0  0
  -26.0830  -30.7300   21.3910 C   0  0  0  0  0  2  0  0  0  0  0  0
  -26.2080  -29.3440   20.7390 C   0  0  0  0  0  0  0  0  0  0  0  0
  -27.3950  -28.5250   20.7690 C   0  0  0  0  0  3  0  0  0  0  0  0
  -26.2500  -26.8130   19.5110 C   0  0  0  0  0  3  0  0  0  0  0  0
  -25.0890  -27.6140   19.4660 C   0  0  0  0  0  3  0  0  0  0  0  0
  -23.8080  -29.7330   20.1120 C   0  0  0  0  0  2  0  0  0  0  0  0
  -24.7780  -31.0000   22.0720 N   0  0  0  0  0  0  0  0  0  0  0  0
  -23.5550  -32.0670   23.6690 O   0  0  0  0  0  0  0  0  0  0  0  0
  -22.8530  -29.3710   22.4260 C   0  0  0  0  0  0  0  0  0  0  0  0
  -21.5300  -29.1870   22.2730 N   0  0  0  0  0  0  0  0  0  0  0  0
  -23.5180  -28.7430   23.2540 O   0  0  0  0  0  0  0  0  0  0  0  0
  -21.0490  -29.7440   21.5820 H   0  0  0  0  0  0  0  0  0  0  0  0
  -18.1510  -27.9590   22.7120 C   0  0  0  0  0  0  0  0  0  0  0  0
  -20.7040  -28.2330   23.0190 C   0  0  0  0  0  3  0  0  0  0  0  0
  -20.8240  -26.8100   22.4240 C   0  0  0  0  0  2  0  0  0  0  0  0
  -19.7390  -26.4950   21.3910 C   0  0  0  0  0  2  0  0  0  0  0  0
  -18.3470  -26.6210   22.0150 C   0  0  0  0  0  2  0  0  0  0  0  0
  -19.2580  -28.7220   23.1680 C   0  0  0  0  0  0  0  0  0  0  0  0
  -19.0200  -29.9730   23.7780 C   0  0  0  0  0  3  0  0  0  0  0  0
  -17.7090  -30.4610   23.9340 C   0  0  0  0  0  3  0  0  0  0  0  0
  -16.6170  -29.6940   23.4950 C   0  0  0  0  0  3  0  0  0  0  0  0
  -16.8380  -28.4430   22.8910 C   0  0  0  0  0  3  0  0  0  0  0  0
  -25.9080  -32.4690   23.8320 C   0  0  0  0  0  3  0  0  0  0  0  0
  -25.5610  -33.8620   24.1570 N   0  0  0  0  0  0  0  0  0  0  0  0
  -25.8770  -34.9230   23.4030 C   0  0  0  0  0  0  0  0  0  0  0  0
  -26.5600  -34.8350   22.3790 O   0  0  0  0  0  0  0  0  0  0  0  0
  -24.9610  -34.0030   24.9560 H   0  0  0  0  0  0  0  0  0  0  0  0
  -24.1090  -36.6740   23.0390 C   0  0  0  0  0  1  0  0  0  0  0  0
  -25.3550  -36.3000   23.8580 C   0  0  0  0  0  3  0  0  0  0  0  0
  -27.4590  -37.2390   24.7060 C   0  0  0  0  0  1  0  0  0  0  0  0
  -26.3620  -37.3790   23.7510 N   0  0  0  0  0  0  0  0  0  0  0  0
  -25.9310  -38.2870   23.8950 H   0  0  0  0  0  0  0  0  0  0  0  0
  -26.3940  -31.7100   25.1270 C   0  0  1  0  0  0  0  0  0  0  0  0
  -25.2700  -31.4550   26.1580 C   0  0  0  0  0  1  0  0  0  0  0  0
  -27.0160  -30.3430   24.7590 C   0  0  0  0  0  1  0  0  0  0  0  0
  -27.5070  -32.5250   25.8260 C   0  0  0  0  0  1  0  0  0  0  0  0
  1  2  2  0
  2 50  1  0
  2 10  1  0
  3 11  1  0
  3 10  1  0
  5 11  1  0
  5  6  1  0
  6 20  1  0
  6  4  1  0
  7  1  1  0
  9  1  1  0
  9  3  2  0
 10  8  1  0
 11  4  1  0
 12 20  1  0
 13 18  1  0
 14 15  1  0
 14 13  1  0
 16 15  1  0
 16 25  1  0
 16 17  1  0
 18 12  1  0
 18 17  1  0
 19 12  2  0
 20 21  1  0
 22 23  2  0
 23 42  1  0
 24 23  1  0
 24 27  1  0
 25 26  1  0
 25 22  1  0
 26 24  2  0
 27 28  1  0
 28 29  2  0
 30 33  1  0
 30 29  1  0
 31 30  2  0
 32 31  1  0
 32 27  2  0
 33 34  1  0
 34 35  1  0
 35 36  2  0
 37 36  1  0
 37 41  1  0
 38 37  2  0
 39 34  2  0
 39 38  1  0
 40 39  1  0
 42 43  1  0
 43 46  1  0
 43 45  1  0
 44 42  2  0
 47 22  1  0
 47 48  1  0
 49 47  1  0
 51 50  1  0
 52 63  2  0
 53 51  1  0
 53 58  1  0
 54 62  1  0
 54 64  1  0
 55 61  1  0
 55 57  1  0
 56 62  1  0
 57 58  2  0
 57 56  1  0
 59 53  2  0
 60 59  1  0
 60 55  2  0
 61 54  1  0
 62 52  1  0
 64 66  2  0
 65 64  1  0
 67 65  1  0
 68 77  2  0
 68 73  1  0
 69 65  1  0
 69 73  1  0
 70 69  1  0
 71 72  1  0
 71 70  1  0
 72 68  1  0
 73 74  2  0
 74 75  1  0
 76 75  2  0
 77 76  1  0
 78 52  1  0
 78 79  1  0
 78 88  1  0
 79 82  1  0
 80 84  1  0
 80 79  1  0
 81 80  2  0
 84 83  1  0
 86 84  1  0
 86 87  1  0
 86 85  1  0
 88 91  1  1
 88 89  1  0
 90 88  1  0
M  ISO  4  12 100  20 100  50 101  51 101
M  END
>  <TORSDO>  (99) 
F 17

>  <SCORE>  (99) 
-14.816

>  <name>  (99) 
98

>  <ligand_id>  (99) 
98

>  <original_smiles>  (99) 
[H]c1c([H])c([H])c2c(c1[H])C([H])([H])C([H])([H])C([H])([H])C2([H])N([H])C(=O)C1([H])N(C(=O)C([H])(N([H])C(=O)C([H])(N([H])C([H])([H])[H])C([H])([H])[H])C(C([H])([H])[H])(C([H])([H])[H])C([H])([H])[H])C([H])([H])c2c([H])c(OC([H])([H])c3c(C([H])([H])[H])nc(N4C([H])([H])C([H])(N([H])C(=O)N5C([H])([H])C([H])([H])C([H])([H])C([H])(n6nc(-c7c([H])c([H])c(Oc8c([H])c([H])c(F)c([H])c8F)c([H])c7[H])c(C(=O)N([H])[H])c6N([H])[H])C5([H])[H])C4([H])[H])n3C([H])([H])[H])c([H])c([H])c2C1([H])[H]

>  <smiles>  (99) 
[H]c1c([H])c([H])c2c(c1[H])C([H])([H])C([H])([H])C([H])([H])C2([H])N([H])C(=O)C1([H])N(C(=O)C([H])(N([H])C(=O)C([H])(N([H])C([H])([H])[H])C([H])([H])[H])C(C([H])([H])[H])(C([H])([H])[H])C([H])([H])[H])C([H])([H])c2c([H])c(OC([H])([H])c3c(C([H])([H])[H])nc(N4C([H])([H])C([H])(N([H])C(=O)N5C([H])([H])C([H])([H])C([H])([H])C([H])(n6nc(-c7c([H])c([H])c(Oc8c([H])c([H])c(F)c([H])c8F)c([H])c7[H])c(C(=O)N([H])[H])c6N([H])[H])C5([H])[H])C4([H])[H])n3C([H])([H])[H])c([H])c([H])c2C1([H])[H]

$$$$
