0:0:0
     RDKit          3D

 88 96  0  0  1  0  0  0  0  0999 V2000
  -28.7410  -21.8950   20.3910 N   0  0  0  0  0  4  0  0  0  0  0  0
  -29.1510  -21.9370   21.3100 H   0  0  0  0  0  0  0  0  0  0  0  0
  -27.7630  -21.7040   20.5320 H   0  0  0  0  0  0  0  0  0  0  0  0
  -29.3540  -20.5900   19.7110 C   0  0  0  0  0  2  0  0  0  0  0  0
  -30.5070  -15.0720   20.1260 C   0  0  0  0  0  0  0  0  0  0  0  0
  -30.3550  -12.7400   19.1400 C   0  0  0  0  0  2  0  0  0  0  0  0
  -29.3850  -12.6880   17.9380 C   0  0  0  0  0  2  0  0  0  0  0  0
  -27.9360  -12.4470   18.3990 C   0  0  0  0  0  2  0  0  0  0  0  0
  -27.5580  -13.3310   19.6090 C   0  0  0  0  0  3  0  0  0  0  0  0
  -28.6480  -13.3560   20.7080 C   0  0  0  0  0  2  0  0  0  0  0  0
  -29.8790  -13.8200   20.0580 N   0  0  0  0  0  0  0  0  0  0  0  0
  -31.7100  -15.0690   19.8360 O   0  0  0  0  0  0  0  0  0  0  0  0
  -28.0600  -18.1770   20.3180 C   0  0  0  0  0  2  0  0  0  0  0  0
  -28.4390  -16.6740   20.6430 C   0  0  0  0  0  2  0  0  0  0  0  0
  -30.3410  -17.7880   19.9650 C   0  0  0  0  0  2  0  0  0  0  0  0
  -29.3410  -19.0300   20.3990 C   0  0  0  0  0  3  0  0  0  0  0  0
  -29.8230  -16.3490   20.2330 N   0  0  0  0  0  0  0  0  0  0  0  0
  -25.1960  -13.9020   20.4180 C   0  0  0  0  0  0  0  0  0  0  0  0
  -24.1500  -13.1220   20.8250 C   0  0  0  0  0  0  0  0  0  0  0  0
  -24.6240  -11.7780   20.7770 C   0  0  0  0  0  0  0  0  0  0  0  0
  -26.2370  -13.0310   20.1470 N   0  0  0  0  0  0  0  0  0  0  0  0
  -25.9060  -11.7460   20.4310 N   0  0  0  0  0  0  0  0  0  0  0  0
  -23.9080  -10.5150   20.9720 C   0  0  0  0  0  0  0  0  0  0  0  0
  -24.3670   -9.5460   21.8930 C   0  0  0  0  0  3  0  0  0  0  0  0
  -23.6490   -8.3460   22.0810 C   0  0  0  0  0  3  0  0  0  0  0  0
  -22.4600   -8.1070   21.3480 C   0  0  0  0  0  0  0  0  0  0  0  0
  -22.0260   -9.0630   20.4140 C   0  0  0  0  0  3  0  0  0  0  0  0
  -22.7460  -10.2530   20.2220 C   0  0  0  0  0  3  0  0  0  0  0  0
  -21.7010   -6.9660   21.4580 O   0  0  0  0  0  0  0  0  0  0  0  0
  -21.6670   -6.2310   22.6150 C   0  0  0  0  0  0  0  0  0  0  0  0
  -21.2550   -6.7910   23.8450 C   0  0  0  0  0  3  0  0  0  0  0  0
  -21.1660   -5.9780   24.9940 C   0  0  0  0  0  3  0  0  0  0  0  0
  -21.4790   -4.6080   24.9140 C   0  0  0  0  0  0  0  0  0  0  0  0
  -21.8850   -4.0490   23.6890 C   0  0  0  0  0  3  0  0  0  0  0  0
  -21.9770   -4.8580   22.5440 C   0  0  0  0  0  0  0  0  0  0  0  0
  -22.3480   -4.3070   21.3620 F   0  0  0  0  0  0  0  0  0  0  0  0
  -21.3860   -3.8290   26.0140 F   0  0  0  0  0  0  0  0  0  0  0  0
  -22.7610  -13.5960   21.1350 C   0  0  0  0  0  0  0  0  0  0  0  0
  -22.0610  -12.9020   22.0240 N   0  0  0  0  0  0  0  0  0  0  0  0
  -22.3120  -14.6210   20.6250 O   0  0  0  0  0  0  0  0  0  0  0  0
  -22.4430  -12.0780   22.4640 H   0  0  0  0  0  0  0  0  0  0  0  0
  -21.1270  -13.1980   22.2700 H   0  0  0  0  0  0  0  0  0  0  0  0
  -25.3160  -15.2720   20.2370 N   0  0  0  0  0  0  0  0  0  0  0  0
  -24.5400  -15.9080   20.3900 H   0  0  0  0  0  0  0  0  0  0  0  0
  -26.1270  -15.7320   19.8510 H   0  0  0  0  0  0  0  0  0  0  0  0
  -28.8290  -23.3810   19.7970 C   0  0  0  0  0  3  0  0  0  0  0  0
  -28.1260  -24.7280   20.5470 C   0  0  0  0  0  3  0  0  0  0  0  0
  -28.3270  -26.2450   20.2260 O   0  0  0  0  0  0  0  0  0  0  0  0
  -24.6120  -31.8910   23.2280 C   0  0  0  0  0  0  0  0  0  0  0  0
  -27.2470  -27.1980   20.2260 C   0  0  0  0  0  0  0  0  0  0  0  0
  -23.4300  -30.4850   21.5830 C   0  0  0  0  0  3  0  0  0  0  0  0
  -24.8940  -28.9050   20.1870 C   0  0  0  0  0  0  0  0  0  0  0  0
  -25.9840  -30.7660   21.4370 C   0  0  0  0  0  2  0  0  0  0  0  0
  -26.0710  -29.3730   20.7870 C   0  0  0  0  0  0  0  0  0  0  0  0
  -27.2500  -28.5400   20.7830 C   0  0  0  0  0  3  0  0  0  0  0  0
  -26.0410  -26.8220   19.6000 C   0  0  0  0  0  3  0  0  0  0  0  0
  -24.8890  -27.6370   19.5840 C   0  0  0  0  0  3  0  0  0  0  0  0
  -23.6660  -29.7990   20.2110 C   0  0  0  0  0  2  0  0  0  0  0  0
  -24.6950  -31.0680   22.1370 N   0  0  0  0  0  0  0  0  0  0  0  0
  -23.5230  -32.1720   23.7490 O   0  0  0  0  0  0  0  0  0  0  0  0
  -22.7480  -29.4790   22.5420 C   0  0  0  0  0  0  0  0  0  0  0  0
  -21.4220  -29.3050   22.4070 N   0  0  0  0  0  0  0  0  0  0  0  0
  -23.4120  -28.8590   23.3740 O   0  0  0  0  0  0  0  0  0  0  0  0
  -20.9370  -29.8600   21.7150 H   0  0  0  0  0  0  0  0  0  0  0  0
  -18.0450  -28.0830   22.8740 C   0  0  0  0  0  0  0  0  0  0  0  0
  -20.5980  -28.3670   23.1730 C   0  0  0  0  0  3  0  0  0  0  0  0
  -20.7160  -26.9310   22.6120 C   0  0  0  0  0  2  0  0  0  0  0  0
  -19.6300  -26.5900   21.5860 C   0  0  0  0  0  2  0  0  0  0  0  0
  -18.2380  -26.7300   22.2100 C   0  0  0  0  0  2  0  0  0  0  0  0
  -19.1520  -28.8570   23.3120 C   0  0  0  0  0  0  0  0  0  0  0  0
  -18.9150  -30.1200   23.8970 C   0  0  0  0  0  3  0  0  0  0  0  0
  -17.6050  -30.6130   24.0450 C   0  0  0  0  0  3  0  0  0  0  0  0
  -16.5110  -29.8380   23.6270 C   0  0  0  0  0  3  0  0  0  0  0  0
  -16.7330  -28.5760   23.0470 C   0  0  0  0  0  3  0  0  0  0  0  0
  -25.8840  -32.5320   23.8650 C   0  0  0  0  0  3  0  0  0  0  0  0
  -26.3840  -31.7750   25.1580 C   0  0  1  0  0  0  0  0  0  0  0  0
  -25.2780  -31.5590   26.2160 C   0  0  0  0  0  1  0  0  0  0  0  0
  -26.9710  -30.3920   24.7960 C   0  0  0  0  0  1  0  0  0  0  0  0
  -27.5220  -32.5810   25.8270 C   0  0  0  0  0  1  0  0  0  0  0  0
  -25.5690  -33.9330   24.1820 N   0  0  0  0  0  0  0  0  0  0  0  0
  -25.9050  -34.9870   23.4240 C   0  0  0  0  0  0  0  0  0  0  0  0
  -26.5810  -34.8830   22.3990 O   0  0  0  0  0  0  0  0  0  0  0  0
  -24.9780  -34.0890   24.9850 H   0  0  0  0  0  0  0  0  0  0  0  0
  -24.1780  -36.7770   23.0540 C   0  0  0  0  0  1  0  0  0  0  0  0
  -25.4130  -36.3770   23.8750 C   0  0  0  0  0  3  0  0  0  0  0  0
  -27.5420  -37.2650   24.7160 C   0  0  0  0  0  1  0  0  0  0  0  0
  -26.4470  -37.4290   23.7640 N   0  0  0  0  0  0  0  0  0  0  0  0
  -26.0380  -38.3490   23.9110 H   0  0  0  0  0  0  0  0  0  0  0  0
  1  3  1  0
  1  2  1  0
  4  1  1  0
  5 17  1  0
  6 11  1  0
  7  8  1  0
  7  6  1  0
  9  8  1  0
  9 21  1  0
  9 10  1  0
 11  5  1  0
 11 10  1  0
 12  5  2  0
 13 16  1  0
 13 14  1  0
 15 17  1  0
 15 16  1  0
 16  4  1  0
 17 14  1  0
 18 19  2  0
 19 38  1  0
 20 19  1  0
 20 23  1  0
 21 18  1  0
 21 22  1  0
 22 20  2  0
 23 24  1  0
 24 25  2  0
 26 29  1  0
 26 25  1  0
 27 26  2  0
 28 27  1  0
 28 23  2  0
 29 30  1  0
 30 31  1  0
 31 32  2  0
 33 32  1  0
 33 37  1  0
 34 33  2  0
 35 30  2  0
 35 34  1  0
 36 35  1  0
 38 39  1  0
 39 42  1  0
 39 41  1  0
 40 38  2  0
 43 44  1  0
 43 18  1  0
 45 43  1  0
 46  1  1  0
 46 47  2  0
 48 50  1  0
 48 47  1  0
 49 60  2  0
 50 55  1  0
 51 59  1  0
 51 61  1  0
 52 58  1  0
 52 54  1  0
 53 59  1  0
 54 53  1  0
 55 54  2  0
 56 50  2  0
 57 56  1  0
 57 52  2  0
 58 51  1  0
 59 49  1  0
 61 63  2  0
 62 61  1  0
 64 62  1  0
 65 74  2  0
 65 70  1  0
 66 62  1  0
 66 70  1  0
 67 66  1  0
 68 69  1  0
 68 67  1  0
 69 65  1  0
 70 71  2  0
 71 72  1  0
 73 72  2  0
 74 73  1  0
 75 49  1  0
 75 80  1  0
 75 76  1  0
 76 79  1  1
 76 77  1  0
 78 76  1  0
 80 83  1  0
 81 85  1  0
 81 80  1  0
 82 81  2  0
 85 84  1  0
 87 85  1  0
 87 88  1  0
 87 86  1  0
M  ISO  4   5 100  17 100  47 101  48 101
M  END
>  <TORSDO>  (1) 
F 19

>  <SCORE>  (1) 
-14.742

>  <name>  (1) 
0

>  <ligand_id>  (1) 
0

>  <original_smiles>  (1) 
[H]c1c([H])c([H])c2c(c1[H])C([H])([H])C([H])([H])C([H])([H])C2([H])N([H])C(=O)C1([H])N(C(=O)C([H])(N([H])C(=O)C([H])(N([H])C([H])([H])[H])C([H])([H])[H])C(C([H])([H])[H])(C([H])([H])[H])C([H])([H])[H])C([H])([H])c2c([H])c(OC([H])([H])C([H])([H])[N+]([H])([H])C([H])([H])C3([H])C([H])([H])N(C(=O)N4C([H])([H])C([H])([H])C([H])([H])C([H])(n5nc(-c6c([H])c([H])c(Oc7c([H])c([H])c(F)c([H])c7F)c([H])c6[H])c(C(=O)N([H])[H])c5N([H])[H])C4([H])[H])C([H])([H])C3([H])[H])c([H])c([H])c2C1([H])[H]

>  <smiles>  (1) 
[H]c1c([H])c([H])c2c(c1[H])C([H])([H])C([H])([H])C([H])([H])C2([H])N([H])C(=O)C1([H])N(C(=O)C([H])(N([H])C(=O)C([H])(N([H])C([H])([H])[H])C([H])([H])[H])C(C([H])([H])[H])(C([H])([H])[H])C([H])([H])[H])C([H])([H])c2c([H])c(OC([H])([H])C([H])([H])[N+]([H])([H])C([H])([H])C3([H])C([H])([H])N(C(=O)N4C([H])([H])C([H])([H])C([H])([H])C([H])(n5nc(-c6c([H])c([H])c(Oc7c([H])c([H])c(F)c([H])c7F)c([H])c6[H])c(C(=O)N([H])[H])c5N([H])[H])C4([H])[H])C([H])([H])C3([H])[H])c([H])c([H])c2C1([H])[H]

$$$$
1:0:0
     RDKit          3D

 91101  0  0  1  0  0  0  0  0999 V2000
  -28.4090  -24.4830   18.2430 C   0  0  0  0  0  3  0  0  0  0  0  0
  -29.2290  -22.2430   18.2670 C   0  0  0  0  0  3  0  0  0  0  0  0
  -28.9360  -22.0480   19.6570 C   0  0  0  0  0  0  0  0  0  0  0  0
  -28.2760  -24.5650   19.6470 C   0  0  0  0  0  0  0  0  0  0  0  0
  -28.8800  -23.3830   17.5920 N   0  0  0  0  0  0  0  0  0  0  0  0
  -28.5250  -23.2930   20.3240 N   0  0  0  0  0  0  0  0  0  0  0  0
  -31.4280  -20.8970   17.9280 C   0  0  0  0  0  2  0  0  0  0  0  0
  -31.3230  -21.7090   16.6710 C   0  0  0  0  0  2  0  0  0  0  0  0
  -30.0510  -21.2840   17.4250 C   0  0  0  0  0  3  0  0  0  0  0  0
  -28.1780  -25.9400   20.2630 O   0  0  0  0  0  0  0  0  0  0  0  0
  -24.6280  -31.8340   23.1960 C   0  0  0  0  0  0  0  0  0  0  0  0
  -27.1720  -27.0130   20.1250 C   0  0  0  0  0  0  0  0  0  0  0  0
  -23.4240  -30.4380   21.5610 C   0  0  0  0  0  3  0  0  0  0  0  0
  -24.8680  -28.8490   20.1160 C   0  0  0  0  0  0  0  0  0  0  0  0
  -25.9900  -30.6500   21.4160 C   0  0  0  0  0  2  0  0  0  0  0  0
  -26.0530  -29.2590   20.7320 C   0  0  0  0  0  0  0  0  0  0  0  0
  -27.2000  -28.3570   20.7240 C   0  0  0  0  0  3  0  0  0  0  0  0
  -25.9600  -26.7310   19.4660 C   0  0  0  0  0  3  0  0  0  0  0  0
  -24.8390  -27.5990   19.4670 C   0  0  0  0  0  3  0  0  0  0  0  0
  -23.6430  -29.7600   20.1820 C   0  0  0  0  0  2  0  0  0  0  0  0
  -24.7030  -31.0000   22.1080 N   0  0  0  0  0  0  0  0  0  0  0  0
  -23.5420  -32.1320   23.7180 O   0  0  0  0  0  0  0  0  0  0  0  0
  -22.7380  -29.4390   22.5250 C   0  0  0  0  0  0  0  0  0  0  0  0
  -21.4100  -29.2740   22.4060 N   0  0  0  0  0  0  0  0  0  0  0  0
  -23.4070  -28.8130   23.3540 O   0  0  0  0  0  0  0  0  0  0  0  0
  -20.9220  -29.8220   21.7090 H   0  0  0  0  0  0  0  0  0  0  0  0
  -18.0310  -28.0760   22.9240 C   0  0  0  0  0  0  0  0  0  0  0  0
  -20.5910  -28.3400   23.1840 C   0  0  0  0  0  3  0  0  0  0  0  0
  -20.6930  -26.9040   22.6150 C   0  0  0  0  0  2  0  0  0  0  0  0
  -19.5890  -26.5760   21.6040 C   0  0  0  0  0  2  0  0  0  0  0  0
  -18.2090  -26.7250   22.2490 C   0  0  0  0  0  2  0  0  0  0  0  0
  -19.1500  -28.8390   23.3470 C   0  0  0  0  0  0  0  0  0  0  0  0
  -18.9280  -30.1030   23.9400 C   0  0  0  0  0  3  0  0  0  0  0  0
  -17.6230  -30.5980   24.1150 C   0  0  0  0  0  3  0  0  0  0  0  0
  -16.5190  -29.8300   23.7090 C   0  0  0  0  0  3  0  0  0  0  0  0
  -16.7250  -28.5720   23.1150 C   0  0  0  0  0  3  0  0  0  0  0  0
  -25.9060  -32.4720   23.8230 C   0  0  0  0  0  3  0  0  0  0  0  0
  -25.5900  -33.8720   24.1570 N   0  0  0  0  0  0  0  0  0  0  0  0
  -25.9110  -34.9310   23.4030 C   0  0  0  0  0  0  0  0  0  0  0  0
  -26.5690  -34.8370   22.3630 O   0  0  0  0  0  0  0  0  0  0  0  0
  -25.0010  -34.0140   24.9620 H   0  0  0  0  0  0  0  0  0  0  0  0
  -24.1760  -36.7330   23.0910 C   0  0  0  0  0  1  0  0  0  0  0  0
  -25.4290  -36.3170   23.8790 C   0  0  0  0  0  3  0  0  0  0  0  0
  -27.5770  -37.2030   24.6780 C   0  0  0  0  0  1  0  0  0  0  0  0
  -26.4560  -37.3740   23.7580 N   0  0  0  0  0  0  0  0  0  0  0  0
  -26.0480  -38.2900   23.9230 H   0  0  0  0  0  0  0  0  0  0  0  0
  -26.4120  -31.7140   25.1130 C   0  0  1  0  0  0  0  0  0  0  0  0
  -25.3200  -31.5100   26.1880 C   0  0  0  0  0  1  0  0  0  0  0  0
  -26.9890  -30.3230   24.7590 C   0  0  0  0  0  1  0  0  0  0  0  0
  -27.5640  -32.5170   25.7660 C   0  0  0  0  0  1  0  0  0  0  0  0
  -29.1590  -20.5200   20.4260 C   0  0  0  0  0  3  0  0  0  0  0  0
  -30.5010  -15.1890   20.2400 C   0  0  0  0  0  0  0  0  0  0  0  0
  -30.3480  -12.8030   19.3030 C   0  0  0  0  0  2  0  0  0  0  0  0
  -29.3810  -12.5450   18.1270 C   0  0  0  0  0  2  0  0  0  0  0  0
  -27.9770  -12.2530   18.6640 C   0  0  0  0  0  2  0  0  0  0  0  0
  -27.5390  -13.2880   19.7210 C   0  0  0  0  0  3  0  0  0  0  0  0
  -28.6110  -13.4830   20.8150 C   0  0  0  0  0  2  0  0  0  0  0  0
  -29.8190  -13.9560   20.1170 N   0  0  0  0  0  0  0  0  0  0  0  0
  -31.7210  -15.0760   20.1040 O   0  0  0  0  0  0  0  0  0  0  0  0
  -28.7540  -17.4520   20.4960 C   0  0  0  0  0  2  0  0  0  0  0  0
  -30.6990  -17.8980   20.1660 C   0  0  0  0  0  2  0  0  0  0  0  0
  -29.4080  -18.8350   19.8990 C   0  0  0  0  0  3  0  0  0  0  0  0
  -29.9520  -16.5620   20.1390 N   0  0  0  0  0  0  0  0  0  0  0  0
  -25.1830  -13.8770   20.4890 C   0  0  0  0  0  0  0  0  0  0  0  0
  -24.1160  -13.1100   20.8630 C   0  0  0  0  0  0  0  0  0  0  0  0
  -24.5730  -11.7560   20.8370 C   0  0  0  0  0  0  0  0  0  0  0  0
  -26.2180  -12.9920   20.2540 N   0  0  0  0  0  0  0  0  0  0  0  0
  -25.8640  -11.7120   20.5340 N   0  0  0  0  0  0  0  0  0  0  0  0
  -23.8410  -10.4990   21.0280 C   0  0  0  0  0  0  0  0  0  0  0  0
  -24.2750   -9.5290   21.9580 C   0  0  0  0  0  3  0  0  0  0  0  0
  -23.5430   -8.3340   22.1360 C   0  0  0  0  0  3  0  0  0  0  0  0
  -22.3660   -8.1010   21.3850 C   0  0  0  0  0  0  0  0  0  0  0  0
  -21.9500   -9.0650   20.4490 C   0  0  0  0  0  3  0  0  0  0  0  0
  -22.6810  -10.2520   20.2680 C   0  0  0  0  0  3  0  0  0  0  0  0
  -21.6020   -6.9630   21.4770 O   0  0  0  0  0  0  0  0  0  0  0  0
  -21.5580   -6.2200   22.6290 C   0  0  0  0  0  0  0  0  0  0  0  0
  -21.1430   -6.7770   23.8600 C   0  0  0  0  0  3  0  0  0  0  0  0
  -21.0420   -5.9580   25.0040 C   0  0  0  0  0  3  0  0  0  0  0  0
  -21.3460   -4.5880   24.9220 C   0  0  0  0  0  0  0  0  0  0  0  0
  -21.7580   -4.0310   23.6990 C   0  0  0  0  0  3  0  0  0  0  0  0
  -21.8620   -4.8450   22.5550 C   0  0  0  0  0  0  0  0  0  0  0  0
  -22.2340   -4.3030   21.3740 F   0  0  0  0  0  0  0  0  0  0  0  0
  -21.2460   -3.7970   26.0190 F   0  0  0  0  0  0  0  0  0  0  0  0
  -22.7200  -13.5950   21.1280 C   0  0  0  0  0  0  0  0  0  0  0  0
  -21.9850  -12.9140   22.0000 N   0  0  0  0  0  0  0  0  0  0  0  0
  -22.2920  -14.6190   20.6000 O   0  0  0  0  0  0  0  0  0  0  0  0
  -22.3350  -12.0840   22.4510 H   0  0  0  0  0  0  0  0  0  0  0  0
  -21.0560  -13.2440   22.2330 H   0  0  0  0  0  0  0  0  0  0  0  0
  -25.3520  -15.2470   20.2990 N   0  0  0  0  0  0  0  0  0  0  0  0
  -24.5760  -15.8970   20.3870 H   0  0  0  0  0  0  0  0  0  0  0  0
  -26.2030  -15.6790   19.9590 H   0  0  0  0  0  0  0  0  0  0  0  0
  1  4  1  0
  2  9  1  0
  2  3  1  0
  3  6  1  0
  3 51  2  0
  4 10  1  0
  4  6  2  0
  5  1  2  0
  5  2  1  0
  8  9  1  0
  8  7  1  0
  9  7  1  0
 11 22  2  0
 12 10  1  0
 12 17  1  0
 13 21  1  0
 13 23  1  0
 14 20  1  0
 14 16  1  0
 15 21  1  0
 16 15  1  0
 17 16  2  0
 18 19  1  0
 18 12  2  0
 19 14  2  0
 20 13  1  0
 21 11  1  0
 23 25  2  0
 24 23  1  0
 26 24  1  0
 27 36  2  0
 27 32  1  0
 28 24  1  0
 28 32  1  0
 29 28  1  0
 30 31  1  0
 30 29  1  0
 31 27  1  0
 32 33  2  0
 33 34  1  0
 35 34  2  0
 36 35  1  0
 37 11  1  0
 37 38  1  0
 37 47  1  0
 38 41  1  0
 39 43  1  0
 39 38  1  0
 40 39  2  0
 43 42  1  0
 45 43  1  0
 45 46  1  0
 45 44  1  0
 47 50  1  1
 47 48  1  0
 49 47  1  0
 53 58  1  0
 54 55  1  0
 54 53  1  0
 56 55  1  0
 56 67  1  0
 56 57  1  0
 58 52  1  0
 58 57  1  0
 59 52  2  0
 62 61  1  0
 62 51  1  0
 62 60  1  0
 63 61  1  0
 63 52  1  0
 63 60  1  0
 64 65  2  0
 65 84  1  0
 66 65  1  0
 66 69  1  0
 67 64  1  0
 67 68  1  0
 68 66  2  0
 69 70  1  0
 70 71  2  0
 72 75  1  0
 72 71  1  0
 73 72  2  0
 74 73  1  0
 74 69  2  0
 75 76  1  0
 76 77  1  0
 77 78  2  0
 79 78  1  0
 79 83  1  0
 80 79  2  0
 81 76  2  0
 81 80  1  0
 82 81  1  0
 84 85  1  0
 85 88  1  0
 85 87  1  0
 86 84  2  0
 89 90  1  0
 89 64  1  0
 91 89  1  0
M  ISO  4   4 101  10 101  52 100  63 100
M  END
>  <TORSDO>  (2) 
F 18

>  <SCORE>  (2) 
-15.484

>  <name>  (2) 
1

>  <ligand_id>  (2) 
1

>  <original_smiles>  (2) 
[H]c1nc(C2([H])C([H])([H])C2([H])[H])c(C([H])([H])C2([H])C([H])([H])N(C(=O)N3C([H])([H])C([H])([H])C([H])([H])C([H])(n4nc(-c5c([H])c([H])c(Oc6c([H])c([H])c(F)c([H])c6F)c([H])c5[H])c(C(=O)N([H])[H])c4N([H])[H])C3([H])[H])C2([H])[H])nc1Oc1c([H])c([H])c2c(c1[H])C([H])([H])N(C(=O)C([H])(N([H])C(=O)C([H])(N([H])C([H])([H])[H])C([H])([H])[H])C(C([H])([H])[H])(C([H])([H])[H])C([H])([H])[H])C([H])(C(=O)N([H])C1([H])c3c([H])c([H])c([H])c([H])c3C([H])([H])C([H])([H])C1([H])[H])C2([H])[H]

>  <smiles>  (2) 
[H]c1nc(C2([H])C([H])([H])C2([H])[H])c(C([H])([H])C2([H])C([H])([H])N(C(=O)N3C([H])([H])C([H])([H])C([H])([H])C([H])(n4nc(-c5c([H])c([H])c(Oc6c([H])c([H])c(F)c([H])c6F)c([H])c5[H])c(C(=O)N([H])[H])c4N([H])[H])C3([H])[H])C2([H])[H])nc1Oc1c([H])c([H])c2c(c1[H])C([H])([H])N(C(=O)C([H])(N([H])C(=O)C([H])(N([H])C([H])([H])[H])C([H])([H])[H])C(C([H])([H])[H])(C([H])([H])[H])C([H])([H])[H])C([H])(C(=O)N([H])C1([H])c3c([H])c([H])c([H])c([H])c3C([H])([H])C([H])([H])C1([H])[H])C2([H])[H]

$$$$
2:0:0
     RDKit          3D

 91100  0  0  1  0  0  0  0  0999 V2000
  -28.2900  -18.2680   20.2370 C   0  0  0  0  0  3  0  0  0  0  0  0
  -30.2670  -19.9990   20.7550 C   0  0  0  0  0  0  0  0  0  0  0  0
  -29.5680  -17.6560   20.4710 C   0  0  0  0  0  0  0  0  0  0  0  0
  -28.9610  -20.5800   20.4850 C   0  0  0  0  0  0  0  0  0  0  0  0
  -28.0080  -19.6260   20.2290 N   0  0  0  0  0  0  0  0  0  0  0  0
  -30.5440  -18.6090   20.7270 N   0  0  0  0  0  0  0  0  0  0  0  0
  -30.4790  -15.0100   20.3270 C   0  0  0  0  0  0  0  0  0  0  0  0
  -30.3930  -12.6680   19.3350 C   0  0  0  0  0  2  0  0  0  0  0  0
  -29.4280  -12.6170   18.1240 C   0  0  0  0  0  2  0  0  0  0  0  0
  -27.9760  -12.3860   18.5860 C   0  0  0  0  0  2  0  0  0  0  0  0
  -27.5800  -13.3060   19.7670 C   0  0  0  0  0  3  0  0  0  0  0  0
  -28.6530  -13.3040   20.8770 C   0  0  0  0  0  2  0  0  0  0  0  0
  -29.9170  -13.7340   20.2610 N   0  0  0  0  0  0  0  0  0  0  0  0
  -31.6790  -15.1200   20.0490 O   0  0  0  0  0  0  0  0  0  0  0  0
  -29.6030  -16.1170   20.4860 N   0  0  0  0  0  0  0  0  0  0  0  0
  -28.6710  -15.7470   20.5740 H   0  0  0  0  0  0  0  0  0  0  0  0
  -25.2040  -13.8770   20.5430 C   0  0  0  0  0  0  0  0  0  0  0  0
  -24.1450  -13.0970   20.9200 C   0  0  0  0  0  0  0  0  0  0  0  0
  -24.6130  -11.7480   20.8690 C   0  0  0  0  0  0  0  0  0  0  0  0
  -26.2470  -13.0040   20.2810 N   0  0  0  0  0  0  0  0  0  0  0  0
  -25.9010  -11.7180   20.5450 N   0  0  0  0  0  0  0  0  0  0  0  0
  -23.8940  -10.4810   21.0520 C   0  0  0  0  0  0  0  0  0  0  0  0
  -24.3330   -9.5090   21.9800 C   0  0  0  0  0  3  0  0  0  0  0  0
  -23.6110   -8.3080   22.1510 C   0  0  0  0  0  3  0  0  0  0  0  0
  -22.4380   -8.0700   21.3970 C   0  0  0  0  0  0  0  0  0  0  0  0
  -22.0190   -9.0300   20.4600 C   0  0  0  0  0  3  0  0  0  0  0  0
  -22.7390  -10.2230   20.2850 C   0  0  0  0  0  3  0  0  0  0  0  0
  -21.6880   -6.9210   21.4790 O   0  0  0  0  0  0  0  0  0  0  0  0
  -21.6350   -6.1780   22.6310 C   0  0  0  0  0  0  0  0  0  0  0  0
  -21.1700   -6.7220   23.8480 C   0  0  0  0  0  3  0  0  0  0  0  0
  -21.0650   -5.9030   24.9900 C   0  0  0  0  0  3  0  0  0  0  0  0
  -21.4160   -4.5420   24.9180 C   0  0  0  0  0  0  0  0  0  0  0  0
  -21.8750   -3.9980   23.7050 C   0  0  0  0  0  3  0  0  0  0  0  0
  -21.9820   -4.8130   22.5640 C   0  0  0  0  0  0  0  0  0  0  0  0
  -22.4030   -4.2780   21.3930 F   0  0  0  0  0  0  0  0  0  0  0  0
  -21.3090   -3.7540   26.0120 F   0  0  0  0  0  0  0  0  0  0  0  0
  -22.7480  -13.5670   21.2050 C   0  0  0  0  0  0  0  0  0  0  0  0
  -22.0310  -12.8630   22.0730 N   0  0  0  0  0  0  0  0  0  0  0  0
  -22.3020  -14.5930   20.6930 O   0  0  0  0  0  0  0  0  0  0  0  0
  -22.4030  -12.0300   22.5050 H   0  0  0  0  0  0  0  0  0  0  0  0
  -21.0940  -13.1600   22.3080 H   0  0  0  0  0  0  0  0  0  0  0  0
  -25.3590  -15.2490   20.3670 N   0  0  0  0  0  0  0  0  0  0  0  0
  -24.5720  -15.8820   20.4600 H   0  0  0  0  0  0  0  0  0  0  0  0
  -26.1440  -15.6650   19.8850 H   0  0  0  0  0  0  0  0  0  0  0  0
  -31.9180  -22.1070   20.6880 C   0  0  0  0  0  2  0  0  0  0  0  0
  -32.7430  -20.8610   20.5480 C   0  0  0  0  0  2  0  0  0  0  0  0
  -31.4210  -20.8070   21.2830 C   0  0  0  0  0  3  0  0  0  0  0  0
  -28.4030  -21.9410   20.4920 O   0  0  0  0  0  0  0  0  0  0  0  0
  -28.9810  -23.3690   20.5450 C   0  0  0  0  0  3  0  0  0  0  0  0
  -27.9540  -24.7070   20.5490 C   0  0  0  0  0  3  0  0  0  0  0  0
  -28.2670  -26.2250   20.3980 O   0  0  0  0  0  0  0  0  0  0  0  0
  -24.6300  -31.9490   23.2630 C   0  0  0  0  0  0  0  0  0  0  0  0
  -27.2100  -27.2050   20.3130 C   0  0  0  0  0  0  0  0  0  0  0  0
  -23.4340  -30.5470   21.6250 C   0  0  0  0  0  3  0  0  0  0  0  0
  -24.8860  -28.9520   20.2300 C   0  0  0  0  0  0  0  0  0  0  0  0
  -25.9880  -30.8020   21.4730 C   0  0  0  0  0  2  0  0  0  0  0  0
  -26.0590  -29.4020   20.8480 C   0  0  0  0  0  0  0  0  0  0  0  0
  -27.2220  -28.5420   20.8730 C   0  0  0  0  0  3  0  0  0  0  0  0
  -26.0140  -26.8630   19.6360 C   0  0  0  0  0  3  0  0  0  0  0  0
  -24.8770  -27.6980   19.6030 C   0  0  0  0  0  3  0  0  0  0  0  0
  -23.6630  -29.8570   20.2550 C   0  0  0  0  0  2  0  0  0  0  0  0
  -24.7040  -31.1230   22.1760 N   0  0  0  0  0  0  0  0  0  0  0  0
  -23.5420  -32.2420   23.7820 O   0  0  0  0  0  0  0  0  0  0  0  0
  -22.7450  -29.5510   22.5900 C   0  0  0  0  0  0  0  0  0  0  0  0
  -21.4160  -29.3860   22.4540 N   0  0  0  0  0  0  0  0  0  0  0  0
  -23.4060  -28.9290   23.4250 O   0  0  0  0  0  0  0  0  0  0  0  0
  -20.9370  -29.9370   21.7540 H   0  0  0  0  0  0  0  0  0  0  0  0
  -18.0230  -28.2290   22.9590 C   0  0  0  0  0  0  0  0  0  0  0  0
  -20.5840  -28.4650   23.2320 C   0  0  0  0  0  3  0  0  0  0  0  0
  -20.6710  -27.0290   22.6660 C   0  0  0  0  0  2  0  0  0  0  0  0
  -19.5680  -26.7130   21.6500 C   0  0  0  0  0  2  0  0  0  0  0  0
  -18.1860  -26.8760   22.2900 C   0  0  0  0  0  2  0  0  0  0  0  0
  -19.1480  -28.9820   23.3880 C   0  0  0  0  0  0  0  0  0  0  0  0
  -18.9380  -30.2490   23.9760 C   0  0  0  0  0  3  0  0  0  0  0  0
  -17.6370  -30.7620   24.1390 C   0  0  0  0  0  3  0  0  0  0  0  0
  -16.5270  -30.0070   23.7230 C   0  0  0  0  0  3  0  0  0  0  0  0
  -16.7210  -28.7430   23.1390 C   0  0  0  0  0  3  0  0  0  0  0  0
  -25.9080  -32.5820   23.8950 C   0  0  0  0  0  3  0  0  0  0  0  0
  -26.4100  -31.8110   25.1770 C   0  0  1  0  0  0  0  0  0  0  0  0
  -25.3070  -31.5840   26.2380 C   0  0  0  0  0  1  0  0  0  0  0  0
  -26.9900  -30.4290   24.7950 C   0  0  0  0  0  1  0  0  0  0  0  0
  -27.5600  -32.6010   25.8460 C   0  0  0  0  0  1  0  0  0  0  0  0
  -25.6000  -33.9810   24.2240 N   0  0  0  0  0  0  0  0  0  0  0  0
  -25.9190  -35.0330   23.4580 C   0  0  0  0  0  0  0  0  0  0  0  0
  -26.5730  -34.9240   22.4170 O   0  0  0  0  0  0  0  0  0  0  0  0
  -25.0170  -34.1380   25.0330 H   0  0  0  0  0  0  0  0  0  0  0  0
  -24.1810  -36.8230   23.1310 C   0  0  0  0  0  1  0  0  0  0  0  0
  -25.4390  -36.4240   23.9180 C   0  0  0  0  0  3  0  0  0  0  0  0
  -27.5870  -37.3220   24.7020 C   0  0  0  0  0  1  0  0  0  0  0  0
  -26.4670  -37.4790   23.7780 N   0  0  0  0  0  0  0  0  0  0  0  0
  -26.0620  -38.3990   23.9270 H   0  0  0  0  0  0  0  0  0  0  0  0
  1  3  2  0
  2 47  1  0
  3 15  1  0
  3  6  1  0
  4 48  1  0
  4  2  1  0
  5  1  1  0
  5  4  2  0
  6  2  2  0
  7 15  1  0
  8 13  1  0
  9 10  1  0
  9  8  1  0
 11 10  1  0
 11 20  1  0
 11 12  1  0
 13  7  1  0
 13 12  1  0
 14  7  2  0
 15 16  1  0
 17 18  2  0
 18 37  1  0
 19 18  1  0
 19 22  1  0
 20 17  1  0
 20 21  1  0
 21 19  2  0
 22 23  1  0
 23 24  2  0
 25 28  1  0
 25 24  1  0
 26 25  2  0
 27 26  1  0
 27 22  2  0
 28 29  1  0
 29 30  1  0
 30 31  2  0
 32 31  1  0
 32 36  1  0
 33 32  2  0
 34 29  2  0
 34 33  1  0
 35 34  1  0
 37 38  1  0
 38 41  1  0
 38 40  1  0
 39 37  2  0
 42 43  1  0
 42 17  1  0
 44 42  1  0
 45 47  1  0
 46 45  1  0
 46 47  1  0
 48 49  1  0
 49 50  2  0
 51 50  1  0
 52 63  2  0
 53 51  1  0
 53 58  1  0
 54 62  1  0
 54 64  1  0
 55 61  1  0
 55 57  1  0
 56 62  1  0
 57 58  2  0
 57 56  1  0
 59 53  2  0
 60 59  1  0
 60 55  2  0
 61 54  1  0
 62 52  1  0
 64 66  2  0
 65 64  1  0
 67 65  1  0
 68 77  2  0
 68 73  1  0
 69 65  1  0
 69 73  1  0
 70 69  1  0
 71 72  1  0
 71 70  1  0
 72 68  1  0
 73 74  2  0
 74 75  1  0
 76 75  2  0
 77 76  1  0
 78 52  1  0
 78 83  1  0
 78 79  1  0
 79 82  1  1
 79 80  1  0
 81 79  1  0
 83 86  1  0
 84 88  1  0
 84 83  1  0
 85 84  2  0
 88 87  1  0
 90 88  1  0
 90 91  1  0
 90 89  1  0
M  ISO  4   7 100  15 100  50 101  51 101
M  END
>  <TORSDO>  (3) 
F 20

>  <SCORE>  (3) 
-14.146

>  <name>  (3) 
2

>  <ligand_id>  (3) 
2

>  <original_smiles>  (3) 
[H]c1nc(OC([H])([H])C([H])([H])Oc2c([H])c([H])c3c(c2[H])C([H])([H])N(C(=O)C([H])(N([H])C(=O)C([H])(N([H])C([H])([H])[H])C([H])([H])[H])C(C([H])([H])[H])(C([H])([H])[H])C([H])([H])[H])C([H])(C(=O)N([H])C2([H])c4c([H])c([H])c([H])c([H])c4C([H])([H])C([H])([H])C2([H])[H])C3([H])[H])c(C2([H])C([H])([H])C2([H])[H])nc1N([H])C(=O)N1C([H])([H])C([H])([H])C([H])([H])C([H])(n2nc(-c3c([H])c([H])c(Oc4c([H])c([H])c(F)c([H])c4F)c([H])c3[H])c(C(=O)N([H])[H])c2N([H])[H])C1([H])[H]

>  <smiles>  (3) 
[H]c1nc(OC([H])([H])C([H])([H])Oc2c([H])c([H])c3c(c2[H])C([H])([H])N(C(=O)C([H])(N([H])C(=O)C([H])(N([H])C([H])([H])[H])C([H])([H])[H])C(C([H])([H])[H])(C([H])([H])[H])C([H])([H])[H])C([H])(C(=O)N([H])C2([H])c4c([H])c([H])c([H])c([H])c4C([H])([H])C([H])([H])C2([H])[H])C3([H])[H])c(C2([H])C([H])([H])C2([H])[H])nc1N([H])C(=O)N1C([H])([H])C([H])([H])C([H])([H])C([H])(n2nc(-c3c([H])c([H])c(Oc4c([H])c([H])c(F)c([H])c4F)c([H])c3[H])c(C(=O)N([H])[H])c2N([H])[H])C1([H])[H]

$$$$
3:0:0
     RDKit          3D

 87 97  0  0  1  0  0  0  0  0999 V2000
  -29.7790  -22.1490   20.5740 C   0  0  0  0  0  2  0  0  0  0  0  0
  -27.3860  -23.1250   19.9660 C   0  0  0  0  0  2  0  0  0  0  0  0
  -28.8660  -21.0350   20.2590 C   0  0  0  0  0  0  0  0  0  0  0  0
  -28.3050  -24.2340   20.2870 C   0  0  0  0  0  0  0  0  0  0  0  0
  -27.6440  -21.6930   19.9570 N   0  0  0  0  0  0  0  0  0  0  0  0
  -29.5250  -23.5760   20.5760 N   0  0  0  0  0  0  0  0  0  0  0  0
  -30.3880  -15.4970   20.1230 C   0  0  0  0  0  0  0  0  0  0  0  0
  -30.3860  -13.0160   19.2590 C   0  0  0  0  0  2  0  0  0  0  0  0
  -29.4470  -12.7370   18.0570 C   0  0  0  0  0  2  0  0  0  0  0  0
  -28.0230  -12.4230   18.5420 C   0  0  0  0  0  2  0  0  0  0  0  0
  -27.5750  -13.3870   19.6680 C   0  0  0  0  0  3  0  0  0  0  0  0
  -28.6480  -13.6120   20.7560 C   0  0  0  0  0  2  0  0  0  0  0  0
  -29.8290  -14.1700   20.0750 N   0  0  0  0  0  0  0  0  0  0  0  0
  -31.6060  -15.4570   19.8800 O   0  0  0  0  0  0  0  0  0  0  0  0
  -29.2500  -17.9600   19.2820 C   0  0  0  0  0  3  0  0  0  0  0  0
  -30.1350  -18.1520   21.0270 C   0  0  0  0  0  3  0  0  0  0  0  0
  -29.0940  -19.2340   20.3320 C   0  0  0  0  0  3  0  0  0  0  0  0
  -29.6740  -16.8310   20.2970 N   0  0  0  0  0  0  0  0  0  0  0  0
  -25.2400  -13.9020   20.5300 C   0  0  0  0  0  0  0  0  0  0  0  0
  -24.1940  -13.1100   20.9110 C   0  0  0  0  0  0  0  0  0  0  0  0
  -24.6670  -11.7640   20.8300 C   0  0  0  0  0  0  0  0  0  0  0  0
  -26.2750  -13.0400   20.2230 N   0  0  0  0  0  0  0  0  0  0  0  0
  -25.9460  -11.7440   20.4720 N   0  0  0  0  0  0  0  0  0  0  0  0
  -23.9500  -10.4940   21.0120 C   0  0  0  0  0  0  0  0  0  0  0  0
  -24.3810   -9.5270   21.9480 C   0  0  0  0  0  3  0  0  0  0  0  0
  -23.6610   -8.3250   22.1200 C   0  0  0  0  0  3  0  0  0  0  0  0
  -22.4940   -8.0810   21.3570 C   0  0  0  0  0  0  0  0  0  0  0  0
  -22.0810   -9.0360   20.4120 C   0  0  0  0  0  3  0  0  0  0  0  0
  -22.8030  -10.2290   20.2370 C   0  0  0  0  0  3  0  0  0  0  0  0
  -21.7450   -6.9320   21.4390 O   0  0  0  0  0  0  0  0  0  0  0  0
  -21.6490   -6.2170   22.6060 C   0  0  0  0  0  0  0  0  0  0  0  0
  -21.1260   -6.7850   23.7880 C   0  0  0  0  0  3  0  0  0  0  0  0
  -20.9800   -5.9940   24.9460 C   0  0  0  0  0  3  0  0  0  0  0  0
  -21.3480   -4.6350   24.9220 C   0  0  0  0  0  0  0  0  0  0  0  0
  -21.8640   -4.0670   23.7430 C   0  0  0  0  0  3  0  0  0  0  0  0
  -22.0120   -4.8540   22.5890 C   0  0  0  0  0  0  0  0  0  0  0  0
  -22.4890   -4.2950   21.4510 F   0  0  0  0  0  0  0  0  0  0  0  0
  -21.2020   -3.8730   26.0300 F   0  0  0  0  0  0  0  0  0  0  0  0
  -22.8050  -13.5740   21.2370 C   0  0  0  0  0  0  0  0  0  0  0  0
  -22.1070  -12.8540   22.1070 N   0  0  0  0  0  0  0  0  0  0  0  0
  -22.3490  -14.6120   20.7550 O   0  0  0  0  0  0  0  0  0  0  0  0
  -22.4900  -12.0160   22.5180 H   0  0  0  0  0  0  0  0  0  0  0  0
  -21.1750  -13.1450   22.3660 H   0  0  0  0  0  0  0  0  0  0  0  0
  -25.3940  -15.2790   20.3910 N   0  0  0  0  0  0  0  0  0  0  0  0
  -24.6410  -15.9320   20.5760 H   0  0  0  0  0  0  0  0  0  0  0  0
  -26.2520  -15.7330   20.1070 H   0  0  0  0  0  0  0  0  0  0  0  0
  -28.2290  -25.8110   20.3000 O   0  0  0  0  0  0  0  0  0  0  0  0
  -24.6400  -31.8760   23.2600 C   0  0  0  0  0  0  0  0  0  0  0  0
  -27.1830  -26.9090   20.2710 C   0  0  0  0  0  0  0  0  0  0  0  0
  -23.4500  -30.4820   21.6190 C   0  0  0  0  0  3  0  0  0  0  0  0
  -24.8970  -28.8520   20.2060 C   0  0  0  0  0  0  0  0  0  0  0  0
  -26.0210  -30.6600   21.4900 C   0  0  0  0  0  2  0  0  0  0  0  0
  -26.0850  -29.2380   20.8400 C   0  0  0  0  0  0  0  0  0  0  0  0
  -27.2130  -28.2880   20.8450 C   0  0  0  0  0  3  0  0  0  0  0  0
  -25.9670  -26.6980   19.5810 C   0  0  0  0  0  3  0  0  0  0  0  0
  -24.8700  -27.6050   19.5570 C   0  0  0  0  0  3  0  0  0  0  0  0
  -23.6860  -29.7880   20.2470 C   0  0  0  0  0  2  0  0  0  0  0  0
  -24.7270  -31.0370   22.1760 N   0  0  0  0  0  0  0  0  0  0  0  0
  -23.5490  -32.1750   23.7730 O   0  0  0  0  0  0  0  0  0  0  0  0
  -22.7430  -29.4970   22.5850 C   0  0  0  0  0  0  0  0  0  0  0  0
  -21.4180  -29.3130   22.4310 N   0  0  0  0  0  0  0  0  0  0  0  0
  -23.3950  -28.8960   23.4420 O   0  0  0  0  0  0  0  0  0  0  0  0
  -20.9430  -29.8480   21.7160 H   0  0  0  0  0  0  0  0  0  0  0  0
  -18.0470  -28.0340   22.8630 C   0  0  0  0  0  0  0  0  0  0  0  0
  -20.5910  -28.3730   23.1960 C   0  0  0  0  0  3  0  0  0  0  0  0
  -20.7440  -26.9310   22.6560 C   0  0  0  0  0  2  0  0  0  0  0  0
  -19.6830  -26.5610   21.6140 C   0  0  0  0  0  2  0  0  0  0  0  0
  -18.2800  -26.6800   22.2140 C   0  0  0  0  0  2  0  0  0  0  0  0
  -19.1330  -28.8370   23.3080 C   0  0  0  0  0  0  0  0  0  0  0  0
  -18.8590  -30.1000   23.8730 C   0  0  0  0  0  3  0  0  0  0  0  0
  -17.5360  -30.5640   23.9960 C   0  0  0  0  0  3  0  0  0  0  0  0
  -16.4660  -29.7610   23.5630 C   0  0  0  0  0  3  0  0  0  0  0  0
  -16.7230  -28.4970   23.0030 C   0  0  0  0  0  3  0  0  0  0  0  0
  -25.9080  -32.5180   23.9030 C   0  0  0  0  0  3  0  0  0  0  0  0
  -25.5930  -33.9200   24.2360 N   0  0  0  0  0  0  0  0  0  0  0  0
  -25.9080  -34.9800   23.4780 C   0  0  0  0  0  0  0  0  0  0  0  0
  -26.5540  -34.8790   22.4330 O   0  0  0  0  0  0  0  0  0  0  0  0
  -25.0150  -34.0710   25.0500 H   0  0  0  0  0  0  0  0  0  0  0  0
  -24.1620  -36.7730   23.1980 C   0  0  0  0  0  1  0  0  0  0  0  0
  -25.4390  -36.3720   23.9530 C   0  0  0  0  0  3  0  0  0  0  0  0
  -27.5810  -37.3000   24.7150 C   0  0  0  0  0  1  0  0  0  0  0  0
  -26.4690  -37.4180   23.7750 N   0  0  0  0  0  0  0  0  0  0  0  0
  -26.0690  -38.3490   23.8590 H   0  0  0  0  0  0  0  0  0  0  0  0
  -26.4020  -31.7570   25.1960 C   0  0  1  0  0  0  0  0  0  0  0  0
  -25.2910  -31.5300   26.2490 C   0  0  0  0  0  1  0  0  0  0  0  0
  -26.9880  -30.3730   24.8340 C   0  0  0  0  0  1  0  0  0  0  0  0
  -27.5430  -32.5530   25.8720 C   0  0  0  0  0  1  0  0  0  0  0  0
  1  6  1  0
  2  4  1  0
  3  1  1  0
  4 47  1  0
  4  6  2  0
  5  2  1  0
  5  3  2  0
  7 18  1  0
  8 13  1  0
  9 10  1  0
  9  8  1  0
 11 10  1  0
 11 22  1  0
 11 12  1  0
 13  7  1  0
 13 12  1  0
 14  7  2  0
 15 18  1  0
 15 17  1  0
 15 16  1  0
 16 18  1  0
 17  3  1  0
 17 16  1  0
 19 20  2  0
 20 39  1  0
 21 20  1  0
 21 24  1  0
 22 23  1  0
 22 19  1  0
 23 21  2  0
 24 25  1  0
 25 26  2  0
 27 30  1  0
 27 26  1  0
 28 27  2  0
 29 28  1  0
 29 24  2  0
 30 31  1  0
 31 32  1  0
 32 33  2  0
 34 33  1  0
 34 38  1  0
 35 34  2  0
 36 31  2  0
 36 35  1  0
 37 36  1  0
 39 40  1  0
 40 43  1  0
 40 42  1  0
 41 39  2  0
 44 19  1  0
 44 45  1  0
 46 44  1  0
 48 59  2  0
 49 47  1  0
 49 54  1  0
 50 58  1  0
 50 60  1  0
 51 57  1  0
 51 53  1  0
 52 58  1  0
 53 54  2  0
 53 52  1  0
 55 49  2  0
 56 55  1  0
 56 51  2  0
 57 50  1  0
 58 48  1  0
 60 62  2  0
 61 60  1  0
 63 61  1  0
 64 73  2  0
 64 69  1  0
 65 61  1  0
 65 69  1  0
 66 65  1  0
 67 68  1  0
 67 66  1  0
 68 64  1  0
 69 70  2  0
 70 71  1  0
 72 71  2  0
 73 72  1  0
 74 48  1  0
 74 75  1  0
 74 84  1  0
 75 78  1  0
 76 80  1  0
 76 75  1  0
 77 76  2  0
 80 79  1  0
 82 83  1  0
 82 80  1  0
 82 81  1  0
 84 87  1  1
 84 85  1  0
 86 84  1  0
M  ISO  4   4 101   7 100  18 100  47 101
M  END
>  <TORSDO>  (4) 
F 16

>  <SCORE>  (4) 
-15.915

>  <name>  (4) 
3

>  <ligand_id>  (4) 
3

>  <original_smiles>  (4) 
[H]c1nc(C2([H])C([H])([H])N(C(=O)N3C([H])([H])C([H])([H])C([H])([H])C([H])(n4nc(-c5c([H])c([H])c(Oc6c([H])c([H])c(F)c([H])c6F)c([H])c5[H])c(C(=O)N([H])[H])c4N([H])[H])C3([H])[H])C2([H])[H])c([H])nc1Oc1c([H])c([H])c2c(c1[H])C([H])([H])N(C(=O)C([H])(N([H])C(=O)C([H])(N([H])C([H])([H])[H])C([H])([H])[H])C(C([H])([H])[H])(C([H])([H])[H])C([H])([H])[H])C([H])(C(=O)N([H])C1([H])c3c([H])c([H])c([H])c([H])c3C([H])([H])C([H])([H])C1([H])[H])C2([H])[H]

>  <smiles>  (4) 
[H]c1nc(C2([H])C([H])([H])N(C(=O)N3C([H])([H])C([H])([H])C([H])([H])C([H])(n4nc(-c5c([H])c([H])c(Oc6c([H])c([H])c(F)c([H])c6F)c([H])c5[H])c(C(=O)N([H])[H])c4N([H])[H])C3([H])[H])C2([H])[H])c([H])nc1Oc1c([H])c([H])c2c(c1[H])C([H])([H])N(C(=O)C([H])(N([H])C(=O)C([H])(N([H])C([H])([H])[H])C([H])([H])[H])C(C([H])([H])[H])(C([H])([H])[H])C([H])([H])[H])C([H])(C(=O)N([H])C1([H])c3c([H])c([H])c([H])c([H])c3C([H])([H])C([H])([H])C1([H])[H])C2([H])[H]

$$$$
4:0:0
     RDKit          3D

 91100  0  0  1  0  0  0  0  0999 V2000
  -29.9260  -21.2960   19.9980 C   0  0  0  0  0  3  0  0  0  0  0  0
  -29.4470  -19.9620   20.0240 C   0  0  0  0  0  0  0  0  0  0  0  0
  -27.7490  -21.4890   19.8480 C   0  0  0  0  0  3  0  0  0  0  0  0
  -26.3400  -21.9570   19.6610 C   0  0  0  0  0  1  0  0  0  0  0  0
  -28.8740  -22.2430   19.8690 N   0  0  0  0  0  0  0  0  0  0  0  0
  -28.0900  -20.1770   19.9590 N   0  0  0  0  0  0  0  0  0  0  0  0
  -27.4090  -19.4250   19.9610 H   0  0  0  0  0  0  0  0  0  0  0  0
  -30.8400  -15.0880   20.0720 C   0  0  0  0  0  0  0  0  0  0  0  0
  -30.6760  -12.7470   19.1680 C   0  0  0  0  0  2  0  0  0  0  0  0
  -29.7210  -12.7130   17.9510 C   0  0  0  0  0  2  0  0  0  0  0  0
  -28.2660  -12.5290   18.4160 C   0  0  0  0  0  2  0  0  0  0  0  0
  -27.8870  -13.4970   19.5670 C   0  0  0  0  0  3  0  0  0  0  0  0
  -28.9490  -13.5060   20.6860 C   0  0  0  0  0  2  0  0  0  0  0  0
  -30.2290  -13.8490   20.0570 N   0  0  0  0  0  0  0  0  0  0  0  0
  -32.0340  -15.1610   19.7620 O   0  0  0  0  0  0  0  0  0  0  0  0
  -29.8780  -17.3280   21.1150 C   0  0  0  0  0  2  0  0  0  0  0  0
  -29.9740  -17.3280   19.0340 C   0  0  0  0  0  2  0  0  0  0  0  0
  -30.1140  -18.4870   20.0790 C   0  0  0  0  0  3  0  0  0  0  0  0
  -30.0310  -16.2440   20.0790 N   0  0  0  0  0  0  0  0  0  0  0  0
  -25.5260  -14.1330   20.3320 C   0  0  0  0  0  0  0  0  0  0  0  0
  -24.4530  -13.3790   20.7230 C   0  0  0  0  0  0  0  0  0  0  0  0
  -24.8950  -12.0200   20.6970 C   0  0  0  0  0  0  0  0  0  0  0  0
  -26.5490  -13.2340   20.0850 N   0  0  0  0  0  0  0  0  0  0  0  0
  -26.1810  -11.9590   20.3720 N   0  0  0  0  0  0  0  0  0  0  0  0
  -24.1520  -10.7700   20.9070 C   0  0  0  0  0  0  0  0  0  0  0  0
  -24.5600   -9.8200   21.8680 C   0  0  0  0  0  3  0  0  0  0  0  0
  -23.8160   -8.6370   22.0650 C   0  0  0  0  0  3  0  0  0  0  0  0
  -22.6510   -8.3950   21.2990 C   0  0  0  0  0  0  0  0  0  0  0  0
  -22.2640   -9.3310   20.3260 C   0  0  0  0  0  3  0  0  0  0  0  0
  -23.0080  -10.5070   20.1270 C   0  0  0  0  0  3  0  0  0  0  0  0
  -21.8800   -7.2610   21.4030 O   0  0  0  0  0  0  0  0  0  0  0  0
  -21.8010   -6.5490   22.5740 C   0  0  0  0  0  0  0  0  0  0  0  0
  -21.3070   -7.1280   23.7650 C   0  0  0  0  0  3  0  0  0  0  0  0
  -21.1760   -6.3420   24.9270 C   0  0  0  0  0  3  0  0  0  0  0  0
  -21.5280   -4.9780   24.9000 C   0  0  0  0  0  0  0  0  0  0  0  0
  -22.0150   -4.4000   23.7140 C   0  0  0  0  0  3  0  0  0  0  0  0
  -22.1470   -5.1840   22.5540 C   0  0  0  0  0  0  0  0  0  0  0  0
  -22.5960   -4.6180   21.4070 F   0  0  0  0  0  0  0  0  0  0  0  0
  -21.3950   -4.2210   26.0130 F   0  0  0  0  0  0  0  0  0  0  0  0
  -23.0680  -13.8800   21.0050 C   0  0  0  0  0  0  0  0  0  0  0  0
  -22.3400  -13.2070   21.8900 N   0  0  0  0  0  0  0  0  0  0  0  0
  -22.6380  -14.9030   20.4750 O   0  0  0  0  0  0  0  0  0  0  0  0
  -22.7020  -12.3820   22.3430 H   0  0  0  0  0  0  0  0  0  0  0  0
  -21.4100  -13.5240   22.1180 H   0  0  0  0  0  0  0  0  0  0  0  0
  -25.7150  -15.4980   20.1390 N   0  0  0  0  0  0  0  0  0  0  0  0
  -24.9630  -16.1690   20.2510 H   0  0  0  0  0  0  0  0  0  0  0  0
  -26.5770  -15.9100   19.8000 H   0  0  0  0  0  0  0  0  0  0  0  0
  -28.9340  -23.8000   19.5420 C   0  0  0  0  0  2  0  0  0  0  0  0
  -27.4030  -24.7970   21.4920 C   0  0  0  0  0  1  0  0  0  0  0  0
  -28.5940  -25.0700   20.5510 C   0  0  0  0  0  3  0  0  0  0  0  0
  -28.6410  -26.5470   20.1150 O   0  0  0  0  0  0  0  0  0  0  0  0
  -24.6210  -31.7890   23.2420 C   0  0  0  0  0  0  0  0  0  0  0  0
  -27.5130  -27.4120   20.0880 C   0  0  0  0  0  0  0  0  0  0  0  0
  -23.5320  -30.4050   21.5130 C   0  0  0  0  0  3  0  0  0  0  0  0
  -25.0920  -28.9790   20.0620 C   0  0  0  0  0  0  0  0  0  0  0  0
  -26.0630  -30.8360   21.4160 C   0  0  0  0  0  2  0  0  0  0  0  0
  -26.2270  -29.4810   20.7130 C   0  0  0  0  0  0  0  0  0  0  0  0
  -27.4410  -28.7140   20.7100 C   0  0  0  0  0  3  0  0  0  0  0  0
  -26.3610  -26.9950   19.3930 C   0  0  0  0  0  3  0  0  0  0  0  0
  -25.1670  -27.7470   19.3870 C   0  0  0  0  0  3  0  0  0  0  0  0
  -23.8190  -29.8050   20.1100 C   0  0  0  0  0  2  0  0  0  0  0  0
  -24.7550  -31.0300   22.1140 N   0  0  0  0  0  0  0  0  0  0  0  0
  -23.5120  -31.9940   23.7570 O   0  0  0  0  0  0  0  0  0  0  0  0
  -22.8910  -29.3180   22.4110 C   0  0  0  0  0  0  0  0  0  0  0  0
  -21.5790  -29.0860   22.2420 N   0  0  0  0  0  0  0  0  0  0  0  0
  -23.5770  -28.6900   23.2220 O   0  0  0  0  0  0  0  0  0  0  0  0
  -21.0840  -29.6500   21.5660 H   0  0  0  0  0  0  0  0  0  0  0  0
  -18.2400  -27.7320   22.6190 C   0  0  0  0  0  0  0  0  0  0  0  0
  -20.7830  -28.0740   22.9430 C   0  0  0  0  0  3  0  0  0  0  0  0
  -20.9490  -26.6830   22.2890 C   0  0  0  0  0  2  0  0  0  0  0  0
  -19.8740  -26.3770   21.2410 C   0  0  0  0  0  2  0  0  0  0  0  0
  -18.4780  -26.4290   21.8700 C   0  0  0  0  0  2  0  0  0  0  0  0
  -19.3230  -28.5120   23.1060 C   0  0  0  0  0  0  0  0  0  0  0  0
  -19.0470  -29.7300   23.7650 C   0  0  0  0  0  3  0  0  0  0  0  0
  -17.7220  -30.1710   23.9400 C   0  0  0  0  0  3  0  0  0  0  0  0
  -16.6530  -29.3860   23.4690 C   0  0  0  0  0  3  0  0  0  0  0  0
  -16.9130  -28.1680   22.8150 C   0  0  0  0  0  3  0  0  0  0  0  0
  -25.8530  -32.4560   23.9280 C   0  0  0  0  0  3  0  0  0  0  0  0
  -25.5010  -33.8520   24.2180 N   0  0  0  0  0  0  0  0  0  0  0  0
  -25.8460  -34.9010   23.4570 C   0  0  0  0  0  0  0  0  0  0  0  0
  -26.5620  -34.7960   22.4570 O   0  0  0  0  0  0  0  0  0  0  0  0
  -24.8690  -34.0040   24.9890 H   0  0  0  0  0  0  0  0  0  0  0  0
  -24.0980  -36.6520   23.0040 C   0  0  0  0  0  1  0  0  0  0  0  0
  -25.3120  -36.2860   23.8710 C   0  0  0  0  0  3  0  0  0  0  0  0
  -27.3840  -37.2400   24.7820 C   0  0  0  0  0  1  0  0  0  0  0  0
  -26.3280  -37.3590   23.7800 N   0  0  0  0  0  0  0  0  0  0  0  0
  -25.8960  -38.2730   23.8860 H   0  0  0  0  0  0  0  0  0  0  0  0
  -26.3030  -31.7150   25.2460 C   0  0  1  0  0  0  0  0  0  0  0  0
  -25.1480  -31.4690   26.2460 C   0  0  0  0  0  1  0  0  0  0  0  0
  -26.9390  -30.3450   24.9120 C   0  0  0  0  0  1  0  0  0  0  0  0
  -27.3930  -32.5460   25.9670 C   0  0  0  0  0  1  0  0  0  0  0  0
  1  2  2  0
  3  4  1  0
  3  5  1  0
  3  6  1  0
  5  1  1  0
  6  7  1  0
  6  2  1  0
  8 19  1  0
  9 14  1  0
 10 11  1  0
 10  9  1  0
 12 11  1  0
 12 23  1  0
 12 13  1  0
 14  8  1  0
 14 13  1  0
 15  8  2  0
 17 18  1  0
 17 19  1  0
 18  2  1  0
 18 16  1  0
 19 16  1  0
 20 21  2  0
 21 40  1  0
 22 21  1  0
 22 25  1  0
 23 20  1  0
 23 24  1  0
 24 22  2  0
 25 26  1  0
 26 27  2  0
 28 31  1  0
 28 27  1  0
 29 28  2  0
 30 29  1  0
 30 25  2  0
 31 32  1  0
 32 33  1  0
 33 34  2  0
 35 34  1  0
 35 39  1  0
 36 35  2  0
 37 32  2  0
 37 36  1  0
 38 37  1  0
 40 41  1  0
 41 44  1  0
 41 43  1  0
 42 40  2  0
 45 46  1  0
 45 20  1  0
 47 45  1  0
 48  5  1  0
 48 50  1  0
 50 49  1  0
 51 50  1  0
 52 63  2  0
 53 51  1  0
 53 58  1  0
 54 62  1  0
 54 64  1  0
 55 61  1  0
 55 57  1  0
 56 62  1  0
 57 56  1  0
 58 57  2  0
 59 53  2  0
 60 59  1  0
 60 55  2  0
 61 54  1  0
 62 52  1  0
 64 66  2  0
 65 64  1  0
 67 65  1  0
 68 77  2  0
 68 73  1  0
 69 65  1  0
 69 73  1  0
 70 69  1  0
 71 72  1  0
 71 70  1  0
 72 68  1  0
 73 74  2  0
 74 75  1  0
 76 75  2  0
 77 76  1  0
 78 52  1  0
 78 79  1  0
 78 88  1  0
 79 82  1  0
 80 84  1  0
 80 79  1  0
 81 80  2  0
 84 83  1  0
 86 84  1  0
 86 87  1  0
 86 85  1  0
 88 91  1  1
 88 89  1  0
 90 88  1  0
M  ISO  4   8 100  19 100  50 101  51 101
M  END
>  <TORSDO>  (5) 
F 18

>  <SCORE>  (5) 
-14.161

>  <name>  (5) 
4

>  <ligand_id>  (5) 
4

>  <original_smiles>  (5) 
[H]c1c([H])c([H])c2c(c1[H])C([H])([H])C([H])([H])C([H])([H])C2([H])N([H])C(=O)C1([H])N(C(=O)C([H])(N([H])C(=O)C([H])(N([H])C([H])([H])[H])C([H])([H])[H])C(C([H])([H])[H])(C([H])([H])[H])C([H])([H])[H])C([H])([H])c2c([H])c(OC([H])(C([H])([H])[H])C([H])([H])n3c([H])c(C4([H])C([H])([H])N(C(=O)N5C([H])([H])C([H])([H])C([H])([H])C([H])(n6nc(-c7c([H])c([H])c(Oc8c([H])c([H])c(F)c([H])c8F)c([H])c7[H])c(C(=O)N([H])[H])c6N([H])[H])C5([H])[H])C4([H])[H])[n+]([H])c3C([H])([H])[H])c([H])c([H])c2C1([H])[H]

>  <smiles>  (5) 
[H]c1c([H])c([H])c2c(c1[H])C([H])([H])C([H])([H])C([H])([H])C2([H])N([H])C(=O)C1([H])N(C(=O)C([H])(N([H])C(=O)C([H])(N([H])C([H])([H])[H])C([H])([H])[H])C(C([H])([H])[H])(C([H])([H])[H])C([H])([H])[H])C([H])([H])c2c([H])c(OC([H])(C([H])([H])[H])C([H])([H])n3c([H])c(C4([H])C([H])([H])N(C(=O)N5C([H])([H])C([H])([H])C([H])([H])C([H])(n6nc(-c7c([H])c([H])c(Oc8c([H])c([H])c(F)c([H])c8F)c([H])c7[H])c(C(=O)N([H])[H])c6N([H])[H])C5([H])[H])C4([H])[H])[n+]([H])c3C([H])([H])[H])c([H])c([H])c2C1([H])[H]

$$$$
5:0:0
     RDKit          3D

 85 93  0  0  1  0  0  0  0  0999 V2000
  -28.9040  -22.5320   20.3660 C   0  0  0  0  0  3  0  0  0  0  0  0
  -30.4260  -15.5300   20.0610 C   0  0  0  0  0  0  0  0  0  0  0  0
  -30.3600  -13.0510   19.2020 C   0  0  0  0  0  2  0  0  0  0  0  0
  -29.4280  -12.7440   18.0030 C   0  0  0  0  0  2  0  0  0  0  0  0
  -28.0090  -12.4310   18.4970 C   0  0  0  0  0  2  0  0  0  0  0  0
  -27.5570  -13.4170   19.6030 C   0  0  0  0  0  3  0  0  0  0  0  0
  -28.6270  -13.6750   20.6880 C   0  0  0  0  0  2  0  0  0  0  0  0
  -29.8030  -14.2310   19.9900 N   0  0  0  0  0  0  0  0  0  0  0  0
  -31.6440  -15.3990   19.8390 O   0  0  0  0  0  0  0  0  0  0  0  0
  -28.3480  -19.3880   20.7820 C   0  0  0  0  0  2  0  0  0  0  0  0
  -30.3450  -19.8460   19.8660 C   0  0  0  0  0  2  0  0  0  0  0  0
  -28.5350  -17.7050   20.4350 C   0  0  0  0  0  2  0  0  0  0  0  0
  -30.5650  -18.2090   19.4690 C   0  0  0  0  0  2  0  0  0  0  0  0
  -28.9390  -20.7010   19.9390 C   0  0  0  0  0  3  0  0  0  0  0  0
  -29.8530  -16.9530   20.0620 N   0  0  0  0  0  0  0  0  0  0  0  0
  -25.2190  -13.9350   20.4490 C   0  0  0  0  0  0  0  0  0  0  0  0
  -24.1740  -13.1450   20.8360 C   0  0  0  0  0  0  0  0  0  0  0  0
  -24.6490  -11.7980   20.7730 C   0  0  0  0  0  0  0  0  0  0  0  0
  -26.2580  -13.0720   20.1600 N   0  0  0  0  0  0  0  0  0  0  0  0
  -25.9330  -11.7790   20.4240 N   0  0  0  0  0  0  0  0  0  0  0  0
  -23.9350  -10.5290   20.9650 C   0  0  0  0  0  0  0  0  0  0  0  0
  -24.3720   -9.5680   21.9040 C   0  0  0  0  0  3  0  0  0  0  0  0
  -23.6530   -8.3680   22.0870 C   0  0  0  0  0  3  0  0  0  0  0  0
  -22.4840   -8.1180   21.3300 C   0  0  0  0  0  0  0  0  0  0  0  0
  -22.0670   -9.0660   20.3800 C   0  0  0  0  0  3  0  0  0  0  0  0
  -22.7860  -10.2580   20.1950 C   0  0  0  0  0  3  0  0  0  0  0  0
  -21.7360   -6.9680   21.4220 O   0  0  0  0  0  0  0  0  0  0  0  0
  -21.6520   -6.2550   22.5920 C   0  0  0  0  0  0  0  0  0  0  0  0
  -21.1480   -6.8290   23.7790 C   0  0  0  0  0  3  0  0  0  0  0  0
  -21.0140   -6.0410   24.9400 C   0  0  0  0  0  3  0  0  0  0  0  0
  -21.3730   -4.6810   24.9140 C   0  0  0  0  0  0  0  0  0  0  0  0
  -21.8700   -4.1060   23.7300 C   0  0  0  0  0  3  0  0  0  0  0  0
  -22.0050   -4.8910   22.5720 C   0  0  0  0  0  0  0  0  0  0  0  0
  -22.4650   -4.3270   21.4290 F   0  0  0  0  0  0  0  0  0  0  0  0
  -21.2380   -3.9220   26.0260 F   0  0  0  0  0  0  0  0  0  0  0  0
  -22.7820  -13.6090   21.1450 C   0  0  0  0  0  0  0  0  0  0  0  0
  -22.0820  -12.9040   22.0240 N   0  0  0  0  0  0  0  0  0  0  0  0
  -22.3260  -14.6360   20.6430 O   0  0  0  0  0  0  0  0  0  0  0  0
  -22.4660  -12.0730   22.4520 H   0  0  0  0  0  0  0  0  0  0  0  0
  -21.1490  -13.1980   22.2780 H   0  0  0  0  0  0  0  0  0  0  0  0
  -25.3670  -15.3100   20.2840 N   0  0  0  0  0  0  0  0  0  0  0  0
  -24.6010  -15.9580   20.4330 H   0  0  0  0  0  0  0  0  0  0  0  0
  -26.2050  -15.7580   19.9410 H   0  0  0  0  0  0  0  0  0  0  0  0
  -27.9840  -24.1150   19.9990 C   0  0  0  0  0  3  0  0  0  0  0  0
  -28.1630  -25.7820   20.2860 O   0  0  0  0  0  0  0  0  0  0  0  0
  -24.6520  -31.8790   23.2550 C   0  0  0  0  0  0  0  0  0  0  0  0
  -27.1750  -26.9330   20.2130 C   0  0  0  0  0  0  0  0  0  0  0  0
  -23.4540  -30.4980   21.6080 C   0  0  0  0  0  3  0  0  0  0  0  0
  -24.8970  -28.8820   20.1740 C   0  0  0  0  0  0  0  0  0  0  0  0
  -26.0260  -30.6750   21.4710 C   0  0  0  0  0  2  0  0  0  0  0  0
  -26.0890  -29.2610   20.8030 C   0  0  0  0  0  0  0  0  0  0  0  0
  -27.2190  -28.3100   20.7950 C   0  0  0  0  0  3  0  0  0  0  0  0
  -25.9540  -26.7310   19.5290 C   0  0  0  0  0  3  0  0  0  0  0  0
  -24.8600  -27.6420   19.5150 C   0  0  0  0  0  3  0  0  0  0  0  0
  -23.6850  -29.8180   20.2290 C   0  0  0  0  0  2  0  0  0  0  0  0
  -24.7340  -31.0470   22.1640 N   0  0  0  0  0  0  0  0  0  0  0  0
  -23.5610  -32.1720   23.7750 O   0  0  0  0  0  0  0  0  0  0  0  0
  -22.7510  -29.5040   22.5710 C   0  0  0  0  0  0  0  0  0  0  0  0
  -21.4210  -29.3390   22.4390 N   0  0  0  0  0  0  0  0  0  0  0  0
  -23.4100  -28.8800   23.4060 O   0  0  0  0  0  0  0  0  0  0  0  0
  -20.9400  -29.8920   21.7440 H   0  0  0  0  0  0  0  0  0  0  0  0
  -18.0400  -28.1070   22.9280 C   0  0  0  0  0  0  0  0  0  0  0  0
  -20.5970  -28.3960   23.2060 C   0  0  0  0  0  3  0  0  0  0  0  0
  -20.7120  -26.9640   22.6340 C   0  0  0  0  0  2  0  0  0  0  0  0
  -19.6190  -26.6320   21.6120 C   0  0  0  0  0  2  0  0  0  0  0  0
  -18.2330  -26.7630   22.2470 C   0  0  0  0  0  2  0  0  0  0  0  0
  -19.1490  -28.8810   23.3630 C   0  0  0  0  0  0  0  0  0  0  0  0
  -18.9120  -30.1370   23.9630 C   0  0  0  0  0  3  0  0  0  0  0  0
  -17.6010  -30.6210   24.1290 C   0  0  0  0  0  3  0  0  0  0  0  0
  -16.5060  -29.8460   23.7070 C   0  0  0  0  0  3  0  0  0  0  0  0
  -16.7270  -28.5910   23.1120 C   0  0  0  0  0  3  0  0  0  0  0  0
  -25.9220  -32.5180   23.8940 C   0  0  0  0  0  3  0  0  0  0  0  0
  -25.6110  -33.9230   24.2170 N   0  0  0  0  0  0  0  0  0  0  0  0
  -25.9250  -34.9780   23.4520 C   0  0  0  0  0  0  0  0  0  0  0  0
  -26.5650  -34.8700   22.4030 O   0  0  0  0  0  0  0  0  0  0  0  0
  -25.0380  -34.0800   25.0340 H   0  0  0  0  0  0  0  0  0  0  0  0
  -24.1740  -36.7680   23.1730 C   0  0  0  0  0  1  0  0  0  0  0  0
  -25.4570  -36.3720   23.9210 C   0  0  0  0  0  3  0  0  0  0  0  0
  -27.6230  -37.2830   24.6380 C   0  0  0  0  0  1  0  0  0  0  0  0
  -26.4780  -37.4280   23.7430 N   0  0  0  0  0  0  0  0  0  0  0  0
  -26.0740  -38.3490   23.8920 H   0  0  0  0  0  0  0  0  0  0  0  0
  -26.4070  -31.7620   25.1920 C   0  0  1  0  0  0  0  0  0  0  0  0
  -25.2940  -31.5510   26.2460 C   0  0  0  0  0  1  0  0  0  0  0  0
  -26.9860  -30.3720   24.8410 C   0  0  0  0  0  1  0  0  0  0  0  0
  -27.5540  -32.5560   25.8620 C   0  0  0  0  0  1  0  0  0  0  0  0
  2 15  1  0
  3  8  1  0
  4  5  1  0
  4  3  1  0
  6  5  1  0
  6 19  1  0
  6  7  1  0
  8  2  1  0
  8  7  1  0
  9  2  2  0
 11 14  1  0
 12 10  1  0
 13 11  1  0
 13 15  1  0
 14  1  1  0
 14 10  1  0
 15 12  1  0
 16 17  2  0
 17 36  1  0
 18 17  1  0
 18 21  1  0
 19 20  1  0
 19 16  1  0
 20 18  2  0
 21 22  1  0
 22 23  2  0
 24 27  1  0
 24 23  1  0
 25 24  2  0
 26 25  1  0
 26 21  2  0
 27 28  1  0
 28 29  1  0
 29 30  2  0
 31 30  1  0
 31 35  1  0
 32 31  2  0
 33 28  2  0
 33 32  1  0
 34 33  1  0
 36 37  1  0
 37 40  1  0
 37 39  1  0
 38 36  2  0
 41 42  1  0
 41 16  1  0
 43 41  1  0
 44 45  1  0
 44  1  2  0
 46 57  2  0
 47 45  1  0
 47 52  1  0
 48 56  1  0
 48 58  1  0
 49 55  1  0
 49 51  1  0
 50 56  1  0
 51 50  1  0
 52 51  2  0
 53 47  2  0
 54 53  1  0
 54 49  2  0
 55 48  1  0
 56 46  1  0
 58 60  2  0
 59 58  1  0
 61 59  1  0
 62 71  2  0
 62 67  1  0
 63 59  1  0
 63 67  1  0
 64 63  1  0
 65 66  1  0
 65 64  1  0
 66 62  1  0
 67 68  2  0
 68 69  1  0
 70 69  2  0
 71 70  1  0
 72 46  1  0
 72 73  1  0
 72 82  1  0
 73 76  1  0
 74 78  1  0
 74 73  1  0
 75 74  2  0
 78 77  1  0
 80 81  1  0
 80 78  1  0
 80 79  1  0
 82 85  1  1
 82 83  1  0
 84 82  1  0
M  ISO  4   2 100  15 100  44 101  45 101
M  END
>  <TORSDO>  (6) 
F 17

>  <SCORE>  (6) 
-16.380

>  <name>  (6) 
5

>  <ligand_id>  (6) 
5

>  <original_smiles>  (6) 
[H]c1c([H])c([H])c2c(c1[H])C([H])([H])C([H])([H])C([H])([H])C2([H])N([H])C(=O)C1([H])N(C(=O)C([H])(N([H])C(=O)C([H])(N([H])C([H])([H])[H])C([H])([H])[H])C(C([H])([H])[H])(C([H])([H])[H])C([H])([H])[H])C([H])([H])c2c([H])c(OC([H])([H])C([H])([H])C3([H])C([H])([H])C([H])([H])N(C(=O)N4C([H])([H])C([H])([H])C([H])([H])C([H])(n5nc(-c6c([H])c([H])c(Oc7c([H])c([H])c(F)c([H])c7F)c([H])c6[H])c(C(=O)N([H])[H])c5N([H])[H])C4([H])[H])C([H])([H])C3([H])[H])c([H])c([H])c2C1([H])[H]

>  <smiles>  (6) 
[H]c1c([H])c([H])c2c(c1[H])C([H])([H])C([H])([H])C([H])([H])C2([H])N([H])C(=O)C1([H])N(C(=O)C([H])(N([H])C(=O)C([H])(N([H])C([H])([H])[H])C([H])([H])[H])C(C([H])([H])[H])(C([H])([H])[H])C([H])([H])[H])C([H])([H])c2c([H])c(OC([H])([H])C([H])([H])C3([H])C([H])([H])C([H])([H])N(C(=O)N4C([H])([H])C([H])([H])C([H])([H])C([H])(n5nc(-c6c([H])c([H])c(Oc7c([H])c([H])c(F)c([H])c7F)c([H])c6[H])c(C(=O)N([H])[H])c5N([H])[H])C4([H])[H])C([H])([H])C3([H])[H])c([H])c([H])c2C1([H])[H]

$$$$
6:0:0
     RDKit          3D

 88 97  0  0  1  0  0  0  0  0999 V2000
  -30.4620  -22.6680   20.4500 C   0  0  0  0  0  2  0  0  0  0  0  0
  -30.4060  -21.7310   19.2320 C   0  0  0  0  0  2  0  0  0  0  0  0
  -28.9390  -22.6430   20.4670 C   0  0  0  0  0  3  0  0  0  0  0  0
  -29.1750  -21.1240   19.7420 N   0  0  2  0  0  4  0  0  0  0  0  0
  -28.5220  -21.0330   18.9790 H   0  0  0  0  0  0  0  0  0  0  0  0
  -30.5550  -15.3380   19.8570 C   0  0  0  0  0  0  0  0  0  0  0  0
  -30.4160  -12.8960   18.9450 C   0  0  0  0  0  2  0  0  0  0  0  0
  -29.4200  -12.6990   17.7740 C   0  0  0  0  0  2  0  0  0  0  0  0
  -28.0050  -12.4220   18.3070 C   0  0  0  0  0  2  0  0  0  0  0  0
  -27.6370  -13.3670   19.4790 C   0  0  0  0  0  3  0  0  0  0  0  0
  -28.7620  -13.5100   20.5290 C   0  0  0  0  0  2  0  0  0  0  0  0
  -29.9380  -14.0430   19.8150 N   0  0  0  0  0  0  0  0  0  0  0  0
  -31.7400  -15.2760   19.4900 O   0  0  0  0  0  0  0  0  0  0  0  0
  -28.2880  -18.6190   20.6810 C   0  0  0  0  0  2  0  0  0  0  0  0
  -28.7560  -17.0820   20.8700 C   0  0  0  0  0  2  0  0  0  0  0  0
  -30.2480  -18.2110   19.5590 C   0  0  0  0  0  2  0  0  0  0  0  0
  -29.4770  -19.5600   20.3260 C   0  0  0  0  0  3  0  0  0  0  0  0
  -29.9010  -16.6890   20.0050 N   0  0  0  0  0  0  0  0  0  0  0  0
  -25.3330  -13.9160   20.4200 C   0  0  0  0  0  0  0  0  0  0  0  0
  -24.2920  -13.1390   20.8420 C   0  0  0  0  0  0  0  0  0  0  0  0
  -24.7380  -11.7860   20.7270 C   0  0  0  0  0  0  0  0  0  0  0  0
  -26.3450  -13.0420   20.0730 N   0  0  0  0  0  0  0  0  0  0  0  0
  -26.0030  -11.7500   20.3230 N   0  0  0  0  0  0  0  0  0  0  0  0
  -24.0050  -10.5280   20.9220 C   0  0  0  0  0  0  0  0  0  0  0  0
  -24.4500   -9.5460   21.8350 C   0  0  0  0  0  3  0  0  0  0  0  0
  -23.7150   -8.3550   22.0220 C   0  0  0  0  0  3  0  0  0  0  0  0
  -22.5210   -8.1360   21.2960 C   0  0  0  0  0  0  0  0  0  0  0  0
  -22.0940   -9.1060   20.3720 C   0  0  0  0  0  3  0  0  0  0  0  0
  -22.8290  -10.2870   20.1830 C   0  0  0  0  0  3  0  0  0  0  0  0
  -21.7550   -6.9980   21.3930 O   0  0  0  0  0  0  0  0  0  0  0  0
  -21.6850   -6.2770   22.5580 C   0  0  0  0  0  0  0  0  0  0  0  0
  -21.2270   -6.8500   23.7640 C   0  0  0  0  0  3  0  0  0  0  0  0
  -21.1050   -6.0540   24.9200 C   0  0  0  0  0  3  0  0  0  0  0  0
  -21.4290   -4.6850   24.8710 C   0  0  0  0  0  0  0  0  0  0  0  0
  -21.8780   -4.1100   23.6700 C   0  0  0  0  0  3  0  0  0  0  0  0
  -22.0030   -4.9040   22.5160 C   0  0  0  0  0  0  0  0  0  0  0  0
  -22.4180   -4.3410   21.3560 F   0  0  0  0  0  0  0  0  0  0  0  0
  -21.3030   -3.9180   25.9790 F   0  0  0  0  0  0  0  0  0  0  0  0
  -22.9260  -13.6250   21.2250 C   0  0  0  0  0  0  0  0  0  0  0  0
  -22.2490  -12.9110   22.1180 N   0  0  0  0  0  0  0  0  0  0  0  0
  -22.4720  -14.6740   20.7720 O   0  0  0  0  0  0  0  0  0  0  0  0
  -22.6320  -12.0620   22.5070 H   0  0  0  0  0  0  0  0  0  0  0  0
  -21.3330  -13.2200   22.4150 H   0  0  0  0  0  0  0  0  0  0  0  0
  -25.4890  -15.2910   20.2680 N   0  0  0  0  0  0  0  0  0  0  0  0
  -24.7220  -15.9340   20.4240 H   0  0  0  0  0  0  0  0  0  0  0  0
  -26.2880  -15.7250   19.8260 H   0  0  0  0  0  0  0  0  0  0  0  0
  -28.1380  -24.1750   19.8840 C   0  0  0  0  0  2  0  0  0  0  0  0
  -28.2490  -25.8010   20.2370 O   0  0  0  0  0  0  0  0  0  0  0  0
  -24.6520  -31.8050   23.0940 C   0  0  0  0  0  0  0  0  0  0  0  0
  -27.2350  -26.9000   20.1230 C   0  0  0  0  0  0  0  0  0  0  0  0
  -23.4670  -30.3930   21.4630 C   0  0  0  0  0  3  0  0  0  0  0  0
  -24.9250  -28.7800   20.0520 C   0  0  0  0  0  0  0  0  0  0  0  0
  -26.0320  -30.6100   21.3210 C   0  0  0  0  0  2  0  0  0  0  0  0
  -26.1100  -29.1920   20.6750 C   0  0  0  0  0  0  0  0  0  0  0  0
  -27.2550  -28.2730   20.6870 C   0  0  0  0  0  3  0  0  0  0  0  0
  -26.0210  -26.6470   19.4410 C   0  0  0  0  0  3  0  0  0  0  0  0
  -24.9090  -27.5300   19.4130 C   0  0  0  0  0  3  0  0  0  0  0  0
  -23.7020  -29.6970   20.0930 C   0  0  0  0  0  2  0  0  0  0  0  0
  -24.7380  -30.9640   22.0130 N   0  0  0  0  0  0  0  0  0  0  0  0
  -23.5610  -32.0940   23.6120 O   0  0  0  0  0  0  0  0  0  0  0  0
  -22.7730  -29.4030   22.4360 C   0  0  0  0  0  0  0  0  0  0  0  0
  -21.4380  -29.2600   22.3340 N   0  0  0  0  0  0  0  0  0  0  0  0
  -23.4430  -28.7640   23.2500 O   0  0  0  0  0  0  0  0  0  0  0  0
  -20.9520  -29.8250   21.6530 H   0  0  0  0  0  0  0  0  0  0  0  0
  -18.0450  -28.1110   22.9100 C   0  0  0  0  0  0  0  0  0  0  0  0
  -20.6160  -28.3290   23.1140 C   0  0  0  0  0  3  0  0  0  0  0  0
  -20.6760  -26.9020   22.5210 C   0  0  0  0  0  2  0  0  0  0  0  0
  -19.5450  -26.6110   21.5300 C   0  0  0  0  0  2  0  0  0  0  0  0
  -18.1820  -26.7690   22.2100 C   0  0  0  0  0  2  0  0  0  0  0  0
  -19.1860  -28.8500   23.3200 C   0  0  0  0  0  0  0  0  0  0  0  0
  -19.0010  -30.1050   23.9400 C   0  0  0  0  0  3  0  0  0  0  0  0
  -17.7080  -30.6210   24.1500 C   0  0  0  0  0  3  0  0  0  0  0  0
  -16.5820  -29.8800   23.7530 C   0  0  0  0  0  3  0  0  0  0  0  0
  -16.7510  -28.6250   23.1390 C   0  0  0  0  0  3  0  0  0  0  0  0
  -25.9190  -32.4580   23.7260 C   0  0  0  0  0  3  0  0  0  0  0  0
  -25.5850  -33.8480   24.0840 N   0  0  0  0  0  0  0  0  0  0  0  0
  -25.9030  -34.9270   23.3550 C   0  0  0  0  0  0  0  0  0  0  0  0
  -26.5700  -34.8560   22.3190 O   0  0  0  0  0  0  0  0  0  0  0  0
  -24.9870  -33.9750   24.8870 H   0  0  0  0  0  0  0  0  0  0  0  0
  -24.1590  -36.7200   23.0530 C   0  0  0  0  0  1  0  0  0  0  0  0
  -25.4060  -36.3010   23.8500 C   0  0  0  0  0  3  0  0  0  0  0  0
  -27.5290  -37.1920   24.7080 C   0  0  0  0  0  1  0  0  0  0  0  0
  -26.4300  -37.3660   23.7600 N   0  0  0  0  0  0  0  0  0  0  0  0
  -26.0150  -38.2800   23.9190 H   0  0  0  0  0  0  0  0  0  0  0  0
  -26.4450  -31.6830   24.9990 C   0  0  1  0  0  0  0  0  0  0  0  0
  -25.3540  -31.4260   26.0660 C   0  0  0  0  0  1  0  0  0  0  0  0
  -27.0430  -30.3150   24.6050 C   0  0  0  0  0  1  0  0  0  0  0  0
  -27.5870  -32.4860   25.6660 C   0  0  0  0  0  1  0  0  0  0  0  0
  1  3  1  0
  2  4  1  0
  2  1  1  0
  3 47  1  0
  4  5  1  6
  4 17  1  0
  4  3  1  0
  6 18  1  0
  7 12  1  0
  8  9  1  0
  8  7  1  0
 10  9  1  0
 10 22  1  0
 10 11  1  0
 12  6  1  0
 12 11  1  0
 13  6  2  0
 14 15  1  0
 16 18  1  0
 17 16  1  0
 17 14  1  0
 18 15  1  0
 19 20  2  0
 20 39  1  0
 21 20  1  0
 21 24  1  0
 22 23  1  0
 22 19  1  0
 23 21  2  0
 24 25  1  0
 25 26  2  0
 27 30  1  0
 27 26  1  0
 28 27  2  0
 29 28  1  0
 29 24  2  0
 30 31  1  0
 31 32  1  0
 32 33  2  0
 34 33  1  0
 34 38  1  0
 35 34  2  0
 36 31  2  0
 36 35  1  0
 37 36  1  0
 39 40  1  0
 40 43  1  0
 40 42  1  0
 41 39  2  0
 44 19  1  0
 44 45  1  0
 46 44  1  0
 47 48  1  0
 49 60  2  0
 50 48  1  0
 50 55  1  0
 51 59  1  0
 51 61  1  0
 52 58  1  0
 52 54  1  0
 53 59  1  0
 54 55  2  0
 54 53  1  0
 56 50  2  0
 57 56  1  0
 57 52  2  0
 58 51  1  0
 59 49  1  0
 61 63  2  0
 62 61  1  0
 64 62  1  0
 65 74  2  0
 65 70  1  0
 66 62  1  0
 66 70  1  0
 67 66  1  0
 68 69  1  0
 68 67  1  0
 69 65  1  0
 70 71  2  0
 71 72  1  0
 73 72  2  0
 74 73  1  0
 75 49  1  0
 75 76  1  0
 75 85  1  0
 76 79  1  0
 77 81  1  0
 77 76  1  0
 78 77  2  0
 81 80  1  0
 83 81  1  0
 83 84  1  0
 83 82  1  0
 85 88  1  1
 85 86  1  0
 87 85  1  0
M  ISO  4   6 100  18 100  47 101  48 101
M  END
>  <TORSDO>  (7) 
F 17

>  <SCORE>  (7) 
-16.282

>  <name>  (7) 
6

>  <ligand_id>  (7) 
6

>  <original_smiles>  (7) 
[H]c1c([H])c([H])c2c(c1[H])C([H])([H])C([H])([H])C([H])([H])C2([H])N([H])C(=O)C1([H])N(C(=O)C([H])(N([H])C(=O)C([H])(N([H])C([H])([H])[H])C([H])([H])[H])C(C([H])([H])[H])(C([H])([H])[H])C([H])([H])[H])C([H])([H])c2c([H])c(OC([H])([H])C3([H])C([H])([H])C([H])([H])[N+]3([H])C3([H])C([H])([H])N(C(=O)N4C([H])([H])C([H])([H])C([H])([H])C([H])(n5nc(-c6c([H])c([H])c(Oc7c([H])c([H])c(F)c([H])c7F)c([H])c6[H])c(C(=O)N([H])[H])c5N([H])[H])C4([H])[H])C([H])([H])C3([H])[H])c([H])c([H])c2C1([H])[H]

>  <smiles>  (7) 
[H]c1c([H])c([H])c2c(c1[H])C([H])([H])C([H])([H])C([H])([H])C2([H])N([H])C(=O)C1([H])N(C(=O)C([H])(N([H])C(=O)C([H])(N([H])C([H])([H])[H])C([H])([H])[H])C(C([H])([H])[H])(C([H])([H])[H])C([H])([H])[H])C([H])([H])c2c([H])c(OC([H])([H])C3([H])C([H])([H])C([H])([H])[N+]3([H])C3([H])C([H])([H])N(C(=O)N4C([H])([H])C([H])([H])C([H])([H])C([H])(n5nc(-c6c([H])c([H])c(Oc7c([H])c([H])c(F)c([H])c7F)c([H])c6[H])c(C(=O)N([H])[H])c5N([H])[H])C4([H])[H])C([H])([H])C3([H])[H])c([H])c([H])c2C1([H])[H]

$$$$
7:0:0
     RDKit          3D

 94103  0  0  1  0  0  0  0  0999 V2000
  -30.6780  -14.7760   20.3240 C   0  0  0  0  0  0  0  0  0  0  0  0
  -30.4510  -12.3960   19.6060 C   0  0  0  0  0  2  0  0  0  0  0  0
  -29.6850  -12.3220   18.2680 C   0  0  0  0  0  2  0  0  0  0  0  0
  -28.1660  -12.2700   18.5220 C   0  0  0  0  0  2  0  0  0  0  0  0
  -27.6880  -13.3390   19.5440 C   0  0  0  0  0  3  0  0  0  0  0  0
  -28.5930  -13.3980   20.7910 C   0  0  0  0  0  2  0  0  0  0  0  0
  -29.9610  -13.6020   20.3090 N   0  0  0  0  0  0  0  0  0  0  0  0
  -31.9100  -14.7130   20.3290 O   0  0  0  0  0  0  0  0  0  0  0  0
  -29.7030  -18.4090   19.4270 C   0  0  0  0  0  3  0  0  0  0  0  0
  -28.9430  -19.6020   19.7570 C   0  0  0  0  0  0  0  0  0  0  0  0
  -28.0090  -19.4200   20.7730 C   0  0  0  0  0  0  0  0  0  0  0  0
  -27.9490  -18.2270   21.5250 C   0  0  0  0  0  0  0  0  0  0  0  0
  -29.5470  -17.1590   20.1720 C   0  0  0  0  0  0  0  0  0  0  0  0
  -26.9780  -20.5210   20.7640 C   0  0  0  0  0  2  0  0  0  0  0  0
  -27.1590  -21.1570   19.3660 C   0  0  0  0  0  2  0  0  0  0  0  0
  -28.6510  -20.9790   18.9870 C   0  0  0  0  0  3  0  0  0  0  0  0
  -26.9460  -18.0330   22.6440 C   0  0  0  0  0  1  0  0  0  0  0  0
  -28.7170  -17.1480   21.2410 N   0  0  0  0  0  0  0  0  0  0  0  0
  -30.1310  -15.8910   19.7010 N   0  0  0  0  0  0  0  0  0  0  0  0
  -30.6780  -16.0660   18.8740 H   0  0  0  0  0  0  0  0  0  0  0  0
  -25.2720  -14.1140   19.8930 C   0  0  0  0  0  0  0  0  0  0  0  0
  -24.1230  -13.4340   20.1920 C   0  0  0  0  0  0  0  0  0  0  0  0
  -24.5060  -12.0690   20.3710 C   0  0  0  0  0  0  0  0  0  0  0  0
  -26.2820  -13.1670   19.8910 N   0  0  0  0  0  0  0  0  0  0  0  0
  -25.8210  -11.9400   20.2460 N   0  0  0  0  0  0  0  0  0  0  0  0
  -23.6880  -10.8700   20.5960 C   0  0  0  0  0  0  0  0  0  0  0  0
  -23.9670   -9.9700   21.6470 C   0  0  0  0  0  3  0  0  0  0  0  0
  -23.1520   -8.8350   21.8540 C   0  0  0  0  0  3  0  0  0  0  0  0
  -22.0440   -8.5950   21.0080 C   0  0  0  0  0  0  0  0  0  0  0  0
  -21.7830   -9.4830   19.9500 C   0  0  0  0  0  3  0  0  0  0  0  0
  -22.5980  -10.6080   19.7420 C   0  0  0  0  0  3  0  0  0  0  0  0
  -21.2110   -7.5060   21.1190 O   0  0  0  0  0  0  0  0  0  0  0  0
  -21.0330   -6.8550   22.3130 C   0  0  0  0  0  0  0  0  0  0  0  0
  -20.6030   -7.5340   23.4740 C   0  0  0  0  0  3  0  0  0  0  0  0
  -20.3650   -6.8140   24.6630 C   0  0  0  0  0  3  0  0  0  0  0  0
  -20.5440   -5.4180   24.6890 C   0  0  0  0  0  0  0  0  0  0  0  0
  -20.9660   -4.7400   23.5310 C   0  0  0  0  0  3  0  0  0  0  0  0
  -21.2060   -5.4560   22.3460 C   0  0  0  0  0  0  0  0  0  0  0  0
  -21.5920   -4.7960   21.2280 F   0  0  0  0  0  0  0  0  0  0  0  0
  -20.3080   -4.7250   25.8280 F   0  0  0  0  0  0  0  0  0  0  0  0
  -22.7340  -14.0010   20.2160 C   0  0  0  0  0  0  0  0  0  0  0  0
  -21.8580  -13.4390   21.0420 N   0  0  0  0  0  0  0  0  0  0  0  0
  -22.4310  -14.9820   19.5370 O   0  0  0  0  0  0  0  0  0  0  0  0
  -22.1140  -12.6470   21.6120 H   0  0  0  0  0  0  0  0  0  0  0  0
  -20.9200  -13.8070   21.1050 H   0  0  0  0  0  0  0  0  0  0  0  0
  -25.5440  -15.4460   19.6000 N   0  0  0  0  0  0  0  0  0  0  0  0
  -24.8200  -16.1550   19.5630 H   0  0  0  0  0  0  0  0  0  0  0  0
  -26.4750  -15.8180   19.4540 H   0  0  0  0  0  0  0  0  0  0  0  0
  -29.3320  -22.3100   19.3570 N   0  0  0  0  0  4  0  0  0  0  0  0
  -30.3120  -22.1940   19.1510 H   0  0  0  0  0  0  0  0  0  0  0  0
  -29.2670  -22.3930   20.3580 H   0  0  0  0  0  0  0  0  0  0  0  0
  -28.8650  -23.6420   18.6930 C   0  0  0  0  0  3  0  0  0  0  0  0
  -28.5990  -24.9730   19.5970 C   0  0  0  0  0  3  0  0  0  0  0  0
  -28.4790  -26.3750   19.0450 O   0  0  0  0  0  0  0  0  0  0  0  0
  -24.4080  -31.2590   22.6070 C   0  0  0  0  0  0  0  0  0  0  0  0
  -27.2810  -27.1090   19.1810 C   0  0  0  0  0  0  0  0  0  0  0  0
  -23.2530  -29.7900   20.9950 C   0  0  0  0  0  3  0  0  0  0  0  0
  -24.7600  -28.4640   19.4040 C   0  0  0  0  0  0  0  0  0  0  0  0
  -25.7210  -30.4020   20.6450 C   0  0  0  0  0  2  0  0  0  0  0  0
  -25.9100  -29.0620   19.9340 C   0  0  0  0  0  0  0  0  0  0  0  0
  -27.1750  -28.4010   19.8030 C   0  0  0  0  0  3  0  0  0  0  0  0
  -26.0990  -26.5690   18.6360 C   0  0  0  0  0  3  0  0  0  0  0  0
  -24.8570  -27.2280   18.7430 C   0  0  0  0  0  3  0  0  0  0  0  0
  -23.4390  -29.1920   19.5750 C   0  0  0  0  0  2  0  0  0  0  0  0
  -24.4820  -30.5030   21.4720 N   0  0  0  0  0  0  0  0  0  0  0  0
  -23.3430  -31.3860   23.2290 O   0  0  0  0  0  0  0  0  0  0  0  0
  -22.7830  -28.6700   21.9550 C   0  0  0  0  0  0  0  0  0  0  0  0
  -21.4830  -28.3340   21.9070 N   0  0  0  0  0  0  0  0  0  0  0  0
  -23.5870  -28.1070   22.7030 O   0  0  0  0  0  0  0  0  0  0  0  0
  -20.8840  -28.8480   21.2760 H   0  0  0  0  0  0  0  0  0  0  0  0
  -18.3310  -26.6720   22.5340 C   0  0  0  0  0  0  0  0  0  0  0  0
  -20.8400  -27.2740   22.6890 C   0  0  0  0  0  3  0  0  0  0  0  0
  -21.1060  -25.8840   22.0650 C   0  0  0  0  0  2  0  0  0  0  0  0
  -20.0080  -25.4390   21.0960 C   0  0  0  0  0  2  0  0  0  0  0  0
  -18.6540  -25.3770   21.8090 C   0  0  0  0  0  2  0  0  0  0  0  0
  -19.3560  -27.5700   22.9330 C   0  0  0  0  0  0  0  0  0  0  0  0
  -18.9980  -28.7760   23.5730 C   0  0  0  0  0  3  0  0  0  0  0  0
  -17.6480  -29.0900   23.8180 C   0  0  0  0  0  3  0  0  0  0  0  0
  -16.6380  -28.1900   23.4340 C   0  0  0  0  0  3  0  0  0  0  0  0
  -16.9810  -26.9820   22.7990 C   0  0  0  0  0  3  0  0  0  0  0  0
  -25.6510  -32.0160   23.1670 C   0  0  0  0  0  3  0  0  0  0  0  0
  -25.1940  -33.3270   23.6530 N   0  0  0  0  0  0  0  0  0  0  0  0
  -25.3010  -34.4730   22.9700 C   0  0  0  0  0  0  0  0  0  0  0  0
  -25.8650  -34.5490   21.8750 O   0  0  0  0  0  0  0  0  0  0  0  0
  -24.6730  -33.3310   24.5180 H   0  0  0  0  0  0  0  0  0  0  0  0
  -23.3260  -36.0320   22.9460 C   0  0  0  0  0  1  0  0  0  0  0  0
  -24.6860  -35.7390   23.5990 C   0  0  0  0  0  3  0  0  0  0  0  0
  -26.7670  -36.8360   24.3030 C   0  0  0  0  0  1  0  0  0  0  0  0
  -25.5540  -36.9310   23.4950 N   0  0  0  0  0  0  0  0  0  0  0  0
  -25.0520  -37.7690   23.7740 H   0  0  0  0  0  0  0  0  0  0  0  0
  -26.3930  -31.2290   24.3170 C   0  0  1  0  0  0  0  0  0  0  0  0
  -25.4580  -30.7650   25.4580 C   0  0  0  0  0  1  0  0  0  0  0  0
  -27.1050  -29.9780   23.7530 C   0  0  0  0  0  1  0  0  0  0  0  0
  -27.4960  -32.1200   24.9360 C   0  0  0  0  0  1  0  0  0  0  0  0
  1  8  2  0
  2  7  1  0
  3  4  1  0
  3  2  1  0
  5  4  1  0
  5 24  1  0
  5  6  1  0
  7  1  1  0
  7  6  1  0
  9 10  2  0
  9 13  1  0
 10 11  1  0
 11 12  2  0
 12 17  1  0
 13 18  2  0
 14 11  1  0
 15 14  1  0
 16 49  1  0
 16 15  1  0
 16 10  1  0
 18 12  1  0
 19 13  1  0
 19  1  1  0
 20 19  1  0
 21 22  2  0
 22 41  1  0
 22 23  1  0
 23 26  1  0
 24 21  1  0
 24 25  1  0
 25 23  2  0
 26 27  1  0
 27 28  2  0
 29 32  1  0
 29 28  1  0
 30 29  2  0
 31 30  1  0
 31 26  2  0
 32 33  1  0
 33 38  2  0
 33 34  1  0
 34 35  2  0
 35 36  1  0
 36 40  1  0
 37 36  2  0
 38 37  1  0
 39 38  1  0
 41 42  1  0
 42 45  1  0
 42 44  1  0
 43 41  2  0
 46 21  1  0
 47 46  1  0
 48 46  1  0
 49 51  1  0
 50 49  1  0
 52 49  1  0
 52 53  2  0
 54 56  1  0
 54 53  1  0
 55 66  2  0
 56 61  1  0
 57 65  1  0
 57 67  1  0
 58 64  1  0
 58 60  1  0
 59 65  1  0
 60 59  1  0
 61 60  2  0
 62 63  1  0
 62 56  2  0
 63 58  2  0
 64 57  1  0
 65 55  1  0
 67 69  2  0
 68 67  1  0
 70 68  1  0
 71 80  2  0
 71 76  1  0
 72 68  1  0
 72 76  1  0
 73 72  1  0
 74 75  1  0
 74 73  1  0
 75 71  1  0
 76 77  2  0
 77 78  1  0
 79 78  2  0
 80 79  1  0
 81 55  1  0
 81 82  1  0
 81 91  1  0
 82 85  1  0
 83 87  1  0
 83 82  1  0
 84 83  2  0
 87 86  1  0
 89 87  1  0
 89 90  1  0
 89 88  1  0
 91 94  1  1
 91 92  1  0
 93 91  1  0
M  ISO  4   1 100  19 100  53 101  54 101
M  END
>  <TORSDO>  (8) 
F 18

>  <SCORE>  (8) 
4.307

>  <name>  (8) 
7

>  <ligand_id>  (8) 
7

>  <original_smiles>  (8) 
[H]c1c([H])c([H])c2c(c1[H])C([H])([H])C([H])([H])C([H])([H])C2([H])N([H])C(=O)C1([H])N(C(=O)C([H])(N([H])C(=O)C([H])(N([H])C([H])([H])[H])C([H])([H])[H])C(C([H])([H])[H])(C([H])([H])[H])C([H])([H])[H])C([H])([H])c2c([H])c(OC([H])([H])C([H])([H])[N+]([H])([H])C3([H])c4c([H])c(N([H])C(=O)N5C([H])([H])C([H])([H])C([H])([H])C([H])(n6nc(-c7c([H])c([H])c(Oc8c([H])c([H])c(F)c([H])c8F)c([H])c7[H])c(C(=O)N([H])[H])c6N([H])[H])C5([H])[H])nc(C([H])([H])[H])c4C([H])([H])C3([H])[H])c([H])c([H])c2C1([H])[H]

>  <smiles>  (8) 
[H]c1c([H])c([H])c2c(c1[H])C([H])([H])C([H])([H])C([H])([H])C2([H])N([H])C(=O)C1([H])N(C(=O)C([H])(N([H])C(=O)C([H])(N([H])C([H])([H])[H])C([H])([H])[H])C(C([H])([H])[H])(C([H])([H])[H])C([H])([H])[H])C([H])([H])c2c([H])c(OC([H])([H])C([H])([H])[N+]([H])([H])C3([H])c4c([H])c(N([H])C(=O)N5C([H])([H])C([H])([H])C([H])([H])C([H])(n6nc(-c7c([H])c([H])c(Oc8c([H])c([H])c(F)c([H])c8F)c([H])c7[H])c(C(=O)N([H])[H])c6N([H])[H])C5([H])[H])nc(C([H])([H])[H])c4C([H])([H])C3([H])[H])c([H])c([H])c2C1([H])[H]

$$$$
8:0:0
     RDKit          3D

 87 95  0  0  1  0  0  0  0  0999 V2000
  -30.1920  -15.9130   20.3080 C   0  0  0  0  0  0  0  0  0  0  0  0
  -30.3860  -13.3070   19.5310 C   0  0  0  0  0  2  0  0  0  0  0  0
  -29.5440  -12.7640   18.3340 C   0  0  0  0  0  2  0  0  0  0  0  0
  -28.1370  -12.3510   18.7850 C   0  0  0  0  0  2  0  0  0  0  0  0
  -27.5670  -13.3730   19.7900 C   0  0  0  0  0  3  0  0  0  0  0  0
  -28.5620  -13.8070   20.8980 C   0  0  0  0  0  2  0  0  0  0  0  0
  -29.6970  -14.5060   20.2300 N   0  0  0  0  0  0  0  0  0  0  0  0
  -31.4360  -15.7930   20.1980 O   0  0  0  0  0  0  0  0  0  0  0  0
  -31.0050  -20.8540   20.4430 C   0  0  0  0  0  0  0  0  0  0  0  0
  -28.8760  -21.7820   20.2940 C   0  0  0  0  0  0  0  0  0  0  0  0
  -29.5190  -19.0570   20.3230 C   0  0  0  0  0  0  0  0  0  0  0  0
  -32.4780  -21.1940   20.5550 C   0  0  0  0  0  1  0  0  0  0  0  0
  -30.1980  -21.9430   20.3950 N   0  0  0  0  0  4  0  0  0  0  0  0
  -30.7690  -19.5170   20.4140 N   0  0  0  0  0  0  0  0  0  0  0  0
  -28.5540  -20.2650   20.2600 N   0  0  0  0  0  2  0  0  0  0  0  0
  -29.4280  -17.3380   20.3160 N   0  0  0  0  0  0  0  0  0  0  0  0
  -28.4490  -17.0990   20.3150 H   0  0  0  0  0  0  0  0  0  0  0  0
  -25.1930  -13.8570   20.5280 C   0  0  0  0  0  0  0  0  0  0  0  0
  -24.1410  -13.0620   20.8820 C   0  0  0  0  0  0  0  0  0  0  0  0
  -24.6330  -11.7200   20.8630 C   0  0  0  0  0  0  0  0  0  0  0  0
  -26.2540  -13.0050   20.3030 N   0  0  0  0  0  0  0  0  0  0  0  0
  -25.9330  -11.7100   20.5710 N   0  0  0  0  0  0  0  0  0  0  0  0
  -23.9200  -10.4480   21.0460 C   0  0  0  0  0  0  0  0  0  0  0  0
  -24.3480   -9.4870   21.9890 C   0  0  0  0  0  3  0  0  0  0  0  0
  -23.6270   -8.2850   22.1630 C   0  0  0  0  0  3  0  0  0  0  0  0
  -22.4660   -8.0350   21.3940 C   0  0  0  0  0  0  0  0  0  0  0  0
  -22.0570   -8.9840   20.4410 C   0  0  0  0  0  3  0  0  0  0  0  0
  -22.7770  -10.1780   20.2660 C   0  0  0  0  0  3  0  0  0  0  0  0
  -21.7190   -6.8850   21.4770 O   0  0  0  0  0  0  0  0  0  0  0  0
  -21.6610   -6.1450   22.6320 C   0  0  0  0  0  0  0  0  0  0  0  0
  -21.2180   -6.7010   23.8510 C   0  0  0  0  0  3  0  0  0  0  0  0
  -21.1090   -5.8880   24.9970 C   0  0  0  0  0  3  0  0  0  0  0  0
  -21.4310   -4.5200   24.9240 C   0  0  0  0  0  0  0  0  0  0  0  0
  -21.8680   -3.9620   23.7090 C   0  0  0  0  0  3  0  0  0  0  0  0
  -21.9780   -4.7730   22.5660 C   0  0  0  0  0  0  0  0  0  0  0  0
  -22.3790   -4.2270   21.3930 F   0  0  0  0  0  0  0  0  0  0  0  0
  -21.3200   -3.7360   26.0230 F   0  0  0  0  0  0  0  0  0  0  0  0
  -22.7330  -13.5190   21.1200 C   0  0  0  0  0  0  0  0  0  0  0  0
  -22.0010  -12.8270   21.9830 N   0  0  0  0  0  0  0  0  0  0  0  0
  -22.2910  -14.5310   20.5740 O   0  0  0  0  0  0  0  0  0  0  0  0
  -22.3730  -12.0110   22.4460 H   0  0  0  0  0  0  0  0  0  0  0  0
  -21.0540  -13.1170   22.1860 H   0  0  0  0  0  0  0  0  0  0  0  0
  -25.3310  -15.2310   20.3420 N   0  0  0  0  0  0  0  0  0  0  0  0
  -24.5420  -15.8640   20.4250 H   0  0  0  0  0  0  0  0  0  0  0  0
  -26.1590  -15.6760   19.9760 H   0  0  0  0  0  0  0  0  0  0  0  0
  -27.9030  -23.4670   20.2000 C   0  0  0  0  0  2  0  0  0  0  0  0
  -28.1010  -25.2970   20.2980 O   0  0  0  0  0  0  0  0  0  0  0  0
  -24.6400  -31.8320   23.1490 C   0  0  0  0  0  0  0  0  0  0  0  0
  -27.1520  -26.5840   20.2390 C   0  0  0  0  0  0  0  0  0  0  0  0
  -23.4550  -30.4110   21.5330 C   0  0  0  0  0  3  0  0  0  0  0  0
  -24.9010  -28.7140   20.1510 C   0  0  0  0  0  0  0  0  0  0  0  0
  -26.0410  -30.5060   21.4250 C   0  0  0  0  0  2  0  0  0  0  0  0
  -26.1010  -29.0490   20.7870 C   0  0  0  0  0  0  0  0  0  0  0  0
  -27.2040  -28.0170   20.7930 C   0  0  0  0  0  3  0  0  0  0  0  0
  -25.9140  -26.4990   19.5400 C   0  0  0  0  0  3  0  0  0  0  0  0
  -24.8550  -27.4680   19.5010 C   0  0  0  0  0  3  0  0  0  0  0  0
  -23.7010  -29.6850   20.1770 C   0  0  0  0  0  2  0  0  0  0  0  0
  -24.7380  -30.9530   22.0870 N   0  0  0  0  0  0  0  0  0  0  0  0
  -23.5450  -32.1450   23.6480 O   0  0  0  0  0  0  0  0  0  0  0  0
  -22.7250  -29.4600   22.5220 C   0  0  0  0  0  0  0  0  0  0  0  0
  -21.3890  -29.3210   22.4070 N   0  0  0  0  0  0  0  0  0  0  0  0
  -23.3750  -28.8400   23.3660 O   0  0  0  0  0  0  0  0  0  0  0  0
  -20.9110  -29.8710   21.7070 H   0  0  0  0  0  0  0  0  0  0  0  0
  -17.9930  -28.1390   22.9600 C   0  0  0  0  0  0  0  0  0  0  0  0
  -20.5570  -28.4000   23.1950 C   0  0  0  0  0  3  0  0  0  0  0  0
  -20.6460  -26.9600   22.6380 C   0  0  0  0  0  2  0  0  0  0  0  0
  -19.5350  -26.6340   21.6340 C   0  0  0  0  0  2  0  0  0  0  0  0
  -18.1590  -26.7860   22.2880 C   0  0  0  0  0  2  0  0  0  0  0  0
  -19.1180  -28.9030   23.3710 C   0  0  0  0  0  0  0  0  0  0  0  0
  -18.9030  -30.1650   23.9670 C   0  0  0  0  0  3  0  0  0  0  0  0
  -17.6000  -30.6650   24.1500 C   0  0  0  0  0  3  0  0  0  0  0  0
  -16.4910  -29.8990   23.7490 C   0  0  0  0  0  3  0  0  0  0  0  0
  -16.6890  -28.6370   23.1610 C   0  0  0  0  0  3  0  0  0  0  0  0
  -25.8970  -32.4970   23.7860 C   0  0  0  0  0  3  0  0  0  0  0  0
  -25.5630  -33.8970   24.1230 N   0  0  0  0  0  0  0  0  0  0  0  0
  -25.8830  -34.9700   23.3860 C   0  0  0  0  0  0  0  0  0  0  0  0
  -26.5430  -34.8870   22.3480 O   0  0  0  0  0  0  0  0  0  0  0  0
  -24.9720  -34.0330   24.9300 H   0  0  0  0  0  0  0  0  0  0  0  0
  -24.1360  -36.7670   23.1030 C   0  0  0  0  0  1  0  0  0  0  0  0
  -25.3990  -36.3540   23.8750 C   0  0  0  0  0  3  0  0  0  0  0  0
  -27.5470  -37.2540   24.6630 C   0  0  0  0  0  1  0  0  0  0  0  0
  -26.4220  -37.4180   23.7460 N   0  0  0  0  0  0  0  0  0  0  0  0
  -26.0110  -38.3330   23.9100 H   0  0  0  0  0  0  0  0  0  0  0  0
  -26.4020  -31.7470   25.0820 C   0  0  1  0  0  0  0  0  0  0  0  0
  -25.3010  -31.5290   26.1470 C   0  0  0  0  0  1  0  0  0  0  0  0
  -26.9860  -30.3610   24.7320 C   0  0  0  0  0  1  0  0  0  0  0  0
  -27.5500  -32.5500   25.7390 C   0  0  0  0  0  1  0  0  0  0  0  0
  1 16  1  0
  2  7  1  0
  3  4  1  0
  3  2  1  0
  5  4  1  0
  5 21  1  0
  5  6  1  0
  7  1  1  0
  7  6  1  0
  8  1  2  0
  9 12  1  0
 10 13  2  0
 11 14  2  0
 13  9  2  0
 14  9  1  0
 15 10  1  0
 15 11  1  0
 16 11  1  0
 17 16  1  0
 18 19  2  0
 19 38  1  0
 20 19  1  0
 20 23  1  0
 21 18  1  0
 21 22  1  0
 22 20  2  0
 23 24  1  0
 24 25  2  0
 26 29  1  0
 26 25  1  0
 27 26  2  0
 28 27  1  0
 28 23  2  0
 29 30  1  0
 30 31  1  0
 31 32  2  0
 33 32  1  0
 33 37  1  0
 34 33  2  0
 35 30  2  0
 35 34  1  0
 36 35  1  0
 38 39  1  0
 39 42  1  0
 39 41  1  0
 40 38  2  0
 43 44  1  0
 43 18  1  0
 45 43  1  0
 46 10  1  0
 46 47  1  0
 48 59  2  0
 49 47  1  0
 49 54  1  0
 50 58  1  0
 50 60  1  0
 51 57  1  0
 51 53  1  0
 52 58  1  0
 53 54  2  0
 53 52  1  0
 55 49  2  0
 56 55  1  0
 56 51  2  0
 57 50  1  0
 58 48  1  0
 60 62  2  0
 61 60  1  0
 63 61  1  0
 64 73  2  0
 64 69  1  0
 65 61  1  0
 65 69  1  0
 66 65  1  0
 67 68  1  0
 67 66  1  0
 68 64  1  0
 69 70  2  0
 70 71  1  0
 72 71  2  0
 73 72  1  0
 74 48  1  0
 74 75  1  0
 74 84  1  0
 75 78  1  0
 76 80  1  0
 76 75  1  0
 77 76  2  0
 80 79  1  0
 82 80  1  0
 82 83  1  0
 82 81  1  0
 84 87  1  1
 84 85  1  0
 86 84  1  0
M  ISO  4   1 100  16 100  46 101  47 101
M  END
>  <TORSDO>  (9) 
F 16

>  <SCORE>  (9) 
-16.541

>  <name>  (9) 
8

>  <ligand_id>  (9) 
8

>  <original_smiles>  (9) 
[H]c1c([H])c([H])c2c(c1[H])C([H])([H])C([H])([H])C([H])([H])C2([H])N([H])C(=O)C1([H])N(C(=O)C([H])(N([H])C(=O)C([H])(N([H])C([H])([H])[H])C([H])([H])[H])C(C([H])([H])[H])(C([H])([H])[H])C([H])([H])[H])C([H])([H])c2c([H])c(OC([H])([H])c3nc(N([H])C(=O)N4C([H])([H])C([H])([H])C([H])([H])C([H])(n5nc(-c6c([H])c([H])c(Oc7c([H])c([H])c(F)c([H])c7F)c([H])c6[H])c(C(=O)N([H])[H])c5N([H])[H])C4([H])[H])nc(C([H])([H])[H])n3)c([H])c([H])c2C1([H])[H]

>  <smiles>  (9) 
[H]c1c([H])c([H])c2c(c1[H])C([H])([H])C([H])([H])C([H])([H])C2([H])N([H])C(=O)C1([H])N(C(=O)C([H])(N([H])C(=O)C([H])(N([H])C([H])([H])[H])C([H])([H])[H])C(C([H])([H])[H])(C([H])([H])[H])C([H])([H])[H])C([H])([H])c2c([H])c(OC([H])([H])c3nc(N([H])C(=O)N4C([H])([H])C([H])([H])C([H])([H])C([H])(n5nc(-c6c([H])c([H])c(Oc7c([H])c([H])c(F)c([H])c7F)c([H])c6[H])c(C(=O)N([H])[H])c5N([H])[H])C4([H])[H])nc(C([H])([H])[H])n3)c([H])c([H])c2C1([H])[H]

$$$$
9:0:0
     RDKit          3D

 92101  0  0  1  0  0  0  0  0999 V2000
  -30.0760  -21.3100   21.5000 C   0  0  0  0  0  3  0  0  0  0  0  0
  -30.6400  -20.1240   22.0010 C   0  0  0  0  0  0  0  0  0  0  0  0
  -29.3210  -21.2440   20.3250 C   0  0  0  0  0  0  0  0  0  0  0  0
  -29.8020  -18.8830   20.2580 C   0  0  0  0  0  0  0  0  0  0  0  0
  -30.4930  -18.9320   21.3880 N   0  0  0  0  0  0  0  0  0  0  0  0
  -29.2060  -19.9990   19.7140 N   0  0  0  0  0  0  0  0  0  0  0  0
  -30.9260  -19.5420   24.5330 C   0  0  0  0  0  2  0  0  0  0  0  0
  -31.1810  -21.0240   24.4030 C   0  0  0  0  0  2  0  0  0  0  0  0
  -31.4760  -20.1040   23.2420 C   0  0  0  0  0  3  0  0  0  0  0  0
  -29.8840  -17.4860   19.4870 C   0  0  0  0  0  2  0  0  0  0  0  0
  -30.6180  -14.9920   19.9080 C   0  0  0  0  0  0  0  0  0  0  0  0
  -30.3950  -12.6950   18.9450 C   0  0  0  0  0  2  0  0  0  0  0  0
  -29.3760  -12.7540   17.7830 C   0  0  0  0  0  2  0  0  0  0  0  0
  -27.9400  -12.5650   18.3100 C   0  0  0  0  0  2  0  0  0  0  0  0
  -27.6390  -13.4450   19.5520 C   0  0  0  0  0  3  0  0  0  0  0  0
  -28.7740  -13.3720   20.6000 C   0  0  0  0  0  2  0  0  0  0  0  0
  -30.0230  -13.7460   19.9250 N   0  0  0  0  0  0  0  0  0  0  0  0
  -31.7570  -15.1120   19.4470 O   0  0  0  0  0  0  0  0  0  0  0  0
  -29.8380  -16.1090   20.1650 N   0  0  0  0  0  0  0  0  0  0  0  0
  -28.9670  -15.9220   20.6350 H   0  0  0  0  0  0  0  0  0  0  0  0
  -25.3140  -14.0070   20.4760 C   0  0  0  0  0  0  0  0  0  0  0  0
  -24.2780  -13.2210   20.9010 C   0  0  0  0  0  0  0  0  0  0  0  0
  -24.7330  -11.8720   20.7870 C   0  0  0  0  0  0  0  0  0  0  0  0
  -26.3350  -13.1370   20.1310 N   0  0  0  0  0  0  0  0  0  0  0  0
  -25.9980  -11.8450   20.3800 N   0  0  0  0  0  0  0  0  0  0  0  0
  -24.0190  -10.6050   20.9860 C   0  0  0  0  0  0  0  0  0  0  0  0
  -24.4800   -9.6320   21.9010 C   0  0  0  0  0  3  0  0  0  0  0  0
  -23.7640   -8.4290   22.0890 C   0  0  0  0  0  3  0  0  0  0  0  0
  -22.5740   -8.1910   21.3620 C   0  0  0  0  0  0  0  0  0  0  0  0
  -22.1320   -9.1520   20.4360 C   0  0  0  0  0  3  0  0  0  0  0  0
  -22.8480  -10.3460   20.2460 C   0  0  0  0  0  3  0  0  0  0  0  0
  -21.8280   -7.0420   21.4610 O   0  0  0  0  0  0  0  0  0  0  0  0
  -21.7670   -6.3200   22.6270 C   0  0  0  0  0  0  0  0  0  0  0  0
  -21.2800   -6.8830   23.8270 C   0  0  0  0  0  3  0  0  0  0  0  0
  -21.1700   -6.0870   24.9850 C   0  0  0  0  0  3  0  0  0  0  0  0
  -21.5370   -4.7290   24.9430 C   0  0  0  0  0  0  0  0  0  0  0  0
  -22.0180   -4.1640   23.7480 C   0  0  0  0  0  3  0  0  0  0  0  0
  -22.1290   -4.9580   22.5920 C   0  0  0  0  0  0  0  0  0  0  0  0
  -22.5730   -4.4060   21.4380 F   0  0  0  0  0  0  0  0  0  0  0  0
  -21.4240   -3.9610   26.0520 F   0  0  0  0  0  0  0  0  0  0  0  0
  -22.9070  -13.6890   21.2930 C   0  0  0  0  0  0  0  0  0  0  0  0
  -22.2460  -12.9660   22.1890 N   0  0  0  0  0  0  0  0  0  0  0  0
  -22.4330  -14.7300   20.8400 O   0  0  0  0  0  0  0  0  0  0  0  0
  -22.6420  -12.1230   22.5770 H   0  0  0  0  0  0  0  0  0  0  0  0
  -21.3280  -13.2590   22.4960 H   0  0  0  0  0  0  0  0  0  0  0  0
  -25.4650  -15.3840   20.3290 N   0  0  0  0  0  0  0  0  0  0  0  0
  -24.7000  -16.0270   20.5050 H   0  0  0  0  0  0  0  0  0  0  0  0
  -26.2640  -15.8290   19.9000 H   0  0  0  0  0  0  0  0  0  0  0  0
  -28.6760  -22.3890   19.7510 O   0  0  0  0  0  0  0  0  0  0  0  0
  -28.8900  -23.8050   20.2330 C   0  0  0  0  0  3  0  0  0  0  0  0
  -27.9210  -25.0150   19.7160 C   0  0  0  0  0  3  0  0  0  0  0  0
  -28.1500  -26.4950   19.9820 O   0  0  0  0  0  0  0  0  0  0  0  0
  -24.5770  -31.9810   23.1820 C   0  0  0  0  0  0  0  0  0  0  0  0
  -27.0580  -27.4080   19.9610 C   0  0  0  0  0  0  0  0  0  0  0  0
  -23.3100  -30.5990   21.5780 C   0  0  0  0  0  3  0  0  0  0  0  0
  -24.7020  -29.0680   20.0660 C   0  0  0  0  0  0  0  0  0  0  0  0
  -25.8450  -30.9090   21.2960 C   0  0  0  0  0  2  0  0  0  0  0  0
  -25.8990  -29.5330   20.6260 C   0  0  0  0  0  0  0  0  0  0  0  0
  -27.0770  -28.7160   20.5630 C   0  0  0  0  0  3  0  0  0  0  0  0
  -25.8370  -27.0270   19.3580 C   0  0  0  0  0  3  0  0  0  0  0  0
  -24.6780  -27.8240   19.4200 C   0  0  0  0  0  3  0  0  0  0  0  0
  -23.4690  -29.9440   20.1820 C   0  0  0  0  0  2  0  0  0  0  0  0
  -24.5990  -31.1810   22.0740 N   0  0  0  0  0  0  0  0  0  0  0  0
  -23.5150  -32.2480   23.7650 O   0  0  0  0  0  0  0  0  0  0  0  0
  -22.6880  -29.5690   22.5530 C   0  0  0  0  0  0  0  0  0  0  0  0
  -21.3680  -29.3450   22.4430 N   0  0  0  0  0  0  0  0  0  0  0  0
  -23.3950  -28.9760   23.3720 O   0  0  0  0  0  0  0  0  0  0  0  0
  -20.8530  -29.8780   21.7550 H   0  0  0  0  0  0  0  0  0  0  0  0
  -18.0490  -27.9950   22.9560 C   0  0  0  0  0  0  0  0  0  0  0  0
  -20.5900  -28.3850   23.2300 C   0  0  0  0  0  3  0  0  0  0  0  0
  -20.7650  -26.9480   22.6870 C   0  0  0  0  0  2  0  0  0  0  0  0
  -19.6860  -26.5500   21.6750 C   0  0  0  0  0  2  0  0  0  0  0  0
  -18.2950  -26.6420   22.3100 C   0  0  0  0  0  2  0  0  0  0  0  0
  -19.1270  -28.8210   23.3740 C   0  0  0  0  0  0  0  0  0  0  0  0
  -18.8430  -30.0820   23.9390 C   0  0  0  0  0  3  0  0  0  0  0  0
  -17.5140  -30.5220   24.0890 C   0  0  0  0  0  3  0  0  0  0  0  0
  -16.4510  -29.6960   23.6860 C   0  0  0  0  0  3  0  0  0  0  0  0
  -16.7190  -28.4330   23.1260 C   0  0  0  0  0  3  0  0  0  0  0  0
  -25.8810  -32.6130   23.7570 C   0  0  0  0  0  3  0  0  0  0  0  0
  -25.5900  -34.0180   24.0810 N   0  0  0  0  0  0  0  0  0  0  0  0
  -25.9160  -35.0630   23.3070 C   0  0  0  0  0  0  0  0  0  0  0  0
  -26.5620  -34.9450   22.2630 O   0  0  0  0  0  0  0  0  0  0  0  0
  -25.0130  -34.1840   24.8930 H   0  0  0  0  0  0  0  0  0  0  0  0
  -24.2100  -36.8800   22.9640 C   0  0  0  0  0  1  0  0  0  0  0  0
  -25.4530  -36.4600   23.7650 C   0  0  0  0  0  3  0  0  0  0  0  0
  -27.6030  -37.3230   24.5790 C   0  0  0  0  0  1  0  0  0  0  0  0
  -26.4990  -37.4980   23.6380 N   0  0  0  0  0  0  0  0  0  0  0  0
  -26.1070  -38.4250   23.7780 H   0  0  0  0  0  0  0  0  0  0  0  0
  -26.4300  -31.8540   25.0280 C   0  0  1  0  0  0  0  0  0  0  0  0
  -25.3660  -31.6330   26.1290 C   0  0  0  0  0  1  0  0  0  0  0  0
  -26.9970  -30.4700   24.6390 C   0  0  0  0  0  1  0  0  0  0  0  0
  -27.6020  -32.6520   25.6480 C   0  0  0  0  0  1  0  0  0  0  0  0
  1  2  2  0
  2  9  1  0
  3  1  1  0
  4  5  2  0
  5  2  1  0
  6  4  1  0
  6  3  2  0
  8  7  1  0
  9  8  1  0
  9  7  1  0
 10 19  1  0
 10  4  1  0
 11 17  1  0
 11 19  1  0
 12 17  1  0
 13 14  1  0
 13 12  1  0
 15 14  1  0
 15 24  1  0
 15 16  1  0
 17 16  1  0
 18 11  2  0
 19 20  1  0
 21 22  2  0
 22 41  1  0
 23 22  1  0
 23 26  1  0
 24 25  1  0
 24 21  1  0
 25 23  2  0
 26 27  1  0
 27 28  2  0
 29 32  1  0
 29 28  1  0
 30 29  2  0
 31 30  1  0
 31 26  2  0
 32 33  1  0
 33 34  1  0
 34 35  2  0
 36 35  1  0
 36 40  1  0
 37 36  2  0
 38 33  2  0
 38 37  1  0
 39 38  1  0
 41 42  1  0
 42 45  1  0
 42 44  1  0
 43 41  2  0
 46 21  1  0
 46 47  1  0
 48 46  1  0
 49 50  1  0
 49  3  1  0
 51 52  1  0
 51 50  2  0
 53 64  2  0
 54 52  1  0
 54 59  1  0
 55 63  1  0
 55 65  1  0
 56 62  1  0
 56 58  1  0
 57 63  1  0
 58 57  1  0
 59 58  2  0
 60 61  1  0
 60 54  2  0
 61 56  2  0
 62 55  1  0
 63 53  1  0
 65 67  2  0
 66 65  1  0
 68 66  1  0
 69 78  2  0
 69 74  1  0
 70 66  1  0
 70 74  1  0
 71 70  1  0
 72 73  1  0
 72 71  1  0
 73 69  1  0
 74 75  2  0
 75 76  1  0
 77 76  2  0
 78 77  1  0
 79 53  1  0
 79 80  1  0
 79 89  1  0
 80 83  1  0
 81 85  1  0
 81 80  1  0
 82 81  2  0
 85 84  1  0
 87 85  1  0
 87 88  1  0
 87 86  1  0
 89 92  1  1
 89 90  1  0
 91 89  1  0
M  ISO  4  11 100  19 100  51 101  52 101
M  END
>  <TORSDO>  (10) 
F 21

>  <SCORE>  (10) 
-13.159

>  <name>  (10) 
9

>  <ligand_id>  (10) 
9

>  <original_smiles>  (10) 
[H]c1c(OC([H])([H])C([H])([H])Oc2c([H])c([H])c3c(c2[H])C([H])([H])N(C(=O)C([H])(N([H])C(=O)C([H])(N([H])C([H])([H])[H])C([H])([H])[H])C(C([H])([H])[H])(C([H])([H])[H])C([H])([H])[H])C([H])(C(=O)N([H])C2([H])c4c([H])c([H])c([H])c([H])c4C([H])([H])C([H])([H])C2([H])[H])C3([H])[H])nc(C([H])([H])N([H])C(=O)N2C([H])([H])C([H])([H])C([H])([H])C([H])(n3nc(-c4c([H])c([H])c(Oc5c([H])c([H])c(F)c([H])c5F)c([H])c4[H])c(C(=O)N([H])[H])c3N([H])[H])C2([H])[H])nc1C1([H])C([H])([H])C1([H])[H]

>  <smiles>  (10) 
[H]c1c(OC([H])([H])C([H])([H])Oc2c([H])c([H])c3c(c2[H])C([H])([H])N(C(=O)C([H])(N([H])C(=O)C([H])(N([H])C([H])([H])[H])C([H])([H])[H])C(C([H])([H])[H])(C([H])([H])[H])C([H])([H])[H])C([H])(C(=O)N([H])C2([H])c4c([H])c([H])c([H])c([H])c4C([H])([H])C([H])([H])C2([H])[H])C3([H])[H])nc(C([H])([H])N([H])C(=O)N2C([H])([H])C([H])([H])C([H])([H])C([H])(n3nc(-c4c([H])c([H])c(Oc5c([H])c([H])c(F)c([H])c5F)c([H])c4[H])c(C(=O)N([H])[H])c3N([H])[H])C2([H])[H])nc1C1([H])C([H])([H])C1([H])[H]

$$$$
10:0:0
     RDKit          3D

 88 96  0  0  1  0  0  0  0  0999 V2000
  -28.3470  -21.7980   21.2060 C   0  0  0  0  0  3  0  0  0  0  0  0
  -28.5290  -22.7930   20.1570 C   0  0  0  0  0  0  0  0  0  0  0  0
  -29.1650  -22.0060   19.1080 C   0  0  0  0  0  0  0  0  0  0  0  0
  -29.3090  -19.7570   20.1790 C   0  0  0  0  0  0  0  0  0  0  0  0
  -29.4650  -22.6540   17.7720 C   0  0  0  0  0  1  0  0  0  0  0  0
  -28.7270  -20.4230   21.2240 N   0  0  0  0  0  0  0  0  0  0  0  0
  -29.5320  -20.6330   19.1470 N   0  0  0  0  0  0  0  0  0  0  0  0
  -27.7500  -24.3590   20.0410 C   0  0  0  0  0  2  0  0  0  0  0  0
  -28.1390  -25.9360   20.2520 O   0  0  0  0  0  0  0  0  0  0  0  0
  -24.6430  -31.9180   23.2600 C   0  0  0  0  0  0  0  0  0  0  0  0
  -27.1500  -27.0530   20.1990 C   0  0  0  0  0  0  0  0  0  0  0  0
  -23.4320  -30.5390   21.6220 C   0  0  0  0  0  3  0  0  0  0  0  0
  -24.8630  -28.9410   20.1810 C   0  0  0  0  0  0  0  0  0  0  0  0
  -25.9990  -30.7400   21.4610 C   0  0  0  0  0  2  0  0  0  0  0  0
  -26.0580  -29.3360   20.7950 C   0  0  0  0  0  0  0  0  0  0  0  0
  -27.1970  -28.4130   20.7800 C   0  0  0  0  0  3  0  0  0  0  0  0
  -25.9230  -26.8110   19.5400 C   0  0  0  0  0  3  0  0  0  0  0  0
  -24.8190  -27.6980   19.5350 C   0  0  0  0  0  3  0  0  0  0  0  0
  -23.6470  -29.8650   20.2410 C   0  0  0  0  0  2  0  0  0  0  0  0
  -24.7140  -31.0910   22.1670 N   0  0  0  0  0  0  0  0  0  0  0  0
  -23.5590  -32.2100   23.7870 O   0  0  0  0  0  0  0  0  0  0  0  0
  -22.7400  -29.5410   22.5850 C   0  0  0  0  0  0  0  0  0  0  0  0
  -21.4110  -29.3690   22.4580 N   0  0  0  0  0  0  0  0  0  0  0  0
  -23.4050  -28.9190   23.4170 O   0  0  0  0  0  0  0  0  0  0  0  0
  -20.9250  -29.9180   21.7620 H   0  0  0  0  0  0  0  0  0  0  0  0
  -18.0320  -28.1450   22.9570 C   0  0  0  0  0  0  0  0  0  0  0  0
  -20.5900  -28.4300   23.2310 C   0  0  0  0  0  3  0  0  0  0  0  0
  -20.7040  -26.9960   22.6630 C   0  0  0  0  0  2  0  0  0  0  0  0
  -19.6090  -26.6620   21.6460 C   0  0  0  0  0  2  0  0  0  0  0  0
  -18.2220  -26.7970   22.2830 C   0  0  0  0  0  2  0  0  0  0  0  0
  -19.1440  -28.9200   23.3880 C   0  0  0  0  0  0  0  0  0  0  0  0
  -18.9100  -30.1790   23.9800 C   0  0  0  0  0  3  0  0  0  0  0  0
  -17.6000  -30.6670   24.1450 C   0  0  0  0  0  3  0  0  0  0  0  0
  -16.5030  -29.8910   23.7290 C   0  0  0  0  0  3  0  0  0  0  0  0
  -16.7210  -28.6330   23.1410 C   0  0  0  0  0  3  0  0  0  0  0  0
  -25.9220  -32.5520   23.8860 C   0  0  0  0  0  3  0  0  0  0  0  0
  -25.6140  -33.9540   24.2210 N   0  0  0  0  0  0  0  0  0  0  0  0
  -25.9230  -35.0110   23.4590 C   0  0  0  0  0  0  0  0  0  0  0  0
  -26.5570  -34.9100   22.4060 O   0  0  0  0  0  0  0  0  0  0  0  0
  -25.0490  -34.1070   25.0440 H   0  0  0  0  0  0  0  0  0  0  0  0
  -24.1720  -36.8000   23.1920 C   0  0  0  0  0  1  0  0  0  0  0  0
  -25.4550  -36.4020   23.9390 C   0  0  0  0  0  3  0  0  0  0  0  0
  -27.6230  -37.3040   24.6590 C   0  0  0  0  0  1  0  0  0  0  0  0
  -26.4760  -37.4590   23.7670 N   0  0  0  0  0  0  0  0  0  0  0  0
  -26.0720  -38.3780   23.9280 H   0  0  0  0  0  0  0  0  0  0  0  0
  -26.4250  -31.7850   25.1720 C   0  0  1  0  0  0  0  0  0  0  0  0
  -25.3250  -31.5640   26.2360 C   0  0  0  0  0  1  0  0  0  0  0  0
  -27.0000  -30.4000   24.8000 C   0  0  0  0  0  1  0  0  0  0  0  0
  -27.5780  -32.5760   25.8340 C   0  0  0  0  0  1  0  0  0  0  0  0
  -30.0970  -18.2040   20.2620 C   0  0  0  0  0  2  0  0  0  0  0  0
  -30.4270  -15.3370   20.2100 C   0  0  0  0  0  0  0  0  0  0  0  0
  -30.3870  -12.8950   19.3510 C   0  0  0  0  0  2  0  0  0  0  0  0
  -29.4490  -12.6790   18.1370 C   0  0  0  0  0  2  0  0  0  0  0  0
  -28.0080  -12.4090   18.6070 C   0  0  0  0  0  2  0  0  0  0  0  0
  -27.5710  -13.3810   19.7310 C   0  0  0  0  0  3  0  0  0  0  0  0
  -28.6360  -13.5410   20.8360 C   0  0  0  0  0  2  0  0  0  0  0  0
  -29.8530  -14.0380   20.1750 N   0  0  0  0  0  0  0  0  0  0  0  0
  -31.6430  -15.3360   19.9740 O   0  0  0  0  0  0  0  0  0  0  0  0
  -29.6830  -16.6060   20.3050 N   0  0  0  0  0  0  0  0  0  0  0  0
  -28.6910  -16.4760   20.4380 H   0  0  0  0  0  0  0  0  0  0  0  0
  -25.2200  -13.9320   20.5480 C   0  0  0  0  0  0  0  0  0  0  0  0
  -24.1650  -13.1500   20.9260 C   0  0  0  0  0  0  0  0  0  0  0  0
  -24.6280  -11.8000   20.8580 C   0  0  0  0  0  0  0  0  0  0  0  0
  -26.2550  -13.0590   20.2640 N   0  0  0  0  0  0  0  0  0  0  0  0
  -25.9130  -11.7690   20.5190 N   0  0  0  0  0  0  0  0  0  0  0  0
  -23.9030  -10.5350   21.0370 C   0  0  0  0  0  0  0  0  0  0  0  0
  -24.3310   -9.5620   21.9660 C   0  0  0  0  0  3  0  0  0  0  0  0
  -23.6030   -8.3640   22.1340 C   0  0  0  0  0  3  0  0  0  0  0  0
  -22.4320   -8.1330   21.3740 C   0  0  0  0  0  0  0  0  0  0  0  0
  -22.0230   -9.0960   20.4340 C   0  0  0  0  0  3  0  0  0  0  0  0
  -22.7520  -10.2840   20.2630 C   0  0  0  0  0  3  0  0  0  0  0  0
  -21.6740   -6.9890   21.4530 O   0  0  0  0  0  0  0  0  0  0  0  0
  -21.5930   -6.2580   22.6120 C   0  0  0  0  0  0  0  0  0  0  0  0
  -21.1090   -6.8200   23.8150 C   0  0  0  0  0  3  0  0  0  0  0  0
  -20.9760   -6.0140   24.9630 C   0  0  0  0  0  3  0  0  0  0  0  0
  -21.3170   -4.6490   24.9090 C   0  0  0  0  0  0  0  0  0  0  0  0
  -21.7940   -4.0880   23.7120 C   0  0  0  0  0  3  0  0  0  0  0  0
  -21.9280   -4.8900   22.5650 C   0  0  0  0  0  0  0  0  0  0  0  0
  -22.3670   -4.3400   21.4080 F   0  0  0  0  0  0  0  0  0  0  0  0
  -21.1830   -3.8730   26.0100 F   0  0  0  0  0  0  0  0  0  0  0  0
  -22.7750  -13.6250   21.2300 C   0  0  0  0  0  0  0  0  0  0  0  0
  -22.0610  -12.9160   22.0970 N   0  0  0  0  0  0  0  0  0  0  0  0
  -22.3320  -14.6610   20.7350 O   0  0  0  0  0  0  0  0  0  0  0  0
  -22.4330  -12.0780   22.5180 H   0  0  0  0  0  0  0  0  0  0  0  0
  -21.1290  -13.2160   22.3440 H   0  0  0  0  0  0  0  0  0  0  0  0
  -25.3790  -15.3050   20.3920 N   0  0  0  0  0  0  0  0  0  0  0  0
  -24.6090  -15.9530   20.5200 H   0  0  0  0  0  0  0  0  0  0  0  0
  -26.2060  -15.7470   20.0120 H   0  0  0  0  0  0  0  0  0  0  0  0
  1  6  1  0
  2  1  2  0
  3  7  2  0
  3  2  1  0
  4 50  1  0
  4  6  2  0
  5  3  1  0
  7  4  1  0
  8  2  1  0
  8  9  1  0
 10 21  2  0
 11  9  1  0
 11 16  1  0
 12 20  1  0
 12 22  1  0
 13 19  1  0
 13 15  1  0
 14 20  1  0
 15 14  1  0
 16 15  2  0
 17 11  2  0
 18 17  1  0
 18 13  2  0
 19 12  1  0
 20 10  1  0
 22 24  2  0
 23 22  1  0
 25 23  1  0
 26 35  2  0
 26 31  1  0
 27 23  1  0
 27 31  1  0
 28 27  1  0
 29 30  1  0
 29 28  1  0
 30 26  1  0
 31 32  2  0
 32 33  1  0
 34 33  2  0
 35 34  1  0
 36 10  1  0
 36 37  1  0
 36 46  1  0
 37 40  1  0
 38 42  1  0
 38 37  1  0
 39 38  2  0
 42 41  1  0
 44 45  1  0
 44 42  1  0
 44 43  1  0
 46 49  1  1
 46 47  1  0
 48 46  1  0
 50 59  1  0
 51 59  1  0
 52 57  1  0
 53 54  1  0
 53 52  1  0
 55 54  1  0
 55 64  1  0
 55 56  1  0
 57 51  1  0
 57 56  1  0
 58 51  2  0
 59 60  1  0
 61 62  2  0
 62 81  1  0
 63 62  1  0
 63 66  1  0
 64 65  1  0
 64 61  1  0
 65 63  2  0
 66 67  1  0
 67 68  2  0
 69 72  1  0
 69 68  1  0
 70 69  2  0
 71 70  1  0
 71 66  2  0
 72 73  1  0
 73 74  1  0
 74 75  2  0
 76 75  1  0
 76 80  1  0
 77 76  2  0
 78 73  2  0
 78 77  1  0
 79 78  1  0
 81 82  1  0
 82 85  1  0
 82 84  1  0
 83 81  2  0
 86 87  1  0
 86 61  1  0
 88 86  1  0
M  ISO  4   8 101   9 101  51 100  59 100
M  END
>  <TORSDO>  (11) 
F 18

>  <SCORE>  (11) 
-15.824

>  <name>  (11) 
10

>  <ligand_id>  (11) 
10

>  <original_smiles>  (11) 
[H]c1nc(C([H])([H])N([H])C(=O)N2C([H])([H])C([H])([H])C([H])([H])C([H])(n3nc(-c4c([H])c([H])c(Oc5c([H])c([H])c(F)c([H])c5F)c([H])c4[H])c(C(=O)N([H])[H])c3N([H])[H])C2([H])[H])nc(C([H])([H])[H])c1C([H])([H])Oc1c([H])c([H])c2c(c1[H])C([H])([H])N(C(=O)C([H])(N([H])C(=O)C([H])(N([H])C([H])([H])[H])C([H])([H])[H])C(C([H])([H])[H])(C([H])([H])[H])C([H])([H])[H])C([H])(C(=O)N([H])C1([H])c3c([H])c([H])c([H])c([H])c3C([H])([H])C([H])([H])C1([H])[H])C2([H])[H]

>  <smiles>  (11) 
[H]c1nc(C([H])([H])N([H])C(=O)N2C([H])([H])C([H])([H])C([H])([H])C([H])(n3nc(-c4c([H])c([H])c(Oc5c([H])c([H])c(F)c([H])c5F)c([H])c4[H])c(C(=O)N([H])[H])c3N([H])[H])C2([H])[H])nc(C([H])([H])[H])c1C([H])([H])Oc1c([H])c([H])c2c(c1[H])C([H])([H])N(C(=O)C([H])(N([H])C(=O)C([H])(N([H])C([H])([H])[H])C([H])([H])[H])C(C([H])([H])[H])(C([H])([H])[H])C([H])([H])[H])C([H])(C(=O)N([H])C1([H])c3c([H])c([H])c([H])c([H])c3C([H])([H])C([H])([H])C1([H])[H])C2([H])[H]

$$$$
11:0:0
     RDKit          3D

 89 98  0  0  1  0  0  0  0  0999 V2000
  -28.8540  -22.6470   18.9110 C   0  0  0  0  0  3  0  0  0  0  0  0
  -28.6810  -23.2150   20.2160 C   0  0  0  0  0  0  0  0  0  0  0  0
  -29.0260  -22.0200   20.9420 C   0  0  0  0  0  0  0  0  0  0  0  0
  -29.0600  -21.8700   22.4260 C   0  0  0  0  0  1  0  0  0  0  0  0
  -29.2370  -21.3430   18.8670 N   0  0  0  0  0  0  0  0  0  0  0  0
  -29.3610  -20.8470   20.1330 N   0  0  0  0  0  0  0  0  0  0  0  0
  -28.0420  -24.7220   20.6570 C   0  0  0  0  0  2  0  0  0  0  0  0
  -28.3280  -26.1900   20.1420 O   0  0  0  0  0  0  0  0  0  0  0  0
  -24.6560  -31.9280   23.1740 C   0  0  0  0  0  0  0  0  0  0  0  0
  -27.2850  -27.2100   20.1360 C   0  0  0  0  0  0  0  0  0  0  0  0
  -23.4790  -30.5290   21.5230 C   0  0  0  0  0  3  0  0  0  0  0  0
  -24.9490  -28.9690   20.0990 C   0  0  0  0  0  0  0  0  0  0  0  0
  -26.0360  -30.8060   21.3760 C   0  0  0  0  0  2  0  0  0  0  0  0
  -26.1260  -29.4130   20.7180 C   0  0  0  0  0  0  0  0  0  0  0  0
  -27.2970  -28.5520   20.7140 C   0  0  0  0  0  3  0  0  0  0  0  0
  -26.0830  -26.8870   19.4720 C   0  0  0  0  0  3  0  0  0  0  0  0
  -24.9440  -27.7220   19.4580 C   0  0  0  0  0  3  0  0  0  0  0  0
  -23.7150  -29.8610   20.1440 C   0  0  0  0  0  2  0  0  0  0  0  0
  -24.7440  -31.1110   22.0790 N   0  0  0  0  0  0  0  0  0  0  0  0
  -23.5640  -32.2000   23.6970 O   0  0  0  0  0  0  0  0  0  0  0  0
  -22.8010  -29.5130   22.4780 C   0  0  0  0  0  0  0  0  0  0  0  0
  -21.4780  -29.3220   22.3360 N   0  0  0  0  0  0  0  0  0  0  0  0
  -23.4720  -28.8980   23.3110 O   0  0  0  0  0  0  0  0  0  0  0  0
  -20.9920  -29.8710   21.6400 H   0  0  0  0  0  0  0  0  0  0  0  0
  -18.1090  -28.0660   22.8060 C   0  0  0  0  0  0  0  0  0  0  0  0
  -20.6620  -28.3710   23.0980 C   0  0  0  0  0  3  0  0  0  0  0  0
  -20.7920  -26.9410   22.5240 C   0  0  0  0  0  2  0  0  0  0  0  0
  -19.7050  -26.6010   21.4980 C   0  0  0  0  0  2  0  0  0  0  0  0
  -18.3160  -26.7220   22.1290 C   0  0  0  0  0  2  0  0  0  0  0  0
  -19.2110  -28.8480   23.2470 C   0  0  0  0  0  0  0  0  0  0  0  0
  -18.9630  -30.1030   23.8420 C   0  0  0  0  0  3  0  0  0  0  0  0
  -17.6480  -30.5790   23.9990 C   0  0  0  0  0  3  0  0  0  0  0  0
  -16.5610  -29.7950   23.5720 C   0  0  0  0  0  3  0  0  0  0  0  0
  -16.7920  -28.5410   22.9820 C   0  0  0  0  0  3  0  0  0  0  0  0
  -25.9230  -32.5750   23.8120 C   0  0  0  0  0  3  0  0  0  0  0  0
  -25.5940  -33.9690   24.1490 N   0  0  0  0  0  0  0  0  0  0  0  0
  -25.9190  -35.0340   23.4030 C   0  0  0  0  0  0  0  0  0  0  0  0
  -26.5900  -34.9460   22.3710 O   0  0  0  0  0  0  0  0  0  0  0  0
  -24.9970  -34.1110   24.9500 H   0  0  0  0  0  0  0  0  0  0  0  0
  -24.1810  -36.8240   23.0590 C   0  0  0  0  0  1  0  0  0  0  0  0
  -25.4200  -36.4150   23.8730 C   0  0  0  0  0  3  0  0  0  0  0  0
  -27.5400  -37.3120   24.7310 C   0  0  0  0  0  1  0  0  0  0  0  0
  -26.4470  -37.4760   23.7770 N   0  0  0  0  0  0  0  0  0  0  0  0
  -26.0330  -38.3930   23.9240 H   0  0  0  0  0  0  0  0  0  0  0  0
  -26.4320  -31.8070   25.0950 C   0  0  1  0  0  0  0  0  0  0  0  0
  -25.3290  -31.5600   26.1520 C   0  0  0  0  0  1  0  0  0  0  0  0
  -27.0300  -30.4340   24.7150 C   0  0  0  0  0  1  0  0  0  0  0  0
  -27.5690  -32.6100   25.7690 C   0  0  0  0  0  1  0  0  0  0  0  0
  -30.0330  -19.3860   20.3620 C   0  0  0  0  0  2  0  0  0  0  0  0
  -30.5900  -15.2020   20.2670 C   0  0  0  0  0  0  0  0  0  0  0  0
  -30.5190  -12.8160   19.3590 C   0  0  0  0  0  2  0  0  0  0  0  0
  -29.5770  -12.6960   18.1400 C   0  0  0  0  0  2  0  0  0  0  0  0
  -28.1210  -12.4630   18.5900 C   0  0  0  0  0  2  0  0  0  0  0  0
  -27.6980  -13.3990   19.7520 C   0  0  0  0  0  3  0  0  0  0  0  0
  -28.7670  -13.4790   20.8610 C   0  0  0  0  0  2  0  0  0  0  0  0
  -30.0090  -13.9270   20.2130 N   0  0  0  0  0  0  0  0  0  0  0  0
  -31.8200  -15.2410   20.1500 O   0  0  0  0  0  0  0  0  0  0  0  0
  -28.2710  -17.6120   19.3400 C   0  0  0  0  0  2  0  0  0  0  0  0
  -29.3030  -16.6950   18.6740 C   0  0  0  0  0  2  0  0  0  0  0  0
  -29.2840  -17.8610   20.4490 C   0  0  0  0  0  3  0  0  0  0  0  0
  -29.7970  -16.3850   20.0150 N   0  0  0  0  0  0  0  0  0  0  0  0
  -25.3260  -13.9500   20.5270 C   0  0  0  0  0  0  0  0  0  0  0  0
  -24.2690  -13.1650   20.8930 C   0  0  0  0  0  0  0  0  0  0  0  0
  -24.7440  -11.8190   20.8490 C   0  0  0  0  0  0  0  0  0  0  0  0
  -26.3730  -13.0820   20.2700 N   0  0  0  0  0  0  0  0  0  0  0  0
  -26.0350  -11.7940   20.5330 N   0  0  0  0  0  0  0  0  0  0  0  0
  -24.0270  -10.5510   21.0310 C   0  0  0  0  0  0  0  0  0  0  0  0
  -24.4580   -9.5870   21.9710 C   0  0  0  0  0  3  0  0  0  0  0  0
  -23.7380   -8.3860   22.1430 C   0  0  0  0  0  3  0  0  0  0  0  0
  -22.5740   -8.1400   21.3760 C   0  0  0  0  0  0  0  0  0  0  0  0
  -22.1630   -9.0920   20.4270 C   0  0  0  0  0  3  0  0  0  0  0  0
  -22.8830  -10.2860   20.2530 C   0  0  0  0  0  3  0  0  0  0  0  0
  -21.8260   -6.9900   21.4580 O   0  0  0  0  0  0  0  0  0  0  0  0
  -21.7520   -6.2600   22.6170 C   0  0  0  0  0  0  0  0  0  0  0  0
  -21.2520   -6.8140   23.8160 C   0  0  0  0  0  3  0  0  0  0  0  0
  -21.1300   -6.0090   24.9660 C   0  0  0  0  0  3  0  0  0  0  0  0
  -21.4960   -4.6500   24.9170 C   0  0  0  0  0  0  0  0  0  0  0  0
  -21.9890   -4.0960   23.7230 C   0  0  0  0  0  3  0  0  0  0  0  0
  -22.1130   -4.8980   22.5750 C   0  0  0  0  0  0  0  0  0  0  0  0
  -22.5690   -4.3550   21.4210 F   0  0  0  0  0  0  0  0  0  0  0  0
  -21.3710   -3.8740   26.0190 F   0  0  0  0  0  0  0  0  0  0  0  0
  -22.8700  -13.6330   21.1710 C   0  0  0  0  0  0  0  0  0  0  0  0
  -22.1490  -12.9280   22.0340 N   0  0  0  0  0  0  0  0  0  0  0  0
  -22.4250  -14.6590   20.6570 O   0  0  0  0  0  0  0  0  0  0  0  0
  -22.5240  -12.0980   22.4720 H   0  0  0  0  0  0  0  0  0  0  0  0
  -21.2100  -13.2220   22.2630 H   0  0  0  0  0  0  0  0  0  0  0  0
  -25.4740  -15.3230   20.3640 N   0  0  0  0  0  0  0  0  0  0  0  0
  -24.7090  -15.9720   20.4990 H   0  0  0  0  0  0  0  0  0  0  0  0
  -26.3340  -15.7680   20.0720 H   0  0  0  0  0  0  0  0  0  0  0  0
  1  2  1  0
  2  7  1  0
  2  3  2  0
  3  4  1  0
  5  1  2  0
  5  6  1  0
  6 49  1  0
  6  3  1  0
  8  7  1  0
  9 20  2  0
 10  8  1  0
 10 15  1  0
 11 19  1  0
 11 21  1  0
 12 18  1  0
 12 14  1  0
 13 19  1  0
 14 13  1  0
 15 14  2  0
 16 10  2  0
 17 16  1  0
 17 12  2  0
 18 11  1  0
 19  9  1  0
 21 23  2  0
 22 21  1  0
 24 22  1  0
 25 34  2  0
 25 30  1  0
 26 22  1  0
 26 30  1  0
 27 26  1  0
 28 29  1  0
 28 27  1  0
 29 25  1  0
 30 31  2  0
 31 32  1  0
 33 32  2  0
 34 33  1  0
 35  9  1  0
 35 36  1  0
 35 45  1  0
 36 39  1  0
 37 41  1  0
 37 36  1  0
 38 37  2  0
 41 40  1  0
 43 41  1  0
 43 44  1  0
 43 42  1  0
 45 48  1  1
 45 46  1  0
 47 45  1  0
 51 56  1  0
 52 53  1  0
 52 51  1  0
 54 53  1  0
 54 65  1  0
 54 55  1  0
 56 50  1  0
 56 55  1  0
 57 50  2  0
 58 60  1  0
 59 58  1  0
 59 61  1  0
 60 49  1  0
 61 50  1  0
 61 60  1  0
 62 63  2  0
 63 82  1  0
 64 63  1  0
 64 67  1  0
 65 62  1  0
 65 66  1  0
 66 64  2  0
 67 68  1  0
 68 69  2  0
 70 73  1  0
 70 69  1  0
 71 70  2  0
 72 71  1  0
 72 67  2  0
 73 74  1  0
 74 75  1  0
 75 76  2  0
 77 76  1  0
 77 81  1  0
 78 77  2  0
 79 74  2  0
 79 78  1  0
 80 79  1  0
 82 83  1  0
 83 86  1  0
 83 85  1  0
 84 82  2  0
 87 88  1  0
 87 62  1  0
 89 87  1  0
M  ISO  4   7 101   8 101  50 100  61 100
M  END
>  <TORSDO>  (12) 
F 18

>  <SCORE>  (12) 
-15.994

>  <name>  (12) 
11

>  <ligand_id>  (12) 
11

>  <original_smiles>  (12) 
[H]c1nn(C([H])([H])C2([H])N(C(=O)N3C([H])([H])C([H])([H])C([H])([H])C([H])(n4nc(-c5c([H])c([H])c(Oc6c([H])c([H])c(F)c([H])c6F)c([H])c5[H])c(C(=O)N([H])[H])c4N([H])[H])C3([H])[H])C([H])([H])C2([H])[H])c(C([H])([H])[H])c1C([H])([H])Oc1c([H])c([H])c2c(c1[H])C([H])([H])N(C(=O)C([H])(N([H])C(=O)C([H])(N([H])C([H])([H])[H])C([H])([H])[H])C(C([H])([H])[H])(C([H])([H])[H])C([H])([H])[H])C([H])(C(=O)N([H])C1([H])c3c([H])c([H])c([H])c([H])c3C([H])([H])C([H])([H])C1([H])[H])C2([H])[H]

>  <smiles>  (12) 
[H]c1nn(C([H])([H])C2([H])N(C(=O)N3C([H])([H])C([H])([H])C([H])([H])C([H])(n4nc(-c5c([H])c([H])c(Oc6c([H])c([H])c(F)c([H])c6F)c([H])c5[H])c(C(=O)N([H])[H])c4N([H])[H])C3([H])[H])C([H])([H])C2([H])[H])c(C([H])([H])[H])c1C([H])([H])Oc1c([H])c([H])c2c(c1[H])C([H])([H])N(C(=O)C([H])(N([H])C(=O)C([H])(N([H])C([H])([H])[H])C([H])([H])[H])C(C([H])([H])[H])(C([H])([H])[H])C([H])([H])[H])C([H])(C(=O)N([H])C1([H])c3c([H])c([H])c([H])c([H])c3C([H])([H])C([H])([H])C1([H])[H])C2([H])[H]

$$$$
12:0:0
     RDKit          3D

 90 94  0  0  1  0  0  0  0  0999 V2000
  -29.4070  -17.7820   18.5590 C   0  0  0  0  0  3  0  0  0  0  0  0
  -27.8680  -19.2260   19.6140 C   0  0  0  0  0  0  0  0  0  0  0  0
  -29.0460  -20.7020   18.1440 C   0  0  0  0  0  3  0  0  0  0  0  0
  -26.7130  -19.1780   20.6030 C   0  0  0  0  0  1  0  0  0  0  0  0
  -28.4190  -17.9880   19.4360 N   0  0  0  0  0  0  0  0  0  0  0  0
  -29.6750  -19.2320   17.8960 N   0  0  0  0  0  0  0  0  0  0  0  0
  -28.0980  -20.4770   19.0830 N   0  0  0  0  0  0  0  0  0  0  0  0
  -31.9900  -15.2570   20.6530 C   0  0  0  0  0  0  0  0  0  0  0  0
  -31.1950  -13.9680   18.0190 C   0  0  0  0  0  1  0  0  0  0  0  0
  -29.9720  -13.0120   17.4830 C   0  0  0  0  0  2  0  0  0  0  0  0
  -28.7330  -12.6420   18.4460 C   0  0  0  0  0  2  0  0  0  0  0  0
  -28.3800  -13.6240   19.6990 C   0  0  0  0  0  3  0  0  0  0  0  0
  -29.3660  -14.4700   20.8100 C   0  0  0  0  0  2  0  0  0  0  0  0
  -30.8340  -14.8900   20.2390 N   0  0  0  0  0  2  0  0  0  0  0  0
  -32.5810  -15.2270   21.6730 O   0  0  0  0  0  0  0  0  0  0  0  0
  -30.8280  -12.8100   19.7990 C   0  0  0  0  0  1  0  0  0  0  0  0
  -32.5360  -13.3400   19.9540 C   0  0  0  0  0  2  0  0  0  0  0  0
  -31.7630  -16.2270   18.6490 C   0  0  0  0  0  2  0  0  0  0  0  0
  -29.9680  -15.7780   18.4620 C   0  0  0  0  0  1  0  0  0  0  0  0
  -32.5990  -15.0300   19.5850 N   0  0  0  0  0  0  0  0  0  0  0  0
  -26.0050  -13.9960   20.2930 C   0  0  0  0  0  0  0  0  0  0  0  0
  -24.9480  -13.2010   20.5910 C   0  0  0  0  0  0  0  0  0  0  0  0
  -25.4490  -11.8650   20.6710 C   0  0  0  0  0  0  0  0  0  0  0  0
  -27.0970  -13.1750   20.2060 N   0  0  0  0  0  0  0  0  0  0  0  0
  -26.7750  -11.8620   20.4560 N   0  0  0  0  0  0  0  0  0  0  0  0
  -24.7030  -10.6130   20.9080 C   0  0  0  0  0  0  0  0  0  0  0  0
  -24.9600   -9.7900   22.0270 C   0  0  0  0  0  3  0  0  0  0  0  0
  -24.1880   -8.6310   22.2600 C   0  0  0  0  0  3  0  0  0  0  0  0
  -23.1400   -8.2810   21.3750 C   0  0  0  0  0  0  0  0  0  0  0  0
  -22.9000   -9.0930   20.2490 C   0  0  0  0  0  3  0  0  0  0  0  0
  -23.6750  -10.2420   20.0190 C   0  0  0  0  0  3  0  0  0  0  0  0
  -22.3520   -7.1620   21.5140 O   0  0  0  0  0  0  0  0  0  0  0  0
  -21.9800   -6.6790   22.7450 C   0  0  0  0  0  0  0  0  0  0  0  0
  -21.1690   -7.4270   23.6260 C   0  0  0  0  0  3  0  0  0  0  0  0
  -20.7590   -6.8690   24.8540 C   0  0  0  0  0  3  0  0  0  0  0  0
  -21.1450   -5.5610   25.2000 C   0  0  0  0  0  0  0  0  0  0  0  0
  -21.9420   -4.8080   24.3200 C   0  0  0  0  0  3  0  0  0  0  0  0
  -22.3550   -5.3640   23.0950 C   0  0  0  0  0  0  0  0  0  0  0  0
  -23.1060   -4.6230   22.2440 F   0  0  0  0  0  0  0  0  0  0  0  0
  -20.7410   -5.0220   26.3740 F   0  0  0  0  0  0  0  0  0  0  0  0
  -23.5400  -13.6870   20.7160 C   0  0  0  0  0  0  0  0  0  0  0  0
  -22.7780  -13.0990   21.6290 N   0  0  0  0  0  0  0  0  0  0  0  0
  -23.1360  -14.6420   20.0530 O   0  0  0  0  0  0  0  0  0  0  0  0
  -23.1420  -12.3460   22.1890 H   0  0  0  0  0  0  0  0  0  0  0  0
  -21.8280  -13.4100   21.7790 H   0  0  0  0  0  0  0  0  0  0  0  0
  -26.1210  -15.3650   20.0790 N   0  0  0  0  0  0  0  0  0  0  0  0
  -25.3260  -15.9790   20.2260 H   0  0  0  0  0  0  0  0  0  0  0  0
  -27.0040  -15.8550   20.0260 H   0  0  0  0  0  0  0  0  0  0  0  0
  -29.0460  -22.6450   17.3690 C   0  0  0  0  0 15  0  0  0  0  0  0
  -28.9420  -24.6120   17.6100 O   0  0  0  0  0  1  0  0  0  0  0  0
  -25.0820  -30.5020   21.8140 C   0  0  0  0  0  0  0  0  0  0  0  0
  -27.9360  -25.9310   17.8290 C   0  0  0  0  0  0  0  0  0  0  0  0
  -23.9700  -29.1820   20.0740 C   0  0  0  0  0  3  0  0  0  0  0  0
  -25.4880  -27.9080   18.3180 C   0  0  0  0  0  0  0  0  0  0  0  0
  -26.5260  -29.5620   19.8380 C   0  0  0  0  0  2  0  0  0  0  0  0
  -26.7020  -28.2260   18.9340 C   0  0  0  0  0  0  0  0  0  0  0  0
  -27.8820  -27.2680   18.6700 C   0  0  0  0  0  3  0  0  0  0  0  0
  -26.6560  -25.9490   17.2000 C   0  0  0  0  0  3  0  0  0  0  0  0
  -25.5230  -26.8130   17.4310 C   0  0  0  0  0  3  0  0  0  0  0  0
  -24.1970  -28.7190   18.6000 C   0  0  0  0  0  2  0  0  0  0  0  0
  -25.2220  -29.7900   20.6290 N   0  0  0  0  0  0  0  0  0  0  0  0
  -23.9920  -30.5890   22.4120 O   0  0  0  0  0  0  0  0  0  0  0  0
  -23.4420  -28.0090   20.9480 C   0  0  0  0  0  0  0  0  0  0  0  0
  -22.1340  -27.6860   20.8830 N   0  0  0  0  0  0  0  0  0  0  0  0
  -24.2270  -27.3890   21.6680 O   0  0  0  0  0  0  0  0  0  0  0  0
  -21.5310  -28.2470   20.2960 H   0  0  0  0  0  0  0  0  0  0  0  0
  -18.9890  -25.9450   21.4800 C   0  0  0  0  0  0  0  0  0  0  0  0
  -21.5060  -26.5420   21.5670 C   0  0  0  0  0  3  0  0  0  0  0  0
  -21.7310  -25.2340   20.7730 C   0  0  0  0  0  2  0  0  0  0  0  0
  -20.5830  -24.9100   19.8110 C   0  0  0  0  0  2  0  0  0  0  0  0
  -19.2680  -24.7550   20.5790 C   0  0  0  0  0  2  0  0  0  0  0  0
  -20.0350  -26.7940   21.9310 C   0  0  0  0  0  0  0  0  0  0  0  0
  -19.7110  -27.9000   22.7480 C   0  0  0  0  0  3  0  0  0  0  0  0
  -18.3770  -28.1620   23.1090 C   0  0  0  0  0  3  0  0  0  0  0  0
  -17.3470  -27.3130   22.6670 C   0  0  0  0  0  3  0  0  0  0  0  0
  -17.6550  -26.2040   21.8590 C   0  0  0  0  0  3  0  0  0  0  0  0
  -26.2730  -31.2580   22.4810 C   0  0  0  0  0  3  0  0  0  0  0  0
  -25.7300  -32.2900   23.3970 N   0  0  0  0  0  0  0  0  0  0  0  0
  -25.8140  -33.6150   23.2210 C   0  0  0  0  0  0  0  0  0  0  0  0
  -26.4020  -34.1160   22.2610 O   0  0  0  0  0  0  0  0  0  0  0  0
  -25.1820  -31.9520   24.1750 H   0  0  0  0  0  0  0  0  0  0  0  0
  -23.8400  -35.1100   23.7100 C   0  0  0  0  0  1  0  0  0  0  0  0
  -25.1490  -34.5330   24.2730 C   0  0  0  0  0  3  0  0  0  0  0  0
  -27.1430  -35.2040   25.5470 C   0  0  0  0  0  1  0  0  0  0  0  0
  -26.0170  -35.6440   24.7280 N   0  0  0  0  0  0  0  0  0  0  0  0
  -25.4790  -36.3200   25.2660 H   0  0  0  0  0  0  0  0  0  0  0  0
  -27.2320  -30.3010   23.2960 C   0  0  1  0  0  0  0  0  0  0  0  0
  -26.5020  -29.4210   24.3400 C   0  0  0  0  0  1  0  0  0  0  0  0
  -28.0080  -29.3510   22.3590 C   0  0  0  0  0  1  0  0  0  0  0  0
  -28.2980  -31.1390   24.0400 C   0  0  0  0  0  1  0  0  0  0  0  0
  1  5  1  0
  2  4  1  0
  3  7  2  0
  5  2  2  0
  6  3  1  0
  6  1  2  0
  7  2  1  0
  8 15  2  0
 10  9  1  0
 10 11  1  0
 12 11  1  0
 12 24  1  0
 12 13  1  0
 14  8  1  0
 14 13  1  0
 16 17  1  0
 18 20  1  0
 19 18  1  0
 20 17  1  0
 20  8  1  0
 21 22  2  0
 22 23  1  0
 22 41  1  0
 23 26  1  0
 24 21  1  0
 24 25  1  0
 25 23  2  0
 26 27  1  0
 27 28  2  0
 29 32  1  0
 29 28  1  0
 30 29  2  0
 31 30  1  0
 31 26  2  0
 32 33  1  0
 33 38  2  0
 33 34  1  0
 34 35  2  0
 35 36  1  0
 36 40  1  0
 37 36  2  0
 38 37  1  0
 39 38  1  0
 41 42  1  0
 42 45  1  0
 42 44  1  0
 43 41  2  0
 46 47  1  0
 46 21  1  0
 48 46  1  0
 50 52  1  0
 51 62  2  0
 52 57  1  0
 53 61  1  0
 53 63  1  0
 54 60  1  0
 54 56  1  0
 55 61  1  0
 56 55  1  0
 57 56  2  0
 58 59  1  0
 58 52  2  0
 59 54  2  0
 60 53  1  0
 61 51  1  0
 63 65  2  0
 64 63  1  0
 66 64  1  0
 67 76  2  0
 67 72  1  0
 68 64  1  0
 68 72  1  0
 69 68  1  0
 70 71  1  0
 70 69  1  0
 71 67  1  0
 72 73  2  0
 73 74  1  0
 75 74  2  0
 76 75  1  0
 77 51  1  0
 77 87  1  0
 77 78  1  0
 78 81  1  0
 79 78  1  0
 79 83  1  0
 80 79  2  0
 83 82  1  0
 83 85  1  0
 85 86  1  0
 85 84  1  0
 87 90  1  1
 87 88  1  0
 89 87  1  0
M  ISO  4   8 100  20 100  49 101  50 101
M  END
>  <TORSDO>  (13) 
F 17

>  <SCORE>  (13) 
-6.516

>  <name>  (13) 
12

>  <ligand_id>  (13) 
12

>  <original_smiles>  (13) 
[H]c1c([H])c([H])c2c(c1[H])C([H])([H])C([H])([H])C([H])([H])C2([H])N([H])C(=O)C1([H])N(C(=O)C([H])(N([H])C(=O)C([H])(N([H])C([H])([H])[H])C([H])([H])[H])C(C([H])([H])[H])(C([H])([H])[H])C([H])([H])[H])C([H])([H])c2c([H])c(OC([H])([H])c3nc(C([H])([H])[H])nc(C4([H])C([H])([H])N(C(=O)N5C([H])([H])C([H])([H])C([H])([H])C([H])(n6nc(-c7c([H])c([H])c(Oc8c([H])c([H])c(F)c([H])c8F)c([H])c7[H])c(C(=O)N([H])[H])c6N([H])[H])C5([H])[H])C([H])([H])C4([H])[H])n3)c([H])c([H])c2C1([H])[H]

>  <smiles>  (13) 
[H]c1c([H])c([H])c2c(c1[H])C([H])([H])C([H])([H])C([H])([H])C2([H])N([H])C(=O)C1([H])N(C(=O)C([H])(N([H])C(=O)C([H])(N([H])C([H])([H])[H])C([H])([H])[H])C(C([H])([H])[H])(C([H])([H])[H])C([H])([H])[H])C([H])([H])c2c([H])c(OC([H])([H])c3nc(C([H])([H])[H])nc(C4([H])C([H])([H])N(C(=O)N5C([H])([H])C([H])([H])C([H])([H])C([H])(n6nc(-c7c([H])c([H])c(Oc8c([H])c([H])c(F)c([H])c8F)c([H])c7[H])c(C(=O)N([H])[H])c6N([H])[H])C5([H])[H])C([H])([H])C4([H])[H])n3)c([H])c([H])c2C1([H])[H]

$$$$
13:0:0
     RDKit          3D

 83 90  0  0  1  0  0  0  0  0999 V2000
  -28.0120  -23.6130   20.1100 C   0  0  0  0  0  1  0  0  0  0  0  0
  -28.1530  -25.4160   20.2730 O   0  0  0  0  0  0  0  0  0  0  0  0
  -24.6970  -31.8320   23.2270 C   0  0  0  0  0  0  0  0  0  0  0  0
  -27.1950  -26.6720   20.2280 C   0  0  0  0  0  0  0  0  0  0  0  0
  -23.5080  -30.4430   21.5870 C   0  0  0  0  0  3  0  0  0  0  0  0
  -24.9470  -28.7740   20.1740 C   0  0  0  0  0  0  0  0  0  0  0  0
  -26.0900  -30.5450   21.4780 C   0  0  0  0  0  2  0  0  0  0  0  0
  -26.1450  -29.1040   20.8190 C   0  0  0  0  0  0  0  0  0  0  0  0
  -27.2480  -28.0840   20.8120 C   0  0  0  0  0  3  0  0  0  0  0  0
  -25.9640  -26.5790   19.5250 C   0  0  0  0  0  3  0  0  0  0  0  0
  -24.9010  -27.5390   19.5020 C   0  0  0  0  0  3  0  0  0  0  0  0
  -23.7500  -29.7430   20.2170 C   0  0  0  0  0  2  0  0  0  0  0  0
  -24.7900  -30.9750   22.1500 N   0  0  0  0  0  0  0  0  0  0  0  0
  -23.6030  -32.1380   23.7340 O   0  0  0  0  0  0  0  0  0  0  0  0
  -22.7790  -29.4730   22.5570 C   0  0  0  0  0  0  0  0  0  0  0  0
  -21.4460  -29.3260   22.4280 N   0  0  0  0  0  0  0  0  0  0  0  0
  -23.4280  -28.8500   23.4010 O   0  0  0  0  0  0  0  0  0  0  0  0
  -20.9710  -29.8760   21.7270 H   0  0  0  0  0  0  0  0  0  0  0  0
  -18.0540  -28.1160   22.9370 C   0  0  0  0  0  0  0  0  0  0  0  0
  -20.6150  -28.3900   23.1970 C   0  0  0  0  0  3  0  0  0  0  0  0
  -20.7180  -26.9570   22.6210 C   0  0  0  0  0  2  0  0  0  0  0  0
  -19.6140  -26.6330   21.6090 C   0  0  0  0  0  2  0  0  0  0  0  0
  -18.2340  -26.7690   22.2580 C   0  0  0  0  0  2  0  0  0  0  0  0
  -19.1710  -28.8830   23.3660 C   0  0  0  0  0  0  0  0  0  0  0  0
  -18.9460  -30.1380   23.9710 C   0  0  0  0  0  3  0  0  0  0  0  0
  -17.6380  -30.6290   24.1460 C   0  0  0  0  0  3  0  0  0  0  0  0
  -16.5370  -29.8630   23.7300 C   0  0  0  0  0  3  0  0  0  0  0  0
  -16.7460  -28.6070   23.1310 C   0  0  0  0  0  3  0  0  0  0  0  0
  -25.9590  -32.4810   23.8730 C   0  0  0  0  0  3  0  0  0  0  0  0
  -25.6400  -33.8830   24.2110 N   0  0  0  0  0  0  0  0  0  0  0  0
  -25.9480  -34.9510   23.4600 C   0  0  0  0  0  0  0  0  0  0  0  0
  -26.5860  -34.8580   22.4090 O   0  0  0  0  0  0  0  0  0  0  0  0
  -25.0660  -34.0270   25.0290 H   0  0  0  0  0  0  0  0  0  0  0  0
  -24.1860  -36.7380   23.2130 C   0  0  0  0  0  1  0  0  0  0  0  0
  -25.4780  -36.3400   23.9450 C   0  0  0  0  0  3  0  0  0  0  0  0
  -27.6480  -37.2550   24.6490 C   0  0  0  0  0  1  0  0  0  0  0  0
  -26.4930  -37.4030   23.7680 N   0  0  0  0  0  0  0  0  0  0  0  0
  -26.0860  -38.3210   23.9300 H   0  0  0  0  0  0  0  0  0  0  0  0
  -26.4430  -31.7230   25.1720 C   0  0  1  0  0  0  0  0  0  0  0  0
  -25.3280  -31.5100   26.2250 C   0  0  0  0  0  1  0  0  0  0  0  0
  -27.0250  -30.3350   24.8240 C   0  0  0  0  0  1  0  0  0  0  0  0
  -27.5890  -32.5140   25.8460 C   0  0  0  0  0  1  0  0  0  0  0  0
  -29.0300  -21.8860   20.2100 C   0  0  0  0  0 15  0  0  0  0  0  0
  -30.2630  -15.8630   20.0540 C   0  0  0  0  0  0  0  0  0  0  0  0
  -30.3890  -13.2910   19.2250 C   0  0  0  0  0  2  0  0  0  0  0  0
  -29.4780  -12.8010   18.0600 C   0  0  0  0  0  2  0  0  0  0  0  0
  -28.0860  -12.4070   18.5690 C   0  0  0  0  0  2  0  0  0  0  0  0
  -27.5810  -13.4060   19.6300 C   0  0  0  0  0  3  0  0  0  0  0  0
  -28.6360  -13.7940   20.6950 C   0  0  0  0  0  2  0  0  0  0  0  0
  -29.7470  -14.4750   19.9810 N   0  0  0  0  0  0  0  0  0  0  0  0
  -31.4950  -15.7630   19.8640 O   0  0  0  0  0  0  0  0  0  0  0  0
  -29.5620  -18.6170   19.1640 C   0  0  0  0  0  3  0  0  0  0  0  0
  -29.5890  -18.5870   21.0700 C   0  0  0  0  0  3  0  0  0  0  0  0
  -28.9040  -19.8720   20.1460 C   0  0  0  0  0  2  0  0  0  0  0  0
  -29.5380  -17.2910   20.1000 N   0  0  0  0  0  0  0  0  0  0  0  0
  -25.2520  -13.8920   20.5090 C   0  0  0  0  0  0  0  0  0  0  0  0
  -24.2120  -13.0940   20.8930 C   0  0  0  0  0  0  0  0  0  0  0  0
  -24.6910  -11.7500   20.8090 C   0  0  0  0  0  0  0  0  0  0  0  0
  -26.2920  -13.0370   20.2000 N   0  0  0  0  0  0  0  0  0  0  0  0
  -25.9720  -11.7380   20.4470 N   0  0  0  0  0  0  0  0  0  0  0  0
  -23.9770  -10.4770   20.9920 C   0  0  0  0  0  0  0  0  0  0  0  0
  -24.4090   -9.5130   21.9290 C   0  0  0  0  0  3  0  0  0  0  0  0
  -23.6890   -8.3090   22.1010 C   0  0  0  0  0  3  0  0  0  0  0  0
  -22.5230   -8.0630   21.3390 C   0  0  0  0  0  0  0  0  0  0  0  0
  -22.1100   -9.0170   20.3920 C   0  0  0  0  0  3  0  0  0  0  0  0
  -22.8300  -10.2110   20.2170 C   0  0  0  0  0  3  0  0  0  0  0  0
  -21.7770   -6.9120   21.4230 O   0  0  0  0  0  0  0  0  0  0  0  0
  -21.6770   -6.2010   22.5930 C   0  0  0  0  0  0  0  0  0  0  0  0
  -21.1630   -6.7770   23.7740 C   0  0  0  0  0  3  0  0  0  0  0  0
  -21.0130   -5.9910   24.9340 C   0  0  0  0  0  3  0  0  0  0  0  0
  -21.3670   -4.6290   24.9120 C   0  0  0  0  0  0  0  0  0  0  0  0
  -21.8740   -4.0510   23.7340 C   0  0  0  0  0  3  0  0  0  0  0  0
  -22.0250   -4.8340   22.5770 C   0  0  0  0  0  0  0  0  0  0  0  0
  -22.4950   -4.2680   21.4390 F   0  0  0  0  0  0  0  0  0  0  0  0
  -21.2160   -3.8710   26.0240 F   0  0  0  0  0  0  0  0  0  0  0  0
  -22.8220  -13.5540   21.2190 C   0  0  0  0  0  0  0  0  0  0  0  0
  -22.1250  -12.8370   22.0930 N   0  0  0  0  0  0  0  0  0  0  0  0
  -22.3640  -14.5880   20.7330 O   0  0  0  0  0  0  0  0  0  0  0  0
  -22.5090  -12.0020   22.5100 H   0  0  0  0  0  0  0  0  0  0  0  0
  -21.1940  -13.1330   22.3520 H   0  0  0  0  0  0  0  0  0  0  0  0
  -25.3950  -15.2680   20.3630 N   0  0  0  0  0  0  0  0  0  0  0  0
  -24.6300  -15.9130   20.5390 H   0  0  0  0  0  0  0  0  0  0  0  0
  -26.2310  -15.7310   20.0290 H   0  0  0  0  0  0  0  0  0  0  0  0
  1  2  1  0
  3 14  2  0
  4  2  1  0
  4  9  1  0
  5 13  1  0
  5 15  1  0
  6 12  1  0
  6  8  1  0
  7 13  1  0
  8  7  1  0
  9  8  2  0
 10  4  2  0
 11 10  1  0
 11  6  2  0
 12  5  1  0
 13  3  1  0
 15 17  2  0
 16 15  1  0
 18 16  1  0
 19 28  2  0
 19 24  1  0
 20 16  1  0
 20 24  1  0
 21 20  1  0
 22 23  1  0
 22 21  1  0
 23 19  1  0
 24 25  2  0
 25 26  1  0
 27 26  2  0
 28 27  1  0
 29  3  1  0
 29 30  1  0
 29 39  1  0
 30 33  1  0
 31 35  1  0
 31 30  1  0
 32 31  2  0
 35 34  1  0
 37 38  1  0
 37 35  1  0
 37 36  1  0
 39 42  1  1
 39 40  1  0
 41 39  1  0
 44 55  1  0
 45 50  1  0
 46 47  1  0
 46 45  1  0
 48 47  1  0
 48 59  1  0
 48 49  1  0
 50 44  1  0
 50 49  1  0
 51 44  2  0
 52 55  1  0
 52 54  1  0
 52 53  1  0
 53 54  1  0
 55 53  1  0
 56 57  2  0
 57 76  1  0
 58 57  1  0
 58 61  1  0
 59 60  1  0
 59 56  1  0
 60 58  2  0
 61 62  1  0
 62 63  2  0
 64 67  1  0
 64 63  1  0
 65 64  2  0
 66 65  1  0
 66 61  2  0
 67 68  1  0
 68 69  1  0
 69 70  2  0
 71 70  1  0
 71 75  1  0
 72 71  2  0
 73 68  2  0
 73 72  1  0
 74 73  1  0
 76 77  1  0
 77 80  1  0
 77 79  1  0
 78 76  2  0
 81 56  1  0
 81 82  1  0
 83 81  1  0
M  ISO  4   1 101   2 101  44 100  55 100
M  END
>  <TORSDO>  (14) 
F 17

>  <SCORE>  (14) 
-16.153

>  <name>  (14) 
13

>  <ligand_id>  (14) 
13

>  <original_smiles>  (14) 
[H]c1c([H])c([H])c2c(c1[H])C([H])([H])C([H])([H])C([H])([H])C2([H])N([H])C(=O)C1([H])N(C(=O)C([H])(N([H])C(=O)C([H])(N([H])C([H])([H])[H])C([H])([H])[H])C(C([H])([H])[H])(C([H])([H])[H])C([H])([H])[H])C([H])([H])c2c([H])c(OC([H])([H])C([H])([H])C3([H])C([H])([H])N(C(=O)N4C([H])([H])C([H])([H])C([H])([H])C([H])(n5nc(-c6c([H])c([H])c(Oc7c([H])c([H])c(F)c([H])c7F)c([H])c6[H])c(C(=O)N([H])[H])c5N([H])[H])C4([H])[H])C3([H])[H])c([H])c([H])c2C1([H])[H]

>  <smiles>  (14) 
[H]c1c([H])c([H])c2c(c1[H])C([H])([H])C([H])([H])C([H])([H])C2([H])N([H])C(=O)C1([H])N(C(=O)C([H])(N([H])C(=O)C([H])(N([H])C([H])([H])[H])C([H])([H])[H])C(C([H])([H])[H])(C([H])([H])[H])C([H])([H])[H])C([H])([H])c2c([H])c(OC([H])([H])C([H])([H])C3([H])C([H])([H])N(C(=O)N4C([H])([H])C([H])([H])C([H])([H])C([H])(n5nc(-c6c([H])c([H])c(Oc7c([H])c([H])c(F)c([H])c7F)c([H])c6[H])c(C(=O)N([H])[H])c5N([H])[H])C4([H])[H])C3([H])[H])c([H])c([H])c2C1([H])[H]

$$$$
14:0:0
     RDKit          3D

 92101  0  0  1  0  0  0  0  0999 V2000
  -29.6020  -22.9650   22.5780 C   0  0  0  0  0  3  0  0  0  0  0  0
  -28.8780  -23.8050   20.6410 C   0  0  0  0  0  0  0  0  0  0  0  0
  -29.3750  -21.5730   20.8550 C   0  0  0  0  0  0  0  0  0  0  0  0
  -29.9500  -23.1740   24.0360 C   0  0  0  0  0  1  0  0  0  0  0  0
  -29.2010  -24.0430   21.9090 N   0  0  0  0  0  0  0  0  0  0  0  0
  -29.7080  -21.7160   22.1290 N   0  0  0  0  0  0  0  0  0  0  0  0
  -28.9690  -22.5810   20.0530 N   0  0  0  0  0  0  0  0  0  0  0  0
  -28.1460  -24.9790   19.8810 C   0  0  0  0  0  2  0  0  0  0  0  0
  -28.3650  -26.4230   20.2210 O   0  0  0  0  0  0  0  0  0  0  0  0
  -24.6350  -31.8630   23.1730 C   0  0  0  0  0  0  0  0  0  0  0  0
  -27.2730  -27.3100   20.1090 C   0  0  0  0  0  0  0  0  0  0  0  0
  -23.4460  -30.4660   21.5250 C   0  0  0  0  0  3  0  0  0  0  0  0
  -24.9100  -28.9380   20.0870 C   0  0  0  0  0  0  0  0  0  0  0  0
  -25.9870  -30.7930   21.3530 C   0  0  0  0  0  2  0  0  0  0  0  0
  -26.0760  -29.4170   20.7000 C   0  0  0  0  0  0  0  0  0  0  0  0
  -27.2570  -28.6120   20.7080 C   0  0  0  0  0  3  0  0  0  0  0  0
  -26.0940  -26.9170   19.4290 C   0  0  0  0  0  3  0  0  0  0  0  0
  -24.9230  -27.6960   19.4410 C   0  0  0  0  0  3  0  0  0  0  0  0
  -23.6670  -29.8040   20.1410 C   0  0  0  0  0  2  0  0  0  0  0  0
  -24.7090  -31.0570   22.0730 N   0  0  0  0  0  0  0  0  0  0  0  0
  -23.5470  -32.1320   23.7020 O   0  0  0  0  0  0  0  0  0  0  0  0
  -22.7850  -29.4370   22.4740 C   0  0  0  0  0  0  0  0  0  0  0  0
  -21.4560  -29.2730   22.3610 N   0  0  0  0  0  0  0  0  0  0  0  0
  -23.4680  -28.7920   23.2750 O   0  0  0  0  0  0  0  0  0  0  0  0
  -20.9640  -29.8460   21.6900 H   0  0  0  0  0  0  0  0  0  0  0  0
  -18.0710  -28.1190   22.9040 C   0  0  0  0  0  0  0  0  0  0  0  0
  -20.6390  -28.3340   23.1290 C   0  0  0  0  0  3  0  0  0  0  0  0
  -20.7060  -26.9120   22.5250 C   0  0  0  0  0  2  0  0  0  0  0  0
  -19.5800  -26.6270   21.5250 C   0  0  0  0  0  2  0  0  0  0  0  0
  -18.2130  -26.7800   22.1980 C   0  0  0  0  0  2  0  0  0  0  0  0
  -19.2100  -28.8550   23.3260 C   0  0  0  0  0  0  0  0  0  0  0  0
  -19.0210  -30.1090   23.9470 C   0  0  0  0  0  3  0  0  0  0  0  0
  -17.7270  -30.6260   24.1460 C   0  0  0  0  0  3  0  0  0  0  0  0
  -16.6030  -29.8870   23.7390 C   0  0  0  0  0  3  0  0  0  0  0  0
  -16.7770  -28.6350   23.1220 C   0  0  0  0  0  3  0  0  0  0  0  0
  -25.9110  -32.5010   23.8030 C   0  0  0  0  0  3  0  0  0  0  0  0
  -25.5860  -33.8920   24.1470 N   0  0  0  0  0  0  0  0  0  0  0  0
  -25.9100  -34.9570   23.3990 C   0  0  0  0  0  0  0  0  0  0  0  0
  -26.5820  -34.8700   22.3680 O   0  0  0  0  0  0  0  0  0  0  0  0
  -24.9890  -34.0340   24.9480 H   0  0  0  0  0  0  0  0  0  0  0  0
  -24.1690  -36.7400   23.0590 C   0  0  0  0  0  1  0  0  0  0  0  0
  -25.4100  -36.3370   23.8710 C   0  0  0  0  0  3  0  0  0  0  0  0
  -27.5340  -37.2300   24.7200 C   0  0  0  0  0  1  0  0  0  0  0  0
  -26.4350  -37.3990   23.7730 N   0  0  0  0  0  0  0  0  0  0  0  0
  -26.0220  -38.3150   23.9280 H   0  0  0  0  0  0  0  0  0  0  0  0
  -26.4310  -31.7210   25.0720 C   0  0  1  0  0  0  0  0  0  0  0  0
  -25.3380  -31.4610   26.1350 C   0  0  0  0  0  1  0  0  0  0  0  0
  -27.0260  -30.3520   24.6660 C   0  0  0  0  0  1  0  0  0  0  0  0
  -27.5730  -32.5180   25.7430 C   0  0  0  0  0  1  0  0  0  0  0  0
  -29.4600  -20.3000   20.2980 O   0  0  0  0  0  0  0  0  0  0  0  0
  -30.8210  -14.7630   20.0030 C   0  0  0  0  0  0  0  0  0  0  0  0
  -30.3890  -12.5340   18.9560 C   0  0  0  0  0  2  0  0  0  0  0  0
  -29.4080  -12.6290   17.7720 C   0  0  0  0  0  2  0  0  0  0  0  0
  -27.9720  -12.4240   18.2790 C   0  0  0  0  0  2  0  0  0  0  0  0
  -27.6550  -13.3230   19.4960 C   0  0  0  0  0  3  0  0  0  0  0  0
  -28.7700  -13.3120   20.5720 C   0  0  0  0  0  2  0  0  0  0  0  0
  -30.0470  -13.6180   19.9170 N   0  0  0  0  0  0  0  0  0  0  0  0
  -31.9810  -14.7020   19.5880 O   0  0  0  0  0  0  0  0  0  0  0  0
  -28.5900  -17.9100   20.6840 C   0  0  0  0  0  2  0  0  0  0  0  0
  -30.9500  -18.4210   21.3780 C   0  0  0  0  0  2  0  0  0  0  0  0
  -29.1720  -16.7070   19.8560 C   0  0  0  0  0  2  0  0  0  0  0  0
  -31.3580  -17.1080   20.6040 C   0  0  0  0  0  2  0  0  0  0  0  0
  -29.5510  -19.0610   21.1180 C   0  0  0  0  0  3  0  0  0  0  0  0
  -30.3460  -16.0120   20.4420 N   0  0  0  0  0  0  0  0  0  0  0  0
  -25.3270  -13.9400   20.3680 C   0  0  0  0  0  0  0  0  0  0  0  0
  -24.2720  -13.1730   20.7790 C   0  0  0  0  0  0  0  0  0  0  0  0
  -24.7200  -11.8170   20.7100 C   0  0  0  0  0  0  0  0  0  0  0  0
  -26.3430  -13.0480   20.0630 N   0  0  0  0  0  0  0  0  0  0  0  0
  -25.9910  -11.7690   20.3370 N   0  0  0  0  0  0  0  0  0  0  0  0
  -23.9920  -10.5600   20.9150 C   0  0  0  0  0  0  0  0  0  0  0  0
  -24.4370   -9.5940   21.8440 C   0  0  0  0  0  3  0  0  0  0  0  0
  -23.7090   -8.4000   22.0380 C   0  0  0  0  0  3  0  0  0  0  0  0
  -22.5230   -8.1660   21.3020 C   0  0  0  0  0  0  0  0  0  0  0  0
  -22.0990   -9.1200   20.3590 C   0  0  0  0  0  3  0  0  0  0  0  0
  -22.8280  -10.3050   20.1640 C   0  0  0  0  0  3  0  0  0  0  0  0
  -21.7650   -7.0240   21.4040 O   0  0  0  0  0  0  0  0  0  0  0  0
  -21.6960   -6.3110   22.5750 C   0  0  0  0  0  0  0  0  0  0  0  0
  -21.2520   -6.8980   23.7800 C   0  0  0  0  0  3  0  0  0  0  0  0
  -21.1290   -6.1100   24.9420 C   0  0  0  0  0  3  0  0  0  0  0  0
  -21.4410   -4.7390   24.9000 C   0  0  0  0  0  0  0  0  0  0  0  0
  -21.8780   -4.1510   23.7010 C   0  0  0  0  0  3  0  0  0  0  0  0
  -22.0040   -4.9360   22.5400 C   0  0  0  0  0  0  0  0  0  0  0  0
  -22.4050   -4.3620   21.3800 F   0  0  0  0  0  0  0  0  0  0  0  0
  -21.3170   -3.9790   26.0140 F   0  0  0  0  0  0  0  0  0  0  0  0
  -22.8930  -13.6600   21.1200 C   0  0  0  0  0  0  0  0  0  0  0  0
  -22.2030  -12.9620   22.0150 N   0  0  0  0  0  0  0  0  0  0  0  0
  -22.4390  -14.6920   20.6290 O   0  0  0  0  0  0  0  0  0  0  0  0
  -22.5860  -12.1270   22.4320 H   0  0  0  0  0  0  0  0  0  0  0  0
  -21.2810  -13.2680   22.2880 H   0  0  0  0  0  0  0  0  0  0  0  0
  -25.4990  -15.3110   20.2040 N   0  0  0  0  0  0  0  0  0  0  0  0
  -24.7490  -15.9750   20.3700 H   0  0  0  0  0  0  0  0  0  0  0  0
  -26.3410  -15.7470   19.8530 H   0  0  0  0  0  0  0  0  0  0  0  0
  1  4  1  0
  2  5  2  0
  3  6  2  0
  5  1  1  0
  6  1  1  0
  7  2  1  0
  7  3  2  0
  8  9  1  0
  8  2  1  0
 10 21  2  0
 11  9  1  0
 11 16  1  0
 12 20  1  0
 12 22  1  0
 13 19  1  0
 13 15  1  0
 14 20  1  0
 15 16  2  0
 15 14  1  0
 17 18  1  0
 17 11  2  0
 18 13  2  0
 19 12  1  0
 20 10  1  0
 22 24  2  0
 23 22  1  0
 25 23  1  0
 26 35  2  0
 26 31  1  0
 27 23  1  0
 27 31  1  0
 28 27  1  0
 29 30  1  0
 29 28  1  0
 30 26  1  0
 31 32  2  0
 32 33  1  0
 34 33  2  0
 35 34  1  0
 36 10  1  0
 36 37  1  0
 36 46  1  0
 37 40  1  0
 38 42  1  0
 38 37  1  0
 39 38  2  0
 42 41  1  0
 44 42  1  0
 44 45  1  0
 44 43  1  0
 46 49  1  1
 46 47  1  0
 48 46  1  0
 50  3  1  0
 51 64  1  0
 52 57  1  0
 53 54  1  0
 53 52  1  0
 55 54  1  0
 55 68  1  0
 55 56  1  0
 57 51  1  0
 57 56  1  0
 58 51  2  0
 59 63  1  0
 61 64  1  0
 61 59  1  0
 62 60  1  0
 63 50  1  0
 63 60  1  0
 64 62  1  0
 65 66  2  0
 66 85  1  0
 67 66  1  0
 67 70  1  0
 68 69  1  0
 68 65  1  0
 69 67  2  0
 70 71  1  0
 71 72  2  0
 73 76  1  0
 73 72  1  0
 74 73  2  0
 75 74  1  0
 75 70  2  0
 76 77  1  0
 77 78  1  0
 78 79  2  0
 80 79  1  0
 80 84  1  0
 81 80  2  0
 82 77  2  0
 82 81  1  0
 83 82  1  0
 85 86  1  0
 86 89  1  0
 86 88  1  0
 87 85  2  0
 90 65  1  0
 90 91  1  0
 92 90  1  0
M  ISO  4   8 101   9 101  51 100  64 100
M  END
>  <TORSDO>  (15) 
F 18

>  <SCORE>  (15) 
-14.628

>  <name>  (15) 
14

>  <ligand_id>  (15) 
14

>  <original_smiles>  (15) 
[H]c1c([H])c([H])c2c(c1[H])C([H])([H])C([H])([H])C([H])([H])C2([H])N([H])C(=O)C1([H])N(C(=O)C([H])(N([H])C(=O)C([H])(N([H])C([H])([H])[H])C([H])([H])[H])C(C([H])([H])[H])(C([H])([H])[H])C([H])([H])[H])C([H])([H])c2c([H])c(OC([H])([H])c3nc(OC4([H])C([H])([H])C([H])([H])N(C(=O)N5C([H])([H])C([H])([H])C([H])([H])C([H])(n6nc(-c7c([H])c([H])c(Oc8c([H])c([H])c(F)c([H])c8F)c([H])c7[H])c(C(=O)N([H])[H])c6N([H])[H])C5([H])[H])C([H])([H])C4([H])[H])nc(C([H])([H])[H])n3)c([H])c([H])c2C1([H])[H]

>  <smiles>  (15) 
[H]c1c([H])c([H])c2c(c1[H])C([H])([H])C([H])([H])C([H])([H])C2([H])N([H])C(=O)C1([H])N(C(=O)C([H])(N([H])C(=O)C([H])(N([H])C([H])([H])[H])C([H])([H])[H])C(C([H])([H])[H])(C([H])([H])[H])C([H])([H])[H])C([H])([H])c2c([H])c(OC([H])([H])c3nc(OC4([H])C([H])([H])C([H])([H])N(C(=O)N5C([H])([H])C([H])([H])C([H])([H])C([H])(n6nc(-c7c([H])c([H])c(Oc8c([H])c([H])c(F)c([H])c8F)c([H])c7[H])c(C(=O)N([H])[H])c6N([H])[H])C5([H])[H])C([H])([H])C4([H])[H])nc(C([H])([H])[H])n3)c([H])c([H])c2C1([H])[H]

$$$$
15:0:0
     RDKit          3D

 91101  0  0  1  0  0  0  0  0999 V2000
  -31.1950  -15.4040   19.4820 C   0  0  0  0  0  0  0  0  0  0  0  0
  -31.1380  -12.8740   18.7400 C   0  0  0  0  0  2  0  0  0  0  0  0
  -30.1140  -12.5400   17.6210 C   0  0  0  0  0  2  0  0  0  0  0  0
  -28.7250  -12.2640   18.2180 C   0  0  0  0  0  2  0  0  0  0  0  0
  -28.3680  -13.2880   19.3190 C   0  0  0  0  0  3  0  0  0  0  0  0
  -29.5200  -13.4990   20.3220 C   0  0  0  0  0  2  0  0  0  0  0  0
  -30.6510  -14.0640   19.5620 N   0  0  0  0  0  0  0  0  0  0  0  0
  -32.3430  -15.3490   19.0010 O   0  0  0  0  0  0  0  0  0  0  0  0
  -29.6550  -20.6880   19.0860 C   0  0  0  0  0  0  0  0  0  0  0  0
  -29.0480  -19.1250   17.5250 C   0  0  0  0  0  0  0  0  0  0  0  0
  -30.2040  -18.1480   19.2410 C   0  0  0  0  0  0  0  0  0  0  0  0
  -28.2780  -18.8740   16.2450 C   0  0  0  0  0  1  0  0  0  0  0  0
  -29.0450  -20.4040   17.9400 N   0  0  0  0  0  4  0  0  0  0  0  0
  -30.2510  -19.5290   19.7550 N   0  0  0  0  0  0  0  0  0  0  0  0
  -29.5860  -18.0210   18.0730 N   0  0  0  0  0  2  0  0  0  0  0  0
  -30.5900  -16.7400   19.9080 N   0  0  0  0  0  0  0  0  0  0  0  0
  -26.1530  -13.8900   20.4230 C   0  0  0  0  0  0  0  0  0  0  0  0
  -25.1070  -13.1360   20.8710 C   0  0  0  0  0  0  0  0  0  0  0  0
  -25.4890  -11.7730   20.6770 C   0  0  0  0  0  0  0  0  0  0  0  0
  -27.1030  -12.9910   19.9750 N   0  0  0  0  0  0  0  0  0  0  0  0
  -26.7260  -11.7050   20.1970 N   0  0  0  0  0  0  0  0  0  0  0  0
  -24.7230  -10.5350   20.8670 C   0  0  0  0  0  0  0  0  0  0  0  0
  -25.1360   -9.5440   21.7850 C   0  0  0  0  0  3  0  0  0  0  0  0
  -24.3700   -8.3730   21.9670 C   0  0  0  0  0  3  0  0  0  0  0  0
  -23.1760   -8.1840   21.2310 C   0  0  0  0  0  0  0  0  0  0  0  0
  -22.7790   -9.1650   20.3040 C   0  0  0  0  0  3  0  0  0  0  0  0
  -23.5450  -10.3280   20.1200 C   0  0  0  0  0  3  0  0  0  0  0  0
  -22.3810   -7.0660   21.3220 O   0  0  0  0  0  0  0  0  0  0  0  0
  -22.1960   -6.4100   22.5110 C   0  0  0  0  0  0  0  0  0  0  0  0
  -21.6060   -7.0430   23.6260 C   0  0  0  0  0  3  0  0  0  0  0  0
  -21.3700   -6.3130   24.8070 C   0  0  0  0  0  3  0  0  0  0  0  0
  -21.7120   -4.9490   24.8720 C   0  0  0  0  0  0  0  0  0  0  0  0
  -22.2940   -4.3140   23.7610 C   0  0  0  0  0  3  0  0  0  0  0  0
  -22.5320   -5.0420   22.5810 C   0  0  0  0  0  0  0  0  0  0  0  0
  -23.0720   -4.4230   21.5060 F   0  0  0  0  0  0  0  0  0  0  0  0
  -21.4790   -4.2420   26.0030 F   0  0  0  0  0  0  0  0  0  0  0  0
  -23.7860  -13.6540   21.3580 C   0  0  0  0  0  0  0  0  0  0  0  0
  -23.1430  -12.9310   22.2680 N   0  0  0  0  0  0  0  0  0  0  0  0
  -23.3430  -14.7330   20.9700 O   0  0  0  0  0  0  0  0  0  0  0  0
  -23.5210  -12.0540   22.5990 H   0  0  0  0  0  0  0  0  0  0  0  0
  -22.2650  -13.2610   22.6440 H   0  0  0  0  0  0  0  0  0  0  0  0
  -26.3670  -15.2630   20.3290 N   0  0  0  0  0  0  0  0  0  0  0  0
  -25.6470  -15.9290   20.5930 H   0  0  0  0  0  0  0  0  0  0  0  0
  -27.1740  -15.6980   19.9020 H   0  0  0  0  0  0  0  0  0  0  0  0
  -30.0610  -17.9650   22.1720 C   0  0  0  0  0  2  0  0  0  0  0  0
  -29.5650  -16.5600   22.2740 C   0  0  0  0  0  2  0  0  0  0  0  0
  -30.7340  -16.8680   21.3470 C   0  0  0  0  0  3  0  0  0  0  0  0
  -30.0440  -23.5200   18.5510 C   0  0  0  0  0  2  0  0  0  0  0  0
  -29.5800  -22.4460   19.5060 C   0  0  0  0  0  3  0  0  0  0  0  0
  -28.7030  -24.0090   19.0950 C   0  0  0  0  0  3  0  0  0  0  0  0
  -28.8170  -25.6960   19.2730 O   0  0  0  0  0  0  0  0  0  0  0  0
  -25.1510  -31.1590   23.1270 C   0  0  0  0  0  0  0  0  0  0  0  0
  -27.7780  -26.7940   19.3720 C   0  0  0  0  0  0  0  0  0  0  0  0
  -23.9690  -29.9770   21.3250 C   0  0  0  0  0  3  0  0  0  0  0  0
  -25.4310  -28.6380   19.6520 C   0  0  0  0  0  0  0  0  0  0  0  0
  -26.5280  -30.2710   21.1650 C   0  0  0  0  0  2  0  0  0  0  0  0
  -26.6230  -28.9700   20.3020 C   0  0  0  0  0  0  0  0  0  0  0  0
  -27.7870  -28.0770   20.1360 C   0  0  0  0  0  3  0  0  0  0  0  0
  -26.5460  -26.6380   18.6950 C   0  0  0  0  0  3  0  0  0  0  0  0
  -25.4230  -27.5040   18.8220 C   0  0  0  0  0  3  0  0  0  0  0  0
  -24.1910  -29.5110   19.8610 C   0  0  0  0  0  2  0  0  0  0  0  0
  -25.2400  -30.4900   21.9300 N   0  0  0  0  0  0  0  0  0  0  0  0
  -24.0630  -31.3330   23.7030 O   0  0  0  0  0  0  0  0  0  0  0  0
  -23.3220  -28.8320   22.1470 C   0  0  0  0  0  0  0  0  0  0  0  0
  -22.0100  -28.5920   21.9640 N   0  0  0  0  0  0  0  0  0  0  0  0
  -24.0070  -28.1610   22.9240 O   0  0  0  0  0  0  0  0  0  0  0  0
  -21.5060  -29.1880   21.3220 H   0  0  0  0  0  0  0  0  0  0  0  0
  -18.7340  -27.0340   22.1510 C   0  0  0  0  0  0  0  0  0  0  0  0
  -21.2390  -27.5140   22.5950 C   0  0  0  0  0  3  0  0  0  0  0  0
  -21.5110  -26.1570   21.9040 C   0  0  0  0  0  2  0  0  0  0  0  0
  -20.5010  -25.8270   20.8000 C   0  0  0  0  0  2  0  0  0  0  0  0
  -19.0800  -25.7800   21.3670 C   0  0  0  0  0  2  0  0  0  0  0  0
  -19.7470  -27.8570   22.7150 C   0  0  0  0  0  0  0  0  0  0  0  0
  -19.3680  -29.0270   23.4060 C   0  0  0  0  0  3  0  0  0  0  0  0
  -18.0120  -29.3770   23.5440 C   0  0  0  0  0  3  0  0  0  0  0  0
  -17.0150  -28.5530   22.9930 C   0  0  0  0  0  3  0  0  0  0  0  0
  -17.3760  -27.3840   22.3010 C   0  0  0  0  0  3  0  0  0  0  0  0
  -26.4120  -31.7490   23.8270 C   0  0  0  0  0  3  0  0  0  0  0  0
  -26.0720  -33.0950   24.3250 N   0  0  0  0  0  0  0  0  0  0  0  0
  -26.3480  -34.2430   23.6900 C   0  0  0  0  0  0  0  0  0  0  0  0
  -26.9770  -34.2800   22.6300 O   0  0  0  0  0  0  0  0  0  0  0  0
  -25.5080  -33.1390   25.1600 H   0  0  0  0  0  0  0  0  0  0  0  0
  -24.5530  -36.0090   23.6450 C   0  0  0  0  0  1  0  0  0  0  0  0
  -25.8510  -35.5560   24.3320 C   0  0  0  0  0  3  0  0  0  0  0  0
  -27.9970  -36.4300   25.1460 C   0  0  0  0  0  1  0  0  0  0  0  0
  -26.8440  -36.6520   24.2790 N   0  0  0  0  0  0  0  0  0  0  0  0
  -26.4170  -37.5380   24.5370 H   0  0  0  0  0  0  0  0  0  0  0  0
  -26.9300  -30.8520   25.0170 C   0  0  1  0  0  0  0  0  0  0  0  0
  -25.8370  -30.4930   26.0510 C   0  0  0  0  0  1  0  0  0  0  0  0
  -27.5300  -29.5290   24.4930 C   0  0  0  0  0  1  0  0  0  0  0  0
  -28.0740  -31.5840   25.7600 C   0  0  0  0  0  1  0  0  0  0  0  0
  1  7  1  0
  1 16  1  0
  2  7  1  0
  3  4  1  0
  3  2  1  0
  5  4  1  0
  5 20  1  0
  5  6  1  0
  7  6  1  0
  8  1  2  0
  9 14  1  0
 10 13  2  0
 10 15  1  0
 11 14  2  0
 11 16  1  0
 12 10  1  0
 13  9  2  0
 15 11  1  0
 16 47  1  0
 17 18  2  0
 18 37  1  0
 19 22  1  0
 19 18  1  0
 20 21  1  0
 20 17  1  0
 21 19  2  0
 22 23  1  0
 23 24  2  0
 25 28  1  0
 25 24  1  0
 26 25  2  0
 27 26  1  0
 27 22  2  0
 28 29  1  0
 29 34  2  0
 29 30  1  0
 30 31  2  0
 31 32  1  0
 32 36  1  0
 33 32  2  0
 34 33  1  0
 35 34  1  0
 37 38  1  0
 38 40  1  0
 38 41  1  0
 39 37  2  0
 42 17  1  0
 42 43  1  0
 44 42  1  0
 45 46  1  0
 47 45  1  0
 47 46  1  0
 48 50  1  0
 48 49  1  0
 49  9  1  0
 50 51  1  0
 50 49  1  0
 51 53  1  0
 52 63  2  0
 53 58  1  0
 54 62  1  0
 54 64  1  0
 55 61  1  0
 55 57  1  0
 56 62  1  0
 57 56  1  0
 58 57  2  0
 59 60  1  0
 59 53  2  0
 60 55  2  0
 61 54  1  0
 62 52  1  0
 64 66  2  0
 65 64  1  0
 67 65  1  0
 68 77  2  0
 68 73  1  0
 69 65  1  0
 69 73  1  0
 70 69  1  0
 71 72  1  0
 71 70  1  0
 72 68  1  0
 73 74  2  0
 74 75  1  0
 76 75  2  0
 77 76  1  0
 78 52  1  0
 78 79  1  0
 78 88  1  0
 79 82  1  0
 80 79  1  0
 80 84  1  0
 81 80  2  0
 84 83  1  0
 86 84  1  0
 86 87  1  0
 86 85  1  0
 88 91  1  1
 88 89  1  0
 90 88  1  0
M  ISO  4   1 100  16 100  50 101  51 101
M  END
>  <TORSDO>  (16) 
F 17

>  <SCORE>  (16) 
-11.345

>  <name>  (16) 
15

>  <ligand_id>  (16) 
15

>  <original_smiles>  (16) 
[H]c1c([H])c([H])c2c(c1[H])C([H])([H])C([H])([H])C([H])([H])C2([H])N([H])C(=O)C1([H])N(C(=O)C([H])(N([H])C(=O)C([H])(N([H])C([H])([H])[H])C([H])([H])[H])C(C([H])([H])[H])(C([H])([H])[H])C([H])([H])[H])C([H])([H])c2c([H])c(OC3([H])C([H])([H])C3([H])c3nc(N(C(=O)N4C([H])([H])C([H])([H])C([H])([H])C([H])(n5nc(-c6c([H])c([H])c(Oc7c([H])c([H])c(F)c([H])c7F)c([H])c6[H])c(C(=O)N([H])[H])c5N([H])[H])C4([H])[H])C4([H])C([H])([H])C4([H])[H])nc(C([H])([H])[H])n3)c([H])c([H])c2C1([H])[H]

>  <smiles>  (16) 
[H]c1c([H])c([H])c2c(c1[H])C([H])([H])C([H])([H])C([H])([H])C2([H])N([H])C(=O)C1([H])N(C(=O)C([H])(N([H])C(=O)C([H])(N([H])C([H])([H])[H])C([H])([H])[H])C(C([H])([H])[H])(C([H])([H])[H])C([H])([H])[H])C([H])([H])c2c([H])c(OC3([H])C([H])([H])C3([H])c3nc(N(C(=O)N4C([H])([H])C([H])([H])C([H])([H])C([H])(n5nc(-c6c([H])c([H])c(Oc7c([H])c([H])c(F)c([H])c7F)c([H])c6[H])c(C(=O)N([H])[H])c5N([H])[H])C4([H])[H])C4([H])C([H])([H])C4([H])[H])nc(C([H])([H])[H])n3)c([H])c([H])c2C1([H])[H]

$$$$
16:0:0
     RDKit          3D

 88 97  0  0  1  0  0  0  0  0999 V2000
  -29.5210  -22.1540   21.4900 C   0  0  0  0  0  3  0  0  0  0  0  0
  -29.8710  -20.7900   21.4270 C   0  0  0  0  0  0  0  0  0  0  0  0
  -28.6870  -22.5370   20.3720 C   0  0  0  0  0  0  0  0  0  0  0  0
  -30.8600  -19.9080   22.1010 C   0  0  0  0  0  2  0  0  0  0  0  0
  -31.2040  -18.7600   21.0960 C   0  0  0  0  0  2  0  0  0  0  0  0
  -30.0070  -18.5170   20.1230 C   0  0  0  0  0  3  0  0  0  0  0  0
  -28.6160  -21.1990   19.7320 N   0  0  0  0  0  0  0  0  0  0  0  0
  -29.2880  -20.0490   20.4240 N   0  0  0  0  0  0  0  0  0  0  0  0
  -30.3680  -15.5210   20.1920 C   0  0  0  0  0  0  0  0  0  0  0  0
  -30.3730  -13.0390   19.3310 C   0  0  0  0  0  2  0  0  0  0  0  0
  -29.4450  -12.7490   18.1220 C   0  0  0  0  0  2  0  0  0  0  0  0
  -28.0180  -12.4340   18.5940 C   0  0  0  0  0  2  0  0  0  0  0  0
  -27.5550  -13.4110   19.7020 C   0  0  0  0  0  3  0  0  0  0  0  0
  -28.6140  -13.6350   20.8050 C   0  0  0  0  0  2  0  0  0  0  0  0
  -29.8070  -14.1950   20.1420 N   0  0  0  0  0  0  0  0  0  0  0  0
  -31.5850  -15.4780   19.9520 O   0  0  0  0  0  0  0  0  0  0  0  0
  -29.6430  -16.8520   20.3130 N   0  0  0  0  0  0  0  0  0  0  0  0
  -28.6590  -16.7120   20.4890 H   0  0  0  0  0  0  0  0  0  0  0  0
  -25.2010  -13.9390   20.5130 C   0  0  0  0  0  0  0  0  0  0  0  0
  -24.1510  -13.1520   20.8910 C   0  0  0  0  0  0  0  0  0  0  0  0
  -24.6250  -11.8050   20.8360 C   0  0  0  0  0  0  0  0  0  0  0  0
  -26.2430  -13.0740   20.2390 N   0  0  0  0  0  0  0  0  0  0  0  0
  -25.9120  -11.7820   20.5020 N   0  0  0  0  0  0  0  0  0  0  0  0
  -23.9070  -10.5360   21.0240 C   0  0  0  0  0  0  0  0  0  0  0  0
  -24.3440   -9.5700   21.9560 C   0  0  0  0  0  3  0  0  0  0  0  0
  -23.6210   -8.3700   22.1340 C   0  0  0  0  0  3  0  0  0  0  0  0
  -22.4480   -8.1270   21.3800 C   0  0  0  0  0  0  0  0  0  0  0  0
  -22.0310   -9.0840   20.4380 C   0  0  0  0  0  3  0  0  0  0  0  0
  -22.7530  -10.2750   20.2580 C   0  0  0  0  0  3  0  0  0  0  0  0
  -21.6970   -6.9800   21.4680 O   0  0  0  0  0  0  0  0  0  0  0  0
  -21.6380   -6.2460   22.6250 C   0  0  0  0  0  0  0  0  0  0  0  0
  -21.1720   -6.8020   23.8370 C   0  0  0  0  0  3  0  0  0  0  0  0
  -21.0610   -5.9930   24.9850 C   0  0  0  0  0  3  0  0  0  0  0  0
  -21.4040   -4.6290   24.9230 C   0  0  0  0  0  0  0  0  0  0  0  0
  -21.8620   -4.0720   23.7160 C   0  0  0  0  0  3  0  0  0  0  0  0
  -21.9750   -4.8780   22.5700 C   0  0  0  0  0  0  0  0  0  0  0  0
  -22.3970   -4.3320   21.4040 F   0  0  0  0  0  0  0  0  0  0  0  0
  -21.2900   -3.8510   26.0250 F   0  0  0  0  0  0  0  0  0  0  0  0
  -22.7560  -13.6190   21.1840 C   0  0  0  0  0  0  0  0  0  0  0  0
  -22.0440  -12.9150   22.0550 N   0  0  0  0  0  0  0  0  0  0  0  0
  -22.3070  -14.6460   20.6760 O   0  0  0  0  0  0  0  0  0  0  0  0
  -22.4200  -12.0850   22.4900 H   0  0  0  0  0  0  0  0  0  0  0  0
  -21.1080  -13.2110   22.2930 H   0  0  0  0  0  0  0  0  0  0  0  0
  -25.3520  -15.3130   20.3480 N   0  0  0  0  0  0  0  0  0  0  0  0
  -24.5820  -15.9590   20.4850 H   0  0  0  0  0  0  0  0  0  0  0  0
  -26.1820  -15.7600   19.9820 H   0  0  0  0  0  0  0  0  0  0  0  0
  -27.9070  -24.1300   19.9880 C   0  0  0  0  0  2  0  0  0  0  0  0
  -28.1580  -25.7670   20.3510 O   0  0  0  0  0  0  0  0  0  0  0  0
  -24.6560  -31.9030   23.2570 C   0  0  0  0  0  0  0  0  0  0  0  0
  -27.1900  -26.9320   20.2570 C   0  0  0  0  0  0  0  0  0  0  0  0
  -23.4640  -30.5100   21.6160 C   0  0  0  0  0  3  0  0  0  0  0  0
  -24.9120  -28.8850   20.2000 C   0  0  0  0  0  0  0  0  0  0  0  0
  -26.0370  -30.6830   21.4890 C   0  0  0  0  0  2  0  0  0  0  0  0
  -26.1020  -29.2640   20.8320 C   0  0  0  0  0  0  0  0  0  0  0  0
  -27.2300  -28.3110   20.8360 C   0  0  0  0  0  3  0  0  0  0  0  0
  -25.9710  -26.7340   19.5640 C   0  0  0  0  0  3  0  0  0  0  0  0
  -24.8780  -27.6440   19.5430 C   0  0  0  0  0  3  0  0  0  0  0  0
  -23.7000  -29.8210   20.2430 C   0  0  0  0  0  2  0  0  0  0  0  0
  -24.7410  -31.0610   22.1740 N   0  0  0  0  0  0  0  0  0  0  0  0
  -23.5630  -32.2020   23.7700 O   0  0  0  0  0  0  0  0  0  0  0  0
  -22.7540  -29.5250   22.5820 C   0  0  0  0  0  0  0  0  0  0  0  0
  -21.4230  -29.3680   22.4530 N   0  0  0  0  0  0  0  0  0  0  0  0
  -23.4110  -28.8990   23.4180 O   0  0  0  0  0  0  0  0  0  0  0  0
  -20.9450  -29.9230   21.7560 H   0  0  0  0  0  0  0  0  0  0  0  0
  -18.0330  -28.1670   22.9530 C   0  0  0  0  0  0  0  0  0  0  0  0
  -20.5930  -28.4340   23.2240 C   0  0  0  0  0  3  0  0  0  0  0  0
  -20.6950  -26.9990   22.6540 C   0  0  0  0  0  2  0  0  0  0  0  0
  -19.5970  -26.6750   21.6360 C   0  0  0  0  0  2  0  0  0  0  0  0
  -18.2130  -26.8190   22.2750 C   0  0  0  0  0  2  0  0  0  0  0  0
  -19.1510  -28.9320   23.3840 C   0  0  0  0  0  0  0  0  0  0  0  0
  -18.9260  -30.1910   23.9820 C   0  0  0  0  0  3  0  0  0  0  0  0
  -17.6190  -30.6860   24.1500 C   0  0  0  0  0  3  0  0  0  0  0  0
  -16.5170  -29.9200   23.7330 C   0  0  0  0  0  3  0  0  0  0  0  0
  -16.7260  -28.6610   23.1400 C   0  0  0  0  0  3  0  0  0  0  0  0
  -25.9230  -32.5450   23.8970 C   0  0  0  0  0  3  0  0  0  0  0  0
  -25.6090  -33.9490   24.2240 N   0  0  0  0  0  0  0  0  0  0  0  0
  -25.9240  -35.0050   23.4620 C   0  0  0  0  0  0  0  0  0  0  0  0
  -26.5710  -34.9020   22.4170 O   0  0  0  0  0  0  0  0  0  0  0  0
  -25.0280  -34.1010   25.0350 H   0  0  0  0  0  0  0  0  0  0  0  0
  -24.1760  -36.7960   23.1740 C   0  0  0  0  0  1  0  0  0  0  0  0
  -25.4510  -36.3980   23.9320 C   0  0  0  0  0  3  0  0  0  0  0  0
  -27.6130  -37.3050   24.6710 C   0  0  0  0  0  1  0  0  0  0  0  0
  -26.4740  -37.4560   23.7690 N   0  0  0  0  0  0  0  0  0  0  0  0
  -26.0690  -38.3740   23.9230 H   0  0  0  0  0  0  0  0  0  0  0  0
  -26.4120  -31.7870   25.1940 C   0  0  1  0  0  0  0  0  0  0  0  0
  -25.3000  -31.5710   26.2480 C   0  0  0  0  0  1  0  0  0  0  0  0
  -26.9940  -30.4010   24.8390 C   0  0  0  0  0  1  0  0  0  0  0  0
  -27.5570  -32.5840   25.8630 C   0  0  0  0  0  1  0  0  0  0  0  0
  2  1  2  0
  2  4  1  0
  3  1  1  0
  5  4  1  0
  6 17  1  0
  6  8  1  0
  6  5  1  0
  7  3  2  0
  7  8  1  0
  8  2  1  0
  9 17  1  0
 10 15  1  0
 11 12  1  0
 11 10  1  0
 13 12  1  0
 13 22  1  0
 13 14  1  0
 15  9  1  0
 15 14  1  0
 16  9  2  0
 17 18  1  0
 19 20  2  0
 20 39  1  0
 21 20  1  0
 21 24  1  0
 22 23  1  0
 22 19  1  0
 23 21  2  0
 24 25  1  0
 25 26  2  0
 27 30  1  0
 27 26  1  0
 28 27  2  0
 29 28  1  0
 29 24  2  0
 30 31  1  0
 31 32  1  0
 32 33  2  0
 34 33  1  0
 34 38  1  0
 35 34  2  0
 36 31  2  0
 36 35  1  0
 37 36  1  0
 39 40  1  0
 40 43  1  0
 40 42  1  0
 41 39  2  0
 44 45  1  0
 44 19  1  0
 46 44  1  0
 47 48  1  0
 47  3  1  0
 49 60  2  0
 50 48  1  0
 50 55  1  0
 51 59  1  0
 51 61  1  0
 52 58  1  0
 52 54  1  0
 53 59  1  0
 54 55  2  0
 54 53  1  0
 56 50  2  0
 57 56  1  0
 57 52  2  0
 58 51  1  0
 59 49  1  0
 61 63  2  0
 62 61  1  0
 64 62  1  0
 65 74  2  0
 65 70  1  0
 66 62  1  0
 66 70  1  0
 67 66  1  0
 68 69  1  0
 68 67  1  0
 69 65  1  0
 70 71  2  0
 71 72  1  0
 73 72  2  0
 74 73  1  0
 75 49  1  0
 75 76  1  0
 75 85  1  0
 76 79  1  0
 77 81  1  0
 77 76  1  0
 78 77  2  0
 81 80  1  0
 83 84  1  0
 83 81  1  0
 83 82  1  0
 85 88  1  1
 85 86  1  0
 87 85  1  0
M  ISO  4   9 100  17 100  47 101  48 101
M  END
>  <TORSDO>  (17) 
F 17

>  <SCORE>  (17) 
-16.859

>  <name>  (17) 
16

>  <ligand_id>  (17) 
16

>  <original_smiles>  (17) 
[H]c1c([H])c([H])c2c(c1[H])C([H])([H])C([H])([H])C([H])([H])C2([H])N([H])C(=O)C1([H])N(C(=O)C([H])(N([H])C(=O)C([H])(N([H])C([H])([H])[H])C([H])([H])[H])C(C([H])([H])[H])(C([H])([H])[H])C([H])([H])[H])C([H])([H])c2c([H])c(OC([H])([H])c3nn4c(c3[H])C([H])([H])C([H])([H])C4([H])N([H])C(=O)N3C([H])([H])C([H])([H])C([H])([H])C([H])(n4nc(-c5c([H])c([H])c(Oc6c([H])c([H])c(F)c([H])c6F)c([H])c5[H])c(C(=O)N([H])[H])c4N([H])[H])C3([H])[H])c([H])c([H])c2C1([H])[H]

>  <smiles>  (17) 
[H]c1c([H])c([H])c2c(c1[H])C([H])([H])C([H])([H])C([H])([H])C2([H])N([H])C(=O)C1([H])N(C(=O)C([H])(N([H])C(=O)C([H])(N([H])C([H])([H])[H])C([H])([H])[H])C(C([H])([H])[H])(C([H])([H])[H])C([H])([H])[H])C([H])([H])c2c([H])c(OC([H])([H])c3nn4c(c3[H])C([H])([H])C([H])([H])C4([H])N([H])C(=O)N3C([H])([H])C([H])([H])C([H])([H])C([H])(n4nc(-c5c([H])c([H])c(Oc6c([H])c([H])c(F)c([H])c6F)c([H])c5[H])c(C(=O)N([H])[H])c4N([H])[H])C3([H])[H])c([H])c([H])c2C1([H])[H]

$$$$
17:0:0
     RDKit          3D

 92101  0  0  1  0  0  0  0  0999 V2000
  -30.0000  -22.2530   21.4110 C   0  0  0  0  0  3  0  0  0  0  0  0
  -28.4510  -22.7030   19.2350 C   0  0  0  0  0  3  0  0  0  0  0  0
  -29.6440  -23.6020   21.0970 C   0  0  0  0  0  0  0  0  0  0  0  0
  -28.8400  -23.8690   19.9590 C   0  0  0  0  0  0  0  0  0  0  0  0
  -29.5840  -21.1590   20.6100 C   0  0  0  0  0  0  0  0  0  0  0  0
  -30.1620  -24.7340   21.9620 C   0  0  0  0  0  1  0  0  0  0  0  0
  -28.7990  -21.4070   19.5370 N   0  0  0  0  0  0  0  0  0  0  0  0
  -30.0280  -19.8310   20.9280 N   0  0  0  0  0  0  0  0  0  0  0  0
  -30.6360  -19.7640   21.7380 H   0  0  0  0  0  0  0  0  0  0  0  0
  -30.6520  -14.7660   20.2930 C   0  0  0  0  0  0  0  0  0  0  0  0
  -30.4000  -12.5150   19.2410 C   0  0  0  0  0  2  0  0  0  0  0  0
  -29.4530  -12.5700   18.0250 C   0  0  0  0  0  2  0  0  0  0  0  0
  -27.9910  -12.3670   18.4680 C   0  0  0  0  0  2  0  0  0  0  0  0
  -27.6160  -13.2490   19.6840 C   0  0  0  0  0  3  0  0  0  0  0  0
  -28.6900  -13.1720   20.7960 C   0  0  0  0  0  2  0  0  0  0  0  0
  -29.9660  -13.5710   20.1880 N   0  0  0  0  0  0  0  0  0  0  0  0
  -31.8550  -14.7770   20.0090 O   0  0  0  0  0  0  0  0  0  0  0  0
  -28.4500  -17.8570   20.8530 C   0  0  0  0  0  2  0  0  0  0  0  0
  -28.5900  -16.3560   20.5160 C   0  0  0  0  0  2  0  0  0  0  0  0
  -30.7230  -17.3300   20.4970 C   0  0  0  0  0  2  0  0  0  0  0  0
  -29.6970  -18.5180   20.2850 C   0  0  0  0  0  3  0  0  0  0  0  0
  -30.0170  -15.9990   20.5010 N   0  0  0  0  0  0  0  0  0  0  0  0
  -25.2240  -13.8520   20.3920 C   0  0  0  0  0  0  0  0  0  0  0  0
  -24.1630  -13.0770   20.7730 C   0  0  0  0  0  0  0  0  0  0  0  0
  -24.6390  -11.7300   20.7700 C   0  0  0  0  0  0  0  0  0  0  0  0
  -26.2760  -12.9730   20.1800 N   0  0  0  0  0  0  0  0  0  0  0  0
  -25.9310  -11.6950   20.4710 N   0  0  0  0  0  0  0  0  0  0  0  0
  -23.9260  -10.4650   20.9770 C   0  0  0  0  0  0  0  0  0  0  0  0
  -24.3710   -9.5120   21.9180 C   0  0  0  0  0  3  0  0  0  0  0  0
  -23.6580   -8.3110   22.1120 C   0  0  0  0  0  3  0  0  0  0  0  0
  -22.4840   -8.0550   21.3630 C   0  0  0  0  0  0  0  0  0  0  0  0
  -22.0590   -8.9970   20.4100 C   0  0  0  0  0  3  0  0  0  0  0  0
  -22.7740  -10.1900   20.2150 C   0  0  0  0  0  3  0  0  0  0  0  0
  -21.7410   -6.9050   21.4670 O   0  0  0  0  0  0  0  0  0  0  0  0
  -21.7080   -6.1720   22.6260 C   0  0  0  0  0  0  0  0  0  0  0  0
  -21.2870   -6.7340   23.8510 C   0  0  0  0  0  3  0  0  0  0  0  0
  -21.2030   -5.9270   25.0040 C   0  0  0  0  0  3  0  0  0  0  0  0
  -21.5290   -4.5590   24.9310 C   0  0  0  0  0  0  0  0  0  0  0  0
  -21.9430   -3.9980   23.7110 C   0  0  0  0  0  3  0  0  0  0  0  0
  -22.0300   -4.8020   22.5620 C   0  0  0  0  0  0  0  0  0  0  0  0
  -22.4090   -4.2500   21.3830 F   0  0  0  0  0  0  0  0  0  0  0  0
  -21.4390   -3.7820   26.0350 F   0  0  0  0  0  0  0  0  0  0  0  0
  -22.7610  -13.5470   21.0260 C   0  0  0  0  0  0  0  0  0  0  0  0
  -22.0350  -12.8630   21.9040 N   0  0  0  0  0  0  0  0  0  0  0  0
  -22.3150  -14.5560   20.4810 O   0  0  0  0  0  0  0  0  0  0  0  0
  -22.4080  -12.0470   22.3680 H   0  0  0  0  0  0  0  0  0  0  0  0
  -21.0940  -13.1610   22.1180 H   0  0  0  0  0  0  0  0  0  0  0  0
  -25.3690  -15.2190   20.1820 N   0  0  0  0  0  0  0  0  0  0  0  0
  -24.5910  -15.8620   20.2780 H   0  0  0  0  0  0  0  0  0  0  0  0
  -26.2100  -15.6650   19.8450 H   0  0  0  0  0  0  0  0  0  0  0  0
  -28.5220  -25.3060   19.3680 C   0  0  0  0  0  2  0  0  0  0  0  0
  -28.3420  -26.5090   20.2140 O   0  0  0  0  0  0  0  0  0  0  0  0
  -24.5780  -31.8820   23.2250 C   0  0  0  0  0  0  0  0  0  0  0  0
  -27.2010  -27.3330   20.1410 C   0  0  0  0  0  0  0  0  0  0  0  0
  -23.3740  -30.4840   21.5860 C   0  0  0  0  0  3  0  0  0  0  0  0
  -24.8240  -28.9410   20.1520 C   0  0  0  0  0  0  0  0  0  0  0  0
  -25.9130  -30.8080   21.3960 C   0  0  0  0  0  2  0  0  0  0  0  0
  -25.9940  -29.4300   20.7450 C   0  0  0  0  0  0  0  0  0  0  0  0
  -27.1790  -28.6370   20.7340 C   0  0  0  0  0  3  0  0  0  0  0  0
  -25.9960  -26.8890   19.5470 C   0  0  0  0  0  3  0  0  0  0  0  0
  -24.8280  -27.6750   19.5480 C   0  0  0  0  0  3  0  0  0  0  0  0
  -23.5860  -29.8120   20.2030 C   0  0  0  0  0  2  0  0  0  0  0  0
  -24.6410  -31.0750   22.1250 N   0  0  0  0  0  0  0  0  0  0  0  0
  -23.4950  -32.1560   23.7630 O   0  0  0  0  0  0  0  0  0  0  0  0
  -22.7160  -29.4640   22.5460 C   0  0  0  0  0  0  0  0  0  0  0  0
  -21.3890  -29.2860   22.4240 N   0  0  0  0  0  0  0  0  0  0  0  0
  -23.3980  -28.8350   23.3600 O   0  0  0  0  0  0  0  0  0  0  0  0
  -20.8980  -29.8440   21.7400 H   0  0  0  0  0  0  0  0  0  0  0  0
  -18.0140  -28.0910   22.9360 C   0  0  0  0  0  0  0  0  0  0  0  0
  -20.5730  -28.3470   23.1950 C   0  0  0  0  0  3  0  0  0  0  0  0
  -20.6720  -26.9170   22.6150 C   0  0  0  0  0  2  0  0  0  0  0  0
  -19.5650  -26.5990   21.6040 C   0  0  0  0  0  2  0  0  0  0  0  0
  -18.1860  -26.7430   22.2550 C   0  0  0  0  0  2  0  0  0  0  0  0
  -19.1350  -28.8510   23.3630 C   0  0  0  0  0  0  0  0  0  0  0  0
  -18.9190  -30.1120   23.9600 C   0  0  0  0  0  3  0  0  0  0  0  0
  -17.6150  -30.6130   24.1330 C   0  0  0  0  0  3  0  0  0  0  0  0
  -16.5080  -29.8510   23.7210 C   0  0  0  0  0  3  0  0  0  0  0  0
  -16.7080  -28.5900   23.1280 C   0  0  0  0  0  3  0  0  0  0  0  0
  -25.8610  -32.5170   23.8450 C   0  0  0  0  0  3  0  0  0  0  0  0
  -25.5480  -33.9140   24.1790 N   0  0  0  0  0  0  0  0  0  0  0  0
  -25.8720  -34.9690   23.4200 C   0  0  0  0  0  0  0  0  0  0  0  0
  -26.5360  -34.8690   22.3850 O   0  0  0  0  0  0  0  0  0  0  0  0
  -24.9580  -34.0650   24.9850 H   0  0  0  0  0  0  0  0  0  0  0  0
  -24.1370  -36.7580   23.0800 C   0  0  0  0  0  1  0  0  0  0  0  0
  -25.3840  -36.3560   23.8830 C   0  0  0  0  0  3  0  0  0  0  0  0
  -27.5210  -37.2460   24.7030 C   0  0  0  0  0  1  0  0  0  0  0  0
  -26.4130  -37.4110   23.7660 N   0  0  0  0  0  0  0  0  0  0  0  0
  -26.0060  -38.3310   23.9170 H   0  0  0  0  0  0  0  0  0  0  0  0
  -26.3810  -31.7450   25.1210 C   0  0  1  0  0  0  0  0  0  0  0  0
  -25.2890  -31.5040   26.1900 C   0  0  0  0  0  1  0  0  0  0  0  0
  -26.9660  -30.3680   24.7280 C   0  0  0  0  0  1  0  0  0  0  0  0
  -27.5310  -32.5410   25.7820 C   0  0  0  0  0  1  0  0  0  0  0  0
  2  7  2  0
  2  4  1  0
  3  1  1  0
  3  6  1  0
  4  3  2  0
  5  8  1  0
  5  1  2  0
  7  5  1  0
  8  9  1  0
 10 22  1  0
 11 16  1  0
 12 13  1  0
 12 11  1  0
 14 13  1  0
 14 26  1  0
 14 15  1  0
 16 10  1  0
 16 15  1  0
 17 10  2  0
 19 18  1  0
 20 22  1  0
 21 20  1  0
 21 18  1  0
 21  8  1  0
 22 19  1  0
 23 24  2  0
 24 43  1  0
 25 24  1  0
 25 28  1  0
 26 23  1  0
 26 27  1  0
 27 25  2  0
 28 29  1  0
 29 30  2  0
 31 34  1  0
 31 30  1  0
 32 31  2  0
 33 32  1  0
 33 28  2  0
 34 35  1  0
 35 36  1  0
 36 37  2  0
 38 37  1  0
 38 42  1  0
 39 38  2  0
 40 35  2  0
 40 39  1  0
 41 40  1  0
 43 44  1  0
 44 47  1  0
 44 46  1  0
 45 43  2  0
 48 49  1  0
 48 23  1  0
 50 48  1  0
 51  4  1  0
 51 52  1  0
 53 64  2  0
 54 52  1  0
 54 59  1  0
 55 63  1  0
 55 65  1  0
 56 62  1  0
 56 58  1  0
 57 63  1  0
 58 57  1  0
 59 58  2  0
 60 61  1  0
 60 54  2  0
 61 56  2  0
 62 55  1  0
 63 53  1  0
 65 67  2  0
 66 65  1  0
 68 66  1  0
 69 78  2  0
 69 74  1  0
 70 66  1  0
 70 74  1  0
 71 70  1  0
 72 73  1  0
 72 71  1  0
 73 69  1  0
 74 75  2  0
 75 76  1  0
 77 76  2  0
 78 77  1  0
 79 53  1  0
 79 80  1  0
 79 89  1  0
 80 83  1  0
 81 85  1  0
 81 80  1  0
 82 81  2  0
 85 84  1  0
 87 85  1  0
 87 88  1  0
 87 86  1  0
 89 92  1  1
 89 90  1  0
 91 89  1  0
M  ISO  4  10 100  22 100  51 101  52 101
M  END
>  <TORSDO>  (18) 
F 17

>  <SCORE>  (18) 
-14.956

>  <name>  (18) 
17

>  <ligand_id>  (18) 
17

>  <original_smiles>  (18) 
[H]c1nc(N([H])C2([H])C([H])([H])N(C(=O)N3C([H])([H])C([H])([H])C([H])([H])C([H])(n4nc(-c5c([H])c([H])c(Oc6c([H])c([H])c(F)c([H])c6F)c([H])c5[H])c(C(=O)N([H])[H])c4N([H])[H])C3([H])[H])C([H])([H])C2([H])[H])c([H])c(C([H])([H])[H])c1C([H])([H])Oc1c([H])c([H])c2c(c1[H])C([H])([H])N(C(=O)C([H])(N([H])C(=O)C([H])(N([H])C([H])([H])[H])C([H])([H])[H])C(C([H])([H])[H])(C([H])([H])[H])C([H])([H])[H])C([H])(C(=O)N([H])C1([H])c3c([H])c([H])c([H])c([H])c3C([H])([H])C([H])([H])C1([H])[H])C2([H])[H]

>  <smiles>  (18) 
[H]c1nc(N([H])C2([H])C([H])([H])N(C(=O)N3C([H])([H])C([H])([H])C([H])([H])C([H])(n4nc(-c5c([H])c([H])c(Oc6c([H])c([H])c(F)c([H])c6F)c([H])c5[H])c(C(=O)N([H])[H])c4N([H])[H])C3([H])[H])C([H])([H])C2([H])[H])c([H])c(C([H])([H])[H])c1C([H])([H])Oc1c([H])c([H])c2c(c1[H])C([H])([H])N(C(=O)C([H])(N([H])C(=O)C([H])(N([H])C([H])([H])[H])C([H])([H])[H])C(C([H])([H])[H])(C([H])([H])[H])C([H])([H])[H])C([H])(C(=O)N([H])C1([H])c3c([H])c([H])c([H])c([H])c3C([H])([H])C([H])([H])C1([H])[H])C2([H])[H]

$$$$
18:0:0
     RDKit          3D

 94103  0  0  1  0  0  0  0  0999 V2000
  -27.7860  -20.2450   18.2580 C   0  0  0  0  0  3  0  0  0  0  0  0
  -27.1110  -22.3860   18.7170 C   0  0  0  0  0  0  0  0  0  0  0  0
  -28.0390  -22.4890   19.7920 C   0  0  0  0  0  0  0  0  0  0  0  0
  -28.5630  -20.1610   19.4470 C   0  0  0  0  0  0  0  0  0  0  0  0
  -26.0280  -23.3970   18.4110 C   0  0  0  0  0  1  0  0  0  0  0  0
  -27.0430  -21.3090   17.9210 N   0  0  0  0  0  0  0  0  0  0  0  0
  -28.7240  -21.3290   20.1860 N   0  0  0  0  0  0  0  0  0  0  0  0
  -30.6210  -14.7360   20.3090 C   0  0  0  0  0  0  0  0  0  0  0  0
  -30.3330  -12.4780   19.2950 C   0  0  0  0  0  2  0  0  0  0  0  0
  -29.3830  -12.5310   18.0820 C   0  0  0  0  0  2  0  0  0  0  0  0
  -27.9280  -12.3200   18.5380 C   0  0  0  0  0  2  0  0  0  0  0  0
  -27.5430  -13.2290   19.7290 C   0  0  0  0  0  3  0  0  0  0  0  0
  -28.6230  -13.2300   20.8410 C   0  0  0  0  0  2  0  0  0  0  0  0
  -29.9190  -13.5520   20.2250 N   0  0  0  0  0  0  0  0  0  0  0  0
  -31.8270  -14.7450   20.0470 O   0  0  0  0  0  0  0  0  0  0  0  0
  -28.8230  -17.6980   18.9710 C   0  0  0  0  0  2  0  0  0  0  0  0
  -28.8350  -16.3020   19.6510 C   0  0  0  0  0  2  0  0  0  0  0  0
  -29.7720  -18.5250   21.0810 C   0  0  0  0  0  2  0  0  0  0  0  0
  -30.6390  -17.1900   21.0370 C   0  0  0  0  0  3  0  0  0  0  0  0
  -31.2390  -16.9540   22.4340 C   0  0  0  0  0  1  0  0  0  0  0  0
  -29.1200  -18.8700   19.8140 N   0  0  0  0  0  0  0  0  0  0  0  0
  -29.9620  -15.9450   20.5260 N   0  0  0  0  0  0  0  0  0  0  0  0
  -25.1760  -13.8500   20.4790 C   0  0  0  0  0  0  0  0  0  0  0  0
  -24.1090  -13.0840   20.8490 C   0  0  0  0  0  0  0  0  0  0  0  0
  -24.5690  -11.7320   20.8200 C   0  0  0  0  0  0  0  0  0  0  0  0
  -26.2130  -12.9600   20.2420 N   0  0  0  0  0  0  0  0  0  0  0  0
  -25.8570  -11.6830   20.5100 N   0  0  0  0  0  0  0  0  0  0  0  0
  -23.8430  -10.4750   21.0060 C   0  0  0  0  0  0  0  0  0  0  0  0
  -24.2700   -9.5140   21.9470 C   0  0  0  0  0  3  0  0  0  0  0  0
  -23.5460   -8.3160   22.1220 C   0  0  0  0  0  3  0  0  0  0  0  0
  -22.3830   -8.0740   21.3540 C   0  0  0  0  0  0  0  0  0  0  0  0
  -21.9760   -9.0240   20.4010 C   0  0  0  0  0  3  0  0  0  0  0  0
  -22.7010  -10.2130   20.2230 C   0  0  0  0  0  3  0  0  0  0  0  0
  -21.6290   -6.9290   21.4400 O   0  0  0  0  0  0  0  0  0  0  0  0
  -21.5630   -6.2000   22.6000 C   0  0  0  0  0  0  0  0  0  0  0  0
  -21.0940   -6.7620   23.8070 C   0  0  0  0  0  3  0  0  0  0  0  0
  -20.9750   -5.9570   24.9580 C   0  0  0  0  0  3  0  0  0  0  0  0
  -21.3130   -4.5920   24.9020 C   0  0  0  0  0  0  0  0  0  0  0  0
  -21.7790   -4.0300   23.7000 C   0  0  0  0  0  3  0  0  0  0  0  0
  -21.9000   -4.8320   22.5520 C   0  0  0  0  0  0  0  0  0  0  0  0
  -22.3290   -4.2810   21.3900 F   0  0  0  0  0  0  0  0  0  0  0  0
  -21.1920   -3.8180   26.0060 F   0  0  0  0  0  0  0  0  0  0  0  0
  -22.7140  -13.5680   21.1200 C   0  0  0  0  0  0  0  0  0  0  0  0
  -21.9840  -12.8700   21.9800 N   0  0  0  0  0  0  0  0  0  0  0  0
  -22.2840  -14.6020   20.6080 O   0  0  0  0  0  0  0  0  0  0  0  0
  -22.3490  -12.0360   22.4150 H   0  0  0  0  0  0  0  0  0  0  0  0
  -21.0450  -13.1680   22.2090 H   0  0  0  0  0  0  0  0  0  0  0  0
  -25.3350  -15.2230   20.3000 N   0  0  0  0  0  0  0  0  0  0  0  0
  -24.5580  -15.8640   20.4070 H   0  0  0  0  0  0  0  0  0  0  0  0
  -26.1790  -15.6680   19.9710 H   0  0  0  0  0  0  0  0  0  0  0  0
  -29.2890  -23.7830   21.6340 C   0  0  0  0  0  1  0  0  0  0  0  0
  -28.1920  -23.8740   20.5590 C   0  0  0  0  0  3  0  0  0  0  0  0
  -28.4560  -25.1880   19.6690 C   0  0  0  0  0  2  0  0  0  0  0  0
  -28.3560  -26.5500   20.2460 O   0  0  0  0  0  0  0  0  0  0  0  0
  -24.5810  -31.9180   23.2070 C   0  0  0  0  0  0  0  0  0  0  0  0
  -27.2100  -27.3570   20.1680 C   0  0  0  0  0  0  0  0  0  0  0  0
  -23.3840  -30.5200   21.5600 C   0  0  0  0  0  3  0  0  0  0  0  0
  -24.8370  -28.9690   20.1400 C   0  0  0  0  0  0  0  0  0  0  0  0
  -25.9200  -30.8310   21.3940 C   0  0  0  0  0  2  0  0  0  0  0  0
  -25.9970  -29.4490   20.7610 C   0  0  0  0  0  0  0  0  0  0  0  0
  -27.1770  -28.6500   20.7780 C   0  0  0  0  0  3  0  0  0  0  0  0
  -26.0330  -26.9420   19.5030 C   0  0  0  0  0  3  0  0  0  0  0  0
  -24.8620  -27.7230   19.4970 C   0  0  0  0  0  3  0  0  0  0  0  0
  -23.6000  -29.8440   20.1800 C   0  0  0  0  0  2  0  0  0  0  0  0
  -24.6460  -31.1090   22.1090 N   0  0  0  0  0  0  0  0  0  0  0  0
  -23.4960  -32.1990   23.7350 O   0  0  0  0  0  0  0  0  0  0  0  0
  -22.7160  -29.5040   22.5160 C   0  0  0  0  0  0  0  0  0  0  0  0
  -21.3860  -29.3440   22.3940 N   0  0  0  0  0  0  0  0  0  0  0  0
  -23.3890  -28.8660   23.3280 O   0  0  0  0  0  0  0  0  0  0  0  0
  -20.9010  -29.9080   21.7100 H   0  0  0  0  0  0  0  0  0  0  0  0
  -17.9940  -28.2190   22.9290 C   0  0  0  0  0  0  0  0  0  0  0  0
  -20.5600  -28.4200   23.1710 C   0  0  0  0  0  3  0  0  0  0  0  0
  -20.6240  -26.9930   22.5870 C   0  0  0  0  0  2  0  0  0  0  0  0
  -19.5080  -26.7070   21.5780 C   0  0  0  0  0  2  0  0  0  0  0  0
  -18.1350  -26.8750   22.2340 C   0  0  0  0  0  2  0  0  0  0  0  0
  -19.1340  -28.9510   23.3540 C   0  0  0  0  0  0  0  0  0  0  0  0
  -18.9510  -30.2110   23.9630 C   0  0  0  0  0  3  0  0  0  0  0  0
  -17.6610  -30.7410   24.1520 C   0  0  0  0  0  3  0  0  0  0  0  0
  -16.5360  -30.0060   23.7440 C   0  0  0  0  0  3  0  0  0  0  0  0
  -16.7020  -28.7450   23.1420 C   0  0  0  0  0  3  0  0  0  0  0  0
  -25.8640  -32.5460   23.8350 C   0  0  0  0  0  3  0  0  0  0  0  0
  -25.5570  -33.9440   24.1710 N   0  0  0  0  0  0  0  0  0  0  0  0
  -25.8890  -34.9980   23.4160 C   0  0  0  0  0  0  0  0  0  0  0  0
  -26.5560  -34.8970   22.3820 O   0  0  0  0  0  0  0  0  0  0  0  0
  -24.9630  -34.0990   24.9730 H   0  0  0  0  0  0  0  0  0  0  0  0
  -24.1680  -36.7980   23.0640 C   0  0  0  0  0  1  0  0  0  0  0  0
  -25.4040  -36.3860   23.8780 C   0  0  0  0  0  3  0  0  0  0  0  0
  -27.5330  -37.2620   24.7240 C   0  0  0  0  0  1  0  0  0  0  0  0
  -26.4400  -37.4360   23.7730 N   0  0  0  0  0  0  0  0  0  0  0  0
  -26.0350  -38.3590   23.9180 H   0  0  0  0  0  0  0  0  0  0  0  0
  -26.3820  -31.7660   25.1060 C   0  0  1  0  0  0  0  0  0  0  0  0
  -25.2890  -31.5180   26.1710 C   0  0  0  0  0  1  0  0  0  0  0  0
  -26.9650  -30.3910   24.7030 C   0  0  0  0  0  1  0  0  0  0  0  0
  -27.5320  -32.5550   25.7740 C   0  0  0  0  0  1  0  0  0  0  0  0
  1  4  1  0
  2  3  2  0
  3  7  1  0
  3 52  1  0
  4 21  1  0
  4  7  2  0
  5  2  1  0
  6  1  2  0
  6  2  1  0
  8 22  1  0
  9 14  1  0
 10 11  1  0
 10  9  1  0
 12 11  1  0
 12 26  1  0
 12 13  1  0
 14  8  1  0
 14 13  1  0
 15  8  2  0
 16 17  1  0
 16 21  1  0
 17 22  1  0
 19 18  1  0
 19 20  1  0
 21 18  1  0
 22 19  1  0
 23 24  2  0
 24 43  1  0
 25 24  1  0
 25 28  1  0
 26 23  1  0
 26 27  1  0
 27 25  2  0
 28 29  1  0
 29 30  2  0
 31 34  1  0
 31 30  1  0
 32 31  2  0
 33 32  1  0
 33 28  2  0
 34 35  1  0
 35 36  1  0
 36 37  2  0
 38 37  1  0
 38 42  1  0
 39 38  2  0
 40 35  2  0
 40 39  1  0
 41 40  1  0
 43 44  1  0
 44 47  1  0
 44 46  1  0
 45 43  2  0
 48 49  1  0
 48 23  1  0
 50 48  1  0
 52 51  1  0
 53 54  1  0
 53 52  1  0
 55 66  2  0
 56 54  1  0
 56 61  1  0
 57 65  1  0
 57 67  1  0
 58 64  1  0
 58 60  1  0
 59 65  1  0
 60 61  2  0
 60 59  1  0
 62 56  2  0
 63 62  1  0
 63 58  2  0
 64 57  1  0
 65 55  1  0
 67 69  2  0
 68 67  1  0
 70 68  1  0
 71 80  2  0
 71 76  1  0
 72 68  1  0
 72 76  1  0
 73 72  1  0
 74 75  1  0
 74 73  1  0
 75 71  1  0
 76 77  2  0
 77 78  1  0
 79 78  2  0
 80 79  1  0
 81 55  1  0
 81 82  1  0
 81 91  1  0
 82 85  1  0
 83 87  1  0
 83 82  1  0
 84 83  2  0
 87 86  1  0
 89 87  1  0
 89 90  1  0
 89 88  1  0
 91 94  1  1
 91 92  1  0
 93 91  1  0
M  ISO  4   8 100  22 100  53 101  54 101
M  END
>  <TORSDO>  (19) 
F 18

>  <SCORE>  (19) 
-14.843

>  <name>  (19) 
18

>  <ligand_id>  (19) 
18

>  <original_smiles>  (19) 
[H]c1nc(C([H])([H])[H])c(C([H])(C([H])([H])[H])C([H])([H])Oc2c([H])c([H])c3c(c2[H])C([H])([H])N(C(=O)C([H])(N([H])C(=O)C([H])(N([H])C([H])([H])[H])C([H])([H])[H])C(C([H])([H])[H])(C([H])([H])[H])C([H])([H])[H])C([H])(C(=O)N([H])C2([H])c4c([H])c([H])c([H])c([H])c4C([H])([H])C([H])([H])C2([H])[H])C3([H])[H])nc1N1C([H])([H])C([H])([H])N(C(=O)N2C([H])([H])C([H])([H])C([H])([H])C([H])(n3nc(-c4c([H])c([H])c(Oc5c([H])c([H])c(F)c([H])c5F)c([H])c4[H])c(C(=O)N([H])[H])c3N([H])[H])C2([H])[H])C([H])(C([H])([H])[H])C1([H])[H]

>  <smiles>  (19) 
[H]c1nc(C([H])([H])[H])c(C([H])(C([H])([H])[H])C([H])([H])Oc2c([H])c([H])c3c(c2[H])C([H])([H])N(C(=O)C([H])(N([H])C(=O)C([H])(N([H])C([H])([H])[H])C([H])([H])[H])C(C([H])([H])[H])(C([H])([H])[H])C([H])([H])[H])C([H])(C(=O)N([H])C2([H])c4c([H])c([H])c([H])c([H])c4C([H])([H])C([H])([H])C2([H])[H])C3([H])[H])nc1N1C([H])([H])C([H])([H])N(C(=O)N2C([H])([H])C([H])([H])C([H])([H])C([H])(n3nc(-c4c([H])c([H])c(Oc5c([H])c([H])c(F)c([H])c5F)c([H])c4[H])c(C(=O)N([H])[H])c3N([H])[H])C2([H])[H])C([H])(C([H])([H])[H])C1([H])[H]

$$$$
19:0:0
     RDKit          3D

 92101  0  0  1  0  0  0  0  0999 V2000
  -30.0110  -23.3530   20.8240 C   0  0  0  0  0  3  0  0  0  0  0  0
  -28.7010  -23.7650   20.4960 C   0  0  0  0  0  0  0  0  0  0  0  0
  -27.9040  -22.6850   20.0160 C   0  0  0  0  0  0  0  0  0  0  0  0
  -29.5980  -21.1170   20.3130 C   0  0  0  0  0  0  0  0  0  0  0  0
  -26.4600  -22.8890   19.6010 C   0  0  0  0  0  1  0  0  0  0  0  0
  -30.4430  -22.0590   20.7220 N   0  0  0  0  0  0  0  0  0  0  0  0
  -28.3520  -21.3890   19.9360 N   0  0  0  0  0  0  0  0  0  0  0  0
  -30.1160  -19.7940   20.2820 N   0  0  0  0  0  0  0  0  0  0  0  0
  -31.0940  -19.7670   20.5370 H   0  0  0  0  0  0  0  0  0  0  0  0
  -30.7080  -14.7510   20.0230 C   0  0  0  0  0  0  0  0  0  0  0  0
  -30.3940  -12.5330   18.9250 C   0  0  0  0  0  2  0  0  0  0  0  0
  -29.3820  -12.6640   17.7670 C   0  0  0  0  0  2  0  0  0  0  0  0
  -27.9380  -12.4870   18.2810 C   0  0  0  0  0  2  0  0  0  0  0  0
  -27.6540  -13.3150   19.5610 C   0  0  0  0  0  3  0  0  0  0  0  0
  -28.7830  -13.1510   20.6020 C   0  0  0  0  0  2  0  0  0  0  0  0
  -30.0350  -13.5490   19.9430 N   0  0  0  0  0  0  0  0  0  0  0  0
  -31.8580  -14.8200   19.5780 O   0  0  0  0  0  0  0  0  0  0  0  0
  -29.1070  -17.8130   21.5260 C   0  0  0  0  0  2  0  0  0  0  0  0
  -29.1040  -16.2710   21.3280 C   0  0  0  0  0  2  0  0  0  0  0  0
  -30.4010  -17.2670   19.6260 C   0  0  0  0  0  2  0  0  0  0  0  0
  -29.4870  -18.4320   20.1790 C   0  0  0  0  0  3  0  0  0  0  0  0
  -30.0050  -15.9400   20.2140 N   0  0  0  0  0  0  0  0  0  0  0  0
  -25.3100  -13.8800   20.4380 C   0  0  0  0  0  0  0  0  0  0  0  0
  -24.2690  -13.0930   20.8500 C   0  0  0  0  0  0  0  0  0  0  0  0
  -24.7320  -11.7450   20.7540 C   0  0  0  0  0  0  0  0  0  0  0  0
  -26.3410  -13.0110   20.1210 N   0  0  0  0  0  0  0  0  0  0  0  0
  -26.0030  -11.7190   20.3700 N   0  0  0  0  0  0  0  0  0  0  0  0
  -24.0180  -10.4760   20.9470 C   0  0  0  0  0  0  0  0  0  0  0  0
  -24.4610   -9.5150   21.8830 C   0  0  0  0  0  3  0  0  0  0  0  0
  -23.7460   -8.3120   22.0650 C   0  0  0  0  0  3  0  0  0  0  0  0
  -22.5750   -8.0600   21.3120 C   0  0  0  0  0  0  0  0  0  0  0  0
  -22.1530   -9.0090   20.3640 C   0  0  0  0  0  3  0  0  0  0  0  0
  -22.8680  -10.2050   20.1800 C   0  0  0  0  0  3  0  0  0  0  0  0
  -21.8310   -6.9090   21.4040 O   0  0  0  0  0  0  0  0  0  0  0  0
  -21.7240   -6.2140   22.5830 C   0  0  0  0  0  0  0  0  0  0  0  0
  -21.2150   -6.8130   23.7560 C   0  0  0  0  0  3  0  0  0  0  0  0
  -21.0560   -6.0430   24.9260 C   0  0  0  0  0  3  0  0  0  0  0  0
  -21.3950   -4.6770   24.9230 C   0  0  0  0  0  0  0  0  0  0  0  0
  -21.8970   -4.0780   23.7540 C   0  0  0  0  0  3  0  0  0  0  0  0
  -22.0580   -4.8450   22.5860 C   0  0  0  0  0  0  0  0  0  0  0  0
  -22.5220   -4.2590   21.4570 F   0  0  0  0  0  0  0  0  0  0  0  0
  -21.2360   -3.9360   26.0440 F   0  0  0  0  0  0  0  0  0  0  0  0
  -22.8900  -13.5580   21.2170 C   0  0  0  0  0  0  0  0  0  0  0  0
  -22.2200  -12.8420   22.1130 N   0  0  0  0  0  0  0  0  0  0  0  0
  -22.4180  -14.5930   20.7480 O   0  0  0  0  0  0  0  0  0  0  0  0
  -22.6160  -12.0040   22.5120 H   0  0  0  0  0  0  0  0  0  0  0  0
  -21.2980  -13.1350   22.4030 H   0  0  0  0  0  0  0  0  0  0  0  0
  -25.4550  -15.2550   20.2820 N   0  0  0  0  0  0  0  0  0  0  0  0
  -24.6810  -15.8940   20.4280 H   0  0  0  0  0  0  0  0  0  0  0  0
  -26.2710  -15.7040   19.8880 H   0  0  0  0  0  0  0  0  0  0  0  0
  -28.1190  -25.1790   20.9290 C   0  0  0  0  0  2  0  0  0  0  0  0
  -28.4160  -26.4620   20.2380 O   0  0  0  0  0  0  0  0  0  0  0  0
  -24.6260  -31.8750   23.2200 C   0  0  0  0  0  0  0  0  0  0  0  0
  -27.3310  -27.3530   20.1890 C   0  0  0  0  0  0  0  0  0  0  0  0
  -23.4600  -30.4620   21.5650 C   0  0  0  0  0  3  0  0  0  0  0  0
  -24.9500  -28.9360   20.1500 C   0  0  0  0  0  0  0  0  0  0  0  0
  -25.9990  -30.8140   21.4120 C   0  0  0  0  0  2  0  0  0  0  0  0
  -26.1070  -29.4380   20.7640 C   0  0  0  0  0  0  0  0  0  0  0  0
  -27.3050  -28.6580   20.7740 C   0  0  0  0  0  3  0  0  0  0  0  0
  -26.1590  -26.9130   19.5400 C   0  0  0  0  0  3  0  0  0  0  0  0
  -24.9790  -27.6800   19.5280 C   0  0  0  0  0  3  0  0  0  0  0  0
  -23.7010  -29.7930   20.1860 C   0  0  0  0  0  2  0  0  0  0  0  0
  -24.7130  -31.0690   22.1220 N   0  0  0  0  0  0  0  0  0  0  0  0
  -23.5330  -32.1380   23.7420 O   0  0  0  0  0  0  0  0  0  0  0  0
  -22.8010  -29.4350   22.5160 C   0  0  0  0  0  0  0  0  0  0  0  0
  -21.4770  -29.2480   22.3810 N   0  0  0  0  0  0  0  0  0  0  0  0
  -23.4800  -28.8110   23.3360 O   0  0  0  0  0  0  0  0  0  0  0  0
  -20.9870  -29.8030   21.6940 H   0  0  0  0  0  0  0  0  0  0  0  0
  -18.1060  -28.0240   22.8610 C   0  0  0  0  0  0  0  0  0  0  0  0
  -20.6610  -28.3000   23.1440 C   0  0  0  0  0  3  0  0  0  0  0  0
  -20.7750  -26.8710   22.5630 C   0  0  0  0  0  2  0  0  0  0  0  0
  -19.6820  -26.5460   21.5410 C   0  0  0  0  0  2  0  0  0  0  0  0
  -18.2960  -26.6790   22.1770 C   0  0  0  0  0  2  0  0  0  0  0  0
  -19.2170  -28.7910   23.3000 C   0  0  0  0  0  0  0  0  0  0  0  0
  -18.9860  -30.0490   23.8970 C   0  0  0  0  0  3  0  0  0  0  0  0
  -17.6770  -30.5400   24.0590 C   0  0  0  0  0  3  0  0  0  0  0  0
  -16.5800  -29.7690   23.6380 C   0  0  0  0  0  3  0  0  0  0  0  0
  -16.7950  -28.5120   23.0440 C   0  0  0  0  0  3  0  0  0  0  0  0
  -25.8930  -32.5260   23.8560 C   0  0  0  0  0  3  0  0  0  0  0  0
  -25.5620  -33.9210   24.1810 N   0  0  0  0  0  0  0  0  0  0  0  0
  -25.8980  -34.9780   23.4300 C   0  0  0  0  0  0  0  0  0  0  0  0
  -26.5910  -34.8830   22.4120 O   0  0  0  0  0  0  0  0  0  0  0  0
  -24.9520  -34.0680   24.9730 H   0  0  0  0  0  0  0  0  0  0  0  0
  -24.1700  -36.7600   23.0280 C   0  0  0  0  0  1  0  0  0  0  0  0
  -25.3870  -36.3600   23.8790 C   0  0  0  0  0  3  0  0  0  0  0  0
  -27.4860  -37.2570   24.7850 C   0  0  0  0  0  1  0  0  0  0  0  0
  -26.4160  -37.4220   23.8050 N   0  0  0  0  0  0  0  0  0  0  0  0
  -25.9980  -38.3380   23.9420 H   0  0  0  0  0  0  0  0  0  0  0  0
  -26.4030  -31.7630   25.1410 C   0  0  1  0  0  0  0  0  0  0  0  0
  -25.2990  -31.5100   26.1940 C   0  0  0  0  0  1  0  0  0  0  0  0
  -27.0100  -30.3930   24.7610 C   0  0  0  0  0  1  0  0  0  0  0  0
  -27.5330  -32.5740   25.8180 C   0  0  0  0  0  1  0  0  0  0  0  0
  2  1  2  0
  2 51  1  0
  3  2  1  0
  4  6  2  0
  5  3  1  0
  6  1  1  0
  7  3  2  0
  7  4  1  0
  8  4  1  0
  8  9  1  0
 10 22  1  0
 11 16  1  0
 12 13  1  0
 12 11  1  0
 14 13  1  0
 14 26  1  0
 14 15  1  0
 16 10  1  0
 16 15  1  0
 17 10  2  0
 19 18  1  0
 20 21  1  0
 20 22  1  0
 21  8  1  0
 21 18  1  0
 22 19  1  0
 23 24  2  0
 24 43  1  0
 25 24  1  0
 25 28  1  0
 26 27  1  0
 26 23  1  0
 27 25  2  0
 28 29  1  0
 29 30  2  0
 31 34  1  0
 31 30  1  0
 32 31  2  0
 33 32  1  0
 33 28  2  0
 34 35  1  0
 35 40  2  0
 35 36  1  0
 36 37  2  0
 38 37  1  0
 38 42  1  0
 39 38  2  0
 40 39  1  0
 41 40  1  0
 43 44  1  0
 44 47  1  0
 44 46  1  0
 45 43  2  0
 48 49  1  0
 48 23  1  0
 50 48  1  0
 52 51  1  0
 53 64  2  0
 54 52  1  0
 54 59  1  0
 55 63  1  0
 55 65  1  0
 56 62  1  0
 56 58  1  0
 57 63  1  0
 58 59  2  0
 58 57  1  0
 60 54  2  0
 61 60  1  0
 61 56  2  0
 62 55  1  0
 63 53  1  0
 65 67  2  0
 66 65  1  0
 68 66  1  0
 69 78  2  0
 69 74  1  0
 70 66  1  0
 70 74  1  0
 71 70  1  0
 72 73  1  0
 72 71  1  0
 73 69  1  0
 74 75  2  0
 75 76  1  0
 77 76  2  0
 78 77  1  0
 79 53  1  0
 79 80  1  0
 79 89  1  0
 80 83  1  0
 81 85  1  0
 81 80  1  0
 82 81  2  0
 85 84  1  0
 87 85  1  0
 87 88  1  0
 87 86  1  0
 89 92  1  1
 89 90  1  0
 91 89  1  0
M  ISO  4  10 100  22 100  51 101  52 101
M  END
>  <TORSDO>  (20) 
F 17

>  <SCORE>  (20) 
-14.309

>  <name>  (20) 
19

>  <ligand_id>  (20) 
19

>  <original_smiles>  (20) 
[H]c1nc(N([H])C2([H])C([H])([H])N(C(=O)N3C([H])([H])C([H])([H])C([H])([H])C([H])(n4nc(-c5c([H])c([H])c(Oc6c([H])c([H])c(F)c([H])c6F)c([H])c5[H])c(C(=O)N([H])[H])c4N([H])[H])C3([H])[H])C([H])([H])C2([H])[H])nc(C([H])([H])[H])c1C([H])([H])Oc1c([H])c([H])c2c(c1[H])C([H])([H])N(C(=O)C([H])(N([H])C(=O)C([H])(N([H])C([H])([H])[H])C([H])([H])[H])C(C([H])([H])[H])(C([H])([H])[H])C([H])([H])[H])C([H])(C(=O)N([H])C1([H])c3c([H])c([H])c([H])c([H])c3C([H])([H])C([H])([H])C1([H])[H])C2([H])[H]

>  <smiles>  (20) 
[H]c1nc(N([H])C2([H])C([H])([H])N(C(=O)N3C([H])([H])C([H])([H])C([H])([H])C([H])(n4nc(-c5c([H])c([H])c(Oc6c([H])c([H])c(F)c([H])c6F)c([H])c5[H])c(C(=O)N([H])[H])c4N([H])[H])C3([H])[H])C([H])([H])C2([H])[H])nc(C([H])([H])[H])c1C([H])([H])Oc1c([H])c([H])c2c(c1[H])C([H])([H])N(C(=O)C([H])(N([H])C(=O)C([H])(N([H])C([H])([H])[H])C([H])([H])[H])C(C([H])([H])[H])(C([H])([H])[H])C([H])([H])[H])C([H])(C(=O)N([H])C1([H])c3c([H])c([H])c([H])c([H])c3C([H])([H])C([H])([H])C1([H])[H])C2([H])[H]

$$$$
20:0:0
     RDKit          3D

 87 96  0  0  1  0  0  0  0  0999 V2000
  -30.5000  -15.8550   19.9860 C   0  0  0  0  0  0  0  0  0  0  0  0
  -30.6090  -13.2280   19.2770 C   0  0  0  0  0  2  0  0  0  0  0  0
  -29.7000  -12.7100   18.1180 C   0  0  0  0  0  2  0  0  0  0  0  0
  -28.2970  -12.3510   18.6260 C   0  0  0  0  0  2  0  0  0  0  0  0
  -27.8020  -13.4040   19.6390 C   0  0  0  0  0  3  0  0  0  0  0  0
  -28.8520  -13.8040   20.7040 C   0  0  0  0  0  2  0  0  0  0  0  0
  -29.9920  -14.4530   19.9960 N   0  0  0  0  0  0  0  0  0  0  0  0
  -31.7070  -15.7530   19.6680 O   0  0  0  0  0  0  0  0  0  0  0  0
  -30.1550  -20.7580   22.0220 C   0  0  0  0  0  3  0  0  0  0  0  0
  -29.7480  -21.9270   21.3170 C   0  0  0  0  0  3  0  0  0  0  0  0
  -30.0960  -19.4240   21.5160 C   0  0  0  0  0  0  0  0  0  0  0  0
  -29.1740  -21.8970   20.0320 C   0  0  0  0  0  0  0  0  0  0  0  0
  -29.7440  -19.0440   20.2120 C   0  0  0  0  0  0  0  0  0  0  0  0
  -30.2190  -18.2320   22.4230 C   0  0  0  0  0  2  0  0  0  0  0  0
  -29.4580  -17.1060   21.6990 C   0  0  0  0  0  2  0  0  0  0  0  0
  -29.2090  -20.3820   19.5590 N   0  0  0  0  0  0  0  0  0  0  0  0
  -29.7560  -17.2570   20.2590 N   0  0  0  0  0  0  0  0  0  0  0  0
  -25.4990  -13.9830   20.5270 C   0  0  0  0  0  0  0  0  0  0  0  0
  -24.4320  -13.2280   20.9200 C   0  0  0  0  0  0  0  0  0  0  0  0
  -24.8550  -11.8650   20.8310 C   0  0  0  0  0  0  0  0  0  0  0  0
  -26.5010  -13.0870   20.2100 N   0  0  0  0  0  0  0  0  0  0  0  0
  -26.1320  -11.8010   20.4590 N   0  0  0  0  0  0  0  0  0  0  0  0
  -24.0920  -10.6230   21.0190 C   0  0  0  0  0  0  0  0  0  0  0  0
  -24.5000   -9.6350   21.9430 C   0  0  0  0  0  3  0  0  0  0  0  0
  -23.7350   -8.4620   22.1230 C   0  0  0  0  0  3  0  0  0  0  0  0
  -22.5460   -8.2690   21.3800 C   0  0  0  0  0  0  0  0  0  0  0  0
  -22.1560   -9.2450   20.4470 C   0  0  0  0  0  3  0  0  0  0  0  0
  -22.9210  -10.4090   20.2640 C   0  0  0  0  0  3  0  0  0  0  0  0
  -21.7530   -7.1490   21.4700 O   0  0  0  0  0  0  0  0  0  0  0  0
  -21.6620   -6.4220   22.6310 C   0  0  0  0  0  0  0  0  0  0  0  0
  -21.2220   -7.0010   23.8400 C   0  0  0  0  0  3  0  0  0  0  0  0
  -21.0770   -6.2020   24.9920 C   0  0  0  0  0  3  0  0  0  0  0  0
  -21.3620   -4.8250   24.9340 C   0  0  0  0  0  0  0  0  0  0  0  0
  -21.7960   -4.2450   23.7290 C   0  0  0  0  0  3  0  0  0  0  0  0
  -21.9410   -5.0420   22.5800 C   0  0  0  0  0  0  0  0  0  0  0  0
  -22.3390   -4.4730   21.4160 F   0  0  0  0  0  0  0  0  0  0  0  0
  -21.2170   -4.0560   26.0380 F   0  0  0  0  0  0  0  0  0  0  0  0
  -23.0640  -13.7430   21.2580 C   0  0  0  0  0  0  0  0  0  0  0  0
  -22.3520  -13.0570   22.1430 N   0  0  0  0  0  0  0  0  0  0  0  0
  -22.6410  -14.7920   20.7730 O   0  0  0  0  0  0  0  0  0  0  0  0
  -22.7110  -12.2090   22.5570 H   0  0  0  0  0  0  0  0  0  0  0  0
  -21.4350  -13.3830   22.4120 H   0  0  0  0  0  0  0  0  0  0  0  0
  -25.6980  -15.3540   20.3810 N   0  0  0  0  0  0  0  0  0  0  0  0
  -24.9570  -16.0260   20.5460 H   0  0  0  0  0  0  0  0  0  0  0  0
  -26.5440  -15.7770   20.0220 H   0  0  0  0  0  0  0  0  0  0  0  0
  -28.4390  -23.5890   19.4710 C   0  0  0  0  0  2  0  0  0  0  0  0
  -28.4540  -25.3660   19.8760 O   0  0  0  0  0  0  0  0  0  0  0  0
  -24.6360  -31.5330   22.9340 C   0  0  0  0  0  0  0  0  0  0  0  0
  -27.4490  -26.5980   19.8090 C   0  0  0  0  0  0  0  0  0  0  0  0
  -23.5440  -30.1360   21.2330 C   0  0  0  0  0  3  0  0  0  0  0  0
  -25.0920  -28.5920   19.7870 C   0  0  0  0  0  0  0  0  0  0  0  0
  -26.1200  -30.3740   21.1670 C   0  0  0  0  0  2  0  0  0  0  0  0
  -26.2620  -28.9590   20.4610 C   0  0  0  0  0  0  0  0  0  0  0  0
  -27.4150  -27.9920   20.4400 C   0  0  0  0  0  3  0  0  0  0  0  0
  -26.2350  -26.4730   19.0770 C   0  0  0  0  0  3  0  0  0  0  0  0
  -25.1230  -27.3800   19.0730 C   0  0  0  0  0  3  0  0  0  0  0  0
  -23.8420  -29.4930   19.8450 C   0  0  0  0  0  2  0  0  0  0  0  0
  -24.7890  -30.7170   21.8310 N   0  0  0  0  0  0  0  0  0  0  0  0
  -23.5200  -31.7670   23.4320 O   0  0  0  0  0  0  0  0  0  0  0  0
  -22.8520  -29.1000   22.1610 C   0  0  0  0  0  0  0  0  0  0  0  0
  -21.5210  -28.9250   22.0430 N   0  0  0  0  0  0  0  0  0  0  0  0
  -23.5280  -28.4530   22.9650 O   0  0  0  0  0  0  0  0  0  0  0  0
  -21.0220  -29.4990   21.3780 H   0  0  0  0  0  0  0  0  0  0  0  0
  -18.1620  -27.6320   22.5660 C   0  0  0  0  0  0  0  0  0  0  0  0
  -20.7250  -27.9290   22.7760 C   0  0  0  0  0  3  0  0  0  0  0  0
  -20.8310  -26.5370   22.1110 C   0  0  0  0  0  2  0  0  0  0  0  0
  -19.7070  -26.2620   21.1060 C   0  0  0  0  0  2  0  0  0  0  0  0
  -18.3420  -26.3360   21.7930 C   0  0  0  0  0  2  0  0  0  0  0  0
  -19.2790  -28.3890   23.0130 C   0  0  0  0  0  0  0  0  0  0  0  0
  -19.0520  -29.5980   23.7040 C   0  0  0  0  0  3  0  0  0  0  0  0
  -17.7420  -30.0550   23.9470 C   0  0  0  0  0  3  0  0  0  0  0  0
  -16.6410  -29.2980   23.5110 C   0  0  0  0  0  3  0  0  0  0  0  0
  -16.8520  -28.0870   22.8270 C   0  0  0  0  0  3  0  0  0  0  0  0
  -25.8520  -32.2260   23.6200 C   0  0  0  0  0  3  0  0  0  0  0  0
  -25.4500  -33.5960   24.0050 N   0  0  0  0  0  0  0  0  0  0  0  0
  -25.7190  -34.7080   23.3080 C   0  0  0  0  0  0  0  0  0  0  0  0
  -26.3850  -34.6930   22.2700 O   0  0  0  0  0  0  0  0  0  0  0  0
  -24.8520  -33.6750   24.8150 H   0  0  0  0  0  0  0  0  0  0  0  0
  -23.8800  -36.4180   23.0870 C   0  0  0  0  0  1  0  0  0  0  0  0
  -25.1670  -36.0480   23.8410 C   0  0  0  0  0  3  0  0  0  0  0  0
  -27.2660  -37.0360   24.6540 C   0  0  0  0  0  1  0  0  0  0  0  0
  -26.1320  -37.1670   23.7440 N   0  0  0  0  0  0  0  0  0  0  0  0
  -25.6740  -38.0550   23.9350 H   0  0  0  0  0  0  0  0  0  0  0  0
  -26.3670  -31.4470   24.8950 C   0  0  1  0  0  0  0  0  0  0  0  0
  -25.2590  -31.1400   25.9300 C   0  0  0  0  0  1  0  0  0  0  0  0
  -27.0180  -30.1040   24.5010 C   0  0  0  0  0  1  0  0  0  0  0  0
  -27.4680  -32.2720   25.6030 C   0  0  0  0  0  1  0  0  0  0  0  0
  1  7  1  0
  1 17  1  0
  2  7  1  0
  3  4  1  0
  3  2  1  0
  5  4  1  0
  5 21  1  0
  5  6  1  0
  7  6  1  0
  8  1  2  0
 10  9  2  0
 11  9  1  0
 11 14  1  0
 12 10  1  0
 13 17  1  0
 13 11  2  0
 15 14  1  0
 16 12  2  0
 16 13  1  0
 17 15  1  0
 18 19  2  0
 19 38  1  0
 20 19  1  0
 20 23  1  0
 21 22  1  0
 21 18  1  0
 22 20  2  0
 23 24  1  0
 24 25  2  0
 26 29  1  0
 26 25  1  0
 27 26  2  0
 28 27  1  0
 28 23  2  0
 29 30  1  0
 30 31  1  0
 31 32  2  0
 33 32  1  0
 33 37  1  0
 34 33  2  0
 35 30  2  0
 35 34  1  0
 36 35  1  0
 38 39  1  0
 39 42  1  0
 39 41  1  0
 40 38  2  0
 43 18  1  0
 43 44  1  0
 45 43  1  0
 46 47  1  0
 46 12  1  0
 48 59  2  0
 49 47  1  0
 49 54  1  0
 50 58  1  0
 50 60  1  0
 51 57  1  0
 51 53  1  0
 52 58  1  0
 53 52  1  0
 54 53  2  0
 55 49  2  0
 56 55  1  0
 56 51  2  0
 57 50  1  0
 58 48  1  0
 60 62  2  0
 61 60  1  0
 63 61  1  0
 64 73  2  0
 64 69  1  0
 65 61  1  0
 65 69  1  0
 66 65  1  0
 67 68  1  0
 67 66  1  0
 68 64  1  0
 69 70  2  0
 70 71  1  0
 72 71  2  0
 73 72  1  0
 74 48  1  0
 74 75  1  0
 74 84  1  0
 75 78  1  0
 76 80  1  0
 76 75  1  0
 77 76  2  0
 80 79  1  0
 82 80  1  0
 82 83  1  0
 82 81  1  0
 84 87  1  1
 84 85  1  0
 86 84  1  0
M  ISO  4   1 100  17 100  46 101  47 101
M  END
>  <TORSDO>  (21) 
F 16

>  <SCORE>  (21) 
-14.734

>  <name>  (21) 
20

>  <ligand_id>  (21) 
20

>  <original_smiles>  (21) 
[H]c1c(C([H])([H])Oc2c([H])c([H])c3c(c2[H])C([H])([H])N(C(=O)C([H])(N([H])C(=O)C([H])(N([H])C([H])([H])[H])C([H])([H])[H])C(C([H])([H])[H])(C([H])([H])[H])C([H])([H])[H])C([H])(C(=O)N([H])C2([H])c4c([H])c([H])c([H])c([H])c4C([H])([H])C([H])([H])C2([H])[H])C3([H])[H])nc2c(c1[H])C([H])([H])C([H])([H])N2C(=O)N1C([H])([H])C([H])([H])C([H])([H])C([H])(n2nc(-c3c([H])c([H])c(Oc4c([H])c([H])c(F)c([H])c4F)c([H])c3[H])c(C(=O)N([H])[H])c2N([H])[H])C1([H])[H]

>  <smiles>  (21) 
[H]c1c(C([H])([H])Oc2c([H])c([H])c3c(c2[H])C([H])([H])N(C(=O)C([H])(N([H])C(=O)C([H])(N([H])C([H])([H])[H])C([H])([H])[H])C(C([H])([H])[H])(C([H])([H])[H])C([H])([H])[H])C([H])(C(=O)N([H])C2([H])c4c([H])c([H])c([H])c([H])c4C([H])([H])C([H])([H])C2([H])[H])C3([H])[H])nc2c(c1[H])C([H])([H])C([H])([H])N2C(=O)N1C([H])([H])C([H])([H])C([H])([H])C([H])(n2nc(-c3c([H])c([H])c(Oc4c([H])c([H])c(F)c([H])c4F)c([H])c3[H])c(C(=O)N([H])[H])c2N([H])[H])C1([H])[H]

$$$$
21:0:0
     RDKit          3D

 93102  0  0  1  0  0  0  0  0999 V2000
  -28.6210  -22.4520   19.7870 C   0  0  0  0  0  3  0  0  0  0  0  0
  -29.2290  -21.3360   20.4210 C   0  0  0  0  0  0  0  0  0  0  0  0
  -28.6460  -23.7260   20.4210 C   0  0  0  0  0  0  0  0  0  0  0  0
  -29.7710  -22.7370   22.1670 C   0  0  0  0  0  0  0  0  0  0  0  0
  -30.4360  -22.9000   23.5180 C   0  0  0  0  0  1  0  0  0  0  0  0
  -29.7880  -21.5110   21.6360 N   0  0  0  0  0  0  0  0  0  0  0  0
  -29.2380  -23.8380   21.6280 N   0  0  0  0  0  0  0  0  0  0  0  0
  -29.4180  -19.9520   19.7200 C   0  0  0  0  0  2  0  0  0  0  0  0
  -30.4400  -14.4420   20.0630 C   0  0  0  0  0  0  0  0  0  0  0  0
  -30.0650  -12.2760   18.9150 C   0  0  0  0  0  2  0  0  0  0  0  0
  -29.0360  -12.4570   17.7810 C   0  0  0  0  0  2  0  0  0  0  0  0
  -27.6060  -12.2620   18.3180 C   0  0  0  0  0  2  0  0  0  0  0  0
  -27.3350  -13.0670   19.6170 C   0  0  0  0  0  3  0  0  0  0  0  0
  -28.4850  -12.9230   20.6410 C   0  0  0  0  0  2  0  0  0  0  0  0
  -29.7410  -13.2670   19.9590 N   0  0  0  0  0  0  0  0  0  0  0  0
  -31.5970  -14.5350   19.6480 O   0  0  0  0  0  0  0  0  0  0  0  0
  -30.3320  -16.5100   21.4450 C   0  0  0  0  0  2  0  0  0  0  0  0
  -29.1550  -16.3830   19.3240 C   0  0  0  0  0  2  0  0  0  0  0  0
  -30.4760  -18.0330   21.0410 C   0  0  0  0  0  2  0  0  0  0  0  0
  -28.3780  -17.6460   19.8190 C   0  0  0  0  0  2  0  0  0  0  0  0
  -29.7650  -15.5890   20.4160 N   0  0  0  0  0  0  0  0  0  0  0  0
  -29.2280  -18.6690   20.5080 N   0  0  2  0  0  4  0  0  0  0  0  0
  -28.6890  -18.9730   21.3070 H   0  0  0  0  0  0  0  0  0  0  0  0
  -24.9820  -13.6020   20.4890 C   0  0  0  0  0  0  0  0  0  0  0  0
  -23.9620  -12.8020   20.9240 C   0  0  0  0  0  0  0  0  0  0  0  0
  -24.4600  -11.4630   20.8680 C   0  0  0  0  0  0  0  0  0  0  0  0
  -26.0330  -12.7500   20.1940 N   0  0  0  0  0  0  0  0  0  0  0  0
  -25.7300  -11.4590   20.4820 N   0  0  0  0  0  0  0  0  0  0  0  0
  -23.7820  -10.1820   21.1030 C   0  0  0  0  0  0  0  0  0  0  0  0
  -24.2500   -9.2670   22.0710 C   0  0  0  0  0  3  0  0  0  0  0  0
  -23.5710   -8.0500   22.2920 C   0  0  0  0  0  3  0  0  0  0  0  0
  -22.4100   -7.7390   21.5450 C   0  0  0  0  0  0  0  0  0  0  0  0
  -21.9620   -8.6430   20.5660 C   0  0  0  0  0  3  0  0  0  0  0  0
  -22.6420   -9.8510   20.3430 C   0  0  0  0  0  3  0  0  0  0  0  0
  -21.7000   -6.5700   21.6750 O   0  0  0  0  0  0  0  0  0  0  0  0
  -21.6440   -5.8910   22.8650 C   0  0  0  0  0  0  0  0  0  0  0  0
  -21.0930   -6.4710   24.0280 C   0  0  0  0  0  3  0  0  0  0  0  0
  -20.9900   -5.7120   25.2120 C   0  0  0  0  0  3  0  0  0  0  0  0
  -21.4290   -4.3750   25.2330 C   0  0  0  0  0  0  0  0  0  0  0  0
  -21.9750   -3.7950   24.0740 C   0  0  0  0  0  3  0  0  0  0  0  0
  -22.0800   -4.5510   22.8930 C   0  0  0  0  0  0  0  0  0  0  0  0
  -22.5850   -3.9790   21.7730 F   0  0  0  0  0  0  0  0  0  0  0  0
  -21.3250   -3.6450   26.3690 F   0  0  0  0  0  0  0  0  0  0  0  0
  -22.5710  -13.2420   21.2760 C   0  0  0  0  0  0  0  0  0  0  0  0
  -21.9190  -12.5370   22.1950 N   0  0  0  0  0  0  0  0  0  0  0  0
  -22.0700  -14.2470   20.7720 O   0  0  0  0  0  0  0  0  0  0  0  0
  -22.3380  -11.7270   22.6250 H   0  0  0  0  0  0  0  0  0  0  0  0
  -20.9890  -12.8160   22.4740 H   0  0  0  0  0  0  0  0  0  0  0  0
  -25.0980  -14.9760   20.2980 N   0  0  0  0  0  0  0  0  0  0  0  0
  -24.3210  -15.6090   20.4500 H   0  0  0  0  0  0  0  0  0  0  0  0
  -25.9150  -15.4290   19.9140 H   0  0  0  0  0  0  0  0  0  0  0  0
  -27.9100  -24.9560   19.7980 C   0  0  0  0  0  2  0  0  0  0  0  0
  -28.1760  -26.3480   20.2210 O   0  0  0  0  0  0  0  0  0  0  0  0
  -24.5650  -31.8150   23.2190 C   0  0  0  0  0  0  0  0  0  0  0  0
  -27.0910  -27.2390   20.1320 C   0  0  0  0  0  0  0  0  0  0  0  0
  -23.3440  -30.4750   21.5450 C   0  0  0  0  0  3  0  0  0  0  0  0
  -24.7700  -28.9140   20.1130 C   0  0  0  0  0  0  0  0  0  0  0  0
  -25.8940  -30.7260   21.4020 C   0  0  0  0  0  2  0  0  0  0  0  0
  -25.9430  -29.3580   20.7360 C   0  0  0  0  0  0  0  0  0  0  0  0
  -27.1060  -28.5310   20.7400 C   0  0  0  0  0  3  0  0  0  0  0  0
  -25.8970  -26.8630   19.4650 C   0  0  0  0  0  3  0  0  0  0  0  0
  -24.7480  -27.6710   19.4690 C   0  0  0  0  0  3  0  0  0  0  0  0
  -23.5570  -29.8180   20.1570 C   0  0  0  0  0  2  0  0  0  0  0  0
  -24.6200  -31.0200   22.1120 N   0  0  0  0  0  0  0  0  0  0  0  0
  -23.4820  -32.1180   23.7420 O   0  0  0  0  0  0  0  0  0  0  0  0
  -22.6410  -29.4610   22.4790 C   0  0  0  0  0  0  0  0  0  0  0  0
  -21.3100  -29.3390   22.3450 N   0  0  0  0  0  0  0  0  0  0  0  0
  -23.2930  -28.7910   23.2860 O   0  0  0  0  0  0  0  0  0  0  0  0
  -20.8480  -29.9300   21.6680 H   0  0  0  0  0  0  0  0  0  0  0  0
  -17.8770  -28.3260   22.8650 C   0  0  0  0  0  0  0  0  0  0  0  0
  -20.4510  -28.4220   23.0950 C   0  0  0  0  0  3  0  0  0  0  0  0
  -20.4560  -27.0110   22.4620 C   0  0  0  0  0  2  0  0  0  0  0  0
  -19.3190  -26.7950   21.4570 C   0  0  0  0  0  2  0  0  0  0  0  0
  -17.9600  -26.9970   22.1340 C   0  0  0  0  0  2  0  0  0  0  0  0
  -19.0470  -29.0030   23.3020 C   0  0  0  0  0  0  0  0  0  0  0  0
  -18.9140  -30.2520   23.9470 C   0  0  0  0  0  3  0  0  0  0  0  0
  -17.6450  -30.8230   24.1580 C   0  0  0  0  0  3  0  0  0  0  0  0
  -16.4900  -30.1410   23.7370 C   0  0  0  0  0  3  0  0  0  0  0  0
  -16.6060  -28.8950   23.0970 C   0  0  0  0  0  3  0  0  0  0  0  0
  -25.8570  -32.4010   23.8650 C   0  0  0  0  0  3  0  0  0  0  0  0
  -25.5910  -33.8100   24.1900 N   0  0  0  0  0  0  0  0  0  0  0  0
  -25.9620  -34.8500   23.4310 C   0  0  0  0  0  0  0  0  0  0  0  0
  -26.6350  -34.7220   22.4050 O   0  0  0  0  0  0  0  0  0  0  0  0
  -24.9960  -33.9850   24.9870 H   0  0  0  0  0  0  0  0  0  0  0  0
  -24.2970  -36.6980   23.0600 C   0  0  0  0  0  1  0  0  0  0  0  0
  -25.5170  -36.2540   23.8830 C   0  0  0  0  0  3  0  0  0  0  0  0
  -27.6630  -37.0800   24.7450 C   0  0  0  0  0  1  0  0  0  0  0  0
  -26.5850  -37.2730   23.7790 N   0  0  0  0  0  0  0  0  0  0  0  0
  -26.2050  -38.2060   23.9070 H   0  0  0  0  0  0  0  0  0  0  0  0
  -26.3210  -31.6130   25.1500 C   0  0  1  0  0  0  0  0  0  0  0  0
  -25.1970  -31.4050   26.1930 C   0  0  0  0  0  1  0  0  0  0  0  0
  -26.8710  -30.2190   24.7690 C   0  0  0  0  0  1  0  0  0  0  0  0
  -27.4780  -32.3710   25.8410 C   0  0  0  0  0  1  0  0  0  0  0  0
  1  2  2  0
  1  3  1  0
  2  6  1  0
  3  7  2  0
  4  5  1  0
  6  4  2  0
  7  4  1  0
  8  2  1  0
  8 22  1  0
  9 21  1  0
 10 15  1  0
 11 12  1  0
 11 10  1  0
 13 12  1  0
 13 27  1  0
 13 14  1  0
 15  9  1  0
 15 14  1  0
 16  9  2  0
 18 20  1  0
 18 21  1  0
 19 17  1  0
 20 22  1  0
 21 17  1  0
 22 19  1  0
 22 23  1  1
 24 25  2  0
 25 44  1  0
 26 25  1  0
 26 29  1  0
 27 28  1  0
 27 24  1  0
 28 26  2  0
 29 30  1  0
 30 31  2  0
 32 35  1  0
 32 31  1  0
 33 32  2  0
 34 33  1  0
 34 29  2  0
 35 36  1  0
 36 41  2  0
 36 37  1  0
 37 38  2  0
 38 39  1  0
 39 43  1  0
 40 39  2  0
 41 40  1  0
 42 41  1  0
 44 45  1  0
 45 48  1  0
 45 47  1  0
 46 44  2  0
 49 50  1  0
 49 24  1  0
 51 49  1  0
 52 53  1  0
 52  3  1  0
 54 65  2  0
 55 53  1  0
 55 60  1  0
 56 64  1  0
 56 66  1  0
 57 63  1  0
 57 59  1  0
 58 64  1  0
 59 60  2  0
 59 58  1  0
 61 62  1  0
 61 55  2  0
 62 57  2  0
 63 56  1  0
 64 54  1  0
 66 68  2  0
 67 66  1  0
 69 67  1  0
 70 79  2  0
 70 75  1  0
 71 67  1  0
 71 75  1  0
 72 71  1  0
 73 74  1  0
 73 72  1  0
 74 70  1  0
 75 76  2  0
 76 77  1  0
 78 77  2  0
 79 78  1  0
 80 54  1  0
 80 81  1  0
 80 90  1  0
 81 84  1  0
 82 86  1  0
 82 81  1  0
 83 82  2  0
 86 85  1  0
 88 86  1  0
 88 89  1  0
 88 87  1  0
 90 93  1  1
 90 91  1  0
 92 90  1  0
M  ISO  4   9 100  21 100  52 101  53 101
M  END
>  <TORSDO>  (22) 
F 18

>  <SCORE>  (22) 
-14.317

>  <name>  (22) 
21

>  <ligand_id>  (22) 
21

>  <original_smiles>  (22) 
[H]c1c(C([H])([H])Oc2c([H])c([H])c3c(c2[H])C([H])([H])N(C(=O)C([H])(N([H])C(=O)C([H])(N([H])C([H])([H])[H])C([H])([H])[H])C(C([H])([H])[H])(C([H])([H])[H])C([H])([H])[H])C([H])(C(=O)N([H])C2([H])c4c([H])c([H])c([H])c([H])c4C([H])([H])C([H])([H])C2([H])[H])C3([H])[H])nc(C([H])([H])[H])nc1C([H])([H])[N+]1([H])C([H])([H])C([H])([H])N(C(=O)N2C([H])([H])C([H])([H])C([H])([H])C([H])(n3nc(-c4c([H])c([H])c(Oc5c([H])c([H])c(F)c([H])c5F)c([H])c4[H])c(C(=O)N([H])[H])c3N([H])[H])C2([H])[H])C([H])([H])C1([H])[H]

>  <smiles>  (22) 
[H]c1c(C([H])([H])Oc2c([H])c([H])c3c(c2[H])C([H])([H])N(C(=O)C([H])(N([H])C(=O)C([H])(N([H])C([H])([H])[H])C([H])([H])[H])C(C([H])([H])[H])(C([H])([H])[H])C([H])([H])[H])C([H])(C(=O)N([H])C2([H])c4c([H])c([H])c([H])c([H])c4C([H])([H])C([H])([H])C2([H])[H])C3([H])[H])nc(C([H])([H])[H])nc1C([H])([H])[N+]1([H])C([H])([H])C([H])([H])N(C(=O)N2C([H])([H])C([H])([H])C([H])([H])C([H])(n3nc(-c4c([H])c([H])c(Oc5c([H])c([H])c(F)c([H])c5F)c([H])c4[H])c(C(=O)N([H])[H])c3N([H])[H])C2([H])[H])C([H])([H])C1([H])[H]

$$$$
22:0:0
     RDKit          3D

 89 98  0  0  1  0  0  0  0  0999 V2000
  -29.4630  -22.2150   18.9470 C   0  0  0  0  0  2  0  0  0  0  0  0
  -28.6770  -22.9570   19.9060 C   0  0  0  0  0  0  0  0  0  0  0  0
  -28.2930  -21.9820   20.8630 C   0  0  0  0  0  0  0  0  0  0  0  0
  -29.4290  -19.9550   20.0110 C   0  0  0  0  0  0  0  0  0  0  0  0
  -27.2770  -22.6410   21.7760 C   0  0  0  0  0  2  0  0  0  0  0  0
  -27.1510  -24.1600   21.3570 C   0  0  0  0  0  2  0  0  0  0  0  0
  -27.8270  -24.4460   19.9810 C   0  0  0  0  0  3  0  0  0  0  0  0
  -29.8200  -20.8380   19.0270 N   0  0  0  0  0  0  0  0  0  0  0  0
  -28.6520  -20.6030   20.9510 N   0  0  0  0  0  2  0  0  0  0  0  0
  -28.1840  -26.0510   19.9220 O   0  0  0  0  0  0  0  0  0  0  0  0
  -24.6450  -31.8890   23.1810 C   0  0  0  0  0  0  0  0  0  0  0  0
  -27.1780  -27.1530   19.9400 C   0  0  0  0  0  0  0  0  0  0  0  0
  -23.4370  -30.5620   21.4980 C   0  0  0  0  0  3  0  0  0  0  0  0
  -24.8750  -29.0250   19.9970 C   0  0  0  0  0  0  0  0  0  0  0  0
  -26.0020  -30.7870   21.3340 C   0  0  0  0  0  2  0  0  0  0  0  0
  -26.0690  -29.4060   20.6210 C   0  0  0  0  0  0  0  0  0  0  0  0
  -27.2170  -28.4940   20.5690 C   0  0  0  0  0  3  0  0  0  0  0  0
  -25.9520  -26.9300   19.2710 C   0  0  0  0  0  3  0  0  0  0  0  0
  -24.8400  -27.8080   19.3020 C   0  0  0  0  0  3  0  0  0  0  0  0
  -23.6540  -29.9400   20.0910 C   0  0  0  0  0  2  0  0  0  0  0  0
  -24.7160  -31.1020   22.0580 N   0  0  0  0  0  0  0  0  0  0  0  0
  -23.5610  -32.1540   23.7250 O   0  0  0  0  0  0  0  0  0  0  0  0
  -22.7550  -29.5220   22.4260 C   0  0  0  0  0  0  0  0  0  0  0  0
  -21.4250  -29.3510   22.2990 N   0  0  0  0  0  0  0  0  0  0  0  0
  -23.4280  -28.8700   23.2270 O   0  0  0  0  0  0  0  0  0  0  0  0
  -20.9350  -29.9310   21.6320 H   0  0  0  0  0  0  0  0  0  0  0  0
  -18.0460  -28.1340   22.8090 C   0  0  0  0  0  0  0  0  0  0  0  0
  -20.6120  -28.3790   23.0370 C   0  0  0  0  0  3  0  0  0  0  0  0
  -20.6960  -26.9770   22.3890 C   0  0  0  0  0  2  0  0  0  0  0  0
  -19.5730  -26.7110   21.3800 C   0  0  0  0  0  2  0  0  0  0  0  0
  -18.2050  -26.8220   22.0590 C   0  0  0  0  0  2  0  0  0  0  0  0
  -19.1750  -28.8720   23.2540 C   0  0  0  0  0  0  0  0  0  0  0  0
  -18.9690  -30.0990   23.9200 C   0  0  0  0  0  3  0  0  0  0  0  0
  -17.6680  -30.5900   24.1430 C   0  0  0  0  0  3  0  0  0  0  0  0
  -16.5550  -29.8480   23.7120 C   0  0  0  0  0  3  0  0  0  0  0  0
  -16.7450  -28.6210   23.0500 C   0  0  0  0  0  3  0  0  0  0  0  0
  -25.9220  -32.5060   23.8280 C   0  0  0  0  0  3  0  0  0  0  0  0
  -25.6190  -33.9030   24.1840 N   0  0  0  0  0  0  0  0  0  0  0  0
  -25.9270  -34.9710   23.4340 C   0  0  0  0  0  0  0  0  0  0  0  0
  -26.5630  -34.8820   22.3810 O   0  0  0  0  0  0  0  0  0  0  0  0
  -25.0540  -34.0460   25.0080 H   0  0  0  0  0  0  0  0  0  0  0  0
  -24.1840  -36.7710   23.1830 C   0  0  0  0  0  1  0  0  0  0  0  0
  -25.4620  -36.3550   23.9320 C   0  0  0  0  0  3  0  0  0  0  0  0
  -27.6240  -37.2450   24.6840 C   0  0  0  0  0  1  0  0  0  0  0  0
  -26.4870  -37.4120   23.7820 N   0  0  0  0  0  0  0  0  0  0  0  0
  -26.0840  -38.3300   23.9460 H   0  0  0  0  0  0  0  0  0  0  0  0
  -26.4110  -31.7150   25.1050 C   0  0  1  0  0  0  0  0  0  0  0  0
  -25.3000  -31.4780   26.1550 C   0  0  0  0  0  1  0  0  0  0  0  0
  -26.9870  -30.3360   24.7130 C   0  0  0  0  0  1  0  0  0  0  0  0
  -27.5610  -32.4900   25.7910 C   0  0  0  0  0  1  0  0  0  0  0  0
  -30.1990  -18.3890   20.1920 C   0  0  0  0  0  2  0  0  0  0  0  0
  -30.5420  -15.5040   20.0800 C   0  0  0  0  0  0  0  0  0  0  0  0
  -30.5090  -13.0610   19.2090 C   0  0  0  0  0  2  0  0  0  0  0  0
  -29.5520  -12.8230   18.0130 C   0  0  0  0  0  2  0  0  0  0  0  0
  -28.1240  -12.5350   18.5040 C   0  0  0  0  0  2  0  0  0  0  0  0
  -27.6920  -13.5010   19.6350 C   0  0  0  0  0  3  0  0  0  0  0  0
  -28.7740  -13.6840   20.7210 C   0  0  0  0  0  2  0  0  0  0  0  0
  -29.9730  -14.2000   20.0400 N   0  0  0  0  0  0  0  0  0  0  0  0
  -31.7570  -15.5030   19.8400 O   0  0  0  0  0  0  0  0  0  0  0  0
  -29.7960  -16.7780   20.1850 N   0  0  0  0  0  0  0  0  0  0  0  0
  -28.8030  -16.6460   20.3010 H   0  0  0  0  0  0  0  0  0  0  0  0
  -25.3490  -14.0200   20.4980 C   0  0  0  0  0  0  0  0  0  0  0  0
  -24.3080  -13.2250   20.8880 C   0  0  0  0  0  0  0  0  0  0  0  0
  -24.7830  -11.8810   20.8050 C   0  0  0  0  0  0  0  0  0  0  0  0
  -26.3880  -13.1600   20.1910 N   0  0  0  0  0  0  0  0  0  0  0  0
  -26.0630  -11.8660   20.4460 N   0  0  0  0  0  0  0  0  0  0  0  0
  -24.0730  -10.6080   20.9880 C   0  0  0  0  0  0  0  0  0  0  0  0
  -24.5110   -9.6420   21.9200 C   0  0  0  0  0  3  0  0  0  0  0  0
  -23.7950   -8.4380   22.0930 C   0  0  0  0  0  3  0  0  0  0  0  0
  -22.6260   -8.1890   21.3330 C   0  0  0  0  0  0  0  0  0  0  0  0
  -22.2090   -9.1440   20.3880 C   0  0  0  0  0  3  0  0  0  0  0  0
  -22.9260  -10.3390   20.2130 C   0  0  0  0  0  3  0  0  0  0  0  0
  -21.8820   -7.0370   21.4160 O   0  0  0  0  0  0  0  0  0  0  0  0
  -21.7930   -6.3190   22.5810 C   0  0  0  0  0  0  0  0  0  0  0  0
  -21.2420   -6.8740   23.7580 C   0  0  0  0  0  3  0  0  0  0  0  0
  -21.1060   -6.0800   24.9140 C   0  0  0  0  0  3  0  0  0  0  0  0
  -21.5110   -4.7310   24.8950 C   0  0  0  0  0  0  0  0  0  0  0  0
  -22.0550   -4.1770   23.7230 C   0  0  0  0  0  3  0  0  0  0  0  0
  -22.1930   -4.9680   22.5690 C   0  0  0  0  0  0  0  0  0  0  0  0
  -22.6990   -4.4220   21.4370 F   0  0  0  0  0  0  0  0  0  0  0  0
  -21.3730   -3.9670   26.0030 F   0  0  0  0  0  0  0  0  0  0  0  0
  -22.9180  -13.6850   21.2180 C   0  0  0  0  0  0  0  0  0  0  0  0
  -22.2300  -12.9700   22.1020 N   0  0  0  0  0  0  0  0  0  0  0  0
  -22.4520  -14.7120   20.7270 O   0  0  0  0  0  0  0  0  0  0  0  0
  -22.6210  -12.1390   22.5200 H   0  0  0  0  0  0  0  0  0  0  0  0
  -21.2990  -13.2600   22.3650 H   0  0  0  0  0  0  0  0  0  0  0  0
  -25.4940  -15.3970   20.3470 N   0  0  0  0  0  0  0  0  0  0  0  0
  -24.7260  -16.0400   20.5070 H   0  0  0  0  0  0  0  0  0  0  0  0
  -26.3150  -15.8490   19.9660 H   0  0  0  0  0  0  0  0  0  0  0  0
  1  8  1  0
  1  2  1  0
  2  7  1  0
  2  3  2  0
  3  9  1  0
  3  5  1  0
  4 51  1  0
  4  9  1  0
  6  5  1  0
  7 10  1  0
  7  6  1  0
  8  4  2  0
 10 12  1  0
 11 22  2  0
 12 17  1  0
 13 21  1  0
 13 23  1  0
 14 20  1  0
 14 16  1  0
 15 21  1  0
 16 15  1  0
 17 16  2  0
 18 19  1  0
 18 12  2  0
 19 14  2  0
 20 13  1  0
 21 11  1  0
 23 25  2  0
 24 23  1  0
 26 24  1  0
 27 36  2  0
 27 32  1  0
 28 24  1  0
 28 32  1  0
 29 28  1  0
 30 31  1  0
 30 29  1  0
 31 27  1  0
 32 33  2  0
 33 34  1  0
 35 34  2  0
 36 35  1  0
 37 11  1  0
 37 38  1  0
 37 47  1  0
 38 41  1  0
 39 43  1  0
 39 38  1  0
 40 39  2  0
 43 42  1  0
 45 43  1  0
 45 46  1  0
 45 44  1  0
 47 50  1  1
 47 48  1  0
 49 47  1  0
 52 60  1  0
 53 58  1  0
 54 55  1  0
 54 53  1  0
 56 55  1  0
 56 65  1  0
 56 57  1  0
 58 52  1  0
 58 57  1  0
 59 52  2  0
 60 51  1  0
 60 61  1  0
 62 63  2  0
 63 82  1  0
 64 63  1  0
 64 67  1  0
 65 66  1  0
 65 62  1  0
 66 64  2  0
 67 68  1  0
 68 69  2  0
 70 73  1  0
 70 69  1  0
 71 70  2  0
 72 71  1  0
 72 67  2  0
 73 74  1  0
 74 75  1  0
 75 76  2  0
 77 76  1  0
 77 81  1  0
 78 77  2  0
 79 74  2  0
 79 78  1  0
 80 79  1  0
 82 83  1  0
 83 86  1  0
 83 85  1  0
 84 82  2  0
 87 62  1  0
 87 88  1  0
 89 87  1  0
M  ISO  4   7 101  10 101  52 100  60 100
M  END
>  <TORSDO>  (23) 
F 17

>  <SCORE>  (23) 
-15.593

>  <name>  (23) 
22

>  <ligand_id>  (23) 
22

>  <original_smiles>  (23) 
[H]c1nc(C([H])([H])N([H])C(=O)N2C([H])([H])C([H])([H])C([H])([H])C([H])(n3nc(-c4c([H])c([H])c(Oc5c([H])c([H])c(F)c([H])c5F)c([H])c4[H])c(C(=O)N([H])[H])c3N([H])[H])C2([H])[H])nc2c1C([H])(Oc1c([H])c([H])c3c(c1[H])C([H])([H])N(C(=O)C([H])(N([H])C(=O)C([H])(N([H])C([H])([H])[H])C([H])([H])[H])C(C([H])([H])[H])(C([H])([H])[H])C([H])([H])[H])C([H])(C(=O)N([H])C1([H])c4c([H])c([H])c([H])c([H])c4C([H])([H])C([H])([H])C1([H])[H])C3([H])[H])C([H])([H])C2([H])[H]

>  <smiles>  (23) 
[H]c1nc(C([H])([H])N([H])C(=O)N2C([H])([H])C([H])([H])C([H])([H])C([H])(n3nc(-c4c([H])c([H])c(Oc5c([H])c([H])c(F)c([H])c5F)c([H])c4[H])c(C(=O)N([H])[H])c3N([H])[H])C2([H])[H])nc2c1C([H])(Oc1c([H])c([H])c3c(c1[H])C([H])([H])N(C(=O)C([H])(N([H])C(=O)C([H])(N([H])C([H])([H])[H])C([H])([H])[H])C(C([H])([H])[H])(C([H])([H])[H])C([H])([H])[H])C([H])(C(=O)N([H])C1([H])c4c([H])c([H])c([H])c([H])c4C([H])([H])C([H])([H])C1([H])[H])C3([H])[H])C([H])([H])C2([H])[H]

$$$$
23:0:0
     RDKit          3D

 90 99  0  0  1  0  0  0  0  0999 V2000
  -28.8280  -20.6210   21.1480 C   0  0  0  0  0  3  0  0  0  0  0  0
  -29.4280  -19.8560   20.0760 C   0  0  0  0  0  0  0  0  0  0  0  0
  -28.4650  -22.0610   21.0590 C   0  0  0  0  0  0  0  0  0  0  0  0
  -29.6160  -20.7750   19.0030 C   0  0  0  0  0  0  0  0  0  0  0  0
  -28.6810  -22.9310   19.9010 C   0  0  0  0  0  0  0  0  0  0  0  0
  -30.3570  -20.0290   17.9120 C   0  0  0  0  0  2  0  0  0  0  0  0
  -30.4750  -18.5160   18.3430 C   0  0  0  0  0  2  0  0  0  0  0  0
  -30.1580  -18.3180   19.8580 C   0  0  0  0  0  3  0  0  0  0  0  0
  -27.7810  -22.6640   22.2730 C   0  0  0  0  0  1  0  0  0  0  0  0
  -29.2710  -22.1530   18.8910 N   0  0  0  0  0  0  0  0  0  0  0  0
  -30.5550  -15.4440   20.0570 C   0  0  0  0  0  0  0  0  0  0  0  0
  -30.4980  -12.9930   19.2330 C   0  0  0  0  0  2  0  0  0  0  0  0
  -29.5650  -12.7850   18.0140 C   0  0  0  0  0  2  0  0  0  0  0  0
  -28.1200  -12.5310   18.4730 C   0  0  0  0  0  2  0  0  0  0  0  0
  -27.6860  -13.5070   19.5950 C   0  0  0  0  0  3  0  0  0  0  0  0
  -28.7490  -13.6670   20.7040 C   0  0  0  0  0  2  0  0  0  0  0  0
  -29.9760  -14.1460   20.0500 N   0  0  0  0  0  0  0  0  0  0  0  0
  -31.7650  -15.4340   19.7910 O   0  0  0  0  0  0  0  0  0  0  0  0
  -29.8130  -16.7210   20.1530 N   0  0  0  0  0  0  0  0  0  0  0  0
  -28.8400  -16.5680   20.3730 H   0  0  0  0  0  0  0  0  0  0  0  0
  -25.3300  -14.0700   20.3910 C   0  0  0  0  0  0  0  0  0  0  0  0
  -24.2720  -13.2960   20.7770 C   0  0  0  0  0  0  0  0  0  0  0  0
  -24.7350  -11.9440   20.7350 C   0  0  0  0  0  0  0  0  0  0  0  0
  -26.3660  -13.1940   20.1260 N   0  0  0  0  0  0  0  0  0  0  0  0
  -26.0220  -11.9080   20.4020 N   0  0  0  0  0  0  0  0  0  0  0  0
  -24.0080  -10.6840   20.9340 C   0  0  0  0  0  0  0  0  0  0  0  0
  -24.4260   -9.7290   21.8880 C   0  0  0  0  0  3  0  0  0  0  0  0
  -23.6960   -8.5360   22.0750 C   0  0  0  0  0  3  0  0  0  0  0  0
  -22.5320   -8.2880   21.3090 C   0  0  0  0  0  0  0  0  0  0  0  0
  -22.1330   -9.2300   20.3450 C   0  0  0  0  0  3  0  0  0  0  0  0
  -22.8640  -10.4150   20.1560 C   0  0  0  0  0  3  0  0  0  0  0  0
  -21.7740   -7.1450   21.4030 O   0  0  0  0  0  0  0  0  0  0  0  0
  -21.6820   -6.4390   22.5760 C   0  0  0  0  0  0  0  0  0  0  0  0
  -21.1490   -7.0120   23.7520 C   0  0  0  0  0  3  0  0  0  0  0  0
  -21.0070   -6.2300   24.9140 C   0  0  0  0  0  3  0  0  0  0  0  0
  -21.3880   -4.8750   24.9040 C   0  0  0  0  0  0  0  0  0  0  0  0
  -21.9140   -4.3010   23.7330 C   0  0  0  0  0  3  0  0  0  0  0  0
  -22.0570   -5.0800   22.5720 C   0  0  0  0  0  0  0  0  0  0  0  0
  -22.5440   -4.5170   21.4410 F   0  0  0  0  0  0  0  0  0  0  0  0
  -21.2450   -4.1210   26.0180 F   0  0  0  0  0  0  0  0  0  0  0  0
  -22.8800  -13.7760   21.0680 C   0  0  0  0  0  0  0  0  0  0  0  0
  -22.1670  -13.0910   21.9520 N   0  0  0  0  0  0  0  0  0  0  0  0
  -22.4360  -14.7960   20.5420 O   0  0  0  0  0  0  0  0  0  0  0  0
  -22.5410  -12.2660   22.3990 H   0  0  0  0  0  0  0  0  0  0  0  0
  -21.2340  -13.3960   22.1900 H   0  0  0  0  0  0  0  0  0  0  0  0
  -25.4900  -15.4420   20.2120 N   0  0  0  0  0  0  0  0  0  0  0  0
  -24.7220  -16.0920   20.3370 H   0  0  0  0  0  0  0  0  0  0  0  0
  -26.3180  -15.8790   19.8310 H   0  0  0  0  0  0  0  0  0  0  0  0
  -27.9390  -24.4890   19.5980 C   0  0  0  0  0  2  0  0  0  0  0  0
  -28.2400  -26.0590   19.9490 O   0  0  0  0  0  0  0  0  0  0  0  0
  -24.5500  -31.8140   23.1150 C   0  0  0  0  0  0  0  0  0  0  0  0
  -27.2170  -27.1390   19.9080 C   0  0  0  0  0  0  0  0  0  0  0  0
  -23.3830  -30.4470   21.4340 C   0  0  0  0  0  3  0  0  0  0  0  0
  -24.8660  -28.9440   19.9430 C   0  0  0  0  0  0  0  0  0  0  0  0
  -25.9410  -30.7410   21.2790 C   0  0  0  0  0  2  0  0  0  0  0  0
  -26.0460  -29.3610   20.5720 C   0  0  0  0  0  0  0  0  0  0  0  0
  -27.2160  -28.4780   20.5340 C   0  0  0  0  0  3  0  0  0  0  0  0
  -26.0040  -26.8770   19.2280 C   0  0  0  0  0  3  0  0  0  0  0  0
  -24.8690  -27.7240   19.2500 C   0  0  0  0  0  3  0  0  0  0  0  0
  -23.6210  -29.8230   20.0320 C   0  0  0  0  0  2  0  0  0  0  0  0
  -24.6450  -31.0260   21.9960 N   0  0  0  0  0  0  0  0  0  0  0  0
  -23.4570  -32.0540   23.6530 O   0  0  0  0  0  0  0  0  0  0  0  0
  -22.7250  -29.3950   22.3640 C   0  0  0  0  0  0  0  0  0  0  0  0
  -21.4000  -29.1930   22.2360 N   0  0  0  0  0  0  0  0  0  0  0  0
  -23.4120  -28.7640   23.1710 O   0  0  0  0  0  0  0  0  0  0  0  0
  -20.8970  -29.7550   21.5630 H   0  0  0  0  0  0  0  0  0  0  0  0
  -18.0540  -27.8780   22.7240 C   0  0  0  0  0  0  0  0  0  0  0  0
  -20.6080  -28.2060   22.9770 C   0  0  0  0  0  3  0  0  0  0  0  0
  -20.7440  -26.7990   22.3490 C   0  0  0  0  0  2  0  0  0  0  0  0
  -19.6420  -26.4840   21.3320 C   0  0  0  0  0  2  0  0  0  0  0  0
  -18.2620  -26.5630   21.9930 C   0  0  0  0  0  2  0  0  0  0  0  0
  -19.1550  -28.6570   23.1730 C   0  0  0  0  0  0  0  0  0  0  0  0
  -18.9020  -29.8850   23.8200 C   0  0  0  0  0  3  0  0  0  0  0  0
  -17.5840  -30.3380   24.0210 C   0  0  0  0  0  3  0  0  0  0  0  0
  -16.5000  -29.5560   23.5870 C   0  0  0  0  0  3  0  0  0  0  0  0
  -16.7350  -28.3280   22.9450 C   0  0  0  0  0  3  0  0  0  0  0  0
  -25.8070  -32.4680   23.7620 C   0  0  0  0  0  3  0  0  0  0  0  0
  -25.4750  -33.8660   24.0880 N   0  0  0  0  0  0  0  0  0  0  0  0
  -25.7690  -34.9240   23.3200 C   0  0  0  0  0  0  0  0  0  0  0  0
  -26.4120  -34.8270   22.2720 O   0  0  0  0  0  0  0  0  0  0  0  0
  -24.8990  -34.0130   24.9040 H   0  0  0  0  0  0  0  0  0  0  0  0
  -23.9860  -36.6790   23.0340 C   0  0  0  0  0  1  0  0  0  0  0  0
  -25.2740  -36.3080   23.7870 C   0  0  0  0  0  3  0  0  0  0  0  0
  -27.4190  -37.2610   24.5130 C   0  0  0  0  0  1  0  0  0  0  0  0
  -26.2750  -37.3830   23.6130 N   0  0  0  0  0  0  0  0  0  0  0  0
  -25.8530  -38.2960   23.7600 H   0  0  0  0  0  0  0  0  0  0  0  0
  -26.3000  -31.7110   25.0580 C   0  0  1  0  0  0  0  0  0  0  0  0
  -25.1840  -31.4730   26.1030 C   0  0  0  0  0  1  0  0  0  0  0  0
  -26.9040  -30.3350   24.6990 C   0  0  0  0  0  1  0  0  0  0  0  0
  -27.4290  -32.5200   25.7400 C   0  0  0  0  0  1  0  0  0  0  0  0
  2  1  2  0
  3  1  1  0
  3  9  1  0
  4  2  1  0
  5  3  2  0
  6  7  1  0
  6  4  1  0
  7  8  1  0
  8  2  1  0
  8 19  1  0
 10  4  2  0
 10  5  1  0
 11 19  1  0
 12 17  1  0
 13 14  1  0
 13 12  1  0
 15 14  1  0
 15 24  1  0
 15 16  1  0
 17 11  1  0
 17 16  1  0
 18 11  2  0
 19 20  1  0
 21 22  2  0
 22 41  1  0
 23 22  1  0
 23 26  1  0
 24 21  1  0
 24 25  1  0
 25 23  2  0
 26 27  1  0
 27 28  2  0
 29 32  1  0
 29 28  1  0
 30 29  2  0
 31 30  1  0
 31 26  2  0
 32 33  1  0
 33 34  1  0
 34 35  2  0
 36 35  1  0
 36 40  1  0
 37 36  2  0
 38 33  2  0
 38 37  1  0
 39 38  1  0
 41 42  1  0
 42 45  1  0
 42 44  1  0
 43 41  2  0
 46 47  1  0
 46 21  1  0
 48 46  1  0
 49  5  1  0
 49 50  1  0
 51 62  2  0
 52 50  1  0
 52 57  1  0
 53 61  1  0
 53 63  1  0
 54 60  1  0
 54 56  1  0
 55 61  1  0
 56 55  1  0
 57 56  2  0
 58 59  1  0
 58 52  2  0
 59 54  2  0
 60 53  1  0
 61 51  1  0
 63 65  2  0
 64 63  1  0
 66 64  1  0
 67 76  2  0
 67 72  1  0
 68 64  1  0
 68 72  1  0
 69 68  1  0
 70 71  1  0
 70 69  1  0
 71 67  1  0
 72 73  2  0
 73 74  1  0
 75 74  2  0
 76 75  1  0
 77 51  1  0
 77 78  1  0
 77 87  1  0
 78 81  1  0
 79 83  1  0
 79 78  1  0
 80 79  2  0
 83 82  1  0
 85 86  1  0
 85 83  1  0
 85 84  1  0
 87 90  1  1
 87 88  1  0
 89 87  1  0
M  ISO  4  11 100  19 100  49 101  50 101
M  END
>  <TORSDO>  (24) 
F 17

>  <SCORE>  (24) 
-15.202

>  <name>  (24) 
23

>  <ligand_id>  (24) 
23

>  <original_smiles>  (24) 
[H]c1c([H])c([H])c2c(c1[H])C([H])([H])C([H])([H])C([H])([H])C2([H])N([H])C(=O)C1([H])N(C(=O)C([H])(N([H])C(=O)C([H])(N([H])C([H])([H])[H])C([H])([H])[H])C(C([H])([H])[H])(C([H])([H])[H])C([H])([H])[H])C([H])([H])c2c([H])c(OC([H])([H])c3nc4c(c([H])c3C([H])([H])[H])C([H])(N([H])C(=O)N3C([H])([H])C([H])([H])C([H])([H])C([H])(n5nc(-c6c([H])c([H])c(Oc7c([H])c([H])c(F)c([H])c7F)c([H])c6[H])c(C(=O)N([H])[H])c5N([H])[H])C3([H])[H])C([H])([H])C4([H])[H])c([H])c([H])c2C1([H])[H]

>  <smiles>  (24) 
[H]c1c([H])c([H])c2c(c1[H])C([H])([H])C([H])([H])C([H])([H])C2([H])N([H])C(=O)C1([H])N(C(=O)C([H])(N([H])C(=O)C([H])(N([H])C([H])([H])[H])C([H])([H])[H])C(C([H])([H])[H])(C([H])([H])[H])C([H])([H])[H])C([H])([H])c2c([H])c(OC([H])([H])c3nc4c(c([H])c3C([H])([H])[H])C([H])(N([H])C(=O)N3C([H])([H])C([H])([H])C([H])([H])C([H])(n5nc(-c6c([H])c([H])c(Oc7c([H])c([H])c(F)c([H])c7F)c([H])c6[H])c(C(=O)N([H])[H])c5N([H])[H])C3([H])[H])C([H])([H])C4([H])[H])c([H])c([H])c2C1([H])[H]

$$$$
24:0:0
     RDKit          3D

 91100  0  0  1  0  0  0  0  0999 V2000
  -29.3060  -22.5150   19.6650 C   0  0  0  0  0  3  0  0  0  0  0  0
  -27.6500  -22.2970   21.7010 C   0  0  0  0  0  3  0  0  0  0  0  0
  -28.6150  -23.6970   20.1480 C   0  0  0  0  0  0  0  0  0  0  0  0
  -29.1020  -21.2250   20.2750 C   0  0  0  0  0  0  0  0  0  0  0  0
  -27.7840  -23.5280   21.1950 N   0  0  0  0  0  0  0  0  0  0  0  0
  -28.2410  -21.1650   21.3000 N   0  0  0  0  0  0  0  0  0  0  0  0
  -29.7770  -19.9940   19.8980 N   0  0  0  0  0  0  0  0  0  0  0  0
  -30.4550  -20.1190   19.1530 H   0  0  0  0  0  0  0  0  0  0  0  0
  -30.7670  -14.8660   19.9180 C   0  0  0  0  0  0  0  0  0  0  0  0
  -30.4890  -12.6080   18.8610 C   0  0  0  0  0  2  0  0  0  0  0  0
  -29.4600  -12.6980   17.7110 C   0  0  0  0  0  2  0  0  0  0  0  0
  -28.0260  -12.5160   18.2450 C   0  0  0  0  0  2  0  0  0  0  0  0
  -27.7490  -13.3680   19.5130 C   0  0  0  0  0  3  0  0  0  0  0  0
  -28.8900  -13.2370   20.5450 C   0  0  0  0  0  2  0  0  0  0  0  0
  -30.1260  -13.6410   19.8640 N   0  0  0  0  0  0  0  0  0  0  0  0
  -31.9070  -14.9490   19.4460 O   0  0  0  0  0  0  0  0  0  0  0  0
  -29.4370  -17.9850   21.5490 C   0  0  0  0  0  2  0  0  0  0  0  0
  -29.3950  -16.4280   21.4070 C   0  0  0  0  0  2  0  0  0  0  0  0
  -30.2220  -17.3750   19.4290 C   0  0  0  0  0  2  0  0  0  0  0  0
  -29.3720  -18.5370   20.1230 C   0  0  0  0  0  3  0  0  0  0  0  0
  -30.0300  -16.0440   20.1340 N   0  0  0  0  0  0  0  0  0  0  0  0
  -25.4310  -13.9420   20.4450 C   0  0  0  0  0  0  0  0  0  0  0  0
  -24.3900  -13.1610   20.8630 C   0  0  0  0  0  0  0  0  0  0  0  0
  -24.8370  -11.8090   20.7440 C   0  0  0  0  0  0  0  0  0  0  0  0
  -26.4460  -13.0670   20.0940 N   0  0  0  0  0  0  0  0  0  0  0  0
  -26.0990  -11.7760   20.3350 N   0  0  0  0  0  0  0  0  0  0  0  0
  -24.1150  -10.5460   20.9390 C   0  0  0  0  0  0  0  0  0  0  0  0
  -24.5550   -9.5790   21.8710 C   0  0  0  0  0  3  0  0  0  0  0  0
  -23.8330   -8.3810   22.0550 C   0  0  0  0  0  3  0  0  0  0  0  0
  -22.6560   -8.1390   21.3080 C   0  0  0  0  0  0  0  0  0  0  0  0
  -22.2340   -9.0930   20.3650 C   0  0  0  0  0  3  0  0  0  0  0  0
  -22.9580  -10.2830   20.1780 C   0  0  0  0  0  3  0  0  0  0  0  0
  -21.9040   -6.9920   21.4010 O   0  0  0  0  0  0  0  0  0  0  0  0
  -21.7870   -6.3030   22.5820 C   0  0  0  0  0  0  0  0  0  0  0  0
  -21.2760   -6.9080   23.7510 C   0  0  0  0  0  3  0  0  0  0  0  0
  -21.1080   -6.1450   24.9220 C   0  0  0  0  0  3  0  0  0  0  0  0
  -21.4390   -4.7760   24.9250 C   0  0  0  0  0  0  0  0  0  0  0  0
  -21.9430   -4.1710   23.7610 C   0  0  0  0  0  3  0  0  0  0  0  0
  -22.1120   -4.9320   22.5910 C   0  0  0  0  0  0  0  0  0  0  0  0
  -22.5770   -4.3390   21.4650 F   0  0  0  0  0  0  0  0  0  0  0  0
  -21.2710   -4.0400   26.0480 F   0  0  0  0  0  0  0  0  0  0  0  0
  -23.0230  -13.6360   21.2610 C   0  0  0  0  0  0  0  0  0  0  0  0
  -22.3640  -12.9210   22.1650 N   0  0  0  0  0  0  0  0  0  0  0  0
  -22.5490  -14.6760   20.8030 O   0  0  0  0  0  0  0  0  0  0  0  0
  -22.7610  -12.0800   22.5560 H   0  0  0  0  0  0  0  0  0  0  0  0
  -21.4500  -13.2210   22.4740 H   0  0  0  0  0  0  0  0  0  0  0  0
  -25.5940  -15.3180   20.3110 N   0  0  0  0  0  0  0  0  0  0  0  0
  -24.8480  -15.9730   20.5190 H   0  0  0  0  0  0  0  0  0  0  0  0
  -26.4290  -15.7670   19.9550 H   0  0  0  0  0  0  0  0  0  0  0  0
  -28.6430  -25.1450   19.4480 C   0  0  0  0  0  2  0  0  0  0  0  0
  -28.4630  -26.4610   20.1750 O   0  0  0  0  0  0  0  0  0  0  0  0
  -24.6360  -31.8650   23.1430 C   0  0  0  0  0  0  0  0  0  0  0  0
  -27.3380  -27.3190   20.0680 C   0  0  0  0  0  0  0  0  0  0  0  0
  -23.4740  -30.4750   21.4660 C   0  0  0  0  0  3  0  0  0  0  0  0
  -24.9620  -28.9520   20.0360 C   0  0  0  0  0  0  0  0  0  0  0  0
  -26.0170  -30.8060   21.3310 C   0  0  0  0  0  2  0  0  0  0  0  0
  -26.1190  -29.4330   20.6620 C   0  0  0  0  0  0  0  0  0  0  0  0
  -27.3040  -28.6270   20.6680 C   0  0  0  0  0  3  0  0  0  0  0  0
  -26.1540  -26.9030   19.4210 C   0  0  0  0  0  3  0  0  0  0  0  0
  -24.9870  -27.6970   19.4060 C   0  0  0  0  0  3  0  0  0  0  0  0
  -23.7170  -29.8180   20.0800 C   0  0  0  0  0  2  0  0  0  0  0  0
  -24.7270  -31.0680   22.0360 N   0  0  0  0  0  0  0  0  0  0  0  0
  -23.5410  -32.1250   23.6630 O   0  0  0  0  0  0  0  0  0  0  0  0
  -22.8050  -29.4420   22.4040 C   0  0  0  0  0  0  0  0  0  0  0  0
  -21.4800  -29.2610   22.2620 N   0  0  0  0  0  0  0  0  0  0  0  0
  -23.4770  -28.8070   23.2210 O   0  0  0  0  0  0  0  0  0  0  0  0
  -20.9960  -29.8260   21.5790 H   0  0  0  0  0  0  0  0  0  0  0  0
  -18.1040  -28.0390   22.7140 C   0  0  0  0  0  0  0  0  0  0  0  0
  -20.6590  -28.3060   23.0090 C   0  0  0  0  0  3  0  0  0  0  0  0
  -20.7720  -26.8860   22.4090 C   0  0  0  0  0  2  0  0  0  0  0  0
  -19.6810  -26.5760   21.3800 C   0  0  0  0  0  2  0  0  0  0  0  0
  -18.2930  -26.7030   22.0150 C   0  0  0  0  0  2  0  0  0  0  0  0
  -19.2160  -28.7990   23.1670 C   0  0  0  0  0  0  0  0  0  0  0  0
  -18.9850  -30.0480   23.7810 C   0  0  0  0  0  3  0  0  0  0  0  0
  -17.6770  -30.5390   23.9470 C   0  0  0  0  0  3  0  0  0  0  0  0
  -16.5790  -29.7770   23.5100 C   0  0  0  0  0  3  0  0  0  0  0  0
  -16.7940  -28.5290   22.9000 C   0  0  0  0  0  3  0  0  0  0  0  0
  -25.9000  -32.5050   23.7940 C   0  0  0  0  0  3  0  0  0  0  0  0
  -25.5650  -33.8920   24.1480 N   0  0  0  0  0  0  0  0  0  0  0  0
  -25.8850  -34.9670   23.4140 C   0  0  0  0  0  0  0  0  0  0  0  0
  -26.5630  -34.8940   22.3850 O   0  0  0  0  0  0  0  0  0  0  0  0
  -24.9660  -34.0230   24.9500 H   0  0  0  0  0  0  0  0  0  0  0  0
  -24.1310  -36.7400   23.0870 C   0  0  0  0  0  1  0  0  0  0  0  0
  -25.3750  -36.3380   23.8960 C   0  0  0  0  0  3  0  0  0  0  0  0
  -27.4890  -37.2440   24.7560 C   0  0  0  0  0  1  0  0  0  0  0  0
  -26.3910  -37.4100   23.8070 N   0  0  0  0  0  0  0  0  0  0  0  0
  -25.9680  -38.3210   23.9660 H   0  0  0  0  0  0  0  0  0  0  0  0
  -26.4080  -31.7200   25.0660 C   0  0  1  0  0  0  0  0  0  0  0  0
  -25.3030  -31.4480   26.1130 C   0  0  0  0  0  1  0  0  0  0  0  0
  -27.0170  -30.3570   24.6610 C   0  0  0  0  0  1  0  0  0  0  0  0
  -27.5360  -32.5200   25.7600 C   0  0  0  0  0  1  0  0  0  0  0  0
  1  3  2  0
  1  4  1  0
  3  5  1  0
  4  6  2  0
  5  2  2  0
  6  2  1  0
  7  4  1  0
  8  7  1  0
  9 21  1  0
 10 15  1  0
 11 12  1  0
 11 10  1  0
 13 12  1  0
 13 25  1  0
 13 14  1  0
 15  9  1  0
 15 14  1  0
 16  9  2  0
 18 17  1  0
 19 20  1  0
 19 21  1  0
 20  7  1  0
 20 17  1  0
 21 18  1  0
 22 23  2  0
 23 42  1  0
 24 23  1  0
 24 27  1  0
 25 26  1  0
 25 22  1  0
 26 24  2  0
 27 28  1  0
 28 29  2  0
 30 33  1  0
 30 29  1  0
 31 30  2  0
 32 31  1  0
 32 27  2  0
 33 34  1  0
 34 39  2  0
 34 35  1  0
 35 36  2  0
 36 37  1  0
 37 41  1  0
 38 37  2  0
 39 38  1  0
 40 39  1  0
 42 43  1  0
 43 46  1  0
 43 45  1  0
 44 42  2  0
 47 22  1  0
 47 48  1  0
 49 47  1  0
 50  3  1  0
 50 51  1  0
 52 63  2  0
 53 51  1  0
 53 58  1  0
 54 62  1  0
 54 64  1  0
 55 61  1  0
 55 57  1  0
 56 62  1  0
 57 58  2  0
 57 56  1  0
 59 53  2  0
 60 59  1  0
 60 55  2  0
 61 54  1  0
 62 52  1  0
 64 66  2  0
 65 64  1  0
 67 65  1  0
 68 77  2  0
 68 73  1  0
 69 65  1  0
 69 73  1  0
 70 69  1  0
 71 72  1  0
 71 70  1  0
 72 68  1  0
 73 74  2  0
 74 75  1  0
 76 75  2  0
 77 76  1  0
 78 52  1  0
 78 79  1  0
 78 88  1  0
 79 82  1  0
 80 84  1  0
 80 79  1  0
 81 80  2  0
 84 83  1  0
 86 84  1  0
 86 87  1  0
 86 85  1  0
 88 91  1  1
 88 89  1  0
 90 88  1  0
M  ISO  4   9 100  21 100  50 101  51 101
M  END
>  <TORSDO>  (25) 
F 17

>  <SCORE>  (25) 
-14.238

>  <name>  (25) 
24

>  <ligand_id>  (25) 
24

>  <original_smiles>  (25) 
[H]c1nc(N([H])C2([H])C([H])([H])N(C(=O)N3C([H])([H])C([H])([H])C([H])([H])C([H])(n4nc(-c5c([H])c([H])c(Oc6c([H])c([H])c(F)c([H])c6F)c([H])c5[H])c(C(=O)N([H])[H])c4N([H])[H])C3([H])[H])C([H])([H])C2([H])[H])c([H])c(C([H])([H])Oc2c([H])c([H])c3c(c2[H])C([H])([H])N(C(=O)C([H])(N([H])C(=O)C([H])(N([H])C([H])([H])[H])C([H])([H])[H])C(C([H])([H])[H])(C([H])([H])[H])C([H])([H])[H])C([H])(C(=O)N([H])C2([H])c4c([H])c([H])c([H])c([H])c4C([H])([H])C([H])([H])C2([H])[H])C3([H])[H])n1

>  <smiles>  (25) 
[H]c1nc(N([H])C2([H])C([H])([H])N(C(=O)N3C([H])([H])C([H])([H])C([H])([H])C([H])(n4nc(-c5c([H])c([H])c(Oc6c([H])c([H])c(F)c([H])c6F)c([H])c5[H])c(C(=O)N([H])[H])c4N([H])[H])C3([H])[H])C([H])([H])C2([H])[H])c([H])c(C([H])([H])Oc2c([H])c([H])c3c(c2[H])C([H])([H])N(C(=O)C([H])(N([H])C(=O)C([H])(N([H])C([H])([H])[H])C([H])([H])[H])C(C([H])([H])[H])(C([H])([H])[H])C([H])([H])[H])C([H])(C(=O)N([H])C2([H])c4c([H])c([H])c([H])c([H])c4C([H])([H])C([H])([H])C2([H])[H])C3([H])[H])n1

$$$$
25:0:0
     RDKit          3D

 93102  0  0  1  0  0  0  0  0999 V2000
  -29.9440  -22.5360   19.2600 C   0  0  0  0  0  3  0  0  0  0  0  0
  -29.9490  -21.5300   20.2720 C   0  0  0  0  0  0  0  0  0  0  0  0
  -28.8490  -23.0420   21.6610 C   0  0  0  0  0  0  0  0  0  0  0  0
  -28.8800  -24.0640   20.6590 C   0  0  0  0  0  0  0  0  0  0  0  0
  -28.2330  -23.2990   23.0220 C   0  0  0  0  0  1  0  0  0  0  0  0
  -29.4180  -23.7870   19.4420 N   0  0  0  0  0  0  0  0  0  0  0  0
  -29.3780  -21.7940   21.4750 N   0  0  0  0  0  0  0  0  0  0  0  0
  -30.7660  -20.2140   20.1040 C   0  0  0  0  0  2  0  0  0  0  0  0
  -30.7920  -14.6950   20.1810 C   0  0  0  0  0  0  0  0  0  0  0  0
  -30.4930  -12.4950   19.0730 C   0  0  0  0  0  2  0  0  0  0  0  0
  -29.5070  -12.6560   17.8950 C   0  0  0  0  0  2  0  0  0  0  0  0
  -28.0500  -12.4990   18.3740 C   0  0  0  0  0  2  0  0  0  0  0  0
  -27.7400  -13.3390   19.6430 C   0  0  0  0  0  3  0  0  0  0  0  0
  -28.8410  -13.1730   20.7150 C   0  0  0  0  0  2  0  0  0  0  0  0
  -30.1280  -13.5030   20.0860 N   0  0  0  0  0  0  0  0  0  0  0  0
  -31.9550  -14.8240   19.7950 O   0  0  0  0  0  0  0  0  0  0  0  0
  -30.1990  -16.6350   21.6690 C   0  0  0  0  0  2  0  0  0  0  0  0
  -29.4210  -16.6010   19.3580 C   0  0  0  0  0  2  0  0  0  0  0  0
  -30.7830  -18.0750   21.4420 C   0  0  0  0  0  2  0  0  0  0  0  0
  -30.0380  -18.0180   19.1320 C   0  0  0  0  0  2  0  0  0  0  0  0
  -30.0350  -15.8100   20.4500 N   0  0  0  0  0  0  0  0  0  0  0  0
  -30.1160  -18.8660   20.3590 N   0  0  2  0  0  4  0  0  0  0  0  0
  -29.1750  -19.0710   20.6620 H   0  0  0  0  0  0  0  0  0  0  0  0
  -25.3770  -13.9350   20.4550 C   0  0  0  0  0  0  0  0  0  0  0  0
  -24.3200  -13.1600   20.8490 C   0  0  0  0  0  0  0  0  0  0  0  0
  -24.7770  -11.8090   20.7830 C   0  0  0  0  0  0  0  0  0  0  0  0
  -26.4090  -13.0550   20.1710 N   0  0  0  0  0  0  0  0  0  0  0  0
  -26.0550  -11.7690   20.4280 N   0  0  0  0  0  0  0  0  0  0  0  0
  -24.0530  -10.5460   20.9790 C   0  0  0  0  0  0  0  0  0  0  0  0
  -24.4940   -9.5790   21.9080 C   0  0  0  0  0  3  0  0  0  0  0  0
  -23.7720   -8.3790   22.0930 C   0  0  0  0  0  3  0  0  0  0  0  0
  -22.5930   -8.1410   21.3480 C   0  0  0  0  0  0  0  0  0  0  0  0
  -22.1720   -9.0950   20.4060 C   0  0  0  0  0  3  0  0  0  0  0  0
  -22.8940  -10.2840   20.2200 C   0  0  0  0  0  3  0  0  0  0  0  0
  -21.8390   -6.9960   21.4430 O   0  0  0  0  0  0  0  0  0  0  0  0
  -21.7760   -6.2680   22.6040 C   0  0  0  0  0  0  0  0  0  0  0  0
  -21.3050   -6.8310   23.8100 C   0  0  0  0  0  3  0  0  0  0  0  0
  -21.1950   -6.0290   24.9640 C   0  0  0  0  0  3  0  0  0  0  0  0
  -21.5410   -4.6660   24.9110 C   0  0  0  0  0  0  0  0  0  0  0  0
  -22.0020   -4.1030   23.7080 C   0  0  0  0  0  3  0  0  0  0  0  0
  -22.1170   -4.9020   22.5570 C   0  0  0  0  0  0  0  0  0  0  0  0
  -22.5430   -4.3480   21.3960 F   0  0  0  0  0  0  0  0  0  0  0  0
  -21.4270   -3.8940   26.0160 F   0  0  0  0  0  0  0  0  0  0  0  0
  -22.9350  -13.6380   21.1720 C   0  0  0  0  0  0  0  0  0  0  0  0
  -22.2320  -12.9320   22.0490 N   0  0  0  0  0  0  0  0  0  0  0  0
  -22.4860  -14.6720   20.6810 O   0  0  0  0  0  0  0  0  0  0  0  0
  -22.6110  -12.0930   22.4680 H   0  0  0  0  0  0  0  0  0  0  0  0
  -21.3010  -13.2300   22.3060 H   0  0  0  0  0  0  0  0  0  0  0  0
  -25.5420  -15.3070   20.2950 N   0  0  0  0  0  0  0  0  0  0  0  0
  -24.7810  -15.9640   20.4420 H   0  0  0  0  0  0  0  0  0  0  0  0
  -26.3890  -15.7440   19.9600 H   0  0  0  0  0  0  0  0  0  0  0  0
  -28.2700  -25.4710   20.9540 C   0  0  0  0  0  2  0  0  0  0  0  0
  -28.4640  -26.5900   20.0340 O   0  0  0  0  0  0  0  0  0  0  0  0
  -24.6100  -31.7990   23.1340 C   0  0  0  0  0  0  0  0  0  0  0  0
  -27.3560  -27.4250   19.9950 C   0  0  0  0  0  0  0  0  0  0  0  0
  -23.4480  -30.3980   21.4600 C   0  0  0  0  0  3  0  0  0  0  0  0
  -24.9480  -28.9240   20.0110 C   0  0  0  0  0  0  0  0  0  0  0  0
  -25.9740  -30.8100   21.2870 C   0  0  0  0  0  2  0  0  0  0  0  0
  -26.0970  -29.4500   20.6190 C   0  0  0  0  0  0  0  0  0  0  0  0
  -27.3120  -28.7070   20.6070 C   0  0  0  0  0  3  0  0  0  0  0  0
  -26.1930  -26.9420   19.3590 C   0  0  0  0  0  3  0  0  0  0  0  0
  -24.9940  -27.6760   19.3750 C   0  0  0  0  0  3  0  0  0  0  0  0
  -23.6830  -29.7530   20.0690 C   0  0  0  0  0  2  0  0  0  0  0  0
  -24.6950  -31.0170   22.0180 N   0  0  0  0  0  0  0  0  0  0  0  0
  -23.5190  -32.0380   23.6700 O   0  0  0  0  0  0  0  0  0  0  0  0
  -22.8130  -29.3450   22.4000 C   0  0  0  0  0  0  0  0  0  0  0  0
  -21.4930  -29.1340   22.2630 N   0  0  0  0  0  0  0  0  0  0  0  0
  -23.5070  -28.7230   23.2080 O   0  0  0  0  0  0  0  0  0  0  0  0
  -20.9930  -29.6900   21.5840 H   0  0  0  0  0  0  0  0  0  0  0  0
  -18.1440  -27.8450   22.7140 C   0  0  0  0  0  0  0  0  0  0  0  0
  -20.6940  -28.1620   23.0110 C   0  0  0  0  0  3  0  0  0  0  0  0
  -20.8360  -26.7450   22.4110 C   0  0  0  0  0  2  0  0  0  0  0  0
  -19.7510  -26.4130   21.3830 C   0  0  0  0  0  2  0  0  0  0  0  0
  -18.3610  -26.5130   22.0170 C   0  0  0  0  0  2  0  0  0  0  0  0
  -19.2410  -28.6280   23.1670 C   0  0  0  0  0  0  0  0  0  0  0  0
  -18.9860  -29.8750   23.7760 C   0  0  0  0  0  3  0  0  0  0  0  0
  -17.6680  -30.3440   23.9360 C   0  0  0  0  0  3  0  0  0  0  0  0
  -16.5870  -29.5560   23.5050 C   0  0  0  0  0  3  0  0  0  0  0  0
  -16.8260  -28.3090   22.8990 C   0  0  0  0  0  3  0  0  0  0  0  0
  -25.8760  -32.4530   23.7720 C   0  0  0  0  0  3  0  0  0  0  0  0
  -25.5330  -33.8370   24.1250 N   0  0  0  0  0  0  0  0  0  0  0  0
  -25.8430  -34.9110   23.3850 C   0  0  0  0  0  0  0  0  0  0  0  0
  -26.5200  -34.8430   22.3550 O   0  0  0  0  0  0  0  0  0  0  0  0
  -24.9300  -33.9630   24.9240 H   0  0  0  0  0  0  0  0  0  0  0  0
  -24.0800  -36.6720   23.0410 C   0  0  0  0  0  1  0  0  0  0  0  0
  -25.3170  -36.2780   23.8630 C   0  0  0  0  0  3  0  0  0  0  0  0
  -27.4180  -37.1910   24.7470 C   0  0  0  0  0  1  0  0  0  0  0  0
  -26.3250  -37.3590   23.7930 N   0  0  0  0  0  0  0  0  0  0  0  0
  -25.8930  -38.2630   23.9640 H   0  0  0  0  0  0  0  0  0  0  0  0
  -26.4070  -31.6730   25.0370 C   0  0  1  0  0  0  0  0  0  0  0  0
  -25.3160  -31.3890   26.0960 C   0  0  0  0  0  1  0  0  0  0  0  0
  -27.0240  -30.3160   24.6230 C   0  0  0  0  0  1  0  0  0  0  0  0
  -27.5340  -32.4820   25.7210 C   0  0  0  0  0  1  0  0  0  0  0  0
  1  6  2  0
  1  2  1  0
  2  7  2  0
  3  5  1  0
  4 52  1  0
  4  3  2  0
  6  4  1  0
  7  3  1  0
  8  2  1  0
  8 22  1  0
  9 21  1  0
 10 15  1  0
 11 12  1  0
 11 10  1  0
 13 12  1  0
 13 27  1  0
 13 14  1  0
 15  9  1  0
 15 14  1  0
 16  9  2  0
 18 21  1  0
 19 17  1  0
 20 18  1  0
 20 22  1  0
 21 17  1  0
 22 23  1  1
 22 19  1  0
 24 25  2  0
 25 44  1  0
 26 25  1  0
 26 29  1  0
 27 28  1  0
 27 24  1  0
 28 26  2  0
 29 30  1  0
 30 31  2  0
 32 35  1  0
 32 31  1  0
 33 32  2  0
 34 33  1  0
 34 29  2  0
 35 36  1  0
 36 37  1  0
 37 38  2  0
 39 38  1  0
 39 43  1  0
 40 39  2  0
 41 36  2  0
 41 40  1  0
 42 41  1  0
 44 45  1  0
 45 48  1  0
 45 47  1  0
 46 44  2  0
 49 50  1  0
 49 24  1  0
 51 49  1  0
 53 52  1  0
 54 65  2  0
 55 53  1  0
 55 60  1  0
 56 64  1  0
 56 66  1  0
 57 63  1  0
 57 59  1  0
 58 64  1  0
 59 58  1  0
 60 59  2  0
 61 62  1  0
 61 55  2  0
 62 57  2  0
 63 56  1  0
 64 54  1  0
 66 68  2  0
 67 66  1  0
 69 67  1  0
 70 79  2  0
 70 75  1  0
 71 67  1  0
 71 75  1  0
 72 71  1  0
 73 74  1  0
 73 72  1  0
 74 70  1  0
 75 76  2  0
 76 77  1  0
 78 77  2  0
 79 78  1  0
 80 54  1  0
 80 81  1  0
 80 90  1  0
 81 84  1  0
 82 86  1  0
 82 81  1  0
 83 82  2  0
 86 85  1  0
 88 86  1  0
 88 89  1  0
 88 87  1  0
 90 93  1  1
 90 91  1  0
 92 90  1  0
M  ISO  4   9 100  21 100  52 101  53 101
M  END
>  <TORSDO>  (26) 
F 18

>  <SCORE>  (26) 
-13.889

>  <name>  (26) 
25

>  <ligand_id>  (26) 
25

>  <original_smiles>  (26) 
[H]c1nc(C([H])([H])Oc2c([H])c([H])c3c(c2[H])C([H])([H])N(C(=O)C([H])(N([H])C(=O)C([H])(N([H])C([H])([H])[H])C([H])([H])[H])C(C([H])([H])[H])(C([H])([H])[H])C([H])([H])[H])C([H])(C(=O)N([H])C2([H])c4c([H])c([H])c([H])c([H])c4C([H])([H])C([H])([H])C2([H])[H])C3([H])[H])c(C([H])([H])[H])nc1C([H])([H])[N+]1([H])C([H])([H])C([H])([H])N(C(=O)N2C([H])([H])C([H])([H])C([H])([H])C([H])(n3nc(-c4c([H])c([H])c(Oc5c([H])c([H])c(F)c([H])c5F)c([H])c4[H])c(C(=O)N([H])[H])c3N([H])[H])C2([H])[H])C([H])([H])C1([H])[H]

>  <smiles>  (26) 
[H]c1nc(C([H])([H])Oc2c([H])c([H])c3c(c2[H])C([H])([H])N(C(=O)C([H])(N([H])C(=O)C([H])(N([H])C([H])([H])[H])C([H])([H])[H])C(C([H])([H])[H])(C([H])([H])[H])C([H])([H])[H])C([H])(C(=O)N([H])C2([H])c4c([H])c([H])c([H])c([H])c4C([H])([H])C([H])([H])C2([H])[H])C3([H])[H])c(C([H])([H])[H])nc1C([H])([H])[N+]1([H])C([H])([H])C([H])([H])N(C(=O)N2C([H])([H])C([H])([H])C([H])([H])C([H])(n3nc(-c4c([H])c([H])c(Oc5c([H])c([H])c(F)c([H])c5F)c([H])c4[H])c(C(=O)N([H])[H])c3N([H])[H])C2([H])[H])C([H])([H])C1([H])[H]

$$$$
26:0:0
     RDKit          3D

 90 99  0  0  1  0  0  0  0  0999 V2000
  -31.0670  -20.7210   20.8300 C   0  0  0  0  0  0  0  0  0  0  0  0
  -29.8140  -20.1240   20.5820 C   0  0  0  0  0  0  0  0  0  0  0  0
  -31.2920  -22.1240   20.8410 C   0  0  0  0  0  0  0  0  0  0  0  0
  -29.0420  -22.6750   20.4720 C   0  0  0  0  0  0  0  0  0  0  0  0
  -32.1430  -19.7510   21.2440 C   0  0  0  0  0  2  0  0  0  0  0  0
  -31.5600  -18.3350   21.1370 C   0  0  0  0  0  2  0  0  0  0  0  0
  -30.0200  -18.3670   20.9390 C   0  0  0  0  0  3  0  0  0  0  0  0
  -32.6800  -22.7170   21.1270 C   0  0  0  0  0  1  0  0  0  0  0  0
  -28.7960  -21.2100   20.4650 N   0  0  0  0  0  0  0  0  0  0  0  0
  -30.3130  -23.0390   20.6430 N   0  0  0  0  0  0  0  0  0  0  0  0
  -30.3840  -15.4260   20.3680 C   0  0  0  0  0  0  0  0  0  0  0  0
  -30.3550  -12.9700   19.4510 C   0  0  0  0  0  2  0  0  0  0  0  0
  -29.4250  -12.6120   18.2600 C   0  0  0  0  0  2  0  0  0  0  0  0
  -28.0030  -12.3030   18.7460 C   0  0  0  0  0  2  0  0  0  0  0  0
  -27.5270  -13.3160   19.8110 C   0  0  0  0  0  3  0  0  0  0  0  0
  -28.5770  -13.5970   20.9120 C   0  0  0  0  0  2  0  0  0  0  0  0
  -29.7750  -14.1300   20.2380 N   0  0  0  0  0  0  0  0  0  0  0  0
  -31.6150  -15.3400   20.2460 O   0  0  0  0  0  0  0  0  0  0  0  0
  -29.6960  -16.7720   20.4300 N   0  0  0  0  0  0  0  0  0  0  0  0
  -28.7000  -16.6580   20.3070 H   0  0  0  0  0  0  0  0  0  0  0  0
  -25.1610  -13.8600   20.5870 C   0  0  0  0  0  0  0  0  0  0  0  0
  -24.1030  -13.0840   20.9540 C   0  0  0  0  0  0  0  0  0  0  0  0
  -24.5700  -11.7320   20.9200 C   0  0  0  0  0  0  0  0  0  0  0  0
  -26.2070  -12.9900   20.3400 N   0  0  0  0  0  0  0  0  0  0  0  0
  -25.8620  -11.7010   20.6060 N   0  0  0  0  0  0  0  0  0  0  0  0
  -23.8420  -10.4700   21.1070 C   0  0  0  0  0  0  0  0  0  0  0  0
  -24.2790   -9.4880   22.0240 C   0  0  0  0  0  3  0  0  0  0  0  0
  -23.5400   -8.2970   22.2010 C   0  0  0  0  0  3  0  0  0  0  0  0
  -22.3530   -8.0770   21.4620 C   0  0  0  0  0  0  0  0  0  0  0  0
  -21.9380   -9.0480   20.5320 C   0  0  0  0  0  3  0  0  0  0  0  0
  -22.6770  -10.2300   20.3540 C   0  0  0  0  0  3  0  0  0  0  0  0
  -21.5890   -6.9390   21.5510 O   0  0  0  0  0  0  0  0  0  0  0  0
  -21.5580   -6.1780   22.6920 C   0  0  0  0  0  0  0  0  0  0  0  0
  -21.1610   -6.7190   23.9350 C   0  0  0  0  0  3  0  0  0  0  0  0
  -21.0760   -5.8860   25.0700 C   0  0  0  0  0  3  0  0  0  0  0  0
  -21.3790   -4.5160   24.9630 C   0  0  0  0  0  0  0  0  0  0  0  0
  -21.7710   -3.9760   23.7260 C   0  0  0  0  0  3  0  0  0  0  0  0
  -21.8560   -4.8050   22.5930 C   0  0  0  0  0  0  0  0  0  0  0  0
  -22.2130   -4.2740   21.3980 F   0  0  0  0  0  0  0  0  0  0  0  0
  -21.2920   -3.7140   26.0500 F   0  0  0  0  0  0  0  0  0  0  0  0
  -22.7070  -13.5600   21.2270 C   0  0  0  0  0  0  0  0  0  0  0  0
  -21.9820  -12.8660   22.0930 N   0  0  0  0  0  0  0  0  0  0  0  0
  -22.2720  -14.5880   20.7070 O   0  0  0  0  0  0  0  0  0  0  0  0
  -22.3460  -12.0320   22.5300 H   0  0  0  0  0  0  0  0  0  0  0  0
  -21.0490  -13.1780   22.3300 H   0  0  0  0  0  0  0  0  0  0  0  0
  -25.3160  -15.2350   20.4080 N   0  0  0  0  0  0  0  0  0  0  0  0
  -24.5380  -15.8760   20.5160 H   0  0  0  0  0  0  0  0  0  0  0  0
  -26.1490  -15.6910   20.0610 H   0  0  0  0  0  0  0  0  0  0  0  0
  -27.9770  -24.0990   20.2970 C   0  0  0  0  0  2  0  0  0  0  0  0
  -28.2180  -25.7590   20.3960 O   0  0  0  0  0  0  0  0  0  0  0  0
  -24.6220  -31.8220   23.2060 C   0  0  0  0  0  0  0  0  0  0  0  0
  -27.2090  -26.8750   20.2930 C   0  0  0  0  0  0  0  0  0  0  0  0
  -23.4370  -30.4140   21.5600 C   0  0  0  0  0  3  0  0  0  0  0  0
  -24.9030  -28.7770   20.1780 C   0  0  0  0  0  0  0  0  0  0  0  0
  -26.0040  -30.6070   21.4490 C   0  0  0  0  0  2  0  0  0  0  0  0
  -26.0820  -29.1850   20.8110 C   0  0  0  0  0  0  0  0  0  0  0  0
  -27.2250  -28.2570   20.8480 C   0  0  0  0  0  3  0  0  0  0  0  0
  -26.0030  -26.6320   19.5980 C   0  0  0  0  0  3  0  0  0  0  0  0
  -24.8900  -27.5170   19.5500 C   0  0  0  0  0  3  0  0  0  0  0  0
  -23.6850  -29.7000   20.1980 C   0  0  0  0  0  2  0  0  0  0  0  0
  -24.7070  -30.9800   22.1220 N   0  0  0  0  0  0  0  0  0  0  0  0
  -23.5300  -32.1210   23.7140 O   0  0  0  0  0  0  0  0  0  0  0  0
  -22.7200  -29.4440   22.5370 C   0  0  0  0  0  0  0  0  0  0  0  0
  -21.3860  -29.2980   22.4150 N   0  0  0  0  0  0  0  0  0  0  0  0
  -23.3730  -28.8120   23.3720 O   0  0  0  0  0  0  0  0  0  0  0  0
  -20.9080  -29.8680   21.7320 H   0  0  0  0  0  0  0  0  0  0  0  0
  -17.9880  -28.1230   22.9320 C   0  0  0  0  0  0  0  0  0  0  0  0
  -20.5520  -28.3690   23.1860 C   0  0  0  0  0  3  0  0  0  0  0  0
  -20.6370  -26.9320   22.6200 C   0  0  0  0  0  2  0  0  0  0  0  0
  -19.5330  -26.6180   21.6050 C   0  0  0  0  0  2  0  0  0  0  0  0
  -18.1530  -26.7730   22.2520 C   0  0  0  0  0  2  0  0  0  0  0  0
  -19.1150  -28.8790   23.3530 C   0  0  0  0  0  0  0  0  0  0  0  0
  -18.9050  -30.1410   23.9520 C   0  0  0  0  0  3  0  0  0  0  0  0
  -17.6040  -30.6470   24.1290 C   0  0  0  0  0  3  0  0  0  0  0  0
  -16.4920  -29.8880   23.7210 C   0  0  0  0  0  3  0  0  0  0  0  0
  -16.6860  -28.6280   23.1260 C   0  0  0  0  0  3  0  0  0  0  0  0
  -25.8910  -32.4610   23.8470 C   0  0  0  0  0  3  0  0  0  0  0  0
  -25.5740  -33.8610   24.1830 N   0  0  0  0  0  0  0  0  0  0  0  0
  -25.9080  -34.9270   23.4410 C   0  0  0  0  0  0  0  0  0  0  0  0
  -26.5740  -34.8300   22.4060 O   0  0  0  0  0  0  0  0  0  0  0  0
  -24.9800  -34.0070   24.9870 H   0  0  0  0  0  0  0  0  0  0  0  0
  -24.1880  -36.7400   23.1320 C   0  0  0  0  0  1  0  0  0  0  0  0
  -25.4370  -36.3160   23.9200 C   0  0  0  0  0  3  0  0  0  0  0  0
  -27.5810  -37.2040   24.7290 C   0  0  0  0  0  1  0  0  0  0  0  0
  -26.4730  -37.3650   23.7930 N   0  0  0  0  0  0  0  0  0  0  0  0
  -26.0720  -38.2890   23.9290 H   0  0  0  0  0  0  0  0  0  0  0  0
  -26.3900  -31.6970   25.1360 C   0  0  1  0  0  0  0  0  0  0  0  0
  -25.2890  -31.4690   26.1980 C   0  0  0  0  0  1  0  0  0  0  0  0
  -26.9730  -30.3110   24.7760 C   0  0  0  0  0  1  0  0  0  0  0  0
  -27.5390  -32.4960   25.7960 C   0  0  0  0  0  1  0  0  0  0  0  0
  1  3  1  0
  1  5  1  0
  2  1  2  0
  2  7  1  0
  3  8  1  0
  4 10  1  0
  6  5  1  0
  7 19  1  0
  7  6  1  0
  9  4  2  0
  9  2  1  0
 10  3  2  0
 11 19  1  0
 12 17  1  0
 13 14  1  0
 13 12  1  0
 15 14  1  0
 15 24  1  0
 15 16  1  0
 17 11  1  0
 17 16  1  0
 18 11  2  0
 20 19  1  0
 21 22  2  0
 22 41  1  0
 23 22  1  0
 23 26  1  0
 24 21  1  0
 24 25  1  0
 25 23  2  0
 26 27  1  0
 27 28  2  0
 29 32  1  0
 29 28  1  0
 30 29  2  0
 31 30  1  0
 31 26  2  0
 32 33  1  0
 33 34  1  0
 34 35  2  0
 36 35  1  0
 36 40  1  0
 37 36  2  0
 38 33  2  0
 38 37  1  0
 39 38  1  0
 41 42  1  0
 42 45  1  0
 42 44  1  0
 43 41  2  0
 46 47  1  0
 46 21  1  0
 48 46  1  0
 49 50  1  0
 49  4  1  0
 51 62  2  0
 52 50  1  0
 52 57  1  0
 53 61  1  0
 53 63  1  0
 54 60  1  0
 54 56  1  0
 55 61  1  0
 56 57  2  0
 56 55  1  0
 58 52  2  0
 59 58  1  0
 59 54  2  0
 60 53  1  0
 61 51  1  0
 63 65  2  0
 64 63  1  0
 66 64  1  0
 67 76  2  0
 67 72  1  0
 68 64  1  0
 68 72  1  0
 69 68  1  0
 70 71  1  0
 70 69  1  0
 71 67  1  0
 72 73  2  0
 73 74  1  0
 75 74  2  0
 76 75  1  0
 77 51  1  0
 77 78  1  0
 77 87  1  0
 78 81  1  0
 79 83  1  0
 79 78  1  0
 80 79  2  0
 83 82  1  0
 85 83  1  0
 85 86  1  0
 85 84  1  0
 87 90  1  1
 87 88  1  0
 89 87  1  0
M  ISO  4  11 100  19 100  49 101  50 101
M  END
>  <TORSDO>  (27) 
F 17

>  <SCORE>  (27) 
-16.096

>  <name>  (27) 
26

>  <ligand_id>  (27) 
26

>  <original_smiles>  (27) 
[H]c1c([H])c([H])c2c(c1[H])C([H])([H])C([H])([H])C([H])([H])C2([H])N([H])C(=O)C1([H])N(C(=O)C([H])(N([H])C(=O)C([H])(N([H])C([H])([H])[H])C([H])([H])[H])C(C([H])([H])[H])(C([H])([H])[H])C([H])([H])[H])C([H])([H])c2c([H])c(OC([H])([H])c3nc(C([H])([H])[H])c4c(n3)C([H])(N([H])C(=O)N3C([H])([H])C([H])([H])C([H])([H])C([H])(n5nc(-c6c([H])c([H])c(Oc7c([H])c([H])c(F)c([H])c7F)c([H])c6[H])c(C(=O)N([H])[H])c5N([H])[H])C3([H])[H])C([H])([H])C4([H])[H])c([H])c([H])c2C1([H])[H]

>  <smiles>  (27) 
[H]c1c([H])c([H])c2c(c1[H])C([H])([H])C([H])([H])C([H])([H])C2([H])N([H])C(=O)C1([H])N(C(=O)C([H])(N([H])C(=O)C([H])(N([H])C([H])([H])[H])C([H])([H])[H])C(C([H])([H])[H])(C([H])([H])[H])C([H])([H])[H])C([H])([H])c2c([H])c(OC([H])([H])c3nc(C([H])([H])[H])c4c(n3)C([H])(N([H])C(=O)N3C([H])([H])C([H])([H])C([H])([H])C([H])(n5nc(-c6c([H])c([H])c(Oc7c([H])c([H])c(F)c([H])c7F)c([H])c6[H])c(C(=O)N([H])[H])c5N([H])[H])C3([H])[H])C([H])([H])C4([H])[H])c([H])c([H])c2C1([H])[H]

$$$$
27:0:0
     RDKit          3D

 90 99  0  0  1  0  0  0  0  0999 V2000
  -30.3390  -23.5040   20.3620 C   0  0  0  0  0  3  0  0  0  0  0  0
  -29.6160  -20.7460   20.1650 C   0  0  0  0  0  0  0  0  0  0  0  0
  -28.9770  -23.2310   20.1520 C   0  0  0  0  0  0  0  0  0  0  0  0
  -30.9490  -21.2190   20.3770 C   0  0  0  0  0  0  0  0  0  0  0  0
  -32.1500  -20.3070   20.5320 C   0  0  0  0  0  1  0  0  0  0  0  0
  -31.2840  -22.5350   20.4690 N   0  0  0  0  0  0  0  0  0  0  0  0
  -28.6470  -21.8190   20.0630 N   0  0  0  0  0  0  0  0  0  0  0  0
  -30.6310  -15.1280   19.9050 C   0  0  0  0  0  0  0  0  0  0  0  0
  -30.4550  -12.7760   18.9320 C   0  0  0  0  0  2  0  0  0  0  0  0
  -29.4380  -12.7200   17.7700 C   0  0  0  0  0  2  0  0  0  0  0  0
  -28.0120  -12.4790   18.3000 C   0  0  0  0  0  2  0  0  0  0  0  0
  -27.6840  -13.3560   19.5410 C   0  0  0  0  0  3  0  0  0  0  0  0
  -28.8270  -13.3750   20.5760 C   0  0  0  0  0  2  0  0  0  0  0  0
  -30.0220  -13.8630   19.8680 N   0  0  0  0  0  0  0  0  0  0  0  0
  -31.8020  -15.1490   19.5030 O   0  0  0  0  0  0  0  0  0  0  0  0
  -28.9830  -18.3240   21.4020 C   0  0  0  0  0  2  0  0  0  0  0  0
  -28.9960  -16.7530   21.1440 C   0  0  0  0  0  2  0  0  0  0  0  0
  -30.2390  -17.8250   19.5080 C   0  0  0  0  0  2  0  0  0  0  0  0
  -29.2940  -19.0770   20.0910 C   0  0  0  0  0  3  0  0  0  0  0  0
  -29.9180  -16.3880   20.0490 N   0  0  0  0  0  0  0  0  0  0  0  0
  -25.3710  -13.8660   20.4950 C   0  0  0  0  0  0  0  0  0  0  0  0
  -24.3440  -13.0630   20.9090 C   0  0  0  0  0  0  0  0  0  0  0  0
  -24.8110  -11.7200   20.7740 C   0  0  0  0  0  0  0  0  0  0  0  0
  -26.3970  -13.0120   20.1300 N   0  0  0  0  0  0  0  0  0  0  0  0
  -26.0750  -11.7100   20.3610 N   0  0  0  0  0  0  0  0  0  0  0  0
  -24.1050  -10.4430   20.9560 C   0  0  0  0  0  0  0  0  0  0  0  0
  -24.5490   -9.4780   21.8860 C   0  0  0  0  0  3  0  0  0  0  0  0
  -23.8390   -8.2710   22.0590 C   0  0  0  0  0  3  0  0  0  0  0  0
  -22.6700   -8.0200   21.3020 C   0  0  0  0  0  0  0  0  0  0  0  0
  -22.2450   -8.9740   20.3620 C   0  0  0  0  0  3  0  0  0  0  0  0
  -22.9550  -10.1730   20.1870 C   0  0  0  0  0  3  0  0  0  0  0  0
  -21.9320   -6.8640   21.3850 O   0  0  0  0  0  0  0  0  0  0  0  0
  -21.8030   -6.1730   22.5640 C   0  0  0  0  0  0  0  0  0  0  0  0
  -21.2490   -6.7680   23.7180 C   0  0  0  0  0  3  0  0  0  0  0  0
  -21.0720   -6.0030   24.8880 C   0  0  0  0  0  3  0  0  0  0  0  0
  -21.4360   -4.6430   24.9050 C   0  0  0  0  0  0  0  0  0  0  0  0
  -21.9790   -4.0480   23.7530 C   0  0  0  0  0  3  0  0  0  0  0  0
  -22.1600   -4.8100   22.5850 C   0  0  0  0  0  0  0  0  0  0  0  0
  -22.6640   -4.2250   21.4730 F   0  0  0  0  0  0  0  0  0  0  0  0
  -21.2570   -3.9060   26.0250 F   0  0  0  0  0  0  0  0  0  0  0  0
  -22.9710  -13.5170   21.3110 C   0  0  0  0  0  0  0  0  0  0  0  0
  -22.3210  -12.7850   22.2100 N   0  0  0  0  0  0  0  0  0  0  0  0
  -22.4870  -14.5570   20.8670 O   0  0  0  0  0  0  0  0  0  0  0  0
  -22.7230  -11.9430   22.5940 H   0  0  0  0  0  0  0  0  0  0  0  0
  -21.4030  -13.0740   22.5150 H   0  0  0  0  0  0  0  0  0  0  0  0
  -25.5130  -15.2440   20.3700 N   0  0  0  0  0  0  0  0  0  0  0  0
  -24.7610  -15.8940   20.5740 H   0  0  0  0  0  0  0  0  0  0  0  0
  -26.3330  -15.6980   19.9900 H   0  0  0  0  0  0  0  0  0  0  0  0
  -27.9380  -24.5480   20.0300 C   0  0  0  0  0  2  0  0  0  0  0  0
  -28.2690  -26.0990   20.1770 O   0  0  0  0  0  0  0  0  0  0  0  0
  -24.6680  -31.8520   23.2410 C   0  0  0  0  0  0  0  0  0  0  0  0
  -27.2380  -27.1330   20.1340 C   0  0  0  0  0  0  0  0  0  0  0  0
  -23.4750  -30.4910   21.5720 C   0  0  0  0  0  3  0  0  0  0  0  0
  -24.9290  -28.9350   20.1240 C   0  0  0  0  0  0  0  0  0  0  0  0
  -26.0370  -30.7360   21.4320 C   0  0  0  0  0  2  0  0  0  0  0  0
  -26.1090  -29.3510   20.7480 C   0  0  0  0  0  0  0  0  0  0  0  0
  -27.2650  -28.4680   20.7330 C   0  0  0  0  0  3  0  0  0  0  0  0
  -26.0270  -26.8400   19.4680 C   0  0  0  0  0  3  0  0  0  0  0  0
  -24.9030  -27.6970   19.4700 C   0  0  0  0  0  3  0  0  0  0  0  0
  -23.7040  -29.8390   20.1830 C   0  0  0  0  0  2  0  0  0  0  0  0
  -24.7470  -31.0490   22.1360 N   0  0  0  0  0  0  0  0  0  0  0  0
  -23.5790  -32.1300   23.7690 O   0  0  0  0  0  0  0  0  0  0  0  0
  -22.7840  -29.4690   22.5120 C   0  0  0  0  0  0  0  0  0  0  0  0
  -21.4560  -29.3040   22.3750 N   0  0  0  0  0  0  0  0  0  0  0  0
  -23.4470  -28.8270   23.3300 O   0  0  0  0  0  0  0  0  0  0  0  0
  -20.9770  -29.8700   21.6880 H   0  0  0  0  0  0  0  0  0  0  0  0
  -18.0640  -28.1220   22.8650 C   0  0  0  0  0  0  0  0  0  0  0  0
  -20.6280  -28.3550   23.1250 C   0  0  0  0  0  3  0  0  0  0  0  0
  -20.7130  -26.9380   22.5120 C   0  0  0  0  0  2  0  0  0  0  0  0
  -19.6040  -26.6520   21.4960 C   0  0  0  0  0  2  0  0  0  0  0  0
  -18.2260  -26.7910   22.1490 C   0  0  0  0  0  2  0  0  0  0  0  0
  -19.1920  -28.8630   23.3080 C   0  0  0  0  0  0  0  0  0  0  0  0
  -18.9870  -30.1080   23.9410 C   0  0  0  0  0  3  0  0  0  0  0  0
  -17.6870  -30.6150   24.1290 C   0  0  0  0  0  3  0  0  0  0  0  0
  -16.5730  -29.8710   23.7020 C   0  0  0  0  0  3  0  0  0  0  0  0
  -16.7620  -28.6240   23.0790 C   0  0  0  0  0  3  0  0  0  0  0  0
  -25.9420  -32.4770   23.8870 C   0  0  0  0  0  3  0  0  0  0  0  0
  -25.6360  -33.8770   24.2290 N   0  0  0  0  0  0  0  0  0  0  0  0
  -25.9450  -34.9350   23.4690 C   0  0  0  0  0  0  0  0  0  0  0  0
  -26.5830  -34.8360   22.4170 O   0  0  0  0  0  0  0  0  0  0  0  0
  -25.0670  -34.0250   25.0500 H   0  0  0  0  0  0  0  0  0  0  0  0
  -24.1850  -36.7120   23.2060 C   0  0  0  0  0  1  0  0  0  0  0  0
  -25.4730  -36.3230   23.9480 C   0  0  0  0  0  3  0  0  0  0  0  0
  -27.6350  -37.2340   24.6680 C   0  0  0  0  0  1  0  0  0  0  0  0
  -26.4870  -37.3850   23.7770 N   0  0  0  0  0  0  0  0  0  0  0  0
  -26.0810  -38.3010   23.9390 H   0  0  0  0  0  0  0  0  0  0  0  0
  -26.4360  -31.6950   25.1670 C   0  0  1  0  0  0  0  0  0  0  0  0
  -25.3240  -31.4550   26.2140 C   0  0  0  0  0  1  0  0  0  0  0  0
  -27.0180  -30.3160   24.7840 C   0  0  0  0  0  1  0  0  0  0  0  0
  -27.5820  -32.4760   25.8490 C   0  0  0  0  0  1  0  0  0  0  0  0
  1  6  1  0
  2  4  1  0
  3  1  2  0
  4  6  2  0
  4  5  1  0
  7  3  1  0
  7  2  2  0
  8 20  1  0
  9 14  1  0
 10 11  1  0
 10  9  1  0
 12 11  1  0
 12 24  1  0
 12 13  1  0
 14  8  1  0
 14 13  1  0
 15  8  2  0
 17 16  1  0
 18 20  1  0
 18 19  1  0
 19  2  1  0
 19 16  1  0
 20 17  1  0
 21 22  2  0
 22 41  1  0
 23 22  1  0
 23 26  1  0
 24 25  1  0
 24 21  1  0
 25 23  2  0
 26 27  1  0
 27 28  2  0
 29 32  1  0
 29 28  1  0
 30 29  2  0
 31 30  1  0
 31 26  2  0
 32 33  1  0
 33 38  2  0
 33 34  1  0
 34 35  2  0
 35 36  1  0
 36 40  1  0
 37 36  2  0
 38 37  1  0
 39 38  1  0
 41 42  1  0
 42 45  1  0
 42 44  1  0
 43 41  2  0
 46 21  1  0
 46 47  1  0
 48 46  1  0
 49  3  1  0
 49 50  1  0
 51 62  2  0
 52 50  1  0
 52 57  1  0
 53 61  1  0
 53 63  1  0
 54 60  1  0
 54 56  1  0
 55 61  1  0
 56 55  1  0
 57 56  2  0
 58 59  1  0
 58 52  2  0
 59 54  2  0
 60 53  1  0
 61 51  1  0
 63 65  2  0
 64 63  1  0
 66 64  1  0
 67 76  2  0
 67 72  1  0
 68 64  1  0
 68 72  1  0
 69 68  1  0
 70 71  1  0
 70 69  1  0
 71 67  1  0
 72 73  2  0
 73 74  1  0
 75 74  2  0
 76 75  1  0
 77 51  1  0
 77 78  1  0
 77 87  1  0
 78 81  1  0
 79 83  1  0
 79 78  1  0
 80 79  2  0
 83 82  1  0
 85 86  1  0
 85 83  1  0
 85 84  1  0
 87 90  1  1
 87 88  1  0
 89 87  1  0
M  ISO  4   8 100  20 100  49 101  50 101
M  END
>  <TORSDO>  (28) 
F 17

>  <SCORE>  (28) 
-14.540

>  <name>  (28) 
27

>  <ligand_id>  (28) 
27

>  <original_smiles>  (28) 
[H]c1nc(C([H])([H])[H])c(C2([H])C([H])([H])N(C(=O)N3C([H])([H])C([H])([H])C([H])([H])C([H])(n4nc(-c5c([H])c([H])c(Oc6c([H])c([H])c(F)c([H])c6F)c([H])c5[H])c(C(=O)N([H])[H])c4N([H])[H])C3([H])[H])C([H])([H])C2([H])[H])nc1C([H])([H])Oc1c([H])c([H])c2c(c1[H])C([H])([H])N(C(=O)C([H])(N([H])C(=O)C([H])(N([H])C([H])([H])[H])C([H])([H])[H])C(C([H])([H])[H])(C([H])([H])[H])C([H])([H])[H])C([H])(C(=O)N([H])C1([H])c3c([H])c([H])c([H])c([H])c3C([H])([H])C([H])([H])C1([H])[H])C2([H])[H]

>  <smiles>  (28) 
[H]c1nc(C([H])([H])[H])c(C2([H])C([H])([H])N(C(=O)N3C([H])([H])C([H])([H])C([H])([H])C([H])(n4nc(-c5c([H])c([H])c(Oc6c([H])c([H])c(F)c([H])c6F)c([H])c5[H])c(C(=O)N([H])[H])c4N([H])[H])C3([H])[H])C([H])([H])C2([H])[H])nc1C([H])([H])Oc1c([H])c([H])c2c(c1[H])C([H])([H])N(C(=O)C([H])(N([H])C(=O)C([H])(N([H])C([H])([H])[H])C([H])([H])[H])C(C([H])([H])[H])(C([H])([H])[H])C([H])([H])[H])C([H])(C(=O)N([H])C1([H])c3c([H])c([H])c([H])c([H])c3C([H])([H])C([H])([H])C1([H])[H])C2([H])[H]

$$$$
28:0:0
     RDKit          3D

 89 98  0  0  1  0  0  0  0  0999 V2000
  -29.4350  -23.6280   18.5590 C   0  0  0  0  0  3  0  0  0  0  0  0
  -29.8560  -21.5360   18.5050 C   0  0  0  0  0  3  0  0  0  0  0  0
  -28.8330  -23.1390   19.6970 C   0  0  0  0  0  0  0  0  0  0  0  0
  -30.0570  -22.6440   17.8180 N   0  0  0  0  0  0  0  0  0  0  0  0
  -29.1760  -21.6030   19.6680 N   0  0  0  0  0  0  0  0  0  0  0  0
  -30.4760  -15.1830   20.2790 C   0  0  0  0  0  0  0  0  0  0  0  0
  -30.3350  -12.7750   19.3750 C   0  0  0  0  0  2  0  0  0  0  0  0
  -29.4170  -12.5950   18.1470 C   0  0  0  0  0  2  0  0  0  0  0  0
  -27.9680  -12.3470   18.5950 C   0  0  0  0  0  2  0  0  0  0  0  0
  -27.5290  -13.3130   19.7260 C   0  0  0  0  0  3  0  0  0  0  0  0
  -28.5840  -13.4690   20.8410 C   0  0  0  0  0  2  0  0  0  0  0  0
  -29.8130  -13.9340   20.1840 N   0  0  0  0  0  0  0  0  0  0  0  0
  -31.7030  -15.0740   20.1380 O   0  0  0  0  0  0  0  0  0  0  0  0
  -30.4870  -19.3100   20.6040 C   0  0  0  0  0  2  0  0  0  0  0  0
  -28.4720  -18.8310   19.5610 C   0  0  0  0  0  2  0  0  0  0  0  0
  -30.6210  -17.7280   21.0730 C   0  0  0  0  0  2  0  0  0  0  0  0
  -28.5890  -17.2190   20.0110 C   0  0  0  0  0  2  0  0  0  0  0  0
  -29.0930  -20.1060   20.3760 C   0  0  0  0  0  3  0  0  0  0  0  0
  -29.9010  -16.5430   20.4190 N   0  0  0  0  0  0  0  0  0  0  0  0
  -25.1610  -13.8700   20.4790 C   0  0  0  0  0  0  0  0  0  0  0  0
  -24.1000  -13.0930   20.8480 C   0  0  0  0  0  0  0  0  0  0  0  0
  -24.5720  -11.7430   20.8290 C   0  0  0  0  0  0  0  0  0  0  0  0
  -26.2060  -12.9980   20.2440 N   0  0  0  0  0  0  0  0  0  0  0  0
  -25.8640  -11.7120   20.5240 N   0  0  0  0  0  0  0  0  0  0  0  0
  -23.8480  -10.4800   21.0240 C   0  0  0  0  0  0  0  0  0  0  0  0
  -24.2810   -9.5160   21.9600 C   0  0  0  0  0  3  0  0  0  0  0  0
  -23.5550   -8.3200   22.1450 C   0  0  0  0  0  3  0  0  0  0  0  0
  -22.3800   -8.0800   21.3940 C   0  0  0  0  0  0  0  0  0  0  0  0
  -21.9640   -9.0320   20.4470 C   0  0  0  0  0  3  0  0  0  0  0  0
  -22.6930  -10.2200   20.2600 C   0  0  0  0  0  3  0  0  0  0  0  0
  -21.6240   -6.9360   21.4880 O   0  0  0  0  0  0  0  0  0  0  0  0
  -21.5850   -6.1930   22.6410 C   0  0  0  0  0  0  0  0  0  0  0  0
  -21.1770   -6.7480   23.8730 C   0  0  0  0  0  3  0  0  0  0  0  0
  -21.0840   -5.9310   25.0170 C   0  0  0  0  0  3  0  0  0  0  0  0
  -21.3890   -4.5600   24.9300 C   0  0  0  0  0  0  0  0  0  0  0  0
  -21.7910   -4.0030   23.7030 C   0  0  0  0  0  3  0  0  0  0  0  0
  -21.8840   -4.8180   22.5610 C   0  0  0  0  0  0  0  0  0  0  0  0
  -22.2510   -4.2720   21.3760 F   0  0  0  0  0  0  0  0  0  0  0  0
  -21.2940   -3.7730   26.0280 F   0  0  0  0  0  0  0  0  0  0  0  0
  -22.7000  -13.5670   21.1030 C   0  0  0  0  0  0  0  0  0  0  0  0
  -21.9700  -12.8780   21.9730 N   0  0  0  0  0  0  0  0  0  0  0  0
  -22.2640  -14.5860   20.5690 O   0  0  0  0  0  0  0  0  0  0  0  0
  -22.3380  -12.0560   22.4270 H   0  0  0  0  0  0  0  0  0  0  0  0
  -21.0300  -13.1790   22.1890 H   0  0  0  0  0  0  0  0  0  0  0  0
  -25.3190  -15.2410   20.2960 N   0  0  0  0  0  0  0  0  0  0  0  0
  -24.5550  -15.8950   20.4210 H   0  0  0  0  0  0  0  0  0  0  0  0
  -26.1750  -15.6840   19.9870 H   0  0  0  0  0  0  0  0  0  0  0  0
  -27.9980  -24.3650   20.5020 C   0  0  0  0  0  2  0  0  0  0  0  0
  -28.2290  -25.9460   20.1970 O   0  0  0  0  0  0  0  0  0  0  0  0
  -24.6550  -31.8550   23.1850 C   0  0  0  0  0  0  0  0  0  0  0  0
  -27.1990  -27.0030   20.1960 C   0  0  0  0  0  0  0  0  0  0  0  0
  -23.4540  -30.4490   21.5590 C   0  0  0  0  0  3  0  0  0  0  0  0
  -24.8960  -28.8430   20.1460 C   0  0  0  0  0  0  0  0  0  0  0  0
  -26.0160  -30.6770   21.3950 C   0  0  0  0  0  2  0  0  0  0  0  0
  -26.0850  -29.2660   20.7540 C   0  0  0  0  0  0  0  0  0  0  0  0
  -27.2360  -28.3680   20.7510 C   0  0  0  0  0  3  0  0  0  0  0  0
  -25.9800  -26.7150   19.5460 C   0  0  0  0  0  3  0  0  0  0  0  0
  -24.8640  -27.5860   19.5230 C   0  0  0  0  0  3  0  0  0  0  0  0
  -23.6760  -29.7570   20.1880 C   0  0  0  0  0  2  0  0  0  0  0  0
  -24.7300  -31.0190   22.1010 N   0  0  0  0  0  0  0  0  0  0  0  0
  -23.5680  -32.1470   23.7090 O   0  0  0  0  0  0  0  0  0  0  0  0
  -22.7670  -29.4560   22.5330 C   0  0  0  0  0  0  0  0  0  0  0  0
  -21.4360  -29.2960   22.4190 N   0  0  0  0  0  0  0  0  0  0  0  0
  -23.4390  -28.8280   23.3560 O   0  0  0  0  0  0  0  0  0  0  0  0
  -20.9500  -29.8530   21.7320 H   0  0  0  0  0  0  0  0  0  0  0  0
  -18.0520  -28.1080   22.9560 C   0  0  0  0  0  0  0  0  0  0  0  0
  -20.6150  -28.3660   23.2000 C   0  0  0  0  0  3  0  0  0  0  0  0
  -20.7080  -26.9310   22.6310 C   0  0  0  0  0  2  0  0  0  0  0  0
  -19.5960  -26.6070   21.6260 C   0  0  0  0  0  2  0  0  0  0  0  0
  -18.2200  -26.7570   22.2810 C   0  0  0  0  0  2  0  0  0  0  0  0
  -19.1760  -28.8700   23.3730 C   0  0  0  0  0  0  0  0  0  0  0  0
  -18.9630  -30.1320   23.9690 C   0  0  0  0  0  3  0  0  0  0  0  0
  -17.6600  -30.6340   24.1470 C   0  0  0  0  0  3  0  0  0  0  0  0
  -16.5510  -29.8700   23.7450 C   0  0  0  0  0  3  0  0  0  0  0  0
  -16.7480  -28.6080   23.1550 C   0  0  0  0  0  3  0  0  0  0  0  0
  -25.9300  -32.4990   23.8080 C   0  0  0  0  0  3  0  0  0  0  0  0
  -25.6100  -33.8950   24.1530 N   0  0  0  0  0  0  0  0  0  0  0  0
  -25.9280  -34.9630   23.4090 C   0  0  0  0  0  0  0  0  0  0  0  0
  -26.5880  -34.8760   22.3700 O   0  0  0  0  0  0  0  0  0  0  0  0
  -25.0220  -34.0350   24.9630 H   0  0  0  0  0  0  0  0  0  0  0  0
  -24.1880  -36.7560   23.1040 C   0  0  0  0  0  1  0  0  0  0  0  0
  -25.4410  -36.3450   23.8910 C   0  0  0  0  0  3  0  0  0  0  0  0
  -27.5840  -37.2320   24.7010 C   0  0  0  0  0  1  0  0  0  0  0  0
  -26.4670  -37.4050   23.7770 N   0  0  0  0  0  0  0  0  0  0  0  0
  -26.0580  -38.3210   23.9400 H   0  0  0  0  0  0  0  0  0  0  0  0
  -26.4520  -31.7290   25.0840 C   0  0  1  0  0  0  0  0  0  0  0  0
  -25.3640  -31.4900   26.1570 C   0  0  0  0  0  1  0  0  0  0  0  0
  -27.0360  -30.3510   24.6970 C   0  0  0  0  0  1  0  0  0  0  0  0
  -27.6050  -32.5250   25.7410 C   0  0  0  0  0  1  0  0  0  0  0  0
  1  3  2  0
  2  5  1  0
  3 48  1  0
  4  2  2  0
  4  1  1  0
  5  3  1  0
  5 18  1  0
  6 19  1  0
  7 12  1  0
  8  9  1  0
  8  7  1  0
 10  9  1  0
 10 23  1  0
 10 11  1  0
 12  6  1  0
 12 11  1  0
 13  6  2  0
 14 16  1  0
 15 17  1  0
 17 19  1  0
 18 15  1  0
 18 14  1  0
 19 16  1  0
 20 21  2  0
 21 40  1  0
 22 21  1  0
 22 25  1  0
 23 20  1  0
 23 24  1  0
 24 22  2  0
 25 26  1  0
 26 27  2  0
 28 31  1  0
 28 27  1  0
 29 28  2  0
 30 29  1  0
 30 25  2  0
 31 32  1  0
 32 33  1  0
 33 34  2  0
 35 34  1  0
 35 39  1  0
 36 35  2  0
 37 32  2  0
 37 36  1  0
 38 37  1  0
 40 41  1  0
 41 44  1  0
 41 43  1  0
 42 40  2  0
 45 46  1  0
 45 20  1  0
 47 45  1  0
 49 48  1  0
 50 61  2  0
 51 49  1  0
 51 56  1  0
 52 60  1  0
 52 62  1  0
 53 59  1  0
 53 55  1  0
 54 60  1  0
 55 54  1  0
 56 55  2  0
 57 51  2  0
 58 57  1  0
 58 53  2  0
 59 52  1  0
 60 50  1  0
 62 64  2  0
 63 62  1  0
 65 63  1  0
 66 75  2  0
 66 71  1  0
 67 63  1  0
 67 71  1  0
 68 67  1  0
 69 70  1  0
 69 68  1  0
 70 66  1  0
 71 72  2  0
 72 73  1  0
 74 73  2  0
 75 74  1  0
 76 50  1  0
 76 77  1  0
 76 86  1  0
 77 80  1  0
 78 82  1  0
 78 77  1  0
 79 78  2  0
 82 81  1  0
 84 82  1  0
 84 85  1  0
 84 83  1  0
 86 89  1  1
 86 87  1  0
 88 86  1  0
M  ISO  4   6 100  19 100  48 101  49 101
M  END
>  <TORSDO>  (29) 
F 17

>  <SCORE>  (29) 
-15.090

>  <name>  (29) 
28

>  <ligand_id>  (29) 
28

>  <original_smiles>  (29) 
[H]c1nc([H])n(C2([H])C([H])([H])C([H])([H])N(C(=O)N3C([H])([H])C([H])([H])C([H])([H])C([H])(n4nc(-c5c([H])c([H])c(Oc6c([H])c([H])c(F)c([H])c6F)c([H])c5[H])c(C(=O)N([H])[H])c4N([H])[H])C3([H])[H])C([H])([H])C2([H])[H])c1C([H])([H])Oc1c([H])c([H])c2c(c1[H])C([H])([H])N(C(=O)C([H])(N([H])C(=O)C([H])(N([H])C([H])([H])[H])C([H])([H])[H])C(C([H])([H])[H])(C([H])([H])[H])C([H])([H])[H])C([H])(C(=O)N([H])C1([H])c3c([H])c([H])c([H])c([H])c3C([H])([H])C([H])([H])C1([H])[H])C2([H])[H]

>  <smiles>  (29) 
[H]c1nc([H])n(C2([H])C([H])([H])C([H])([H])N(C(=O)N3C([H])([H])C([H])([H])C([H])([H])C([H])(n4nc(-c5c([H])c([H])c(Oc6c([H])c([H])c(F)c([H])c6F)c([H])c5[H])c(C(=O)N([H])[H])c4N([H])[H])C3([H])[H])C([H])([H])C2([H])[H])c1C([H])([H])Oc1c([H])c([H])c2c(c1[H])C([H])([H])N(C(=O)C([H])(N([H])C(=O)C([H])(N([H])C([H])([H])[H])C([H])([H])[H])C(C([H])([H])[H])(C([H])([H])[H])C([H])([H])[H])C([H])(C(=O)N([H])C1([H])c3c([H])c([H])c([H])c([H])c3C([H])([H])C([H])([H])C1([H])[H])C2([H])[H]

$$$$
29:0:0
     RDKit          3D

 93102  0  0  1  0  0  0  0  0999 V2000
  -28.3470  -21.4640   18.9640 C   0  0  0  0  0  0  0  0  0  0  0  0
  -29.1980  -21.2400   20.0390 C   0  0  0  0  0  0  0  0  0  0  0  0
  -28.5050  -23.4610   19.9770 C   0  0  0  0  0  0  0  0  0  0  0  0
  -30.0010  -22.7980   21.9190 C   0  0  0  0  0  1  0  0  0  0  0  0
  -28.0410  -22.8360   18.8840 N   0  0  0  0  0  0  0  0  0  0  0  0
  -29.2890  -22.5360   20.6690 N   0  0  0  0  0  0  0  0  0  0  0  0
  -26.3060  -19.9310   18.7730 C   0  0  0  0  0  1  0  0  0  0  0  0
  -27.5770  -20.4980   18.0670 C   0  0  0  0  0  2  0  0  0  0  0  0
  -29.8220  -20.0190   20.5830 N   0  0  0  0  0  0  0  0  0  0  0  0
  -30.2580  -20.0890   21.5020 H   0  0  0  0  0  0  0  0  0  0  0  0
  -30.6990  -14.8200   20.2030 C   0  0  0  0  0  0  0  0  0  0  0  0
  -30.4470  -12.5530   19.1720 C   0  0  0  0  0  2  0  0  0  0  0  0
  -29.4710  -12.5570   17.9750 C   0  0  0  0  0  2  0  0  0  0  0  0
  -28.0120  -12.3570   18.4360 C   0  0  0  0  0  2  0  0  0  0  0  0
  -27.6550  -13.2340   19.6640 C   0  0  0  0  0  3  0  0  0  0  0  0
  -28.7600  -13.1860   20.7530 C   0  0  0  0  0  2  0  0  0  0  0  0
  -30.0110  -13.6210   20.1100 N   0  0  0  0  0  0  0  0  0  0  0  0
  -31.9030  -14.8220   19.9300 O   0  0  0  0  0  0  0  0  0  0  0  0
  -28.4370  -17.8480   20.6340 C   0  0  0  0  0  2  0  0  0  0  0  0
  -28.6280  -16.3590   20.3260 C   0  0  0  0  0  2  0  0  0  0  0  0
  -30.7210  -17.4430   20.3070 C   0  0  0  0  0  2  0  0  0  0  0  0
  -29.6410  -18.5990   20.0560 C   0  0  0  0  0  3  0  0  0  0  0  0
  -30.0600  -16.0660   20.3700 N   0  0  0  0  0  0  0  0  0  0  0  0
  -25.2710  -13.8380   20.4000 C   0  0  0  0  0  0  0  0  0  0  0  0
  -24.2120  -13.0690   20.7870 C   0  0  0  0  0  0  0  0  0  0  0  0
  -24.6730  -11.7220   20.7670 C   0  0  0  0  0  0  0  0  0  0  0  0
  -26.3170  -12.9540   20.1720 N   0  0  0  0  0  0  0  0  0  0  0  0
  -25.9610  -11.6770   20.4530 N   0  0  0  0  0  0  0  0  0  0  0  0
  -23.9520  -10.4600   20.9740 C   0  0  0  0  0  0  0  0  0  0  0  0
  -24.3900   -9.5090   21.9160 C   0  0  0  0  0  3  0  0  0  0  0  0
  -23.6770   -8.3060   22.1090 C   0  0  0  0  0  3  0  0  0  0  0  0
  -22.5070   -8.0520   21.3550 C   0  0  0  0  0  0  0  0  0  0  0  0
  -22.0840   -8.9950   20.4000 C   0  0  0  0  0  3  0  0  0  0  0  0
  -22.7990  -10.1880   20.2050 C   0  0  0  0  0  3  0  0  0  0  0  0
  -21.7600   -6.9030   21.4570 O   0  0  0  0  0  0  0  0  0  0  0  0
  -21.7130   -6.1780   22.6190 C   0  0  0  0  0  0  0  0  0  0  0  0
  -21.2610   -6.7450   23.8320 C   0  0  0  0  0  3  0  0  0  0  0  0
  -21.1670   -5.9450   24.9890 C   0  0  0  0  0  3  0  0  0  0  0  0
  -21.5150   -4.5810   24.9330 C   0  0  0  0  0  0  0  0  0  0  0  0
  -21.9570   -4.0160   23.7290 C   0  0  0  0  0  3  0  0  0  0  0  0
  -22.0540   -4.8130   22.5750 C   0  0  0  0  0  0  0  0  0  0  0  0
  -22.4640   -4.2560   21.4060 F   0  0  0  0  0  0  0  0  0  0  0  0
  -21.4110   -3.8120   26.0430 F   0  0  0  0  0  0  0  0  0  0  0  0
  -22.8130  -13.5620   21.0590 C   0  0  0  0  0  0  0  0  0  0  0  0
  -22.0890  -12.8620   21.9350 N   0  0  0  0  0  0  0  0  0  0  0  0
  -22.3780  -14.5780   20.5420 O   0  0  0  0  0  0  0  0  0  0  0  0
  -22.4490  -12.0240   22.3580 H   0  0  0  0  0  0  0  0  0  0  0  0
  -21.1560  -13.1710   22.1630 H   0  0  0  0  0  0  0  0  0  0  0  0
  -25.4280  -15.2050   20.1920 N   0  0  0  0  0  0  0  0  0  0  0  0
  -24.6760  -15.8650   20.3660 H   0  0  0  0  0  0  0  0  0  0  0  0
  -26.2580  -15.6260   19.8030 H   0  0  0  0  0  0  0  0  0  0  0  0
  -27.7590  -24.8070   20.4770 C   0  0  0  0  0  2  0  0  0  0  0  0
  -28.2390  -26.2440   20.2210 O   0  0  0  0  0  0  0  0  0  0  0  0
  -24.6140  -31.8780   23.2460 C   0  0  0  0  0  0  0  0  0  0  0  0
  -27.2040  -27.2400   20.1800 C   0  0  0  0  0  0  0  0  0  0  0  0
  -23.4230  -30.4860   21.6020 C   0  0  0  0  0  3  0  0  0  0  0  0
  -24.8830  -28.9610   20.1770 C   0  0  0  0  0  0  0  0  0  0  0  0
  -25.9760  -30.7790   21.4470 C   0  0  0  0  0  2  0  0  0  0  0  0
  -26.0520  -29.3950   20.7980 C   0  0  0  0  0  0  0  0  0  0  0  0
  -27.2250  -28.5480   20.8070 C   0  0  0  0  0  3  0  0  0  0  0  0
  -26.0180  -26.9380   19.4730 C   0  0  0  0  0  3  0  0  0  0  0  0
  -24.8700  -27.7400   19.4970 C   0  0  0  0  0  3  0  0  0  0  0  0
  -23.6470  -29.8350   20.2180 C   0  0  0  0  0  2  0  0  0  0  0  0
  -24.6890  -31.0640   22.1550 N   0  0  0  0  0  0  0  0  0  0  0  0
  -23.5220  -32.1510   23.7740 O   0  0  0  0  0  0  0  0  0  0  0  0
  -22.7490  -29.4570   22.5460 C   0  0  0  0  0  0  0  0  0  0  0  0
  -21.4290  -29.2770   22.4170 N   0  0  0  0  0  0  0  0  0  0  0  0
  -23.4290  -28.8240   23.3650 O   0  0  0  0  0  0  0  0  0  0  0  0
  -20.9370  -29.8300   21.7260 H   0  0  0  0  0  0  0  0  0  0  0  0
  -18.0390  -28.0910   22.9490 C   0  0  0  0  0  0  0  0  0  0  0  0
  -20.6040  -28.3390   23.1880 C   0  0  0  0  0  3  0  0  0  0  0  0
  -20.6920  -26.9100   22.6040 C   0  0  0  0  0  2  0  0  0  0  0  0
  -19.5800  -26.5980   21.5990 C   0  0  0  0  0  2  0  0  0  0  0  0
  -18.2040  -26.7470   22.2560 C   0  0  0  0  0  2  0  0  0  0  0  0
  -19.1690  -28.8470   23.3720 C   0  0  0  0  0  0  0  0  0  0  0  0
  -18.9600  -30.1050   23.9740 C   0  0  0  0  0  3  0  0  0  0  0  0
  -17.6620  -30.6180   24.1440 C   0  0  0  0  0  3  0  0  0  0  0  0
  -16.5480  -29.8610   23.7380 C   0  0  0  0  0  3  0  0  0  0  0  0
  -16.7390  -28.5960   23.1550 C   0  0  0  0  0  3  0  0  0  0  0  0
  -25.8920  -32.5190   23.8680 C   0  0  0  0  0  3  0  0  0  0  0  0
  -26.4100  -31.7550   25.1470 C   0  0  1  0  0  0  0  0  0  0  0  0
  -25.3140  -31.4920   26.2070 C   0  0  0  0  0  1  0  0  0  0  0  0
  -27.0230  -30.3870   24.7670 C   0  0  0  0  0  1  0  0  0  0  0  0
  -27.5550  -32.5570   25.8110 C   0  0  0  0  0  1  0  0  0  0  0  0
  -25.5800  -33.9170   24.1950 N   0  0  0  0  0  0  0  0  0  0  0  0
  -25.8980  -34.9650   23.4210 C   0  0  0  0  0  0  0  0  0  0  0  0
  -26.5620  -34.8580   22.3870 O   0  0  0  0  0  0  0  0  0  0  0  0
  -25.0250  -34.0780   25.0200 H   0  0  0  0  0  0  0  0  0  0  0  0
  -24.1680  -36.7470   23.0310 C   0  0  0  0  0  1  0  0  0  0  0  0
  -25.3980  -36.3550   23.8670 C   0  0  0  0  0  3  0  0  0  0  0  0
  -27.5140  -37.2420   24.7350 C   0  0  0  0  0  1  0  0  0  0  0  0
  -26.4290  -37.4120   23.7720 N   0  0  0  0  0  0  0  0  0  0  0  0
  -26.0170  -38.3290   23.9130 H   0  0  0  0  0  0  0  0  0  0  0  0
  1  2  2  0
  2  9  1  0
  2  6  1  0
  3 52  1  0
  3  6  1  0
  5  1  1  0
  5  3  2  0
  6  4  1  0
  8  7  1  0
  8  1  1  0
  9 10  1  0
 11 23  1  0
 12 17  1  0
 13 14  1  0
 13 12  1  0
 15 14  1  0
 15 27  1  0
 15 16  1  0
 17 11  1  0
 17 16  1  0
 18 11  2  0
 20 23  1  0
 20 19  1  0
 21 23  1  0
 22 21  1  0
 22  9  1  0
 22 19  1  0
 24 25  2  0
 25 44  1  0
 26 25  1  0
 26 29  1  0
 27 24  1  0
 27 28  1  0
 28 26  2  0
 29 30  1  0
 30 31  2  0
 32 35  1  0
 32 31  1  0
 33 32  2  0
 34 33  1  0
 34 29  2  0
 35 36  1  0
 36 37  1  0
 37 38  2  0
 39 38  1  0
 39 43  1  0
 40 39  2  0
 41 36  2  0
 41 40  1  0
 42 41  1  0
 44 45  1  0
 45 48  1  0
 45 47  1  0
 46 44  2  0
 49 50  1  0
 49 24  1  0
 51 49  1  0
 53 52  1  0
 54 65  2  0
 55 53  1  0
 55 60  1  0
 56 64  1  0
 56 66  1  0
 57 63  1  0
 57 59  1  0
 58 64  1  0
 59 60  2  0
 59 58  1  0
 61 62  1  0
 61 55  2  0
 62 57  2  0
 63 56  1  0
 64 54  1  0
 66 68  2  0
 67 66  1  0
 69 67  1  0
 70 79  2  0
 70 75  1  0
 71 67  1  0
 71 75  1  0
 72 71  1  0
 73 74  1  0
 73 72  1  0
 74 70  1  0
 75 76  2  0
 76 77  1  0
 78 77  2  0
 79 78  1  0
 80 54  1  0
 80 85  1  0
 80 81  1  0
 81 84  1  1
 81 82  1  0
 83 81  1  0
 85 88  1  0
 86 90  1  0
 86 85  1  0
 87 86  2  0
 90 89  1  0
 92 90  1  0
 92 93  1  0
 92 91  1  0
M  ISO  4  11 100  23 100  52 101  53 101
M  END
>  <TORSDO>  (30) 
F 19

>  <SCORE>  (30) 
-14.319

>  <name>  (30) 
29

>  <ligand_id>  (30) 
29

>  <original_smiles>  (30) 
[H]c1c([H])c([H])c2c(c1[H])C([H])([H])C([H])([H])C([H])([H])C2([H])N([H])C(=O)C1([H])N(C(=O)C([H])(N([H])C(=O)C([H])(N([H])C([H])([H])[H])C([H])([H])[H])C(C([H])([H])[H])(C([H])([H])[H])C([H])([H])[H])C([H])([H])c2c([H])c(OC([H])([H])c3nc(C([H])([H])C([H])([H])[H])c(N([H])C4([H])C([H])([H])N(C(=O)N5C([H])([H])C([H])([H])C([H])([H])C([H])(n6nc(-c7c([H])c([H])c(Oc8c([H])c([H])c(F)c([H])c8F)c([H])c7[H])c(C(=O)N([H])[H])c6N([H])[H])C5([H])[H])C([H])([H])C4([H])[H])n3C([H])([H])[H])c([H])c([H])c2C1([H])[H]

>  <smiles>  (30) 
[H]c1c([H])c([H])c2c(c1[H])C([H])([H])C([H])([H])C([H])([H])C2([H])N([H])C(=O)C1([H])N(C(=O)C([H])(N([H])C(=O)C([H])(N([H])C([H])([H])[H])C([H])([H])[H])C(C([H])([H])[H])(C([H])([H])[H])C([H])([H])[H])C([H])([H])c2c([H])c(OC([H])([H])c3nc(C([H])([H])C([H])([H])[H])c(N([H])C4([H])C([H])([H])N(C(=O)N5C([H])([H])C([H])([H])C([H])([H])C([H])(n6nc(-c7c([H])c([H])c(Oc8c([H])c([H])c(F)c([H])c8F)c([H])c7[H])c(C(=O)N([H])[H])c6N([H])[H])C5([H])[H])C([H])([H])C4([H])[H])n3C([H])([H])[H])c([H])c([H])c2C1([H])[H]

$$$$
30:0:0
     RDKit          3D

 88 96  0  0  1  0  0  0  0  0999 V2000
  -28.8360  -18.9150   18.8100 C   0  0  0  0  0  2  0  0  0  0  0  0
  -28.4590  -20.4880   18.9450 C   0  0  0  0  0  2  0  0  0  0  0  0
  -29.8030  -18.3620   19.9260 C   0  0  0  0  0  3  0  0  0  0  0  0
  -29.5480  -19.8020   20.8520 C   0  0  0  0  0  3  0  0  0  0  0  0
  -30.6870  -20.0200   21.8540 C   0  0  0  0  0  1  0  0  0  0  0  0
  -29.2510  -21.1620   20.0190 N   0  0  2  0  0  4  0  0  0  0  0  0
  -30.1310  -21.3510   19.5630 H   0  0  0  0  0  0  0  0  0  0  0  0
  -30.5080  -15.4320   20.1600 C   0  0  0  0  0  0  0  0  0  0  0  0
  -30.5230  -12.9560   19.3420 C   0  0  0  0  0  2  0  0  0  0  0  0
  -29.6090  -12.7090   18.1120 C   0  0  0  0  0  2  0  0  0  0  0  0
  -28.1670  -12.4170   18.5580 C   0  0  0  0  0  2  0  0  0  0  0  0
  -27.7010  -13.3960   19.6660 C   0  0  0  0  0  3  0  0  0  0  0  0
  -28.7450  -13.5880   20.7880 C   0  0  0  0  0  2  0  0  0  0  0  0
  -29.9660  -14.1080   20.1520 N   0  0  0  0  0  0  0  0  0  0  0  0
  -31.7160  -15.4380   19.8800 O   0  0  0  0  0  0  0  0  0  0  0  0
  -29.7260  -16.7020   20.2870 N   0  0  0  0  0  0  0  0  0  0  0  0
  -28.7900  -16.4660   20.5800 H   0  0  0  0  0  0  0  0  0  0  0  0
  -25.3360  -13.9410   20.4370 C   0  0  0  0  0  0  0  0  0  0  0  0
  -24.2790  -13.1600   20.8120 C   0  0  0  0  0  0  0  0  0  0  0  0
  -24.7510  -11.8120   20.7780 C   0  0  0  0  0  0  0  0  0  0  0  0
  -26.3790  -13.0700   20.1840 N   0  0  0  0  0  0  0  0  0  0  0  0
  -26.0420  -11.7820   20.4580 N   0  0  0  0  0  0  0  0  0  0  0  0
  -24.0280  -10.5470   20.9700 C   0  0  0  0  0  0  0  0  0  0  0  0
  -24.4420   -9.5960   21.9290 C   0  0  0  0  0  3  0  0  0  0  0  0
  -23.7170   -8.3990   22.1100 C   0  0  0  0  0  3  0  0  0  0  0  0
  -22.5640   -8.1430   21.3310 C   0  0  0  0  0  0  0  0  0  0  0  0
  -22.1700   -9.0810   20.3620 C   0  0  0  0  0  3  0  0  0  0  0  0
  -22.8950  -10.2700   20.1790 C   0  0  0  0  0  3  0  0  0  0  0  0
  -21.8120   -6.9960   21.4200 O   0  0  0  0  0  0  0  0  0  0  0  0
  -21.7050   -6.2940   22.5930 C   0  0  0  0  0  0  0  0  0  0  0  0
  -21.1620   -6.8720   23.7610 C   0  0  0  0  0  3  0  0  0  0  0  0
  -21.0050   -6.0940   24.9260 C   0  0  0  0  0  3  0  0  0  0  0  0
  -21.3830   -4.7370   24.9220 C   0  0  0  0  0  0  0  0  0  0  0  0
  -21.9200   -4.1590   23.7590 C   0  0  0  0  0  3  0  0  0  0  0  0
  -22.0770   -4.9340   22.5970 C   0  0  0  0  0  0  0  0  0  0  0  0
  -22.5740   -4.3650   21.4730 F   0  0  0  0  0  0  0  0  0  0  0  0
  -21.2260   -3.9870   26.0380 F   0  0  0  0  0  0  0  0  0  0  0  0
  -22.8820  -13.6330   21.0840 C   0  0  0  0  0  0  0  0  0  0  0  0
  -22.1530  -12.9330   21.9450 N   0  0  0  0  0  0  0  0  0  0  0  0
  -22.4450  -14.6610   20.5680 O   0  0  0  0  0  0  0  0  0  0  0  0
  -22.5180  -12.1030   22.3870 H   0  0  0  0  0  0  0  0  0  0  0  0
  -21.2150  -13.2340   22.1690 H   0  0  0  0  0  0  0  0  0  0  0  0
  -25.4900  -15.3130   20.2580 N   0  0  0  0  0  0  0  0  0  0  0  0
  -24.7140  -15.9570   20.3640 H   0  0  0  0  0  0  0  0  0  0  0  0
  -26.3180  -15.7480   19.8730 H   0  0  0  0  0  0  0  0  0  0  0  0
  -28.8180  -22.6920   20.6140 C   0  0  0  0  0  2  0  0  0  0  0  0
  -28.3690  -24.2920   19.8570 C   0  0  0  0  0  2  0  0  0  0  0  0
  -28.3410  -25.9020   20.3160 O   0  0  0  0  0  0  0  0  0  0  0  0
  -24.6230  -31.8130   23.2220 C   0  0  0  0  0  0  0  0  0  0  0  0
  -27.3160  -26.9940   20.1920 C   0  0  0  0  0  0  0  0  0  0  0  0
  -23.4850  -30.4240   21.5380 C   0  0  0  0  0  3  0  0  0  0  0  0
  -24.9900  -28.8580   20.1190 C   0  0  0  0  0  0  0  0  0  0  0  0
  -26.0520  -30.6670   21.4530 C   0  0  0  0  0  2  0  0  0  0  0  0
  -26.1560  -29.2660   20.7770 C   0  0  0  0  0  0  0  0  0  0  0  0
  -27.3080  -28.3530   20.7930 C   0  0  0  0  0  3  0  0  0  0  0  0
  -26.1220  -26.7500   19.4750 C   0  0  0  0  0  3  0  0  0  0  0  0
  -25.0000  -27.6230   19.4480 C   0  0  0  0  0  3  0  0  0  0  0  0
  -23.7550  -29.7620   20.1570 C   0  0  0  0  0  2  0  0  0  0  0  0
  -24.7400  -30.9960   22.1250 N   0  0  0  0  0  0  0  0  0  0  0  0
  -23.5180  -32.0800   23.7230 O   0  0  0  0  0  0  0  0  0  0  0  0
  -22.7840  -29.4070   22.4750 C   0  0  0  0  0  0  0  0  0  0  0  0
  -21.4560  -29.2370   22.3330 N   0  0  0  0  0  0  0  0  0  0  0  0
  -23.4430  -28.7680   23.2990 O   0  0  0  0  0  0  0  0  0  0  0  0
  -20.9760  -29.8030   21.6470 H   0  0  0  0  0  0  0  0  0  0  0  0
  -18.0710  -28.0160   22.8000 C   0  0  0  0  0  0  0  0  0  0  0  0
  -20.6310  -28.2780   23.0750 C   0  0  0  0  0  3  0  0  0  0  0  0
  -20.7350  -26.8620   22.4610 C   0  0  0  0  0  2  0  0  0  0  0  0
  -19.6340  -26.5680   21.4350 C   0  0  0  0  0  2  0  0  0  0  0  0
  -18.2510  -26.6890   22.0820 C   0  0  0  0  0  2  0  0  0  0  0  0
  -19.1870  -28.7690   23.2530 C   0  0  0  0  0  0  0  0  0  0  0  0
  -18.9620  -30.0090   23.8890 C   0  0  0  0  0  3  0  0  0  0  0  0
  -17.6550  -30.4980   24.0740 C   0  0  0  0  0  3  0  0  0  0  0  0
  -16.5530  -29.7420   23.6360 C   0  0  0  0  0  3  0  0  0  0  0  0
  -16.7620  -28.5030   23.0050 C   0  0  0  0  0  3  0  0  0  0  0  0
  -25.8690  -32.4670   23.8910 C   0  0  0  0  0  3  0  0  0  0  0  0
  -25.5370  -33.8710   24.1940 N   0  0  0  0  0  0  0  0  0  0  0  0
  -25.9020  -34.9260   23.4530 C   0  0  0  0  0  0  0  0  0  0  0  0
  -26.6140  -34.8190   22.4510 O   0  0  0  0  0  0  0  0  0  0  0  0
  -24.9070  -34.0260   24.9680 H   0  0  0  0  0  0  0  0  0  0  0  0
  -24.2060  -36.7370   23.0170 C   0  0  0  0  0  1  0  0  0  0  0  0
  -25.4020  -36.3190   23.8880 C   0  0  0  0  0  3  0  0  0  0  0  0
  -27.4900  -37.2030   24.8350 C   0  0  0  0  0  1  0  0  0  0  0  0
  -26.4450  -37.3670   23.8280 N   0  0  0  0  0  0  0  0  0  0  0  0
  -26.0350  -38.2910   23.9420 H   0  0  0  0  0  0  0  0  0  0  0  0
  -26.3260  -31.7230   25.2070 C   0  0  1  0  0  0  0  0  0  0  0  0
  -25.1870  -31.5100   26.2310 C   0  0  0  0  0  1  0  0  0  0  0  0
  -26.9240  -30.3360   24.8800 C   0  0  0  0  0  1  0  0  0  0  0  0
  -27.4470  -32.5310   25.9030 C   0  0  0  0  0  1  0  0  0  0  0  0
  1  2  1  0
  1  3  1  0
  2  6  1  0
  3 16  1  0
  3  4  1  0
  4  5  1  0
  6 46  1  0
  6  4  1  0
  6  7  1  6
  8 16  1  0
  9 14  1  0
 10 11  1  0
 10  9  1  0
 12 11  1  0
 12 21  1  0
 12 13  1  0
 14  8  1  0
 14 13  1  0
 15  8  2  0
 16 17  1  0
 18 19  2  0
 19 38  1  0
 20 19  1  0
 20 23  1  0
 21 18  1  0
 21 22  1  0
 22 20  2  0
 23 24  1  0
 24 25  2  0
 26 29  1  0
 26 25  1  0
 27 26  2  0
 28 27  1  0
 28 23  2  0
 29 30  1  0
 30 35  2  0
 30 31  1  0
 31 32  2  0
 33 32  1  0
 33 37  1  0
 34 33  2  0
 35 34  1  0
 36 35  1  0
 38 39  1  0
 39 42  1  0
 39 41  1  0
 40 38  2  0
 43 44  1  0
 43 18  1  0
 45 43  1  0
 47 48  1  0
 47 46  1  0
 49 60  2  0
 50 48  1  0
 50 55  1  0
 51 59  1  0
 51 61  1  0
 52 58  1  0
 52 54  1  0
 53 59  1  0
 54 55  2  0
 54 53  1  0
 56 50  2  0
 57 56  1  0
 57 52  2  0
 58 51  1  0
 59 49  1  0
 61 63  2  0
 62 61  1  0
 64 62  1  0
 65 74  2  0
 65 70  1  0
 66 62  1  0
 66 70  1  0
 67 66  1  0
 68 69  1  0
 68 67  1  0
 69 65  1  0
 70 71  2  0
 71 72  1  0
 73 72  2  0
 74 73  1  0
 75 49  1  0
 75 76  1  0
 75 85  1  0
 76 79  1  0
 77 81  1  0
 77 76  1  0
 78 77  2  0
 81 80  1  0
 83 81  1  0
 83 84  1  0
 83 82  1  0
 85 88  1  1
 85 86  1  0
 87 85  1  0
M  ISO  4   8 100  16 100  47 101  48 101
M  END
>  <TORSDO>  (31) 
F 18

>  <SCORE>  (31) 
-16.568

>  <name>  (31) 
30

>  <ligand_id>  (31) 
30

>  <original_smiles>  (31) 
[H]c1c([H])c([H])c2c(c1[H])C([H])([H])C([H])([H])C([H])([H])C2([H])N([H])C(=O)C1([H])N(C(=O)C([H])(N([H])C(=O)C([H])(N([H])C([H])([H])[H])C([H])([H])[H])C(C([H])([H])[H])(C([H])([H])[H])C([H])([H])[H])C([H])([H])c2c([H])c(OC([H])([H])C([H])([H])[N+]3([H])C([H])([H])C([H])([H])C([H])(N([H])C(=O)N4C([H])([H])C([H])([H])C([H])([H])C([H])(n5nc(-c6c([H])c([H])c(Oc7c([H])c([H])c(F)c([H])c7F)c([H])c6[H])c(C(=O)N([H])[H])c5N([H])[H])C4([H])[H])C3([H])C([H])([H])[H])c([H])c([H])c2C1([H])[H]

>  <smiles>  (31) 
[H]c1c([H])c([H])c2c(c1[H])C([H])([H])C([H])([H])C([H])([H])C2([H])N([H])C(=O)C1([H])N(C(=O)C([H])(N([H])C(=O)C([H])(N([H])C([H])([H])[H])C([H])([H])[H])C(C([H])([H])[H])(C([H])([H])[H])C([H])([H])[H])C([H])([H])c2c([H])c(OC([H])([H])C([H])([H])[N+]3([H])C([H])([H])C([H])([H])C([H])(N([H])C(=O)N4C([H])([H])C([H])([H])C([H])([H])C([H])(n5nc(-c6c([H])c([H])c(Oc7c([H])c([H])c(F)c([H])c7F)c([H])c6[H])c(C(=O)N([H])[H])c5N([H])[H])C4([H])[H])C3([H])C([H])([H])[H])c([H])c([H])c2C1([H])[H]

$$$$
31:0:0
     RDKit          3D

 91100  0  0  1  0  0  0  0  0999 V2000
  -28.4200  -21.7470   20.4570 C   0  0  0  0  0  3  0  0  0  0  0  0
  -28.6820  -23.0700   19.9930 C   0  0  0  0  0  0  0  0  0  0  0  0
  -29.8340  -22.8110   19.2120 N   0  0  0  0  0  0  0  0  0  0  0  0
  -30.2310  -21.5290   19.2440 N   0  0  0  0  0  0  0  0  0  0  0  0
  -29.3700  -20.7580   19.9830 N   0  0  0  0  0  0  0  0  0  0  0  0
  -28.8810  -18.5510   21.5270 C   0  0  0  0  0  2  0  0  0  0  0  0
  -29.6810  -19.2840   20.4660 C   0  0  0  0  0  3  0  0  0  0  0  0
  -30.4720  -17.7560   20.1950 C   0  0  0  0  0  3  0  0  0  0  0  0
  -30.1010  -17.6110   21.7220 C   0  0  0  0  0  3  0  0  0  0  0  0
  -30.7540  -15.0620   19.5920 C   0  0  0  0  0  0  0  0  0  0  0  0
  -30.4960  -12.6840   18.7080 C   0  0  0  0  0  2  0  0  0  0  0  0
  -29.4570  -12.5960   17.5640 C   0  0  0  0  0  2  0  0  0  0  0  0
  -28.0250  -12.4630   18.1200 C   0  0  0  0  0  2  0  0  0  0  0  0
  -27.7460  -13.4410   19.2900 C   0  0  0  0  0  3  0  0  0  0  0  0
  -28.8890  -13.4440   20.3210 C   0  0  0  0  0  2  0  0  0  0  0  0
  -30.1060  -13.8220   19.5890 N   0  0  0  0  0  0  0  0  0  0  0  0
  -31.9570  -15.0550   19.3090 O   0  0  0  0  0  0  0  0  0  0  0  0
  -30.0380  -16.3010   19.6900 N   0  0  0  0  0  0  0  0  0  0  0  0
  -29.0510  -16.1400   19.8200 H   0  0  0  0  0  0  0  0  0  0  0  0
  -25.4870  -14.1470   20.2570 C   0  0  0  0  0  0  0  0  0  0  0  0
  -24.4100  -13.4290   20.6990 C   0  0  0  0  0  0  0  0  0  0  0  0
  -24.7810  -12.0540   20.5910 C   0  0  0  0  0  0  0  0  0  0  0  0
  -26.4440  -13.2130   19.9020 N   0  0  0  0  0  0  0  0  0  0  0  0
  -26.0350  -11.9450   20.1670 N   0  0  0  0  0  0  0  0  0  0  0  0
  -23.9900  -10.8350   20.8040 C   0  0  0  0  0  0  0  0  0  0  0  0
  -24.4040   -9.8320   21.7090 C   0  0  0  0  0  3  0  0  0  0  0  0
  -23.6120   -8.6810   21.9120 C   0  0  0  0  0  3  0  0  0  0  0  0
  -22.3930   -8.5230   21.2100 C   0  0  0  0  0  0  0  0  0  0  0  0
  -21.9990   -9.5140   20.2920 C   0  0  0  0  0  3  0  0  0  0  0  0
  -22.7910  -10.6560   20.0870 C   0  0  0  0  0  3  0  0  0  0  0  0
  -21.5730   -7.4280   21.3250 O   0  0  0  0  0  0  0  0  0  0  0  0
  -21.4960   -6.7060   22.4890 C   0  0  0  0  0  0  0  0  0  0  0  0
  -21.1380   -7.3060   23.7170 C   0  0  0  0  0  3  0  0  0  0  0  0
  -21.0030   -6.5140   24.8750 C   0  0  0  0  0  3  0  0  0  0  0  0
  -21.2180   -5.1240   24.8060 C   0  0  0  0  0  0  0  0  0  0  0  0
  -21.5710   -4.5250   23.5850 C   0  0  0  0  0  3  0  0  0  0  0  0
  -21.7070   -5.3140   22.4290 C   0  0  0  0  0  0  0  0  0  0  0  0
  -22.0270   -4.7280   21.2500 F   0  0  0  0  0  0  0  0  0  0  0  0
  -21.0810   -4.3630   25.9160 F   0  0  0  0  0  0  0  0  0  0  0  0
  -23.0760  -13.9860   21.0980 C   0  0  0  0  0  0  0  0  0  0  0  0
  -22.3880  -13.3260   22.0210 N   0  0  0  0  0  0  0  0  0  0  0  0
  -22.6570  -15.0420   20.6240 O   0  0  0  0  0  0  0  0  0  0  0  0
  -22.7410  -12.4710   22.4250 H   0  0  0  0  0  0  0  0  0  0  0  0
  -21.4950  -13.6830   22.3320 H   0  0  0  0  0  0  0  0  0  0  0  0
  -25.7210  -15.5120   20.1020 N   0  0  0  0  0  0  0  0  0  0  0  0
  -24.9960  -16.2000   20.2730 H   0  0  0  0  0  0  0  0  0  0  0  0
  -26.5540  -15.9120   19.6910 H   0  0  0  0  0  0  0  0  0  0  0  0
  -29.7980  -16.3330   22.2610 O   0  0  0  0  0  0  0  0  0  0  0  0
  -29.7340  -16.4410   23.2040 H   0  0  0  0  0  0  0  0  0  0  0  0
  -27.7750  -24.4850   20.0490 C   0  0  0  0  0  2  0  0  0  0  0  0
  -28.1430  -26.0230   20.1740 O   0  0  0  0  0  0  0  0  0  0  0  0
  -24.4330  -31.7870   23.0820 C   0  0  0  0  0  0  0  0  0  0  0  0
  -27.0970  -27.0420   20.0970 C   0  0  0  0  0  0  0  0  0  0  0  0
  -23.2570  -30.3310   21.4820 C   0  0  0  0  0  3  0  0  0  0  0  0
  -24.7330  -28.7740   20.0640 C   0  0  0  0  0  0  0  0  0  0  0  0
  -25.8070  -30.6460   21.2910 C   0  0  0  0  0  2  0  0  0  0  0  0
  -25.9120  -29.2420   20.6580 C   0  0  0  0  0  0  0  0  0  0  0  0
  -27.0910  -28.3900   20.6620 C   0  0  0  0  0  3  0  0  0  0  0  0
  -25.8860  -26.7020   19.4480 C   0  0  0  0  0  3  0  0  0  0  0  0
  -24.7360  -27.5200   19.4420 C   0  0  0  0  0  3  0  0  0  0  0  0
  -23.4830  -29.6410   20.1110 C   0  0  0  0  0  2  0  0  0  0  0  0
  -24.5200  -30.9470   22.0040 N   0  0  0  0  0  0  0  0  0  0  0  0
  -23.3430  -32.0500   23.6150 O   0  0  0  0  0  0  0  0  0  0  0  0
  -22.6180  -29.3220   22.4670 C   0  0  0  0  0  0  0  0  0  0  0  0
  -21.2980  -29.0910   22.3430 N   0  0  0  0  0  0  0  0  0  0  0  0
  -23.3130  -28.7460   23.3090 O   0  0  0  0  0  0  0  0  0  0  0  0
  -20.7900  -29.6110   21.6420 H   0  0  0  0  0  0  0  0  0  0  0  0
  -17.9840  -27.6960   22.8300 C   0  0  0  0  0  0  0  0  0  0  0  0
  -20.5170  -28.1340   23.1340 C   0  0  0  0  0  3  0  0  0  0  0  0
  -20.7230  -26.6900   22.6190 C   0  0  0  0  0  2  0  0  0  0  0  0
  -19.6610  -26.2440   21.6110 C   0  0  0  0  0  2  0  0  0  0  0  0
  -18.2580  -26.3360   22.2140 C   0  0  0  0  0  2  0  0  0  0  0  0
  -19.0430  -28.5450   23.2460 C   0  0  0  0  0  0  0  0  0  0  0  0
  -18.7320  -29.8130   23.7840 C   0  0  0  0  0  3  0  0  0  0  0  0
  -17.3950  -30.2350   23.9070 C   0  0  0  0  0  3  0  0  0  0  0  0
  -16.3500  -29.3840   23.5030 C   0  0  0  0  0  3  0  0  0  0  0  0
  -16.6450  -28.1180   22.9720 C   0  0  0  0  0  3  0  0  0  0  0  0
  -25.6960  -32.4740   23.6840 C   0  0  0  0  0  3  0  0  0  0  0  0
  -26.2690  -31.7210   24.9470 C   0  0  1  0  0  0  0  0  0  0  0  0
  -25.2060  -31.4260   26.0310 C   0  0  0  0  0  1  0  0  0  0  0  0
  -26.9110  -30.3740   24.5420 C   0  0  0  0  0  1  0  0  0  0  0  0
  -27.3910  -32.5640   25.5960 C   0  0  0  0  0  1  0  0  0  0  0  0
  -25.3300  -33.8560   24.0370 N   0  0  0  0  0  0  0  0  0  0  0  0
  -25.6150  -34.9360   23.2990 C   0  0  0  0  0  0  0  0  0  0  0  0
  -26.2810  -34.8760   22.2610 O   0  0  0  0  0  0  0  0  0  0  0  0
  -24.7370  -33.9720   24.8460 H   0  0  0  0  0  0  0  0  0  0  0  0
  -23.8240  -36.6780   22.9850 C   0  0  0  0  0  1  0  0  0  0  0  0
  -25.0800  -36.2970   23.7850 C   0  0  0  0  0  3  0  0  0  0  0  0
  -27.1860  -37.2390   24.6310 C   0  0  0  0  0  1  0  0  0  0  0  0
  -26.0740  -37.3890   23.6950 N   0  0  0  0  0  0  0  0  0  0  0  0
  -25.6370  -38.2900   23.8650 H   0  0  0  0  0  0  0  0  0  0  0  0
  2 50  1  0
  2  1  2  0
  3  4  2  0
  3  2  1  0
  4  5  1  0
  5  1  1  0
  6  9  1  0
  7  5  1  0
  7  6  1  0
  8 18  1  0
  8  7  1  0
  8  9  1  0
  9 48  1  0
 10 18  1  0
 11 16  1  0
 12 13  1  0
 12 11  1  0
 14 13  1  0
 14 23  1  0
 14 15  1  0
 16 10  1  0
 16 15  1  0
 17 10  2  0
 18 19  1  0
 20 21  2  0
 21 40  1  0
 22 21  1  0
 22 25  1  0
 23 24  1  0
 23 20  1  0
 24 22  2  0
 25 26  1  0
 26 27  2  0
 28 31  1  0
 28 27  1  0
 29 28  2  0
 30 29  1  0
 30 25  2  0
 31 32  1  0
 32 33  1  0
 33 34  2  0
 35 34  1  0
 35 39  1  0
 36 35  2  0
 37 32  2  0
 37 36  1  0
 38 37  1  0
 40 41  1  0
 41 44  1  0
 41 43  1  0
 42 40  2  0
 45 20  1  0
 45 46  1  0
 47 45  1  0
 48 49  1  0
 50 51  1  0
 52 63  2  0
 53 51  1  0
 53 58  1  0
 54 62  1  0
 54 64  1  0
 55 61  1  0
 55 57  1  0
 56 62  1  0
 57 58  2  0
 57 56  1  0
 59 53  2  0
 60 59  1  0
 60 55  2  0
 61 54  1  0
 62 52  1  0
 64 66  2  0
 65 64  1  0
 67 65  1  0
 68 77  2  0
 68 73  1  0
 69 65  1  0
 69 73  1  0
 70 69  1  0
 71 72  1  0
 71 70  1  0
 72 68  1  0
 73 74  2  0
 74 75  1  0
 76 75  2  0
 77 76  1  0
 78 52  1  0
 78 83  1  0
 78 79  1  0
 79 82  1  1
 79 80  1  0
 81 79  1  0
 83 86  1  0
 84 88  1  0
 84 83  1  0
 85 84  2  0
 88 87  1  0
 90 88  1  0
 90 91  1  0
 90 89  1  0
M  ISO  4  10 100  18 100  50 101  51 101
M  END
>  <TORSDO>  (32) 
F 19

>  <SCORE>  (32) 
-12.543

>  <name>  (32) 
31

>  <ligand_id>  (32) 
31

>  <original_smiles>  (32) 
[H]OC1([H])C([H])([H])C([H])(n2nnc(C([H])([H])Oc3c([H])c([H])c4c(c3[H])C([H])([H])N(C(=O)C([H])(N([H])C(=O)C([H])(N([H])C([H])([H])[H])C([H])([H])[H])C(C([H])([H])[H])(C([H])([H])[H])C([H])([H])[H])C([H])(C(=O)N([H])C3([H])c5c([H])c([H])c([H])c([H])c5C([H])([H])C([H])([H])C3([H])[H])C4([H])[H])c2[H])C1([H])N([H])C(=O)N1C([H])([H])C([H])([H])C([H])([H])C([H])(n2nc(-c3c([H])c([H])c(Oc4c([H])c([H])c(F)c([H])c4F)c([H])c3[H])c(C(=O)N([H])[H])c2N([H])[H])C1([H])[H]

>  <smiles>  (32) 
[H]OC1([H])C([H])([H])C([H])(n2nnc(C([H])([H])Oc3c([H])c([H])c4c(c3[H])C([H])([H])N(C(=O)C([H])(N([H])C(=O)C([H])(N([H])C([H])([H])[H])C([H])([H])[H])C(C([H])([H])[H])(C([H])([H])[H])C([H])([H])[H])C([H])(C(=O)N([H])C3([H])c5c([H])c([H])c([H])c([H])c5C([H])([H])C([H])([H])C3([H])[H])C4([H])[H])c2[H])C1([H])N([H])C(=O)N1C([H])([H])C([H])([H])C([H])([H])C([H])(n2nc(-c3c([H])c([H])c(Oc4c([H])c([H])c(F)c([H])c4F)c([H])c3[H])c(C(=O)N([H])[H])c2N([H])[H])C1([H])[H]

$$$$
32:0:0
     RDKit          3D

 91100  0  0  1  0  0  0  0  0999 V2000
  -30.0340  -23.8620   21.1410 C   0  0  0  0  0  3  0  0  0  0  0  0
  -29.0030  -23.9260   20.2350 C   0  0  0  0  0  0  0  0  0  0  0  0
  -29.5460  -21.6280   20.1060 C   0  0  0  0  0  0  0  0  0  0  0  0
  -28.7630  -22.6450   19.6740 N   0  0  0  0  0  0  0  0  0  0  0  0
  -30.7050  -22.2330   21.2970 S   0  0  0  0  0  0  0  0  0  0  0  0
  -28.0600  -25.0840   19.8450 C   0  0  0  0  0  2  0  0  0  0  0  0
  -28.3200  -26.4860   20.2230 O   0  0  0  0  0  0  0  0  0  0  0  0
  -24.6110  -31.8760   23.2530 C   0  0  0  0  0  0  0  0  0  0  0  0
  -27.2110  -27.3480   20.1530 C   0  0  0  0  0  0  0  0  0  0  0  0
  -23.4010  -30.4890   21.6110 C   0  0  0  0  0  3  0  0  0  0  0  0
  -24.8460  -28.9590   20.1680 C   0  0  0  0  0  0  0  0  0  0  0  0
  -25.9390  -30.8090   21.4210 C   0  0  0  0  0  2  0  0  0  0  0  0
  -26.0170  -29.4360   20.7680 C   0  0  0  0  0  0  0  0  0  0  0  0
  -27.2010  -28.6420   20.7600 C   0  0  0  0  0  3  0  0  0  0  0  0
  -26.0140  -26.9400   19.5090 C   0  0  0  0  0  3  0  0  0  0  0  0
  -24.8450  -27.7130   19.5320 C   0  0  0  0  0  3  0  0  0  0  0  0
  -23.6090  -29.8300   20.2240 C   0  0  0  0  0  2  0  0  0  0  0  0
  -24.6690  -31.0740   22.1510 N   0  0  0  0  0  0  0  0  0  0  0  0
  -23.5290  -32.1500   23.7930 O   0  0  0  0  0  0  0  0  0  0  0  0
  -22.7450  -29.4600   22.5630 C   0  0  0  0  0  0  0  0  0  0  0  0
  -21.4180  -29.2820   22.4390 N   0  0  0  0  0  0  0  0  0  0  0  0
  -23.4260  -28.8290   23.3760 O   0  0  0  0  0  0  0  0  0  0  0  0
  -20.9280  -29.8430   21.7560 H   0  0  0  0  0  0  0  0  0  0  0  0
  -18.0410  -28.0890   22.9410 C   0  0  0  0  0  0  0  0  0  0  0  0
  -20.6000  -28.3440   23.2080 C   0  0  0  0  0  3  0  0  0  0  0  0
  -20.7000  -26.9130   22.6290 C   0  0  0  0  0  2  0  0  0  0  0  0
  -19.5960  -26.5940   21.6160 C   0  0  0  0  0  2  0  0  0  0  0  0
  -18.2150  -26.7400   22.2620 C   0  0  0  0  0  2  0  0  0  0  0  0
  -19.1610  -28.8480   23.3710 C   0  0  0  0  0  0  0  0  0  0  0  0
  -18.9440  -30.1100   23.9670 C   0  0  0  0  0  3  0  0  0  0  0  0
  -17.6400  -30.6120   24.1350 C   0  0  0  0  0  3  0  0  0  0  0  0
  -16.5340  -29.8500   23.7210 C   0  0  0  0  0  3  0  0  0  0  0  0
  -16.7360  -28.5900   23.1290 C   0  0  0  0  0  3  0  0  0  0  0  0
  -25.8960  -32.5030   23.8720 C   0  0  0  0  0  3  0  0  0  0  0  0
  -26.4150  -31.7290   25.1460 C   0  0  1  0  0  0  0  0  0  0  0  0
  -25.3220  -31.4920   26.2140 C   0  0  0  0  0  1  0  0  0  0  0  0
  -26.9940  -30.3510   24.7490 C   0  0  0  0  0  1  0  0  0  0  0  0
  -27.5690  -32.5190   25.8070 C   0  0  0  0  0  1  0  0  0  0  0  0
  -25.5900  -33.9020   24.2040 N   0  0  0  0  0  0  0  0  0  0  0  0
  -25.9130  -34.9530   23.4400 C   0  0  0  0  0  0  0  0  0  0  0  0
  -26.5720  -34.8480   22.4010 O   0  0  0  0  0  0  0  0  0  0  0  0
  -25.0050  -34.0580   25.0110 H   0  0  0  0  0  0  0  0  0  0  0  0
  -24.1780  -36.7430   23.1060 C   0  0  0  0  0  1  0  0  0  0  0  0
  -25.4310  -36.3410   23.9010 C   0  0  0  0  0  3  0  0  0  0  0  0
  -27.5760  -37.2320   24.7010 C   0  0  0  0  0  1  0  0  0  0  0  0
  -26.4610  -37.3960   23.7720 N   0  0  0  0  0  0  0  0  0  0  0  0
  -26.0550  -38.3150   23.9240 H   0  0  0  0  0  0  0  0  0  0  0  0
  -29.4370  -20.2000   19.5230 C   0  0  0  0  0  2  0  0  0  0  0  0
  -29.4420  -18.1940   21.1330 C   0  0  0  0  0  2  0  0  0  0  0  0
  -30.6100  -17.9620   19.4980 C   0  0  0  0  0  2  0  0  0  0  0  0
  -30.4950  -17.1190   20.7790 C   0  0  0  0  0  3  0  0  0  0  0  0
  -30.2070  -19.1550   20.2950 N   0  0  1  0  0  4  0  0  0  0  0  0
  -30.9990  -19.5430   20.7820 H   0  0  0  0  0  0  0  0  0  0  0  0
  -30.7220  -14.6140   20.2230 C   0  0  0  0  0  0  0  0  0  0  0  0
  -30.3960  -12.4110   19.1260 C   0  0  0  0  0  2  0  0  0  0  0  0
  -29.4320  -12.5830   17.9340 C   0  0  0  0  0  2  0  0  0  0  0  0
  -27.9650  -12.4490   18.3960 C   0  0  0  0  0  2  0  0  0  0  0  0
  -27.6540  -13.3060   19.6530 C   0  0  0  0  0  3  0  0  0  0  0  0
  -28.7360  -13.1280   20.7420 C   0  0  0  0  0  2  0  0  0  0  0  0
  -30.0410  -13.4300   20.1330 N   0  0  0  0  0  0  0  0  0  0  0  0
  -31.8640  -14.7450   19.7770 O   0  0  0  0  0  0  0  0  0  0  0  0
  -30.0250  -15.6970   20.6640 N   0  0  0  0  0  0  0  0  0  0  0  0
  -29.0850  -15.5010   20.9790 H   0  0  0  0  0  0  0  0  0  0  0  0
  -25.2820  -13.9320   20.4240 C   0  0  0  0  0  0  0  0  0  0  0  0
  -24.2150  -13.1720   20.8220 C   0  0  0  0  0  0  0  0  0  0  0  0
  -24.6620  -11.8150   20.7810 C   0  0  0  0  0  0  0  0  0  0  0  0
  -26.3110  -13.0400   20.1680 N   0  0  0  0  0  0  0  0  0  0  0  0
  -25.9440  -11.7610   20.4410 N   0  0  0  0  0  0  0  0  0  0  0  0
  -23.9260  -10.5610   20.9900 C   0  0  0  0  0  0  0  0  0  0  0  0
  -24.3710   -9.5880   21.9120 C   0  0  0  0  0  3  0  0  0  0  0  0
  -23.6380   -8.3990   22.1090 C   0  0  0  0  0  3  0  0  0  0  0  0
  -22.4420   -8.1750   21.3850 C   0  0  0  0  0  0  0  0  0  0  0  0
  -22.0150   -9.1360   20.4510 C   0  0  0  0  0  3  0  0  0  0  0  0
  -22.7500  -10.3160   20.2540 C   0  0  0  0  0  3  0  0  0  0  0  0
  -21.6760   -7.0390   21.4930 O   0  0  0  0  0  0  0  0  0  0  0  0
  -21.6510   -6.2950   22.6450 C   0  0  0  0  0  0  0  0  0  0  0  0
  -21.2640   -6.8500   23.8840 C   0  0  0  0  0  3  0  0  0  0  0  0
  -21.1850   -6.0330   25.0290 C   0  0  0  0  0  3  0  0  0  0  0  0
  -21.4820   -4.6600   24.9360 C   0  0  0  0  0  0  0  0  0  0  0  0
  -21.8600   -4.1030   23.7020 C   0  0  0  0  0  3  0  0  0  0  0  0
  -21.9420   -4.9170   22.5600 C   0  0  0  0  0  0  0  0  0  0  0  0
  -22.2880   -4.3710   21.3680 F   0  0  0  0  0  0  0  0  0  0  0  0
  -21.3990   -3.8720   26.0340 F   0  0  0  0  0  0  0  0  0  0  0  0
  -22.8290  -13.6640   21.1230 C   0  0  0  0  0  0  0  0  0  0  0  0
  -22.1120  -12.9790   22.0070 N   0  0  0  0  0  0  0  0  0  0  0  0
  -22.3910  -14.6930   20.6110 O   0  0  0  0  0  0  0  0  0  0  0  0
  -22.4790  -12.1490   22.4480 H   0  0  0  0  0  0  0  0  0  0  0  0
  -21.1820  -13.2930   22.2480 H   0  0  0  0  0  0  0  0  0  0  0  0
  -25.4550  -15.3000   20.2380 N   0  0  0  0  0  0  0  0  0  0  0  0
  -24.6880  -15.9560   20.3500 H   0  0  0  0  0  0  0  0  0  0  0  0
  -26.2890  -15.7280   19.8580 H   0  0  0  0  0  0  0  0  0  0  0  0
  1  5  1  0
  2  1  2  0
  3  5  1  0
  4  3  2  0
  4  2  1  0
  6  7  1  0
  6  2  1  0
  8 19  2  0
  9  7  1  0
  9 14  1  0
 10 18  1  0
 10 20  1  0
 11 17  1  0
 11 13  1  0
 12 18  1  0
 13 12  1  0
 14 13  2  0
 15 16  1  0
 15  9  2  0
 16 11  2  0
 17 10  1  0
 18  8  1  0
 20 22  2  0
 21 20  1  0
 23 21  1  0
 24 33  2  0
 24 29  1  0
 25 21  1  0
 25 29  1  0
 26 25  1  0
 27 28  1  0
 27 26  1  0
 28 24  1  0
 29 30  2  0
 30 31  1  0
 32 31  2  0
 33 32  1  0
 34  8  1  0
 34 39  1  0
 34 35  1  0
 35 38  1  1
 35 36  1  0
 37 35  1  0
 39 42  1  0
 40 44  1  0
 40 39  1  0
 41 40  2  0
 44 43  1  0
 46 44  1  0
 46 47  1  0
 46 45  1  0
 48  3  1  0
 48 52  1  0
 50 52  1  0
 50 51  1  0
 51 62  1  0
 51 49  1  0
 52 53  1  1
 52 49  1  0
 54 62  1  0
 55 60  1  0
 56 57  1  0
 56 55  1  0
 58 57  1  0
 58 67  1  0
 58 59  1  0
 60 54  1  0
 60 59  1  0
 61 54  2  0
 62 63  1  0
 64 65  2  0
 65 84  1  0
 66 65  1  0
 66 69  1  0
 67 64  1  0
 67 68  1  0
 68 66  2  0
 69 70  1  0
 70 71  2  0
 72 75  1  0
 72 71  1  0
 73 72  2  0
 74 73  1  0
 74 69  2  0
 75 76  1  0
 76 77  1  0
 77 78  2  0
 79 78  1  0
 79 83  1  0
 80 79  2  0
 81 76  2  0
 81 80  1  0
 82 81  1  0
 84 85  1  0
 85 88  1  0
 85 87  1  0
 86 84  2  0
 89 90  1  0
 89 64  1  0
 91 89  1  0
M  ISO  4   6 101   7 101  54 100  62 100
M  END
>  <TORSDO>  (33) 
F 19

>  <SCORE>  (33) 
-14.086

>  <name>  (33) 
32

>  <ligand_id>  (33) 
32

>  <original_smiles>  (33) 
[H]c1sc(C([H])([H])[N+]2([H])C([H])([H])C([H])(N([H])C(=O)N3C([H])([H])C([H])([H])C([H])([H])C([H])(n4nc(-c5c([H])c([H])c(Oc6c([H])c([H])c(F)c([H])c6F)c([H])c5[H])c(C(=O)N([H])[H])c4N([H])[H])C3([H])[H])C2([H])[H])nc1C([H])([H])Oc1c([H])c([H])c2c(c1[H])C([H])([H])N(C(=O)C([H])(N([H])C(=O)C([H])(N([H])C([H])([H])[H])C([H])([H])[H])C(C([H])([H])[H])(C([H])([H])[H])C([H])([H])[H])C([H])(C(=O)N([H])C1([H])c3c([H])c([H])c([H])c([H])c3C([H])([H])C([H])([H])C1([H])[H])C2([H])[H]

>  <smiles>  (33) 
[H]c1sc(C([H])([H])[N+]2([H])C([H])([H])C([H])(N([H])C(=O)N3C([H])([H])C([H])([H])C([H])([H])C([H])(n4nc(-c5c([H])c([H])c(Oc6c([H])c([H])c(F)c([H])c6F)c([H])c5[H])c(C(=O)N([H])[H])c4N([H])[H])C3([H])[H])C2([H])[H])nc1C([H])([H])Oc1c([H])c([H])c2c(c1[H])C([H])([H])N(C(=O)C([H])(N([H])C(=O)C([H])(N([H])C([H])([H])[H])C([H])([H])[H])C(C([H])([H])[H])(C([H])([H])[H])C([H])([H])[H])C([H])(C(=O)N([H])C1([H])c3c([H])c([H])c([H])c([H])c3C([H])([H])C([H])([H])C1([H])[H])C2([H])[H]

$$$$
33:0:0
     RDKit          3D

 94103  0  0  1  0  0  0  0  0999 V2000
  -29.2560  -20.4330   19.9150 C   0  0  0  0  0  0  0  0  0  0  0  0
  -28.6870  -22.9760   19.9420 C   0  0  0  0  0  0  0  0  0  0  0  0
  -29.7900  -20.6990   18.6250 C   0  0  0  0  0  0  0  0  0  0  0  0
  -29.2020  -23.0030   18.6160 C   0  0  0  0  0  0  0  0  0  0  0  0
  -29.1870  -24.0660   16.3740 C   0  0  0  0  0  1  0  0  0  0  0  0
  -28.7150  -21.6370   20.5500 N   0  0  0  0  0  0  0  0  0  0  0  0
  -29.7530  -21.9100   18.0170 N   0  0  0  0  0  0  0  0  0  0  0  0
  -29.1320  -24.1660   17.8330 N   0  0  0  0  0  0  0  0  0  0  0  0
  -28.6480  -24.9670   18.2320 H   0  0  0  0  0  0  0  0  0  0  0  0
  -30.5050  -15.1870   20.2650 C   0  0  0  0  0  0  0  0  0  0  0  0
  -30.3960  -12.7850   19.3610 C   0  0  0  0  0  2  0  0  0  0  0  0
  -29.4720  -12.6340   18.1310 C   0  0  0  0  0  2  0  0  0  0  0  0
  -28.0180  -12.3950   18.5720 C   0  0  0  0  0  2  0  0  0  0  0  0
  -27.5860  -13.3440   19.7170 C   0  0  0  0  0  3  0  0  0  0  0  0
  -28.6380  -13.4590   20.8430 C   0  0  0  0  0  2  0  0  0  0  0  0
  -29.8810  -13.9210   20.2090 N   0  0  0  0  0  0  0  0  0  0  0  0
  -31.7180  -15.1490   20.0180 O   0  0  0  0  0  0  0  0  0  0  0  0
  -28.9380  -17.3980   19.7000 C   0  0  0  0  0  2  0  0  0  0  0  0
  -30.5890  -17.8310   20.7730 C   0  0  0  0  0  2  0  0  0  0  0  0
  -29.3310  -18.7900   20.4530 C   0  0  0  0  0  3  0  0  0  0  0  0
  -29.8710  -16.4920   20.5160 N   0  0  0  0  0  0  0  0  0  0  0  0
  -25.2080  -13.8950   20.4570 C   0  0  0  0  0  0  0  0  0  0  0  0
  -24.1490  -13.1130   20.8250 C   0  0  0  0  0  0  0  0  0  0  0  0
  -24.6250  -11.7650   20.8030 C   0  0  0  0  0  0  0  0  0  0  0  0
  -26.2570  -13.0260   20.2230 N   0  0  0  0  0  0  0  0  0  0  0  0
  -25.9180  -11.7380   20.5010 N   0  0  0  0  0  0  0  0  0  0  0  0
  -23.9030  -10.4990   20.9960 C   0  0  0  0  0  0  0  0  0  0  0  0
  -24.3290   -9.5420   21.9440 C   0  0  0  0  0  3  0  0  0  0  0  0
  -23.6080   -8.3430   22.1260 C   0  0  0  0  0  3  0  0  0  0  0  0
  -22.4450   -8.0920   21.3600 C   0  0  0  0  0  0  0  0  0  0  0  0
  -22.0380   -9.0360   20.4000 C   0  0  0  0  0  3  0  0  0  0  0  0
  -22.7600  -10.2260   20.2170 C   0  0  0  0  0  3  0  0  0  0  0  0
  -21.6940   -6.9440   21.4500 O   0  0  0  0  0  0  0  0  0  0  0  0
  -21.6310   -6.2150   22.6100 C   0  0  0  0  0  0  0  0  0  0  0  0
  -21.1820   -6.7800   23.8240 C   0  0  0  0  0  3  0  0  0  0  0  0
  -21.0700   -5.9770   24.9770 C   0  0  0  0  0  3  0  0  0  0  0  0
  -21.3920   -4.6080   24.9160 C   0  0  0  0  0  0  0  0  0  0  0  0
  -21.8340   -4.0410   23.7070 C   0  0  0  0  0  3  0  0  0  0  0  0
  -21.9500   -4.8420   22.5570 C   0  0  0  0  0  0  0  0  0  0  0  0
  -22.3560   -4.2850   21.3900 F   0  0  0  0  0  0  0  0  0  0  0  0
  -21.2770   -3.8350   26.0200 F   0  0  0  0  0  0  0  0  0  0  0  0
  -22.7460  -13.5800   21.0800 C   0  0  0  0  0  0  0  0  0  0  0  0
  -22.0170  -12.8830   21.9440 N   0  0  0  0  0  0  0  0  0  0  0  0
  -22.3060  -14.6010   20.5520 O   0  0  0  0  0  0  0  0  0  0  0  0
  -22.3870  -12.0600   22.3950 H   0  0  0  0  0  0  0  0  0  0  0  0
  -21.0760  -13.1760   22.1600 H   0  0  0  0  0  0  0  0  0  0  0  0
  -25.3630  -15.2660   20.2730 N   0  0  0  0  0  0  0  0  0  0  0  0
  -24.6010  -15.9220   20.3990 H   0  0  0  0  0  0  0  0  0  0  0  0
  -26.2190  -15.7060   19.9590 H   0  0  0  0  0  0  0  0  0  0  0  0
  -30.4010  -19.7110   17.8620 N   0  0  0  0  0  0  0  0  0  0  0  0
  -30.5530  -18.7760   18.2140 H   0  0  0  0  0  0  0  0  0  0  0  0
  -30.8520  -19.9280   16.9810 H   0  0  0  0  0  0  0  0  0  0  0  0
  -27.9460  -24.4030   20.5450 C   0  0  0  0  0  2  0  0  0  0  0  0
  -28.2330  -25.9760   20.2600 O   0  0  0  0  0  0  0  0  0  0  0  0
  -24.6210  -31.8860   23.2110 C   0  0  0  0  0  0  0  0  0  0  0  0
  -27.2070  -27.0350   20.2520 C   0  0  0  0  0  0  0  0  0  0  0  0
  -23.4400  -30.4700   21.5790 C   0  0  0  0  0  3  0  0  0  0  0  0
  -24.8970  -28.8630   20.1840 C   0  0  0  0  0  0  0  0  0  0  0  0
  -26.0040  -30.7000   21.4430 C   0  0  0  0  0  2  0  0  0  0  0  0
  -26.0810  -29.2900   20.8020 C   0  0  0  0  0  0  0  0  0  0  0  0
  -27.2350  -28.3970   20.8110 C   0  0  0  0  0  3  0  0  0  0  0  0
  -25.9960  -26.7430   19.5890 C   0  0  0  0  0  3  0  0  0  0  0  0
  -24.8750  -27.6070   19.5590 C   0  0  0  0  0  3  0  0  0  0  0  0
  -23.6760  -29.7780   20.2100 C   0  0  0  0  0  2  0  0  0  0  0  0
  -24.7090  -31.0450   22.1310 N   0  0  0  0  0  0  0  0  0  0  0  0
  -23.5280  -32.1770   23.7220 O   0  0  0  0  0  0  0  0  0  0  0  0
  -22.7470  -29.4780   22.5460 C   0  0  0  0  0  0  0  0  0  0  0  0
  -21.4170  -29.3170   22.4220 N   0  0  0  0  0  0  0  0  0  0  0  0
  -23.4120  -28.8540   23.3780 O   0  0  0  0  0  0  0  0  0  0  0  0
  -20.9370  -29.8760   21.7290 H   0  0  0  0  0  0  0  0  0  0  0  0
  -18.0260  -28.1420   22.9470 C   0  0  0  0  0  0  0  0  0  0  0  0
  -20.5900  -28.3870   23.1950 C   0  0  0  0  0  3  0  0  0  0  0  0
  -20.6740  -26.9530   22.6210 C   0  0  0  0  0  2  0  0  0  0  0  0
  -19.5630  -26.6400   21.6130 C   0  0  0  0  0  2  0  0  0  0  0  0
  -18.1880  -26.7930   22.2660 C   0  0  0  0  0  2  0  0  0  0  0  0
  -19.1530  -28.8960   23.3680 C   0  0  0  0  0  0  0  0  0  0  0  0
  -18.9470  -30.1580   23.9680 C   0  0  0  0  0  3  0  0  0  0  0  0
  -17.6460  -30.6660   24.1460 C   0  0  0  0  0  3  0  0  0  0  0  0
  -16.5330  -29.9090   23.7370 C   0  0  0  0  0  3  0  0  0  0  0  0
  -16.7250  -28.6470   23.1460 C   0  0  0  0  0  3  0  0  0  0  0  0
  -25.8890  -32.5320   23.8450 C   0  0  0  0  0  3  0  0  0  0  0  0
  -25.5660  -33.9320   24.1680 N   0  0  0  0  0  0  0  0  0  0  0  0
  -25.9000  -34.9890   23.4160 C   0  0  0  0  0  0  0  0  0  0  0  0
  -26.5780  -34.8880   22.3900 O   0  0  0  0  0  0  0  0  0  0  0  0
  -24.9610  -34.0830   24.9620 H   0  0  0  0  0  0  0  0  0  0  0  0
  -24.1710  -36.7850   23.0520 C   0  0  0  0  0  1  0  0  0  0  0  0
  -25.4060  -36.3790   23.8720 C   0  0  0  0  0  3  0  0  0  0  0  0
  -27.5320  -37.2680   24.7220 C   0  0  0  0  0  1  0  0  0  0  0  0
  -26.4380  -37.4360   23.7690 N   0  0  0  0  0  0  0  0  0  0  0  0
  -26.0300  -38.3550   23.9140 H   0  0  0  0  0  0  0  0  0  0  0  0
  -26.3870  -31.7790   25.1410 C   0  0  1  0  0  0  0  0  0  0  0  0
  -25.2800  -31.5510   26.1990 C   0  0  0  0  0  1  0  0  0  0  0  0
  -26.9790  -30.3980   24.7820 C   0  0  0  0  0  1  0  0  0  0  0  0
  -27.5280  -32.5850   25.8070 C   0  0  0  0  0  1  0  0  0  0  0  0
  1  6  1  0
  2 53  1  0
  2  6  2  0
  3  1  2  0
  4  2  1  0
  5  8  1  0
  7  4  2  0
  7  3  1  0
  8  9  1  0
  8  4  1  0
 10 21  1  0
 11 16  1  0
 12 13  1  0
 12 11  1  0
 14 13  1  0
 14 25  1  0
 14 15  1  0
 16 10  1  0
 16 15  1  0
 17 10  2  0
 18 20  1  0
 18 21  1  0
 20  1  1  0
 20 19  1  0
 21 19  1  0
 22 23  2  0
 23 42  1  0
 24 23  1  0
 24 27  1  0
 25 22  1  0
 25 26  1  0
 26 24  2  0
 27 28  1  0
 28 29  2  0
 30 33  1  0
 30 29  1  0
 31 30  2  0
 32 31  1  0
 32 27  2  0
 33 34  1  0
 34 35  1  0
 35 36  2  0
 37 36  1  0
 37 41  1  0
 38 37  2  0
 39 34  2  0
 39 38  1  0
 40 39  1  0
 42 43  1  0
 43 46  1  0
 43 45  1  0
 44 42  2  0
 47 48  1  0
 47 22  1  0
 49 47  1  0
 50 51  1  0
 50  3  1  0
 52 50  1  0
 54 53  1  0
 55 66  2  0
 56 54  1  0
 56 61  1  0
 57 65  1  0
 57 67  1  0
 58 64  1  0
 58 60  1  0
 59 65  1  0
 60 61  2  0
 60 59  1  0
 62 56  2  0
 63 62  1  0
 63 58  2  0
 64 57  1  0
 65 55  1  0
 67 69  2  0
 68 67  1  0
 70 68  1  0
 71 80  2  0
 71 76  1  0
 72 68  1  0
 72 76  1  0
 73 72  1  0
 74 75  1  0
 74 73  1  0
 75 71  1  0
 76 77  2  0
 77 78  1  0
 79 78  2  0
 80 79  1  0
 81 55  1  0
 81 82  1  0
 81 91  1  0
 82 85  1  0
 83 87  1  0
 83 82  1  0
 84 83  2  0
 87 86  1  0
 89 87  1  0
 89 90  1  0
 89 88  1  0
 91 94  1  1
 91 92  1  0
 93 91  1  0
M  ISO  4  10 100  21 100  53 101  54 101
M  END
>  <TORSDO>  (34) 
F 18

>  <SCORE>  (34) 
-16.038

>  <name>  (34) 
33

>  <ligand_id>  (34) 
33

>  <original_smiles>  (34) 
[H]c1c([H])c([H])c2c(c1[H])C([H])([H])C([H])([H])C([H])([H])C2([H])N([H])C(=O)C1([H])N(C(=O)C([H])(N([H])C(=O)C([H])(N([H])C([H])([H])[H])C([H])([H])[H])C(C([H])([H])[H])(C([H])([H])[H])C([H])([H])[H])C([H])([H])c2c([H])c(OC([H])([H])c3nc(C4([H])C([H])([H])N(C(=O)N5C([H])([H])C([H])([H])C([H])([H])C([H])(n6nc(-c7c([H])c([H])c(Oc8c([H])c([H])c(F)c([H])c8F)c([H])c7[H])c(C(=O)N([H])[H])c6N([H])[H])C5([H])[H])C4([H])[H])c(N([H])[H])nc3N([H])C([H])([H])[H])c([H])c([H])c2C1([H])[H]

>  <smiles>  (34) 
[H]c1c([H])c([H])c2c(c1[H])C([H])([H])C([H])([H])C([H])([H])C2([H])N([H])C(=O)C1([H])N(C(=O)C([H])(N([H])C(=O)C([H])(N([H])C([H])([H])[H])C([H])([H])[H])C(C([H])([H])[H])(C([H])([H])[H])C([H])([H])[H])C([H])([H])c2c([H])c(OC([H])([H])c3nc(C4([H])C([H])([H])N(C(=O)N5C([H])([H])C([H])([H])C([H])([H])C([H])(n6nc(-c7c([H])c([H])c(Oc8c([H])c([H])c(F)c([H])c8F)c([H])c7[H])c(C(=O)N([H])[H])c6N([H])[H])C5([H])[H])C4([H])[H])c(N([H])[H])nc3N([H])C([H])([H])[H])c([H])c([H])c2C1([H])[H]

$$$$
34:0:0
     RDKit          3D

 90 99  0  0  1  0  0  0  0  0999 V2000
  -30.6310  -15.7560   20.1350 C   0  0  0  0  0  0  0  0  0  0  0  0
  -30.6220  -13.2720   19.3530 C   0  0  0  0  0  2  0  0  0  0  0  0
  -29.7250  -12.9280   18.1390 C   0  0  0  0  0  2  0  0  0  0  0  0
  -28.2980  -12.6180   18.6080 C   0  0  0  0  0  2  0  0  0  0  0  0
  -27.7980  -13.6500   19.6500 C   0  0  0  0  0  3  0  0  0  0  0  0
  -28.8270  -13.9350   20.7650 C   0  0  0  0  0  2  0  0  0  0  0  0
  -30.0260  -14.4600   20.0870 N   0  0  0  0  0  0  0  0  0  0  0  0
  -31.8630  -15.6590   20.0060 O   0  0  0  0  0  0  0  0  0  0  0  0
  -26.4150  -23.1610   20.7600 C   0  0  0  0  0  3  0  0  0  0  0  0
  -28.3370  -22.1150   20.1030 C   0  0  0  0  0  0  0  0  0  0  0  0
  -27.9450  -24.6250   19.9720 C   0  0  0  0  0  0  0  0  0  0  0  0
  -30.1640  -19.9680   19.4090 C   0  0  0  0  0  3  0  0  0  0  0  0
  -28.2900  -19.3700   20.6070 C   0  0  0  0  0  3  0  0  0  0  0  0
  -30.7910  -18.4930   19.9770 C   0  0  0  0  0  3  0  0  0  0  0  0
  -28.6180  -17.7640   20.1490 C   0  0  0  0  0  3  0  0  0  0  0  0
  -25.0220  -23.0010   21.3340 C   0  0  0  0  0  1  0  0  0  0  0  0
  -27.1140  -22.0320   20.6100 N   0  0  0  0  0  0  0  0  0  0  0  0
  -26.7430  -24.4190   20.4820 N   0  0  0  0  0  0  0  0  0  0  0  0
  -28.7980  -23.4520   19.7670 N   0  0  0  0  0  0  0  0  0  0  0  0
  -28.9510  -20.6470   20.0370 N   0  0  0  0  0  0  0  0  0  0  0  0
  -30.0210  -17.1420   20.0930 N   0  0  0  0  0  0  0  0  0  0  0  0
  -25.4280  -14.1830   20.4090 C   0  0  0  0  0  0  0  0  0  0  0  0
  -24.3730  -13.3970   20.7750 C   0  0  0  0  0  0  0  0  0  0  0  0
  -24.8570  -12.0520   20.7530 C   0  0  0  0  0  0  0  0  0  0  0  0
  -26.4800  -13.3190   20.1700 N   0  0  0  0  0  0  0  0  0  0  0  0
  -26.1500  -12.0310   20.4490 N   0  0  0  0  0  0  0  0  0  0  0  0
  -24.1440  -10.7810   20.9460 C   0  0  0  0  0  0  0  0  0  0  0  0
  -24.5570   -9.8370   21.9110 C   0  0  0  0  0  3  0  0  0  0  0  0
  -23.8400   -8.6350   22.0900 C   0  0  0  0  0  3  0  0  0  0  0  0
  -22.6950   -8.3670   21.3040 C   0  0  0  0  0  0  0  0  0  0  0  0
  -22.3020   -9.2990   20.3270 C   0  0  0  0  0  3  0  0  0  0  0  0
  -23.0190  -10.4940   20.1470 C   0  0  0  0  0  3  0  0  0  0  0  0
  -21.9510   -7.2160   21.3920 O   0  0  0  0  0  0  0  0  0  0  0  0
  -21.8540   -6.5090   22.5630 C   0  0  0  0  0  0  0  0  0  0  0  0
  -21.3130   -7.0790   23.7360 C   0  0  0  0  0  3  0  0  0  0  0  0
  -21.1730   -6.2940   24.8990 C   0  0  0  0  0  3  0  0  0  0  0  0
  -21.5630   -4.9420   24.8870 C   0  0  0  0  0  0  0  0  0  0  0  0
  -22.0940   -4.3720   23.7170 C   0  0  0  0  0  3  0  0  0  0  0  0
  -22.2350   -5.1530   22.5570 C   0  0  0  0  0  0  0  0  0  0  0  0
  -22.7310   -4.5930   21.4270 F   0  0  0  0  0  0  0  0  0  0  0  0
  -21.4180   -4.1850   26.0000 F   0  0  0  0  0  0  0  0  0  0  0  0
  -22.9700  -13.8590   21.0290 C   0  0  0  0  0  0  0  0  0  0  0  0
  -22.2480  -13.1620   21.9000 N   0  0  0  0  0  0  0  0  0  0  0  0
  -22.5240  -14.8710   20.4910 O   0  0  0  0  0  0  0  0  0  0  0  0
  -22.6270  -12.3400   22.3480 H   0  0  0  0  0  0  0  0  0  0  0  0
  -21.3080  -13.4520   22.1220 H   0  0  0  0  0  0  0  0  0  0  0  0
  -25.5830  -15.5540   20.2280 N   0  0  0  0  0  0  0  0  0  0  0  0
  -24.8170  -16.2070   20.3420 H   0  0  0  0  0  0  0  0  0  0  0  0
  -26.4300  -15.9860   19.8890 H   0  0  0  0  0  0  0  0  0  0  0  0
  -28.2190  -26.1030   19.7500 O   0  0  0  0  0  0  0  0  0  0  0  0
  -24.8750  -31.8870   23.4740 C   0  0  0  0  0  0  0  0  0  0  0  0
  -27.2560  -27.2580   19.8970 C   0  0  0  0  0  0  0  0  0  0  0  0
  -23.6280  -30.7010   21.7170 C   0  0  0  0  0  3  0  0  0  0  0  0
  -25.0190  -29.2280   20.1020 C   0  0  0  0  0  0  0  0  0  0  0  0
  -26.2010  -30.8490   21.5600 C   0  0  0  0  0  2  0  0  0  0  0  0
  -26.2250  -29.5120   20.7550 C   0  0  0  0  0  0  0  0  0  0  0  0
  -27.3360  -28.5500   20.6350 C   0  0  0  0  0  3  0  0  0  0  0  0
  -26.0310  -27.1700   19.1920 C   0  0  0  0  0  3  0  0  0  0  0  0
  -24.9480  -28.0770   19.3070 C   0  0  0  0  0  3  0  0  0  0  0  0
  -23.8250  -30.1710   20.2710 C   0  0  0  0  0  2  0  0  0  0  0  0
  -24.9260  -31.1690   22.3060 N   0  0  0  0  0  0  0  0  0  0  0  0
  -23.8000  -32.1470   24.0390 O   0  0  0  0  0  0  0  0  0  0  0  0
  -22.9230  -29.6230   22.5810 C   0  0  0  0  0  0  0  0  0  0  0  0
  -21.6040  -29.4420   22.3950 N   0  0  0  0  0  0  0  0  0  0  0  0
  -23.5720  -28.9530   23.3890 O   0  0  0  0  0  0  0  0  0  0  0  0
  -21.1350  -30.0280   21.7200 H   0  0  0  0  0  0  0  0  0  0  0  0
  -18.2250  -28.1560   22.7180 C   0  0  0  0  0  0  0  0  0  0  0  0
  -20.7750  -28.4310   23.0640 C   0  0  0  0  0  3  0  0  0  0  0  0
  -20.9090  -27.0520   22.3740 C   0  0  0  0  0  2  0  0  0  0  0  0
  -19.8360  -26.8050   21.3070 C   0  0  0  0  0  2  0  0  0  0  0  0
  -18.4370  -26.8790   21.9230 C   0  0  0  0  0  2  0  0  0  0  0  0
  -19.3230  -28.8940   23.2370 C   0  0  0  0  0  0  0  0  0  0  0  0
  -19.0690  -30.0940   23.9380 C   0  0  0  0  0  3  0  0  0  0  0  0
  -17.7520  -30.5540   24.1220 C   0  0  0  0  0  3  0  0  0  0  0  0
  -16.6700  -29.8130   23.6150 C   0  0  0  0  0  3  0  0  0  0  0  0
  -16.9060  -28.6140   22.9190 C   0  0  0  0  0  3  0  0  0  0  0  0
  -26.1680  -32.4330   24.1520 C   0  0  0  0  0  3  0  0  0  0  0  0
  -25.8970  -33.8080   24.6040 N   0  0  0  0  0  0  0  0  0  0  0  0
  -26.2070  -34.9180   23.9200 C   0  0  0  0  0  0  0  0  0  0  0  0
  -26.8140  -34.8890   22.8460 O   0  0  0  0  0  0  0  0  0  0  0  0
  -25.3450  -33.9030   25.4440 H   0  0  0  0  0  0  0  0  0  0  0  0
  -24.4800  -36.7510   23.8560 C   0  0  0  0  0  1  0  0  0  0  0  0
  -25.7820  -36.2750   24.5190 C   0  0  0  0  0  3  0  0  0  0  0  0
  -27.9820  -37.0990   25.2380 C   0  0  0  0  0  1  0  0  0  0  0  0
  -26.8160  -37.3270   24.3890 N   0  0  0  0  0  0  0  0  0  0  0  0
  -26.4310  -38.2390   24.6200 H   0  0  0  0  0  0  0  0  0  0  0  0
  -26.6470  -31.5490   25.3690 C   0  0  1  0  0  0  0  0  0  0  0  0
  -25.5390  -31.2710   26.4130 C   0  0  0  0  0  1  0  0  0  0  0  0
  -27.1840  -30.1820   24.8850 C   0  0  0  0  0  1  0  0  0  0  0  0
  -27.8210  -32.2490   26.0950 C   0  0  0  0  0  1  0  0  0  0  0  0
  2  7  1  0
  3  4  1  0
  3  2  1  0
  5  4  1  0
  5 25  1  0
  5  6  1  0
  7  1  1  0
  7  6  1  0
  8  1  2  0
  9 16  1  0
 10 17  2  0
 11 18  2  0
 12 14  2  0
 12 20  1  0
 14 21  1  0
 15 13  2  0
 17  9  1  0
 18  9  1  0
 19 11  2  0
 19 10  1  0
 20 10  1  0
 20 13  1  0
 21  1  1  0
 21 15  1  0
 22 23  2  0
 23 42  1  0
 24 23  1  0
 24 27  1  0
 25 22  1  0
 25 26  1  0
 26 24  2  0
 27 28  1  0
 28 29  2  0
 30 33  1  0
 30 29  1  0
 31 30  2  0
 32 31  1  0
 32 27  2  0
 33 34  1  0
 34 35  1  0
 35 36  2  0
 37 36  1  0
 37 41  1  0
 38 37  2  0
 39 34  2  0
 39 38  1  0
 40 39  1  0
 42 43  1  0
 43 46  1  0
 43 45  1  0
 44 42  2  0
 47 48  1  0
 47 22  1  0
 49 47  1  0
 50 52  1  0
 50 11  1  0
 51 62  2  0
 52 57  1  0
 53 61  1  0
 53 63  1  0
 54 60  1  0
 54 56  1  0
 55 61  1  0
 56 55  1  0
 57 56  2  0
 58 59  1  0
 58 52  2  0
 59 54  2  0
 60 53  1  0
 61 51  1  0
 63 65  2  0
 64 63  1  0
 66 64  1  0
 67 76  2  0
 67 72  1  0
 68 64  1  0
 68 72  1  0
 69 68  1  0
 70 71  1  0
 70 69  1  0
 71 67  1  0
 72 73  2  0
 73 74  1  0
 75 74  2  0
 76 75  1  0
 77 51  1  0
 77 78  1  0
 77 87  1  0
 78 81  1  0
 79 83  1  0
 79 78  1  0
 80 79  2  0
 83 82  1  0
 85 83  1  0
 85 86  1  0
 85 84  1  0
 87 90  1  1
 87 88  1  0
 89 87  1  0
M  ISO  4   1 100  11 101  21 100  50 101
M  END
>  <TORSDO>  (35) 
F 15

>  <SCORE>  (35) 
-14.751

>  <name>  (35) 
34

>  <ligand_id>  (35) 
34

>  <original_smiles>  (35) 
[H]c1c([H])c([H])c2c(c1[H])C([H])([H])C([H])([H])C([H])([H])C2([H])N([H])C(=O)C1([H])N(C(=O)C([H])(N([H])C(=O)C([H])(N([H])C([H])([H])[H])C([H])([H])[H])C(C([H])([H])[H])(C([H])([H])[H])C([H])([H])[H])C([H])([H])c2c([H])c(Oc3nc(N4C([H])([H])C([H])([H])N(C(=O)N5C([H])([H])C([H])([H])C([H])([H])C([H])(n6nc(-c7c([H])c([H])c(Oc8c([H])c([H])c(F)c([H])c8F)c([H])c7[H])c(C(=O)N([H])[H])c6N([H])[H])C5([H])[H])C([H])([H])C4([H])[H])nc(C([H])([H])[H])n3)c([H])c([H])c2C1([H])[H]

>  <smiles>  (35) 
[H]c1c([H])c([H])c2c(c1[H])C([H])([H])C([H])([H])C([H])([H])C2([H])N([H])C(=O)C1([H])N(C(=O)C([H])(N([H])C(=O)C([H])(N([H])C([H])([H])[H])C([H])([H])[H])C(C([H])([H])[H])(C([H])([H])[H])C([H])([H])[H])C([H])([H])c2c([H])c(Oc3nc(N4C([H])([H])C([H])([H])N(C(=O)N5C([H])([H])C([H])([H])C([H])([H])C([H])(n6nc(-c7c([H])c([H])c(Oc8c([H])c([H])c(F)c([H])c8F)c([H])c7[H])c(C(=O)N([H])[H])c6N([H])[H])C5([H])[H])C([H])([H])C4([H])[H])nc(C([H])([H])[H])n3)c([H])c([H])c2C1([H])[H]

$$$$
35:0:0
     RDKit          3D

 90 99  0  0  1  0  0  0  0  0999 V2000
  -30.2230  -21.1250   21.4870 C   0  0  0  0  0  3  0  0  0  0  0  0
  -28.3900  -21.8220   20.1370 C   0  0  0  0  0  3  0  0  0  0  0  0
  -29.1910  -20.6710   20.6190 C   0  0  0  0  0  0  0  0  0  0  0  0
  -30.4360  -22.5070   21.7760 C   0  0  0  0  0  0  0  0  0  0  0  0
  -28.6260  -23.2480   20.4730 C   0  0  0  0  0  0  0  0  0  0  0  0
  -31.5640  -22.9650   22.7040 C   0  0  0  0  0  1  0  0  0  0  0  0
  -29.6750  -23.5190   21.2850 N   0  0  0  0  0  0  0  0  0  0  0  0
  -29.7340  -18.4670   19.1290 C   0  0  0  0  0  2  0  0  0  0  0  0
  -28.9770  -19.0470   20.2990 C   0  0  0  0  0  3  0  0  0  0  0  0
  -29.9040  -17.6270   20.3800 C   0  0  0  0  0  3  0  0  0  0  0  0
  -30.2830  -14.9160   19.9850 C   0  0  0  0  0  0  0  0  0  0  0  0
  -30.1130  -12.6090   18.9160 C   0  0  0  0  0  2  0  0  0  0  0  0
  -29.0830  -12.5680   17.7640 C   0  0  0  0  0  2  0  0  0  0  0  0
  -27.6570  -12.3100   18.2980 C   0  0  0  0  0  2  0  0  0  0  0  0
  -27.3340  -13.1830   19.5410 C   0  0  0  0  0  3  0  0  0  0  0  0
  -28.4780  -13.1770   20.5780 C   0  0  0  0  0  2  0  0  0  0  0  0
  -29.6830  -13.6550   19.8890 N   0  0  0  0  0  0  0  0  0  0  0  0
  -31.4650  -14.9920   19.6330 O   0  0  0  0  0  0  0  0  0  0  0  0
  -29.5290  -16.1020   20.2640 N   0  0  0  0  0  0  0  0  0  0  0  0
  -28.5610  -15.9080   20.4780 H   0  0  0  0  0  0  0  0  0  0  0  0
  -25.0150  -13.6900   20.5010 C   0  0  0  0  0  0  0  0  0  0  0  0
  -23.9990  -12.8850   20.9420 C   0  0  0  0  0  0  0  0  0  0  0  0
  -24.4840  -11.5440   20.8390 C   0  0  0  0  0  0  0  0  0  0  0  0
  -26.0490  -12.8410   20.1470 N   0  0  0  0  0  0  0  0  0  0  0  0
  -25.7440  -11.5440   20.4130 N   0  0  0  0  0  0  0  0  0  0  0  0
  -23.8050  -10.2640   21.0590 C   0  0  0  0  0  0  0  0  0  0  0  0
  -24.3000   -9.3180   21.9810 C   0  0  0  0  0  3  0  0  0  0  0  0
  -23.6230   -8.0970   22.1910 C   0  0  0  0  0  3  0  0  0  0  0  0
  -22.4330   -7.8140   21.4790 C   0  0  0  0  0  0  0  0  0  0  0  0
  -21.9530   -8.7540   20.5500 C   0  0  0  0  0  3  0  0  0  0  0  0
  -22.6300   -9.9680   20.3390 C   0  0  0  0  0  3  0  0  0  0  0  0
  -21.7160   -6.6480   21.6000 O   0  0  0  0  0  0  0  0  0  0  0  0
  -21.7050   -5.9290   22.7680 C   0  0  0  0  0  0  0  0  0  0  0  0
  -21.2030   -6.4710   23.9720 C   0  0  0  0  0  3  0  0  0  0  0  0
  -21.1430   -5.6730   25.1310 C   0  0  0  0  0  3  0  0  0  0  0  0
  -21.5690   -4.3340   25.0870 C   0  0  0  0  0  0  0  0  0  0  0  0
  -22.0590   -3.7880   23.8890 C   0  0  0  0  0  3  0  0  0  0  0  0
  -22.1240   -4.5820   22.7310 C   0  0  0  0  0  0  0  0  0  0  0  0
  -22.5780   -4.0450   21.5740 F   0  0  0  0  0  0  0  0  0  0  0  0
  -21.5040   -3.5650   26.2030 F   0  0  0  0  0  0  0  0  0  0  0  0
  -22.6180  -13.3300   21.3330 C   0  0  0  0  0  0  0  0  0  0  0  0
  -21.9640  -12.6090   22.2380 N   0  0  0  0  0  0  0  0  0  0  0  0
  -22.1270  -14.3580   20.8690 O   0  0  0  0  0  0  0  0  0  0  0  0
  -22.3650  -11.7790   22.6470 H   0  0  0  0  0  0  0  0  0  0  0  0
  -21.0350  -12.8980   22.5210 H   0  0  0  0  0  0  0  0  0  0  0  0
  -25.1390  -15.0650   20.3420 N   0  0  0  0  0  0  0  0  0  0  0  0
  -24.3710  -15.7020   20.5190 H   0  0  0  0  0  0  0  0  0  0  0  0
  -25.9520  -15.5230   19.9510 H   0  0  0  0  0  0  0  0  0  0  0  0
  -27.6990  -24.5480   20.0410 C   0  0  0  0  0  2  0  0  0  0  0  0
  -28.0310  -26.0630   20.2230 O   0  0  0  0  0  0  0  0  0  0  0  0
  -24.5630  -31.8350   23.1880 C   0  0  0  0  0  0  0  0  0  0  0  0
  -27.0020  -27.0710   20.1280 C   0  0  0  0  0  0  0  0  0  0  0  0
  -23.3070  -30.4530   21.5720 C   0  0  0  0  0  3  0  0  0  0  0  0
  -24.7050  -28.8610   20.1150 C   0  0  0  0  0  0  0  0  0  0  0  0
  -25.8690  -30.6730   21.3730 C   0  0  0  0  0  2  0  0  0  0  0  0
  -25.9020  -29.2860   20.7100 C   0  0  0  0  0  0  0  0  0  0  0  0
  -27.0480  -28.4070   20.6930 C   0  0  0  0  0  3  0  0  0  0  0  0
  -25.7850  -26.7590   19.4700 C   0  0  0  0  0  3  0  0  0  0  0  0
  -24.6660  -27.6180   19.4690 C   0  0  0  0  0  3  0  0  0  0  0  0
  -23.4890  -29.7760   20.1870 C   0  0  0  0  0  2  0  0  0  0  0  0
  -24.5990  -31.0110   22.0950 N   0  0  0  0  0  0  0  0  0  0  0  0
  -23.4900  -32.1440   23.7330 O   0  0  0  0  0  0  0  0  0  0  0  0
  -22.6320  -29.4570   22.5500 C   0  0  0  0  0  0  0  0  0  0  0  0
  -21.3020  -29.2830   22.4270 N   0  0  0  0  0  0  0  0  0  0  0  0
  -23.3070  -28.8450   23.3820 O   0  0  0  0  0  0  0  0  0  0  0  0
  -20.8180  -29.8190   21.7210 H   0  0  0  0  0  0  0  0  0  0  0  0
  -17.9220  -28.0730   22.9290 C   0  0  0  0  0  0  0  0  0  0  0  0
  -20.4790  -28.3570   23.2080 C   0  0  0  0  0  3  0  0  0  0  0  0
  -20.5890  -26.9130   22.6670 C   0  0  0  0  0  2  0  0  0  0  0  0
  -19.4970  -26.5600   21.6530 C   0  0  0  0  0  2  0  0  0  0  0  0
  -18.1110  -26.7110   22.2850 C   0  0  0  0  0  2  0  0  0  0  0  0
  -19.0330  -28.8530   23.3460 C   0  0  0  0  0  0  0  0  0  0  0  0
  -18.8000  -30.1260   23.9090 C   0  0  0  0  0  3  0  0  0  0  0  0
  -17.4890  -30.6160   24.0670 C   0  0  0  0  0  3  0  0  0  0  0  0
  -16.3910  -29.8330   23.6730 C   0  0  0  0  0  3  0  0  0  0  0  0
  -16.6100  -28.5630   23.1050 C   0  0  0  0  0  3  0  0  0  0  0  0
  -25.8630  -32.4490   23.7880 C   0  0  0  0  0  3  0  0  0  0  0  0
  -25.5820  -33.8580   24.1190 N   0  0  0  0  0  0  0  0  0  0  0  0
  -25.8830  -34.9000   23.3350 C   0  0  0  0  0  0  0  0  0  0  0  0
  -26.4960  -34.7820   22.2720 O   0  0  0  0  0  0  0  0  0  0  0  0
  -25.0600  -34.0250   24.9640 H   0  0  0  0  0  0  0  0  0  0  0  0
  -24.1610  -36.7110   23.0370 C   0  0  0  0  0  1  0  0  0  0  0  0
  -25.4270  -36.2970   23.8040 C   0  0  0  0  0  3  0  0  0  0  0  0
  -27.5970  -37.1730   24.5510 C   0  0  0  0  0  1  0  0  0  0  0  0
  -26.4650  -37.3390   23.6440 N   0  0  0  0  0  0  0  0  0  0  0  0
  -26.0710  -38.2630   23.7940 H   0  0  0  0  0  0  0  0  0  0  0  0
  -26.3880  -31.6830   25.0680 C   0  0  1  0  0  0  0  0  0  0  0  0
  -25.3100  -31.4610   26.1540 C   0  0  0  0  0  1  0  0  0  0  0  0
  -26.9620  -30.2960   24.6920 C   0  0  0  0  0  1  0  0  0  0  0  0
  -27.5590  -32.4710   25.7050 C   0  0  0  0  0  1  0  0  0  0  0  0
  1  4  1  0
  2  5  2  0
  2  3  1  0
  3  1  2  0
  4  6  1  0
  5  7  1  0
  7  4  2  0
  8  9  1  0
  8 10  1  0
  9 10  1  0
  9  3  1  0
 10 19  1  0
 11 19  1  0
 12 17  1  0
 13 14  1  0
 13 12  1  0
 15 14  1  0
 15 24  1  0
 15 16  1  0
 17 11  1  0
 17 16  1  0
 18 11  2  0
 19 20  1  0
 21 22  2  0
 22 41  1  0
 23 22  1  0
 23 26  1  0
 24 25  1  0
 24 21  1  0
 25 23  2  0
 26 27  1  0
 27 28  2  0
 29 32  1  0
 29 28  1  0
 30 29  2  0
 31 30  1  0
 31 26  2  0
 32 33  1  0
 33 34  1  0
 34 35  2  0
 36 35  1  0
 36 40  1  0
 37 36  2  0
 38 33  2  0
 38 37  1  0
 39 38  1  0
 41 42  1  0
 42 45  1  0
 42 44  1  0
 43 41  2  0
 46 21  1  0
 46 47  1  0
 48 46  1  0
 49 50  1  0
 49  5  1  0
 51 62  2  0
 52 50  1  0
 52 57  1  0
 53 61  1  0
 53 63  1  0
 54 60  1  0
 54 56  1  0
 55 61  1  0
 56 55  1  0
 57 56  2  0
 58 52  2  0
 59 58  1  0
 59 54  2  0
 60 53  1  0
 61 51  1  0
 63 65  2  0
 64 63  1  0
 66 64  1  0
 67 76  2  0
 67 72  1  0
 68 64  1  0
 68 72  1  0
 69 68  1  0
 70 71  1  0
 70 69  1  0
 71 67  1  0
 72 73  2  0
 73 74  1  0
 75 74  2  0
 76 75  1  0
 77 51  1  0
 77 78  1  0
 77 87  1  0
 78 81  1  0
 79 83  1  0
 79 78  1  0
 80 79  2  0
 83 82  1  0
 85 86  1  0
 85 83  1  0
 85 84  1  0
 87 90  1  1
 87 88  1  0
 89 87  1  0
M  ISO  4  11 100  19 100  49 101  50 101
M  END
>  <TORSDO>  (36) 
F 18

>  <SCORE>  (36) 
-12.903

>  <name>  (36) 
35

>  <ligand_id>  (36) 
35

>  <original_smiles>  (36) 
[H]c1c([H])c([H])c2c(c1[H])C([H])([H])C([H])([H])C([H])([H])C2([H])N([H])C(=O)C1([H])N(C(=O)C([H])(N([H])C(=O)C([H])(N([H])C([H])([H])[H])C([H])([H])[H])C(C([H])([H])[H])(C([H])([H])[H])C([H])([H])[H])C([H])([H])c2c([H])c(OC([H])([H])c3nc(C([H])([H])[H])c([H])c(C4([H])C([H])([H])C4([H])N([H])C(=O)N4C([H])([H])C([H])([H])C([H])([H])C([H])(n5nc(-c6c([H])c([H])c(Oc7c([H])c([H])c(F)c([H])c7F)c([H])c6[H])c(C(=O)N([H])[H])c5N([H])[H])C4([H])[H])c3[H])c([H])c([H])c2C1([H])[H]

>  <smiles>  (36) 
[H]c1c([H])c([H])c2c(c1[H])C([H])([H])C([H])([H])C([H])([H])C2([H])N([H])C(=O)C1([H])N(C(=O)C([H])(N([H])C(=O)C([H])(N([H])C([H])([H])[H])C([H])([H])[H])C(C([H])([H])[H])(C([H])([H])[H])C([H])([H])[H])C([H])([H])c2c([H])c(OC([H])([H])c3nc(C([H])([H])[H])c([H])c(C4([H])C([H])([H])C4([H])N([H])C(=O)N4C([H])([H])C([H])([H])C([H])([H])C([H])(n5nc(-c6c([H])c([H])c(Oc7c([H])c([H])c(F)c([H])c7F)c([H])c6[H])c(C(=O)N([H])[H])c5N([H])[H])C4([H])[H])c3[H])c([H])c([H])c2C1([H])[H]

$$$$
36:0:0
     RDKit          3D

 90 99  0  0  1  0  0  0  0  0999 V2000
  -28.2670  -24.6900   20.2720 C   0  0  0  0  0  0  0  0  0  0  0  0
  -27.5540  -23.8370   21.1950 C   0  0  0  0  0  0  0  0  0  0  0  0
  -29.0460  -23.6550   19.6720 C   0  0  0  0  0  0  0  0  0  0  0  0
  -26.5590  -24.2680   22.2340 C   0  0  0  0  0  1  0  0  0  0  0  0
  -30.0770  -23.8590   18.6100 C   0  0  0  0  0  1  0  0  0  0  0  0
  -27.8680  -22.5070   21.1430 N   0  0  0  0  0  0  0  0  0  0  0  0
  -28.8210  -22.3060   20.1900 N   0  0  0  0  0  0  0  0  0  0  0  0
  -28.2980  -26.1780   20.1400 O   0  0  0  0  0  0  0  0  0  0  0  0
  -24.6270  -31.8780   23.1750 C   0  0  0  0  0  0  0  0  0  0  0  0
  -27.2100  -27.1370   20.1530 C   0  0  0  0  0  0  0  0  0  0  0  0
  -23.4280  -30.4760   21.5370 C   0  0  0  0  0  3  0  0  0  0  0  0
  -24.8780  -28.8920   20.1160 C   0  0  0  0  0  0  0  0  0  0  0  0
  -25.9810  -30.7400   21.3700 C   0  0  0  0  0  2  0  0  0  0  0  0
  -26.0550  -29.3400   20.7260 C   0  0  0  0  0  0  0  0  0  0  0  0
  -27.2200  -28.4780   20.7270 C   0  0  0  0  0  3  0  0  0  0  0  0
  -26.0090  -26.7940   19.5030 C   0  0  0  0  0  3  0  0  0  0  0  0
  -24.8670  -27.6320   19.4930 C   0  0  0  0  0  3  0  0  0  0  0  0
  -23.6510  -29.7950   20.1590 C   0  0  0  0  0  2  0  0  0  0  0  0
  -24.7000  -31.0560   22.0820 N   0  0  0  0  0  0  0  0  0  0  0  0
  -23.5410  -32.1600   23.7040 O   0  0  0  0  0  0  0  0  0  0  0  0
  -22.7520  -29.4710   22.5030 C   0  0  0  0  0  0  0  0  0  0  0  0
  -21.4250  -29.2930   22.3760 N   0  0  0  0  0  0  0  0  0  0  0  0
  -23.4260  -28.8520   23.3300 O   0  0  0  0  0  0  0  0  0  0  0  0
  -20.9350  -29.8460   21.6870 H   0  0  0  0  0  0  0  0  0  0  0  0
  -18.0550  -28.0620   22.8770 C   0  0  0  0  0  0  0  0  0  0  0  0
  -20.6100  -28.3510   23.1510 C   0  0  0  0  0  3  0  0  0  0  0  0
  -20.7260  -26.9170   22.5850 C   0  0  0  0  0  2  0  0  0  0  0  0
  -19.6320  -26.5780   21.5670 C   0  0  0  0  0  2  0  0  0  0  0  0
  -18.2460  -26.7120   22.2070 C   0  0  0  0  0  2  0  0  0  0  0  0
  -19.1640  -28.8380   23.3060 C   0  0  0  0  0  0  0  0  0  0  0  0
  -18.9280  -30.1000   23.8940 C   0  0  0  0  0  3  0  0  0  0  0  0
  -17.6180  -30.5850   24.0550 C   0  0  0  0  0  3  0  0  0  0  0  0
  -16.5230  -29.8070   23.6410 C   0  0  0  0  0  3  0  0  0  0  0  0
  -16.7430  -28.5470   23.0570 C   0  0  0  0  0  3  0  0  0  0  0  0
  -25.9040  -32.5180   23.8010 C   0  0  0  0  0  3  0  0  0  0  0  0
  -25.5850  -33.9150   24.1390 N   0  0  0  0  0  0  0  0  0  0  0  0
  -25.9000  -34.9760   23.3840 C   0  0  0  0  0  0  0  0  0  0  0  0
  -26.5530  -34.8840   22.3420 O   0  0  0  0  0  0  0  0  0  0  0  0
  -24.9990  -34.0600   24.9480 H   0  0  0  0  0  0  0  0  0  0  0  0
  -24.1490  -36.7600   23.0820 C   0  0  0  0  0  1  0  0  0  0  0  0
  -25.4140  -36.3600   23.8590 C   0  0  0  0  0  3  0  0  0  0  0  0
  -27.5590  -37.2620   24.6440 C   0  0  0  0  0  1  0  0  0  0  0  0
  -26.4340  -37.4220   23.7260 N   0  0  0  0  0  0  0  0  0  0  0  0
  -26.0230  -38.3380   23.8850 H   0  0  0  0  0  0  0  0  0  0  0  0
  -26.4230  -31.7480   25.0780 C   0  0  1  0  0  0  0  0  0  0  0  0
  -25.3300  -31.5080   26.1460 C   0  0  0  0  0  1  0  0  0  0  0  0
  -27.0090  -30.3710   24.6910 C   0  0  0  0  0  1  0  0  0  0  0  0
  -27.5730  -32.5450   25.7380 C   0  0  0  0  0  1  0  0  0  0  0  0
  -29.5610  -20.8940   19.9180 C   0  0  0  0  0  2  0  0  0  0  0  0
  -29.9330  -18.6110   21.4250 C   0  0  0  0  0  2  0  0  0  0  0  0
  -29.1850  -19.2880   20.3090 C   0  0  0  0  0  3  0  0  0  0  0  0
  -30.0720  -17.8280   20.1310 C   0  0  0  0  0  3  0  0  0  0  0  0
  -30.5130  -15.0900   19.9860 C   0  0  0  0  0  0  0  0  0  0  0  0
  -30.3760  -12.7360   19.0190 C   0  0  0  0  0  2  0  0  0  0  0  0
  -29.3830  -12.6820   17.8340 C   0  0  0  0  0  2  0  0  0  0  0  0
  -27.9440  -12.4510   18.3390 C   0  0  0  0  0  2  0  0  0  0  0  0
  -27.5900  -13.3530   19.5490 C   0  0  0  0  0  3  0  0  0  0  0  0
  -28.7040  -13.3640   20.6170 C   0  0  0  0  0  2  0  0  0  0  0  0
  -29.9300  -13.8170   19.9490 N   0  0  0  0  0  0  0  0  0  0  0  0
  -31.6910  -15.1530   19.6170 O   0  0  0  0  0  0  0  0  0  0  0  0
  -29.7490  -16.2830   20.2490 N   0  0  0  0  0  0  0  0  0  0  0  0
  -28.7960  -16.0810   20.5130 H   0  0  0  0  0  0  0  0  0  0  0  0
  -25.2600  -13.9070   20.4460 C   0  0  0  0  0  0  0  0  0  0  0  0
  -24.2170  -13.1240   20.8580 C   0  0  0  0  0  0  0  0  0  0  0  0
  -24.6750  -11.7750   20.7600 C   0  0  0  0  0  0  0  0  0  0  0  0
  -26.2840  -13.0360   20.1180 N   0  0  0  0  0  0  0  0  0  0  0  0
  -25.9450  -11.7450   20.3710 N   0  0  0  0  0  0  0  0  0  0  0  0
  -23.9560  -10.5090   20.9570 C   0  0  0  0  0  0  0  0  0  0  0  0
  -24.4030   -9.5390   21.8820 C   0  0  0  0  0  3  0  0  0  0  0  0
  -23.6810   -8.3400   22.0660 C   0  0  0  0  0  3  0  0  0  0  0  0
  -22.4990   -8.1010   21.3250 C   0  0  0  0  0  0  0  0  0  0  0  0
  -22.0730   -9.0580   20.3880 C   0  0  0  0  0  3  0  0  0  0  0  0
  -22.7950  -10.2490   20.2020 C   0  0  0  0  0  3  0  0  0  0  0  0
  -21.7490   -6.9530   21.4200 O   0  0  0  0  0  0  0  0  0  0  0  0
  -21.6680   -6.2400   22.5890 C   0  0  0  0  0  0  0  0  0  0  0  0
  -21.1960   -6.8210   23.7860 C   0  0  0  0  0  3  0  0  0  0  0  0
  -21.0640   -6.0330   24.9460 C   0  0  0  0  0  3  0  0  0  0  0  0
  -21.3930   -4.6640   24.9110 C   0  0  0  0  0  0  0  0  0  0  0  0
  -21.8570   -4.0830   23.7180 C   0  0  0  0  0  3  0  0  0  0  0  0
  -21.9920   -4.8690   22.5600 C   0  0  0  0  0  0  0  0  0  0  0  0
  -22.4200   -4.2970   21.4070 F   0  0  0  0  0  0  0  0  0  0  0  0
  -21.2590   -3.9060   26.0240 F   0  0  0  0  0  0  0  0  0  0  0  0
  -22.8410  -13.5990   21.2220 C   0  0  0  0  0  0  0  0  0  0  0  0
  -22.1590  -12.8820   22.1090 N   0  0  0  0  0  0  0  0  0  0  0  0
  -22.3810  -14.6410   20.7550 O   0  0  0  0  0  0  0  0  0  0  0  0
  -22.5480  -12.0420   22.5120 H   0  0  0  0  0  0  0  0  0  0  0  0
  -21.2350  -13.1780   22.3880 H   0  0  0  0  0  0  0  0  0  0  0  0
  -25.4160  -15.2840   20.2970 N   0  0  0  0  0  0  0  0  0  0  0  0
  -24.6510  -15.9300   20.4530 H   0  0  0  0  0  0  0  0  0  0  0  0
  -26.2280  -15.7250   19.8850 H   0  0  0  0  0  0  0  0  0  0  0  0
  1  2  1  0
  2  4  1  0
  3  7  1  0
  3  1  2  0
  5  3  1  0
  6  2  2  0
  7  6  1  0
  8 10  1  0
  8  1  1  0
  9 20  2  0
 10 15  1  0
 11 19  1  0
 11 21  1  0
 12 18  1  0
 12 14  1  0
 13 19  1  0
 14 15  2  0
 14 13  1  0
 16 10  2  0
 17 16  1  0
 17 12  2  0
 18 11  1  0
 19  9  1  0
 21 23  2  0
 22 21  1  0
 24 22  1  0
 25 34  2  0
 25 30  1  0
 26 22  1  0
 26 30  1  0
 27 26  1  0
 28 29  1  0
 28 27  1  0
 29 25  1  0
 30 31  2  0
 31 32  1  0
 33 32  2  0
 34 33  1  0
 35  9  1  0
 35 36  1  0
 35 45  1  0
 36 39  1  0
 37 41  1  0
 37 36  1  0
 38 37  2  0
 41 40  1  0
 43 41  1  0
 43 44  1  0
 43 42  1  0
 45 48  1  1
 45 46  1  0
 47 45  1  0
 49  7  1  0
 51 49  1  0
 51 50  1  0
 52 61  1  0
 52 51  1  0
 52 50  1  0
 53 61  1  0
 54 59  1  0
 55 56  1  0
 55 54  1  0
 57 56  1  0
 57 66  1  0
 57 58  1  0
 59 53  1  0
 59 58  1  0
 60 53  2  0
 61 62  1  0
 63 64  2  0
 64 83  1  0
 65 64  1  0
 65 68  1  0
 66 67  1  0
 66 63  1  0
 67 65  2  0
 68 69  1  0
 69 70  2  0
 71 74  1  0
 71 70  1  0
 72 71  2  0
 73 72  1  0
 73 68  2  0
 74 75  1  0
 75 76  1  0
 76 77  2  0
 78 77  1  0
 78 82  1  0
 79 78  2  0
 80 75  2  0
 80 79  1  0
 81 80  1  0
 83 84  1  0
 84 87  1  0
 84 86  1  0
 85 83  2  0
 88 63  1  0
 88 89  1  0
 90 88  1  0
M  ISO  4   1 101   8 101  53 100  61 100
M  END
>  <TORSDO>  (37) 
F 18

>  <SCORE>  (37) 
-14.886

>  <name>  (37) 
36

>  <ligand_id>  (37) 
36

>  <original_smiles>  (37) 
[H]c1c([H])c([H])c2c(c1[H])C([H])([H])C([H])([H])C([H])([H])C2([H])N([H])C(=O)C1([H])N(C(=O)C([H])(N([H])C(=O)C([H])(N([H])C([H])([H])[H])C([H])([H])[H])C(C([H])([H])[H])(C([H])([H])[H])C([H])([H])[H])C([H])([H])c2c([H])c(Oc3c(C([H])([H])[H])nn(C([H])([H])C4([H])C([H])([H])C4([H])N([H])C(=O)N4C([H])([H])C([H])([H])C([H])([H])C([H])(n5nc(-c6c([H])c([H])c(Oc7c([H])c([H])c(F)c([H])c7F)c([H])c6[H])c(C(=O)N([H])[H])c5N([H])[H])C4([H])[H])c3C([H])([H])[H])c([H])c([H])c2C1([H])[H]

>  <smiles>  (37) 
[H]c1c([H])c([H])c2c(c1[H])C([H])([H])C([H])([H])C([H])([H])C2([H])N([H])C(=O)C1([H])N(C(=O)C([H])(N([H])C(=O)C([H])(N([H])C([H])([H])[H])C([H])([H])[H])C(C([H])([H])[H])(C([H])([H])[H])C([H])([H])[H])C([H])([H])c2c([H])c(Oc3c(C([H])([H])[H])nn(C([H])([H])C4([H])C([H])([H])C4([H])N([H])C(=O)N4C([H])([H])C([H])([H])C([H])([H])C([H])(n5nc(-c6c([H])c([H])c(Oc7c([H])c([H])c(F)c([H])c7F)c([H])c6[H])c(C(=O)N([H])[H])c5N([H])[H])C4([H])[H])c3C([H])([H])[H])c([H])c([H])c2C1([H])[H]

$$$$
37:0:0
     RDKit          3D

 91100  0  0  1  0  0  0  0  0999 V2000
  -28.3460  -21.4130   19.7110 C   0  0  0  0  0  3  0  0  0  0  0  0
  -27.9460  -22.7760   19.5520 C   0  0  0  0  0  3  0  0  0  0  0  0
  -30.5210  -22.2340   20.2180 C   0  0  0  0  0  3  0  0  0  0  0  0
  -29.6920  -21.0880   20.0280 C   0  0  0  0  0  0  0  0  0  0  0  0
  -28.8680  -23.8480   19.7130 C   0  0  0  0  0  0  0  0  0  0  0  0
  -30.1450  -23.5420   20.0660 N   0  0  0  0  0  0  0  0  0  0  0  0
  -30.2550  -19.7610   20.1350 N   0  0  0  0  0  0  0  0  0  0  0  0
  -31.2500  -19.7340   20.3500 H   0  0  0  0  0  0  0  0  0  0  0  0
  -30.7770  -14.7130   19.9700 C   0  0  0  0  0  0  0  0  0  0  0  0
  -30.4420  -12.4650   18.9370 C   0  0  0  0  0  2  0  0  0  0  0  0
  -29.4320  -12.5610   17.7740 C   0  0  0  0  0  2  0  0  0  0  0  0
  -27.9890  -12.4030   18.2910 C   0  0  0  0  0  2  0  0  0  0  0  0
  -27.7050  -13.2790   19.5410 C   0  0  0  0  0  3  0  0  0  0  0  0
  -28.8320  -13.1490   20.5880 C   0  0  0  0  0  2  0  0  0  0  0  0
  -30.0860  -13.5180   19.9180 N   0  0  0  0  0  0  0  0  0  0  0  0
  -31.9320  -14.7500   19.5320 O   0  0  0  0  0  0  0  0  0  0  0  0
  -29.0880  -17.8290   21.2920 C   0  0  0  0  0  2  0  0  0  0  0  0
  -29.0970  -16.2840   21.1330 C   0  0  0  0  0  2  0  0  0  0  0  0
  -30.5820  -17.2320   19.5640 C   0  0  0  0  0  2  0  0  0  0  0  0
  -29.6200  -18.4100   19.9820 C   0  0  0  0  0  3  0  0  0  0  0  0
  -30.1030  -15.9220   20.1250 N   0  0  0  0  0  0  0  0  0  0  0  0
  -25.3820  -13.8900   20.4460 C   0  0  0  0  0  0  0  0  0  0  0  0
  -24.3270  -13.1220   20.8590 C   0  0  0  0  0  0  0  0  0  0  0  0
  -24.7580  -11.7650   20.7440 C   0  0  0  0  0  0  0  0  0  0  0  0
  -26.3900  -13.0000   20.1090 N   0  0  0  0  0  0  0  0  0  0  0  0
  -26.0250  -11.7150   20.3480 N   0  0  0  0  0  0  0  0  0  0  0  0
  -24.0200  -10.5100   20.9330 C   0  0  0  0  0  0  0  0  0  0  0  0
  -24.4570   -9.5240   21.8450 C   0  0  0  0  0  3  0  0  0  0  0  0
  -23.7170   -8.3350   22.0210 C   0  0  0  0  0  3  0  0  0  0  0  0
  -22.5260   -8.1230   21.2860 C   0  0  0  0  0  0  0  0  0  0  0  0
  -22.1080   -9.0970   20.3640 C   0  0  0  0  0  3  0  0  0  0  0  0
  -22.8480  -10.2780   20.1850 C   0  0  0  0  0  3  0  0  0  0  0  0
  -21.7580   -6.9870   21.3750 O   0  0  0  0  0  0  0  0  0  0  0  0
  -21.6680   -6.2670   22.5390 C   0  0  0  0  0  0  0  0  0  0  0  0
  -21.1970   -6.8450   23.7380 C   0  0  0  0  0  3  0  0  0  0  0  0
  -21.0560   -6.0500   24.8930 C   0  0  0  0  0  3  0  0  0  0  0  0
  -21.3760   -4.6800   24.8510 C   0  0  0  0  0  0  0  0  0  0  0  0
  -21.8400   -4.1020   23.6560 C   0  0  0  0  0  3  0  0  0  0  0  0
  -21.9820   -4.8930   22.5020 C   0  0  0  0  0  0  0  0  0  0  0  0
  -22.4100   -4.3270   21.3480 F   0  0  0  0  0  0  0  0  0  0  0  0
  -21.2330   -3.9150   25.9580 F   0  0  0  0  0  0  0  0  0  0  0  0
  -22.9630  -13.6150   21.2420 C   0  0  0  0  0  0  0  0  0  0  0  0
  -22.2830  -12.9030   22.1350 N   0  0  0  0  0  0  0  0  0  0  0  0
  -22.5100  -14.6640   20.7880 O   0  0  0  0  0  0  0  0  0  0  0  0
  -22.6610  -12.0510   22.5220 H   0  0  0  0  0  0  0  0  0  0  0  0
  -21.3700  -13.2130   22.4350 H   0  0  0  0  0  0  0  0  0  0  0  0
  -25.5560  -15.2630   20.3060 N   0  0  0  0  0  0  0  0  0  0  0  0
  -24.8110  -15.9240   20.4950 H   0  0  0  0  0  0  0  0  0  0  0  0
  -26.3840  -15.7000   19.9230 H   0  0  0  0  0  0  0  0  0  0  0  0
  -28.5470  -25.3160   19.2040 C   0  0  0  0  0  2  0  0  0  0  0  0
  -28.3500  -26.4690   20.1220 O   0  0  0  0  0  0  0  0  0  0  0  0
  -24.5290  -31.7740   23.2030 C   0  0  0  0  0  0  0  0  0  0  0  0
  -27.2060  -27.2890   20.0650 C   0  0  0  0  0  0  0  0  0  0  0  0
  -23.3470  -30.3900   21.5350 C   0  0  0  0  0  3  0  0  0  0  0  0
  -24.8180  -28.8810   20.0870 C   0  0  0  0  0  0  0  0  0  0  0  0
  -25.8840  -30.7360   21.3670 C   0  0  0  0  0  2  0  0  0  0  0  0
  -25.9810  -29.3690   20.6960 C   0  0  0  0  0  0  0  0  0  0  0  0
  -27.1720  -28.5840   20.6800 C   0  0  0  0  0  3  0  0  0  0  0  0
  -26.0050  -26.8460   19.4600 C   0  0  0  0  0  3  0  0  0  0  0  0
  -24.8320  -27.6240   19.4650 C   0  0  0  0  0  3  0  0  0  0  0  0
  -23.5720  -29.7420   20.1450 C   0  0  0  0  0  2  0  0  0  0  0  0
  -24.6060  -30.9830   22.0920 N   0  0  0  0  0  0  0  0  0  0  0  0
  -23.4400  -32.0310   23.7370 O   0  0  0  0  0  0  0  0  0  0  0  0
  -22.6920  -29.3510   22.4750 C   0  0  0  0  0  0  0  0  0  0  0  0
  -21.3740  -29.1410   22.3200 N   0  0  0  0  0  0  0  0  0  0  0  0
  -23.3690  -28.7360   23.3030 O   0  0  0  0  0  0  0  0  0  0  0  0
  -20.8860  -29.6910   21.6270 H   0  0  0  0  0  0  0  0  0  0  0  0
  -18.0220  -27.8410   22.7270 C   0  0  0  0  0  0  0  0  0  0  0  0
  -20.5620  -28.1790   23.0690 C   0  0  0  0  0  3  0  0  0  0  0  0
  -20.7250  -26.7520   22.4970 C   0  0  0  0  0  2  0  0  0  0  0  0
  -19.6620  -26.3950   21.4520 C   0  0  0  0  0  2  0  0  0  0  0  0
  -18.2580  -26.4980   22.0580 C   0  0  0  0  0  2  0  0  0  0  0  0
  -19.1040  -28.6380   23.1870 C   0  0  0  0  0  0  0  0  0  0  0  0
  -18.8290  -29.8930   23.7710 C   0  0  0  0  0  3  0  0  0  0  0  0
  -17.5050  -30.3530   23.9010 C   0  0  0  0  0  3  0  0  0  0  0  0
  -16.4370  -29.5550   23.4570 C   0  0  0  0  0  3  0  0  0  0  0  0
  -16.6960  -28.3010   22.8750 C   0  0  0  0  0  3  0  0  0  0  0  0
  -25.8030  -32.4100   23.8410 C   0  0  0  0  0  3  0  0  0  0  0  0
  -25.4830  -33.8050   24.1750 N   0  0  0  0  0  0  0  0  0  0  0  0
  -25.8040  -34.8630   23.4180 C   0  0  0  0  0  0  0  0  0  0  0  0
  -26.4720  -34.7670   22.3850 O   0  0  0  0  0  0  0  0  0  0  0  0
  -24.8880  -33.9530   24.9770 H   0  0  0  0  0  0  0  0  0  0  0  0
  -24.0560  -36.6400   23.0780 C   0  0  0  0  0  1  0  0  0  0  0  0
  -25.3070  -36.2460   23.8810 C   0  0  0  0  0  3  0  0  0  0  0  0
  -27.4390  -37.1510   24.6980 C   0  0  0  0  0  1  0  0  0  0  0  0
  -26.3270  -37.3110   23.7640 N   0  0  0  0  0  0  0  0  0  0  0  0
  -25.9110  -38.2250   23.9210 H   0  0  0  0  0  0  0  0  0  0  0  0
  -26.3080  -31.6350   25.1210 C   0  0  1  0  0  0  0  0  0  0  0  0
  -25.2030  -31.3890   26.1760 C   0  0  0  0  0  1  0  0  0  0  0  0
  -26.9020  -30.2620   24.7310 C   0  0  0  0  0  1  0  0  0  0  0  0
  -27.4470  -32.4330   25.7980 C   0  0  0  0  0  1  0  0  0  0  0  0
  1  4  1  0
  2  1  2  0
  2  5  1  0
  4  7  1  0
  4  3  2  0
  5  6  2  0
  6  3  1  0
  7  8  1  0
  9 21  1  0
 10 15  1  0
 11 12  1  0
 11 10  1  0
 13 12  1  0
 13 25  1  0
 13 14  1  0
 15  9  1  0
 15 14  1  0
 16  9  2  0
 18 17  1  0
 19 20  1  0
 19 21  1  0
 20  7  1  0
 20 17  1  0
 21 18  1  0
 22 23  2  0
 23 42  1  0
 24 23  1  0
 24 27  1  0
 25 26  1  0
 25 22  1  0
 26 24  2  0
 27 28  1  0
 28 29  2  0
 30 33  1  0
 30 29  1  0
 31 30  2  0
 32 31  1  0
 32 27  2  0
 33 34  1  0
 34 35  1  0
 35 36  2  0
 37 36  1  0
 37 41  1  0
 38 37  2  0
 39 34  2  0
 39 38  1  0
 40 39  1  0
 42 43  1  0
 43 46  1  0
 43 45  1  0
 44 42  2  0
 47 22  1  0
 47 48  1  0
 49 47  1  0
 50  5  1  0
 50 51  1  0
 52 63  2  0
 53 51  1  0
 53 58  1  0
 54 62  1  0
 54 64  1  0
 55 61  1  0
 55 57  1  0
 56 62  1  0
 57 56  1  0
 58 57  2  0
 59 60  1  0
 59 53  2  0
 60 55  2  0
 61 54  1  0
 62 52  1  0
 64 66  2  0
 65 64  1  0
 67 65  1  0
 68 77  2  0
 68 73  1  0
 69 65  1  0
 69 73  1  0
 70 69  1  0
 71 72  1  0
 71 70  1  0
 72 68  1  0
 73 74  2  0
 74 75  1  0
 76 75  2  0
 77 76  1  0
 78 52  1  0
 78 79  1  0
 78 88  1  0
 79 82  1  0
 80 84  1  0
 80 79  1  0
 81 80  2  0
 84 83  1  0
 86 84  1  0
 86 87  1  0
 86 85  1  0
 88 91  1  1
 88 89  1  0
 90 88  1  0
M  ISO  4   9 100  21 100  50 101  51 101
M  END
>  <TORSDO>  (38) 
F 18

>  <SCORE>  (38) 
-14.008

>  <name>  (38) 
37

>  <ligand_id>  (38) 
37

>  <original_smiles>  (38) 
[H]c1nc(C([H])([H])Oc2c([H])c([H])c3c(c2[H])C([H])([H])N(C(=O)C([H])(N([H])C(=O)C([H])(N([H])C([H])([H])[H])C([H])([H])[H])C(C([H])([H])[H])(C([H])([H])[H])C([H])([H])[H])C([H])(C(=O)N([H])C2([H])c4c([H])c([H])c([H])c([H])c4C([H])([H])C([H])([H])C2([H])[H])C3([H])[H])c([H])c([H])c1N([H])C1([H])C([H])([H])N(C(=O)N2C([H])([H])C([H])([H])C([H])([H])C([H])(n3nc(-c4c([H])c([H])c(Oc5c([H])c([H])c(F)c([H])c5F)c([H])c4[H])c(C(=O)N([H])[H])c3N([H])[H])C2([H])[H])C([H])([H])C1([H])[H]

>  <smiles>  (38) 
[H]c1nc(C([H])([H])Oc2c([H])c([H])c3c(c2[H])C([H])([H])N(C(=O)C([H])(N([H])C(=O)C([H])(N([H])C([H])([H])[H])C([H])([H])[H])C(C([H])([H])[H])(C([H])([H])[H])C([H])([H])[H])C([H])(C(=O)N([H])C2([H])c4c([H])c([H])c([H])c([H])c4C([H])([H])C([H])([H])C2([H])[H])C3([H])[H])c([H])c([H])c1N([H])C1([H])C([H])([H])N(C(=O)N2C([H])([H])C([H])([H])C([H])([H])C([H])(n3nc(-c4c([H])c([H])c(Oc5c([H])c([H])c(F)c([H])c5F)c([H])c4[H])c(C(=O)N([H])[H])c3N([H])[H])C2([H])[H])C([H])([H])C1([H])[H]

$$$$
38:0:0
     RDKit          3D

 94104  0  0  1  0  0  0  0  0999 V2000
  -30.8690  -20.8980   23.1960 C   0  0  0  0  0  2  0  0  0  0  0  0
  -31.9350  -20.4910   22.2290 C   0  0  0  0  0  2  0  0  0  0  0  0
  -28.2730  -20.1110   20.9460 C   0  0  0  0  0  2  0  0  0  0  0  0
  -30.3600  -22.1940   20.9360 C   0  0  0  0  0  2  0  0  0  0  0  0
  -28.6080  -20.9990   19.7260 C   0  0  0  0  0  3  0  0  0  0  0  0
  -29.6390  -19.4890   21.3480 C   0  0  0  0  0  3  0  0  0  0  0  0
  -28.9710  -22.6090   20.3030 C   0  0  0  0  0  3  0  0  0  0  0  0
  -30.1680  -18.5140   20.1650 C   0  0  0  0  0  3  0  0  0  0  0  0
  -29.5580  -19.7000   19.1160 C   0  0  0  0  0  3  0  0  0  0  0  0
  -30.5330  -20.7750   21.7150 C   0  0  2  0  0  0  0  0  0  0  0  0
  -30.6660  -15.5290   19.9760 C   0  0  0  0  0  0  0  0  0  0  0  0
  -30.6050  -13.0870   19.0420 C   0  0  0  0  0  2  0  0  0  0  0  0
  -29.6200  -12.8680   17.8640 C   0  0  0  0  0  2  0  0  0  0  0  0
  -28.1970  -12.5820   18.3760 C   0  0  0  0  0  2  0  0  0  0  0  0
  -27.8040  -13.5230   19.5430 C   0  0  0  0  0  3  0  0  0  0  0  0
  -28.9150  -13.6680   20.6060 C   0  0  0  0  0  2  0  0  0  0  0  0
  -30.0940  -14.2160   19.9130 N   0  0  0  0  0  0  0  0  0  0  0  0
  -31.8730  -15.5100   19.6910 O   0  0  0  0  0  0  0  0  0  0  0  0
  -29.9250  -16.8240   20.1580 N   0  0  0  0  0  0  0  0  0  0  0  0
  -28.9550  -16.6150   20.3380 H   0  0  0  0  0  0  0  0  0  0  0  0
  -25.4910  -14.0660   20.4610 C   0  0  0  0  0  0  0  0  0  0  0  0
  -24.4440  -13.2870   20.8650 C   0  0  0  0  0  0  0  0  0  0  0  0
  -24.8960  -11.9340   20.7610 C   0  0  0  0  0  0  0  0  0  0  0  0
  -26.5070  -13.1930   20.1210 N   0  0  0  0  0  0  0  0  0  0  0  0
  -26.1680  -11.9010   20.3700 N   0  0  0  0  0  0  0  0  0  0  0  0
  -24.1670  -10.6730   20.9490 C   0  0  0  0  0  0  0  0  0  0  0  0
  -24.6100   -9.6920   21.8650 C   0  0  0  0  0  3  0  0  0  0  0  0
  -23.8760   -8.5000   22.0440 C   0  0  0  0  0  3  0  0  0  0  0  0
  -22.6890   -8.2780   21.3070 C   0  0  0  0  0  0  0  0  0  0  0  0
  -22.2660   -9.2480   20.3820 C   0  0  0  0  0  3  0  0  0  0  0  0
  -22.9980  -10.4320   20.2000 C   0  0  0  0  0  3  0  0  0  0  0  0
  -21.9260   -7.1380   21.3950 O   0  0  0  0  0  0  0  0  0  0  0  0
  -21.8480   -6.4120   22.5570 C   0  0  0  0  0  0  0  0  0  0  0  0
  -21.3960   -6.9840   23.7650 C   0  0  0  0  0  3  0  0  0  0  0  0
  -21.2690   -6.1850   24.9190 C   0  0  0  0  0  3  0  0  0  0  0  0
  -21.5850   -4.8150   24.8640 C   0  0  0  0  0  0  0  0  0  0  0  0
  -22.0260   -4.2400   23.6590 C   0  0  0  0  0  3  0  0  0  0  0  0
  -22.1550   -5.0370   22.5080 C   0  0  0  0  0  0  0  0  0  0  0  0
  -22.5650   -4.4760   21.3460 F   0  0  0  0  0  0  0  0  0  0  0  0
  -21.4520   -4.0440   25.9700 F   0  0  0  0  0  0  0  0  0  0  0  0
  -23.0690  -13.7690   21.2240 C   0  0  0  0  0  0  0  0  0  0  0  0
  -22.3830  -13.0640   22.1140 N   0  0  0  0  0  0  0  0  0  0  0  0
  -22.6170  -14.8120   20.7510 O   0  0  0  0  0  0  0  0  0  0  0  0
  -22.7590  -12.2180   22.5180 H   0  0  0  0  0  0  0  0  0  0  0  0
  -21.4640  -13.3740   22.3970 H   0  0  0  0  0  0  0  0  0  0  0  0
  -25.6550  -15.4410   20.3220 N   0  0  0  0  0  0  0  0  0  0  0  0
  -24.9000  -16.0910   20.5180 H   0  0  0  0  0  0  0  0  0  0  0  0
  -26.4480  -15.8830   19.8800 H   0  0  0  0  0  0  0  0  0  0  0  0
  -30.6210  -20.2150   18.2360 N   0  0  0  0  0  4  0  0  0  0  0  0
  -31.2940  -20.7510   18.7540 H   0  0  0  0  0  0  0  0  0  0  0  0
  -30.2290  -20.7980   17.5170 H   0  0  0  0  0  0  0  0  0  0  0  0
  -31.0990  -19.4510   17.7910 H   0  0  0  0  0  0  0  0  0  0  0  0
  -28.5730  -24.2970   19.6490 C   0  0  0  0  0  2  0  0  0  0  0  0
  -28.5440  -25.9150   20.1180 O   0  0  0  0  0  0  0  0  0  0  0  0
  -24.6040  -31.7050   23.0470 C   0  0  0  0  0  0  0  0  0  0  0  0
  -27.4910  -26.9910   19.9970 C   0  0  0  0  0  0  0  0  0  0  0  0
  -23.5290  -30.2830   21.3520 C   0  0  0  0  0  3  0  0  0  0  0  0
  -25.0980  -28.7870   19.9240 C   0  0  0  0  0  0  0  0  0  0  0  0
  -26.0870  -30.6220   21.2790 C   0  0  0  0  0  2  0  0  0  0  0  0
  -26.2470  -29.2280   20.5920 C   0  0  0  0  0  0  0  0  0  0  0  0
  -27.4310  -28.3510   20.6060 C   0  0  0  0  0  3  0  0  0  0  0  0
  -26.3100  -26.7260   19.2660 C   0  0  0  0  0  3  0  0  0  0  0  0
  -25.1580  -27.5610   19.2390 C   0  0  0  0  0  3  0  0  0  0  0  0
  -23.8310  -29.6440   19.9670 C   0  0  0  0  0  2  0  0  0  0  0  0
  -24.7590  -30.8980   21.9470 N   0  0  0  0  0  0  0  0  0  0  0  0
  -23.4880  -31.9250   23.5460 O   0  0  0  0  0  0  0  0  0  0  0  0
  -22.8660  -29.2340   22.2820 C   0  0  0  0  0  0  0  0  0  0  0  0
  -21.5400  -29.0330   22.1530 N   0  0  0  0  0  0  0  0  0  0  0  0
  -23.5510  -28.6050   23.0910 O   0  0  0  0  0  0  0  0  0  0  0  0
  -21.0380  -29.5930   21.4800 H   0  0  0  0  0  0  0  0  0  0  0  0
  -18.1900  -27.7360   22.6640 C   0  0  0  0  0  0  0  0  0  0  0  0
  -20.7490  -28.0390   22.8890 C   0  0  0  0  0  3  0  0  0  0  0  0
  -20.8640  -26.6430   22.2310 C   0  0  0  0  0  2  0  0  0  0  0  0
  -19.7460  -26.3550   21.2260 C   0  0  0  0  0  2  0  0  0  0  0  0
  -18.3770  -26.4340   21.9050 C   0  0  0  0  0  2  0  0  0  0  0  0
  -19.3020  -28.4990   23.1110 C   0  0  0  0  0  0  0  0  0  0  0  0
  -19.0670  -29.7180   23.7840 C   0  0  0  0  0  3  0  0  0  0  0  0
  -17.7560  -30.1740   24.0140 C   0  0  0  0  0  3  0  0  0  0  0  0
  -16.6590  -29.4080   23.5800 C   0  0  0  0  0  3  0  0  0  0  0  0
  -16.8770  -28.1920   22.9100 C   0  0  0  0  0  3  0  0  0  0  0  0
  -25.8210  -32.4030   23.7270 C   0  0  0  0  0  3  0  0  0  0  0  0
  -26.3150  -31.6590   25.0300 C   0  0  1  0  0  0  0  0  0  0  0  0
  -25.1870  -31.3730   26.0510 C   0  0  0  0  0  1  0  0  0  0  0  0
  -26.9750  -30.3070   24.6740 C   0  0  0  0  0  1  0  0  0  0  0  0
  -27.4010  -32.5040   25.7360 C   0  0  0  0  0  1  0  0  0  0  0  0
  -25.4270  -33.7860   24.0560 N   0  0  0  0  0  0  0  0  0  0  0  0
  -25.7070  -34.8650   23.3130 C   0  0  0  0  0  0  0  0  0  0  0  0
  -26.3850  -34.8050   22.2850 O   0  0  0  0  0  0  0  0  0  0  0  0
  -24.8240  -33.9000   24.8570 H   0  0  0  0  0  0  0  0  0  0  0  0
  -23.8710  -36.5600   23.0020 C   0  0  0  0  0  1  0  0  0  0  0  0
  -25.1520  -36.2260   23.7840 C   0  0  0  0  0  3  0  0  0  0  0  0
  -27.2410  -37.2440   24.5760 C   0  0  0  0  0  1  0  0  0  0  0  0
  -26.1180  -37.3380   23.6480 N   0  0  0  0  0  0  0  0  0  0  0  0
  -25.6590  -38.2330   23.7950 H   0  0  0  0  0  0  0  0  0  0  0  0
  2  1  1  0
 10  4  1  6
  5  7  1  0
  5  3  1  0
  6  3  1  0
  6 10  1  0
  7 53  1  0
  7  4  1  0
  8 19  1  0
  8  6  1  0
  9 49  1  0
  9  5  1  0
  9  8  1  0
 10  2  1  0
 10  1  1  0
 11 19  1  0
 12 17  1  0
 13 14  1  0
 13 12  1  0
 15 14  1  0
 15 24  1  0
 15 16  1  0
 17 11  1  0
 17 16  1  0
 18 11  2  0
 19 20  1  0
 21 22  2  0
 22 41  1  0
 23 22  1  0
 23 26  1  0
 24 25  1  0
 24 21  1  0
 25 23  2  0
 26 27  1  0
 27 28  2  0
 29 32  1  0
 29 28  1  0
 30 29  2  0
 31 30  1  0
 31 26  2  0
 32 33  1  0
 33 34  1  0
 34 35  2  0
 36 35  1  0
 36 40  1  0
 37 36  2  0
 38 33  2  0
 38 37  1  0
 39 38  1  0
 41 42  1  0
 42 45  1  0
 42 44  1  0
 43 41  2  0
 46 21  1  0
 46 47  1  0
 48 46  1  0
 49 50  1  0
 51 49  1  0
 52 49  1  0
 53 54  1  0
 55 66  2  0
 56 54  1  0
 56 61  1  0
 57 65  1  0
 57 67  1  0
 58 64  1  0
 58 60  1  0
 59 65  1  0
 60 61  2  0
 60 59  1  0
 62 56  2  0
 63 62  1  0
 63 58  2  0
 64 57  1  0
 65 55  1  0
 67 69  2  0
 68 67  1  0
 70 68  1  0
 71 80  2  0
 71 76  1  0
 72 68  1  0
 72 76  1  0
 73 72  1  0
 74 75  1  0
 74 73  1  0
 75 71  1  0
 76 77  2  0
 77 78  1  0
 79 78  2  0
 80 79  1  0
 81 55  1  0
 81 86  1  0
 81 82  1  0
 82 85  1  1
 82 83  1  0
 84 82  1  0
 86 89  1  0
 87 91  1  0
 87 86  1  0
 88 87  2  0
 91 90  1  0
 93 91  1  0
 93 94  1  0
 93 92  1  0
M  ISO  4  11 100  19 100  53 101  54 101
M  END
>  <TORSDO>  (39) 
F 18

>  <SCORE>  (39) 
-16.008

>  <name>  (39) 
38

>  <ligand_id>  (39) 
38

>  <original_smiles>  (39) 
[H]c1c([H])c([H])c2c(c1[H])C([H])([H])C([H])([H])C([H])([H])C2([H])N([H])C(=O)C1([H])N(C(=O)C([H])(N([H])C(=O)C([H])(N([H])C([H])([H])[H])C([H])([H])[H])C(C([H])([H])[H])(C([H])([H])[H])C([H])([H])[H])C([H])([H])c2c([H])c(OC([H])([H])C3([H])C([H])([H])C4(C([H])([H])C4([H])[H])C4([H])C([H])([H])C3([H])C([H])([N+]([H])([H])[H])C4([H])N([H])C(=O)N3C([H])([H])C([H])([H])C([H])([H])C([H])(n4nc(-c5c([H])c([H])c(Oc6c([H])c([H])c(F)c([H])c6F)c([H])c5[H])c(C(=O)N([H])[H])c4N([H])[H])C3([H])[H])c([H])c([H])c2C1([H])[H]

>  <smiles>  (39) 
[H]c1c([H])c([H])c2c(c1[H])C([H])([H])C([H])([H])C([H])([H])C2([H])N([H])C(=O)C1([H])N(C(=O)C([H])(N([H])C(=O)C([H])(N([H])C([H])([H])[H])C([H])([H])[H])C(C([H])([H])[H])(C([H])([H])[H])C([H])([H])[H])C([H])([H])c2c([H])c(OC([H])([H])C3([H])C([H])([H])C4(C([H])([H])C4([H])[H])C4([H])C([H])([H])C3([H])C([H])([N+]([H])([H])[H])C4([H])N([H])C(=O)N3C([H])([H])C([H])([H])C([H])([H])C([H])(n4nc(-c5c([H])c([H])c(Oc6c([H])c([H])c(F)c([H])c6F)c([H])c5[H])c(C(=O)N([H])[H])c4N([H])[H])C3([H])[H])c([H])c([H])c2C1([H])[H]

$$$$
39:0:0
     RDKit          3D

 90 99  0  0  1  0  0  0  0  0999 V2000
  -27.6460  -23.1880   18.7990 C   0  0  0  0  0  3  0  0  0  0  0  0
  -28.5010  -20.6820   19.8710 C   0  0  0  0  0  0  0  0  0  0  0  0
  -28.3150  -23.2210   20.0290 C   0  0  0  0  0  0  0  0  0  0  0  0
  -27.6390  -20.8490   18.7300 C   0  0  0  0  0  0  0  0  0  0  0  0
  -26.8360  -19.7260   18.0890 C   0  0  0  0  0  1  0  0  0  0  0  0
  -27.3050  -22.0420   18.1810 N   0  0  0  0  0  0  0  0  0  0  0  0
  -28.7750  -21.9380   20.5340 N   0  0  0  0  0  0  0  0  0  0  0  0
  -29.0160  -18.1810   19.1830 C   0  0  0  0  0  2  0  0  0  0  0  0
  -28.8200  -19.0860   20.3890 C   0  0  0  0  0  3  0  0  0  0  0  0
  -29.8910  -17.7250   20.2570 C   0  0  0  0  0  3  0  0  0  0  0  0
  -30.4980  -15.0160   20.2670 C   0  0  0  0  0  0  0  0  0  0  0  0
  -30.3970  -12.6630   19.2960 C   0  0  0  0  0  2  0  0  0  0  0  0
  -29.4510  -12.6330   18.0710 C   0  0  0  0  0  2  0  0  0  0  0  0
  -27.9920  -12.4120   18.5120 C   0  0  0  0  0  2  0  0  0  0  0  0
  -27.5970  -13.3130   19.7130 C   0  0  0  0  0  3  0  0  0  0  0  0
  -28.6630  -13.3050   20.8290 C   0  0  0  0  0  2  0  0  0  0  0  0
  -29.9250  -13.7420   20.2190 N   0  0  0  0  0  0  0  0  0  0  0  0
  -31.6820  -15.1050   19.9250 O   0  0  0  0  0  0  0  0  0  0  0  0
  -29.6910  -16.1790   20.4890 N   0  0  0  0  0  0  0  0  0  0  0  0
  -28.7570  -15.9360   20.7810 H   0  0  0  0  0  0  0  0  0  0  0  0
  -25.2180  -13.8750   20.4660 C   0  0  0  0  0  0  0  0  0  0  0  0
  -24.1630  -13.0930   20.8470 C   0  0  0  0  0  0  0  0  0  0  0  0
  -24.6360  -11.7450   20.8130 C   0  0  0  0  0  0  0  0  0  0  0  0
  -26.2650  -13.0030   20.2180 N   0  0  0  0  0  0  0  0  0  0  0  0
  -25.9260  -11.7170   20.4940 N   0  0  0  0  0  0  0  0  0  0  0  0
  -23.9190  -10.4780   21.0110 C   0  0  0  0  0  0  0  0  0  0  0  0
  -24.3640   -9.5140   21.9420 C   0  0  0  0  0  3  0  0  0  0  0  0
  -23.6440   -8.3150   22.1310 C   0  0  0  0  0  3  0  0  0  0  0  0
  -22.4670   -8.0680   21.3850 C   0  0  0  0  0  0  0  0  0  0  0  0
  -22.0420   -9.0210   20.4440 C   0  0  0  0  0  3  0  0  0  0  0  0
  -22.7610  -10.2130   20.2530 C   0  0  0  0  0  3  0  0  0  0  0  0
  -21.7210   -6.9180   21.4790 O   0  0  0  0  0  0  0  0  0  0  0  0
  -21.6820   -6.1780   22.6330 C   0  0  0  0  0  0  0  0  0  0  0  0
  -21.2550   -6.7320   23.8600 C   0  0  0  0  0  3  0  0  0  0  0  0
  -21.1660   -5.9180   25.0070 C   0  0  0  0  0  3  0  0  0  0  0  0
  -21.4930   -4.5510   24.9290 C   0  0  0  0  0  0  0  0  0  0  0  0
  -21.9140   -3.9960   23.7070 C   0  0  0  0  0  3  0  0  0  0  0  0
  -22.0050   -4.8080   22.5630 C   0  0  0  0  0  0  0  0  0  0  0  0
  -22.3900   -4.2640   21.3830 F   0  0  0  0  0  0  0  0  0  0  0  0
  -21.4000   -3.7670   26.0300 F   0  0  0  0  0  0  0  0  0  0  0  0
  -22.7670  -13.5620   21.1280 C   0  0  0  0  0  0  0  0  0  0  0  0
  -22.0520  -12.8610   22.0020 N   0  0  0  0  0  0  0  0  0  0  0  0
  -22.3190  -14.5840   20.6090 O   0  0  0  0  0  0  0  0  0  0  0  0
  -22.4300  -12.0340   22.4370 H   0  0  0  0  0  0  0  0  0  0  0  0
  -21.1160  -13.1570   22.2360 H   0  0  0  0  0  0  0  0  0  0  0  0
  -25.3710  -15.2470   20.2830 N   0  0  0  0  0  0  0  0  0  0  0  0
  -24.5970  -15.8930   20.3970 H   0  0  0  0  0  0  0  0  0  0  0  0
  -26.1930  -15.6850   19.8900 H   0  0  0  0  0  0  0  0  0  0  0  0
  -28.2650  -24.6970   20.8070 C   0  0  0  0  0  2  0  0  0  0  0  0
  -28.2990  -26.1480   20.1880 O   0  0  0  0  0  0  0  0  0  0  0  0
  -24.6330  -31.8670   23.2040 C   0  0  0  0  0  0  0  0  0  0  0  0
  -27.2240  -27.1170   20.2190 C   0  0  0  0  0  0  0  0  0  0  0  0
  -23.4380  -30.4650   21.5670 C   0  0  0  0  0  3  0  0  0  0  0  0
  -24.8910  -28.8710   20.1630 C   0  0  0  0  0  0  0  0  0  0  0  0
  -25.9940  -30.7270   21.4020 C   0  0  0  0  0  2  0  0  0  0  0  0
  -26.0710  -29.3250   20.7670 C   0  0  0  0  0  0  0  0  0  0  0  0
  -27.2390  -28.4680   20.7690 C   0  0  0  0  0  3  0  0  0  0  0  0
  -26.0170  -26.7640   19.5840 C   0  0  0  0  0  3  0  0  0  0  0  0
  -24.8770  -27.6020   19.5570 C   0  0  0  0  0  3  0  0  0  0  0  0
  -23.6650  -29.7720   20.1960 C   0  0  0  0  0  2  0  0  0  0  0  0
  -24.7090  -31.0440   22.1120 N   0  0  0  0  0  0  0  0  0  0  0  0
  -23.5450  -32.1500   23.7290 O   0  0  0  0  0  0  0  0  0  0  0  0
  -22.7590  -29.4610   22.5330 C   0  0  0  0  0  0  0  0  0  0  0  0
  -21.4300  -29.2870   22.4080 N   0  0  0  0  0  0  0  0  0  0  0  0
  -23.4320  -28.8380   23.3590 O   0  0  0  0  0  0  0  0  0  0  0  0
  -20.9420  -29.8440   21.7190 H   0  0  0  0  0  0  0  0  0  0  0  0
  -18.0560  -28.0750   22.9160 C   0  0  0  0  0  0  0  0  0  0  0  0
  -20.6130  -28.3470   23.1800 C   0  0  0  0  0  3  0  0  0  0  0  0
  -20.7190  -26.9150   22.6080 C   0  0  0  0  0  2  0  0  0  0  0  0
  -19.6190  -26.5870   21.5940 C   0  0  0  0  0  2  0  0  0  0  0  0
  -18.2370  -26.7280   22.2390 C   0  0  0  0  0  2  0  0  0  0  0  0
  -19.1720  -28.8430   23.3440 C   0  0  0  0  0  0  0  0  0  0  0  0
  -18.9470  -30.1030   23.9410 C   0  0  0  0  0  3  0  0  0  0  0  0
  -17.6400  -30.5970   24.1090 C   0  0  0  0  0  3  0  0  0  0  0  0
  -16.5380  -29.8280   23.6960 C   0  0  0  0  0  3  0  0  0  0  0  0
  -16.7470  -28.5680   23.1060 C   0  0  0  0  0  3  0  0  0  0  0  0
  -25.9070  -32.5080   23.8330 C   0  0  0  0  0  3  0  0  0  0  0  0
  -25.5890  -33.9070   24.1670 N   0  0  0  0  0  0  0  0  0  0  0  0
  -25.9160  -34.9660   23.4160 C   0  0  0  0  0  0  0  0  0  0  0  0
  -26.5840  -34.8680   22.3840 O   0  0  0  0  0  0  0  0  0  0  0  0
  -24.9950  -34.0550   24.9690 H   0  0  0  0  0  0  0  0  0  0  0  0
  -24.1840  -36.7600   23.0780 C   0  0  0  0  0  1  0  0  0  0  0  0
  -25.4270  -36.3520   23.8830 C   0  0  0  0  0  3  0  0  0  0  0  0
  -27.5610  -37.2400   24.7120 C   0  0  0  0  0  1  0  0  0  0  0  0
  -26.4550  -37.4070   23.7720 N   0  0  0  0  0  0  0  0  0  0  0  0
  -26.0490  -38.3260   23.9210 H   0  0  0  0  0  0  0  0  0  0  0  0
  -26.4170  -31.7430   25.1160 C   0  0  1  0  0  0  0  0  0  0  0  0
  -25.3210  -31.5080   26.1820 C   0  0  0  0  0  1  0  0  0  0  0  0
  -27.0020  -30.3620   24.7350 C   0  0  0  0  0  1  0  0  0  0  0  0
  -27.5650  -32.5400   25.7800 C   0  0  0  0  0  1  0  0  0  0  0  0
  1  3  1  0
  2  7  1  0
  3  7  2  0
  3 49  1  0
  4  2  2  0
  5  4  1  0
  6  4  1  0
  6  1  2  0
  8 10  1  0
  8  9  1  0
  9  2  1  0
 10  9  1  0
 10 19  1  0
 11 19  1  0
 12 17  1  0
 13 14  1  0
 13 12  1  0
 15 14  1  0
 15 24  1  0
 15 16  1  0
 17 11  1  0
 17 16  1  0
 18 11  2  0
 19 20  1  0
 21 22  2  0
 22 41  1  0
 23 22  1  0
 23 26  1  0
 24 21  1  0
 24 25  1  0
 25 23  2  0
 26 27  1  0
 27 28  2  0
 29 32  1  0
 29 28  1  0
 30 29  2  0
 31 30  1  0
 31 26  2  0
 32 33  1  0
 33 34  1  0
 34 35  2  0
 36 35  1  0
 36 40  1  0
 37 36  2  0
 38 33  2  0
 38 37  1  0
 39 38  1  0
 41 42  1  0
 42 45  1  0
 42 44  1  0
 43 41  2  0
 46 47  1  0
 46 21  1  0
 48 46  1  0
 50 52  1  0
 50 49  1  0
 51 62  2  0
 52 57  1  0
 53 61  1  0
 53 63  1  0
 54 60  1  0
 54 56  1  0
 55 61  1  0
 56 57  2  0
 56 55  1  0
 58 52  2  0
 59 58  1  0
 59 54  2  0
 60 53  1  0
 61 51  1  0
 63 65  2  0
 64 63  1  0
 66 64  1  0
 67 76  2  0
 67 72  1  0
 68 64  1  0
 68 72  1  0
 69 68  1  0
 70 71  1  0
 70 69  1  0
 71 67  1  0
 72 73  2  0
 73 74  1  0
 75 74  2  0
 76 75  1  0
 77 51  1  0
 77 78  1  0
 77 87  1  0
 78 81  1  0
 79 83  1  0
 79 78  1  0
 80 79  2  0
 83 82  1  0
 85 83  1  0
 85 86  1  0
 85 84  1  0
 87 90  1  1
 87 88  1  0
 89 87  1  0
M  ISO  4  11 100  19 100  49 101  50 101
M  END
>  <TORSDO>  (40) 
F 18

>  <SCORE>  (40) 
-15.183

>  <name>  (40) 
39

>  <ligand_id>  (40) 
39

>  <original_smiles>  (40) 
[H]c1nc(C([H])([H])[H])c(C2([H])C([H])([H])C2([H])N([H])C(=O)N2C([H])([H])C([H])([H])C([H])([H])C([H])(n3nc(-c4c([H])c([H])c(Oc5c([H])c([H])c(F)c([H])c5F)c([H])c4[H])c(C(=O)N([H])[H])c3N([H])[H])C2([H])[H])nc1C([H])([H])Oc1c([H])c([H])c2c(c1[H])C([H])([H])N(C(=O)C([H])(N([H])C(=O)C([H])(N([H])C([H])([H])[H])C([H])([H])[H])C(C([H])([H])[H])(C([H])([H])[H])C([H])([H])[H])C([H])(C(=O)N([H])C1([H])c3c([H])c([H])c([H])c([H])c3C([H])([H])C([H])([H])C1([H])[H])C2([H])[H]

>  <smiles>  (40) 
[H]c1nc(C([H])([H])[H])c(C2([H])C([H])([H])C2([H])N([H])C(=O)N2C([H])([H])C([H])([H])C([H])([H])C([H])(n3nc(-c4c([H])c([H])c(Oc5c([H])c([H])c(F)c([H])c5F)c([H])c4[H])c(C(=O)N([H])[H])c3N([H])[H])C2([H])[H])nc1C([H])([H])Oc1c([H])c([H])c2c(c1[H])C([H])([H])N(C(=O)C([H])(N([H])C(=O)C([H])(N([H])C([H])([H])[H])C([H])([H])[H])C(C([H])([H])[H])(C([H])([H])[H])C([H])([H])[H])C([H])(C(=O)N([H])C1([H])c3c([H])c([H])c([H])c([H])c3C([H])([H])C([H])([H])C1([H])[H])C2([H])[H]

$$$$
40:0:0
     RDKit          3D

 91 99  0  0  1  0  0  0  0  0999 V2000
  -29.2270  -21.2820   18.8990 C   0  0  0  0  0  2  0  0  0  0  0  0
  -29.2500  -19.5690   18.9610 C   0  0  0  0  0  2  0  0  0  0  0  0
  -28.8380  -22.3050   20.1460 C   0  0  0  0  0  3  0  0  0  0  0  0
  -29.6790  -21.3690   21.2310 C   0  0  0  0  0  3  0  0  0  0  0  0
  -30.1020  -18.6110   20.0210 C   0  0  0  0  0  3  0  0  0  0  0  0
  -29.6530  -19.6420   21.2550 C   0  0  0  0  0  3  0  0  0  0  0  0
  -31.1350  -21.8730   21.2690 C   0  0  0  0  0  1  0  0  0  0  0  0
  -30.8250  -15.5920   20.0700 C   0  0  0  0  0  0  0  0  0  0  0  0
  -30.9120  -13.0680   19.3170 C   0  0  0  0  0  2  0  0  0  0  0  0
  -29.9890  -12.6920   18.1270 C   0  0  0  0  0  2  0  0  0  0  0  0
  -28.5680  -12.3640   18.6160 C   0  0  0  0  0  2  0  0  0  0  0  0
  -28.0840  -13.3780   19.6800 C   0  0  0  0  0  3  0  0  0  0  0  0
  -29.1390  -13.6770   20.7670 C   0  0  0  0  0  2  0  0  0  0  0  0
  -30.3130  -14.2430   20.0740 N   0  0  0  0  0  0  0  0  0  0  0  0
  -32.0480  -15.5890   19.8540 O   0  0  0  0  0  0  0  0  0  0  0  0
  -30.0180  -16.8810   20.1180 N   0  0  0  0  0  0  0  0  0  0  0  0
  -29.0520  -16.6110   20.2250 H   0  0  0  0  0  0  0  0  0  0  0  0
  -25.7530  -13.9020   20.5560 C   0  0  0  0  0  0  0  0  0  0  0  0
  -24.7040  -13.1130   20.9350 C   0  0  0  0  0  0  0  0  0  0  0  0
  -25.1640  -11.7650   20.8300 C   0  0  0  0  0  0  0  0  0  0  0  0
  -26.7810  -13.0360   20.2350 N   0  0  0  0  0  0  0  0  0  0  0  0
  -26.4430  -11.7410   20.4670 N   0  0  0  0  0  0  0  0  0  0  0  0
  -24.4380  -10.4980   20.9940 C   0  0  0  0  0  0  0  0  0  0  0  0
  -24.8280   -9.5410   21.9570 C   0  0  0  0  0  3  0  0  0  0  0  0
  -24.0980   -8.3430   22.1120 C   0  0  0  0  0  3  0  0  0  0  0  0
  -22.9650   -8.0920   21.3020 C   0  0  0  0  0  0  0  0  0  0  0  0
  -22.5940   -9.0370   20.3310 C   0  0  0  0  0  3  0  0  0  0  0  0
  -23.3250  -10.2270   20.1740 C   0  0  0  0  0  3  0  0  0  0  0  0
  -22.2110   -6.9440   21.3650 O   0  0  0  0  0  0  0  0  0  0  0  0
  -21.9930   -6.2890   22.5510 C   0  0  0  0  0  0  0  0  0  0  0  0
  -21.3650   -6.9210   23.6460 C   0  0  0  0  0  3  0  0  0  0  0  0
  -21.0980   -6.1910   24.8210 C   0  0  0  0  0  3  0  0  0  0  0  0
  -21.4470   -4.8300   24.9000 C   0  0  0  0  0  0  0  0  0  0  0  0
  -22.0670   -4.1970   23.8080 C   0  0  0  0  0  3  0  0  0  0  0  0
  -22.3350   -4.9250   22.6350 C   0  0  0  0  0  0  0  0  0  0  0  0
  -22.9140   -4.3050   21.5780 F   0  0  0  0  0  0  0  0  0  0  0  0
  -21.1830   -4.1260   26.0260 F   0  0  0  0  0  0  0  0  0  0  0  0
  -23.3200  -13.5840   21.2710 C   0  0  0  0  0  0  0  0  0  0  0  0
  -22.6230  -12.8650   22.1420 N   0  0  0  0  0  0  0  0  0  0  0  0
  -22.8680  -14.6260   20.7970 O   0  0  0  0  0  0  0  0  0  0  0  0
  -23.0040  -12.0220   22.5460 H   0  0  0  0  0  0  0  0  0  0  0  0
  -21.6950  -13.1610   22.4100 H   0  0  0  0  0  0  0  0  0  0  0  0
  -25.9110  -15.2790   20.4250 N   0  0  0  0  0  0  0  0  0  0  0  0
  -25.1390  -15.9200   20.5730 H   0  0  0  0  0  0  0  0  0  0  0  0
  -26.7180  -15.7220   20.0080 H   0  0  0  0  0  0  0  0  0  0  0  0
  -30.2660  -19.1420   22.4970 N   0  0  0  0  0  4  0  0  0  0  0  0
  -31.2590  -19.2860   22.4890 H   0  0  0  0  0  0  0  0  0  0  0  0
  -30.0910  -18.1580   22.5890 H   0  0  0  0  0  0  0  0  0  0  0  0
  -29.8770  -19.6060   23.2980 H   0  0  0  0  0  0  0  0  0  0  0  0
  -28.2180  -24.1010   20.1700 C   0  0  0  0  0  2  0  0  0  0  0  0
  -28.5270  -25.7720   20.2630 O   0  0  0  0  0  0  0  0  0  0  0  0
  -24.9170  -31.8120   23.3050 C   0  0  0  0  0  0  0  0  0  0  0  0
  -27.5440  -26.9360   20.2160 C   0  0  0  0  0  0  0  0  0  0  0  0
  -23.7710  -30.4670   21.5950 C   0  0  0  0  0  3  0  0  0  0  0  0
  -25.2590  -28.8900   20.1650 C   0  0  0  0  0  0  0  0  0  0  0  0
  -26.3470  -30.6520   21.5330 C   0  0  0  0  0  2  0  0  0  0  0  0
  -26.4340  -29.2520   20.8350 C   0  0  0  0  0  0  0  0  0  0  0  0
  -27.5680  -28.3010   20.8310 C   0  0  0  0  0  3  0  0  0  0  0  0
  -26.3360  -26.7560   19.5000 C   0  0  0  0  0  3  0  0  0  0  0  0
  -25.2420  -27.6660   19.4760 C   0  0  0  0  0  3  0  0  0  0  0  0
  -24.0430  -29.8220   20.2070 C   0  0  0  0  0  2  0  0  0  0  0  0
  -25.0330  -31.0050   22.1990 N   0  0  0  0  0  0  0  0  0  0  0  0
  -23.8120  -32.0890   23.8020 O   0  0  0  0  0  0  0  0  0  0  0  0
  -23.0420  -29.4490   22.5130 C   0  0  0  0  0  0  0  0  0  0  0  0
  -21.7200  -29.2730   22.3290 N   0  0  0  0  0  0  0  0  0  0  0  0
  -23.6780  -28.8180   23.3610 O   0  0  0  0  0  0  0  0  0  0  0  0
  -21.2590  -29.8330   21.6260 H   0  0  0  0  0  0  0  0  0  0  0  0
  -18.3380  -27.9940   22.6670 C   0  0  0  0  0  0  0  0  0  0  0  0
  -20.8780  -28.3080   23.0460 C   0  0  0  0  0  3  0  0  0  0  0  0
  -21.0330  -26.8870   22.4550 C   0  0  0  0  0  2  0  0  0  0  0  0
  -19.9840  -26.5600   21.3870 C   0  0  0  0  0  2  0  0  0  0  0  0
  -18.5720  -26.6630   21.9720 C   0  0  0  0  0  2  0  0  0  0  0  0
  -19.4210  -28.7730   23.1580 C   0  0  0  0  0  0  0  0  0  0  0  0
  -19.1450  -30.0150   23.7700 C   0  0  0  0  0  3  0  0  0  0  0  0
  -17.8220  -30.4810   23.8940 C   0  0  0  0  0  3  0  0  0  0  0  0
  -16.7550  -29.7000   23.4170 C   0  0  0  0  0  3  0  0  0  0  0  0
  -17.0130  -28.4580   22.8100 C   0  0  0  0  0  3  0  0  0  0  0  0
  -26.1660  -32.4390   23.9960 C   0  0  0  0  0  3  0  0  0  0  0  0
  -26.6270  -31.6430   25.2790 C   0  0  1  0  0  0  0  0  0  0  0  0
  -25.4920  -31.3880   26.2980 C   0  0  0  0  0  1  0  0  0  0  0  0
  -27.2240  -30.2700   24.8950 C   0  0  0  0  0  1  0  0  0  0  0  0
  -27.7520  -32.4220   26.0020 C   0  0  0  0  0  1  0  0  0  0  0  0
  -25.8370  -33.8310   24.3590 N   0  0  0  0  0  0  0  0  0  0  0  0
  -26.1560  -34.9120   23.6350 C   0  0  0  0  0  0  0  0  0  0  0  0
  -26.8190  -34.8430   22.5970 O   0  0  0  0  0  0  0  0  0  0  0  0
  -25.2440  -33.9560   25.1670 H   0  0  0  0  0  0  0  0  0  0  0  0
  -24.3960  -36.6970   23.3800 C   0  0  0  0  0  1  0  0  0  0  0  0
  -25.6680  -36.2870   24.1400 C   0  0  0  0  0  3  0  0  0  0  0  0
  -27.8120  -37.1910   24.9280 C   0  0  0  0  0  1  0  0  0  0  0  0
  -26.6830  -37.3560   24.0170 N   0  0  0  0  0  0  0  0  0  0  0  0
  -26.2680  -38.2690   24.1870 H   0  0  0  0  0  0  0  0  0  0  0  0
  1  2  1  0
  1  3  1  0
  2  5  1  0
  3 50  1  0
  3  4  1  0
  4  6  1  0
  4  7  1  0
  5 16  1  0
  5  6  1  0
  6 46  1  0
  8 14  1  0
  8 16  1  0
  9 14  1  0
 10 11  1  0
 10  9  1  0
 12 11  1  0
 12 21  1  0
 12 13  1  0
 14 13  1  0
 15  8  2  0
 16 17  1  0
 18 19  2  0
 19 38  1  0
 20 19  1  0
 20 23  1  0
 21 22  1  0
 21 18  1  0
 22 20  2  0
 23 24  1  0
 24 25  2  0
 26 29  1  0
 26 25  1  0
 27 26  2  0
 28 27  1  0
 28 23  2  0
 29 30  1  0
 30 35  2  0
 30 31  1  0
 31 32  2  0
 32 33  1  0
 33 37  1  0
 34 33  2  0
 35 34  1  0
 36 35  1  0
 38 39  1  0
 39 42  1  0
 39 41  1  0
 40 38  2  0
 43 18  1  0
 43 44  1  0
 45 43  1  0
 46 48  1  0
 46 49  1  0
 47 46  1  0
 50 51  1  0
 52 63  2  0
 53 51  1  0
 53 58  1  0
 54 62  1  0
 54 64  1  0
 55 61  1  0
 55 57  1  0
 56 62  1  0
 57 56  1  0
 58 57  2  0
 59 53  2  0
 60 59  1  0
 60 55  2  0
 61 54  1  0
 62 52  1  0
 64 66  2  0
 65 64  1  0
 67 65  1  0
 68 77  2  0
 68 73  1  0
 69 65  1  0
 69 73  1  0
 70 69  1  0
 71 72  1  0
 71 70  1  0
 72 68  1  0
 73 74  2  0
 74 75  1  0
 76 75  2  0
 77 76  1  0
 78 52  1  0
 78 83  1  0
 78 79  1  0
 79 82  1  1
 79 80  1  0
 81 79  1  0
 83 86  1  0
 84 88  1  0
 84 83  1  0
 85 84  2  0
 88 87  1  0
 90 88  1  0
 90 91  1  0
 90 89  1  0
M  ISO  4   8 100  16 100  50 101  51 101
M  END
>  <TORSDO>  (41) 
F 18

>  <SCORE>  (41) 
-14.980

>  <name>  (41) 
40

>  <ligand_id>  (41) 
40

>  <original_smiles>  (41) 
[H]c1c([H])c([H])c2c(c1[H])C([H])([H])C([H])([H])C([H])([H])C2([H])N([H])C(=O)C1([H])N(C(=O)C([H])(N([H])C(=O)C([H])(N([H])C([H])([H])[H])C([H])([H])[H])C(C([H])([H])[H])(C([H])([H])[H])C([H])([H])[H])C([H])([H])c2c([H])c(OC([H])([H])C3([H])C([H])([H])C([H])([H])C([H])(N([H])C(=O)N4C([H])([H])C([H])([H])C([H])([H])C([H])(n5nc(-c6c([H])c([H])c(Oc7c([H])c([H])c(F)c([H])c7F)c([H])c6[H])c(C(=O)N([H])[H])c5N([H])[H])C4([H])[H])C([H])([N+]([H])([H])[H])C3([H])C([H])([H])[H])c([H])c([H])c2C1([H])[H]

>  <smiles>  (41) 
[H]c1c([H])c([H])c2c(c1[H])C([H])([H])C([H])([H])C([H])([H])C2([H])N([H])C(=O)C1([H])N(C(=O)C([H])(N([H])C(=O)C([H])(N([H])C([H])([H])[H])C([H])([H])[H])C(C([H])([H])[H])(C([H])([H])[H])C([H])([H])[H])C([H])([H])c2c([H])c(OC([H])([H])C3([H])C([H])([H])C([H])([H])C([H])(N([H])C(=O)N4C([H])([H])C([H])([H])C([H])([H])C([H])(n5nc(-c6c([H])c([H])c(Oc7c([H])c([H])c(F)c([H])c7F)c([H])c6[H])c(C(=O)N([H])[H])c5N([H])[H])C4([H])[H])C([H])([N+]([H])([H])[H])C3([H])C([H])([H])[H])c([H])c([H])c2C1([H])[H]

$$$$
41:0:0
     RDKit          3D

 91100  0  0  1  0  0  0  0  0999 V2000
  -30.5780  -14.9060   20.2960 C   0  0  0  0  0  0  0  0  0  0  0  0
  -30.4180  -12.5220   19.4680 C   0  0  0  0  0  2  0  0  0  0  0  0
  -29.5130  -12.4300   18.2210 C   0  0  0  0  0  2  0  0  0  0  0  0
  -28.0420  -12.2450   18.6380 C   0  0  0  0  0  2  0  0  0  0  0  0
  -27.6170  -13.2270   19.7640 C   0  0  0  0  0  3  0  0  0  0  0  0
  -28.6540  -13.3090   20.9040 C   0  0  0  0  0  2  0  0  0  0  0  0
  -29.9340  -13.6710   20.2880 N   0  0  0  0  0  0  0  0  0  0  0  0
  -31.7840  -14.8980   20.0190 O   0  0  0  0  0  0  0  0  0  0  0  0
  -28.4750  -21.8940   19.6950 C   0  0  0  0  0  3  0  0  0  0  0  0
  -28.8120  -23.3220   19.8380 C   0  0  0  0  0  0  0  0  0  0  0  0
  -29.3940  -20.8280   20.0910 C   0  0  0  0  0  0  0  0  0  0  0  0
  -30.8220  -22.5600   20.6890 C   0  0  0  0  0  0  0  0  0  0  0  0
  -30.1660  -18.6240   19.1170 C   0  0  0  0  0  2  0  0  0  0  0  0
  -29.3470  -18.5560   21.2710 C   0  0  0  0  0  2  0  0  0  0  0  0
  -29.9930  -17.0320   18.9560 C   0  0  0  0  0  2  0  0  0  0  0  0
  -29.1710  -16.9410   21.2180 C   0  0  0  0  0  2  0  0  0  0  0  0
  -32.1790  -22.9270   21.2450 C   0  0  0  0  0  1  0  0  0  0  0  0
  -30.0300  -23.5820   20.3530 N   0  0  0  0  0  0  0  0  0  0  0  0
  -30.5690  -21.2490   20.5880 N   0  0  0  0  0  0  0  0  0  0  0  0
  -29.2260  -19.3520   20.0110 N   0  0  0  0  0  0  0  0  0  0  0  0
  -29.8640  -16.1340   20.1570 N   0  0  0  0  0  0  0  0  0  0  0  0
  -25.2400  -13.8330   20.4850 C   0  0  0  0  0  0  0  0  0  0  0  0
  -24.1640  -13.0710   20.8470 C   0  0  0  0  0  0  0  0  0  0  0  0
  -24.6130  -11.7160   20.8260 C   0  0  0  0  0  0  0  0  0  0  0  0
  -26.2740  -12.9430   20.2560 N   0  0  0  0  0  0  0  0  0  0  0  0
  -25.9060  -11.6630   20.5270 N   0  0  0  0  0  0  0  0  0  0  0  0
  -23.8700  -10.4620   21.0140 C   0  0  0  0  0  0  0  0  0  0  0  0
  -24.2760   -9.4960   21.9620 C   0  0  0  0  0  3  0  0  0  0  0  0
  -23.5330   -8.3090   22.1390 C   0  0  0  0  0  3  0  0  0  0  0  0
  -22.3690   -8.0790   21.3680 C   0  0  0  0  0  0  0  0  0  0  0  0
  -21.9810   -9.0330   20.4100 C   0  0  0  0  0  3  0  0  0  0  0  0
  -22.7250  -10.2110   20.2310 C   0  0  0  0  0  3  0  0  0  0  0  0
  -21.5990   -6.9440   21.4540 O   0  0  0  0  0  0  0  0  0  0  0  0
  -21.5080   -6.2220   22.6160 C   0  0  0  0  0  0  0  0  0  0  0  0
  -21.0560   -6.8020   23.8210 C   0  0  0  0  0  3  0  0  0  0  0  0
  -20.9130   -6.0060   24.9750 C   0  0  0  0  0  3  0  0  0  0  0  0
  -21.2110   -4.6320   24.9250 C   0  0  0  0  0  0  0  0  0  0  0  0
  -21.6540   -4.0510   23.7240 C   0  0  0  0  0  3  0  0  0  0  0  0
  -21.7990   -4.8430   22.5730 C   0  0  0  0  0  0  0  0  0  0  0  0
  -22.2080   -4.2740   21.4130 F   0  0  0  0  0  0  0  0  0  0  0  0
  -21.0650   -3.8650   26.0310 F   0  0  0  0  0  0  0  0  0  0  0  0
  -22.7700  -13.5660   21.1030 C   0  0  0  0  0  0  0  0  0  0  0  0
  -22.0280  -12.8870   21.9700 N   0  0  0  0  0  0  0  0  0  0  0  0
  -22.3480  -14.5910   20.5680 O   0  0  0  0  0  0  0  0  0  0  0  0
  -22.3810  -12.0600   22.4260 H   0  0  0  0  0  0  0  0  0  0  0  0
  -21.0910  -13.2020   22.1810 H   0  0  0  0  0  0  0  0  0  0  0  0
  -25.4210  -15.2010   20.3030 N   0  0  0  0  0  0  0  0  0  0  0  0
  -24.6640  -15.8660   20.4120 H   0  0  0  0  0  0  0  0  0  0  0  0
  -26.2820  -15.6270   19.9810 H   0  0  0  0  0  0  0  0  0  0  0  0
  -27.8810  -24.6170   19.4510 C   0  0  0  0  0  2  0  0  0  0  0  0
  -28.2020  -26.1220   19.6850 O   0  0  0  0  0  0  0  0  0  0  0  0
  -24.4810  -31.5570   22.9860 C   0  0  0  0  0  0  0  0  0  0  0  0
  -27.1360  -27.0910   19.6700 C   0  0  0  0  0  0  0  0  0  0  0  0
  -23.2980  -30.2240   21.2850 C   0  0  0  0  0  3  0  0  0  0  0  0
  -24.7690  -28.7740   19.7590 C   0  0  0  0  0  0  0  0  0  0  0  0
  -25.8440  -30.5640   21.1110 C   0  0  0  0  0  2  0  0  0  0  0  0
  -25.9440  -29.2140   20.3810 C   0  0  0  0  0  0  0  0  0  0  0  0
  -27.1290  -28.3900   20.3230 C   0  0  0  0  0  3  0  0  0  0  0  0
  -25.9310  -26.7590   19.0090 C   0  0  0  0  0  3  0  0  0  0  0  0
  -24.7740  -27.5610   19.0600 C   0  0  0  0  0  3  0  0  0  0  0  0
  -23.5210  -29.6340   19.8680 C   0  0  0  0  0  2  0  0  0  0  0  0
  -24.5610  -30.8000   21.8500 N   0  0  0  0  0  0  0  0  0  0  0  0
  -23.3930  -31.7850   23.5380 O   0  0  0  0  0  0  0  0  0  0  0  0
  -22.6570  -29.1450   22.1940 C   0  0  0  0  0  0  0  0  0  0  0  0
  -21.3290  -28.9630   22.0860 N   0  0  0  0  0  0  0  0  0  0  0  0
  -23.3560  -28.4800   22.9620 O   0  0  0  0  0  0  0  0  0  0  0  0
  -20.8220  -29.5560   21.4430 H   0  0  0  0  0  0  0  0  0  0  0  0
  -17.9720  -27.7010   22.5990 C   0  0  0  0  0  0  0  0  0  0  0  0
  -20.5360  -27.9700   22.8140 C   0  0  0  0  0  3  0  0  0  0  0  0
  -20.6330  -26.5800   22.1440 C   0  0  0  0  0  2  0  0  0  0  0  0
  -19.5060  -26.3120   21.1420 C   0  0  0  0  0  2  0  0  0  0  0  0
  -18.1410  -26.4010   21.8300 C   0  0  0  0  0  2  0  0  0  0  0  0
  -19.0960  -28.4450   23.0470 C   0  0  0  0  0  0  0  0  0  0  0  0
  -18.8820  -29.6620   23.7300 C   0  0  0  0  0  3  0  0  0  0  0  0
  -17.5770  -30.1360   23.9660 C   0  0  0  0  0  3  0  0  0  0  0  0
  -16.4680  -29.3880   23.5320 C   0  0  0  0  0  3  0  0  0  0  0  0
  -16.6670  -28.1720   22.8530 C   0  0  0  0  0  3  0  0  0  0  0  0
  -25.7490  -32.1890   23.6350 C   0  0  0  0  0  3  0  0  0  0  0  0
  -25.3990  -33.5530   24.0630 N   0  0  0  0  0  0  0  0  0  0  0  0
  -25.6950  -34.6670   23.3810 C   0  0  0  0  0  0  0  0  0  0  0  0
  -26.3600  -34.6570   22.3410 O   0  0  0  0  0  0  0  0  0  0  0  0
  -24.8050  -33.6310   24.8750 H   0  0  0  0  0  0  0  0  0  0  0  0
  -23.9180  -36.4380   23.1690 C   0  0  0  0  0  1  0  0  0  0  0  0
  -25.1750  -36.0070   23.9410 C   0  0  0  0  0  3  0  0  0  0  0  0
  -27.2920  -36.8880   24.8210 C   0  0  0  0  0  1  0  0  0  0  0  0
  -26.1780  -37.0940   23.8990 N   0  0  0  0  0  0  0  0  0  0  0  0
  -25.7490  -37.9890   24.1150 H   0  0  0  0  0  0  0  0  0  0  0  0
  -26.3010  -31.3550   24.8550 C   0  0  1  0  0  0  0  0  0  0  0  0
  -25.2310  -31.0290   25.9240 C   0  0  0  0  0  1  0  0  0  0  0  0
  -26.9090  -30.0160   24.3760 C   0  0  0  0  0  1  0  0  0  0  0  0
  -27.4450  -32.1340   25.5470 C   0  0  0  0  0  1  0  0  0  0  0  0
  2  7  1  0
  3  4  1  0
  3  2  1  0
  5  4  1  0
  5 25  1  0
  5  6  1  0
  7  1  1  0
  7  6  1  0
  8  1  2  0
  9 10  2  0
  9 11  1  0
 10 18  1  0
 11 19  2  0
 12 17  1  0
 13 20  1  0
 15 13  1  0
 15 21  1  0
 16 14  1  0
 18 12  2  0
 19 12  1  0
 20 11  1  0
 20 14  1  0
 21  1  1  0
 21 16  1  0
 22 23  2  0
 23 42  1  0
 24 23  1  0
 24 27  1  0
 25 22  1  0
 25 26  1  0
 26 24  2  0
 27 28  1  0
 28 29  2  0
 30 33  1  0
 30 29  1  0
 31 30  2  0
 32 31  1  0
 32 27  2  0
 33 34  1  0
 34 35  1  0
 35 36  2  0
 37 36  1  0
 37 41  1  0
 38 37  2  0
 39 34  2  0
 39 38  1  0
 40 39  1  0
 42 43  1  0
 43 46  1  0
 43 45  1  0
 44 42  2  0
 47 48  1  0
 47 22  1  0
 49 47  1  0
 50 51  1  0
 50 10  1  0
 52 63  2  0
 53 51  1  0
 53 58  1  0
 54 62  1  0
 54 64  1  0
 55 61  1  0
 55 57  1  0
 56 62  1  0
 57 56  1  0
 58 57  2  0
 59 60  1  0
 59 53  2  0
 60 55  2  0
 61 54  1  0
 62 52  1  0
 64 66  2  0
 65 64  1  0
 67 65  1  0
 68 77  2  0
 68 73  1  0
 69 65  1  0
 69 73  1  0
 70 69  1  0
 71 72  1  0
 71 70  1  0
 72 68  1  0
 73 74  2  0
 74 75  1  0
 76 75  2  0
 77 76  1  0
 78 52  1  0
 78 79  1  0
 78 88  1  0
 79 82  1  0
 80 84  1  0
 80 79  1  0
 81 80  2  0
 84 83  1  0
 86 84  1  0
 86 87  1  0
 86 85  1  0
 88 91  1  1
 88 89  1  0
 90 88  1  0
M  ISO  4   1 100  21 100  50 101  51 101
M  END
>  <TORSDO>  (42) 
F 16

>  <SCORE>  (42) 
-13.898

>  <name>  (42) 
41

>  <ligand_id>  (42) 
41

>  <original_smiles>  (42) 
[H]c1c(N2C([H])([H])C([H])([H])N(C(=O)N3C([H])([H])C([H])([H])C([H])([H])C([H])(n4nc(-c5c([H])c([H])c(Oc6c([H])c([H])c(F)c([H])c6F)c([H])c5[H])c(C(=O)N([H])[H])c4N([H])[H])C3([H])[H])C([H])([H])C2([H])[H])nc(C([H])([H])[H])nc1C([H])([H])Oc1c([H])c([H])c2c(c1[H])C([H])([H])N(C(=O)C([H])(N([H])C(=O)C([H])(N([H])C([H])([H])[H])C([H])([H])[H])C(C([H])([H])[H])(C([H])([H])[H])C([H])([H])[H])C([H])(C(=O)N([H])C1([H])c3c([H])c([H])c([H])c([H])c3C([H])([H])C([H])([H])C1([H])[H])C2([H])[H]

>  <smiles>  (42) 
[H]c1c(N2C([H])([H])C([H])([H])N(C(=O)N3C([H])([H])C([H])([H])C([H])([H])C([H])(n4nc(-c5c([H])c([H])c(Oc6c([H])c([H])c(F)c([H])c6F)c([H])c5[H])c(C(=O)N([H])[H])c4N([H])[H])C3([H])[H])C([H])([H])C2([H])[H])nc(C([H])([H])[H])nc1C([H])([H])Oc1c([H])c([H])c2c(c1[H])C([H])([H])N(C(=O)C([H])(N([H])C(=O)C([H])(N([H])C([H])([H])[H])C([H])([H])[H])C(C([H])([H])[H])(C([H])([H])[H])C([H])([H])[H])C([H])(C(=O)N([H])C1([H])c3c([H])c([H])c([H])c([H])c3C([H])([H])C([H])([H])C1([H])[H])C2([H])[H]

$$$$
42:0:0
     RDKit          3D

 86 94  0  0  1  0  0  0  0  0999 V2000
  -30.2960  -15.6660   20.2890 C   0  0  0  0  0  0  0  0  0  0  0  0
  -30.4310  -13.0910   19.5630 C   0  0  0  0  0  2  0  0  0  0  0  0
  -29.5770  -12.6600   18.3350 C   0  0  0  0  0  2  0  0  0  0  0  0
  -28.1370  -12.3220   18.7540 C   0  0  0  0  0  2  0  0  0  0  0  0
  -27.5990  -13.3510   19.7740 C   0  0  0  0  0  3  0  0  0  0  0  0
  -28.5960  -13.6870   20.9090 C   0  0  0  0  0  2  0  0  0  0  0  0
  -29.7920  -14.2880   20.2750 N   0  0  0  0  0  0  0  0  0  0  0  0
  -31.5290  -15.6160   20.1090 O   0  0  0  0  0  0  0  0  0  0  0  0
  -29.8560  -21.2420   19.6100 C   0  0  0  0  0  3  0  0  0  0  0  0
  -28.2100  -19.5380   20.7130 C   0  0  0  0  0  3  0  0  0  0  0  0
  -28.6870  -22.0480   20.1020 C   0  0  0  0  0  0  0  0  0  0  0  0
  -29.3730  -18.7200   20.2500 C   0  0  0  0  0  0  0  0  0  0  0  0
  -27.9110  -20.9750   20.6440 N   0  0  0  0  0  0  0  0  0  0  0  0
  -30.1620  -19.7910   19.6960 N   0  0  0  0  0  0  0  0  0  0  0  0
  -29.4820  -16.9940   20.3640 N   0  0  0  0  0  0  0  0  0  0  0  0
  -28.5540  -16.6700   20.5900 H   0  0  0  0  0  0  0  0  0  0  0  0
  -25.2180  -13.9010   20.4640 C   0  0  0  0  0  0  0  0  0  0  0  0
  -24.1480  -13.1310   20.8180 C   0  0  0  0  0  0  0  0  0  0  0  0
  -24.6160  -11.7800   20.8230 C   0  0  0  0  0  0  0  0  0  0  0  0
  -26.2660  -13.0250   20.2620 N   0  0  0  0  0  0  0  0  0  0  0  0
  -25.9160  -11.7410   20.5460 N   0  0  0  0  0  0  0  0  0  0  0  0
  -23.8790  -10.5220   21.0140 C   0  0  0  0  0  0  0  0  0  0  0  0
  -24.2880   -9.5620   21.9640 C   0  0  0  0  0  3  0  0  0  0  0  0
  -23.5480   -8.3730   22.1440 C   0  0  0  0  0  3  0  0  0  0  0  0
  -22.3840   -8.1370   21.3760 C   0  0  0  0  0  0  0  0  0  0  0  0
  -21.9940   -9.0850   20.4140 C   0  0  0  0  0  3  0  0  0  0  0  0
  -22.7350  -10.2650   20.2320 C   0  0  0  0  0  3  0  0  0  0  0  0
  -21.6190   -6.9990   21.4640 O   0  0  0  0  0  0  0  0  0  0  0  0
  -21.5550   -6.2620   22.6200 C   0  0  0  0  0  0  0  0  0  0  0  0
  -21.1450   -6.8320   23.8450 C   0  0  0  0  0  3  0  0  0  0  0  0
  -21.0270   -6.0230   24.9930 C   0  0  0  0  0  3  0  0  0  0  0  0
  -21.3090   -4.6460   24.9170 C   0  0  0  0  0  0  0  0  0  0  0  0
  -21.7130   -4.0760   23.6970 C   0  0  0  0  0  3  0  0  0  0  0  0
  -21.8320   -4.8820   22.5510 C   0  0  0  0  0  0  0  0  0  0  0  0
  -22.2010   -4.3230   21.3730 F   0  0  0  0  0  0  0  0  0  0  0  0
  -21.1900   -3.8670   26.0170 F   0  0  0  0  0  0  0  0  0  0  0  0
  -22.7440  -13.6150   21.0330 C   0  0  0  0  0  0  0  0  0  0  0  0
  -21.9910  -12.9440   21.8960 N   0  0  0  0  0  0  0  0  0  0  0  0
  -22.3260  -14.6260   20.4720 O   0  0  0  0  0  0  0  0  0  0  0  0
  -22.3430  -12.1280   22.3730 H   0  0  0  0  0  0  0  0  0  0  0  0
  -21.0470  -13.2530   22.0850 H   0  0  0  0  0  0  0  0  0  0  0  0
  -25.3820  -15.2690   20.2620 N   0  0  0  0  0  0  0  0  0  0  0  0
  -24.6010  -15.9130   20.3170 H   0  0  0  0  0  0  0  0  0  0  0  0
  -26.2120  -15.6890   19.8640 H   0  0  0  0  0  0  0  0  0  0  0  0
  -28.0100  -23.7780   19.7800 C   0  0  0  0  0  2  0  0  0  0  0  0
  -28.2460  -25.5000   20.0800 O   0  0  0  0  0  0  0  0  0  0  0  0
  -24.7400  -31.7830   23.0260 C   0  0  0  0  0  0  0  0  0  0  0  0
  -27.2860  -26.7260   20.0030 C   0  0  0  0  0  0  0  0  0  0  0  0
  -23.5540  -30.3860   21.3870 C   0  0  0  0  0  3  0  0  0  0  0  0
  -25.0070  -28.7520   19.9610 C   0  0  0  0  0  0  0  0  0  0  0  0
  -26.1330  -30.5400   21.2600 C   0  0  0  0  0  2  0  0  0  0  0  0
  -26.2020  -29.1100   20.5950 C   0  0  0  0  0  0  0  0  0  0  0  0
  -27.3240  -28.1240   20.5870 C   0  0  0  0  0  3  0  0  0  0  0  0
  -26.0570  -26.5840   19.3080 C   0  0  0  0  0  3  0  0  0  0  0  0
  -24.9730  -27.5160   19.2930 C   0  0  0  0  0  3  0  0  0  0  0  0
  -23.7940  -29.6970   20.0130 C   0  0  0  0  0  2  0  0  0  0  0  0
  -24.8330  -30.9360   21.9440 N   0  0  0  0  0  0  0  0  0  0  0  0
  -23.6480  -32.0760   23.5410 O   0  0  0  0  0  0  0  0  0  0  0  0
  -22.8450  -29.4020   22.3570 C   0  0  0  0  0  0  0  0  0  0  0  0
  -21.5080  -29.2710   22.2620 N   0  0  0  0  0  0  0  0  0  0  0  0
  -23.5100  -28.7540   23.1680 O   0  0  0  0  0  0  0  0  0  0  0  0
  -21.0210  -29.8450   21.5870 H   0  0  0  0  0  0  0  0  0  0  0  0
  -18.1100  -28.1250   22.8590 C   0  0  0  0  0  0  0  0  0  0  0  0
  -20.6850  -28.3340   23.0380 C   0  0  0  0  0  3  0  0  0  0  0  0
  -20.7330  -26.9150   22.4240 C   0  0  0  0  0  2  0  0  0  0  0  0
  -19.5910  -26.6430   21.4410 C   0  0  0  0  0  2  0  0  0  0  0  0
  -18.2350  -26.7950   22.1360 C   0  0  0  0  0  2  0  0  0  0  0  0
  -19.2590  -28.8560   23.2680 C   0  0  0  0  0  0  0  0  0  0  0  0
  -19.0830  -30.0990   23.9120 C   0  0  0  0  0  3  0  0  0  0  0  0
  -17.7940  -30.6140   24.1460 C   0  0  0  0  0  3  0  0  0  0  0  0
  -16.6610  -29.8830   23.7490 C   0  0  0  0  0  3  0  0  0  0  0  0
  -16.8210  -28.6390   23.1120 C   0  0  0  0  0  3  0  0  0  0  0  0
  -26.0010  -32.4380   23.6660 C   0  0  0  0  0  3  0  0  0  0  0  0
  -25.6570  -33.8200   24.0550 N   0  0  0  0  0  0  0  0  0  0  0  0
  -25.9530  -34.9190   23.3470 C   0  0  0  0  0  0  0  0  0  0  0  0
  -26.6000  -34.8770   22.2980 O   0  0  0  0  0  0  0  0  0  0  0  0
  -25.0750  -33.9230   24.8730 H   0  0  0  0  0  0  0  0  0  0  0  0
  -24.1780  -36.6960   23.1370 C   0  0  0  0  0  1  0  0  0  0  0  0
  -25.4560  -36.2790   23.8830 C   0  0  0  0  0  3  0  0  0  0  0  0
  -27.6000  -37.1800   24.6730 C   0  0  0  0  0  1  0  0  0  0  0  0
  -26.4610  -37.3600   23.7780 N   0  0  0  0  0  0  0  0  0  0  0  0
  -26.0410  -38.2640   23.9780 H   0  0  0  0  0  0  0  0  0  0  0  0
  -26.5370  -31.6480   24.9250 C   0  0  1  0  0  0  0  0  0  0  0  0
  -25.4560  -31.3770   25.9980 C   0  0  0  0  0  1  0  0  0  0  0  0
  -27.1320  -30.2840   24.5130 C   0  0  0  0  0  1  0  0  0  0  0  0
  -27.6840  -32.4420   25.5930 C   0  0  0  0  0  1  0  0  0  0  0  0
  1 15  1  0
  2  7  1  0
  3  4  1  0
  3  2  1  0
  5  4  1  0
  5 20  1  0
  5  6  1  0
  7  1  1  0
  7  6  1  0
  8  1  2  0
  9 14  2  0
  9 11  1  0
 11 13  2  0
 12 15  1  0
 12 10  2  0
 13 10  1  0
 14 12  1  0
 15 16  1  0
 17 18  2  0
 18 19  1  0
 18 37  1  0
 19 22  1  0
 20 17  1  0
 20 21  1  0
 21 19  2  0
 22 23  1  0
 23 24  2  0
 25 28  1  0
 25 24  1  0
 26 25  2  0
 27 26  1  0
 27 22  2  0
 28 29  1  0
 29 30  1  0
 30 31  2  0
 32 31  1  0
 32 36  1  0
 33 32  2  0
 34 29  2  0
 34 33  1  0
 35 34  1  0
 37 38  1  0
 38 41  1  0
 38 40  1  0
 39 37  2  0
 42 43  1  0
 42 17  1  0
 44 42  1  0
 45 46  1  0
 45 11  1  0
 47 58  2  0
 48 46  1  0
 48 53  1  0
 49 57  1  0
 49 59  1  0
 50 56  1  0
 50 52  1  0
 51 57  1  0
 52 51  1  0
 53 52  2  0
 54 48  2  0
 55 54  1  0
 55 50  2  0
 56 49  1  0
 57 47  1  0
 59 61  2  0
 60 59  1  0
 62 60  1  0
 63 72  2  0
 63 68  1  0
 64 60  1  0
 64 68  1  0
 65 64  1  0
 66 67  1  0
 66 65  1  0
 67 63  1  0
 68 69  2  0
 69 70  1  0
 71 70  2  0
 72 71  1  0
 73 47  1  0
 73 74  1  0
 73 83  1  0
 74 77  1  0
 75 79  1  0
 75 74  1  0
 76 75  2  0
 79 78  1  0
 81 79  1  0
 81 82  1  0
 81 80  1  0
 83 86  1  1
 83 84  1  0
 85 83  1  0
M  ISO  4   1 100  15 100  45 101  46 101
M  END
>  <TORSDO>  (43) 
F 16

>  <SCORE>  (43) 
-15.942

>  <name>  (43) 
42

>  <ligand_id>  (43) 
42

>  <original_smiles>  (43) 
[H]c1nc(C([H])([H])Oc2c([H])c([H])c3c(c2[H])C([H])([H])N(C(=O)C([H])(N([H])C(=O)C([H])(N([H])C([H])([H])[H])C([H])([H])[H])C(C([H])([H])[H])(C([H])([H])[H])C([H])([H])[H])C([H])(C(=O)N([H])C2([H])c4c([H])c([H])c([H])c([H])c4C([H])([H])C([H])([H])C2([H])[H])C3([H])[H])c([H])nc1N([H])C(=O)N1C([H])([H])C([H])([H])C([H])([H])C([H])(n2nc(-c3c([H])c([H])c(Oc4c([H])c([H])c(F)c([H])c4F)c([H])c3[H])c(C(=O)N([H])[H])c2N([H])[H])C1([H])[H]

>  <smiles>  (43) 
[H]c1nc(C([H])([H])Oc2c([H])c([H])c3c(c2[H])C([H])([H])N(C(=O)C([H])(N([H])C(=O)C([H])(N([H])C([H])([H])[H])C([H])([H])[H])C(C([H])([H])[H])(C([H])([H])[H])C([H])([H])[H])C([H])(C(=O)N([H])C2([H])c4c([H])c([H])c([H])c([H])c4C([H])([H])C([H])([H])C2([H])[H])C3([H])[H])c([H])nc1N([H])C(=O)N1C([H])([H])C([H])([H])C([H])([H])C([H])(n2nc(-c3c([H])c([H])c(Oc4c([H])c([H])c(F)c([H])c4F)c([H])c3[H])c(C(=O)N([H])[H])c2N([H])[H])C1([H])[H]

$$$$
43:0:0
     RDKit          3D

 96105  0  0  1  0  0  0  0  0999 V2000
  -28.9300  -24.3610   19.6060 C   0  0  0  0  0  3  0  0  0  0  0  0
  -28.9200  -23.0960   20.2580 C   0  0  0  0  0  0  0  0  0  0  0  0
  -28.2980  -25.4620   20.2250 C   0  0  0  0  0  0  0  0  0  0  0  0
  -27.7590  -24.0740   21.9880 C   0  0  0  0  0  0  0  0  0  0  0  0
  -27.1570  -23.9730   23.3820 C   0  0  0  0  0  1  0  0  0  0  0  0
  -28.3140  -22.9730   21.4600 N   0  0  0  0  0  0  0  0  0  0  0  0
  -27.7150  -25.2850   21.4290 N   0  0  0  0  0  0  0  0  0  0  0  0
  -28.3030  -26.7620   19.6850 O   0  0  0  0  0  0  0  0  0  0  0  0
  -24.5940  -31.8520   23.1470 C   0  0  0  0  0  0  0  0  0  0  0  0
  -27.1760  -27.5790   19.7500 C   0  0  0  0  0  0  0  0  0  0  0  0
  -23.3700  -30.5930   21.4100 C   0  0  0  0  0  3  0  0  0  0  0  0
  -24.8080  -29.1620   19.8520 C   0  0  0  0  0  0  0  0  0  0  0  0
  -25.9040  -30.9420   21.2170 C   0  0  0  0  0  2  0  0  0  0  0  0
  -25.9770  -29.6150   20.4790 C   0  0  0  0  0  0  0  0  0  0  0  0
  -27.1670  -28.8380   20.4160 C   0  0  0  0  0  3  0  0  0  0  0  0
  -25.9910  -27.1660   19.1070 C   0  0  0  0  0  3  0  0  0  0  0  0
  -24.8170  -27.9410   19.1550 C   0  0  0  0  0  3  0  0  0  0  0  0
  -23.5690  -30.0310   19.9770 C   0  0  0  0  0  2  0  0  0  0  0  0
  -24.6430  -31.1350   21.9870 N   0  0  0  0  0  0  0  0  0  0  0  0
  -23.5170  -32.0820   23.7180 O   0  0  0  0  0  0  0  0  0  0  0  0
  -22.7170  -29.5010   22.2910 C   0  0  0  0  0  0  0  0  0  0  0  0
  -21.3870  -29.3570   22.1800 N   0  0  0  0  0  0  0  0  0  0  0  0
  -23.4060  -28.7940   23.0330 O   0  0  0  0  0  0  0  0  0  0  0  0
  -20.8970  -29.9720   21.5470 H   0  0  0  0  0  0  0  0  0  0  0  0
  -17.9870  -28.2340   22.7130 C   0  0  0  0  0  0  0  0  0  0  0  0
  -20.5650  -28.3710   22.8840 C   0  0  0  0  0  3  0  0  0  0  0  0
  -20.5870  -27.0040   22.1600 C   0  0  0  0  0  2  0  0  0  0  0  0
  -19.4260  -26.8310   21.1750 C   0  0  0  0  0  2  0  0  0  0  0  0
  -18.0770  -26.9600   21.8890 C   0  0  0  0  0  2  0  0  0  0  0  0
  -19.1540  -28.9040   23.1670 C   0  0  0  0  0  0  0  0  0  0  0  0
  -19.0150  -30.1040   23.8990 C   0  0  0  0  0  3  0  0  0  0  0  0
  -17.7410  -30.6340   24.1750 C   0  0  0  0  0  3  0  0  0  0  0  0
  -16.5900  -29.9640   23.7340 C   0  0  0  0  0  3  0  0  0  0  0  0
  -16.7110  -28.7640   23.0110 C   0  0  0  0  0  3  0  0  0  0  0  0
  -25.8870  -32.4320   23.7960 C   0  0  0  0  0  3  0  0  0  0  0  0
  -26.4050  -31.5600   25.0050 C   0  0  1  0  0  0  0  0  0  0  0  0
  -25.3160  -31.2330   26.0550 C   0  0  0  0  0  1  0  0  0  0  0  0
  -26.9800  -30.2190   24.4960 C   0  0  0  0  0  1  0  0  0  0  0  0
  -27.5680  -32.2890   25.7170 C   0  0  0  0  0  1  0  0  0  0  0  0
  -25.5900  -33.8020   24.2360 N   0  0  0  0  0  0  0  0  0  0  0  0
  -25.9230  -34.9040   23.5520 C   0  0  0  0  0  0  0  0  0  0  0  0
  -26.5840  -34.8680   22.5120 O   0  0  0  0  0  0  0  0  0  0  0  0
  -24.9920  -33.9030   25.0420 H   0  0  0  0  0  0  0  0  0  0  0  0
  -24.1960  -36.7170   23.3520 C   0  0  0  0  0  1  0  0  0  0  0  0
  -25.4500  -36.2600   24.1130 C   0  0  0  0  0  3  0  0  0  0  0  0
  -27.5940  -37.0710   24.9770 C   0  0  0  0  0  1  0  0  0  0  0  0
  -26.4850  -37.3160   24.0590 N   0  0  0  0  0  0  0  0  0  0  0  0
  -26.0870  -38.2260   24.2790 H   0  0  0  0  0  0  0  0  0  0  0  0
  -29.6170  -21.8510   19.6330 C   0  0  0  0  0  2  0  0  0  0  0  0
  -28.8180  -18.0060   19.3760 C   0  0  0  0  0  2  0  0  0  0  0  0
  -28.9700  -19.5240   19.0110 C   0  0  0  0  0  2  0  0  0  0  0  0
  -30.3610  -19.8500   21.0140 C   0  0  0  0  0  2  0  0  0  0  0  0
  -30.1020  -18.3450   21.4380 C   0  0  0  0  0  3  0  0  0  0  0  0
  -30.0250  -17.4250   20.1700 C   0  0  0  0  0  3  0  0  0  0  0  0
  -29.2920  -20.4570   20.1450 N   0  0  1  0  0  4  0  0  0  0  0  0
  -28.4680  -20.5990   20.7140 H   0  0  0  0  0  0  0  0  0  0  0  0
  -30.7440  -14.9140   20.0460 C   0  0  0  0  0  0  0  0  0  0  0  0
  -30.5880  -12.6720   18.9880 C   0  0  0  0  0  2  0  0  0  0  0  0
  -29.6070  -12.7780   17.7990 C   0  0  0  0  0  2  0  0  0  0  0  0
  -28.1580  -12.5630   18.2800 C   0  0  0  0  0  2  0  0  0  0  0  0
  -27.8110  -13.4330   19.5170 C   0  0  0  0  0  3  0  0  0  0  0  0
  -28.8950  -13.2950   20.6050 C   0  0  0  0  0  2  0  0  0  0  0  0
  -30.1790  -13.6690   19.9950 N   0  0  0  0  0  0  0  0  0  0  0  0
  -31.8830  -15.1190   19.6000 O   0  0  0  0  0  0  0  0  0  0  0  0
  -29.9080  -15.9380   20.4080 N   0  0  0  0  0  0  0  0  0  0  0  0
  -29.0130  -15.6270   20.7540 H   0  0  0  0  0  0  0  0  0  0  0  0
  -25.4320  -14.0170   20.2830 C   0  0  0  0  0  0  0  0  0  0  0  0
  -24.3860  -13.2370   20.6850 C   0  0  0  0  0  0  0  0  0  0  0  0
  -24.8650  -11.8880   20.6540 C   0  0  0  0  0  0  0  0  0  0  0  0
  -26.4780  -13.1480   20.0310 N   0  0  0  0  0  0  0  0  0  0  0  0
  -26.1440  -11.8640   20.3110 N   0  0  0  0  0  0  0  0  0  0  0  0
  -24.1600  -10.6200   20.8740 C   0  0  0  0  0  0  0  0  0  0  0  0
  -24.5590   -9.7210   21.8860 C   0  0  0  0  0  3  0  0  0  0  0  0
  -23.8560   -8.5150   22.0890 C   0  0  0  0  0  3  0  0  0  0  0  0
  -22.7430   -8.1990   21.2730 C   0  0  0  0  0  0  0  0  0  0  0  0
  -22.3690   -9.0860   20.2470 C   0  0  0  0  0  3  0  0  0  0  0  0
  -23.0720  -10.2830   20.0460 C   0  0  0  0  0  3  0  0  0  0  0  0
  -22.0150   -7.0390   21.3770 O   0  0  0  0  0  0  0  0  0  0  0  0
  -21.8280   -6.4110   22.5810 C   0  0  0  0  0  0  0  0  0  0  0  0
  -21.1900   -7.0560   23.6650 C   0  0  0  0  0  3  0  0  0  0  0  0
  -20.9610   -6.3530   24.8630 C   0  0  0  0  0  3  0  0  0  0  0  0
  -21.3580   -5.0070   24.9760 C   0  0  0  0  0  0  0  0  0  0  0  0
  -21.9880   -4.3620   23.8980 C   0  0  0  0  0  3  0  0  0  0  0  0
  -22.2210   -5.0630   22.7010 C   0  0  0  0  0  0  0  0  0  0  0  0
  -22.8110   -4.4330   21.6560 F   0  0  0  0  0  0  0  0  0  0  0  0
  -21.1300   -4.3280   26.1250 F   0  0  0  0  0  0  0  0  0  0  0  0
  -22.9870  -13.6940   20.9890 C   0  0  0  0  0  0  0  0  0  0  0  0
  -22.2860  -12.9850   21.8680 N   0  0  0  0  0  0  0  0  0  0  0  0
  -22.5280  -14.7180   20.4850 O   0  0  0  0  0  0  0  0  0  0  0  0
  -22.6780  -12.1590   22.2870 H   0  0  0  0  0  0  0  0  0  0  0  0
  -21.3480  -13.2770   22.1140 H   0  0  0  0  0  0  0  0  0  0  0  0
  -25.5680  -15.3900   20.0810 N   0  0  0  0  0  0  0  0  0  0  0  0
  -24.7690  -16.0100   20.1620 H   0  0  0  0  0  0  0  0  0  0  0  0
  -26.3460  -15.8170   19.5970 H   0  0  0  0  0  0  0  0  0  0  0  0
  -31.0060  -18.4180   23.8970 C   0  0  0  0  0  1  0  0  0  0  0  0
  -31.1130  -17.8140   22.4850 C   0  0  0  0  0  2  0  0  0  0  0  0
  1  3  1  0
  1  2  2  0
  2  6  1  0
  3  7  2  0
  4  5  1  0
  6  4  2  0
  7  4  1  0
  8 10  1  0
  8  3  1  0
  9 20  2  0
 10 15  1  0
 11 19  1  0
 11 21  1  0
 12 18  1  0
 12 14  1  0
 13 19  1  0
 14 13  1  0
 15 14  2  0
 16 17  1  0
 16 10  2  0
 17 12  2  0
 18 11  1  0
 19  9  1  0
 21 23  2  0
 22 21  1  0
 24 22  1  0
 25 34  2  0
 25 30  1  0
 26 22  1  0
 26 30  1  0
 27 26  1  0
 28 29  1  0
 28 27  1  0
 29 25  1  0
 30 31  2  0
 31 32  1  0
 33 32  2  0
 34 33  1  0
 35  9  1  0
 35 40  1  0
 35 36  1  0
 36 39  1  1
 36 37  1  0
 38 36  1  0
 40 43  1  0
 41 45  1  0
 41 40  1  0
 42 41  2  0
 45 44  1  0
 47 45  1  0
 47 48  1  0
 47 46  1  0
 49 55  1  0
 49  2  1  0
 50 54  1  0
 51 50  1  0
 51 55  1  0
 52 53  1  0
 53 96  1  0
 54 65  1  0
 54 53  1  0
 55 56  1  1
 55 52  1  0
 57 65  1  0
 58 63  1  0
 59 60  1  0
 59 58  1  0
 61 60  1  0
 61 70  1  0
 61 62  1  0
 63 57  1  0
 63 62  1  0
 64 57  2  0
 65 66  1  0
 67 68  2  0
 68 87  1  0
 69 68  1  0
 69 72  1  0
 70 67  1  0
 70 71  1  0
 71 69  2  0
 72 73  1  0
 73 74  2  0
 75 78  1  0
 75 74  1  0
 76 75  2  0
 77 76  1  0
 77 72  2  0
 78 79  1  0
 79 84  2  0
 79 80  1  0
 80 81  2  0
 81 82  1  0
 82 86  1  0
 83 82  2  0
 84 83  1  0
 85 84  1  0
 87 88  1  0
 88 91  1  0
 88 90  1  0
 89 87  2  0
 92 93  1  0
 92 67  1  0
 94 92  1  0
 96 95  1  0
M  ISO  4   3 101   8 101  57 100  65 100
M  END
>  <TORSDO>  (44) 
F 19

>  <SCORE>  (44) 
-11.116

>  <name>  (44) 
43

>  <ligand_id>  (44) 
43

>  <original_smiles>  (44) 
[H]c1c(Oc2c([H])c([H])c3c(c2[H])C([H])([H])N(C(=O)C([H])(N([H])C(=O)C([H])(N([H])C([H])([H])[H])C([H])([H])[H])C(C([H])([H])[H])(C([H])([H])[H])C([H])([H])[H])C([H])(C(=O)N([H])C2([H])c4c([H])c([H])c([H])c([H])c4C([H])([H])C([H])([H])C2([H])[H])C3([H])[H])nc(C([H])([H])[H])nc1C([H])([H])[N+]1([H])C([H])([H])C([H])([H])C([H])(N([H])C(=O)N2C([H])([H])C([H])([H])C([H])([H])C([H])(n3nc(-c4c([H])c([H])c(Oc5c([H])c([H])c(F)c([H])c5F)c([H])c4[H])c(C(=O)N([H])[H])c3N([H])[H])C2([H])[H])C([H])(C([H])([H])C([H])([H])[H])C1([H])[H]

>  <smiles>  (44) 
[H]c1c(Oc2c([H])c([H])c3c(c2[H])C([H])([H])N(C(=O)C([H])(N([H])C(=O)C([H])(N([H])C([H])([H])[H])C([H])([H])[H])C(C([H])([H])[H])(C([H])([H])[H])C([H])([H])[H])C([H])(C(=O)N([H])C2([H])c4c([H])c([H])c([H])c([H])c4C([H])([H])C([H])([H])C2([H])[H])C3([H])[H])nc(C([H])([H])[H])nc1C([H])([H])[N+]1([H])C([H])([H])C([H])([H])C([H])(N([H])C(=O)N2C([H])([H])C([H])([H])C([H])([H])C([H])(n3nc(-c4c([H])c([H])c(Oc5c([H])c([H])c(F)c([H])c5F)c([H])c4[H])c(C(=O)N([H])[H])c3N([H])[H])C2([H])[H])C([H])(C([H])([H])C([H])([H])[H])C1([H])[H]

$$$$
44:0:0
     RDKit          3D

 90 99  0  0  1  0  0  0  0  0999 V2000
  -30.4410  -15.2640   20.3130 C   0  0  0  0  0  0  0  0  0  0  0  0
  -30.4420  -12.7830   19.5620 C   0  0  0  0  0  2  0  0  0  0  0  0
  -29.5530  -12.5430   18.3150 C   0  0  0  0  0  2  0  0  0  0  0  0
  -28.0860  -12.3100   18.7200 C   0  0  0  0  0  2  0  0  0  0  0  0
  -27.6150  -13.3180   19.7980 C   0  0  0  0  0  3  0  0  0  0  0  0
  -28.6340  -13.4890   20.9460 C   0  0  0  0  0  2  0  0  0  0  0  0
  -29.8920  -13.9520   20.3370 N   0  0  0  0  0  0  0  0  0  0  0  0
  -31.6580  -15.2780   20.0660 O   0  0  0  0  0  0  0  0  0  0  0  0
  -28.4800  -20.3750   20.9450 C   0  0  0  0  0  3  0  0  0  0  0  0
  -28.6540  -18.9090   21.0220 C   0  0  0  0  0  3  0  0  0  0  0  0
  -29.1850  -21.2950   20.0730 C   0  0  0  0  0  0  0  0  0  0  0  0
  -30.0660  -20.3970   19.3100 C   0  0  0  0  0  0  0  0  0  0  0  0
  -29.5870  -18.0890   20.2700 C   0  0  0  0  0  0  0  0  0  0  0  0
  -30.9740  -21.0240   18.2670 C   0  0  0  0  0  1  0  0  0  0  0  0
  -30.2450  -18.9750   19.4070 N   0  0  0  0  0  0  0  0  0  0  0  0
  -29.6210  -16.4860   20.4420 N   0  0  0  0  0  0  0  0  0  0  0  0
  -28.7200  -16.1790   20.7710 H   0  0  0  0  0  0  0  0  0  0  0  0
  -25.2310  -13.9250   20.4870 C   0  0  0  0  0  0  0  0  0  0  0  0
  -24.1500  -13.1690   20.8430 C   0  0  0  0  0  0  0  0  0  0  0  0
  -24.5990  -11.8120   20.8450 C   0  0  0  0  0  0  0  0  0  0  0  0
  -26.2680  -13.0310   20.2790 N   0  0  0  0  0  0  0  0  0  0  0  0
  -25.8970  -11.7560   20.5620 N   0  0  0  0  0  0  0  0  0  0  0  0
  -23.8500  -10.5620   21.0380 C   0  0  0  0  0  0  0  0  0  0  0  0
  -24.2600   -9.5900   21.9760 C   0  0  0  0  0  3  0  0  0  0  0  0
  -23.5090   -8.4090   22.1600 C   0  0  0  0  0  3  0  0  0  0  0  0
  -22.3320   -8.1910   21.4040 C   0  0  0  0  0  0  0  0  0  0  0  0
  -21.9400   -9.1510   20.4550 C   0  0  0  0  0  3  0  0  0  0  0  0
  -22.6920  -10.3240   20.2690 C   0  0  0  0  0  3  0  0  0  0  0  0
  -21.5540   -7.0620   21.4960 O   0  0  0  0  0  0  0  0  0  0  0  0
  -21.5040   -6.3130   22.6440 C   0  0  0  0  0  0  0  0  0  0  0  0
  -21.1310   -6.8760   23.8850 C   0  0  0  0  0  3  0  0  0  0  0  0
  -21.0270   -6.0550   25.0260 C   0  0  0  0  0  3  0  0  0  0  0  0
  -21.2840   -4.6750   24.9290 C   0  0  0  0  0  0  0  0  0  0  0  0
  -21.6500   -4.1120   23.6930 C   0  0  0  0  0  3  0  0  0  0  0  0
  -21.7570   -4.9290   22.5540 C   0  0  0  0  0  0  0  0  0  0  0  0
  -22.0910   -4.3790   21.3620 F   0  0  0  0  0  0  0  0  0  0  0  0
  -21.1750   -3.8870   26.0230 F   0  0  0  0  0  0  0  0  0  0  0  0
  -22.7530  -13.6690   21.0690 C   0  0  0  0  0  0  0  0  0  0  0  0
  -21.9980  -13.0070   21.9380 N   0  0  0  0  0  0  0  0  0  0  0  0
  -22.3410  -14.6860   20.5110 O   0  0  0  0  0  0  0  0  0  0  0  0
  -22.3440  -12.1890   22.4160 H   0  0  0  0  0  0  0  0  0  0  0  0
  -21.0600  -13.3290   22.1340 H   0  0  0  0  0  0  0  0  0  0  0  0
  -25.4150  -15.2920   20.2930 N   0  0  0  0  0  0  0  0  0  0  0  0
  -24.6520  -15.9520   20.3910 H   0  0  0  0  0  0  0  0  0  0  0  0
  -26.2620  -15.7180   19.9390 H   0  0  0  0  0  0  0  0  0  0  0  0
  -30.6710  -23.5610   20.3300 C   0  0  0  0  0  2  0  0  0  0  0  0
  -29.8430  -23.4400   21.5640 C   0  0  0  0  0  2  0  0  0  0  0  0
  -29.2400  -23.0460   20.2230 C   0  0  2  0  0  0  0  0  0  0  0  0
  -28.1890  -24.3360   19.6850 C   0  0  0  0  0  2  0  0  0  0  0  0
  -28.3310  -25.9510   19.9100 O   0  0  0  0  0  0  0  0  0  0  0  0
  -24.7040  -31.7540   23.0150 C   0  0  0  0  0  0  0  0  0  0  0  0
  -27.2810  -26.9960   19.8710 C   0  0  0  0  0  0  0  0  0  0  0  0
  -23.4970  -30.3680   21.3730 C   0  0  0  0  0  3  0  0  0  0  0  0
  -24.9430  -28.8110   19.8990 C   0  0  0  0  0  0  0  0  0  0  0  0
  -26.0550  -30.6280   21.1820 C   0  0  0  0  0  2  0  0  0  0  0  0
  -26.1340  -29.2330   20.5030 C   0  0  0  0  0  0  0  0  0  0  0  0
  -27.2940  -28.3470   20.4650 C   0  0  0  0  0  3  0  0  0  0  0  0
  -26.0570  -26.7120   19.2250 C   0  0  0  0  0  3  0  0  0  0  0  0
  -24.9260  -27.5690   19.2420 C   0  0  0  0  0  3  0  0  0  0  0  0
  -23.7100  -29.7080   19.9820 C   0  0  0  0  0  2  0  0  0  0  0  0
  -24.7740  -30.9420   21.9110 N   0  0  0  0  0  0  0  0  0  0  0  0
  -23.6200  -32.0220   23.5590 O   0  0  0  0  0  0  0  0  0  0  0  0
  -22.8360  -29.3480   22.3360 C   0  0  0  0  0  0  0  0  0  0  0  0
  -21.5010  -29.1910   22.2520 N   0  0  0  0  0  0  0  0  0  0  0  0
  -23.5260  -28.6970   23.1230 O   0  0  0  0  0  0  0  0  0  0  0  0
  -20.9970  -29.7670   21.5930 H   0  0  0  0  0  0  0  0  0  0  0  0
  -18.1290  -27.9940   22.8530 C   0  0  0  0  0  0  0  0  0  0  0  0
  -20.7000  -28.2370   23.0260 C   0  0  0  0  0  3  0  0  0  0  0  0
  -20.7680  -26.8210   22.4050 C   0  0  0  0  0  2  0  0  0  0  0  0
  -19.6250  -26.5370   21.4250 C   0  0  0  0  0  2  0  0  0  0  0  0
  -18.2710  -26.6680   22.1270 C   0  0  0  0  0  2  0  0  0  0  0  0
  -19.2700  -28.7380   23.2610 C   0  0  0  0  0  0  0  0  0  0  0  0
  -19.0790  -29.9800   23.9060 C   0  0  0  0  0  3  0  0  0  0  0  0
  -17.7830  -30.4770   24.1440 C   0  0  0  0  0  3  0  0  0  0  0  0
  -16.6610  -29.7310   23.7490 C   0  0  0  0  0  3  0  0  0  0  0  0
  -16.8350  -28.4910   23.1080 C   0  0  0  0  0  3  0  0  0  0  0  0
  -25.9790  -32.4010   23.6370 C   0  0  0  0  0  3  0  0  0  0  0  0
  -25.6370  -33.7770   24.0400 N   0  0  0  0  0  0  0  0  0  0  0  0
  -25.9220  -34.8770   23.3290 C   0  0  0  0  0  0  0  0  0  0  0  0
  -26.5610  -34.8410   22.2750 O   0  0  0  0  0  0  0  0  0  0  0  0
  -25.0640  -33.8760   24.8640 H   0  0  0  0  0  0  0  0  0  0  0  0
  -24.1400  -36.6430   23.1310 C   0  0  0  0  0  1  0  0  0  0  0  0
  -25.4210  -36.2310   23.8720 C   0  0  0  0  0  3  0  0  0  0  0  0
  -27.5670  -37.1310   24.6600 C   0  0  0  0  0  1  0  0  0  0  0  0
  -26.4230  -37.3140   23.7700 N   0  0  0  0  0  0  0  0  0  0  0  0
  -26.0020  -38.2160   23.9750 H   0  0  0  0  0  0  0  0  0  0  0  0
  -26.5400  -31.5970   24.8740 C   0  0  1  0  0  0  0  0  0  0  0  0
  -25.4800  -31.3040   25.9630 C   0  0  0  0  0  1  0  0  0  0  0  0
  -27.1360  -30.2430   24.4260 C   0  0  0  0  0  1  0  0  0  0  0  0
  -27.6960  -32.3870   25.5300 C   0  0  0  0  0  1  0  0  0  0  0  0
  1  7  1  0
  1 16  1  0
  2  7  1  0
  3  4  1  0
  3  2  1  0
  5  4  1  0
  5 21  1  0
  5  6  1  0
  7  6  1  0
  8  1  2  0
  9 10  1  0
 11 48  1  0
 11  9  2  0
 12 15  2  0
 12 11  1  0
 13 16  1  0
 13 10  2  0
 14 12  1  0
 15 13  1  0
 16 17  1  0
 18 19  2  0
 19 20  1  0
 19 38  1  0
 20 23  1  0
 21 18  1  0
 21 22  1  0
 22 20  2  0
 23 24  1  0
 24 25  2  0
 26 29  1  0
 26 25  1  0
 27 26  2  0
 28 27  1  0
 28 23  2  0
 29 30  1  0
 30 31  1  0
 31 32  2  0
 33 32  1  0
 33 37  1  0
 34 33  2  0
 35 30  2  0
 35 34  1  0
 36 35  1  0
 38 39  1  0
 39 42  1  0
 39 41  1  0
 40 38  2  0
 43 44  1  0
 43 18  1  0
 45 43  1  0
 46 47  1  0
 48 46  1  0
 48 47  1  0
 49 50  1  0
 48 49  1  6
 51 62  2  0
 52 50  1  0
 52 57  1  0
 53 61  1  0
 53 63  1  0
 54 60  1  0
 54 56  1  0
 55 61  1  0
 56 55  1  0
 57 56  2  0
 58 59  1  0
 58 52  2  0
 59 54  2  0
 60 53  1  0
 61 51  1  0
 63 65  2  0
 64 63  1  0
 66 64  1  0
 67 76  2  0
 67 72  1  0
 68 64  1  0
 68 72  1  0
 69 68  1  0
 70 71  1  0
 70 69  1  0
 71 67  1  0
 72 73  2  0
 73 74  1  0
 75 74  2  0
 76 75  1  0
 77 51  1  0
 77 78  1  0
 77 87  1  0
 78 81  1  0
 79 83  1  0
 79 78  1  0
 80 79  2  0
 83 82  1  0
 85 83  1  0
 85 86  1  0
 85 84  1  0
 87 90  1  1
 87 88  1  0
 89 87  1  0
M  ISO  4   1 100  16 100  49 101  50 101
M  END
>  <TORSDO>  (45) 
F 17

>  <SCORE>  (45) 
-15.396

>  <name>  (45) 
44

>  <ligand_id>  (45) 
44

>  <original_smiles>  (45) 
[H]c1c(N([H])C(=O)N2C([H])([H])C([H])([H])C([H])([H])C([H])(n3nc(-c4c([H])c([H])c(Oc5c([H])c([H])c(F)c([H])c5F)c([H])c4[H])c(C(=O)N([H])[H])c3N([H])[H])C2([H])[H])nc(C([H])([H])[H])c(C2(C([H])([H])Oc3c([H])c([H])c4c(c3[H])C([H])([H])N(C(=O)C([H])(N([H])C(=O)C([H])(N([H])C([H])([H])[H])C([H])([H])[H])C(C([H])([H])[H])(C([H])([H])[H])C([H])([H])[H])C([H])(C(=O)N([H])C3([H])c5c([H])c([H])c([H])c([H])c5C([H])([H])C([H])([H])C3([H])[H])C4([H])[H])C([H])([H])C2([H])[H])c1[H]

>  <smiles>  (45) 
[H]c1c(N([H])C(=O)N2C([H])([H])C([H])([H])C([H])([H])C([H])(n3nc(-c4c([H])c([H])c(Oc5c([H])c([H])c(F)c([H])c5F)c([H])c4[H])c(C(=O)N([H])[H])c3N([H])[H])C2([H])[H])nc(C([H])([H])[H])c(C2(C([H])([H])Oc3c([H])c([H])c4c(c3[H])C([H])([H])N(C(=O)C([H])(N([H])C(=O)C([H])(N([H])C([H])([H])[H])C([H])([H])[H])C(C([H])([H])[H])(C([H])([H])[H])C([H])([H])[H])C([H])(C(=O)N([H])C3([H])c5c([H])c([H])c([H])c([H])c5C([H])([H])C([H])([H])C3([H])[H])C4([H])[H])C([H])([H])C2([H])[H])c1[H]

$$$$
45:0:0
     RDKit          3D

 95104  0  0  1  0  0  0  0  0999 V2000
  -28.4420  -18.2510   20.6340 C   0  0  0  0  0  3  0  0  0  0  0  0
  -29.0850  -20.4260   19.8990 C   0  0  0  0  0  0  0  0  0  0  0  0
  -30.1390  -19.7410   19.2660 C   0  0  0  0  0  0  0  0  0  0  0  0
  -29.5260  -17.5330   19.9910 C   0  0  0  0  0  0  0  0  0  0  0  0
  -29.3100  -22.0410   19.9260 C   0  0  0  0  0  3  0  0  0  0  0  0
  -31.0840  -20.7550   18.6720 C   0  0  0  0  0  3  0  0  0  0  0  0
  -31.2700  -20.5090   17.1640 C   0  0  0  0  0  1  0  0  0  0  0  0
  -28.2300  -19.6360   20.6260 N   0  0  0  0  0  0  0  0  0  0  0  0
  -30.3840  -18.3630   19.2930 N   0  0  0  0  0  0  0  0  0  0  0  0
  -30.4600  -22.1100   18.9500 N   0  0  2  0  0  4  0  0  0  0  0  0
  -29.9560  -22.2820   18.0940 H   0  0  0  0  0  0  0  0  0  0  0  0
  -30.4460  -14.9330   19.8780 C   0  0  0  0  0  0  0  0  0  0  0  0
  -30.3430  -12.5660   18.9900 C   0  0  0  0  0  2  0  0  0  0  0  0
  -29.3370  -12.5380   17.8130 C   0  0  0  0  0  2  0  0  0  0  0  0
  -27.8880  -12.3530   18.3130 C   0  0  0  0  0  2  0  0  0  0  0  0
  -27.5570  -13.2590   19.5260 C   0  0  0  0  0  3  0  0  0  0  0  0
  -28.6770  -13.2340   20.5850 C   0  0  0  0  0  2  0  0  0  0  0  0
  -29.9160  -13.6500   19.9140 N   0  0  0  0  0  0  0  0  0  0  0  0
  -31.6100  -15.0650   19.4750 O   0  0  0  0  0  0  0  0  0  0  0  0
  -29.5830  -16.0170   20.1450 N   0  0  0  0  0  0  0  0  0  0  0  0
  -28.7180  -15.6620   20.5250 H   0  0  0  0  0  0  0  0  0  0  0  0
  -25.2350  -13.8390   20.4400 C   0  0  0  0  0  0  0  0  0  0  0  0
  -24.1890  -13.0670   20.8640 C   0  0  0  0  0  0  0  0  0  0  0  0
  -24.6340  -11.7120   20.7650 C   0  0  0  0  0  0  0  0  0  0  0  0
  -26.2490  -12.9600   20.1010 N   0  0  0  0  0  0  0  0  0  0  0  0
  -25.9000  -11.6720   20.3590 N   0  0  0  0  0  0  0  0  0  0  0  0
  -23.9030  -10.4560   20.9740 C   0  0  0  0  0  0  0  0  0  0  0  0
  -24.3640   -9.4730   21.8800 C   0  0  0  0  0  3  0  0  0  0  0  0
  -23.6350   -8.2810   22.0770 C   0  0  0  0  0  3  0  0  0  0  0  0
  -22.4280   -8.0620   21.3690 C   0  0  0  0  0  0  0  0  0  0  0  0
  -21.9860   -9.0320   20.4520 C   0  0  0  0  0  3  0  0  0  0  0  0
  -22.7170  -10.2160   20.2530 C   0  0  0  0  0  3  0  0  0  0  0  0
  -21.6670   -6.9230   21.4780 O   0  0  0  0  0  0  0  0  0  0  0  0
  -21.6400   -6.1840   22.6330 C   0  0  0  0  0  0  0  0  0  0  0  0
  -21.2040   -6.7330   23.8580 C   0  0  0  0  0  3  0  0  0  0  0  0
  -21.1230   -5.9190   25.0050 C   0  0  0  0  0  3  0  0  0  0  0  0
  -21.4670   -4.5560   24.9260 C   0  0  0  0  0  0  0  0  0  0  0  0
  -21.8950   -4.0060   23.7070 C   0  0  0  0  0  3  0  0  0  0  0  0
  -21.9790   -4.8180   22.5630 C   0  0  0  0  0  0  0  0  0  0  0  0
  -22.3720   -4.2780   21.3830 F   0  0  0  0  0  0  0  0  0  0  0  0
  -21.3820   -3.7730   26.0260 F   0  0  0  0  0  0  0  0  0  0  0  0
  -22.8200  -13.5550   21.2410 C   0  0  0  0  0  0  0  0  0  0  0  0
  -22.1430  -12.8520   22.1400 N   0  0  0  0  0  0  0  0  0  0  0  0
  -22.3620  -14.5980   20.7730 O   0  0  0  0  0  0  0  0  0  0  0  0
  -22.5270  -12.0100   22.5400 H   0  0  0  0  0  0  0  0  0  0  0  0
  -21.2280  -13.1620   22.4330 H   0  0  0  0  0  0  0  0  0  0  0  0
  -25.3980  -15.2140   20.2890 N   0  0  0  0  0  0  0  0  0  0  0  0
  -24.6230  -15.8540   20.4460 H   0  0  0  0  0  0  0  0  0  0  0  0
  -26.1710  -15.6400   19.7960 H   0  0  0  0  0  0  0  0  0  0  0  0
  -31.3430  -24.1640   17.8220 C   0  0  0  0  0  1  0  0  0  0  0  0
  -32.8190  -22.9860   19.5180 C   0  0  0  0  0  1  0  0  0  0  0  0
  -31.3670  -23.2970   19.0950 C   0  0  0  0  0  3  0  0  0  0  0  0
  -28.2230  -23.2720   19.5580 C   0  0  0  0  0  2  0  0  0  0  0  0
  -28.1100  -24.7680   20.3320 C   0  0  0  0  0  2  0  0  0  0  0  0
  -28.2330  -26.2180   19.8040 O   0  0  0  0  0  0  0  0  0  0  0  0
  -24.5780  -31.7250   23.0730 C   0  0  0  0  0  0  0  0  0  0  0  0
  -27.1520  -27.1590   19.8640 C   0  0  0  0  0  0  0  0  0  0  0  0
  -23.3670  -30.3740   21.4020 C   0  0  0  0  0  3  0  0  0  0  0  0
  -24.8090  -28.8620   19.9110 C   0  0  0  0  0  0  0  0  0  0  0  0
  -25.9150  -30.6810   21.2110 C   0  0  0  0  0  2  0  0  0  0  0  0
  -25.9920  -29.3120   20.5120 C   0  0  0  0  0  0  0  0  0  0  0  0
  -27.1710  -28.4810   20.4590 C   0  0  0  0  0  3  0  0  0  0  0  0
  -25.9410  -26.7930   19.2480 C   0  0  0  0  0  3  0  0  0  0  0  0
  -24.7940  -27.6180   19.2620 C   0  0  0  0  0  3  0  0  0  0  0  0
  -23.5760  -29.7430   19.9990 C   0  0  0  0  0  2  0  0  0  0  0  0
  -24.6410  -30.9450   21.9510 N   0  0  0  0  0  0  0  0  0  0  0  0
  -23.4970  -31.9770   23.6270 O   0  0  0  0  0  0  0  0  0  0  0  0
  -22.7120  -29.3270   22.3380 C   0  0  0  0  0  0  0  0  0  0  0  0
  -21.3860  -29.1400   22.2150 N   0  0  0  0  0  0  0  0  0  0  0  0
  -23.3990  -28.6880   23.1380 O   0  0  0  0  0  0  0  0  0  0  0  0
  -20.8890  -29.7110   21.5470 H   0  0  0  0  0  0  0  0  0  0  0  0
  -18.0260  -27.8710   22.6970 C   0  0  0  0  0  0  0  0  0  0  0  0
  -20.5820  -28.1690   22.9630 C   0  0  0  0  0  3  0  0  0  0  0  0
  -20.7040  -26.7540   22.3530 C   0  0  0  0  0  2  0  0  0  0  0  0
  -19.6040  -26.4370   21.3340 C   0  0  0  0  0  2  0  0  0  0  0  0
  -18.2210  -26.5430   21.9840 C   0  0  0  0  0  2  0  0  0  0  0  0
  -19.1330  -28.6420   23.1420 C   0  0  0  0  0  0  0  0  0  0  0  0
  -18.8880  -29.8820   23.7700 C   0  0  0  0  0  3  0  0  0  0  0  0
  -17.5740  -30.3550   23.9510 C   0  0  0  0  0  3  0  0  0  0  0  0
  -16.4850  -29.5800   23.5200 C   0  0  0  0  0  3  0  0  0  0  0  0
  -16.7100  -28.3380   22.9000 C   0  0  0  0  0  3  0  0  0  0  0  0
  -25.8600  -32.3470   23.7090 C   0  0  0  0  0  3  0  0  0  0  0  0
  -26.3810  -31.5520   24.9700 C   0  0  1  0  0  0  0  0  0  0  0  0
  -25.2930  -31.2980   26.0400 C   0  0  0  0  0  1  0  0  0  0  0  0
  -26.9580  -30.1790   24.5560 C   0  0  0  0  0  1  0  0  0  0  0  0
  -27.5380  -32.3340   25.6390 C   0  0  0  0  0  1  0  0  0  0  0  0
  -25.5470  -33.7340   24.0740 N   0  0  0  0  0  0  0  0  0  0  0  0
  -25.8720  -34.8110   23.3460 C   0  0  0  0  0  0  0  0  0  0  0  0
  -26.5360  -34.7380   22.3080 O   0  0  0  0  0  0  0  0  0  0  0  0
  -24.9630  -33.8640   24.8880 H   0  0  0  0  0  0  0  0  0  0  0  0
  -24.1500  -36.6190   23.0420 C   0  0  0  0  0  1  0  0  0  0  0  0
  -25.3850  -36.1830   23.8450 C   0  0  0  0  0  3  0  0  0  0  0  0
  -27.5110  -37.0460   24.7200 C   0  0  0  0  0  1  0  0  0  0  0  0
  -26.4170  -37.2380   23.7710 N   0  0  0  0  0  0  0  0  0  0  0  0
  -26.0100  -38.1530   23.9380 H   0  0  0  0  0  0  0  0  0  0  0  0
  2  5  1  0
  2  8  2  0
  3  9  2  0
  3  2  1  0
  4 20  1  0
  4  1  2  0
  5 53  1  0
  6  7  1  0
  6 10  1  0
  6  3  1  0
  8  1  1  0
  9  4  1  0
 10 52  1  0
 10  5  1  0
 10 11  1  6
 12 18  1  0
 12 20  1  0
 13 18  1  0
 14 15  1  0
 14 13  1  0
 16 15  1  0
 16 25  1  0
 16 17  1  0
 18 17  1  0
 19 12  2  0
 20 21  1  0
 22 23  2  0
 23 42  1  0
 24 23  1  0
 24 27  1  0
 25 26  1  0
 25 22  1  0
 26 24  2  0
 27 28  1  0
 28 29  2  0
 30 33  1  0
 30 29  1  0
 31 30  2  0
 32 31  1  0
 32 27  2  0
 33 34  1  0
 34 35  1  0
 35 36  2  0
 37 36  1  0
 37 41  1  0
 38 37  2  0
 39 34  2  0
 39 38  1  0
 40 39  1  0
 42 43  1  0
 43 46  1  0
 43 45  1  0
 44 42  2  0
 47 22  1  0
 47 48  1  0
 49 47  1  0
 50 52  1  0
 52 51  1  0
 53 54  1  0
 55 57  1  0
 55 54  1  0
 56 67  2  0
 57 62  1  0
 58 66  1  0
 58 68  1  0
 59 65  1  0
 59 61  1  0
 60 66  1  0
 61 60  1  0
 62 61  2  0
 63 64  1  0
 63 57  2  0
 64 59  2  0
 65 58  1  0
 66 56  1  0
 68 70  2  0
 69 68  1  0
 71 69  1  0
 72 81  2  0
 72 77  1  0
 73 69  1  0
 73 77  1  0
 74 73  1  0
 75 76  1  0
 75 74  1  0
 76 72  1  0
 77 78  2  0
 78 79  1  0
 80 79  2  0
 81 80  1  0
 82 56  1  0
 82 87  1  0
 82 83  1  0
 83 86  1  1
 83 84  1  0
 85 83  1  0
 87 90  1  0
 88 92  1  0
 88 87  1  0
 89 88  2  0
 92 91  1  0
 94 92  1  0
 94 95  1  0
 94 93  1  0
M  ISO  4  12 100  20 100  54 101  55 101
M  END
>  <TORSDO>  (46) 
F 19

>  <SCORE>  (46) 
-13.988

>  <name>  (46) 
45

>  <ligand_id>  (46) 
45

>  <original_smiles>  (46) 
[H]c1nc2c(nc1N([H])C(=O)N1C([H])([H])C([H])([H])C([H])([H])C([H])(n3nc(-c4c([H])c([H])c(Oc5c([H])c([H])c(F)c([H])c5F)c([H])c4[H])c(C(=O)N([H])[H])c3N([H])[H])C1([H])[H])C([H])(C([H])([H])[H])[N+]([H])(C([H])(C([H])([H])[H])C([H])([H])[H])C2([H])C([H])([H])C([H])([H])Oc1c([H])c([H])c2c(c1[H])C([H])([H])N(C(=O)C([H])(N([H])C(=O)C([H])(N([H])C([H])([H])[H])C([H])([H])[H])C(C([H])([H])[H])(C([H])([H])[H])C([H])([H])[H])C([H])(C(=O)N([H])C1([H])c3c([H])c([H])c([H])c([H])c3C([H])([H])C([H])([H])C1([H])[H])C2([H])[H]

>  <smiles>  (46) 
[H]c1nc2c(nc1N([H])C(=O)N1C([H])([H])C([H])([H])C([H])([H])C([H])(n3nc(-c4c([H])c([H])c(Oc5c([H])c([H])c(F)c([H])c5F)c([H])c4[H])c(C(=O)N([H])[H])c3N([H])[H])C1([H])[H])C([H])(C([H])([H])[H])[N+]([H])(C([H])(C([H])([H])[H])C([H])([H])[H])C2([H])C([H])([H])C([H])([H])Oc1c([H])c([H])c2c(c1[H])C([H])([H])N(C(=O)C([H])(N([H])C(=O)C([H])(N([H])C([H])([H])[H])C([H])([H])[H])C(C([H])([H])[H])(C([H])([H])[H])C([H])([H])[H])C([H])(C(=O)N([H])C1([H])c3c([H])c([H])c([H])c([H])c3C([H])([H])C([H])([H])C1([H])[H])C2([H])[H]

$$$$
46:0:0
     RDKit          3D

 94103  0  0  1  0  0  0  0  0999 V2000
  -29.8430  -24.3690   19.0040 C   0  0  0  0  0  3  0  0  0  0  0  0
  -29.0730  -24.1760   20.1720 C   0  0  0  0  0  0  0  0  0  0  0  0
  -30.6130  -22.1870   19.1290 C   0  0  0  0  0  0  0  0  0  0  0  0
  -29.8260  -21.9550   20.2940 C   0  0  0  0  0  0  0  0  0  0  0  0
  -31.5370  -21.1420   18.5250 C   0  0  0  0  0  1  0  0  0  0  0  0
  -30.6070  -23.3790   18.4830 N   0  0  0  0  0  0  0  0  0  0  0  0
  -29.0560  -22.9640   20.8040 N   0  0  0  0  0  0  0  0  0  0  0  0
  -29.8810  -20.6380   21.1120 C   0  0  0  0  0  2  0  0  0  0  0  0
  -29.6050  -19.3820   20.3560 N   0  0  0  0  0  4  0  0  0  0  0  0
  -28.6960  -19.4840   19.9310 H   0  0  0  0  0  0  0  0  0  0  0  0
  -30.2690  -19.3020   19.6080 H   0  0  0  0  0  0  0  0  0  0  0  0
  -30.9680  -17.7060   21.6330 C   0  0  0  0  0  2  0  0  0  0  0  0
  -30.3200  -16.9080   20.5200 C   0  0  0  0  0  3  0  0  0  0  0  0
  -29.5950  -18.1130   21.1500 C   0  0  0  0  0  3  0  0  0  0  0  0
  -30.6670  -14.4720   20.3610 C   0  0  0  0  0  0  0  0  0  0  0  0
  -30.3270  -12.3060   19.2340 C   0  0  0  0  0  2  0  0  0  0  0  0
  -29.3770  -12.5290   18.0400 C   0  0  0  0  0  2  0  0  0  0  0  0
  -27.9070  -12.4050   18.4900 C   0  0  0  0  0  2  0  0  0  0  0  0
  -27.5930  -13.2310   19.7690 C   0  0  0  0  0  3  0  0  0  0  0  0
  -28.6680  -13.0080   20.8590 C   0  0  0  0  0  2  0  0  0  0  0  0
  -29.9830  -13.2970   20.2670 N   0  0  0  0  0  0  0  0  0  0  0  0
  -31.7870  -14.6290   19.8680 O   0  0  0  0  0  0  0  0  0  0  0  0
  -29.9820  -15.5340   20.8330 N   0  0  0  0  0  0  0  0  0  0  0  0
  -29.0670  -15.3470   21.2190 H   0  0  0  0  0  0  0  0  0  0  0  0
  -25.2050  -13.8370   20.5170 C   0  0  0  0  0  0  0  0  0  0  0  0
  -24.1420  -13.0660   20.9030 C   0  0  0  0  0  0  0  0  0  0  0  0
  -24.6000  -11.7140   20.8630 C   0  0  0  0  0  0  0  0  0  0  0  0
  -26.2460  -12.9550   20.2690 N   0  0  0  0  0  0  0  0  0  0  0  0
  -25.8850  -11.6730   20.5350 N   0  0  0  0  0  0  0  0  0  0  0  0
  -23.8730  -10.4530   21.0650 C   0  0  0  0  0  0  0  0  0  0  0  0
  -24.3340   -9.4720   21.9720 C   0  0  0  0  0  3  0  0  0  0  0  0
  -23.6080   -8.2770   22.1620 C   0  0  0  0  0  3  0  0  0  0  0  0
  -22.4080   -8.0540   21.4480 C   0  0  0  0  0  0  0  0  0  0  0  0
  -21.9660   -9.0230   20.5300 C   0  0  0  0  0  3  0  0  0  0  0  0
  -22.6920  -10.2100   20.3370 C   0  0  0  0  0  3  0  0  0  0  0  0
  -21.6510   -6.9110   21.5480 O   0  0  0  0  0  0  0  0  0  0  0  0
  -21.6590   -6.1410   22.6820 C   0  0  0  0  0  0  0  0  0  0  0  0
  -21.3210   -6.6730   23.9470 C   0  0  0  0  0  3  0  0  0  0  0  0
  -21.2730   -5.8300   25.0740 C   0  0  0  0  0  3  0  0  0  0  0  0
  -21.5530   -4.4560   24.9410 C   0  0  0  0  0  0  0  0  0  0  0  0
  -21.8850   -3.9250   23.6820 C   0  0  0  0  0  3  0  0  0  0  0  0
  -21.9340   -4.7650   22.5560 C   0  0  0  0  0  0  0  0  0  0  0  0
  -22.2310   -4.2440   21.3410 F   0  0  0  0  0  0  0  0  0  0  0  0
  -21.5010   -3.6440   26.0230 F   0  0  0  0  0  0  0  0  0  0  0  0
  -22.7500  -13.5480   21.1940 C   0  0  0  0  0  0  0  0  0  0  0  0
  -22.0320  -12.8590   22.0740 N   0  0  0  0  0  0  0  0  0  0  0  0
  -22.3050  -14.5720   20.6770 O   0  0  0  0  0  0  0  0  0  0  0  0
  -22.4020  -12.0340   22.5230 H   0  0  0  0  0  0  0  0  0  0  0  0
  -21.0980  -13.1650   22.3070 H   0  0  0  0  0  0  0  0  0  0  0  0
  -25.3690  -15.2070   20.3340 N   0  0  0  0  0  0  0  0  0  0  0  0
  -24.6040  -15.8640   20.4560 H   0  0  0  0  0  0  0  0  0  0  0  0
  -26.2070  -15.6420   19.9740 H   0  0  0  0  0  0  0  0  0  0  0  0
  -28.2130  -25.3080   20.7590 C   0  0  0  0  0  2  0  0  0  0  0  0
  -28.3710  -26.6150   20.1460 O   0  0  0  0  0  0  0  0  0  0  0  0
  -24.6170  -31.8640   23.2170 C   0  0  0  0  0  0  0  0  0  0  0  0
  -27.2290  -27.3930   20.1410 C   0  0  0  0  0  0  0  0  0  0  0  0
  -23.4010  -30.4610   21.5840 C   0  0  0  0  0  3  0  0  0  0  0  0
  -24.8460  -28.9230   20.1500 C   0  0  0  0  0  0  0  0  0  0  0  0
  -25.9290  -30.8140   21.3730 C   0  0  0  0  0  2  0  0  0  0  0  0
  -26.0100  -29.4410   20.7330 C   0  0  0  0  0  0  0  0  0  0  0  0
  -27.2080  -28.6840   20.7220 C   0  0  0  0  0  3  0  0  0  0  0  0
  -26.0510  -26.9030   19.5380 C   0  0  0  0  0  3  0  0  0  0  0  0
  -24.8620  -27.6540   19.5460 C   0  0  0  0  0  3  0  0  0  0  0  0
  -23.6030  -29.7820   20.2030 C   0  0  0  0  0  2  0  0  0  0  0  0
  -24.6680  -31.0620   22.1150 N   0  0  0  0  0  0  0  0  0  0  0  0
  -23.5390  -32.1370   23.7620 O   0  0  0  0  0  0  0  0  0  0  0  0
  -22.7540  -29.4410   22.5490 C   0  0  0  0  0  0  0  0  0  0  0  0
  -21.4270  -29.2650   22.4360 N   0  0  0  0  0  0  0  0  0  0  0  0
  -23.4430  -28.8110   23.3550 O   0  0  0  0  0  0  0  0  0  0  0  0
  -20.9320  -29.8250   21.7570 H   0  0  0  0  0  0  0  0  0  0  0  0
  -18.0530  -28.0790   22.9560 C   0  0  0  0  0  0  0  0  0  0  0  0
  -20.6140  -28.3290   23.2130 C   0  0  0  0  0  3  0  0  0  0  0  0
  -20.7090  -26.8970   22.6360 C   0  0  0  0  0  2  0  0  0  0  0  0
  -19.5990  -26.5770   21.6300 C   0  0  0  0  0  2  0  0  0  0  0  0
  -18.2220  -26.7280   22.2830 C   0  0  0  0  0  2  0  0  0  0  0  0
  -19.1760  -28.8370   23.3800 C   0  0  0  0  0  0  0  0  0  0  0  0
  -18.9650  -30.1040   23.9690 C   0  0  0  0  0  3  0  0  0  0  0  0
  -17.6630  -30.6080   24.1430 C   0  0  0  0  0  3  0  0  0  0  0  0
  -16.5540  -29.8460   23.7380 C   0  0  0  0  0  3  0  0  0  0  0  0
  -16.7510  -28.5830   23.1490 C   0  0  0  0  0  3  0  0  0  0  0  0
  -25.9070  -32.4950   23.8280 C   0  0  0  0  0  3  0  0  0  0  0  0
  -26.4440  -31.7140   25.0890 C   0  0  1  0  0  0  0  0  0  0  0  0
  -25.3670  -31.4640   26.1710 C   0  0  0  0  0  1  0  0  0  0  0  0
  -27.0240  -30.3430   24.6750 C   0  0  0  0  0  1  0  0  0  0  0  0
  -27.6010  -32.5060   25.7420 C   0  0  0  0  0  1  0  0  0  0  0  0
  -25.5950  -33.8890   24.1730 N   0  0  0  0  0  0  0  0  0  0  0  0
  -25.9160  -34.9490   23.4190 C   0  0  0  0  0  0  0  0  0  0  0  0
  -26.5760  -34.8570   22.3800 O   0  0  0  0  0  0  0  0  0  0  0  0
  -25.0090  -34.0350   24.9820 H   0  0  0  0  0  0  0  0  0  0  0  0
  -24.1760  -36.7360   23.0990 C   0  0  0  0  0  1  0  0  0  0  0  0
  -25.4280  -36.3320   23.8930 C   0  0  0  0  0  3  0  0  0  0  0  0
  -27.5700  -37.2160   24.7030 C   0  0  0  0  0  1  0  0  0  0  0  0
  -26.4540  -37.3900   23.7770 N   0  0  0  0  0  0  0  0  0  0  0  0
  -26.0450  -38.3060   23.9390 H   0  0  0  0  0  0  0  0  0  0  0  0
  1  2  1  0
  2 53  1  0
  2  7  2  0
  3  4  2  0
  4  7  1  0
  4  8  1  0
  5  3  1  0
  6  1  2  0
  6  3  1  0
  9  8  1  0
 10  9  1  0
 11  9  1  0
 13 23  1  0
 13 14  1  0
 13 12  1  0
 14  9  1  0
 14 12  1  0
 15 23  1  0
 16 21  1  0
 17 18  1  0
 17 16  1  0
 19 18  1  0
 19 28  1  0
 19 20  1  0
 21 15  1  0
 21 20  1  0
 22 15  2  0
 23 24  1  0
 25 26  2  0
 26 45  1  0
 27 26  1  0
 27 30  1  0
 28 25  1  0
 28 29  1  0
 29 27  2  0
 30 31  1  0
 31 32  2  0
 33 36  1  0
 33 32  1  0
 34 33  2  0
 35 34  1  0
 35 30  2  0
 36 37  1  0
 37 38  1  0
 38 39  2  0
 40 39  1  0
 40 44  1  0
 41 40  2  0
 42 37  2  0
 42 41  1  0
 43 42  1  0
 45 46  1  0
 46 49  1  0
 46 48  1  0
 47 45  2  0
 50 51  1  0
 50 25  1  0
 52 50  1  0
 54 53  1  0
 55 66  2  0
 56 54  1  0
 56 61  1  0
 57 65  1  0
 57 67  1  0
 58 64  1  0
 58 60  1  0
 59 65  1  0
 60 59  1  0
 61 60  2  0
 62 63  1  0
 62 56  2  0
 63 58  2  0
 64 57  1  0
 65 55  1  0
 67 69  2  0
 68 67  1  0
 70 68  1  0
 71 80  2  0
 71 76  1  0
 72 68  1  0
 72 76  1  0
 73 72  1  0
 74 75  1  0
 74 73  1  0
 75 71  1  0
 76 77  2  0
 77 78  1  0
 79 78  2  0
 80 79  1  0
 81 55  1  0
 81 86  1  0
 81 82  1  0
 82 85  1  1
 82 83  1  0
 84 82  1  0
 86 89  1  0
 87 91  1  0
 87 86  1  0
 88 87  2  0
 91 90  1  0
 93 91  1  0
 93 94  1  0
 93 92  1  0
M  ISO  4  15 100  23 100  53 101  54 101
M  END
>  <TORSDO>  (47) 
F 20

>  <SCORE>  (47) 
-13.777

>  <name>  (47) 
46

>  <ligand_id>  (47) 
46

>  <original_smiles>  (47) 
[H]c1nc(C([H])([H])[H])c(C([H])([H])[N+]([H])([H])C2([H])C([H])([H])C2([H])N([H])C(=O)N2C([H])([H])C([H])([H])C([H])([H])C([H])(n3nc(-c4c([H])c([H])c(Oc5c([H])c([H])c(F)c([H])c5F)c([H])c4[H])c(C(=O)N([H])[H])c3N([H])[H])C2([H])[H])nc1C([H])([H])Oc1c([H])c([H])c2c(c1[H])C([H])([H])N(C(=O)C([H])(N([H])C(=O)C([H])(N([H])C([H])([H])[H])C([H])([H])[H])C(C([H])([H])[H])(C([H])([H])[H])C([H])([H])[H])C([H])(C(=O)N([H])C1([H])c3c([H])c([H])c([H])c([H])c3C([H])([H])C([H])([H])C1([H])[H])C2([H])[H]

>  <smiles>  (47) 
[H]c1nc(C([H])([H])[H])c(C([H])([H])[N+]([H])([H])C2([H])C([H])([H])C2([H])N([H])C(=O)N2C([H])([H])C([H])([H])C([H])([H])C([H])(n3nc(-c4c([H])c([H])c(Oc5c([H])c([H])c(F)c([H])c5F)c([H])c4[H])c(C(=O)N([H])[H])c3N([H])[H])C2([H])[H])nc1C([H])([H])Oc1c([H])c([H])c2c(c1[H])C([H])([H])N(C(=O)C([H])(N([H])C(=O)C([H])(N([H])C([H])([H])[H])C([H])([H])[H])C(C([H])([H])[H])(C([H])([H])[H])C([H])([H])[H])C([H])(C(=O)N([H])C1([H])c3c([H])c([H])c([H])c([H])c3C([H])([H])C([H])([H])C1([H])[H])C2([H])[H]

$$$$
47:0:0
     RDKit          3D

 89 97  0  0  1  0  0  0  0  0999 V2000
  -29.4920  -21.9720   19.8000 N   0  0  0  0  0  4  0  0  0  0  0  0
  -29.2460  -21.9920   18.8240 H   0  0  0  0  0  0  0  0  0  0  0  0
  -30.4910  -22.1040   19.8220 H   0  0  0  0  0  0  0  0  0  0  0  0
  -29.2110  -20.4840   20.2880 C   0  0  0  0  0  3  0  0  0  0  0  0
  -30.0240  -19.0690   19.7820 C   0  0  0  0  0  3  0  0  0  0  0  0
  -30.7150  -14.9810   19.5150 C   0  0  0  0  0  0  0  0  0  0  0  0
  -30.3830  -12.6680   18.5000 C   0  0  0  0  0  2  0  0  0  0  0  0
  -29.2780  -12.6640   17.4170 C   0  0  0  0  0  2  0  0  0  0  0  0
  -27.8970  -12.4460   18.0560 C   0  0  0  0  0  2  0  0  0  0  0  0
  -27.6820  -13.3390   19.3030 C   0  0  0  0  0  3  0  0  0  0  0  0
  -28.8910  -13.3110   20.2650 C   0  0  0  0  0  2  0  0  0  0  0  0
  -30.0760  -13.7330   19.5050 N   0  0  0  0  0  0  0  0  0  0  0  0
  -31.7630  -15.0670   18.8630 O   0  0  0  0  0  0  0  0  0  0  0  0
  -29.4150  -17.0310   22.3270 C   0  0  0  0  0  2  0  0  0  0  0  0
  -28.5170  -17.4910   21.1900 C   0  0  0  0  0  2  0  0  0  0  0  0
  -30.4490  -16.1050   21.6750 C   0  0  0  0  0  2  0  0  0  0  0  0
  -29.4260  -17.4840   19.9510 C   0  0  0  0  0  3  0  0  0  0  0  0
  -30.2150  -16.1240   20.2250 N   0  0  0  0  0  0  0  0  0  0  0  0
  -25.5040  -13.9150   20.5130 C   0  0  0  0  0  0  0  0  0  0  0  0
  -24.4700  -13.1470   20.9680 C   0  0  0  0  0  0  0  0  0  0  0  0
  -24.8260  -11.7940   20.6850 C   0  0  0  0  0  0  0  0  0  0  0  0
  -26.4300  -13.0330   19.9850 N   0  0  0  0  0  0  0  0  0  0  0  0
  -26.0420  -11.7420   20.1480 N   0  0  0  0  0  0  0  0  0  0  0  0
  -24.0560  -10.5530   20.8390 C   0  0  0  0  0  0  0  0  0  0  0  0
  -24.5050   -9.5020   21.6690 C   0  0  0  0  0  3  0  0  0  0  0  0
  -23.7340   -8.3290   21.8180 C   0  0  0  0  0  3  0  0  0  0  0  0
  -22.5020   -8.2000   21.1360 C   0  0  0  0  0  0  0  0  0  0  0  0
  -22.0690   -9.2390   20.2940 C   0  0  0  0  0  3  0  0  0  0  0  0
  -22.8400  -10.4040   20.1440 C   0  0  0  0  0  3  0  0  0  0  0  0
  -21.6970   -7.0870   21.2000 O   0  0  0  0  0  0  0  0  0  0  0  0
  -21.6100   -6.3260   22.3380 C   0  0  0  0  0  0  0  0  0  0  0  0
  -21.2100   -6.8780   23.5750 C   0  0  0  0  0  3  0  0  0  0  0  0
  -21.0680   -6.0460   24.7030 C   0  0  0  0  0  3  0  0  0  0  0  0
  -21.3170   -4.6650   24.5970 C   0  0  0  0  0  0  0  0  0  0  0  0
  -21.7080   -4.1130   23.3650 C   0  0  0  0  0  3  0  0  0  0  0  0
  -21.8510   -4.9410   22.2380 C   0  0  0  0  0  0  0  0  0  0  0  0
  -22.2100   -4.4000   21.0490 F   0  0  0  0  0  0  0  0  0  0  0  0
  -21.1700   -3.8640   25.6790 F   0  0  0  0  0  0  0  0  0  0  0  0
  -23.1770  -13.6500   21.5430 C   0  0  0  0  0  0  0  0  0  0  0  0
  -22.5830  -12.8980   22.4620 N   0  0  0  0  0  0  0  0  0  0  0  0
  -22.7140  -14.7430   21.2160 O   0  0  0  0  0  0  0  0  0  0  0  0
  -22.9750  -12.0150   22.7490 H   0  0  0  0  0  0  0  0  0  0  0  0
  -21.7230  -13.2120   22.8880 H   0  0  0  0  0  0  0  0  0  0  0  0
  -25.7200  -15.2880   20.4730 N   0  0  0  0  0  0  0  0  0  0  0  0
  -25.0330  -15.9560   20.8080 H   0  0  0  0  0  0  0  0  0  0  0  0
  -26.5200  -15.7230   20.0310 H   0  0  0  0  0  0  0  0  0  0  0  0
  -28.8670  -23.2810   20.4700 C   0  0  0  0  0  2  0  0  0  0  0  0
  -28.5020  -24.7110   19.6380 C   0  0  0  0  0  2  0  0  0  0  0  0
  -28.3800  -26.1720   20.1900 O   0  0  0  0  0  0  0  0  0  0  0  0
  -24.5370  -31.7520   23.0560 C   0  0  0  0  0  0  0  0  0  0  0  0
  -27.2740  -27.0950   20.0610 C   0  0  0  0  0  0  0  0  0  0  0  0
  -23.3930  -30.3210   21.4070 C   0  0  0  0  0  3  0  0  0  0  0  0
  -24.8960  -28.7820   19.9980 C   0  0  0  0  0  0  0  0  0  0  0  0
  -25.9380  -30.6510   21.2690 C   0  0  0  0  0  2  0  0  0  0  0  0
  -26.0550  -29.2590   20.6220 C   0  0  0  0  0  0  0  0  0  0  0  0
  -27.2370  -28.4290   20.6410 C   0  0  0  0  0  3  0  0  0  0  0  0
  -26.0870  -26.7210   19.3880 C   0  0  0  0  0  3  0  0  0  0  0  0
  -24.9250  -27.5280   19.3670 C   0  0  0  0  0  3  0  0  0  0  0  0
  -23.6450  -29.6460   20.0330 C   0  0  0  0  0  2  0  0  0  0  0  0
  -24.6410  -30.9300   21.9660 N   0  0  0  0  0  0  0  0  0  0  0  0
  -23.4390  -32.0110   23.5720 O   0  0  0  0  0  0  0  0  0  0  0  0
  -22.7300  -29.2990   22.3650 C   0  0  0  0  0  0  0  0  0  0  0  0
  -21.4070  -29.1020   22.2330 N   0  0  0  0  0  0  0  0  0  0  0  0
  -23.4110  -28.6860   23.1920 O   0  0  0  0  0  0  0  0  0  0  0  0
  -20.9110  -29.6510   21.5440 H   0  0  0  0  0  0  0  0  0  0  0  0
  -18.0420  -27.8580   22.7360 C   0  0  0  0  0  0  0  0  0  0  0  0
  -20.5990  -28.1500   23.0000 C   0  0  0  0  0  3  0  0  0  0  0  0
  -20.7190  -26.7230   22.4160 C   0  0  0  0  0  2  0  0  0  0  0  0
  -19.6170  -26.3950   21.4030 C   0  0  0  0  0  2  0  0  0  0  0  0
  -18.2340  -26.5160   22.0490 C   0  0  0  0  0  2  0  0  0  0  0  0
  -19.1520  -28.6330   23.1680 C   0  0  0  0  0  0  0  0  0  0  0  0
  -18.9140  -29.8870   23.7690 C   0  0  0  0  0  3  0  0  0  0  0  0
  -17.6030  -30.3680   23.9450 C   0  0  0  0  0  3  0  0  0  0  0  0
  -16.5080  -29.5900   23.5290 C   0  0  0  0  0  3  0  0  0  0  0  0
  -16.7300  -28.3380   22.9270 C   0  0  0  0  0  3  0  0  0  0  0  0
  -25.7930  -32.4210   23.6930 C   0  0  0  0  0  3  0  0  0  0  0  0
  -26.3260  -31.6530   24.9640 C   0  0  1  0  0  0  0  0  0  0  0  0
  -25.2340  -31.3580   26.0190 C   0  0  0  0  0  1  0  0  0  0  0  0
  -26.9630  -30.3030   24.5640 C   0  0  0  0  0  1  0  0  0  0  0  0
  -27.4400  -32.4790   25.6490 C   0  0  0  0  0  1  0  0  0  0  0  0
  -25.4380  -33.8040   24.0440 N   0  0  0  0  0  0  0  0  0  0  0  0
  -25.7290  -34.8810   23.3010 C   0  0  0  0  0  0  0  0  0  0  0  0
  -26.3930  -34.8150   22.2620 O   0  0  0  0  0  0  0  0  0  0  0  0
  -24.8470  -33.9260   24.8530 H   0  0  0  0  0  0  0  0  0  0  0  0
  -23.9450  -36.6270   22.9840 C   0  0  0  0  0  1  0  0  0  0  0  0
  -25.2010  -36.2460   23.7850 C   0  0  0  0  0  3  0  0  0  0  0  0
  -27.3050  -37.1860   24.6300 C   0  0  0  0  0  1  0  0  0  0  0  0
  -26.1990  -37.3340   23.6880 N   0  0  0  0  0  0  0  0  0  0  0  0
  -25.7630  -38.2390   23.8520 H   0  0  0  0  0  0  0  0  0  0  0  0
  1  3  1  0
  1  4  1  0
  1 47  1  0
  2  1  1  0
  5  4  2  0
  6 18  1  0
  7 12  1  0
  8  9  1  0
  8  7  1  0
 10  9  1  0
 10 22  1  0
 10 11  1  0
 12  6  1  0
 12 11  1  0
 13  6  2  0
 15 14  1  0
 16 14  1  0
 17  5  1  0
 17 18  1  0
 17 15  1  0
 18 16  1  0
 19 20  2  0
 20 39  1  0
 21 24  1  0
 21 20  1  0
 22 23  1  0
 22 19  1  0
 23 21  2  0
 24 25  1  0
 25 26  2  0
 27 30  1  0
 27 26  1  0
 28 27  2  0
 29 28  1  0
 29 24  2  0
 30 31  1  0
 31 32  1  0
 32 33  2  0
 34 33  1  0
 34 38  1  0
 35 34  2  0
 36 31  2  0
 36 35  1  0
 37 36  1  0
 39 40  1  0
 40 42  1  0
 40 43  1  0
 41 39  2  0
 44 19  1  0
 44 45  1  0
 46 44  1  0
 48 49  1  0
 48 47  1  0
 50 61  2  0
 51 49  1  0
 51 56  1  0
 52 60  1  0
 52 62  1  0
 53 59  1  0
 53 55  1  0
 54 60  1  0
 55 56  2  0
 55 54  1  0
 57 51  2  0
 58 57  1  0
 58 53  2  0
 59 52  1  0
 60 50  1  0
 62 64  2  0
 63 62  1  0
 65 63  1  0
 66 75  2  0
 66 71  1  0
 67 63  1  0
 67 71  1  0
 68 67  1  0
 69 70  1  0
 69 68  1  0
 70 66  1  0
 71 72  2  0
 72 73  1  0
 74 73  2  0
 75 74  1  0
 76 50  1  0
 76 81  1  0
 76 77  1  0
 77 80  1  1
 77 78  1  0
 79 77  1  0
 81 84  1  0
 82 86  1  0
 82 81  1  0
 83 82  2  0
 86 85  1  0
 88 86  1  0
 88 89  1  0
 88 87  1  0
M  ISO  4   6 100  18 100  48 101  49 101
M  END
>  <TORSDO>  (48) 
F 20

>  <SCORE>  (48) 
-12.260

>  <name>  (48) 
47

>  <ligand_id>  (48) 
47

>  <original_smiles>  (48) 
[H]c1c([H])c([H])c2c(c1[H])C([H])([H])C([H])([H])C([H])([H])C2([H])N([H])C(=O)C1([H])N(C(=O)C([H])(N([H])C(=O)C([H])(N([H])C([H])([H])[H])C([H])([H])[H])C(C([H])([H])[H])(C([H])([H])[H])C([H])([H])[H])C([H])([H])c2c([H])c(OC([H])([H])C([H])([H])[N+]([H])([H])C([H])([H])C([H])([H])C3([H])N(C(=O)N4C([H])([H])C([H])([H])C([H])([H])C([H])(n5nc(-c6c([H])c([H])c(Oc7c([H])c([H])c(F)c([H])c7F)c([H])c6[H])c(C(=O)N([H])[H])c5N([H])[H])C4([H])[H])C([H])([H])C([H])([H])C3([H])[H])c([H])c([H])c2C1([H])[H]

>  <smiles>  (48) 
[H]c1c([H])c([H])c2c(c1[H])C([H])([H])C([H])([H])C([H])([H])C2([H])N([H])C(=O)C1([H])N(C(=O)C([H])(N([H])C(=O)C([H])(N([H])C([H])([H])[H])C([H])([H])[H])C(C([H])([H])[H])(C([H])([H])[H])C([H])([H])[H])C([H])([H])c2c([H])c(OC([H])([H])C([H])([H])[N+]([H])([H])C([H])([H])C([H])([H])C3([H])N(C(=O)N4C([H])([H])C([H])([H])C([H])([H])C([H])(n5nc(-c6c([H])c([H])c(Oc7c([H])c([H])c(F)c([H])c7F)c([H])c6[H])c(C(=O)N([H])[H])c5N([H])[H])C4([H])[H])C([H])([H])C([H])([H])C3([H])[H])c([H])c([H])c2C1([H])[H]

$$$$
48:0:0
     RDKit          3D

 91 99  0  0  1  0  0  0  0  0999 V2000
  -30.3880  -20.1300   22.4380 C   0  0  0  0  0  0  0  0  0  0  0  0
  -30.0900  -18.9330   20.5730 C   0  0  0  0  0  0  0  0  0  0  0  0
  -29.5730  -21.1960   20.6520 C   0  0  0  0  0  0  0  0  0  0  0  0
  -30.8650  -20.1830   23.8810 C   0  0  0  0  0  1  0  0  0  0  0  0
  -30.4670  -18.9360   21.8460 N   0  0  0  0  0  4  0  0  0  0  0  0
  -29.9700  -21.2850   21.9100 N   0  0  0  0  0  0  0  0  0  0  0  0
  -29.6080  -20.0450   19.9280 N   0  0  0  0  0  2  0  0  0  0  0  0
  -29.0600  -22.4080   20.0660 N   0  0  0  0  0  0  0  0  0  0  0  0
  -28.7280  -22.2740   19.1180 H   0  0  0  0  0  0  0  0  0  0  0  0
  -30.3850  -17.5780   19.7800 C   0  0  0  0  0  2  0  0  0  0  0  0
  -30.9010  -15.0220   20.0870 C   0  0  0  0  0  0  0  0  0  0  0  0
  -30.6610  -12.7420   19.0870 C   0  0  0  0  0  2  0  0  0  0  0  0
  -29.6800  -12.8050   17.8920 C   0  0  0  0  0  2  0  0  0  0  0  0
  -28.2270  -12.6330   18.3740 C   0  0  0  0  0  2  0  0  0  0  0  0
  -27.8940  -13.5190   19.6050 C   0  0  0  0  0  3  0  0  0  0  0  0
  -28.9920  -13.4280   20.6880 C   0  0  0  0  0  2  0  0  0  0  0  0
  -30.2670  -13.7950   20.0560 N   0  0  0  0  0  0  0  0  0  0  0  0
  -32.0560  -15.1130   19.6680 O   0  0  0  0  0  0  0  0  0  0  0  0
  -30.1600  -16.1680   20.3480 N   0  0  0  0  0  0  0  0  0  0  0  0
  -29.2570  -16.0330   20.7730 H   0  0  0  0  0  0  0  0  0  0  0  0
  -25.5480  -14.1140   20.4520 C   0  0  0  0  0  0  0  0  0  0  0  0
  -24.4890  -13.3420   20.8480 C   0  0  0  0  0  0  0  0  0  0  0  0
  -24.9340  -11.9870   20.7570 C   0  0  0  0  0  0  0  0  0  0  0  0
  -26.5690  -13.2290   20.1420 N   0  0  0  0  0  0  0  0  0  0  0  0
  -26.2080  -11.9430   20.3870 N   0  0  0  0  0  0  0  0  0  0  0  0
  -24.1980  -10.7280   20.9390 C   0  0  0  0  0  0  0  0  0  0  0  0
  -24.6070   -9.7640   21.8860 C   0  0  0  0  0  3  0  0  0  0  0  0
  -23.8740   -8.5700   22.0560 C   0  0  0  0  0  3  0  0  0  0  0  0
  -22.7170   -8.3310   21.2790 C   0  0  0  0  0  0  0  0  0  0  0  0
  -22.3260   -9.2800   20.3190 C   0  0  0  0  0  3  0  0  0  0  0  0
  -23.0590  -10.4670   20.1470 C   0  0  0  0  0  3  0  0  0  0  0  0
  -21.9570   -7.1870   21.3590 O   0  0  0  0  0  0  0  0  0  0  0  0
  -21.8260   -6.4910   22.5340 C   0  0  0  0  0  0  0  0  0  0  0  0
  -21.2460   -7.0710   23.6830 C   0  0  0  0  0  3  0  0  0  0  0  0
  -21.0670   -6.2980   24.8480 C   0  0  0  0  0  3  0  0  0  0  0  0
  -21.4560   -4.9460   24.8630 C   0  0  0  0  0  0  0  0  0  0  0  0
  -22.0280   -4.3640   23.7170 C   0  0  0  0  0  3  0  0  0  0  0  0
  -22.2100   -5.1350   22.5560 C   0  0  0  0  0  0  0  0  0  0  0  0
  -22.7410   -4.5640   21.4480 F   0  0  0  0  0  0  0  0  0  0  0  0
  -21.2770   -4.2000   25.9790 F   0  0  0  0  0  0  0  0  0  0  0  0
  -23.1100  -13.8280   21.1920 C   0  0  0  0  0  0  0  0  0  0  0  0
  -22.4110  -13.1210   22.0740 N   0  0  0  0  0  0  0  0  0  0  0  0
  -22.6630  -14.8680   20.7120 O   0  0  0  0  0  0  0  0  0  0  0  0
  -22.7850  -12.2820   22.4900 H   0  0  0  0  0  0  0  0  0  0  0  0
  -21.4840  -13.4270   22.3370 H   0  0  0  0  0  0  0  0  0  0  0  0
  -25.7240  -15.4860   20.3060 N   0  0  0  0  0  0  0  0  0  0  0  0
  -24.9680  -16.1450   20.4550 H   0  0  0  0  0  0  0  0  0  0  0  0
  -26.5400  -15.9110   19.8870 H   0  0  0  0  0  0  0  0  0  0  0  0
  -29.2780  -23.8740   20.4540 C   0  0  0  0  0  3  0  0  0  0  0  0
  -28.2130  -25.0230   19.9840 C   0  0  0  0  0  3  0  0  0  0  0  0
  -28.4120  -26.5100   20.2220 O   0  0  0  0  0  0  0  0  0  0  0  0
  -24.7060  -31.9690   23.3120 C   0  0  0  0  0  0  0  0  0  0  0  0
  -27.3100  -27.4100   20.1690 C   0  0  0  0  0  0  0  0  0  0  0  0
  -23.4930  -30.5750   21.6760 C   0  0  0  0  0  3  0  0  0  0  0  0
  -24.9390  -29.0490   20.2060 C   0  0  0  0  0  0  0  0  0  0  0  0
  -26.0300  -30.9050   21.4610 C   0  0  0  0  0  2  0  0  0  0  0  0
  -26.1150  -29.5290   20.7970 C   0  0  0  0  0  0  0  0  0  0  0  0
  -27.3010  -28.7210   20.7660 C   0  0  0  0  0  3  0  0  0  0  0  0
  -26.1110  -27.0160   19.5320 C   0  0  0  0  0  3  0  0  0  0  0  0
  -24.9450  -27.8040   19.5600 C   0  0  0  0  0  3  0  0  0  0  0  0
  -23.6960  -29.9150   20.2850 C   0  0  0  0  0  2  0  0  0  0  0  0
  -24.7620  -31.1700   22.2050 N   0  0  0  0  0  0  0  0  0  0  0  0
  -23.6270  -32.2280   23.8670 O   0  0  0  0  0  0  0  0  0  0  0  0
  -22.8540  -29.5410   22.6360 C   0  0  0  0  0  0  0  0  0  0  0  0
  -21.5420  -29.2930   22.4780 N   0  0  0  0  0  0  0  0  0  0  0  0
  -23.5400  -28.9630   23.4840 O   0  0  0  0  0  0  0  0  0  0  0  0
  -21.0420  -29.8160   21.7720 H   0  0  0  0  0  0  0  0  0  0  0  0
  -18.2300  -27.8890   22.8760 C   0  0  0  0  0  0  0  0  0  0  0  0
  -20.7530  -28.3260   23.2440 C   0  0  0  0  0  3  0  0  0  0  0  0
  -20.9730  -26.8890   22.7210 C   0  0  0  0  0  2  0  0  0  0  0  0
  -19.9410  -26.4630   21.6710 C   0  0  0  0  0  2  0  0  0  0  0  0
  -18.5260  -26.5340   22.2530 C   0  0  0  0  0  2  0  0  0  0  0  0
  -19.2770  -28.7370   23.3280 C   0  0  0  0  0  0  0  0  0  0  0  0
  -18.9520  -29.9980   23.8690 C   0  0  0  0  0  3  0  0  0  0  0  0
  -17.6120  -30.4160   23.9690 C   0  0  0  0  0  3  0  0  0  0  0  0
  -16.5770  -29.5670   23.5360 C   0  0  0  0  0  3  0  0  0  0  0  0
  -16.8880  -28.3070   22.9930 C   0  0  0  0  0  3  0  0  0  0  0  0
  -25.9900  -32.6140   23.9180 C   0  0  0  0  0  3  0  0  0  0  0  0
  -26.5160  -31.8600   25.2030 C   0  0  1  0  0  0  0  0  0  0  0  0
  -25.4220  -31.6030   26.2650 C   0  0  0  0  0  1  0  0  0  0  0  0
  -27.1330  -30.4940   24.8210 C   0  0  0  0  0  1  0  0  0  0  0  0
  -27.6420  -32.6830   25.8720 C   0  0  0  0  0  1  0  0  0  0  0  0
  -25.6820  -34.0160   24.2370 N   0  0  0  0  0  0  0  0  0  0  0  0
  -25.9810  -35.0600   23.4530 C   0  0  0  0  0  0  0  0  0  0  0  0
  -26.6190  -34.9470   22.4030 O   0  0  0  0  0  0  0  0  0  0  0  0
  -25.1170  -34.1810   25.0570 H   0  0  0  0  0  0  0  0  0  0  0  0
  -24.2270  -36.8350   23.1350 C   0  0  0  0  0  1  0  0  0  0  0  0
  -25.5000  -36.4520   23.9060 C   0  0  0  0  0  3  0  0  0  0  0  0
  -27.6430  -37.3780   24.6630 C   0  0  0  0  0  1  0  0  0  0  0  0
  -26.5170  -37.5120   23.7410 N   0  0  0  0  0  0  0  0  0  0  0  0
  -26.1050  -38.4300   23.8810 H   0  0  0  0  0  0  0  0  0  0  0  0
  1  4  1  0
  2  5  2  0
  3  6  2  0
  5  1  2  0
  6  1  1  0
  7  2  1  0
  7  3  1  0
  8 49  1  0
  8  3  1  0
  9  8  1  0
 10 19  1  0
 10  2  1  0
 11 19  1  0
 12 17  1  0
 13 14  1  0
 13 12  1  0
 15 14  1  0
 15 24  1  0
 15 16  1  0
 17 11  1  0
 17 16  1  0
 18 11  2  0
 19 20  1  0
 21 22  2  0
 22 41  1  0
 23 22  1  0
 23 26  1  0
 24 25  1  0
 24 21  1  0
 25 23  2  0
 26 27  1  0
 27 28  2  0
 29 32  1  0
 29 28  1  0
 30 29  2  0
 31 30  1  0
 31 26  2  0
 32 33  1  0
 33 38  2  0
 33 34  1  0
 34 35  2  0
 35 36  1  0
 36 40  1  0
 37 36  2  0
 38 37  1  0
 39 38  1  0
 41 42  1  0
 42 45  1  0
 42 44  1  0
 43 41  2  0
 46 21  1  0
 46 47  1  0
 48 46  1  0
 50 51  1  0
 50 49  2  0
 52 63  2  0
 53 51  1  0
 53 58  1  0
 54 62  1  0
 54 64  1  0
 55 61  1  0
 55 57  1  0
 56 62  1  0
 57 56  1  0
 58 57  2  0
 59 60  1  0
 59 53  2  0
 60 55  2  0
 61 54  1  0
 62 52  1  0
 64 66  2  0
 65 64  1  0
 67 65  1  0
 68 77  2  0
 68 73  1  0
 69 65  1  0
 69 73  1  0
 70 69  1  0
 71 72  1  0
 71 70  1  0
 72 68  1  0
 73 74  2  0
 74 75  1  0
 76 75  2  0
 77 76  1  0
 78 52  1  0
 78 83  1  0
 78 79  1  0
 79 82  1  1
 79 80  1  0
 81 79  1  0
 83 86  1  0
 84 88  1  0
 84 83  1  0
 85 84  2  0
 88 87  1  0
 90 91  1  0
 90 88  1  0
 90 89  1  0
M  ISO  4  11 100  19 100  50 101  51 101
M  END
>  <TORSDO>  (49) 
F 19

>  <SCORE>  (49) 
-13.664

>  <name>  (49) 
48

>  <ligand_id>  (49) 
48

>  <original_smiles>  (49) 
[H]c1c([H])c([H])c2c(c1[H])C([H])([H])C([H])([H])C([H])([H])C2([H])N([H])C(=O)C1([H])N(C(=O)C([H])(N([H])C(=O)C([H])(N([H])C([H])([H])[H])C([H])([H])[H])C(C([H])([H])[H])(C([H])([H])[H])C([H])([H])[H])C([H])([H])c2c([H])c(OC([H])([H])C([H])([H])N([H])c3nc(C([H])([H])[H])nc(C([H])([H])N([H])C(=O)N4C([H])([H])C([H])([H])C([H])([H])C([H])(n5nc(-c6c([H])c([H])c(Oc7c([H])c([H])c(F)c([H])c7F)c([H])c6[H])c(C(=O)N([H])[H])c5N([H])[H])C4([H])[H])n3)c([H])c([H])c2C1([H])[H]

>  <smiles>  (49) 
[H]c1c([H])c([H])c2c(c1[H])C([H])([H])C([H])([H])C([H])([H])C2([H])N([H])C(=O)C1([H])N(C(=O)C([H])(N([H])C(=O)C([H])(N([H])C([H])([H])[H])C([H])([H])[H])C(C([H])([H])[H])(C([H])([H])[H])C([H])([H])[H])C([H])([H])c2c([H])c(OC([H])([H])C([H])([H])N([H])c3nc(C([H])([H])[H])nc(C([H])([H])N([H])C(=O)N4C([H])([H])C([H])([H])C([H])([H])C([H])(n5nc(-c6c([H])c([H])c(Oc7c([H])c([H])c(F)c([H])c7F)c([H])c6[H])c(C(=O)N([H])[H])c5N([H])[H])C4([H])[H])n3)c([H])c([H])c2C1([H])[H]

$$$$
49:0:0
     RDKit          3D

 88 96  0  0  1  0  0  0  0  0999 V2000
  -30.3590  -15.6530   20.1940 C   0  0  0  0  0  0  0  0  0  0  0  0
  -30.4760  -13.0500   19.5700 C   0  0  0  0  0  2  0  0  0  0  0  0
  -29.6290  -12.5790   18.3510 C   0  0  0  0  0  2  0  0  0  0  0  0
  -28.1810  -12.2750   18.7670 C   0  0  0  0  0  2  0  0  0  0  0  0
  -27.6440  -13.3460   19.7430 C   0  0  0  0  0  3  0  0  0  0  0  0
  -28.6330  -13.7150   20.8740 C   0  0  0  0  0  2  0  0  0  0  0  0
  -29.8420  -14.2800   20.2300 N   0  0  0  0  0  0  0  0  0  0  0  0
  -31.5930  -15.5840   20.0280 O   0  0  0  0  0  0  0  0  0  0  0  0
  -29.9860  -21.1990   19.2790 C   0  0  0  0  0  0  0  0  0  0  0  0
  -28.8210  -22.0360   19.7310 C   0  0  0  0  0  0  0  0  0  0  0  0
  -28.3000  -19.5560   20.4480 C   0  0  0  0  0  0  0  0  0  0  0  0
  -29.4610  -18.7110   20.0250 C   0  0  0  0  0  0  0  0  0  0  0  0
  -31.0670  -21.9040   18.4860 C   0  0  0  0  0  1  0  0  0  0  0  0
  -27.1640  -18.8320   21.1390 C   0  0  0  0  0  1  0  0  0  0  0  0
  -28.0320  -20.9950   20.3120 N   0  0  0  0  0  0  0  0  0  0  0  0
  -30.2650  -19.7490   19.4350 N   0  0  0  0  0  0  0  0  0  0  0  0
  -29.5570  -16.9900   20.2100 N   0  0  0  0  0  0  0  0  0  0  0  0
  -28.6260  -16.6790   20.4380 H   0  0  0  0  0  0  0  0  0  0  0  0
  -25.2730  -13.9510   20.4200 C   0  0  0  0  0  0  0  0  0  0  0  0
  -24.1860  -13.2070   20.7800 C   0  0  0  0  0  0  0  0  0  0  0  0
  -24.6260  -11.8470   20.7990 C   0  0  0  0  0  0  0  0  0  0  0  0
  -26.3040  -13.0520   20.2300 N   0  0  0  0  0  0  0  0  0  0  0  0
  -25.9260  -11.7790   20.5260 N   0  0  0  0  0  0  0  0  0  0  0  0
  -23.8640  -10.6060   20.9990 C   0  0  0  0  0  0  0  0  0  0  0  0
  -24.2580   -9.6410   21.9510 C   0  0  0  0  0  3  0  0  0  0  0  0
  -23.4930   -8.4690   22.1420 C   0  0  0  0  0  3  0  0  0  0  0  0
  -22.3200   -8.2550   21.3810 C   0  0  0  0  0  0  0  0  0  0  0  0
  -21.9440   -9.2080   20.4190 C   0  0  0  0  0  3  0  0  0  0  0  0
  -22.7080  -10.3710   20.2260 C   0  0  0  0  0  3  0  0  0  0  0  0
  -21.5300   -7.1340   21.4800 O   0  0  0  0  0  0  0  0  0  0  0  0
  -21.4670   -6.3980   22.6360 C   0  0  0  0  0  0  0  0  0  0  0  0
  -21.0830   -6.9740   23.8660 C   0  0  0  0  0  3  0  0  0  0  0  0
  -20.9640   -6.1660   25.0150 C   0  0  0  0  0  3  0  0  0  0  0  0
  -21.2180   -4.7840   24.9340 C   0  0  0  0  0  0  0  0  0  0  0  0
  -21.5940   -4.2080   23.7090 C   0  0  0  0  0  3  0  0  0  0  0  0
  -21.7160   -5.0110   22.5620 C   0  0  0  0  0  0  0  0  0  0  0  0
  -22.0570   -4.4470   21.3790 F   0  0  0  0  0  0  0  0  0  0  0  0
  -21.0970   -4.0070   26.0360 F   0  0  0  0  0  0  0  0  0  0  0  0
  -22.7920  -13.7210   20.9860 C   0  0  0  0  0  0  0  0  0  0  0  0
  -22.0230  -13.0770   21.8550 N   0  0  0  0  0  0  0  0  0  0  0  0
  -22.3950  -14.7340   20.4100 O   0  0  0  0  0  0  0  0  0  0  0  0
  -22.3580  -12.2590   22.3430 H   0  0  0  0  0  0  0  0  0  0  0  0
  -21.0850  -13.4060   22.0370 H   0  0  0  0  0  0  0  0  0  0  0  0
  -25.4660  -15.3130   20.2030 N   0  0  0  0  0  0  0  0  0  0  0  0
  -24.6920  -15.9670   20.2390 H   0  0  0  0  0  0  0  0  0  0  0  0
  -26.2920  -15.6980   19.7660 H   0  0  0  0  0  0  0  0  0  0  0  0
  -28.1580  -23.7580   19.3370 C   0  0  0  0  0  2  0  0  0  0  0  0
  -28.3790  -25.4860   19.6080 O   0  0  0  0  0  0  0  0  0  0  0  0
  -24.7870  -31.5750   22.8500 C   0  0  0  0  0  0  0  0  0  0  0  0
  -27.3910  -26.6930   19.5950 C   0  0  0  0  0  0  0  0  0  0  0  0
  -23.6050  -30.2160   21.1780 C   0  0  0  0  0  3  0  0  0  0  0  0
  -25.0680  -28.6690   19.6680 C   0  0  0  0  0  0  0  0  0  0  0  0
  -26.1760  -30.4300   21.0160 C   0  0  0  0  0  2  0  0  0  0  0  0
  -26.2660  -29.0290   20.2960 C   0  0  0  0  0  0  0  0  0  0  0  0
  -27.4080  -28.0690   20.2320 C   0  0  0  0  0  3  0  0  0  0  0  0
  -26.1540  -26.5500   18.9160 C   0  0  0  0  0  3  0  0  0  0  0  0
  -25.0500  -27.4580   18.9530 C   0  0  0  0  0  3  0  0  0  0  0  0
  -23.8360  -29.5840   19.7750 C   0  0  0  0  0  2  0  0  0  0  0  0
  -24.8810  -30.7720   21.7340 N   0  0  0  0  0  0  0  0  0  0  0  0
  -23.6970  -31.8240   23.3940 O   0  0  0  0  0  0  0  0  0  0  0  0
  -22.9340  -29.1800   22.1210 C   0  0  0  0  0  0  0  0  0  0  0  0
  -21.5970  -29.0260   22.0440 N   0  0  0  0  0  0  0  0  0  0  0  0
  -23.6260  -28.5140   22.8940 O   0  0  0  0  0  0  0  0  0  0  0  0
  -21.0860  -29.6140   21.4000 H   0  0  0  0  0  0  0  0  0  0  0  0
  -18.2340  -27.7910   22.6610 C   0  0  0  0  0  0  0  0  0  0  0  0
  -20.8070  -28.0430   22.7970 C   0  0  0  0  0  3  0  0  0  0  0  0
  -20.8690  -26.6500   22.1260 C   0  0  0  0  0  2  0  0  0  0  0  0
  -19.7120  -26.3970   21.1530 C   0  0  0  0  0  2  0  0  0  0  0  0
  -18.3690  -26.4950   21.8800 C   0  0  0  0  0  2  0  0  0  0  0  0
  -19.3770  -28.5270   23.0770 C   0  0  0  0  0  0  0  0  0  0  0  0
  -19.1910  -29.7390   23.7740 C   0  0  0  0  0  3  0  0  0  0  0  0
  -17.8980  -30.2200   24.0550 C   0  0  0  0  0  3  0  0  0  0  0  0
  -16.7710  -29.4830   23.6500 C   0  0  0  0  0  3  0  0  0  0  0  0
  -16.9410  -28.2700   22.9590 C   0  0  0  0  0  3  0  0  0  0  0  0
  -26.0450  -32.2340   23.4940 C   0  0  0  0  0  3  0  0  0  0  0  0
  -25.6680  -33.5780   23.9730 N   0  0  0  0  0  0  0  0  0  0  0  0
  -25.9260  -34.7270   23.3340 C   0  0  0  0  0  0  0  0  0  0  0  0
  -26.5620  -34.7700   22.2790 O   0  0  0  0  0  0  0  0  0  0  0  0
  -25.0930  -33.6130   24.8020 H   0  0  0  0  0  0  0  0  0  0  0  0
  -24.1060  -36.4710   23.2480 C   0  0  0  0  0  1  0  0  0  0  0  0
  -25.3980  -36.0360   23.9610 C   0  0  0  0  0  3  0  0  0  0  0  0
  -27.5220  -36.9360   24.8050 C   0  0  0  0  0  1  0  0  0  0  0  0
  -26.3760  -37.1460   23.9260 N   0  0  0  0  0  0  0  0  0  0  0  0
  -25.9350  -38.0240   24.1840 H   0  0  0  0  0  0  0  0  0  0  0  0
  -26.6400  -31.3890   24.6900 C   0  0  1  0  0  0  0  0  0  0  0  0
  -25.5990  -31.0240   25.7740 C   0  0  0  0  0  1  0  0  0  0  0  0
  -27.2630  -30.0690   24.1830 C   0  0  0  0  0  1  0  0  0  0  0  0
  -27.7810  -32.1790   25.3720 C   0  0  0  0  0  1  0  0  0  0  0  0
  1 17  1  0
  1  7  1  0
  2  7  1  0
  3  4  1  0
  3  2  1  0
  5  4  1  0
  5 22  1  0
  5  6  1  0
  7  6  1  0
  8  1  2  0
  9 16  2  0
  9 10  1  0
 10 15  2  0
 11 14  1  0
 12 17  1  0
 12 11  2  0
 13  9  1  0
 15 11  1  0
 16 12  1  0
 17 18  1  0
 19 20  2  0
 20 21  1  0
 20 39  1  0
 21 24  1  0
 22 19  1  0
 22 23  1  0
 23 21  2  0
 24 25  1  0
 25 26  2  0
 27 30  1  0
 27 26  1  0
 28 27  2  0
 29 28  1  0
 29 24  2  0
 30 31  1  0
 31 32  1  0
 32 33  2  0
 34 33  1  0
 34 38  1  0
 35 34  2  0
 36 31  2  0
 36 35  1  0
 37 36  1  0
 39 40  1  0
 40 43  1  0
 40 42  1  0
 41 39  2  0
 44 45  1  0
 44 19  1  0
 46 44  1  0
 47 48  1  0
 47 10  1  0
 49 60  2  0
 50 48  1  0
 50 55  1  0
 51 59  1  0
 51 61  1  0
 52 58  1  0
 52 54  1  0
 53 59  1  0
 54 53  1  0
 55 54  2  0
 56 57  1  0
 56 50  2  0
 57 52  2  0
 58 51  1  0
 59 49  1  0
 61 63  2  0
 62 61  1  0
 64 62  1  0
 65 74  2  0
 65 70  1  0
 66 62  1  0
 66 70  1  0
 67 66  1  0
 68 69  1  0
 68 67  1  0
 69 65  1  0
 70 71  2  0
 71 72  1  0
 73 72  2  0
 74 73  1  0
 75 49  1  0
 75 76  1  0
 75 85  1  0
 76 79  1  0
 77 81  1  0
 77 76  1  0
 78 77  2  0
 81 80  1  0
 83 81  1  0
 83 84  1  0
 83 82  1  0
 85 88  1  1
 85 86  1  0
 87 85  1  0
M  ISO  4   1 100  17 100  47 101  48 101
M  END
>  <TORSDO>  (50) 
F 16

>  <SCORE>  (50) 
-13.326

>  <name>  (50) 
49

>  <ligand_id>  (50) 
49

>  <original_smiles>  (50) 
[H]c1c([H])c([H])c2c(c1[H])C([H])([H])C([H])([H])C([H])([H])C2([H])N([H])C(=O)C1([H])N(C(=O)C([H])(N([H])C(=O)C([H])(N([H])C([H])([H])[H])C([H])([H])[H])C(C([H])([H])[H])(C([H])([H])[H])C([H])([H])[H])C([H])([H])c2c([H])c(OC([H])([H])c3nc(C([H])([H])[H])c(N([H])C(=O)N4C([H])([H])C([H])([H])C([H])([H])C([H])(n5nc(-c6c([H])c([H])c(Oc7c([H])c([H])c(F)c([H])c7F)c([H])c6[H])c(C(=O)N([H])[H])c5N([H])[H])C4([H])[H])nc3C([H])([H])[H])c([H])c([H])c2C1([H])[H]

>  <smiles>  (50) 
[H]c1c([H])c([H])c2c(c1[H])C([H])([H])C([H])([H])C([H])([H])C2([H])N([H])C(=O)C1([H])N(C(=O)C([H])(N([H])C(=O)C([H])(N([H])C([H])([H])[H])C([H])([H])[H])C(C([H])([H])[H])(C([H])([H])[H])C([H])([H])[H])C([H])([H])c2c([H])c(OC([H])([H])c3nc(C([H])([H])[H])c(N([H])C(=O)N4C([H])([H])C([H])([H])C([H])([H])C([H])(n5nc(-c6c([H])c([H])c(Oc7c([H])c([H])c(F)c([H])c7F)c([H])c6[H])c(C(=O)N([H])[H])c5N([H])[H])C4([H])[H])nc3C([H])([H])[H])c([H])c([H])c2C1([H])[H]

$$$$
50:0:0
     RDKit          3D

 92101  0  0  1  0  0  0  0  0999 V2000
  -29.2510  -21.2780   19.9280 N   0  0  2  0  0  4  0  0  0  0  0  0
  -30.2520  -21.4080   19.9350 H   0  0  0  0  0  0  0  0  0  0  0  0
  -30.6400  -18.4730   19.1040 C   0  0  0  0  0  2  0  0  0  0  0  0
  -29.1680  -18.8090   18.8300 C   0  0  0  0  0  2  0  0  0  0  0  0
  -30.2010  -18.2000   20.5290 C   0  0  0  0  0  3  0  0  0  0  0  0
  -29.0900  -19.5920   20.1950 C   0  0  0  0  0  3  0  0  0  0  0  0
  -30.6160  -15.2760   20.3280 C   0  0  0  0  0  0  0  0  0  0  0  0
  -30.4990  -12.9250   19.2380 C   0  0  0  0  0  2  0  0  0  0  0  0
  -29.5440  -12.8660   18.0180 C   0  0  0  0  0  2  0  0  0  0  0  0
  -28.0970  -12.6010   18.4640 C   0  0  0  0  0  2  0  0  0  0  0  0
  -27.7040  -13.4510   19.7000 C   0  0  0  0  0  3  0  0  0  0  0  0
  -28.7860  -13.4650   20.8010 C   0  0  0  0  0  2  0  0  0  0  0  0
  -30.0130  -13.9940   20.1850 N   0  0  0  0  0  0  0  0  0  0  0  0
  -31.8240  -15.2700   20.0460 O   0  0  0  0  0  0  0  0  0  0  0  0
  -29.8970  -16.5480   20.5820 N   0  0  0  0  0  0  0  0  0  0  0  0
  -28.9320  -16.3600   20.8140 H   0  0  0  0  0  0  0  0  0  0  0  0
  -25.3290  -13.9740   20.4660 C   0  0  0  0  0  0  0  0  0  0  0  0
  -24.2810  -13.1790   20.8380 C   0  0  0  0  0  0  0  0  0  0  0  0
  -24.7680  -11.8350   20.8030 C   0  0  0  0  0  0  0  0  0  0  0  0
  -26.3840  -13.1130   20.2150 N   0  0  0  0  0  0  0  0  0  0  0  0
  -26.0600  -11.8220   20.4870 N   0  0  0  0  0  0  0  0  0  0  0  0
  -24.0600  -10.5610   20.9910 C   0  0  0  0  0  0  0  0  0  0  0  0
  -24.4790   -9.6150   21.9530 C   0  0  0  0  0  3  0  0  0  0  0  0
  -23.7630   -8.4110   22.1290 C   0  0  0  0  0  3  0  0  0  0  0  0
  -22.6150   -8.1440   21.3460 C   0  0  0  0  0  0  0  0  0  0  0  0
  -22.2160   -9.0790   20.3740 C   0  0  0  0  0  3  0  0  0  0  0  0
  -22.9330  -10.2750   20.1950 C   0  0  0  0  0  3  0  0  0  0  0  0
  -21.8740   -6.9910   21.4300 O   0  0  0  0  0  0  0  0  0  0  0  0
  -21.7880   -6.2730   22.5960 C   0  0  0  0  0  0  0  0  0  0  0  0
  -21.2640   -6.8350   23.7810 C   0  0  0  0  0  3  0  0  0  0  0  0
  -21.1330   -6.0420   24.9390 C   0  0  0  0  0  3  0  0  0  0  0  0
  -21.5120   -4.6860   24.9120 C   0  0  0  0  0  0  0  0  0  0  0  0
  -22.0280   -4.1240   23.7300 C   0  0  0  0  0  3  0  0  0  0  0  0
  -22.1620   -4.9140   22.5760 C   0  0  0  0  0  0  0  0  0  0  0  0
  -22.6400   -4.3610   21.4350 F   0  0  0  0  0  0  0  0  0  0  0  0
  -21.3770   -3.9220   26.0200 F   0  0  0  0  0  0  0  0  0  0  0  0
  -22.8770  -13.6350   21.1110 C   0  0  0  0  0  0  0  0  0  0  0  0
  -22.1620  -12.9300   21.9800 N   0  0  0  0  0  0  0  0  0  0  0  0
  -22.4250  -14.6540   20.5900 O   0  0  0  0  0  0  0  0  0  0  0  0
  -22.5430  -12.1100   22.4270 H   0  0  0  0  0  0  0  0  0  0  0  0
  -21.2190  -13.2160   22.2010 H   0  0  0  0  0  0  0  0  0  0  0  0
  -25.4690  -15.3460   20.2860 N   0  0  0  0  0  0  0  0  0  0  0  0
  -24.6850  -15.9820   20.3830 H   0  0  0  0  0  0  0  0  0  0  0  0
  -26.2910  -15.7860   19.8960 H   0  0  0  0  0  0  0  0  0  0  0  0
  -27.4770  -22.2280   21.5590 C   0  0  0  0  0  1  0  0  0  0  0  0
  -28.7000  -22.6460   20.7280 C   0  0  0  0  0  3  0  0  0  0  0  0
  -28.3370  -24.2820   20.0050 C   0  0  0  0  0  2  0  0  0  0  0  0
  -28.3910  -25.8750   20.4350 O   0  0  0  0  0  0  0  0  0  0  0  0
  -24.6360  -31.7970   23.1570 C   0  0  0  0  0  0  0  0  0  0  0  0
  -27.3690  -26.9490   20.2720 C   0  0  0  0  0  0  0  0  0  0  0  0
  -23.5170  -30.3700   21.4920 C   0  0  0  0  0  3  0  0  0  0  0  0
  -25.0390  -28.7830   20.1300 C   0  0  0  0  0  0  0  0  0  0  0  0
  -26.0820  -30.6260   21.4260 C   0  0  0  0  0  2  0  0  0  0  0  0
  -26.1970  -29.2130   20.7890 C   0  0  0  0  0  0  0  0  0  0  0  0
  -27.3540  -28.3180   20.8370 C   0  0  0  0  0  3  0  0  0  0  0  0
  -26.1850  -26.6740   19.5480 C   0  0  0  0  0  3  0  0  0  0  0  0
  -25.0590  -27.5330   19.4920 C   0  0  0  0  0  3  0  0  0  0  0  0
  -23.8010  -29.6800   20.1300 C   0  0  0  0  0  2  0  0  0  0  0  0
  -24.7650  -30.9600   22.0790 N   0  0  0  0  0  0  0  0  0  0  0  0
  -23.5270  -32.0710   23.6440 O   0  0  0  0  0  0  0  0  0  0  0  0
  -22.8100  -29.3700   22.4430 C   0  0  0  0  0  0  0  0  0  0  0  0
  -21.4830  -29.1990   22.2920 N   0  0  0  0  0  0  0  0  0  0  0  0
  -23.4610  -28.7500   23.2870 O   0  0  0  0  0  0  0  0  0  0  0  0
  -21.0090  -29.7520   21.5910 H   0  0  0  0  0  0  0  0  0  0  0  0
  -18.0930  -27.9990   22.7640 C   0  0  0  0  0  0  0  0  0  0  0  0
  -20.6520  -28.2560   23.0470 C   0  0  0  0  0  3  0  0  0  0  0  0
  -20.7520  -26.8280   22.4590 C   0  0  0  0  0  2  0  0  0  0  0  0
  -19.6580  -26.5180   21.4340 C   0  0  0  0  0  2  0  0  0  0  0  0
  -18.2720  -26.6580   22.0700 C   0  0  0  0  0  2  0  0  0  0  0  0
  -19.2090  -28.7550   23.2070 C   0  0  0  0  0  0  0  0  0  0  0  0
  -18.9880  -30.0080   23.8210 C   0  0  0  0  0  3  0  0  0  0  0  0
  -17.6820  -30.5060   23.9890 C   0  0  0  0  0  3  0  0  0  0  0  0
  -16.5800  -29.7470   23.5600 C   0  0  0  0  0  3  0  0  0  0  0  0
  -16.7850  -28.4950   22.9540 C   0  0  0  0  0  3  0  0  0  0  0  0
  -25.8770  -32.4670   23.8240 C   0  0  0  0  0  3  0  0  0  0  0  0
  -25.5300  -33.8670   24.1230 N   0  0  0  0  0  0  0  0  0  0  0  0
  -25.9010  -34.9260   23.3880 C   0  0  0  0  0  0  0  0  0  0  0  0
  -26.6330  -34.8270   22.4010 O   0  0  0  0  0  0  0  0  0  0  0  0
  -24.8890  -34.0180   24.8870 H   0  0  0  0  0  0  0  0  0  0  0  0
  -24.1900  -36.7190   22.9350 C   0  0  0  0  0  1  0  0  0  0  0  0
  -25.3800  -36.3120   23.8180 C   0  0  0  0  0  3  0  0  0  0  0  0
  -27.4470  -37.2200   24.7870 C   0  0  0  0  0  1  0  0  0  0  0  0
  -26.4110  -37.3740   23.7710 N   0  0  0  0  0  0  0  0  0  0  0  0
  -25.9860  -38.2900   23.8880 H   0  0  0  0  0  0  0  0  0  0  0  0
  -26.3470  -31.7340   25.1410 C   0  0  1  0  0  0  0  0  0  0  0  0
  -25.2110  -31.5060   26.1660 C   0  0  0  0  0  1  0  0  0  0  0  0
  -26.9640  -30.3540   24.8170 C   0  0  0  0  0  1  0  0  0  0  0  0
  -27.4540  -32.5600   25.8360 C   0  0  0  0  0  1  0  0  0  0  0  0
  -28.8970  -21.5960   18.5080 C   0  0  0  0  0  2  0  0  0  0  0  0
  -30.5310  -21.4220   16.4090 C   0  0  0  0  0  2  0  0  0  0  0  0
  -29.8690  -22.7730   16.3790 C   0  0  0  0  0  2  0  0  0  0  0  0
  -30.0980  -22.0780   17.7070 C   0  0  0  0  0  3  0  0  0  0  0  0
  1  2  1  6
  1 46  1  0
  3  5  1  0
  4  3  1  0
  4  6  1  0
  5 15  1  0
  6  1  1  0
  6  5  1  0
  7 15  1  0
  8 13  1  0
  9 10  1  0
  9  8  1  0
 11 10  1  0
 11 20  1  0
 11 12  1  0
 13  7  1  0
 13 12  1  0
 14  7  2  0
 15 16  1  0
 17 18  2  0
 18 37  1  0
 19 18  1  0
 19 22  1  0
 20 17  1  0
 20 21  1  0
 21 19  2  0
 22 23  1  0
 23 24  2  0
 25 28  1  0
 25 24  1  0
 26 25  2  0
 27 26  1  0
 27 22  2  0
 28 29  1  0
 29 30  1  0
 30 31  2  0
 32 31  1  0
 32 36  1  0
 33 32  2  0
 34 29  2  0
 34 33  1  0
 35 34  1  0
 37 38  1  0
 38 41  1  0
 38 40  1  0
 39 37  2  0
 42 43  1  0
 42 17  1  0
 44 42  1  0
 46 45  1  0
 47 48  1  0
 47 46  1  0
 49 60  2  0
 50 48  1  0
 50 55  1  0
 51 59  1  0
 51 61  1  0
 52 54  1  0
 53 59  1  0
 54 55  2  0
 54 53  1  0
 56 50  2  0
 57 56  1  0
 57 52  2  0
 58 52  1  0
 58 51  1  0
 59 49  1  0
 61 63  2  0
 62 61  1  0
 64 62  1  0
 65 74  2  0
 65 70  1  0
 66 62  1  0
 66 70  1  0
 67 66  1  0
 68 69  1  0
 68 67  1  0
 69 65  1  0
 70 71  2  0
 71 72  1  0
 73 72  2  0
 74 73  1  0
 75 49  1  0
 75 76  1  0
 75 85  1  0
 76 79  1  0
 77 81  1  0
 77 76  1  0
 78 77  2  0
 81 80  1  0
 83 81  1  0
 83 84  1  0
 83 82  1  0
 85 88  1  1
 85 86  1  0
 87 85  1  0
 89  1  1  0
 90 92  1  0
 91 90  1  0
 91 92  1  0
 92 89  1  0
M  ISO  4   7 100  15 100  47 101  48 101
M  END
>  <TORSDO>  (51) 
F 21

>  <SCORE>  (51) 
-15.908

>  <name>  (51) 
50

>  <ligand_id>  (51) 
50

>  <original_smiles>  (51) 
[H]c1c([H])c([H])c2c(c1[H])C([H])([H])C([H])([H])C([H])([H])C2([H])N([H])C(=O)C1([H])N(C(=O)C([H])(N([H])C(=O)C([H])(N([H])C([H])([H])[H])C([H])([H])[H])C(C([H])([H])[H])(C([H])([H])[H])C([H])([H])[H])C([H])([H])c2c([H])c(OC([H])([H])C([H])(C([H])([H])[H])[N+]([H])(C([H])([H])C3([H])C([H])([H])C3([H])[H])C3([H])C([H])([H])C([H])([H])C3([H])N([H])C(=O)N3C([H])([H])C([H])([H])C([H])([H])C([H])(n4nc(-c5c([H])c([H])c(Oc6c([H])c([H])c(F)c([H])c6F)c([H])c5[H])c(C(=O)N([H])[H])c4N([H])[H])C3([H])[H])c([H])c([H])c2C1([H])[H]

>  <smiles>  (51) 
[H]c1c([H])c([H])c2c(c1[H])C([H])([H])C([H])([H])C([H])([H])C2([H])N([H])C(=O)C1([H])N(C(=O)C([H])(N([H])C(=O)C([H])(N([H])C([H])([H])[H])C([H])([H])[H])C(C([H])([H])[H])(C([H])([H])[H])C([H])([H])[H])C([H])([H])c2c([H])c(OC([H])([H])C([H])(C([H])([H])[H])[N+]([H])(C([H])([H])C3([H])C([H])([H])C3([H])[H])C3([H])C([H])([H])C([H])([H])C3([H])N([H])C(=O)N3C([H])([H])C([H])([H])C([H])([H])C([H])(n4nc(-c5c([H])c([H])c(Oc6c([H])c([H])c(F)c([H])c6F)c([H])c5[H])c(C(=O)N([H])[H])c4N([H])[H])C3([H])[H])c([H])c([H])c2C1([H])[H]

$$$$
51:0:0
     RDKit          3D

 89 98  0  0  1  0  0  0  0  0999 V2000
  -31.3730  -21.5670   21.6530 C   0  0  0  0  0  3  0  0  0  0  0  0
  -31.1480  -22.9440   21.6160 C   0  0  0  0  0  3  0  0  0  0  0  0
  -30.4320  -20.6990   21.0950 C   0  0  0  0  0  0  0  0  0  0  0  0
  -29.2570  -21.2380   20.4890 C   0  0  0  0  0  0  0  0  0  0  0  0
  -29.0410  -22.8270   20.5160 C   0  0  0  0  0  0  0  0  0  0  0  0
  -30.6590  -19.1370   21.1650 C   0  0  0  0  0  2  0  0  0  0  0  0
  -28.6440  -19.7350   20.0320 C   0  0  0  0  0  2  0  0  0  0  0  0
  -29.7410  -18.3630   20.1710 C   0  0  0  0  0  3  0  0  0  0  0  0
  -30.0540  -23.5200   21.0870 N   0  0  0  0  0  0  0  0  0  0  0  0
  -30.3200  -15.3920   20.2200 C   0  0  0  0  0  0  0  0  0  0  0  0
  -30.3180  -12.9240   19.3600 C   0  0  0  0  0  2  0  0  0  0  0  0
  -29.3820  -12.6740   18.1480 C   0  0  0  0  0  2  0  0  0  0  0  0
  -27.9480  -12.3810   18.6170 C   0  0  0  0  0  2  0  0  0  0  0  0
  -27.5000  -13.3480   19.7400 C   0  0  0  0  0  3  0  0  0  0  0  0
  -28.5640  -13.5340   20.8440 C   0  0  0  0  0  2  0  0  0  0  0  0
  -29.7690  -14.0700   20.1840 N   0  0  0  0  0  0  0  0  0  0  0  0
  -31.5340  -15.3850   19.9640 O   0  0  0  0  0  0  0  0  0  0  0  0
  -29.5530  -16.6780   20.3440 N   0  0  0  0  0  0  0  0  0  0  0  0
  -28.5860  -16.4580   20.5380 H   0  0  0  0  0  0  0  0  0  0  0  0
  -25.1480  -13.8860   20.5520 C   0  0  0  0  0  0  0  0  0  0  0  0
  -24.0960  -13.1010   20.9330 C   0  0  0  0  0  0  0  0  0  0  0  0
  -24.5660  -11.7540   20.8760 C   0  0  0  0  0  0  0  0  0  0  0  0
  -26.1870  -13.0170   20.2760 N   0  0  0  0  0  0  0  0  0  0  0  0
  -25.8520  -11.7270   20.5380 N   0  0  0  0  0  0  0  0  0  0  0  0
  -23.8450  -10.4870   21.0640 C   0  0  0  0  0  0  0  0  0  0  0  0
  -24.2930   -9.5080   21.9780 C   0  0  0  0  0  3  0  0  0  0  0  0
  -23.5680   -8.3100   22.1570 C   0  0  0  0  0  3  0  0  0  0  0  0
  -22.3820   -8.0810   21.4210 C   0  0  0  0  0  0  0  0  0  0  0  0
  -21.9520   -9.0490   20.4950 C   0  0  0  0  0  3  0  0  0  0  0  0
  -22.6780  -10.2380   20.3140 C   0  0  0  0  0  3  0  0  0  0  0  0
  -21.6260   -6.9360   21.5090 O   0  0  0  0  0  0  0  0  0  0  0  0
  -21.5970   -6.1810   22.6540 C   0  0  0  0  0  0  0  0  0  0  0  0
  -21.1820   -6.7200   23.8910 C   0  0  0  0  0  3  0  0  0  0  0  0
  -21.1000   -5.8920   25.0290 C   0  0  0  0  0  3  0  0  0  0  0  0
  -21.4220   -4.5250   24.9290 C   0  0  0  0  0  0  0  0  0  0  0  0
  -21.8300   -3.9850   23.6960 C   0  0  0  0  0  3  0  0  0  0  0  0
  -21.9140   -4.8110   22.5610 C   0  0  0  0  0  0  0  0  0  0  0  0
  -22.2870   -4.2810   21.3710 F   0  0  0  0  0  0  0  0  0  0  0  0
  -21.3360   -3.7260   26.0180 F   0  0  0  0  0  0  0  0  0  0  0  0
  -22.7030  -13.5720   21.2310 C   0  0  0  0  0  0  0  0  0  0  0  0
  -21.9920  -12.8680   22.1040 N   0  0  0  0  0  0  0  0  0  0  0  0
  -22.2560  -14.6010   20.7260 O   0  0  0  0  0  0  0  0  0  0  0  0
  -22.3690  -12.0360   22.5330 H   0  0  0  0  0  0  0  0  0  0  0  0
  -21.0580  -13.1660   22.3470 H   0  0  0  0  0  0  0  0  0  0  0  0
  -25.3000  -15.2590   20.3860 N   0  0  0  0  0  0  0  0  0  0  0  0
  -24.5280  -15.9040   20.5160 H   0  0  0  0  0  0  0  0  0  0  0  0
  -26.1240  -15.7030   20.0020 H   0  0  0  0  0  0  0  0  0  0  0  0
  -27.9470  -24.1470   20.1100 C   0  0  0  0  0  2  0  0  0  0  0  0
  -28.1510  -25.8020   20.3290 O   0  0  0  0  0  0  0  0  0  0  0  0
  -24.6330  -31.8740   23.2430 C   0  0  0  0  0  0  0  0  0  0  0  0
  -27.1530  -26.9280   20.2480 C   0  0  0  0  0  0  0  0  0  0  0  0
  -23.4320  -30.4820   21.6060 C   0  0  0  0  0  3  0  0  0  0  0  0
  -24.8710  -28.8550   20.1910 C   0  0  0  0  0  0  0  0  0  0  0  0
  -26.0020  -30.6610   21.4680 C   0  0  0  0  0  2  0  0  0  0  0  0
  -26.0620  -29.2450   20.8150 C   0  0  0  0  0  0  0  0  0  0  0  0
  -27.1950  -28.3030   20.8160 C   0  0  0  0  0  3  0  0  0  0  0  0
  -25.9310  -26.7020   19.5730 C   0  0  0  0  0  3  0  0  0  0  0  0
  -24.8340  -27.6050   19.5480 C   0  0  0  0  0  3  0  0  0  0  0  0
  -23.6610  -29.7910   20.2330 C   0  0  0  0  0  2  0  0  0  0  0  0
  -24.7120  -31.0340   22.1590 N   0  0  0  0  0  0  0  0  0  0  0  0
  -23.5440  -32.1750   23.7600 O   0  0  0  0  0  0  0  0  0  0  0  0
  -22.7250  -29.4990   22.5750 C   0  0  0  0  0  0  0  0  0  0  0  0
  -21.3930  -29.3460   22.4500 N   0  0  0  0  0  0  0  0  0  0  0  0
  -23.3820  -28.8710   23.4090 O   0  0  0  0  0  0  0  0  0  0  0  0
  -20.9150  -29.9030   21.7550 H   0  0  0  0  0  0  0  0  0  0  0  0
  -18.0020  -28.1540   22.9500 C   0  0  0  0  0  0  0  0  0  0  0  0
  -20.5610  -28.4170   23.2230 C   0  0  0  0  0  3  0  0  0  0  0  0
  -20.6610  -26.9810   22.6580 C   0  0  0  0  0  2  0  0  0  0  0  0
  -19.5630  -26.6550   21.6410 C   0  0  0  0  0  2  0  0  0  0  0  0
  -18.1790  -26.8020   22.2780 C   0  0  0  0  0  2  0  0  0  0  0  0
  -19.1200  -28.9190   23.3800 C   0  0  0  0  0  0  0  0  0  0  0  0
  -18.8980  -30.1810   23.9730 C   0  0  0  0  0  3  0  0  0  0  0  0
  -17.5910  -30.6790   24.1370 C   0  0  0  0  0  3  0  0  0  0  0  0
  -16.4890  -29.9130   23.7210 C   0  0  0  0  0  3  0  0  0  0  0  0
  -16.6950  -28.6520   23.1340 C   0  0  0  0  0  3  0  0  0  0  0  0
  -25.9060  -32.5110   23.8790 C   0  0  0  0  0  3  0  0  0  0  0  0
  -25.5950  -33.9120   24.2140 N   0  0  0  0  0  0  0  0  0  0  0  0
  -25.9120  -34.9720   23.4580 C   0  0  0  0  0  0  0  0  0  0  0  0
  -26.5580  -34.8730   22.4120 O   0  0  0  0  0  0  0  0  0  0  0  0
  -25.0170  -34.0620   25.0270 H   0  0  0  0  0  0  0  0  0  0  0  0
  -24.1660  -36.7670   23.1790 C   0  0  0  0  0  1  0  0  0  0  0  0
  -25.4410  -36.3630   23.9360 C   0  0  0  0  0  3  0  0  0  0  0  0
  -27.6040  -37.2600   24.6790 C   0  0  0  0  0  1  0  0  0  0  0  0
  -26.4650  -37.4200   23.7790 N   0  0  0  0  0  0  0  0  0  0  0  0
  -26.0610  -38.3380   23.9410 H   0  0  0  0  0  0  0  0  0  0  0  0
  -26.4040  -31.7460   25.1680 C   0  0  1  0  0  0  0  0  0  0  0  0
  -25.2990  -31.5260   26.2290 C   0  0  0  0  0  1  0  0  0  0  0  0
  -26.9780  -30.3590   24.8000 C   0  0  0  0  0  1  0  0  0  0  0  0
  -27.5540  -32.5350   25.8340 C   0  0  0  0  0  1  0  0  0  0  0  0
  2  1  1  0
  3  6  1  0
  3  1  2  0
  4  5  2  0
  4  3  1  0
  5  9  1  0
  7  8  1  0
  7  4  1  0
  8 18  1  0
  8  6  1  0
  9  2  2  0
 10 18  1  0
 11 16  1  0
 12 13  1  0
 12 11  1  0
 14 13  1  0
 14 23  1  0
 14 15  1  0
 16 10  1  0
 16 15  1  0
 17 10  2  0
 18 19  1  0
 20 21  2  0
 21 40  1  0
 22 21  1  0
 22 25  1  0
 23 24  1  0
 23 20  1  0
 24 22  2  0
 25 26  1  0
 26 27  2  0
 28 31  1  0
 28 27  1  0
 29 28  2  0
 30 29  1  0
 30 25  2  0
 31 32  1  0
 32 33  1  0
 33 34  2  0
 35 34  1  0
 35 39  1  0
 36 35  2  0
 37 32  2  0
 37 36  1  0
 38 37  1  0
 40 41  1  0
 41 44  1  0
 41 43  1  0
 42 40  2  0
 45 46  1  0
 45 20  1  0
 47 45  1  0
 48 49  1  0
 48  5  1  0
 50 61  2  0
 51 49  1  0
 51 56  1  0
 52 60  1  0
 52 62  1  0
 53 59  1  0
 53 55  1  0
 54 60  1  0
 55 56  2  0
 55 54  1  0
 57 51  2  0
 58 57  1  0
 58 53  2  0
 59 52  1  0
 60 50  1  0
 62 64  2  0
 63 62  1  0
 65 63  1  0
 66 75  2  0
 66 71  1  0
 67 63  1  0
 67 71  1  0
 68 67  1  0
 69 70  1  0
 69 68  1  0
 70 66  1  0
 71 72  2  0
 72 73  1  0
 74 73  2  0
 75 74  1  0
 76 50  1  0
 76 77  1  0
 76 86  1  0
 77 80  1  0
 78 82  1  0
 78 77  1  0
 79 78  2  0
 82 81  1  0
 84 82  1  0
 84 85  1  0
 84 83  1  0
 86 89  1  1
 86 87  1  0
 88 86  1  0
M  ISO  4  10 100  18 100  48 101  49 101
M  END
>  <TORSDO>  (52) 
F 17

>  <SCORE>  (52) 
-16.740

>  <name>  (52) 
51

>  <ligand_id>  (52) 
51

>  <original_smiles>  (52) 
[H]c1nc(C([H])([H])Oc2c([H])c([H])c3c(c2[H])C([H])([H])N(C(=O)C([H])(N([H])C(=O)C([H])(N([H])C([H])([H])[H])C([H])([H])[H])C(C([H])([H])[H])(C([H])([H])[H])C([H])([H])[H])C([H])(C(=O)N([H])C2([H])c4c([H])c([H])c([H])c([H])c4C([H])([H])C([H])([H])C2([H])[H])C3([H])[H])c2c(c1[H])C([H])([H])C([H])(N([H])C(=O)N1C([H])([H])C([H])([H])C([H])([H])C([H])(n3nc(-c4c([H])c([H])c(Oc5c([H])c([H])c(F)c([H])c5F)c([H])c4[H])c(C(=O)N([H])[H])c3N([H])[H])C1([H])[H])C2([H])[H]

>  <smiles>  (52) 
[H]c1nc(C([H])([H])Oc2c([H])c([H])c3c(c2[H])C([H])([H])N(C(=O)C([H])(N([H])C(=O)C([H])(N([H])C([H])([H])[H])C([H])([H])[H])C(C([H])([H])[H])(C([H])([H])[H])C([H])([H])[H])C([H])(C(=O)N([H])C2([H])c4c([H])c([H])c([H])c([H])c4C([H])([H])C([H])([H])C2([H])[H])C3([H])[H])c2c(c1[H])C([H])([H])C([H])(N([H])C(=O)N1C([H])([H])C([H])([H])C([H])([H])C([H])(n3nc(-c4c([H])c([H])c(Oc5c([H])c([H])c(F)c([H])c5F)c([H])c4[H])c(C(=O)N([H])[H])c3N([H])[H])C1([H])[H])C2([H])[H]

$$$$
52:0:0
     RDKit          3D

 93101  0  0  1  0  0  0  0  0999 V2000
  -29.7930  -20.5790   19.3160 N   0  0  0  0  0  4  0  0  0  0  0  0
  -28.8800  -20.3800   18.9310 H   0  0  0  0  0  0  0  0  0  0  0  0
  -30.3400  -20.8830   18.5230 H   0  0  0  0  0  0  0  0  0  0  0  0
  -30.7860  -21.9730   21.2270 C   0  0  0  0  0  1  0  0  0  0  0  0
  -29.6000  -21.8570   20.2470 C   0  0  0  0  0  3  0  0  0  0  0  0
  -29.2800  -23.4150   19.6510 C   0  0  0  0  0  2  0  0  0  0  0  0
  -28.5950  -24.6930   20.5210 C   0  0  0  0  0  2  0  0  0  0  0  0
  -28.7500  -26.2230   20.3000 O   0  0  0  0  0  0  0  0  0  0  0  0
  -24.7630  -31.6690   23.2860 C   0  0  0  0  0  0  0  0  0  0  0  0
  -27.6370  -27.1300   20.2790 C   0  0  0  0  0  0  0  0  0  0  0  0
  -23.6950  -30.3000   21.5360 C   0  0  0  0  0  3  0  0  0  0  0  0
  -25.2580  -28.7960   20.1590 C   0  0  0  0  0  0  0  0  0  0  0  0
  -26.2430  -30.6300   21.5290 C   0  0  0  0  0  2  0  0  0  0  0  0
  -26.3880  -29.2620   20.8460 C   0  0  0  0  0  0  0  0  0  0  0  0
  -27.5810  -28.4470   20.8810 C   0  0  0  0  0  3  0  0  0  0  0  0
  -26.4780  -26.7540   19.5650 C   0  0  0  0  0  3  0  0  0  0  0  0
  -25.3160  -27.5590   19.5040 C   0  0  0  0  0  3  0  0  0  0  0  0
  -24.0090  -29.6660   20.1550 C   0  0  0  0  0  2  0  0  0  0  0  0
  -24.9170  -30.8880   22.1730 N   0  0  0  0  0  0  0  0  0  0  0  0
  -23.6390  -31.9160   23.7530 O   0  0  0  0  0  0  0  0  0  0  0  0
  -22.9770  -29.2550   22.4270 C   0  0  0  0  0  0  0  0  0  0  0  0
  -21.6520  -29.1020   22.2480 N   0  0  0  0  0  0  0  0  0  0  0  0
  -23.6170  -28.5770   23.2330 O   0  0  0  0  0  0  0  0  0  0  0  0
  -21.1950  -29.6980   21.5720 H   0  0  0  0  0  0  0  0  0  0  0  0
  -18.2340  -27.9860   22.6570 C   0  0  0  0  0  0  0  0  0  0  0  0
  -20.7990  -28.1400   22.9460 C   0  0  0  0  0  3  0  0  0  0  0  0
  -20.8550  -26.7550   22.2610 C   0  0  0  0  0  2  0  0  0  0  0  0
  -19.7470  -26.5470   21.2260 C   0  0  0  0  0  2  0  0  0  0  0  0
  -18.3670  -26.6890   21.8770 C   0  0  0  0  0  2  0  0  0  0  0  0
  -19.3750  -28.6750   23.1440 C   0  0  0  0  0  0  0  0  0  0  0  0
  -19.1960  -29.8940   23.8350 C   0  0  0  0  0  3  0  0  0  0  0  0
  -17.9110  -30.4230   24.0410 C   0  0  0  0  0  3  0  0  0  0  0  0
  -16.7800  -29.7290   23.5690 C   0  0  0  0  0  3  0  0  0  0  0  0
  -16.9430  -28.5140   22.8850 C   0  0  0  0  0  3  0  0  0  0  0  0
  -25.9870  -32.3090   24.0100 C   0  0  0  0  0  3  0  0  0  0  0  0
  -26.4470  -31.4940   25.2790 C   0  0  1  0  0  0  0  0  0  0  0  0
  -25.2950  -31.1630   26.2550 C   0  0  0  0  0  1  0  0  0  0  0  0
  -27.1120  -30.1610   24.8650 C   0  0  0  0  0  1  0  0  0  0  0  0
  -27.5210  -32.2960   26.0540 C   0  0  0  0  0  1  0  0  0  0  0  0
  -25.6160  -33.6830   24.3860 N   0  0  0  0  0  0  0  0  0  0  0  0
  -25.9510  -34.7800   23.6960 C   0  0  0  0  0  0  0  0  0  0  0  0
  -26.6690  -34.7470   22.6940 O   0  0  0  0  0  0  0  0  0  0  0  0
  -24.9740  -33.7790   25.1600 H   0  0  0  0  0  0  0  0  0  0  0  0
  -24.1840  -36.5410   23.3570 C   0  0  0  0  0  1  0  0  0  0  0  0
  -25.4030  -36.1340   24.1980 C   0  0  0  0  0  3  0  0  0  0  0  0
  -27.4720  -37.0450   25.1580 C   0  0  0  0  0  1  0  0  0  0  0  0
  -26.4080  -37.2190   24.1740 N   0  0  0  0  0  0  0  0  0  0  0  0
  -25.9680  -38.1200   24.3380 H   0  0  0  0  0  0  0  0  0  0  0  0
  -30.4680  -19.2080   19.7850 C   0  0  0  0  0  2  0  0  0  0  0  0
  -30.9890  -15.0310   19.5100 C   0  0  0  0  0  0  0  0  0  0  0  0
  -30.7010  -12.6770   18.5650 C   0  0  0  0  0  2  0  0  0  0  0  0
  -29.6690  -12.6580   17.4170 C   0  0  0  0  0  2  0  0  0  0  0  0
  -28.2420  -12.4770   17.9720 C   0  0  0  0  0  2  0  0  0  0  0  0
  -27.9670  -13.3700   19.2130 C   0  0  0  0  0  3  0  0  0  0  0  0
  -29.1320  -13.3600   20.2280 C   0  0  0  0  0  2  0  0  0  0  0  0
  -30.3430  -13.7840   19.5110 N   0  0  0  0  0  0  0  0  0  0  0  0
  -32.0940  -15.0630   18.9550 O   0  0  0  0  0  0  0  0  0  0  0  0
  -30.2410  -16.4630   21.4010 C   0  0  0  0  0  2  0  0  0  0  0  0
  -28.7820  -16.8160   21.8120 C   0  0  0  0  0  2  0  0  0  0  0  0
  -28.4440  -17.6620   19.4510 C   0  0  0  0  0  2  0  0  0  0  0  0
  -29.9780  -17.6520   19.2780 C   0  0  0  0  0  3  0  0  0  0  0  0
  -30.3690  -16.2580   19.9530 N   0  0  0  0  0  0  0  0  0  0  0  0
  -28.0740  -17.7470   20.8910 N   0  0  0  0  0  4  0  0  0  0  0  0
  -28.2400  -18.6850   21.2200 H   0  0  0  0  0  0  0  0  0  0  0  0
  -27.0810  -17.5970   20.9960 H   0  0  0  0  0  0  0  0  0  0  0  0
  -25.6950  -13.9660   20.2310 C   0  0  0  0  0  0  0  0  0  0  0  0
  -24.6570  -13.2070   20.6870 C   0  0  0  0  0  0  0  0  0  0  0  0
  -25.0760  -11.8500   20.5610 C   0  0  0  0  0  0  0  0  0  0  0  0
  -26.6780  -13.0750   19.8360 N   0  0  0  0  0  0  0  0  0  0  0  0
  -26.3240  -11.7930   20.1040 N   0  0  0  0  0  0  0  0  0  0  0  0
  -24.3380  -10.6000   20.7930 C   0  0  0  0  0  0  0  0  0  0  0  0
  -24.7530   -9.6750   21.7740 C   0  0  0  0  0  3  0  0  0  0  0  0
  -24.0140   -8.4940   22.0040 C   0  0  0  0  0  3  0  0  0  0  0  0
  -22.8470   -8.2270   21.2470 C   0  0  0  0  0  0  0  0  0  0  0  0
  -22.4520   -9.1430   20.2560 C   0  0  0  0  0  3  0  0  0  0  0  0
  -23.1920  -10.3140   20.0240 C   0  0  0  0  0  3  0  0  0  0  0  0
  -22.0830   -7.0920   21.3760 O   0  0  0  0  0  0  0  0  0  0  0  0
  -21.8810   -6.4910   22.5940 C   0  0  0  0  0  0  0  0  0  0  0  0
  -21.2770   -7.1760   23.6700 C   0  0  0  0  0  3  0  0  0  0  0  0
  -21.0230   -6.5010   24.8810 C   0  0  0  0  0  3  0  0  0  0  0  0
  -21.3690   -5.1420   25.0180 C   0  0  0  0  0  0  0  0  0  0  0  0
  -21.9730   -4.4590   23.9480 C   0  0  0  0  0  3  0  0  0  0  0  0
  -22.2260   -5.1320   22.7390 C   0  0  0  0  0  0  0  0  0  0  0  0
  -22.7820   -4.4600   21.7010 F   0  0  0  0  0  0  0  0  0  0  0  0
  -21.1230   -4.4920   26.1790 F   0  0  0  0  0  0  0  0  0  0  0  0
  -23.3050  -13.7110   21.1000 C   0  0  0  0  0  0  0  0  0  0  0  0
  -22.6520  -13.0400   22.0410 N   0  0  0  0  0  0  0  0  0  0  0  0
  -22.8360  -14.7390   20.6140 O   0  0  0  0  0  0  0  0  0  0  0  0
  -23.0440  -12.2090   22.4580 H   0  0  0  0  0  0  0  0  0  0  0  0
  -21.7390  -13.3540   22.3320 H   0  0  0  0  0  0  0  0  0  0  0  0
  -25.8730  -15.3410   20.0880 N   0  0  0  0  0  0  0  0  0  0  0  0
  -25.0240  -15.8750   20.2370 H   0  0  0  0  0  0  0  0  0  0  0  0
  -26.3780  -15.6470   19.2670 H   0  0  0  0  0  0  0  0  0  0  0  0
  1 49  1  0
  1  5  1  0
  2  1  1  0
  3  1  1  0
  5  4  1  0
  6  5  1  0
  6  7  1  0
  8  7  1  0
  9 20  2  0
 10  8  1  0
 10 15  1  0
 11 19  1  0
 11 21  1  0
 12 14  1  0
 13 19  1  0
 14 15  2  0
 14 13  1  0
 16 10  2  0
 17 16  1  0
 17 12  2  0
 18 12  1  0
 18 11  1  0
 19  9  1  0
 21 23  2  0
 22 21  1  0
 24 22  1  0
 25 34  2  0
 25 30  1  0
 26 22  1  0
 26 30  1  0
 27 26  1  0
 28 29  1  0
 28 27  1  0
 29 25  1  0
 30 31  2  0
 31 32  1  0
 33 32  2  0
 34 33  1  0
 35  9  1  0
 35 40  1  0
 35 36  1  0
 36 39  1  1
 36 37  1  0
 38 36  1  0
 40 43  1  0
 41 45  1  0
 41 40  1  0
 42 41  2  0
 45 44  1  0
 47 45  1  0
 47 48  1  0
 47 46  1  0
 50 56  1  0
 50 62  1  0
 51 56  1  0
 52 53  1  0
 52 51  1  0
 54 53  1  0
 54 69  1  0
 54 55  1  0
 56 55  1  0
 57 50  2  0
 58 59  1  0
 60 63  1  0
 61 60  1  0
 61 49  1  0
 61 62  1  0
 62 58  1  0
 63 65  1  0
 63 64  1  0
 63 59  1  0
 66 67  2  0
 67 86  1  0
 68 67  1  0
 68 71  1  0
 69 70  1  0
 69 66  1  0
 70 68  2  0
 71 72  1  0
 72 73  2  0
 74 77  1  0
 74 73  1  0
 75 74  2  0
 76 75  1  0
 76 71  2  0
 77 78  1  0
 78 83  2  0
 78 79  1  0
 79 80  2  0
 80 81  1  0
 81 85  1  0
 82 81  2  0
 83 82  1  0
 84 83  1  0
 86 87  1  0
 87 90  1  0
 87 89  1  0
 88 86  2  0
 91 66  1  0
 91 92  1  0
 93 91  1  0
M  ISO  4   7 101   8 101  50 100  62 100
M  END
>  <TORSDO>  (53) 
F 20

>  <SCORE>  (53) 
-12.360

>  <name>  (53) 
52

>  <ligand_id>  (53) 
52

>  <original_smiles>  (53) 
[H]c1c([H])c([H])c2c(c1[H])C([H])([H])C([H])([H])C([H])([H])C2([H])N([H])C(=O)C1([H])N(C(=O)C([H])(N([H])C(=O)C([H])(N([H])C([H])([H])[H])C([H])([H])[H])C(C([H])([H])[H])(C([H])([H])[H])C([H])([H])[H])C([H])([H])c2c([H])c(OC([H])([H])C([H])([H])C([H])(C([H])([H])[H])[N+]([H])([H])C([H])([H])C3([H])N(C(=O)N4C([H])([H])C([H])([H])C([H])([H])C([H])(n5nc(-c6c([H])c([H])c(Oc7c([H])c([H])c(F)c([H])c7F)c([H])c6[H])c(C(=O)N([H])[H])c5N([H])[H])C4([H])[H])C([H])([H])C([H])([H])[N+]([H])([H])C3([H])[H])c([H])c([H])c2C1([H])[H]

>  <smiles>  (53) 
[H]c1c([H])c([H])c2c(c1[H])C([H])([H])C([H])([H])C([H])([H])C2([H])N([H])C(=O)C1([H])N(C(=O)C([H])(N([H])C(=O)C([H])(N([H])C([H])([H])[H])C([H])([H])[H])C(C([H])([H])[H])(C([H])([H])[H])C([H])([H])[H])C([H])([H])c2c([H])c(OC([H])([H])C([H])([H])C([H])(C([H])([H])[H])[N+]([H])([H])C([H])([H])C3([H])N(C(=O)N4C([H])([H])C([H])([H])C([H])([H])C([H])(n5nc(-c6c([H])c([H])c(Oc7c([H])c([H])c(F)c([H])c7F)c([H])c6[H])c(C(=O)N([H])[H])c5N([H])[H])C4([H])[H])C([H])([H])C([H])([H])[N+]([H])([H])C3([H])[H])c([H])c([H])c2C1([H])[H]

$$$$
53:0:0
     RDKit          3D

 90 99  0  0  1  0  0  0  0  0999 V2000
  -32.4640  -19.6430   21.3220 C   0  0  0  0  0  3  0  0  0  0  0  0
  -31.4480  -18.7550   20.9710 C   0  0  0  0  0  3  0  0  0  0  0  0
  -32.1930  -21.0000   21.2760 C   0  0  0  0  0  3  0  0  0  0  0  0
  -30.1560  -19.1740   20.5620 C   0  0  0  0  0  0  0  0  0  0  0  0
  -29.9520  -20.7060   20.5410 C   0  0  0  0  0  0  0  0  0  0  0  0
  -30.9950  -21.4800   20.9110 N   0  0  0  0  0  0  0  0  0  0  0  0
  -30.4970  -15.0960   20.2760 C   0  0  0  0  0  0  0  0  0  0  0  0
  -30.4460  -12.7310   19.3100 C   0  0  0  0  0  2  0  0  0  0  0  0
  -29.5000  -12.6440   18.0860 C   0  0  0  0  0  2  0  0  0  0  0  0
  -28.0460  -12.4020   18.5340 C   0  0  0  0  0  2  0  0  0  0  0  0
  -27.6310  -13.3310   19.7050 C   0  0  0  0  0  3  0  0  0  0  0  0
  -28.6900  -13.3550   20.8250 C   0  0  0  0  0  2  0  0  0  0  0  0
  -29.9440  -13.8110   20.2100 N   0  0  0  0  0  0  0  0  0  0  0  0
  -31.6830  -15.1940   19.9340 O   0  0  0  0  0  0  0  0  0  0  0  0
  -28.9680  -16.8870   21.4570 C   0  0  0  0  0  2  0  0  0  0  0  0
  -29.3330  -17.7770   20.2370 C   0  0  0  0  0  3  0  0  0  0  0  0
  -29.6260  -16.2400   20.3890 N   0  0  0  0  0  0  0  0  0  0  0  0
  -25.2520  -13.8980   20.4570 C   0  0  0  0  0  0  0  0  0  0  0  0
  -24.1940  -13.1160   20.8320 C   0  0  0  0  0  0  0  0  0  0  0  0
  -24.6670  -11.7670   20.7970 C   0  0  0  0  0  0  0  0  0  0  0  0
  -26.2970  -13.0250   20.2090 N   0  0  0  0  0  0  0  0  0  0  0  0
  -25.9560  -11.7380   20.4800 N   0  0  0  0  0  0  0  0  0  0  0  0
  -23.9480  -10.5000   20.9890 C   0  0  0  0  0  0  0  0  0  0  0  0
  -24.3790   -9.5410   21.9330 C   0  0  0  0  0  3  0  0  0  0  0  0
  -23.6580   -8.3400   22.1110 C   0  0  0  0  0  3  0  0  0  0  0  0
  -22.4940   -8.0900   21.3470 C   0  0  0  0  0  0  0  0  0  0  0  0
  -22.0840   -9.0380   20.3930 C   0  0  0  0  0  3  0  0  0  0  0  0
  -22.8050  -10.2300   20.2120 C   0  0  0  0  0  3  0  0  0  0  0  0
  -21.7460   -6.9410   21.4350 O   0  0  0  0  0  0  0  0  0  0  0  0
  -21.6710   -6.2180   22.6000 C   0  0  0  0  0  0  0  0  0  0  0  0
  -21.1960   -6.7890   23.8010 C   0  0  0  0  0  3  0  0  0  0  0  0
  -21.0680   -5.9920   24.9570 C   0  0  0  0  0  3  0  0  0  0  0  0
  -21.4070   -4.6260   24.9110 C   0  0  0  0  0  0  0  0  0  0  0  0
  -21.8740   -4.0550   23.7150 C   0  0  0  0  0  3  0  0  0  0  0  0
  -22.0030   -4.8490   22.5620 C   0  0  0  0  0  0  0  0  0  0  0  0
  -22.4340   -4.2890   21.4060 F   0  0  0  0  0  0  0  0  0  0  0  0
  -21.2770   -3.8580   26.0190 F   0  0  0  0  0  0  0  0  0  0  0  0
  -22.7950  -13.5850   21.1070 C   0  0  0  0  0  0  0  0  0  0  0  0
  -22.0760  -12.8900   21.9790 N   0  0  0  0  0  0  0  0  0  0  0  0
  -22.3490  -14.6050   20.5810 O   0  0  0  0  0  0  0  0  0  0  0  0
  -22.4490  -12.0660   22.4270 H   0  0  0  0  0  0  0  0  0  0  0  0
  -21.1350  -13.1880   22.2020 H   0  0  0  0  0  0  0  0  0  0  0  0
  -25.4100  -15.2700   20.2820 N   0  0  0  0  0  0  0  0  0  0  0  0
  -24.6460  -15.9250   20.4120 H   0  0  0  0  0  0  0  0  0  0  0  0
  -26.2590  -15.7080   19.9500 H   0  0  0  0  0  0  0  0  0  0  0  0
  -28.8980  -21.7190   20.2140 N   0  0  0  0  0  0  0  0  0  0  0  0
  -28.0000  -21.3830   19.8770 H   0  0  0  0  0  0  0  0  0  0  0  0
  -29.0690  -23.3020   20.4160 C   0  0  0  0  0  3  0  0  0  0  0  0
  -28.0210  -24.5960   20.0180 C   0  0  0  0  0  3  0  0  0  0  0  0
  -28.2680  -26.1400   20.2600 O   0  0  0  0  0  0  0  0  0  0  0  0
  -24.6630  -31.8770   23.2510 C   0  0  0  0  0  0  0  0  0  0  0  0
  -27.2310  -27.1550   20.1880 C   0  0  0  0  0  0  0  0  0  0  0  0
  -23.4660  -30.5000   21.5930 C   0  0  0  0  0  3  0  0  0  0  0  0
  -24.9160  -28.9370   20.1530 C   0  0  0  0  0  0  0  0  0  0  0  0
  -26.0210  -30.7570   21.4380 C   0  0  0  0  0  2  0  0  0  0  0  0
  -26.0950  -29.3650   20.7750 C   0  0  0  0  0  0  0  0  0  0  0  0
  -27.2520  -28.4910   20.7760 C   0  0  0  0  0  3  0  0  0  0  0  0
  -26.0300  -26.8410   19.5170 C   0  0  0  0  0  3  0  0  0  0  0  0
  -24.9000  -27.6900   19.5050 C   0  0  0  0  0  3  0  0  0  0  0  0
  -23.6920  -29.8430   20.2050 C   0  0  0  0  0  2  0  0  0  0  0  0
  -24.7370  -31.0650   22.1520 N   0  0  0  0  0  0  0  0  0  0  0  0
  -23.5760  -32.1570   23.7780 O   0  0  0  0  0  0  0  0  0  0  0  0
  -22.7840  -29.4820   22.5430 C   0  0  0  0  0  0  0  0  0  0  0  0
  -21.4560  -29.3160   22.4150 N   0  0  0  0  0  0  0  0  0  0  0  0
  -23.4530  -28.8470   23.3610 O   0  0  0  0  0  0  0  0  0  0  0  0
  -20.9700  -29.8820   21.7330 H   0  0  0  0  0  0  0  0  0  0  0  0
  -18.0720  -28.1210   22.9050 C   0  0  0  0  0  0  0  0  0  0  0  0
  -20.6320  -28.3720   23.1740 C   0  0  0  0  0  3  0  0  0  0  0  0
  -20.7310  -26.9480   22.5790 C   0  0  0  0  0  2  0  0  0  0  0  0
  -19.6260  -26.6420   21.5620 C   0  0  0  0  0  2  0  0  0  0  0  0
  -18.2450  -26.7820   22.2080 C   0  0  0  0  0  2  0  0  0  0  0  0
  -19.1930  -28.8740   23.3450 C   0  0  0  0  0  0  0  0  0  0  0  0
  -18.9770  -30.1270   23.9580 C   0  0  0  0  0  3  0  0  0  0  0  0
  -17.6740  -30.6280   24.1350 C   0  0  0  0  0  3  0  0  0  0  0  0
  -16.5670  -29.8710   23.7110 C   0  0  0  0  0  3  0  0  0  0  0  0
  -16.7670  -28.6200   23.1030 C   0  0  0  0  0  3  0  0  0  0  0  0
  -25.9400  -32.5070   23.8870 C   0  0  0  0  0  3  0  0  0  0  0  0
  -26.4370  -31.7330   25.1700 C   0  0  1  0  0  0  0  0  0  0  0  0
  -25.3300  -31.5050   26.2250 C   0  0  0  0  0  1  0  0  0  0  0  0
  -27.0170  -30.3510   24.7890 C   0  0  0  0  0  1  0  0  0  0  0  0
  -27.5830  -32.5220   25.8470 C   0  0  0  0  0  1  0  0  0  0  0  0
  -25.6330  -33.9080   24.2220 N   0  0  0  0  0  0  0  0  0  0  0  0
  -25.9400  -34.9630   23.4570 C   0  0  0  0  0  0  0  0  0  0  0  0
  -26.5840  -34.8630   22.4100 O   0  0  0  0  0  0  0  0  0  0  0  0
  -25.0630  -34.0610   25.0420 H   0  0  0  0  0  0  0  0  0  0  0  0
  -24.1820  -36.7430   23.1750 C   0  0  0  0  0  1  0  0  0  0  0  0
  -25.4620  -36.3510   23.9300 C   0  0  0  0  0  3  0  0  0  0  0  0
  -27.6200  -37.2650   24.6650 C   0  0  0  0  0  1  0  0  0  0  0  0
  -26.4780  -37.4130   23.7660 N   0  0  0  0  0  0  0  0  0  0  0  0
  -26.0680  -38.3300   23.9230 H   0  0  0  0  0  0  0  0  0  0  0  0
  2  1  2  0
  3  1  1  0
  4  2  1  0
  5  4  2  0
  5  6  1  0
  6  3  2  0
  7 17  1  0
  8 13  1  0
  9 10  1  0
  9  8  1  0
 11 10  1  0
 11 21  1  0
 11 12  1  0
 13  7  1  0
 13 12  1  0
 14  7  2  0
 16 17  1  0
 16  4  1  0
 16 15  1  0
 17 15  1  0
 18 19  2  0
 19 38  1  0
 20 19  1  0
 20 23  1  0
 21 18  1  0
 21 22  1  0
 22 20  2  0
 23 24  1  0
 24 25  2  0
 26 29  1  0
 26 25  1  0
 27 26  2  0
 28 27  1  0
 28 23  2  0
 29 30  1  0
 30 31  1  0
 31 32  2  0
 33 32  1  0
 33 37  1  0
 34 33  2  0
 35 30  2  0
 35 34  1  0
 36 35  1  0
 38 39  1  0
 39 42  1  0
 39 41  1  0
 40 38  2  0
 43 44  1  0
 43 18  1  0
 45 43  1  0
 46 48  1  0
 46  5  1  0
 47 46  1  0
 49 50  1  0
 49 48  2  0
 51 62  2  0
 52 50  1  0
 52 57  1  0
 53 61  1  0
 53 63  1  0
 54 60  1  0
 54 56  1  0
 55 61  1  0
 56 57  2  0
 56 55  1  0
 58 52  2  0
 59 58  1  0
 59 54  2  0
 60 53  1  0
 61 51  1  0
 63 65  2  0
 64 63  1  0
 66 64  1  0
 67 76  2  0
 67 72  1  0
 68 64  1  0
 68 72  1  0
 69 68  1  0
 70 71  1  0
 70 69  1  0
 71 67  1  0
 72 73  2  0
 73 74  1  0
 75 74  2  0
 76 75  1  0
 77 51  1  0
 77 82  1  0
 77 78  1  0
 78 81  1  1
 78 79  1  0
 80 78  1  0
 82 85  1  0
 83 87  1  0
 83 82  1  0
 84 83  2  0
 87 86  1  0
 89 90  1  0
 89 87  1  0
 89 88  1  0
M  ISO  4   7 100  17 100  49 101  50 101
M  END
>  <TORSDO>  (54) 
F 19

>  <SCORE>  (54) 
-14.871

>  <name>  (54) 
53

>  <ligand_id>  (54) 
53

>  <original_smiles>  (54) 
[H]c1nc(N([H])C([H])([H])C([H])([H])Oc2c([H])c([H])c3c(c2[H])C([H])([H])N(C(=O)C([H])(N([H])C(=O)C([H])(N([H])C([H])([H])[H])C([H])([H])[H])C(C([H])([H])[H])(C([H])([H])[H])C([H])([H])[H])C([H])(C(=O)N([H])C2([H])c4c([H])c([H])c([H])c([H])c4C([H])([H])C([H])([H])C2([H])[H])C3([H])[H])c(C2([H])N(C(=O)N3C([H])([H])C([H])([H])C([H])([H])C([H])(n4nc(-c5c([H])c([H])c(Oc6c([H])c([H])c(F)c([H])c6F)c([H])c5[H])c(C(=O)N([H])[H])c4N([H])[H])C3([H])[H])C2([H])[H])c([H])c1[H]

>  <smiles>  (54) 
[H]c1nc(N([H])C([H])([H])C([H])([H])Oc2c([H])c([H])c3c(c2[H])C([H])([H])N(C(=O)C([H])(N([H])C(=O)C([H])(N([H])C([H])([H])[H])C([H])([H])[H])C(C([H])([H])[H])(C([H])([H])[H])C([H])([H])[H])C([H])(C(=O)N([H])C2([H])c4c([H])c([H])c([H])c([H])c4C([H])([H])C([H])([H])C2([H])[H])C3([H])[H])c(C2([H])N(C(=O)N3C([H])([H])C([H])([H])C([H])([H])C([H])(n4nc(-c5c([H])c([H])c(Oc6c([H])c([H])c(F)c([H])c6F)c([H])c5[H])c(C(=O)N([H])[H])c4N([H])[H])C3([H])[H])C2([H])[H])c([H])c1[H]

$$$$
54:0:0
     RDKit          3D

100110  0  0  1  0  0  0  0  0999 V2000
  -31.1990  -23.4270   21.7560 C   0  0  0  0  0  3  0  0  0  0  0  0
  -30.3210  -24.5010   21.4820 C   0  0  0  0  0  3  0  0  0  0  0  0
  -30.8110  -22.1440   21.3160 C   0  0  0  0  0  0  0  0  0  0  0  0
  -29.6450  -21.9950   20.5990 C   0  0  0  0  0  0  0  0  0  0  0  0
  -29.1080  -24.2510   20.7990 C   0  0  0  0  0  0  0  0  0  0  0  0
  -29.4270  -20.5390   20.2250 C   0  0  0  0  0  3  0  0  0  0  0  0
  -31.4620  -20.8000   21.5950 C   0  0  2  0  0  0  0  0  0  0  0  0
  -31.4230  -20.5780   23.1280 C   0  0  0  0  0  1  0  0  0  0  0  0
  -32.9150  -20.8070   21.0820 C   0  0  0  0  0  1  0  0  0  0  0  0
  -28.7820  -23.0090   20.3480 N   0  0  0  0  0  0  0  0  0  0  0  0
  -30.6210  -19.8150   20.7970 N   0  0  1  0  0  4  0  0  0  0  0  0
  -31.1810  -19.6530   19.9760 H   0  0  0  0  0  0  0  0  0  0  0  0
  -30.6900  -14.5090   20.2510 C   0  0  0  0  0  0  0  0  0  0  0  0
  -30.2620  -12.4210   18.9890 C   0  0  0  0  0  2  0  0  0  0  0  0
  -29.2800  -12.6560   17.8240 C   0  0  0  0  0  2  0  0  0  0  0  0
  -27.8280  -12.4900   18.3030 C   0  0  0  0  0  2  0  0  0  0  0  0
  -27.5410  -13.3040   19.5890 C   0  0  0  0  0  3  0  0  0  0  0  0
  -28.6330  -13.0580   20.6610 C   0  0  0  0  0  2  0  0  0  0  0  0
  -29.9420  -13.3770   20.0680 N   0  0  0  0  0  0  0  0  0  0  0  0
  -31.7450  -14.6800   19.6340 O   0  0  0  0  0  0  0  0  0  0  0  0
  -31.6410  -17.5380   21.4120 C   0  0  0  0  0  2  0  0  0  0  0  0
  -29.2840  -17.5990   20.6380 C   0  0  0  0  0  2  0  0  0  0  0  0
  -31.3680  -16.1230   21.9900 C   0  0  0  0  0  2  0  0  0  0  0  0
  -29.0890  -16.1860   21.2420 C   0  0  0  0  0  2  0  0  0  0  0  0
  -30.3680  -18.4350   21.3810 C   0  0  0  0  0  3  0  0  0  0  0  0
  -30.3350  -15.4000   21.2250 N   0  0  0  0  0  0  0  0  0  0  0  0
  -25.1680  -13.9280   20.3670 C   0  0  0  0  0  0  0  0  0  0  0  0
  -24.1100  -13.1600   20.7710 C   0  0  0  0  0  0  0  0  0  0  0  0
  -24.5680  -11.8070   20.7320 C   0  0  0  0  0  0  0  0  0  0  0  0
  -26.2030  -13.0410   20.1090 N   0  0  0  0  0  0  0  0  0  0  0  0
  -25.8470  -11.7630   20.3880 N   0  0  0  0  0  0  0  0  0  0  0  0
  -23.8470  -10.5470   20.9460 C   0  0  0  0  0  0  0  0  0  0  0  0
  -24.3000   -9.5850   21.8740 C   0  0  0  0  0  3  0  0  0  0  0  0
  -23.5800   -8.3880   22.0740 C   0  0  0  0  0  3  0  0  0  0  0  0
  -22.3910   -8.1450   21.3450 C   0  0  0  0  0  0  0  0  0  0  0  0
  -21.9560   -9.0960   20.4050 C   0  0  0  0  0  3  0  0  0  0  0  0
  -22.6780  -10.2850   20.2030 C   0  0  0  0  0  3  0  0  0  0  0  0
  -21.6390   -7.0010   21.4560 O   0  0  0  0  0  0  0  0  0  0  0  0
  -21.6150   -6.2650   22.6130 C   0  0  0  0  0  0  0  0  0  0  0  0
  -21.2290   -6.8310   23.8480 C   0  0  0  0  0  3  0  0  0  0  0  0
  -21.1520   -6.0210   24.9980 C   0  0  0  0  0  3  0  0  0  0  0  0
  -21.4510   -4.6490   24.9170 C   0  0  0  0  0  0  0  0  0  0  0  0
  -21.8310   -4.0820   23.6870 C   0  0  0  0  0  3  0  0  0  0  0  0
  -21.9100   -4.8890   22.5380 C   0  0  0  0  0  0  0  0  0  0  0  0
  -22.2570   -4.3350   21.3510 F   0  0  0  0  0  0  0  0  0  0  0  0
  -21.3690   -3.8690   26.0200 F   0  0  0  0  0  0  0  0  0  0  0  0
  -22.7210  -13.6400   21.0800 C   0  0  0  0  0  0  0  0  0  0  0  0
  -22.0150  -12.9450   21.9640 N   0  0  0  0  0  0  0  0  0  0  0  0
  -22.2710  -14.6670   20.5720 O   0  0  0  0  0  0  0  0  0  0  0  0
  -22.3910  -12.1140   22.3960 H   0  0  0  0  0  0  0  0  0  0  0  0
  -21.0840  -13.2490   22.2160 H   0  0  0  0  0  0  0  0  0  0  0  0
  -25.3300  -15.2970   20.1750 N   0  0  0  0  0  0  0  0  0  0  0  0
  -24.5630  -15.9490   20.2980 H   0  0  0  0  0  0  0  0  0  0  0  0
  -26.1610  -15.7290   19.7950 H   0  0  0  0  0  0  0  0  0  0  0  0
  -27.9990  -25.3080   20.7150 C   0  0  0  0  0  2  0  0  0  0  0  0
  -28.3170  -26.6050   20.1470 O   0  0  0  0  0  0  0  0  0  0  0  0
  -24.5800  -31.8660   23.1890 C   0  0  0  0  0  0  0  0  0  0  0  0
  -27.1960  -27.4160   20.0830 C   0  0  0  0  0  0  0  0  0  0  0  0
  -23.3630  -30.4670   21.5530 C   0  0  0  0  0  3  0  0  0  0  0  0
  -24.8100  -28.9460   20.1060 C   0  0  0  0  0  0  0  0  0  0  0  0
  -25.8910  -30.8250   21.3430 C   0  0  0  0  0  2  0  0  0  0  0  0
  -25.9750  -29.4570   20.6930 C   0  0  0  0  0  0  0  0  0  0  0  0
  -27.1740  -28.7010   20.6800 C   0  0  0  0  0  3  0  0  0  0  0  0
  -26.0200  -26.9460   19.4550 C   0  0  0  0  0  3  0  0  0  0  0  0
  -24.8290  -27.6910   19.4790 C   0  0  0  0  0  3  0  0  0  0  0  0
  -23.5640  -29.8000   20.1680 C   0  0  0  0  0  2  0  0  0  0  0  0
  -24.6300  -31.0670   22.0860 N   0  0  0  0  0  0  0  0  0  0  0  0
  -23.5010  -32.1350   23.7370 O   0  0  0  0  0  0  0  0  0  0  0  0
  -22.7200  -29.4400   22.5140 C   0  0  0  0  0  0  0  0  0  0  0  0
  -21.3930  -29.2670   22.4060 N   0  0  0  0  0  0  0  0  0  0  0  0
  -23.4130  -28.8050   23.3140 O   0  0  0  0  0  0  0  0  0  0  0  0
  -20.8970  -29.8320   21.7320 H   0  0  0  0  0  0  0  0  0  0  0  0
  -18.0200  -28.0870   22.9430 C   0  0  0  0  0  0  0  0  0  0  0  0
  -20.5820  -28.3280   23.1820 C   0  0  0  0  0  3  0  0  0  0  0  0
  -20.6690  -26.9000   22.5960 C   0  0  0  0  0  2  0  0  0  0  0  0
  -19.5520  -26.5900   21.5940 C   0  0  0  0  0  2  0  0  0  0  0  0
  -18.1790  -26.7400   22.2550 C   0  0  0  0  0  2  0  0  0  0  0  0
  -19.1490  -28.8390   23.3620 C   0  0  0  0  0  0  0  0  0  0  0  0
  -18.9460  -30.1010   23.9640 C   0  0  0  0  0  3  0  0  0  0  0  0
  -17.6470  -30.6090   24.1490 C   0  0  0  0  0  3  0  0  0  0  0  0
  -16.5320  -29.8520   23.7460 C   0  0  0  0  0  3  0  0  0  0  0  0
  -16.7200  -28.5930   23.1490 C   0  0  0  0  0  3  0  0  0  0  0  0
  -25.8690  -32.4970   23.8010 C   0  0  0  0  0  3  0  0  0  0  0  0
  -26.4070  -31.7140   25.0610 C   0  0  1  0  0  0  0  0  0  0  0  0
  -25.3290  -31.4600   26.1400 C   0  0  0  0  0  1  0  0  0  0  0  0
  -26.9920  -30.3440   24.6450 C   0  0  0  0  0  1  0  0  0  0  0  0
  -27.5620  -32.5070   25.7150 C   0  0  0  0  0  1  0  0  0  0  0  0
  -25.5570  -33.8900   24.1470 N   0  0  0  0  0  0  0  0  0  0  0  0
  -25.8820  -34.9510   23.3970 C   0  0  0  0  0  0  0  0  0  0  0  0
  -26.5470  -34.8610   22.3620 O   0  0  0  0  0  0  0  0  0  0  0  0
  -24.9670  -34.0340   24.9530 H   0  0  0  0  0  0  0  0  0  0  0  0
  -24.1480  -36.7410   23.0620 C   0  0  0  0  0  1  0  0  0  0  0  0
  -25.3900  -36.3320   23.8700 C   0  0  0  0  0  3  0  0  0  0  0  0
  -27.5250  -37.2070   24.7090 C   0  0  0  0  0  1  0  0  0  0  0  0
  -26.4180  -37.3900   23.7740 N   0  0  0  0  0  0  0  0  0  0  0  0
  -26.0090  -38.3050   23.9430 H   0  0  0  0  0  0  0  0  0  0  0  0
  -29.3610  -20.3320   18.6800 C   0  0  0  0  0  2  0  0  0  0  0  0
  -27.0800  -19.5640   18.3330 C   0  0  0  0  0  1  0  0  0  0  0  0
  -28.2330  -20.7130   16.6090 C   0  0  0  0  0  1  0  0  0  0  0  0
  -28.0600  -20.6150   18.0570 N   0  0  0  0  0  0  0  0  0  0  0  0
  2  1  1  0
  3  7  1  0
  3  1  2  0
  4  3  1  0
  5  2  2  0
  6 97  1  0
  6  4  1  0
  6 11  1  0
  7  8  1  1
  9  7  1  0
 10  4  2  0
 10  5  1  0
 11 12  1  6
 11 25  1  0
 11  7  1  0
 13 26  1  0
 14 19  1  0
 15 16  1  0
 15 14  1  0
 17 16  1  0
 17 30  1  0
 17 18  1  0
 19 13  1  0
 19 18  1  0
 20 13  2  0
 21 23  1  0
 22 24  1  0
 25 22  1  0
 25 21  1  0
 26 24  1  0
 26 23  1  0
 27 28  2  0
 28 47  1  0
 29 28  1  0
 29 32  1  0
 30 27  1  0
 30 31  1  0
 31 29  2  0
 32 33  1  0
 33 34  2  0
 35 38  1  0
 35 34  1  0
 36 35  2  0
 37 36  1  0
 37 32  2  0
 38 39  1  0
 39 40  1  0
 40 41  2  0
 42 41  1  0
 42 46  1  0
 43 42  2  0
 44 39  2  0
 44 43  1  0
 45 44  1  0
 47 48  1  0
 48 51  1  0
 48 50  1  0
 49 47  2  0
 52 53  1  0
 52 27  1  0
 54 52  1  0
 55  5  1  0
 56 55  1  0
 57 68  2  0
 58 56  1  0
 58 63  1  0
 59 67  1  0
 59 69  1  0
 60 66  1  0
 60 62  1  0
 61 67  1  0
 62 61  1  0
 63 62  2  0
 64 65  1  0
 64 58  2  0
 65 60  2  0
 66 59  1  0
 67 57  1  0
 69 71  2  0
 70 69  1  0
 72 70  1  0
 73 82  2  0
 73 78  1  0
 74 70  1  0
 74 78  1  0
 75 74  1  0
 76 77  1  0
 76 75  1  0
 77 73  1  0
 78 79  2  0
 79 80  1  0
 81 80  2  0
 82 81  1  0
 83 57  1  0
 83 88  1  0
 83 84  1  0
 84 87  1  1
 84 85  1  0
 86 84  1  0
 88 91  1  0
 89 93  1  0
 89 88  1  0
 90 89  2  0
 93 92  1  0
 95 93  1  0
 95 96  1  0
 95 94  1  0
 99100  1  0
100 98  1  0
100 97  1  0
M  ISO  4  13 100  26 100  55 101  56 101
M  END
>  <TORSDO>  (55) 
F 19

>  <SCORE>  (55) 
-13.903

>  <name>  (55) 
54

>  <ligand_id>  (55) 
54

>  <original_smiles>  (55) 
[H]c1c(C([H])([H])Oc2c([H])c([H])c3c(c2[H])C([H])([H])N(C(=O)C([H])(N([H])C(=O)C([H])(N([H])C([H])([H])[H])C([H])([H])[H])C(C([H])([H])[H])(C([H])([H])[H])C([H])([H])[H])C([H])(C(=O)N([H])C2([H])c4c([H])c([H])c([H])c([H])c4C([H])([H])C([H])([H])C2([H])[H])C3([H])[H])nc2c(c1[H])C(C([H])([H])[H])(C([H])([H])[H])[N+]([H])(C1([H])C([H])([H])C([H])([H])N(C(=O)N3C([H])([H])C([H])([H])C([H])([H])C([H])(n4nc(-c5c([H])c([H])c(Oc6c([H])c([H])c(F)c([H])c6F)c([H])c5[H])c(C(=O)N([H])[H])c4N([H])[H])C3([H])[H])C([H])([H])C1([H])[H])C2([H])C([H])([H])N(C([H])([H])[H])C([H])([H])[H]

>  <smiles>  (55) 
[H]c1c(C([H])([H])Oc2c([H])c([H])c3c(c2[H])C([H])([H])N(C(=O)C([H])(N([H])C(=O)C([H])(N([H])C([H])([H])[H])C([H])([H])[H])C(C([H])([H])[H])(C([H])([H])[H])C([H])([H])[H])C([H])(C(=O)N([H])C2([H])c4c([H])c([H])c([H])c([H])c4C([H])([H])C([H])([H])C2([H])[H])C3([H])[H])nc2c(c1[H])C(C([H])([H])[H])(C([H])([H])[H])[N+]([H])(C1([H])C([H])([H])C([H])([H])N(C(=O)N3C([H])([H])C([H])([H])C([H])([H])C([H])(n4nc(-c5c([H])c([H])c(Oc6c([H])c([H])c(F)c([H])c6F)c([H])c5[H])c(C(=O)N([H])[H])c4N([H])[H])C3([H])[H])C([H])([H])C1([H])[H])C2([H])C([H])([H])N(C([H])([H])[H])C([H])([H])[H]

$$$$
55:0:0
     RDKit          3D

 87 96  0  0  1  0  0  0  0  0999 V2000
  -30.5080  -15.2380   20.3510 C   0  0  0  0  0  0  0  0  0  0  0  0
  -30.4160  -12.7960   19.5330 C   0  0  0  0  0  2  0  0  0  0  0  0
  -29.5360  -12.5560   18.2860 C   0  0  0  0  0  2  0  0  0  0  0  0
  -28.0790  -12.3040   18.7020 C   0  0  0  0  0  2  0  0  0  0  0  0
  -27.5980  -13.3070   19.7830 C   0  0  0  0  0  3  0  0  0  0  0  0
  -28.6170  -13.5160   20.9230 C   0  0  0  0  0  2  0  0  0  0  0  0
  -29.8590  -13.9790   20.2880 N   0  0  0  0  0  0  0  0  0  0  0  0
  -31.7360  -15.1360   20.2230 O   0  0  0  0  0  0  0  0  0  0  0  0
  -30.6760  -17.9600   20.4410 C   0  0  0  0  0  2  0  0  0  0  0  0
  -28.6730  -17.4520   20.1540 C   0  0  0  0  0  2  0  0  0  0  0  0
  -29.0260  -20.2090   21.2000 C   0  0  0  0  0  2  0  0  0  0  0  0
  -29.3180  -20.2090   19.2280 C   0  0  0  0  0  2  0  0  0  0  0  0
  -29.3940  -18.9290   20.2510 C   0  0  1  0  0  0  0  0  0  0  0  0
  -29.9430  -16.6110   20.3990 N   0  0  0  0  0  0  0  0  0  0  0  0
  -28.6080  -21.2420   20.1290 N   0  0  2  0  0  4  0  0  0  0  0  0
  -27.6130  -21.1450   19.9920 H   0  0  0  0  0  0  0  0  0  0  0  0
  -25.2150  -13.8710   20.4810 C   0  0  0  0  0  0  0  0  0  0  0  0
  -24.1460  -13.0960   20.8340 C   0  0  0  0  0  0  0  0  0  0  0  0
  -24.6160  -11.7470   20.8370 C   0  0  0  0  0  0  0  0  0  0  0  0
  -26.2630  -12.9950   20.2740 N   0  0  0  0  0  0  0  0  0  0  0  0
  -25.9150  -11.7120   20.5580 N   0  0  0  0  0  0  0  0  0  0  0  0
  -23.8880  -10.4860   21.0270 C   0  0  0  0  0  0  0  0  0  0  0  0
  -24.3090   -9.5220   21.9690 C   0  0  0  0  0  3  0  0  0  0  0  0
  -23.5790   -8.3270   22.1470 C   0  0  0  0  0  3  0  0  0  0  0  0
  -22.4110   -8.0870   21.3840 C   0  0  0  0  0  0  0  0  0  0  0  0
  -22.0090   -9.0400   20.4310 C   0  0  0  0  0  3  0  0  0  0  0  0
  -22.7400  -10.2250   20.2500 C   0  0  0  0  0  3  0  0  0  0  0  0
  -21.6520   -6.9470   21.4740 O   0  0  0  0  0  0  0  0  0  0  0  0
  -21.6040   -6.2010   22.6250 C   0  0  0  0  0  0  0  0  0  0  0  0
  -21.2050   -6.7610   23.8580 C   0  0  0  0  0  3  0  0  0  0  0  0
  -21.1020   -5.9430   25.0010 C   0  0  0  0  0  3  0  0  0  0  0  0
  -21.3900   -4.5670   24.9120 C   0  0  0  0  0  0  0  0  0  0  0  0
  -21.7810   -4.0080   23.6830 C   0  0  0  0  0  3  0  0  0  0  0  0
  -21.8860   -4.8230   22.5430 C   0  0  0  0  0  0  0  0  0  0  0  0
  -22.2420   -4.2750   21.3560 F   0  0  0  0  0  0  0  0  0  0  0  0
  -21.2840   -3.7800   26.0080 F   0  0  0  0  0  0  0  0  0  0  0  0
  -22.7410  -13.5740   21.0560 C   0  0  0  0  0  0  0  0  0  0  0  0
  -21.9920  -12.8970   21.9190 N   0  0  0  0  0  0  0  0  0  0  0  0
  -22.3170  -14.5850   20.5000 O   0  0  0  0  0  0  0  0  0  0  0  0
  -22.3480  -12.0800   22.3930 H   0  0  0  0  0  0  0  0  0  0  0  0
  -21.0480  -13.2000   22.1100 H   0  0  0  0  0  0  0  0  0  0  0  0
  -25.3800  -15.2390   20.2870 N   0  0  0  0  0  0  0  0  0  0  0  0
  -24.6120  -15.8950   20.3750 H   0  0  0  0  0  0  0  0  0  0  0  0
  -26.2400  -15.6700   19.9740 H   0  0  0  0  0  0  0  0  0  0  0  0
  -28.9620  -22.8650   20.2130 C   0  0  0  0  0  3  0  0  0  0  0  0
  -27.9490  -24.3030   19.9310 C   0  0  0  0  0  3  0  0  0  0  0  0
  -28.2040  -25.9150   20.0870 O   0  0  0  0  0  0  0  0  0  0  0  0
  -24.6720  -31.8230   23.1080 C   0  0  0  0  0  0  0  0  0  0  0  0
  -27.1880  -26.9940   20.0340 C   0  0  0  0  0  0  0  0  0  0  0  0
  -23.4590  -30.4390   21.4730 C   0  0  0  0  0  3  0  0  0  0  0  0
  -24.8880  -28.8520   20.0230 C   0  0  0  0  0  0  0  0  0  0  0  0
  -26.0200  -30.6620   21.2960 C   0  0  0  0  0  2  0  0  0  0  0  0
  -26.0810  -29.2590   20.6320 C   0  0  0  0  0  0  0  0  0  0  0  0
  -27.2280  -28.3510   20.6150 C   0  0  0  0  0  3  0  0  0  0  0  0
  -25.9660  -26.7280   19.3790 C   0  0  0  0  0  3  0  0  0  0  0  0
  -24.8520  -27.6060   19.3760 C   0  0  0  0  0  3  0  0  0  0  0  0
  -23.6690  -29.7690   20.0880 C   0  0  0  0  0  2  0  0  0  0  0  0
  -24.7380  -31.0020   22.0120 N   0  0  0  0  0  0  0  0  0  0  0  0
  -23.5890  -32.1080   23.6450 O   0  0  0  0  0  0  0  0  0  0  0  0
  -22.7790  -29.4340   22.4390 C   0  0  0  0  0  0  0  0  0  0  0  0
  -21.4450  -29.2820   22.3400 N   0  0  0  0  0  0  0  0  0  0  0  0
  -23.4560  -28.7940   23.2470 O   0  0  0  0  0  0  0  0  0  0  0  0
  -20.9510  -29.8490   21.6650 H   0  0  0  0  0  0  0  0  0  0  0  0
  -18.0630  -28.0980   22.9000 C   0  0  0  0  0  0  0  0  0  0  0  0
  -20.6300  -28.3420   23.1170 C   0  0  0  0  0  3  0  0  0  0  0  0
  -20.7090  -26.9160   22.5230 C   0  0  0  0  0  2  0  0  0  0  0  0
  -19.5830  -26.6140   21.5280 C   0  0  0  0  0  2  0  0  0  0  0  0
  -18.2170  -26.7580   22.2000 C   0  0  0  0  0  2  0  0  0  0  0  0
  -19.1950  -28.8490   23.3150 C   0  0  0  0  0  0  0  0  0  0  0  0
  -18.9940  -30.1030   23.9330 C   0  0  0  0  0  3  0  0  0  0  0  0
  -17.6940  -30.6050   24.1370 C   0  0  0  0  0  3  0  0  0  0  0  0
  -16.5780  -29.8520   23.7350 C   0  0  0  0  0  3  0  0  0  0  0  0
  -16.7620  -28.6000   23.1230 C   0  0  0  0  0  3  0  0  0  0  0  0
  -25.9510  -32.4600   23.7300 C   0  0  0  0  0  3  0  0  0  0  0  0
  -25.6280  -33.8460   24.1110 N   0  0  0  0  0  0  0  0  0  0  0  0
  -25.9270  -34.9310   23.3850 C   0  0  0  0  0  0  0  0  0  0  0  0
  -26.5690  -34.8700   22.3330 O   0  0  0  0  0  0  0  0  0  0  0  0
  -25.0530  -33.9640   24.9320 H   0  0  0  0  0  0  0  0  0  0  0  0
  -24.1640  -36.7150   23.1580 C   0  0  0  0  0  1  0  0  0  0  0  0
  -25.4410  -36.3000   23.9050 C   0  0  0  0  0  3  0  0  0  0  0  0
  -27.5970  -37.1900   24.6760 C   0  0  0  0  0  1  0  0  0  0  0  0
  -26.4550  -37.3710   23.7840 N   0  0  0  0  0  0  0  0  0  0  0  0
  -26.0420  -38.2800   23.9750 H   0  0  0  0  0  0  0  0  0  0  0  0
  -26.4920  -31.6650   24.9850 C   0  0  1  0  0  0  0  0  0  0  0  0
  -25.4160  -31.4030   26.0660 C   0  0  0  0  0  1  0  0  0  0  0  0
  -27.0750  -30.2970   24.5620 C   0  0  0  0  0  1  0  0  0  0  0  0
  -27.6480  -32.4510   25.6440 C   0  0  0  0  0  1  0  0  0  0  0  0
  1 14  1  0
  2  7  1  0
  3  4  1  0
  3  2  1  0
  5  4  1  0
  5 20  1  0
  5  6  1  0
  7  1  1  0
  7  6  1  0
  8  1  2  0
 13 10  1  6
 10 14  1  0
 12 15  1  0
 13 12  1  0
 13  9  1  0
 13 11  1  0
 14  9  1  0
 15 45  1  0
 15 11  1  0
 15 16  1  6
 17 18  2  0
 18 19  1  0
 18 37  1  0
 19 22  1  0
 20 17  1  0
 20 21  1  0
 21 19  2  0
 22 23  1  0
 23 24  2  0
 25 28  1  0
 25 24  1  0
 26 25  2  0
 27 26  1  0
 27 22  2  0
 28 29  1  0
 29 30  1  0
 30 31  2  0
 32 31  1  0
 32 36  1  0
 33 32  2  0
 34 29  2  0
 34 33  1  0
 35 34  1  0
 37 38  1  0
 38 41  1  0
 38 40  1  0
 39 37  2  0
 42 43  1  0
 42 17  1  0
 44 42  1  0
 46 47  1  0
 46 45  2  0
 48 59  2  0
 49 47  1  0
 49 54  1  0
 50 58  1  0
 50 60  1  0
 51 57  1  0
 51 53  1  0
 52 58  1  0
 53 52  1  0
 54 53  2  0
 55 49  2  0
 56 55  1  0
 56 51  2  0
 57 50  1  0
 58 48  1  0
 60 62  2  0
 61 60  1  0
 63 61  1  0
 64 73  2  0
 64 69  1  0
 65 61  1  0
 65 69  1  0
 66 65  1  0
 67 68  1  0
 67 66  1  0
 68 64  1  0
 69 70  2  0
 70 71  1  0
 72 71  2  0
 73 72  1  0
 74 48  1  0
 74 75  1  0
 74 84  1  0
 75 78  1  0
 76 80  1  0
 76 75  1  0
 77 76  2  0
 80 79  1  0
 82 80  1  0
 82 83  1  0
 82 81  1  0
 84 87  1  1
 84 85  1  0
 86 84  1  0
M  ISO  4   1 100  14 100  46 101  47 101
M  END
>  <TORSDO>  (56) 
F 17

>  <SCORE>  (56) 
-15.536

>  <name>  (56) 
55

>  <ligand_id>  (56) 
55

>  <original_smiles>  (56) 
[H]c1c([H])c([H])c2c(c1[H])C([H])([H])C([H])([H])C([H])([H])C2([H])N([H])C(=O)C1([H])N(C(=O)C([H])(N([H])C(=O)C([H])(N([H])C([H])([H])[H])C([H])([H])[H])C(C([H])([H])[H])(C([H])([H])[H])C([H])([H])[H])C([H])([H])c2c([H])c(OC([H])([H])C([H])([H])[N+]3([H])C([H])([H])C4(C([H])([H])N(C(=O)N5C([H])([H])C([H])([H])C([H])([H])C([H])(n6nc(-c7c([H])c([H])c(Oc8c([H])c([H])c(F)c([H])c8F)c([H])c7[H])c(C(=O)N([H])[H])c6N([H])[H])C5([H])[H])C4([H])[H])C3([H])[H])c([H])c([H])c2C1([H])[H]

>  <smiles>  (56) 
[H]c1c([H])c([H])c2c(c1[H])C([H])([H])C([H])([H])C([H])([H])C2([H])N([H])C(=O)C1([H])N(C(=O)C([H])(N([H])C(=O)C([H])(N([H])C([H])([H])[H])C([H])([H])[H])C(C([H])([H])[H])(C([H])([H])[H])C([H])([H])[H])C([H])([H])c2c([H])c(OC([H])([H])C([H])([H])[N+]3([H])C([H])([H])C4(C([H])([H])N(C(=O)N5C([H])([H])C([H])([H])C([H])([H])C([H])(n6nc(-c7c([H])c([H])c(Oc8c([H])c([H])c(F)c([H])c8F)c([H])c7[H])c(C(=O)N([H])[H])c6N([H])[H])C5([H])[H])C4([H])[H])C3([H])[H])c([H])c([H])c2C1([H])[H]

$$$$
56:0:0
     RDKit          3D

 91100  0  0  1  0  0  0  0  0999 V2000
  -27.8470  -24.4560   18.3210 C   0  0  0  0  0  3  0  0  0  0  0  0
  -28.9020  -22.1420   19.5850 C   0  0  0  0  0  0  0  0  0  0  0  0
  -28.3320  -22.1510   18.2730 C   0  0  0  0  0  0  0  0  0  0  0  0
  -28.2840  -24.6250   19.6510 C   0  0  0  0  0  0  0  0  0  0  0  0
  -28.2220  -20.9280   17.3780 C   0  0  0  0  0  1  0  0  0  0  0  0
  -27.8440  -23.2680   17.6710 N   0  0  0  0  0  0  0  0  0  0  0  0
  -28.8530  -23.4370   20.2450 N   0  0  0  0  0  0  0  0  0  0  0  0
  -29.5970  -20.7610   20.1910 C   0  0  0  0  0  0  0  0  0  0  0  0
  -30.2660  -20.8950   21.2220 O   0  0  0  0  0  0  0  0  0  0  0  0
  -29.5330  -19.1590   19.6370 C   0  0  0  0  0  2  0  0  0  0  0  0
  -30.7930  -15.0140   19.9300 C   0  0  0  0  0  0  0  0  0  0  0  0
  -30.6240  -12.6480   18.9720 C   0  0  0  0  0  2  0  0  0  0  0  0
  -29.6310  -12.5620   17.7890 C   0  0  0  0  0  2  0  0  0  0  0  0
  -28.1910  -12.3470   18.2910 C   0  0  0  0  0  2  0  0  0  0  0  0
  -27.8400  -13.2810   19.4780 C   0  0  0  0  0  3  0  0  0  0  0  0
  -28.9470  -13.2890   20.5470 C   0  0  0  0  0  2  0  0  0  0  0  0
  -30.1750  -13.7520   19.8790 N   0  0  0  0  0  0  0  0  0  0  0  0
  -31.9680  -15.0460   19.5430 O   0  0  0  0  0  0  0  0  0  0  0  0
  -30.3960  -17.6070   21.7230 C   0  0  0  0  0  2  0  0  0  0  0  0
  -29.4180  -16.4610   21.4680 C   0  0  0  0  0  2  0  0  0  0  0  0
  -30.4430  -17.8250   20.2210 C   0  0  0  0  0  3  0  0  0  0  0  0
  -30.0710  -16.2520   20.1660 N   0  0  0  0  0  0  0  0  0  0  0  0
  -25.5150  -13.8800   20.3590 C   0  0  0  0  0  0  0  0  0  0  0  0
  -24.4600  -13.1140   20.7690 C   0  0  0  0  0  0  0  0  0  0  0  0
  -24.8990  -11.7560   20.6890 C   0  0  0  0  0  0  0  0  0  0  0  0
  -26.5280  -12.9900   20.0440 N   0  0  0  0  0  0  0  0  0  0  0  0
  -26.1710  -11.7060   20.3080 N   0  0  0  0  0  0  0  0  0  0  0  0
  -24.1630  -10.5020   20.8930 C   0  0  0  0  0  0  0  0  0  0  0  0
  -24.5890   -9.5390   21.8330 C   0  0  0  0  0  3  0  0  0  0  0  0
  -23.8510   -8.3500   22.0250 C   0  0  0  0  0  3  0  0  0  0  0  0
  -22.6730   -8.1180   21.2760 C   0  0  0  0  0  0  0  0  0  0  0  0
  -22.2660   -9.0700   20.3250 C   0  0  0  0  0  3  0  0  0  0  0  0
  -23.0040  -10.2490   20.1320 C   0  0  0  0  0  3  0  0  0  0  0  0
  -21.9060   -6.9820   21.3770 O   0  0  0  0  0  0  0  0  0  0  0  0
  -21.8030   -6.2860   22.5550 C   0  0  0  0  0  0  0  0  0  0  0  0
  -21.3310   -6.8930   23.7390 C   0  0  0  0  0  3  0  0  0  0  0  0
  -21.1740   -6.1240   24.9110 C   0  0  0  0  0  3  0  0  0  0  0  0
  -21.4780   -4.7500   24.8960 C   0  0  0  0  0  0  0  0  0  0  0  0
  -21.9410   -4.1430   23.7160 C   0  0  0  0  0  3  0  0  0  0  0  0
  -22.1000   -4.9090   22.5480 C   0  0  0  0  0  0  0  0  0  0  0  0
  -22.5270   -4.3140   21.4080 F   0  0  0  0  0  0  0  0  0  0  0  0
  -21.3190   -4.0090   26.0180 F   0  0  0  0  0  0  0  0  0  0  0  0
  -23.0870  -13.6080   21.1220 C   0  0  0  0  0  0  0  0  0  0  0  0
  -22.3960  -12.9140   22.0190 N   0  0  0  0  0  0  0  0  0  0  0  0
  -22.6370  -14.6450   20.6350 O   0  0  0  0  0  0  0  0  0  0  0  0
  -22.7740  -12.0740   22.4330 H   0  0  0  0  0  0  0  0  0  0  0  0
  -21.4780  -13.2270   22.2970 H   0  0  0  0  0  0  0  0  0  0  0  0
  -25.6950  -15.2510   20.2020 N   0  0  0  0  0  0  0  0  0  0  0  0
  -24.9520  -15.9190   20.3720 H   0  0  0  0  0  0  0  0  0  0  0  0
  -26.5400  -15.6790   19.8420 H   0  0  0  0  0  0  0  0  0  0  0  0
  -28.2710  -25.9940   20.2350 O   0  0  0  0  0  0  0  0  0  0  0  0
  -24.5950  -31.7220   23.2010 C   0  0  0  0  0  0  0  0  0  0  0  0
  -27.2220  -27.0090   20.1360 C   0  0  0  0  0  0  0  0  0  0  0  0
  -23.4230  -30.3460   21.5300 C   0  0  0  0  0  3  0  0  0  0  0  0
  -24.8940  -28.7900   20.1030 C   0  0  0  0  0  0  0  0  0  0  0  0
  -25.9840  -30.6040   21.4070 C   0  0  0  0  0  2  0  0  0  0  0  0
  -26.0690  -29.2180   20.7330 C   0  0  0  0  0  0  0  0  0  0  0  0
  -27.2300  -28.3450   20.7290 C   0  0  0  0  0  3  0  0  0  0  0  0
  -26.0010  -26.6900   19.4960 C   0  0  0  0  0  3  0  0  0  0  0  0
  -24.8750  -27.5410   19.4710 C   0  0  0  0  0  3  0  0  0  0  0  0
  -23.6660  -29.6900   20.1450 C   0  0  0  0  0  2  0  0  0  0  0  0
  -24.6880  -30.9120   22.1010 N   0  0  0  0  0  0  0  0  0  0  0  0
  -23.5000  -32.0000   23.7140 O   0  0  0  0  0  0  0  0  0  0  0  0
  -22.7290  -29.3260   22.4690 C   0  0  0  0  0  0  0  0  0  0  0  0
  -21.4030  -29.1560   22.3220 N   0  0  0  0  0  0  0  0  0  0  0  0
  -23.3890  -28.6910   23.2960 O   0  0  0  0  0  0  0  0  0  0  0  0
  -20.9260  -29.7200   21.6310 H   0  0  0  0  0  0  0  0  0  0  0  0
  -18.0180  -27.9320   22.7530 C   0  0  0  0  0  0  0  0  0  0  0  0
  -20.5710  -28.2090   23.0710 C   0  0  0  0  0  3  0  0  0  0  0  0
  -20.6920  -26.7820   22.4890 C   0  0  0  0  0  2  0  0  0  0  0  0
  -19.6110  -26.4590   21.4510 C   0  0  0  0  0  2  0  0  0  0  0  0
  -18.2160  -26.5900   22.0700 C   0  0  0  0  0  2  0  0  0  0  0  0
  -19.1240  -28.7000   23.2100 C   0  0  0  0  0  0  0  0  0  0  0  0
  -18.8830  -29.9540   23.8090 C   0  0  0  0  0  3  0  0  0  0  0  0
  -17.5720  -30.4430   23.9590 C   0  0  0  0  0  3  0  0  0  0  0  0
  -16.4810  -29.6730   23.5180 C   0  0  0  0  0  3  0  0  0  0  0  0
  -16.7060  -28.4200   22.9220 C   0  0  0  0  0  3  0  0  0  0  0  0
  -25.8600  -32.3550   23.8550 C   0  0  0  0  0  3  0  0  0  0  0  0
  -25.5470  -33.7590   24.1720 N   0  0  0  0  0  0  0  0  0  0  0  0
  -25.8930  -34.8100   23.4170 C   0  0  0  0  0  0  0  0  0  0  0  0
  -26.5750  -34.7000   22.3940 O   0  0  0  0  0  0  0  0  0  0  0  0
  -24.9420  -33.9180   24.9650 H   0  0  0  0  0  0  0  0  0  0  0  0
  -24.1720  -36.6100   23.0480 C   0  0  0  0  0  1  0  0  0  0  0  0
  -25.4090  -36.2040   23.8660 C   0  0  0  0  0  3  0  0  0  0  0  0
  -27.5420  -37.0900   24.7000 C   0  0  0  0  0  1  0  0  0  0  0  0
  -26.4440  -37.2530   23.7500 N   0  0  0  0  0  0  0  0  0  0  0  0
  -26.0400  -38.1750   23.8890 H   0  0  0  0  0  0  0  0  0  0  0  0
  -26.3320  -31.5930   25.1550 C   0  0  1  0  0  0  0  0  0  0  0  0
  -25.2080  -31.3800   26.1950 C   0  0  0  0  0  1  0  0  0  0  0  0
  -26.9110  -30.2050   24.7990 C   0  0  0  0  0  1  0  0  0  0  0  0
  -27.4740  -32.3820   25.8390 C   0  0  0  0  0  1  0  0  0  0  0  0
  1  4  1  0
  2  8  1  0
  2  7  1  0
  3  2  2  0
  4 51  1  0
  4  7  2  0
  5  3  1  0
  6  3  1  0
  6  1  2  0
  8  9  2  0
 10  8  1  0
 11 22  1  0
 12 17  1  0
 13 14  1  0
 13 12  1  0
 15 14  1  0
 15 26  1  0
 15 16  1  0
 17 11  1  0
 17 16  1  0
 18 11  2  0
 20 19  1  0
 21 10  1  0
 21 19  1  0
 22 21  1  0
 22 20  1  0
 23 24  2  0
 24 43  1  0
 25 24  1  0
 25 28  1  0
 26 27  1  0
 26 23  1  0
 27 25  2  0
 28 29  1  0
 29 30  2  0
 31 34  1  0
 31 30  1  0
 32 31  2  0
 33 32  1  0
 33 28  2  0
 34 35  1  0
 35 36  1  0
 36 37  2  0
 38 37  1  0
 38 42  1  0
 39 38  2  0
 40 35  2  0
 40 39  1  0
 41 40  1  0
 43 44  1  0
 44 47  1  0
 44 46  1  0
 45 43  2  0
 48 23  1  0
 48 49  1  0
 50 48  1  0
 52 63  2  0
 53 51  1  0
 53 58  1  0
 54 62  1  0
 54 64  1  0
 55 61  1  0
 55 57  1  0
 56 62  1  0
 57 56  1  0
 58 57  2  0
 59 53  2  0
 60 59  1  0
 60 55  2  0
 61 54  1  0
 62 52  1  0
 64 66  2  0
 65 64  1  0
 67 65  1  0
 68 77  2  0
 68 73  1  0
 69 65  1  0
 69 73  1  0
 70 69  1  0
 71 72  1  0
 71 70  1  0
 72 68  1  0
 73 74  2  0
 74 75  1  0
 76 75  2  0
 77 76  1  0
 78 52  1  0
 78 79  1  0
 78 88  1  0
 79 82  1  0
 80 84  1  0
 80 79  1  0
 81 80  2  0
 84 83  1  0
 86 84  1  0
 86 87  1  0
 86 85  1  0
 88 91  1  1
 88 89  1  0
 90 88  1  0
M  ISO  4   4 101  11 100  22 100  51 101
M  END
>  <TORSDO>  (57) 
F 18

>  <SCORE>  (57) 
-15.335

>  <name>  (57) 
56

>  <ligand_id>  (57) 
56

>  <original_smiles>  (57) 
[H]c1nc(C([H])([H])[H])c(C(=O)C([H])([H])C2([H])N(C(=O)N3C([H])([H])C([H])([H])C([H])([H])C([H])(n4nc(-c5c([H])c([H])c(Oc6c([H])c([H])c(F)c([H])c6F)c([H])c5[H])c(C(=O)N([H])[H])c4N([H])[H])C3([H])[H])C([H])([H])C2([H])[H])nc1Oc1c([H])c([H])c2c(c1[H])C([H])([H])N(C(=O)C([H])(N([H])C(=O)C([H])(N([H])C([H])([H])[H])C([H])([H])[H])C(C([H])([H])[H])(C([H])([H])[H])C([H])([H])[H])C([H])(C(=O)N([H])C1([H])c3c([H])c([H])c([H])c([H])c3C([H])([H])C([H])([H])C1([H])[H])C2([H])[H]

>  <smiles>  (57) 
[H]c1nc(C([H])([H])[H])c(C(=O)C([H])([H])C2([H])N(C(=O)N3C([H])([H])C([H])([H])C([H])([H])C([H])(n4nc(-c5c([H])c([H])c(Oc6c([H])c([H])c(F)c([H])c6F)c([H])c5[H])c(C(=O)N([H])[H])c4N([H])[H])C3([H])[H])C([H])([H])C2([H])[H])nc1Oc1c([H])c([H])c2c(c1[H])C([H])([H])N(C(=O)C([H])(N([H])C(=O)C([H])(N([H])C([H])([H])[H])C([H])([H])[H])C(C([H])([H])[H])(C([H])([H])[H])C([H])([H])[H])C([H])(C(=O)N([H])C1([H])c3c([H])c([H])c([H])c([H])c3C([H])([H])C([H])([H])C1([H])[H])C2([H])[H]

$$$$
57:0:0
     RDKit          3D

 92101  0  0  1  0  0  0  0  0999 V2000
  -28.6240  -19.4220   19.7100 C   0  0  0  0  0  3  0  0  0  0  0  0
  -27.9520  -20.6390   19.5240 C   0  0  0  0  0  0  0  0  0  0  0  0
  -29.7900  -19.4350   20.4820 C   0  0  0  0  0  0  0  0  0  0  0  0
  -29.5520  -21.7540   20.7260 C   0  0  0  0  0  0  0  0  0  0  0  0
  -26.6560  -20.7010   18.7460 C   0  0  0  0  0  1  0  0  0  0  0  0
  -28.4250  -21.7980   20.0240 N   0  0  0  0  0  0  0  0  0  0  0  0
  -30.2310  -20.6170   21.0010 N   0  0  0  0  0  0  0  0  0  0  0  0
  -29.2280  -23.7750   22.4120 C   0  0  0  0  0  2  0  0  0  0  0  0
  -30.0410  -23.0650   21.3650 C   0  0  0  0  0  3  0  0  0  0  0  0
  -29.6330  -24.5590   21.1660 C   0  0  0  0  0  3  0  0  0  0  0  0
  -28.5340  -25.2300   20.3130 C   0  0  0  0  0  2  0  0  0  0  0  0
  -28.6470  -26.6910   20.3330 O   0  0  0  0  0  0  0  0  0  0  0  0
  -24.5920  -31.7520   23.3420 C   0  0  0  0  0  0  0  0  0  0  0  0
  -27.4830  -27.4490   20.2450 C   0  0  0  0  0  0  0  0  0  0  0  0
  -23.5020  -30.3860   21.5920 C   0  0  0  0  0  3  0  0  0  0  0  0
  -25.0630  -28.9460   20.1680 C   0  0  0  0  0  0  0  0  0  0  0  0
  -26.0290  -30.8080   21.5260 C   0  0  0  0  0  2  0  0  0  0  0  0
  -26.1810  -29.4640   20.8340 C   0  0  0  0  0  0  0  0  0  0  0  0
  -27.3940  -28.7280   20.8590 C   0  0  0  0  0  3  0  0  0  0  0  0
  -26.3470  -26.9670   19.5550 C   0  0  0  0  0  3  0  0  0  0  0  0
  -25.1460  -27.7040   19.5160 C   0  0  0  0  0  3  0  0  0  0  0  0
  -23.7960  -29.7760   20.1930 C   0  0  0  0  0  2  0  0  0  0  0  0
  -24.7220  -30.9980   22.2120 N   0  0  0  0  0  0  0  0  0  0  0  0
  -23.4780  -31.9700   23.8430 O   0  0  0  0  0  0  0  0  0  0  0  0
  -22.8400  -29.3080   22.4810 C   0  0  0  0  0  0  0  0  0  0  0  0
  -21.5300  -29.0850   22.2840 N   0  0  0  0  0  0  0  0  0  0  0  0
  -23.5060  -28.6780   23.3070 O   0  0  0  0  0  0  0  0  0  0  0  0
  -21.0530  -29.6490   21.5950 H   0  0  0  0  0  0  0  0  0  0  0  0
  -18.1760  -27.7750   22.6060 C   0  0  0  0  0  0  0  0  0  0  0  0
  -20.7140  -28.0920   22.9820 C   0  0  0  0  0  3  0  0  0  0  0  0
  -20.8780  -26.6900   22.3510 C   0  0  0  0  0  2  0  0  0  0  0  0
  -19.8240  -26.3790   21.2840 C   0  0  0  0  0  2  0  0  0  0  0  0
  -18.4150  -26.4620   21.8790 C   0  0  0  0  0  2  0  0  0  0  0  0
  -19.2560  -28.5450   23.1110 C   0  0  0  0  0  0  0  0  0  0  0  0
  -18.9810  -29.7730   23.7540 C   0  0  0  0  0  3  0  0  0  0  0  0
  -17.6580  -30.2310   23.8960 C   0  0  0  0  0  3  0  0  0  0  0  0
  -16.5910  -29.4570   23.4050 C   0  0  0  0  0  3  0  0  0  0  0  0
  -16.8500  -28.2310   22.7680 C   0  0  0  0  0  3  0  0  0  0  0  0
  -25.8280  -32.3970   24.0410 C   0  0  0  0  0  3  0  0  0  0  0  0
  -26.2350  -31.6680   25.3810 C   0  0  1  0  0  0  0  0  0  0  0  0
  -25.0560  -31.4660   26.3630 C   0  0  0  0  0  1  0  0  0  0  0  0
  -26.8450  -30.2770   25.0860 C   0  0  0  0  0  1  0  0  0  0  0  0
  -27.3300  -32.4830   26.1100 C   0  0  0  0  0  1  0  0  0  0  0  0
  -25.5070  -33.8090   24.2940 N   0  0  0  0  0  0  0  0  0  0  0  0
  -25.9050  -34.8290   23.5230 C   0  0  0  0  0  0  0  0  0  0  0  0
  -26.6470  -34.6800   22.5470 O   0  0  0  0  0  0  0  0  0  0  0  0
  -24.8580  -33.9960   25.0440 H   0  0  0  0  0  0  0  0  0  0  0  0
  -24.2340  -36.6230   22.9610 C   0  0  0  0  0  1  0  0  0  0  0  0
  -25.3980  -36.2370   23.8870 C   0  0  0  0  0  3  0  0  0  0  0  0
  -27.4510  -37.1500   24.8760 C   0  0  0  0  0  1  0  0  0  0  0  0
  -26.4480  -37.2760   23.8220 N   0  0  0  0  0  0  0  0  0  0  0  0
  -26.0410  -38.2050   23.8830 H   0  0  0  0  0  0  0  0  0  0  0  0
  -30.5950  -18.1210   20.6740 C   0  0  0  0  0  2  0  0  0  0  0  0
  -30.1350  -17.1200   21.7950 C   0  0  0  0  0  2  0  0  0  0  0  0
  -30.5540  -14.7220   20.9190 C   0  0  0  0  0  0  0  0  0  0  0  0
  -30.4110  -12.5350   19.7570 C   0  0  0  0  0  2  0  0  0  0  0  0
  -29.4980  -12.6400   18.5160 C   0  0  0  0  0  2  0  0  0  0  0  0
  -28.0150  -12.4440   18.8940 C   0  0  0  0  0  2  0  0  0  0  0  0
  -27.5940  -13.2850   20.1270 C   0  0  0  0  0  3  0  0  0  0  0  0
  -28.6140  -13.1450   21.2800 C   0  0  0  0  0  2  0  0  0  0  0  0
  -29.9360  -13.5150   20.7470 N   0  0  0  0  0  0  0  0  0  0  0  0
  -31.7120  -14.9300   20.5520 O   0  0  0  0  0  0  0  0  0  0  0  0
  -29.7730  -15.7250   21.3910 N   0  0  0  0  0  0  0  0  0  0  0  0
  -28.8210  -15.4550   21.5880 H   0  0  0  0  0  0  0  0  0  0  0  0
  -25.1600  -13.8050   20.7690 C   0  0  0  0  0  0  0  0  0  0  0  0
  -24.1030  -12.9960   21.0850 C   0  0  0  0  0  0  0  0  0  0  0  0
  -24.6040  -11.6610   21.0540 C   0  0  0  0  0  0  0  0  0  0  0  0
  -26.2370  -12.9590   20.5590 N   0  0  0  0  0  0  0  0  0  0  0  0
  -25.9070  -11.6640   20.7940 N   0  0  0  0  0  0  0  0  0  0  0  0
  -23.9090  -10.3740   21.1980 C   0  0  0  0  0  0  0  0  0  0  0  0
  -24.3140   -9.4220   22.1590 C   0  0  0  0  0  3  0  0  0  0  0  0
  -23.6200   -8.2020   22.2950 C   0  0  0  0  0  3  0  0  0  0  0  0
  -22.5070   -7.9220   21.4680 C   0  0  0  0  0  0  0  0  0  0  0  0
  -22.1170   -8.8640   20.4990 C   0  0  0  0  0  3  0  0  0  0  0  0
  -22.8130  -10.0770   20.3620 C   0  0  0  0  0  3  0  0  0  0  0  0
  -21.7870   -6.7520   21.5090 O   0  0  0  0  0  0  0  0  0  0  0  0
  -21.6810   -6.0130   22.6590 C   0  0  0  0  0  0  0  0  0  0  0  0
  -21.0780   -6.5330   23.8250 C   0  0  0  0  0  3  0  0  0  0  0  0
  -20.9270   -5.7160   24.9640 C   0  0  0  0  0  3  0  0  0  0  0  0
  -21.3720   -4.3810   24.9370 C   0  0  0  0  0  0  0  0  0  0  0  0
  -21.9700   -3.8600   23.7750 C   0  0  0  0  0  3  0  0  0  0  0  0
  -22.1230   -4.6750   22.6400 C   0  0  0  0  0  0  0  0  0  0  0  0
  -22.6790   -4.1630   21.5140 F   0  0  0  0  0  0  0  0  0  0  0  0
  -21.2210   -3.5910   26.0270 F   0  0  0  0  0  0  0  0  0  0  0  0
  -22.6820  -13.4250   21.3130 C   0  0  0  0  0  0  0  0  0  0  0  0
  -21.9480  -12.6970   22.1440 N   0  0  0  0  0  0  0  0  0  0  0  0
  -22.2320  -14.4470   20.7930 O   0  0  0  0  0  0  0  0  0  0  0  0
  -22.3280  -11.8730   22.5850 H   0  0  0  0  0  0  0  0  0  0  0  0
  -20.9950  -12.9660   22.3410 H   0  0  0  0  0  0  0  0  0  0  0  0
  -25.2970  -15.1830   20.6210 N   0  0  0  0  0  0  0  0  0  0  0  0
  -24.5230  -15.8240   20.7590 H   0  0  0  0  0  0  0  0  0  0  0  0
  -26.1570  -15.6420   20.3500 H   0  0  0  0  0  0  0  0  0  0  0  0
  1  3  1  0
  2  1  2  0
  2  6  1  0
  3 53  1  0
  3  7  2  0
  4  7  1  0
  5  2  1  0
  6  4  2  0
  9  4  1  0
  9  8  1  0
 10 11  1  0
 10  9  1  0
 10  8  1  0
 11 12  1  0
 13 24  2  0
 14 12  1  0
 14 19  1  0
 15 23  1  0
 15 25  1  0
 16 22  1  0
 16 18  1  0
 17 23  1  0
 18 19  2  0
 18 17  1  0
 20 14  2  0
 21 20  1  0
 21 16  2  0
 22 15  1  0
 23 13  1  0
 25 27  2  0
 26 25  1  0
 28 26  1  0
 29 38  2  0
 29 34  1  0
 30 26  1  0
 30 34  1  0
 31 30  1  0
 32 33  1  0
 32 31  1  0
 33 29  1  0
 34 35  2  0
 35 36  1  0
 37 36  2  0
 38 37  1  0
 39 13  1  0
 39 44  1  0
 39 40  1  0
 40 43  1  1
 40 41  1  0
 42 40  1  0
 44 47  1  0
 45 49  1  0
 45 44  1  0
 46 45  2  0
 49 48  1  0
 51 52  1  0
 51 49  1  0
 51 50  1  0
 53 54  1  0
 55 63  1  0
 56 61  1  0
 57 58  1  0
 57 56  1  0
 59 58  1  0
 59 68  1  0
 59 60  1  0
 61 55  1  0
 61 60  1  0
 62 55  2  0
 63 64  1  0
 63 54  1  0
 65 66  2  0
 66 85  1  0
 67 66  1  0
 67 70  1  0
 68 65  1  0
 68 69  1  0
 69 67  2  0
 70 71  1  0
 71 72  2  0
 73 76  1  0
 73 72  1  0
 74 73  2  0
 75 74  1  0
 75 70  2  0
 76 77  1  0
 77 78  1  0
 78 79  2  0
 80 79  1  0
 80 84  1  0
 81 80  2  0
 82 77  2  0
 82 81  1  0
 83 82  1  0
 85 86  1  0
 86 89  1  0
 86 88  1  0
 87 85  2  0
 90 91  1  0
 90 65  1  0
 92 90  1  0
M  ISO  4  11 101  12 101  55 100  63 100
M  END
>  <TORSDO>  (58) 
F 20

>  <SCORE>  (58) 
-13.648

>  <name>  (58) 
57

>  <ligand_id>  (58) 
57

>  <original_smiles>  (58) 
[H]c1c(C([H])([H])[H])nc(C2([H])C([H])([H])C2([H])C([H])([H])Oc2c([H])c([H])c3c(c2[H])C([H])([H])N(C(=O)C([H])(N([H])C(=O)C([H])(N([H])C([H])([H])[H])C([H])([H])[H])C(C([H])([H])[H])(C([H])([H])[H])C([H])([H])[H])C([H])(C(=O)N([H])C2([H])c4c([H])c([H])c([H])c([H])c4C([H])([H])C([H])([H])C2([H])[H])C3([H])[H])nc1C([H])([H])C([H])([H])N([H])C(=O)N1C([H])([H])C([H])([H])C([H])([H])C([H])(n2nc(-c3c([H])c([H])c(Oc4c([H])c([H])c(F)c([H])c4F)c([H])c3[H])c(C(=O)N([H])[H])c2N([H])[H])C1([H])[H]

>  <smiles>  (58) 
[H]c1c(C([H])([H])[H])nc(C2([H])C([H])([H])C2([H])C([H])([H])Oc2c([H])c([H])c3c(c2[H])C([H])([H])N(C(=O)C([H])(N([H])C(=O)C([H])(N([H])C([H])([H])[H])C([H])([H])[H])C(C([H])([H])[H])(C([H])([H])[H])C([H])([H])[H])C([H])(C(=O)N([H])C2([H])c4c([H])c([H])c([H])c([H])c4C([H])([H])C([H])([H])C2([H])[H])C3([H])[H])nc1C([H])([H])C([H])([H])N([H])C(=O)N1C([H])([H])C([H])([H])C([H])([H])C([H])(n2nc(-c3c([H])c([H])c(Oc4c([H])c([H])c(F)c([H])c4F)c([H])c3[H])c(C(=O)N([H])[H])c2N([H])[H])C1([H])[H]

$$$$
58:0:0
     RDKit          3D

 92102  0  0  1  0  0  0  0  0999 V2000
  -28.9120  -21.0770   20.7230 C   0  0  0  0  0  3  0  0  0  0  0  0
  -28.5140  -22.4710   20.5300 C   0  0  0  0  0  0  0  0  0  0  0  0
  -28.6140  -23.1650   19.2660 C   0  0  0  0  0  0  0  0  0  0  0  0
  -29.4300  -20.2320   19.6870 C   0  0  0  0  0  0  0  0  0  0  0  0
  -29.1710  -22.2540   18.2920 C   0  0  0  0  0  0  0  0  0  0  0  0
  -29.3290  -22.7230   16.8600 C   0  0  0  0  0  1  0  0  0  0  0  0
  -29.5530  -20.9160   18.4940 N   0  0  0  0  0  0  0  0  0  0  0  0
  -30.6880  -15.1570   20.1670 C   0  0  0  0  0  0  0  0  0  0  0  0
  -30.6000  -12.7150   19.4580 C   0  0  0  0  0  2  0  0  0  0  0  0
  -29.6700  -12.5240   18.2380 C   0  0  0  0  0  2  0  0  0  0  0  0
  -28.2100  -12.3350   18.6930 C   0  0  0  0  0  2  0  0  0  0  0  0
  -27.7880  -13.3670   19.7710 C   0  0  0  0  0  3  0  0  0  0  0  0
  -28.8420  -13.5170   20.8880 C   0  0  0  0  0  2  0  0  0  0  0  0
  -30.1020  -13.8900   20.2330 N   0  0  0  0  0  0  0  0  0  0  0  0
  -31.8920  -15.1940   19.8880 O   0  0  0  0  0  0  0  0  0  0  0  0
  -29.9590  -17.6050   21.0450 C   0  0  0  0  0  2  0  0  0  0  0  0
  -29.5830  -17.3190   19.0300 C   0  0  0  0  0  2  0  0  0  0  0  0
  -29.9450  -18.6370   19.8360 C   0  0  0  0  0  3  0  0  0  0  0  0
  -29.9000  -16.3570   20.1700 N   0  0  0  0  0  0  0  0  0  0  0  0
  -25.4510  -14.0010   20.5910 C   0  0  0  0  0  0  0  0  0  0  0  0
  -24.3710  -13.2510   20.9690 C   0  0  0  0  0  0  0  0  0  0  0  0
  -24.7900  -11.8870   20.8950 C   0  0  0  0  0  0  0  0  0  0  0  0
  -26.4570  -13.0950   20.3010 N   0  0  0  0  0  0  0  0  0  0  0  0
  -26.0700  -11.8170   20.5510 N   0  0  0  0  0  0  0  0  0  0  0  0
  -24.0260  -10.6450   21.0760 C   0  0  0  0  0  0  0  0  0  0  0  0
  -24.4580   -9.6330   21.9620 C   0  0  0  0  0  3  0  0  0  0  0  0
  -23.6940   -8.4570   22.1330 C   0  0  0  0  0  3  0  0  0  0  0  0
  -22.4850   -8.2860   21.4170 C   0  0  0  0  0  0  0  0  0  0  0  0
  -22.0730   -9.2860   20.5200 C   0  0  0  0  0  3  0  0  0  0  0  0
  -22.8350  -10.4530   20.3470 C   0  0  0  0  0  3  0  0  0  0  0  0
  -21.6930   -7.1670   21.5000 O   0  0  0  0  0  0  0  0  0  0  0  0
  -21.6810   -6.3730   22.6200 C   0  0  0  0  0  0  0  0  0  0  0  0
  -21.3180   -6.8790   23.8870 C   0  0  0  0  0  3  0  0  0  0  0  0
  -21.2510   -6.0140   24.9970 C   0  0  0  0  0  3  0  0  0  0  0  0
  -21.5380   -4.6440   24.8410 C   0  0  0  0  0  0  0  0  0  0  0  0
  -21.8960   -4.1380   23.5800 C   0  0  0  0  0  3  0  0  0  0  0  0
  -21.9630   -5.0010   22.4710 C   0  0  0  0  0  0  0  0  0  0  0  0
  -22.2870   -4.5040   21.2530 F   0  0  0  0  0  0  0  0  0  0  0  0
  -21.4680   -3.8120   25.9070 F   0  0  0  0  0  0  0  0  0  0  0  0
  -22.9970  -13.7680   21.2860 C   0  0  0  0  0  0  0  0  0  0  0  0
  -22.2730  -13.0840   22.1650 N   0  0  0  0  0  0  0  0  0  0  0  0
  -22.5780  -14.8120   20.7880 O   0  0  0  0  0  0  0  0  0  0  0  0
  -22.6270  -12.2390   22.5890 H   0  0  0  0  0  0  0  0  0  0  0  0
  -21.3520  -13.4130   22.4190 H   0  0  0  0  0  0  0  0  0  0  0  0
  -25.6560  -15.3680   20.4450 N   0  0  0  0  0  0  0  0  0  0  0  0
  -24.9210  -16.0490   20.6010 H   0  0  0  0  0  0  0  0  0  0  0  0
  -26.5270  -15.7870   20.1400 H   0  0  0  0  0  0  0  0  0  0  0  0
  -28.1160  -24.6680   21.9090 C   0  0  0  0  0  2  0  0  0  0  0  0
  -28.7680  -23.6770   22.8440 C   0  0  0  0  0  2  0  0  0  0  0  0
  -27.9100  -23.1840   21.7030 C   0  0  0  0  0  3  0  0  0  0  0  0
  -27.8160  -24.6020   18.9120 C   0  0  0  0  0  2  0  0  0  0  0  0
  -28.1850  -26.1220   19.0690 O   0  0  0  0  0  0  0  0  0  0  0  0
  -24.6160  -31.4840   22.7500 C   0  0  0  0  0  0  0  0  0  0  0  0
  -27.1280  -27.1230   19.1400 C   0  0  0  0  0  0  0  0  0  0  0  0
  -23.3520  -30.1790   21.0880 C   0  0  0  0  0  3  0  0  0  0  0  0
  -24.7490  -28.7990   19.4280 C   0  0  0  0  0  0  0  0  0  0  0  0
  -25.8810  -30.5560   20.7690 C   0  0  0  0  0  2  0  0  0  0  0  0
  -25.9570  -29.2260   19.9930 C   0  0  0  0  0  0  0  0  0  0  0  0
  -27.1440  -28.4050   19.8390 C   0  0  0  0  0  3  0  0  0  0  0  0
  -25.8870  -26.8280   18.5270 C   0  0  0  0  0  3  0  0  0  0  0  0
  -24.7280  -27.6160   18.6780 C   0  0  0  0  0  3  0  0  0  0  0  0
  -23.4970  -29.6350   19.6420 C   0  0  0  0  0  2  0  0  0  0  0  0
  -24.6400  -30.7590   21.5900 N   0  0  0  0  0  0  0  0  0  0  0  0
  -23.5620  -31.6760   23.3750 O   0  0  0  0  0  0  0  0  0  0  0  0
  -22.7850  -29.0650   22.0040 C   0  0  0  0  0  0  0  0  0  0  0  0
  -21.4560  -28.8590   21.9720 N   0  0  0  0  0  0  0  0  0  0  0  0
  -23.5410  -28.3910   22.7080 O   0  0  0  0  0  0  0  0  0  0  0  0
  -20.8980  -29.4590   21.3800 H   0  0  0  0  0  0  0  0  0  0  0  0
  -18.1640  -27.5010   22.6450 C   0  0  0  0  0  0  0  0  0  0  0  0
  -20.7280  -27.8290   22.7200 C   0  0  0  0  0  3  0  0  0  0  0  0
  -20.8190  -26.4580   22.0100 C   0  0  0  0  0  2  0  0  0  0  0  0
  -19.6430  -26.1880   21.0660 C   0  0  0  0  0  2  0  0  0  0  0  0
  -18.3190  -26.2260   21.8330 C   0  0  0  0  0  2  0  0  0  0  0  0
  -19.2940  -28.2620   23.0480 C   0  0  0  0  0  0  0  0  0  0  0  0
  -19.0910  -29.4550   23.7750 C   0  0  0  0  0  3  0  0  0  0  0  0
  -17.7930  -29.8900   24.0980 C   0  0  0  0  0  3  0  0  0  0  0  0
  -16.6790  -29.1260   23.7090 C   0  0  0  0  0  3  0  0  0  0  0  0
  -16.8650  -27.9330   22.9880 C   0  0  0  0  0  3  0  0  0  0  0  0
  -25.9110  -32.1230   23.3360 C   0  0  0  0  0  3  0  0  0  0  0  0
  -25.5630  -33.4620   23.8370 N   0  0  0  0  0  0  0  0  0  0  0  0
  -25.8240  -34.6110   23.1980 C   0  0  0  0  0  0  0  0  0  0  0  0
  -26.4490  -34.6550   22.1360 O   0  0  0  0  0  0  0  0  0  0  0  0
  -24.9990  -33.4980   24.6730 H   0  0  0  0  0  0  0  0  0  0  0  0
  -24.0150  -36.3610   23.1370 C   0  0  0  0  0  1  0  0  0  0  0  0
  -25.3100  -35.9170   23.8360 C   0  0  0  0  0  3  0  0  0  0  0  0
  -27.4450  -36.7970   24.6720 C   0  0  0  0  0  1  0  0  0  0  0  0
  -26.2960  -37.0200   23.7990 N   0  0  0  0  0  0  0  0  0  0  0  0
  -25.8620  -37.9000   24.0630 H   0  0  0  0  0  0  0  0  0  0  0  0
  -26.5610  -31.2590   24.4870 C   0  0  1  0  0  0  0  0  0  0  0  0
  -25.5700  -30.8710   25.6090 C   0  0  0  0  0  1  0  0  0  0  0  0
  -27.1640  -29.9520   23.9240 C   0  0  0  0  0  1  0  0  0  0  0  0
  -27.7300  -32.0410   25.1310 C   0  0  0  0  0  1  0  0  0  0  0  0
  2  1  1  0
  2 50  1  0
  3  2  2  0
  4  1  2  0
  5  7  2  0
  5  3  1  0
  6  5  1  0
  7  4  1  0
  8 19  1  0
  8 14  1  0
  9 14  1  0
 10 11  1  0
 10  9  1  0
 12 11  1  0
 12 23  1  0
 12 13  1  0
 14 13  1  0
 15  8  2  0
 17 18  1  0
 17 19  1  0
 18  4  1  0
 18 16  1  0
 19 16  1  0
 20 21  2  0
 21 40  1  0
 22 21  1  0
 22 25  1  0
 23 24  1  0
 23 20  1  0
 24 22  2  0
 25 26  1  0
 26 27  2  0
 28 31  1  0
 28 27  1  0
 29 28  2  0
 30 29  1  0
 30 25  2  0
 31 32  1  0
 32 33  1  0
 33 34  2  0
 35 34  1  0
 35 39  1  0
 36 35  2  0
 37 32  2  0
 37 36  1  0
 38 37  1  0
 40 41  1  0
 41 44  1  0
 41 43  1  0
 42 40  2  0
 45 20  1  0
 45 46  1  0
 47 45  1  0
 48 49  1  0
 50 48  1  0
 50 49  1  0
 51 52  1  0
 51  3  1  0
 52 54  1  0
 53 64  2  0
 54 59  1  0
 55 63  1  0
 55 65  1  0
 56 62  1  0
 56 58  1  0
 57 63  1  0
 58 57  1  0
 59 58  2  0
 60 61  1  0
 60 54  2  0
 61 56  2  0
 62 55  1  0
 63 53  1  0
 65 67  2  0
 66 65  1  0
 68 66  1  0
 69 78  2  0
 69 74  1  0
 70 66  1  0
 70 74  1  0
 71 70  1  0
 72 73  1  0
 72 71  1  0
 73 69  1  0
 74 75  2  0
 75 76  1  0
 77 76  2  0
 78 77  1  0
 79 53  1  0
 79 80  1  0
 79 89  1  0
 80 83  1  0
 81 85  1  0
 81 80  1  0
 82 81  2  0
 85 84  1  0
 87 85  1  0
 87 88  1  0
 87 86  1  0
 89 92  1  1
 89 90  1  0
 91 89  1  0
M  ISO  4   8 100  19 100  51 101  52 101
M  END
>  <TORSDO>  (59) 
F 18

>  <SCORE>  (59) 
-12.812

>  <name>  (59) 
58

>  <ligand_id>  (59) 
58

>  <original_smiles>  (59) 
[H]c1c([H])c([H])c2c(c1[H])C([H])([H])C([H])([H])C([H])([H])C2([H])N([H])C(=O)C1([H])N(C(=O)C([H])(N([H])C(=O)C([H])(N([H])C([H])([H])[H])C([H])([H])[H])C(C([H])([H])[H])(C([H])([H])[H])C([H])([H])[H])C([H])([H])c2c([H])c(OC([H])([H])c3c(C([H])([H])[H])nc(C4([H])C([H])([H])N(C(=O)N5C([H])([H])C([H])([H])C([H])([H])C([H])(n6nc(-c7c([H])c([H])c(Oc8c([H])c([H])c(F)c([H])c8F)c([H])c7[H])c(C(=O)N([H])[H])c6N([H])[H])C5([H])[H])C4([H])[H])c([H])c3C3([H])C([H])([H])C3([H])[H])c([H])c([H])c2C1([H])[H]

>  <smiles>  (59) 
[H]c1c([H])c([H])c2c(c1[H])C([H])([H])C([H])([H])C([H])([H])C2([H])N([H])C(=O)C1([H])N(C(=O)C([H])(N([H])C(=O)C([H])(N([H])C([H])([H])[H])C([H])([H])[H])C(C([H])([H])[H])(C([H])([H])[H])C([H])([H])[H])C([H])([H])c2c([H])c(OC([H])([H])c3c(C([H])([H])[H])nc(C4([H])C([H])([H])N(C(=O)N5C([H])([H])C([H])([H])C([H])([H])C([H])(n6nc(-c7c([H])c([H])c(Oc8c([H])c([H])c(F)c([H])c8F)c([H])c7[H])c(C(=O)N([H])[H])c6N([H])[H])C5([H])[H])C4([H])[H])c([H])c3C3([H])C([H])([H])C3([H])[H])c([H])c([H])c2C1([H])[H]

$$$$
59:0:0
     RDKit          3D

 89 98  0  0  1  0  0  0  0  0999 V2000
  -30.4040  -15.2870   20.3300 C   0  0  0  0  0  0  0  0  0  0  0  0
  -30.4370  -12.8070   19.5450 C   0  0  0  0  0  2  0  0  0  0  0  0
  -29.5530  -12.5630   18.2950 C   0  0  0  0  0  2  0  0  0  0  0  0
  -28.0900  -12.3050   18.6990 C   0  0  0  0  0  2  0  0  0  0  0  0
  -27.6050  -13.3000   19.7820 C   0  0  0  0  0  3  0  0  0  0  0  0
  -28.6200  -13.4750   20.9330 C   0  0  0  0  0  2  0  0  0  0  0  0
  -29.8690  -13.9660   20.3270 N   0  0  0  0  0  0  0  0  0  0  0  0
  -31.6280  -15.3020   20.1110 O   0  0  0  0  0  0  0  0  0  0  0  0
  -27.9880  -20.0600   20.6460 C   0  0  0  0  0  3  0  0  0  0  0  0
  -28.8890  -21.0910   20.2030 C   0  0  0  0  0  0  0  0  0  0  0  0
  -30.0700  -20.4080   19.8520 C   0  0  0  0  0  0  0  0  0  0  0  0
  -29.4540  -18.0650   20.3230 C   0  0  0  0  0  0  0  0  0  0  0  0
  -30.4090  -22.7010   19.4500 C   0  0  0  0  0  2  0  0  0  0  0  0
  -29.0470  -22.7850   20.2220 C   0  0  0  0  0  3  0  0  0  0  0  0
  -28.2670  -18.6660   20.6760 N   0  0  0  0  0  0  0  0  0  0  0  0
  -30.3730  -19.0110   19.8980 N   0  0  0  0  0  0  0  0  0  0  0  0
  -29.5640  -16.5060   20.4190 N   0  0  0  0  0  0  0  0  0  0  0  0
  -31.0110  -21.3520   19.5050 O   0  0  0  0  0  0  0  0  0  0  0  0
  -28.6420  -16.1650   20.6300 H   0  0  0  0  0  0  0  0  0  0  0  0
  -25.2160  -13.8810   20.4610 C   0  0  0  0  0  0  0  0  0  0  0  0
  -24.1420  -13.1130   20.8160 C   0  0  0  0  0  0  0  0  0  0  0  0
  -24.6060  -11.7620   20.8220 C   0  0  0  0  0  0  0  0  0  0  0  0
  -26.2620  -12.9980   20.2600 N   0  0  0  0  0  0  0  0  0  0  0  0
  -25.9060  -11.7190   20.5460 N   0  0  0  0  0  0  0  0  0  0  0  0
  -23.8690  -10.5050   21.0140 C   0  0  0  0  0  0  0  0  0  0  0  0
  -24.2800   -9.5430   21.9630 C   0  0  0  0  0  3  0  0  0  0  0  0
  -23.5410   -8.3540   22.1430 C   0  0  0  0  0  3  0  0  0  0  0  0
  -22.3770   -8.1180   21.3750 C   0  0  0  0  0  0  0  0  0  0  0  0
  -21.9860   -9.0680   20.4150 C   0  0  0  0  0  3  0  0  0  0  0  0
  -22.7240  -10.2480   20.2320 C   0  0  0  0  0  3  0  0  0  0  0  0
  -21.6120   -6.9800   21.4640 O   0  0  0  0  0  0  0  0  0  0  0  0
  -21.5480   -6.2450   22.6200 C   0  0  0  0  0  0  0  0  0  0  0  0
  -21.1380   -6.8150   23.8440 C   0  0  0  0  0  3  0  0  0  0  0  0
  -21.0190   -6.0070   24.9930 C   0  0  0  0  0  3  0  0  0  0  0  0
  -21.3000   -4.6310   24.9190 C   0  0  0  0  0  0  0  0  0  0  0  0
  -21.7040   -4.0590   23.6990 C   0  0  0  0  0  3  0  0  0  0  0  0
  -21.8240   -4.8640   22.5520 C   0  0  0  0  0  0  0  0  0  0  0  0
  -22.1930   -4.3040   21.3750 F   0  0  0  0  0  0  0  0  0  0  0  0
  -21.1790   -3.8520   26.0200 F   0  0  0  0  0  0  0  0  0  0  0  0
  -22.7400  -13.6000   21.0350 C   0  0  0  0  0  0  0  0  0  0  0  0
  -21.9870  -12.9290   21.9000 N   0  0  0  0  0  0  0  0  0  0  0  0
  -22.3210  -14.6120   20.4740 O   0  0  0  0  0  0  0  0  0  0  0  0
  -22.3400  -12.1120   22.3750 H   0  0  0  0  0  0  0  0  0  0  0  0
  -21.0450  -13.2380   22.0900 H   0  0  0  0  0  0  0  0  0  0  0  0
  -25.3830  -15.2470   20.2600 N   0  0  0  0  0  0  0  0  0  0  0  0
  -24.6050  -15.8950   20.3340 H   0  0  0  0  0  0  0  0  0  0  0  0
  -26.2190  -15.6810   19.8890 H   0  0  0  0  0  0  0  0  0  0  0  0
  -28.0610  -24.2400   19.8090 C   0  0  0  0  0  2  0  0  0  0  0  0
  -28.2690  -25.8690   19.9900 O   0  0  0  0  0  0  0  0  0  0  0  0
  -24.6980  -31.7730   23.0520 C   0  0  0  0  0  0  0  0  0  0  0  0
  -27.2450  -26.9520   19.9440 C   0  0  0  0  0  0  0  0  0  0  0  0
  -23.4920  -30.3920   21.4090 C   0  0  0  0  0  3  0  0  0  0  0  0
  -24.9310  -28.8140   19.9480 C   0  0  0  0  0  0  0  0  0  0  0  0
  -26.0540  -30.6210   21.2340 C   0  0  0  0  0  2  0  0  0  0  0  0
  -26.1240  -29.2210   20.5590 C   0  0  0  0  0  0  0  0  0  0  0  0
  -27.2740  -28.3120   20.5310 C   0  0  0  0  0  3  0  0  0  0  0  0
  -26.0200  -26.6950   19.2890 C   0  0  0  0  0  3  0  0  0  0  0  0
  -24.9040  -27.5710   19.2930 C   0  0  0  0  0  3  0  0  0  0  0  0
  -23.7080  -29.7260   20.0220 C   0  0  0  0  0  2  0  0  0  0  0  0
  -24.7700  -30.9550   21.9520 N   0  0  0  0  0  0  0  0  0  0  0  0
  -23.6140  -32.0500   23.5900 O   0  0  0  0  0  0  0  0  0  0  0  0
  -22.8140  -29.3810   22.3710 C   0  0  0  0  0  0  0  0  0  0  0  0
  -21.4790  -29.2310   22.2780 N   0  0  0  0  0  0  0  0  0  0  0  0
  -23.4950  -28.7320   23.1700 O   0  0  0  0  0  0  0  0  0  0  0  0
  -20.9830  -29.8040   21.6110 H   0  0  0  0  0  0  0  0  0  0  0  0
  -18.0980  -28.0540   22.8650 C   0  0  0  0  0  0  0  0  0  0  0  0
  -20.6690  -28.2830   23.0500 C   0  0  0  0  0  3  0  0  0  0  0  0
  -20.7330  -26.8650   22.4330 C   0  0  0  0  0  2  0  0  0  0  0  0
  -19.5940  -26.5850   21.4470 C   0  0  0  0  0  2  0  0  0  0  0  0
  -18.2360  -26.7240   22.1410 C   0  0  0  0  0  2  0  0  0  0  0  0
  -19.2390  -28.7930   23.2770 C   0  0  0  0  0  0  0  0  0  0  0  0
  -19.0530  -30.0360   23.9180 C   0  0  0  0  0  3  0  0  0  0  0  0
  -17.7600  -30.5420   24.1470 C   0  0  0  0  0  3  0  0  0  0  0  0
  -16.6340  -29.8000   23.7480 C   0  0  0  0  0  3  0  0  0  0  0  0
  -16.8040  -28.5570   23.1130 C   0  0  0  0  0  3  0  0  0  0  0  0
  -25.9740  -32.4150   23.6780 C   0  0  0  0  0  3  0  0  0  0  0  0
  -25.6430  -33.7970   24.0650 N   0  0  0  0  0  0  0  0  0  0  0  0
  -25.9430  -34.8890   23.3480 C   0  0  0  0  0  0  0  0  0  0  0  0
  -26.5880  -34.8380   22.2980 O   0  0  0  0  0  0  0  0  0  0  0  0
  -25.0640  -33.9090   24.8840 H   0  0  0  0  0  0  0  0  0  0  0  0
  -24.1770  -36.6710   23.1240 C   0  0  0  0  0  1  0  0  0  0  0  0
  -25.4500  -36.2530   23.8760 C   0  0  0  0  0  3  0  0  0  0  0  0
  -27.6000  -37.1420   24.6680 C   0  0  0  0  0  1  0  0  0  0  0  0
  -26.4630  -37.3260   23.7690 N   0  0  0  0  0  0  0  0  0  0  0  0
  -26.0480  -38.2330   23.9660 H   0  0  0  0  0  0  0  0  0  0  0  0
  -26.5170  -31.6170   24.9280 C   0  0  1  0  0  0  0  0  0  0  0  0
  -25.4450  -31.3440   26.0090 C   0  0  0  0  0  1  0  0  0  0  0  0
  -27.1060  -30.2530   24.5020 C   0  0  0  0  0  1  0  0  0  0  0  0
  -27.6720  -32.4060   25.5910 C   0  0  0  0  0  1  0  0  0  0  0  0
  1 17  1  0
  2  7  1  0
  3  4  1  0
  3  2  1  0
  5  4  1  0
  5 23  1  0
  5  6  1  0
  7  1  1  0
  7  6  1  0
  8  1  2  0
  9 15  1  0
 10 14  1  0
 10  9  2  0
 11 16  2  0
 11 10  1  0
 12 17  1  0
 12 15  2  0
 13 18  1  0
 13 14  1  0
 14 48  1  0
 16 12  1  0
 17 19  1  0
 18 11  1  0
 20 21  2  0
 21 22  1  0
 21 40  1  0
 22 25  1  0
 23 20  1  0
 23 24  1  0
 24 22  2  0
 25 26  1  0
 26 27  2  0
 28 31  1  0
 28 27  1  0
 29 28  2  0
 30 29  1  0
 30 25  2  0
 31 32  1  0
 32 33  1  0
 33 34  2  0
 35 34  1  0
 35 39  1  0
 36 35  2  0
 37 32  2  0
 37 36  1  0
 38 37  1  0
 40 41  1  0
 41 44  1  0
 41 43  1  0
 42 40  2  0
 45 46  1  0
 45 20  1  0
 47 45  1  0
 48 49  1  0
 50 61  2  0
 51 49  1  0
 51 56  1  0
 52 60  1  0
 52 62  1  0
 53 59  1  0
 53 55  1  0
 54 60  1  0
 55 54  1  0
 56 55  2  0
 57 58  1  0
 57 51  2  0
 58 53  2  0
 59 52  1  0
 60 50  1  0
 62 64  2  0
 63 62  1  0
 65 63  1  0
 66 75  2  0
 66 71  1  0
 67 63  1  0
 67 71  1  0
 68 67  1  0
 69 70  1  0
 69 68  1  0
 70 66  1  0
 71 72  2  0
 72 73  1  0
 74 73  2  0
 75 74  1  0
 76 50  1  0
 76 77  1  0
 76 86  1  0
 77 80  1  0
 78 82  1  0
 78 77  1  0
 79 78  2  0
 82 81  1  0
 84 82  1  0
 84 85  1  0
 84 83  1  0
 86 89  1  1
 86 87  1  0
 88 86  1  0
M  ISO  4   1 100  17 100  48 101  49 101
M  END
>  <TORSDO>  (60) 
F 16

>  <SCORE>  (60) 
-16.163

>  <name>  (60) 
59

>  <ligand_id>  (60) 
59

>  <original_smiles>  (60) 
[H]c1nc(N([H])C(=O)N2C([H])([H])C([H])([H])C([H])([H])C([H])(n3nc(-c4c([H])c([H])c(Oc5c([H])c([H])c(F)c([H])c5F)c([H])c4[H])c(C(=O)N([H])[H])c3N([H])[H])C2([H])[H])nc2c1C([H])(C([H])([H])Oc1c([H])c([H])c3c(c1[H])C([H])([H])N(C(=O)C([H])(N([H])C(=O)C([H])(N([H])C([H])([H])[H])C([H])([H])[H])C(C([H])([H])[H])(C([H])([H])[H])C([H])([H])[H])C([H])(C(=O)N([H])C1([H])c4c([H])c([H])c([H])c([H])c4C([H])([H])C([H])([H])C1([H])[H])C3([H])[H])C([H])([H])O2

>  <smiles>  (60) 
[H]c1nc(N([H])C(=O)N2C([H])([H])C([H])([H])C([H])([H])C([H])(n3nc(-c4c([H])c([H])c(Oc5c([H])c([H])c(F)c([H])c5F)c([H])c4[H])c(C(=O)N([H])[H])c3N([H])[H])C2([H])[H])nc2c1C([H])(C([H])([H])Oc1c([H])c([H])c3c(c1[H])C([H])([H])N(C(=O)C([H])(N([H])C(=O)C([H])(N([H])C([H])([H])[H])C([H])([H])[H])C(C([H])([H])[H])(C([H])([H])[H])C([H])([H])[H])C([H])(C(=O)N([H])C1([H])c4c([H])c([H])c([H])c([H])c4C([H])([H])C([H])([H])C1([H])[H])C3([H])[H])C([H])([H])O2

$$$$
60:0:0
     RDKit          3D

 91100  0  0  1  0  0  0  0  0999 V2000
  -27.7380  -21.4070   19.6110 C   0  0  0  0  0  3  0  0  0  0  0  0
  -29.6990  -20.6260   20.7040 C   0  0  0  0  0  3  0  0  0  0  0  0
  -28.8620  -21.8130   20.3620 C   0  0  0  0  0  0  0  0  0  0  0  0
  -27.5020  -20.0440   19.2790 C   0  0  0  0  0  0  0  0  0  0  0  0
  -29.4220  -19.2130   20.3320 C   0  0  0  0  0  0  0  0  0  0  0  0
  -26.2800  -19.6750   18.4620 C   0  0  0  0  0  1  0  0  0  0  0  0
  -28.2980  -18.9940   19.6180 N   0  0  0  0  0  0  0  0  0  0  0  0
  -30.5310  -23.8250   20.9910 C   0  0  0  0  0  2  0  0  0  0  0  0
  -29.6330  -23.6170   22.1700 C   0  0  0  0  0  2  0  0  0  0  0  0
  -29.0820  -23.4200   20.7690 C   0  0  2  0  0  0  0  0  0  0  0  0
  -28.1030  -24.6890   20.2650 C   0  0  0  0  0  2  0  0  0  0  0  0
  -28.3060  -26.2290   20.5440 O   0  0  0  0  0  0  0  0  0  0  0  0
  -24.6120  -32.0330   23.2600 C   0  0  0  0  0  0  0  0  0  0  0  0
  -27.2550  -27.2180   20.4220 C   0  0  0  0  0  0  0  0  0  0  0  0
  -23.4510  -30.5950   21.6300 C   0  0  0  0  0  3  0  0  0  0  0  0
  -24.9310  -28.9780   20.2850 C   0  0  0  0  0  0  0  0  0  0  0  0
  -26.0100  -30.8490   21.5220 C   0  0  0  0  0  2  0  0  0  0  0  0
  -26.0970  -29.4370   20.9080 C   0  0  0  0  0  0  0  0  0  0  0  0
  -27.2590  -28.5750   20.9560 C   0  0  0  0  0  3  0  0  0  0  0  0
  -26.0610  -26.8630   19.7570 C   0  0  0  0  0  3  0  0  0  0  0  0
  -24.9270  -27.7050   19.6930 C   0  0  0  0  0  3  0  0  0  0  0  0
  -23.7050  -29.8800   20.2770 C   0  0  0  0  0  2  0  0  0  0  0  0
  -24.7100  -31.1850   22.1910 N   0  0  0  0  0  0  0  0  0  0  0  0
  -23.5140  -32.3310   23.7550 O   0  0  0  0  0  0  0  0  0  0  0  0
  -22.7470  -29.6160   22.6030 C   0  0  0  0  0  0  0  0  0  0  0  0
  -21.4240  -29.4380   22.4450 N   0  0  0  0  0  0  0  0  0  0  0  0
  -23.3970  -29.0170   23.4640 O   0  0  0  0  0  0  0  0  0  0  0  0
  -20.9550  -29.9740   21.7290 H   0  0  0  0  0  0  0  0  0  0  0  0
  -18.0170  -28.3170   22.9620 C   0  0  0  0  0  0  0  0  0  0  0  0
  -20.5830  -28.5210   23.2200 C   0  0  0  0  0  3  0  0  0  0  0  0
  -20.6480  -27.0860   22.6480 C   0  0  0  0  0  2  0  0  0  0  0  0
  -19.5350  -26.7870   21.6370 C   0  0  0  0  0  2  0  0  0  0  0  0
  -18.1590  -26.9640   22.2850 C   0  0  0  0  0  2  0  0  0  0  0  0
  -19.1520  -29.0550   23.3860 C   0  0  0  0  0  0  0  0  0  0  0  0
  -18.9610  -30.3230   23.9800 C   0  0  0  0  0  3  0  0  0  0  0  0
  -17.6680  -30.8490   24.1530 C   0  0  0  0  0  3  0  0  0  0  0  0
  -16.5460  -30.1080   23.7410 C   0  0  0  0  0  3  0  0  0  0  0  0
  -16.7220  -28.8440   23.1530 C   0  0  0  0  0  3  0  0  0  0  0  0
  -25.8750  -32.6850   23.9040 C   0  0  0  0  0  3  0  0  0  0  0  0
  -26.3670  -31.9320   25.2020 C   0  0  1  0  0  0  0  0  0  0  0  0
  -25.2400  -31.6440   26.2210 C   0  0  0  0  0  1  0  0  0  0  0  0
  -27.0240  -30.5810   24.8360 C   0  0  0  0  0  1  0  0  0  0  0  0
  -27.4560  -32.7690   25.9140 C   0  0  0  0  0  1  0  0  0  0  0  0
  -25.5470  -34.0850   24.2190 N   0  0  0  0  0  0  0  0  0  0  0  0
  -25.8490  -35.1350   23.4450 C   0  0  0  0  0  0  0  0  0  0  0  0
  -26.4980  -35.0300   22.4010 O   0  0  0  0  0  0  0  0  0  0  0  0
  -24.9720  -34.2400   25.0350 H   0  0  0  0  0  0  0  0  0  0  0  0
  -24.0900  -36.9010   23.1030 C   0  0  0  0  0  1  0  0  0  0  0  0
  -25.3520  -36.5230   23.8960 C   0  0  0  0  0  3  0  0  0  0  0  0
  -27.4690  -37.4670   24.7040 C   0  0  0  0  0  1  0  0  0  0  0  0
  -26.3670  -37.5890   23.7530 N   0  0  0  0  0  0  0  0  0  0  0  0
  -25.9460  -38.5070   23.8740 H   0  0  0  0  0  0  0  0  0  0  0  0
  -30.3350  -17.8610   20.6350 C   0  0  0  0  0  2  0  0  0  0  0  0
  -30.6570  -15.1350   20.3630 C   0  0  0  0  0  0  0  0  0  0  0  0
  -30.5330  -12.8160   19.3280 C   0  0  0  0  0  2  0  0  0  0  0  0
  -29.5830  -12.7970   18.1060 C   0  0  0  0  0  2  0  0  0  0  0  0
  -28.1290  -12.5550   18.5530 C   0  0  0  0  0  2  0  0  0  0  0  0
  -27.7300  -13.4320   19.7700 C   0  0  0  0  0  3  0  0  0  0  0  0
  -28.8020  -13.4240   20.8780 C   0  0  0  0  0  2  0  0  0  0  0  0
  -30.0530  -13.8780   20.2600 N   0  0  0  0  0  0  0  0  0  0  0  0
  -31.8610  -15.1910   20.0940 O   0  0  0  0  0  0  0  0  0  0  0  0
  -29.9050  -16.3340   20.5600 N   0  0  0  0  0  0  0  0  0  0  0  0
  -28.9140  -16.1980   20.6890 H   0  0  0  0  0  0  0  0  0  0  0  0
  -25.3520  -13.9540   20.5560 C   0  0  0  0  0  0  0  0  0  0  0  0
  -24.3030  -13.1540   20.9150 C   0  0  0  0  0  0  0  0  0  0  0  0
  -24.7830  -11.8110   20.8360 C   0  0  0  0  0  0  0  0  0  0  0  0
  -26.4040  -13.0970   20.2780 N   0  0  0  0  0  0  0  0  0  0  0  0
  -26.0720  -11.8010   20.5120 N   0  0  0  0  0  0  0  0  0  0  0  0
  -24.0720  -10.5350   20.9920 C   0  0  0  0  0  0  0  0  0  0  0  0
  -24.4840   -9.5700   21.9380 C   0  0  0  0  0  3  0  0  0  0  0  0
  -23.7730   -8.3590   22.0820 C   0  0  0  0  0  3  0  0  0  0  0  0
  -22.6350   -8.1050   21.2810 C   0  0  0  0  0  0  0  0  0  0  0  0
  -22.2430   -9.0580   20.3250 C   0  0  0  0  0  3  0  0  0  0  0  0
  -22.9550  -10.2610   20.1770 C   0  0  0  0  0  3  0  0  0  0  0  0
  -21.8960   -6.9470   21.3350 O   0  0  0  0  0  0  0  0  0  0  0  0
  -21.7560   -6.2370   22.4990 C   0  0  0  0  0  0  0  0  0  0  0  0
  -21.0860   -6.7710   23.6230 C   0  0  0  0  0  3  0  0  0  0  0  0
  -20.9070   -5.9820   24.7760 C   0  0  0  0  0  3  0  0  0  0  0  0
  -21.3840   -4.6570   24.8040 C   0  0  0  0  0  0  0  0  0  0  0  0
  -22.0450   -4.1220   23.6840 C   0  0  0  0  0  3  0  0  0  0  0  0
  -22.2270   -4.9090   22.5340 C   0  0  0  0  0  0  0  0  0  0  0  0
  -22.8460   -4.3820   21.4500 F   0  0  0  0  0  0  0  0  0  0  0  0
  -21.2050   -3.8940   25.9090 F   0  0  0  0  0  0  0  0  0  0  0  0
  -22.9020  -13.6050   21.2090 C   0  0  0  0  0  0  0  0  0  0  0  0
  -22.1920  -12.8810   22.0670 N   0  0  0  0  0  0  0  0  0  0  0  0
  -22.4460  -14.6340   20.7140 O   0  0  0  0  0  0  0  0  0  0  0  0
  -22.5700  -12.0430   22.4830 H   0  0  0  0  0  0  0  0  0  0  0  0
  -21.2510  -13.1620   22.3010 H   0  0  0  0  0  0  0  0  0  0  0  0
  -25.4940  -15.3300   20.4130 N   0  0  0  0  0  0  0  0  0  0  0  0
  -24.7120  -15.9630   20.5420 H   0  0  0  0  0  0  0  0  0  0  0  0
  -26.3160  -15.7920   20.0490 H   0  0  0  0  0  0  0  0  0  0  0  0
  1  3  1  0
  3  2  2  0
  3 10  1  0
  4  1  2  0
  4  7  1  0
  5 53  1  0
  5  2  1  0
  6  4  1  0
  7  5  2  0
  8  9  1  0
 10  8  1  0
 10  9  1  0
 11 12  1  0
 10 11  1  6
 13 24  2  0
 14 12  1  0
 14 19  1  0
 15 23  1  0
 15 25  1  0
 16 18  1  0
 17 23  1  0
 18 19  2  0
 18 17  1  0
 20 14  2  0
 21 20  1  0
 21 16  2  0
 22 16  1  0
 22 15  1  0
 23 13  1  0
 25 27  2  0
 26 25  1  0
 28 26  1  0
 29 38  2  0
 29 34  1  0
 30 26  1  0
 30 34  1  0
 31 30  1  0
 32 33  1  0
 32 31  1  0
 33 29  1  0
 34 35  2  0
 35 36  1  0
 37 36  2  0
 38 37  1  0
 39 13  1  0
 39 44  1  0
 39 40  1  0
 40 43  1  1
 40 41  1  0
 42 40  1  0
 44 47  1  0
 45 49  1  0
 45 44  1  0
 46 45  2  0
 49 48  1  0
 51 52  1  0
 51 49  1  0
 51 50  1  0
 54 62  1  0
 55 60  1  0
 56 57  1  0
 56 55  1  0
 58 57  1  0
 58 67  1  0
 58 59  1  0
 60 54  1  0
 60 59  1  0
 61 54  2  0
 62 53  1  0
 62 63  1  0
 64 65  2  0
 65 84  1  0
 66 65  1  0
 66 69  1  0
 67 68  1  0
 67 64  1  0
 68 66  2  0
 69 70  1  0
 70 71  2  0
 72 75  1  0
 72 71  1  0
 73 72  2  0
 74 73  1  0
 74 69  2  0
 75 76  1  0
 76 81  2  0
 76 77  1  0
 77 78  2  0
 78 79  1  0
 79 83  1  0
 80 79  2  0
 81 80  1  0
 82 81  1  0
 84 85  1  0
 85 88  1  0
 85 87  1  0
 86 84  2  0
 89 90  1  0
 89 64  1  0
 91 89  1  0
M  ISO  4  11 101  12 101  54 100  62 100
M  END
>  <TORSDO>  (61) 
F 19

>  <SCORE>  (61) 
-14.051

>  <name>  (61) 
60

>  <ligand_id>  (61) 
60

>  <original_smiles>  (61) 
[H]c1c([H])c([H])c2c(c1[H])C([H])([H])C([H])([H])C([H])([H])C2([H])N([H])C(=O)C1([H])N(C(=O)C([H])(N([H])C(=O)C([H])(N([H])C([H])([H])[H])C([H])([H])[H])C(C([H])([H])[H])(C([H])([H])[H])C([H])([H])[H])C([H])([H])c2c([H])c(OC([H])([H])C3(c4c([H])c(C([H])([H])[H])nc(C([H])([H])N([H])C(=O)N5C([H])([H])C([H])([H])C([H])([H])C([H])(n6nc(-c7c([H])c([H])c(Oc8c([H])c([H])c(F)c([H])c8F)c([H])c7[H])c(C(=O)N([H])[H])c6N([H])[H])C5([H])[H])c4[H])C([H])([H])C3([H])[H])c([H])c([H])c2C1([H])[H]

>  <smiles>  (61) 
[H]c1c([H])c([H])c2c(c1[H])C([H])([H])C([H])([H])C([H])([H])C2([H])N([H])C(=O)C1([H])N(C(=O)C([H])(N([H])C(=O)C([H])(N([H])C([H])([H])[H])C([H])([H])[H])C(C([H])([H])[H])(C([H])([H])[H])C([H])([H])[H])C([H])([H])c2c([H])c(OC([H])([H])C3(c4c([H])c(C([H])([H])[H])nc(C([H])([H])N([H])C(=O)N5C([H])([H])C([H])([H])C([H])([H])C([H])(n6nc(-c7c([H])c([H])c(Oc8c([H])c([H])c(F)c([H])c8F)c([H])c7[H])c(C(=O)N([H])[H])c6N([H])[H])C5([H])[H])c4[H])C([H])([H])C3([H])[H])c([H])c([H])c2C1([H])[H]

$$$$
61:0:0
     RDKit          3D

 88 97  0  0  1  0  0  0  0  0999 V2000
  -30.6840  -20.9500   20.9580 C   0  0  0  0  0  3  0  0  0  0  0  0
  -30.9380  -22.3220   21.1520 C   0  0  0  0  0  3  0  0  0  0  0  0
  -29.4600  -20.5090   20.4370 C   0  0  0  0  0  0  0  0  0  0  0  0
  -28.8780  -23.0230   20.3520 C   0  0  0  0  0  0  0  0  0  0  0  0
  -30.0700  -23.3160   20.8620 N   0  0  0  0  0  0  0  0  0  0  0  0
  -28.5740  -21.6280   20.1390 N   0  0  0  0  0  0  0  0  0  0  0  0
  -30.4560  -15.2030   20.2670 C   0  0  0  0  0  0  0  0  0  0  0  0
  -30.3690  -12.7900   19.3720 C   0  0  0  0  0  2  0  0  0  0  0  0
  -29.4370  -12.6340   18.1490 C   0  0  0  0  0  2  0  0  0  0  0  0
  -27.9860  -12.3860   18.5980 C   0  0  0  0  0  2  0  0  0  0  0  0
  -27.5590  -13.3350   19.7470 C   0  0  0  0  0  3  0  0  0  0  0  0
  -28.6220  -13.4580   20.8600 C   0  0  0  0  0  2  0  0  0  0  0  0
  -29.8540  -13.9270   20.2090 N   0  0  0  0  0  0  0  0  0  0  0  0
  -31.6730  -15.1930   20.0320 O   0  0  0  0  0  0  0  0  0  0  0  0
  -29.9560  -17.6950   19.3490 C   0  0  0  0  0  2  0  0  0  0  0  0
  -29.7310  -17.6160   21.3160 C   0  0  0  0  0  2  0  0  0  0  0  0
  -29.2660  -18.7980   20.3080 C   0  0  0  0  0  3  0  0  0  0  0  0
  -29.7220  -16.4770   20.2760 N   0  0  0  0  0  0  0  0  0  0  0  0
  -25.1960  -13.8850   20.5370 C   0  0  0  0  0  0  0  0  0  0  0  0
  -24.1390  -13.1020   20.9050 C   0  0  0  0  0  0  0  0  0  0  0  0
  -24.6050  -11.7520   20.8480 C   0  0  0  0  0  0  0  0  0  0  0  0
  -26.2360  -13.0140   20.2690 N   0  0  0  0  0  0  0  0  0  0  0  0
  -25.8940  -11.7240   20.5240 N   0  0  0  0  0  0  0  0  0  0  0  0
  -23.8810  -10.4870   21.0260 C   0  0  0  0  0  0  0  0  0  0  0  0
  -24.3050   -9.5160   21.9600 C   0  0  0  0  0  3  0  0  0  0  0  0
  -23.5800   -8.3170   22.1270 C   0  0  0  0  0  3  0  0  0  0  0  0
  -22.4140   -8.0800   21.3590 C   0  0  0  0  0  0  0  0  0  0  0  0
  -22.0100   -9.0380   20.4150 C   0  0  0  0  0  3  0  0  0  0  0  0
  -22.7360  -10.2290   20.2460 C   0  0  0  0  0  3  0  0  0  0  0  0
  -21.6600   -6.9330   21.4350 O   0  0  0  0  0  0  0  0  0  0  0  0
  -21.5740   -6.2030   22.5940 C   0  0  0  0  0  0  0  0  0  0  0  0
  -21.0900   -6.7650   23.7960 C   0  0  0  0  0  3  0  0  0  0  0  0
  -20.9540   -5.9610   24.9450 C   0  0  0  0  0  3  0  0  0  0  0  0
  -21.2910   -4.5960   24.8930 C   0  0  0  0  0  0  0  0  0  0  0  0
  -21.7680   -4.0320   23.6960 C   0  0  0  0  0  3  0  0  0  0  0  0
  -21.9070   -4.8340   22.5500 C   0  0  0  0  0  0  0  0  0  0  0  0
  -22.3460   -4.2810   21.3940 F   0  0  0  0  0  0  0  0  0  0  0  0
  -21.1540   -3.8210   25.9940 F   0  0  0  0  0  0  0  0  0  0  0  0
  -22.7440  -13.5720   21.1950 C   0  0  0  0  0  0  0  0  0  0  0  0
  -22.0270  -12.8660   22.0610 N   0  0  0  0  0  0  0  0  0  0  0  0
  -22.3010  -14.6030   20.6910 O   0  0  0  0  0  0  0  0  0  0  0  0
  -22.4020  -12.0320   22.4890 H   0  0  0  0  0  0  0  0  0  0  0  0
  -21.0900  -13.1590   22.2980 H   0  0  0  0  0  0  0  0  0  0  0  0
  -25.3600  -15.2590   20.3800 N   0  0  0  0  0  0  0  0  0  0  0  0
  -24.6020  -15.9180   20.5210 H   0  0  0  0  0  0  0  0  0  0  0  0
  -26.2180  -15.7000   20.0710 H   0  0  0  0  0  0  0  0  0  0  0  0
  -27.9120  -24.4100   20.0430 C   0  0  0  0  0  2  0  0  0  0  0  0
  -28.2040  -25.9840   20.3100 O   0  0  0  0  0  0  0  0  0  0  0  0
  -24.6460  -31.8840   23.2650 C   0  0  0  0  0  0  0  0  0  0  0  0
  -27.1920  -27.0560   20.2340 C   0  0  0  0  0  0  0  0  0  0  0  0
  -23.4480  -30.4990   21.6190 C   0  0  0  0  0  3  0  0  0  0  0  0
  -24.8940  -28.9040   20.1920 C   0  0  0  0  0  0  0  0  0  0  0  0
  -26.0140  -30.7150   21.4760 C   0  0  0  0  0  2  0  0  0  0  0  0
  -26.0800  -29.3140   20.8140 C   0  0  0  0  0  0  0  0  0  0  0  0
  -27.2260  -28.4090   20.8130 C   0  0  0  0  0  3  0  0  0  0  0  0
  -25.9760  -26.7820   19.5670 C   0  0  0  0  0  3  0  0  0  0  0  0
  -24.8630  -27.6560   19.5510 C   0  0  0  0  0  3  0  0  0  0  0  0
  -23.6770  -29.8220   20.2400 C   0  0  0  0  0  2  0  0  0  0  0  0
  -24.7230  -31.0570   22.1740 N   0  0  0  0  0  0  0  0  0  0  0  0
  -23.5570  -32.1780   23.7830 O   0  0  0  0  0  0  0  0  0  0  0  0
  -22.7500  -29.5000   22.5770 C   0  0  0  0  0  0  0  0  0  0  0  0
  -21.4190  -29.3440   22.4460 N   0  0  0  0  0  0  0  0  0  0  0  0
  -23.4090  -28.8680   23.4060 O   0  0  0  0  0  0  0  0  0  0  0  0
  -20.9420  -29.9050   21.7560 H   0  0  0  0  0  0  0  0  0  0  0  0
  -18.0260  -28.1640   22.9420 C   0  0  0  0  0  0  0  0  0  0  0  0
  -20.5860  -28.4090   23.2120 C   0  0  0  0  0  3  0  0  0  0  0  0
  -20.6790  -26.9790   22.6310 C   0  0  0  0  0  2  0  0  0  0  0  0
  -19.5750  -26.6700   21.6130 C   0  0  0  0  0  2  0  0  0  0  0  0
  -18.1940  -26.8180   22.2560 C   0  0  0  0  0  2  0  0  0  0  0  0
  -19.1480  -28.9180   23.3750 C   0  0  0  0  0  0  0  0  0  0  0  0
  -18.9360  -30.1760   23.9790 C   0  0  0  0  0  3  0  0  0  0  0  0
  -17.6340  -30.6820   24.1520 C   0  0  0  0  0  3  0  0  0  0  0  0
  -16.5250  -29.9250   23.7320 C   0  0  0  0  0  3  0  0  0  0  0  0
  -16.7220  -28.6680   23.1330 C   0  0  0  0  0  3  0  0  0  0  0  0
  -25.9200  -32.5150   23.9050 C   0  0  0  0  0  3  0  0  0  0  0  0
  -25.6130  -33.9170   24.2350 N   0  0  0  0  0  0  0  0  0  0  0  0
  -25.9290  -34.9720   23.4720 C   0  0  0  0  0  0  0  0  0  0  0  0
  -26.5750  -34.8670   22.4260 O   0  0  0  0  0  0  0  0  0  0  0  0
  -25.0360  -34.0730   25.0500 H   0  0  0  0  0  0  0  0  0  0  0  0
  -24.1830  -36.7620   23.1840 C   0  0  0  0  0  1  0  0  0  0  0  0
  -25.4590  -36.3640   23.9420 C   0  0  0  0  0  3  0  0  0  0  0  0
  -27.6230  -37.2660   24.6760 C   0  0  0  0  0  1  0  0  0  0  0  0
  -26.4830  -37.4200   23.7750 N   0  0  0  0  0  0  0  0  0  0  0  0
  -26.0800  -38.3420   23.9260 H   0  0  0  0  0  0  0  0  0  0  0  0
  -26.4110  -31.7460   25.1930 C   0  0  1  0  0  0  0  0  0  0  0  0
  -25.3010  -31.5240   26.2490 C   0  0  0  0  0  1  0  0  0  0  0  0
  -26.9870  -30.3620   24.8240 C   0  0  0  0  0  1  0  0  0  0  0  0
  -27.5600  -32.5340   25.8650 C   0  0  0  0  0  1  0  0  0  0  0  0
  1  2  2  0
  3  1  1  0
  4  5  2  0
  5  2  1  0
  6  4  1  0
  6  3  2  0
  7 18  1  0
  8 13  1  0
  9 10  1  0
  9  8  1  0
 11 10  1  0
 11 22  1  0
 11 12  1  0
 13  7  1  0
 13 12  1  0
 14  7  2  0
 15 18  1  0
 15 17  1  0
 17  3  1  0
 17 16  1  0
 18 16  1  0
 19 20  2  0
 20 39  1  0
 21 20  1  0
 21 24  1  0
 22 23  1  0
 22 19  1  0
 23 21  2  0
 24 25  1  0
 25 26  2  0
 27 30  1  0
 27 26  1  0
 28 27  2  0
 29 28  1  0
 29 24  2  0
 30 31  1  0
 31 32  1  0
 32 33  2  0
 34 33  1  0
 34 38  1  0
 35 34  2  0
 36 31  2  0
 36 35  1  0
 37 36  1  0
 39 40  1  0
 40 43  1  0
 40 42  1  0
 41 39  2  0
 44 45  1  0
 44 19  1  0
 46 44  1  0
 47 48  1  0
 47  4  1  0
 49 60  2  0
 50 48  1  0
 50 55  1  0
 51 59  1  0
 51 61  1  0
 52 58  1  0
 52 54  1  0
 53 59  1  0
 54 53  1  0
 55 54  2  0
 56 50  2  0
 57 56  1  0
 57 52  2  0
 58 51  1  0
 59 49  1  0
 61 63  2  0
 62 61  1  0
 64 62  1  0
 65 74  2  0
 65 70  1  0
 66 62  1  0
 66 70  1  0
 67 66  1  0
 68 69  1  0
 68 67  1  0
 69 65  1  0
 70 71  2  0
 71 72  1  0
 73 72  2  0
 74 73  1  0
 75 49  1  0
 75 76  1  0
 75 85  1  0
 76 79  1  0
 77 81  1  0
 77 76  1  0
 78 77  2  0
 81 80  1  0
 83 84  1  0
 83 81  1  0
 83 82  1  0
 85 88  1  1
 85 86  1  0
 87 85  1  0
M  ISO  4   7 100  18 100  47 101  48 101
M  END
>  <TORSDO>  (62) 
F 17

>  <SCORE>  (62) 
-16.247

>  <name>  (62) 
61

>  <ligand_id>  (62) 
61

>  <original_smiles>  (62) 
[H]c1nc(C([H])([H])Oc2c([H])c([H])c3c(c2[H])C([H])([H])N(C(=O)C([H])(N([H])C(=O)C([H])(N([H])C([H])([H])[H])C([H])([H])[H])C(C([H])([H])[H])(C([H])([H])[H])C([H])([H])[H])C([H])(C(=O)N([H])C2([H])c4c([H])c([H])c([H])c([H])c4C([H])([H])C([H])([H])C2([H])[H])C3([H])[H])nc(C2([H])C([H])([H])N(C(=O)N3C([H])([H])C([H])([H])C([H])([H])C([H])(n4nc(-c5c([H])c([H])c(Oc6c([H])c([H])c(F)c([H])c6F)c([H])c5[H])c(C(=O)N([H])[H])c4N([H])[H])C3([H])[H])C2([H])[H])c1[H]

>  <smiles>  (62) 
[H]c1nc(C([H])([H])Oc2c([H])c([H])c3c(c2[H])C([H])([H])N(C(=O)C([H])(N([H])C(=O)C([H])(N([H])C([H])([H])[H])C([H])([H])[H])C(C([H])([H])[H])(C([H])([H])[H])C([H])([H])[H])C([H])(C(=O)N([H])C2([H])c4c([H])c([H])c([H])c([H])c4C([H])([H])C([H])([H])C2([H])[H])C3([H])[H])nc(C2([H])C([H])([H])N(C(=O)N3C([H])([H])C([H])([H])C([H])([H])C([H])(n4nc(-c5c([H])c([H])c(Oc6c([H])c([H])c(F)c([H])c6F)c([H])c5[H])c(C(=O)N([H])[H])c4N([H])[H])C3([H])[H])C2([H])[H])c1[H]

$$$$
62:0:0
     RDKit          3D

 95104  0  0  1  0  0  0  0  0999 V2000
  -29.7340  -24.3600   21.6440 C   0  0  0  0  0  3  0  0  0  0  0  0
  -29.1450  -24.1670   20.3760 C   0  0  0  0  0  0  0  0  0  0  0  0
  -30.8610  -22.3370   21.4560 C   0  0  0  0  0  0  0  0  0  0  0  0
  -30.2630  -22.1120   20.1760 C   0  0  0  0  0  0  0  0  0  0  0  0
  -30.5860  -23.4530   22.1790 N   0  0  0  0  0  0  0  0  0  0  0  0
  -29.4040  -23.0380   19.6550 N   0  0  0  0  0  0  0  0  0  0  0  0
  -33.3170  -21.6590   21.6090 C   0  0  0  0  0  1  0  0  0  0  0  0
  -31.8880  -21.4150   22.1120 C   0  0  0  0  0  2  0  0  0  0  0  0
  -30.6590  -20.9790   19.2010 C   0  0  0  0  0  2  0  0  0  0  0  0
  -30.8530  -19.5930   19.7140 N   0  0  0  0  0  4  0  0  0  0  0  0
  -31.5130  -19.5990   20.4710 H   0  0  0  0  0  0  0  0  0  0  0  0
  -31.2980  -19.1070   18.9510 H   0  0  0  0  0  0  0  0  0  0  0  0
  -29.6630  -18.7830   20.0820 C   0  0  0  0  0  2  0  0  0  0  0  0
  -30.5810  -14.3260   20.4450 C   0  0  0  0  0  0  0  0  0  0  0  0
  -30.3020  -12.1300   19.3610 C   0  0  0  0  0  2  0  0  0  0  0  0
  -29.3390  -12.2770   18.1650 C   0  0  0  0  0  2  0  0  0  0  0  0
  -27.8830  -12.0820   18.6300 C   0  0  0  0  0  2  0  0  0  0  0  0
  -27.5330  -12.9540   19.8640 C   0  0  0  0  0  3  0  0  0  0  0  0
  -28.6120  -12.8270   20.9640 C   0  0  0  0  0  2  0  0  0  0  0  0
  -29.9180  -13.1380   20.3630 N   0  0  0  0  0  0  0  0  0  0  0  0
  -31.7010  -14.4930   19.9540 O   0  0  0  0  0  0  0  0  0  0  0  0
  -28.9310  -16.2020   20.3200 C   0  0  0  0  0  2  0  0  0  0  0  0
  -30.5840  -16.6210   21.4440 C   0  0  0  0  0  2  0  0  0  0  0  0
  -30.0110  -17.2770   20.1800 C   0  0  0  0  0  3  0  0  0  0  0  0
  -29.9240  -15.3630   21.0260 N   0  0  0  0  0  0  0  0  0  0  0  0
  -25.1460  -13.5250   20.6320 C   0  0  0  0  0  0  0  0  0  0  0  0
  -24.1030  -12.7360   21.0290 C   0  0  0  0  0  0  0  0  0  0  0  0
  -24.5880  -11.3920   20.9910 C   0  0  0  0  0  0  0  0  0  0  0  0
  -26.1990  -12.6590   20.3780 N   0  0  0  0  0  0  0  0  0  0  0  0
  -25.8690  -11.3730   20.6520 N   0  0  0  0  0  0  0  0  0  0  0  0
  -23.8910  -10.1170   21.2000 C   0  0  0  0  0  0  0  0  0  0  0  0
  -24.3450   -9.1770   22.1510 C   0  0  0  0  0  3  0  0  0  0  0  0
  -23.6480   -7.9660   22.3480 C   0  0  0  0  0  3  0  0  0  0  0  0
  -22.4850   -7.6870   21.5920 C   0  0  0  0  0  0  0  0  0  0  0  0
  -22.0520   -8.6150   20.6290 C   0  0  0  0  0  3  0  0  0  0  0  0
  -22.7500   -9.8170   20.4300 C   0  0  0  0  0  3  0  0  0  0  0  0
  -21.7570   -6.5260   21.6970 O   0  0  0  0  0  0  0  0  0  0  0  0
  -21.7050   -5.8150   22.8670 C   0  0  0  0  0  0  0  0  0  0  0  0
  -21.2150   -6.3820   24.0660 C   0  0  0  0  0  3  0  0  0  0  0  0
  -21.1140   -5.5930   25.2280 C   0  0  0  0  0  3  0  0  0  0  0  0
  -21.4930   -4.2370   25.1950 C   0  0  0  0  0  0  0  0  0  0  0  0
  -21.9750   -3.6690   24.0030 C   0  0  0  0  0  3  0  0  0  0  0  0
  -22.0790   -4.4560   22.8430 C   0  0  0  0  0  0  0  0  0  0  0  0
  -22.5260   -3.8990   21.6900 F   0  0  0  0  0  0  0  0  0  0  0  0
  -21.3880   -3.4760   26.3100 F   0  0  0  0  0  0  0  0  0  0  0  0
  -22.7040  -13.1870   21.3330 C   0  0  0  0  0  0  0  0  0  0  0  0
  -22.0090  -12.4760   22.2130 N   0  0  0  0  0  0  0  0  0  0  0  0
  -22.2360  -14.2060   20.8250 O   0  0  0  0  0  0  0  0  0  0  0  0
  -22.4000  -11.6530   22.6460 H   0  0  0  0  0  0  0  0  0  0  0  0
  -21.0710  -12.7590   22.4600 H   0  0  0  0  0  0  0  0  0  0  0  0
  -25.2830  -14.8990   20.4430 N   0  0  0  0  0  0  0  0  0  0  0  0
  -24.5090  -15.5430   20.5600 H   0  0  0  0  0  0  0  0  0  0  0  0
  -26.1150  -15.3410   20.0740 H   0  0  0  0  0  0  0  0  0  0  0  0
  -28.0900  -25.1410   19.8300 C   0  0  0  0  0  2  0  0  0  0  0  0
  -28.2360  -26.5350   20.2090 O   0  0  0  0  0  0  0  0  0  0  0  0
  -24.6460  -31.8560   23.3460 C   0  0  0  0  0  0  0  0  0  0  0  0
  -27.0940  -27.3300   20.1850 C   0  0  0  0  0  0  0  0  0  0  0  0
  -23.3670  -30.4980   21.7280 C   0  0  0  0  0  3  0  0  0  0  0  0
  -24.7450  -28.9300   20.2600 C   0  0  0  0  0  0  0  0  0  0  0  0
  -25.9010  -30.7780   21.4780 C   0  0  0  0  0  2  0  0  0  0  0  0
  -25.9340  -29.4090   20.8230 C   0  0  0  0  0  0  0  0  0  0  0  0
  -27.1100  -28.6190   20.7810 C   0  0  0  0  0  3  0  0  0  0  0  0
  -25.8830  -26.8870   19.6000 C   0  0  0  0  0  3  0  0  0  0  0  0
  -24.7160  -27.6690   19.6450 C   0  0  0  0  0  3  0  0  0  0  0  0
  -23.5240  -29.8180   20.3420 C   0  0  0  0  0  2  0  0  0  0  0  0
  -24.6590  -31.0580   22.2420 N   0  0  0  0  0  0  0  0  0  0  0  0
  -23.5860  -32.1570   23.9110 O   0  0  0  0  0  0  0  0  0  0  0  0
  -22.7040  -29.4910   22.6970 C   0  0  0  0  0  0  0  0  0  0  0  0
  -21.3840  -29.2920   22.5460 N   0  0  0  0  0  0  0  0  0  0  0  0
  -23.3770  -28.8900   23.5390 O   0  0  0  0  0  0  0  0  0  0  0  0
  -20.9040  -29.8270   21.8360 H   0  0  0  0  0  0  0  0  0  0  0  0
  -18.0250  -28.0250   22.9560 C   0  0  0  0  0  0  0  0  0  0  0  0
  -20.5630  -28.3630   23.3210 C   0  0  0  0  0  3  0  0  0  0  0  0
  -20.7260  -26.9140   22.8060 C   0  0  0  0  0  2  0  0  0  0  0  0
  -19.6750  -26.5240   21.7620 C   0  0  0  0  0  2  0  0  0  0  0  0
  -18.2640  -26.6550   22.3440 C   0  0  0  0  0  2  0  0  0  0  0  0
  -19.1060  -28.8320   23.4010 C   0  0  0  0  0  0  0  0  0  0  0  0
  -18.8290  -30.1130   23.9290 C   0  0  0  0  0  3  0  0  0  0  0  0
  -17.5060  -30.5860   24.0180 C   0  0  0  0  0  3  0  0  0  0  0  0
  -16.4400  -29.7730   23.5950 C   0  0  0  0  0  3  0  0  0  0  0  0
  -16.7010  -28.4960   23.0690 C   0  0  0  0  0  3  0  0  0  0  0  0
  -25.9630  -32.4470   23.9440 C   0  0  0  0  0  3  0  0  0  0  0  0
  -25.7160  -33.8650   24.2390 N   0  0  0  0  0  0  0  0  0  0  0  0
  -26.0580  -34.8800   23.4340 C   0  0  0  0  0  0  0  0  0  0  0  0
  -26.6850  -34.7200   22.3840 O   0  0  0  0  0  0  0  0  0  0  0  0
  -25.1600  -34.0670   25.0570 H   0  0  0  0  0  0  0  0  0  0  0  0
  -24.3700  -36.7120   23.0970 C   0  0  0  0  0  1  0  0  0  0  0  0
  -25.6370  -36.2980   23.8630 C   0  0  0  0  0  3  0  0  0  0  0  0
  -27.8330  -37.1440   24.5610 C   0  0  0  0  0  1  0  0  0  0  0  0
  -26.6950  -37.3110   23.6620 N   0  0  0  0  0  0  0  0  0  0  0  0
  -26.3240  -38.2490   23.7880 H   0  0  0  0  0  0  0  0  0  0  0  0
  -26.4570  -31.6880   25.2350 C   0  0  1  0  0  0  0  0  0  0  0  0
  -25.3620  -31.5180   26.3140 C   0  0  0  0  0  1  0  0  0  0  0  0
  -26.9830  -30.2800   24.8720 C   0  0  0  0  0  1  0  0  0  0  0  0
  -27.6410  -32.4530   25.8730 C   0  0  0  0  0  1  0  0  0  0  0  0
  1  5  1  0
  2  1  2  0
  3  8  1  0
  3  5  2  0
  4  3  1  0
  6  4  2  0
  6  2  1  0
  7  8  1  0
  9 10  1  0
  9  4  1  0
 10 13  1  0
 10 11  1  0
 12 10  1  0
 14 25  1  0
 15 20  1  0
 16 17  1  0
 16 15  1  0
 18 17  1  0
 18 29  1  0
 18 19  1  0
 20 14  1  0
 20 19  1  0
 21 14  2  0
 22 25  1  0
 24 13  1  0
 24 22  1  0
 24 23  1  0
 25 23  1  0
 26 27  2  0
 27 46  1  0
 28 27  1  0
 28 31  1  0
 29 26  1  0
 29 30  1  0
 30 28  2  0
 31 32  1  0
 32 33  2  0
 34 37  1  0
 34 33  1  0
 35 34  2  0
 36 35  1  0
 36 31  2  0
 37 38  1  0
 38 39  1  0
 39 40  2  0
 41 40  1  0
 41 45  1  0
 42 41  2  0
 43 38  2  0
 43 42  1  0
 44 43  1  0
 46 47  1  0
 47 50  1  0
 47 49  1  0
 48 46  2  0
 51 52  1  0
 51 26  1  0
 53 51  1  0
 54 55  1  0
 54  2  1  0
 56 67  2  0
 57 55  1  0
 57 62  1  0
 58 66  1  0
 58 68  1  0
 59 65  1  0
 59 61  1  0
 60 66  1  0
 61 60  1  0
 62 61  2  0
 63 64  1  0
 63 57  2  0
 64 59  2  0
 65 58  1  0
 66 56  1  0
 68 70  2  0
 69 68  1  0
 71 69  1  0
 72 81  2  0
 72 77  1  0
 73 69  1  0
 73 77  1  0
 74 73  1  0
 75 76  1  0
 75 74  1  0
 76 72  1  0
 77 78  2  0
 78 79  1  0
 80 79  2  0
 81 80  1  0
 82 56  1  0
 82 83  1  0
 82 92  1  0
 83 86  1  0
 84 88  1  0
 84 83  1  0
 85 84  2  0
 88 87  1  0
 90 91  1  0
 90 88  1  0
 90 89  1  0
 92 95  1  1
 92 93  1  0
 94 92  1  0
M  ISO  4  14 100  25 100  54 101  55 101
M  END
>  <TORSDO>  (63) 
F 21

>  <SCORE>  (63) 
-12.829

>  <name>  (63) 
62

>  <ligand_id>  (63) 
62

>  <original_smiles>  (63) 
[H]c1nc(C([H])([H])C([H])([H])[H])c(C([H])([H])[N+]([H])([H])C([H])([H])C2([H])C([H])([H])N(C(=O)N3C([H])([H])C([H])([H])C([H])([H])C([H])(n4nc(-c5c([H])c([H])c(Oc6c([H])c([H])c(F)c([H])c6F)c([H])c5[H])c(C(=O)N([H])[H])c4N([H])[H])C3([H])[H])C2([H])[H])nc1C([H])([H])Oc1c([H])c([H])c2c(c1[H])C([H])([H])N(C(=O)C([H])(N([H])C(=O)C([H])(N([H])C([H])([H])[H])C([H])([H])[H])C(C([H])([H])[H])(C([H])([H])[H])C([H])([H])[H])C([H])(C(=O)N([H])C1([H])c3c([H])c([H])c([H])c([H])c3C([H])([H])C([H])([H])C1([H])[H])C2([H])[H]

>  <smiles>  (63) 
[H]c1nc(C([H])([H])C([H])([H])[H])c(C([H])([H])[N+]([H])([H])C([H])([H])C2([H])C([H])([H])N(C(=O)N3C([H])([H])C([H])([H])C([H])([H])C([H])(n4nc(-c5c([H])c([H])c(Oc6c([H])c([H])c(F)c([H])c6F)c([H])c5[H])c(C(=O)N([H])[H])c4N([H])[H])C3([H])[H])C2([H])[H])nc1C([H])([H])Oc1c([H])c([H])c2c(c1[H])C([H])([H])N(C(=O)C([H])(N([H])C(=O)C([H])(N([H])C([H])([H])[H])C([H])([H])[H])C(C([H])([H])[H])(C([H])([H])[H])C([H])([H])[H])C([H])(C(=O)N([H])C1([H])c3c([H])c([H])c([H])c([H])c3C([H])([H])C([H])([H])C1([H])[H])C2([H])[H]

$$$$
63:0:0
     RDKit          3D

 93102  0  0  1  0  0  0  0  0999 V2000
  -29.2660  -22.2350   20.9780 C   0  0  0  0  0  2  0  0  0  0  0  0
  -30.8300  -14.5210   19.8880 C   0  0  0  0  0  0  0  0  0  0  0  0
  -30.3240  -12.4050   18.7170 C   0  0  0  0  0  2  0  0  0  0  0  0
  -29.2890  -12.6410   17.5990 C   0  0  0  0  0  2  0  0  0  0  0  0
  -27.8580  -12.5070   18.1550 C   0  0  0  0  0  2  0  0  0  0  0  0
  -27.6490  -13.3000   19.4730 C   0  0  0  0  0  3  0  0  0  0  0  0
  -28.8040  -13.0520   20.4670 C   0  0  0  0  0  2  0  0  0  0  0  0
  -30.0610  -13.3930   19.7830 N   0  0  0  0  0  0  0  0  0  0  0  0
  -31.9370  -14.5540   19.3420 O   0  0  0  0  0  0  0  0  0  0  0  0
  -30.3470  -19.3750   18.9210 C   0  0  0  0  0  3  0  0  0  0  0  0
  -30.2270  -18.2830   19.7940 C   0  0  0  0  0  0  0  0  0  0  0  0
  -29.7560  -18.5510   21.0760 C   0  0  0  0  0  0  0  0  0  0  0  0
  -29.5810  -20.7890   20.5560 C   0  0  0  0  0  0  0  0  0  0  0  0
  -30.6920  -16.8910   19.3900 C   0  0  0  0  0  2  0  0  0  0  0  0
  -29.6860  -17.4130   22.0780 C   0  0  0  0  0  2  0  0  0  0  0  0
  -29.4720  -16.0120   21.4340 C   0  0  0  0  0  2  0  0  0  0  0  0
  -30.0200  -20.6230   19.3080 N   0  0  0  0  0  0  0  0  0  0  0  0
  -29.4340  -19.8090   21.4580 N   0  0  0  0  0  0  0  0  0  0  0  0
  -30.2370  -15.7220   20.1940 N   0  0  0  0  0  0  0  0  0  0  0  0
  -25.3540  -13.8870   20.4690 C   0  0  0  0  0  0  0  0  0  0  0  0
  -24.3180  -13.1030   20.9030 C   0  0  0  0  0  0  0  0  0  0  0  0
  -24.7520  -11.7520   20.7500 C   0  0  0  0  0  0  0  0  0  0  0  0
  -26.3510  -13.0080   20.0750 N   0  0  0  0  0  0  0  0  0  0  0  0
  -26.0010  -11.7170   20.3060 N   0  0  0  0  0  0  0  0  0  0  0  0
  -24.0300  -10.4880   20.9480 C   0  0  0  0  0  0  0  0  0  0  0  0
  -24.4730   -9.5250   21.8810 C   0  0  0  0  0  3  0  0  0  0  0  0
  -23.7520   -8.3260   22.0700 C   0  0  0  0  0  3  0  0  0  0  0  0
  -22.5760   -8.0800   21.3200 C   0  0  0  0  0  0  0  0  0  0  0  0
  -22.1500   -9.0340   20.3790 C   0  0  0  0  0  3  0  0  0  0  0  0
  -22.8730  -10.2250   20.1910 C   0  0  0  0  0  3  0  0  0  0  0  0
  -21.8270   -6.9330   21.4140 O   0  0  0  0  0  0  0  0  0  0  0  0
  -21.6970   -6.2520   22.5980 C   0  0  0  0  0  0  0  0  0  0  0  0
  -21.1650   -6.8640   23.7540 C   0  0  0  0  0  3  0  0  0  0  0  0
  -20.9840   -6.1080   24.9300 C   0  0  0  0  0  3  0  0  0  0  0  0
  -21.3250   -4.7420   24.9480 C   0  0  0  0  0  0  0  0  0  0  0  0
  -21.8500   -4.1300   23.7960 C   0  0  0  0  0  3  0  0  0  0  0  0
  -22.0310   -4.8830   22.6240 C   0  0  0  0  0  0  0  0  0  0  0  0
  -22.5180   -4.2840   21.5090 F   0  0  0  0  0  0  0  0  0  0  0  0
  -21.1440   -4.0150   26.0750 F   0  0  0  0  0  0  0  0  0  0  0  0
  -22.9650  -13.5810   21.3420 C   0  0  0  0  0  0  0  0  0  0  0  0
  -22.3370  -12.8710   22.2720 N   0  0  0  0  0  0  0  0  0  0  0  0
  -22.4740  -14.6180   20.8960 O   0  0  0  0  0  0  0  0  0  0  0  0
  -22.7410  -12.0270   22.6520 H   0  0  0  0  0  0  0  0  0  0  0  0
  -21.4350  -13.1780   22.6090 H   0  0  0  0  0  0  0  0  0  0  0  0
  -25.5290  -15.2650   20.3560 N   0  0  0  0  0  0  0  0  0  0  0  0
  -24.8270  -15.9330   20.6500 H   0  0  0  0  0  0  0  0  0  0  0  0
  -26.3590  -15.7040   19.9790 H   0  0  0  0  0  0  0  0  0  0  0  0
  -29.9830  -23.2060   20.1140 N   0  0  0  0  0  4  0  0  0  0  0  0
  -30.9500  -22.9450   20.2210 H   0  0  0  0  0  0  0  0  0  0  0  0
  -29.7570  -22.9560   19.1640 H   0  0  0  0  0  0  0  0  0  0  0  0
  -29.8380  -24.6680   20.3990 C   0  0  0  0  0  2  0  0  0  0  0  0
  -28.5090  -25.3060   19.9240 C   0  0  0  0  0  2  0  0  0  0  0  0
  -28.5580  -26.7390   20.0570 O   0  0  0  0  0  0  0  0  0  0  0  0
  -24.7180  -31.8220   23.2130 C   0  0  0  0  0  0  0  0  0  0  0  0
  -27.3680  -27.4460   20.0380 C   0  0  0  0  0  0  0  0  0  0  0  0
  -23.5060  -30.4460   21.5520 C   0  0  0  0  0  3  0  0  0  0  0  0
  -24.9580  -28.9420   20.0870 C   0  0  0  0  0  0  0  0  0  0  0  0
  -26.0270  -30.8240   21.3430 C   0  0  0  0  0  2  0  0  0  0  0  0
  -26.1160  -29.4630   20.6750 C   0  0  0  0  0  0  0  0  0  0  0  0
  -27.3220  -28.7250   20.6420 C   0  0  0  0  0  3  0  0  0  0  0  0
  -26.1900  -26.9430   19.4360 C   0  0  0  0  0  3  0  0  0  0  0  0
  -24.9910  -27.6840   19.4610 C   0  0  0  0  0  3  0  0  0  0  0  0
  -23.7090  -29.7900   20.1590 C   0  0  0  0  0  2  0  0  0  0  0  0
  -24.7710  -31.0450   22.0950 N   0  0  0  0  0  0  0  0  0  0  0  0
  -23.6390  -32.0790   23.7650 O   0  0  0  0  0  0  0  0  0  0  0  0
  -22.8650  -29.4040   22.4970 C   0  0  0  0  0  0  0  0  0  0  0  0
  -21.5390  -29.2250   22.3810 N   0  0  0  0  0  0  0  0  0  0  0  0
  -23.5570  -28.7600   23.2910 O   0  0  0  0  0  0  0  0  0  0  0  0
  -21.0420  -29.7940   21.7100 H   0  0  0  0  0  0  0  0  0  0  0  0
  -18.1650  -28.0440   22.9130 C   0  0  0  0  0  0  0  0  0  0  0  0
  -20.7290  -28.2720   23.1390 C   0  0  0  0  0  3  0  0  0  0  0  0
  -20.8070  -26.8600   22.5150 C   0  0  0  0  0  2  0  0  0  0  0  0
  -19.6820  -26.5770   21.5130 C   0  0  0  0  0  2  0  0  0  0  0  0
  -18.3160  -26.7150   22.1910 C   0  0  0  0  0  2  0  0  0  0  0  0
  -19.3000  -28.7820   23.3420 C   0  0  0  0  0  0  0  0  0  0  0  0
  -19.1050  -30.0270   23.9770 C   0  0  0  0  0  3  0  0  0  0  0  0
  -17.8090  -30.5360   24.1820 C   0  0  0  0  0  3  0  0  0  0  0  0
  -16.6890  -29.7950   23.7670 C   0  0  0  0  0  3  0  0  0  0  0  0
  -16.8670  -28.5500   23.1400 C   0  0  0  0  0  3  0  0  0  0  0  0
  -26.0080  -32.4440   23.8360 C   0  0  0  0  0  3  0  0  0  0  0  0
  -26.5430  -31.6470   25.0890 C   0  0  1  0  0  0  0  0  0  0  0  0
  -25.4600  -31.3720   26.1600 C   0  0  0  0  0  1  0  0  0  0  0  0
  -27.1340  -30.2840   24.6550 C   0  0  0  0  0  1  0  0  0  0  0  0
  -27.6920  -32.4340   25.7620 C   0  0  0  0  0  1  0  0  0  0  0  0
  -25.6980  -33.8330   24.2010 N   0  0  0  0  0  0  0  0  0  0  0  0
  -26.0190  -34.9030   23.4620 C   0  0  0  0  0  0  0  0  0  0  0  0
  -26.6820  -34.8240   22.4230 O   0  0  0  0  0  0  0  0  0  0  0  0
  -25.1120  -33.9660   25.0120 H   0  0  0  0  0  0  0  0  0  0  0  0
  -24.2880  -36.6980   23.1420 C   0  0  0  0  0  1  0  0  0  0  0  0
  -25.5260  -36.2780   23.9510 C   0  0  0  0  0  3  0  0  0  0  0  0
  -27.6550  -37.1460   24.8120 C   0  0  0  0  0  1  0  0  0  0  0  0
  -26.5570  -37.3350   23.8680 N   0  0  0  0  0  0  0  0  0  0  0  0
  -26.1480  -38.2510   24.0350 H   0  0  0  0  0  0  0  0  0  0  0  0
  2 19  1  0
  3  8  1  0
  4  5  1  0
  4  3  1  0
  6  5  1  0
  6 23  1  0
  6  7  1  0
  8  2  1  0
  8  7  1  0
  9  2  2  0
 10 17  1  0
 10 11  2  0
 11 12  1  0
 12 18  2  0
 12 15  1  0
 13  1  1  0
 13 18  1  0
 14 11  1  0
 14 19  1  0
 16 15  1  0
 17 13  2  0
 19 16  1  0
 20 21  2  0
 21 40  1  0
 22 21  1  0
 22 25  1  0
 23 24  1  0
 23 20  1  0
 24 22  2  0
 25 26  1  0
 26 27  2  0
 28 31  1  0
 28 27  1  0
 29 28  2  0
 30 29  1  0
 30 25  2  0
 31 32  1  0
 32 37  2  0
 32 33  1  0
 33 34  2  0
 34 35  1  0
 35 39  1  0
 36 35  2  0
 37 36  1  0
 38 37  1  0
 40 41  1  0
 41 44  1  0
 41 43  1  0
 42 40  2  0
 45 20  1  0
 45 46  1  0
 47 45  1  0
 48 49  1  0
 48 51  1  0
 48  1  1  0
 50 48  1  0
 52 53  1  0
 52 51  1  0
 54 65  2  0
 55 53  1  0
 55 60  1  0
 56 64  1  0
 56 66  1  0
 57 63  1  0
 57 59  1  0
 58 64  1  0
 59 58  1  0
 60 59  2  0
 61 62  1  0
 61 55  2  0
 62 57  2  0
 63 56  1  0
 64 54  1  0
 66 68  2  0
 67 66  1  0
 69 67  1  0
 70 79  2  0
 70 75  1  0
 71 67  1  0
 71 75  1  0
 72 71  1  0
 73 74  1  0
 73 72  1  0
 74 70  1  0
 75 76  2  0
 76 77  1  0
 78 77  2  0
 79 78  1  0
 80 54  1  0
 80 85  1  0
 80 81  1  0
 81 84  1  1
 81 82  1  0
 83 81  1  0
 85 88  1  0
 86 90  1  0
 86 85  1  0
 87 86  2  0
 90 89  1  0
 92 90  1  0
 92 93  1  0
 92 91  1  0
M  ISO  4   2 100  19 100  52 101  53 101
M  END
>  <TORSDO>  (64) 
F 19

>  <SCORE>  (64) 
-12.827

>  <name>  (64) 
63

>  <ligand_id>  (64) 
63

>  <original_smiles>  (64) 
[H]c1nc(C([H])([H])[N+]([H])([H])C([H])([H])C([H])([H])Oc2c([H])c([H])c3c(c2[H])C([H])([H])N(C(=O)C([H])(N([H])C(=O)C([H])(N([H])C([H])([H])[H])C([H])([H])[H])C(C([H])([H])[H])(C([H])([H])[H])C([H])([H])[H])C([H])(C(=O)N([H])C2([H])c4c([H])c([H])c([H])c([H])c4C([H])([H])C([H])([H])C2([H])[H])C3([H])[H])nc2c1C([H])([H])N(C(=O)N1C([H])([H])C([H])([H])C([H])([H])C([H])(n3nc(-c4c([H])c([H])c(Oc5c([H])c([H])c(F)c([H])c5F)c([H])c4[H])c(C(=O)N([H])[H])c3N([H])[H])C1([H])[H])C([H])([H])C2([H])[H]

>  <smiles>  (64) 
[H]c1nc(C([H])([H])[N+]([H])([H])C([H])([H])C([H])([H])Oc2c([H])c([H])c3c(c2[H])C([H])([H])N(C(=O)C([H])(N([H])C(=O)C([H])(N([H])C([H])([H])[H])C([H])([H])[H])C(C([H])([H])[H])(C([H])([H])[H])C([H])([H])[H])C([H])(C(=O)N([H])C2([H])c4c([H])c([H])c([H])c([H])c4C([H])([H])C([H])([H])C2([H])[H])C3([H])[H])nc2c1C([H])([H])N(C(=O)N1C([H])([H])C([H])([H])C([H])([H])C([H])(n3nc(-c4c([H])c([H])c(Oc5c([H])c([H])c(F)c([H])c5F)c([H])c4[H])c(C(=O)N([H])[H])c3N([H])[H])C1([H])[H])C([H])([H])C2([H])[H]

$$$$
64:0:0
     RDKit          3D

 88 97  0  0  1  0  0  0  0  0999 V2000
  -30.9050  -20.9490   19.9050 C   0  0  0  0  0  3  0  0  0  0  0  0
  -30.3460  -23.2550   19.9030 C   0  0  0  0  0  3  0  0  0  0  0  0
  -29.5870  -20.5060   20.1750 C   0  0  0  0  0  0  0  0  0  0  0  0
  -28.9770  -23.0350   20.1750 C   0  0  0  0  0  0  0  0  0  0  0  0
  -31.2680  -22.2590   19.7780 N   0  0  0  0  0  0  0  0  0  0  0  0
  -28.6360  -21.6100   20.3020 N   0  0  0  0  0  0  0  0  0  0  0  0
  -30.4780  -15.1900   20.2120 C   0  0  0  0  0  0  0  0  0  0  0  0
  -30.3560  -12.7830   19.3150 C   0  0  0  0  0  2  0  0  0  0  0  0
  -29.4090  -12.6470   18.0980 C   0  0  0  0  0  2  0  0  0  0  0  0
  -27.9600  -12.4070   18.5580 C   0  0  0  0  0  2  0  0  0  0  0  0
  -27.5500  -13.3420   19.7260 C   0  0  0  0  0  3  0  0  0  0  0  0
  -28.6300  -13.4510   20.8240 C   0  0  0  0  0  2  0  0  0  0  0  0
  -29.8620  -13.9170   20.1680 N   0  0  0  0  0  0  0  0  0  0  0  0
  -31.6860  -15.1730   19.9450 O   0  0  0  0  0  0  0  0  0  0  0  0
  -29.7570  -17.6100   19.2640 C   0  0  0  0  0  2  0  0  0  0  0  0
  -30.1020  -17.6840   21.2070 C   0  0  0  0  0  2  0  0  0  0  0  0
  -29.3720  -18.8000   20.2890 C   0  0  0  0  0  3  0  0  0  0  0  0
  -29.7680  -16.4710   20.3100 N   0  0  0  0  0  0  0  0  0  0  0  0
  -25.1930  -13.8820   20.5480 C   0  0  0  0  0  0  0  0  0  0  0  0
  -24.1420  -13.0950   20.9290 C   0  0  0  0  0  0  0  0  0  0  0  0
  -24.6100  -11.7460   20.8600 C   0  0  0  0  0  0  0  0  0  0  0  0
  -26.2330  -13.0150   20.2640 N   0  0  0  0  0  0  0  0  0  0  0  0
  -25.8940  -11.7240   20.5200 N   0  0  0  0  0  0  0  0  0  0  0  0
  -23.8900  -10.4770   21.0460 C   0  0  0  0  0  0  0  0  0  0  0  0
  -24.3360   -9.5040   21.9670 C   0  0  0  0  0  3  0  0  0  0  0  0
  -23.6160   -8.3030   22.1430 C   0  0  0  0  0  3  0  0  0  0  0  0
  -22.4360   -8.0660   21.3990 C   0  0  0  0  0  0  0  0  0  0  0  0
  -22.0080   -9.0270   20.4680 C   0  0  0  0  0  3  0  0  0  0  0  0
  -22.7270  -10.2210   20.2890 C   0  0  0  0  0  3  0  0  0  0  0  0
  -21.6880   -6.9150   21.4830 O   0  0  0  0  0  0  0  0  0  0  0  0
  -21.6400   -6.1700   22.6320 C   0  0  0  0  0  0  0  0  0  0  0  0
  -21.1890   -6.7140   23.8540 C   0  0  0  0  0  3  0  0  0  0  0  0
  -21.0890   -5.8930   24.9950 C   0  0  0  0  0  3  0  0  0  0  0  0
  -21.4320   -4.5300   24.9170 C   0  0  0  0  0  0  0  0  0  0  0  0
  -21.8760   -3.9850   23.6980 C   0  0  0  0  0  3  0  0  0  0  0  0
  -21.9770   -4.8020   22.5600 C   0  0  0  0  0  0  0  0  0  0  0  0
  -22.3860   -4.2680   21.3850 F   0  0  0  0  0  0  0  0  0  0  0  0
  -21.3300   -3.7410   26.0120 F   0  0  0  0  0  0  0  0  0  0  0  0
  -22.7490  -13.5590   21.2410 C   0  0  0  0  0  0  0  0  0  0  0  0
  -22.0470  -12.8520   22.1190 N   0  0  0  0  0  0  0  0  0  0  0  0
  -22.2950  -14.5870   20.7370 O   0  0  0  0  0  0  0  0  0  0  0  0
  -22.4330  -12.0230   22.5470 H   0  0  0  0  0  0  0  0  0  0  0  0
  -21.1100  -13.1410   22.3620 H   0  0  0  0  0  0  0  0  0  0  0  0
  -25.3520  -15.2560   20.3920 N   0  0  0  0  0  0  0  0  0  0  0  0
  -24.5930  -15.9130   20.5350 H   0  0  0  0  0  0  0  0  0  0  0  0
  -26.2030  -15.7000   20.0690 H   0  0  0  0  0  0  0  0  0  0  0  0
  -27.9320  -24.3960   20.2100 C   0  0  0  0  0  2  0  0  0  0  0  0
  -28.2320  -25.9910   20.2850 O   0  0  0  0  0  0  0  0  0  0  0  0
  -24.6570  -31.8920   23.2590 C   0  0  0  0  0  0  0  0  0  0  0  0
  -27.2020  -27.0520   20.2410 C   0  0  0  0  0  0  0  0  0  0  0  0
  -23.4540  -30.5040   21.6190 C   0  0  0  0  0  3  0  0  0  0  0  0
  -24.8940  -28.8970   20.2020 C   0  0  0  0  0  0  0  0  0  0  0  0
  -26.0180  -30.7190   21.4680 C   0  0  0  0  0  2  0  0  0  0  0  0
  -26.0820  -29.3120   20.8170 C   0  0  0  0  0  0  0  0  0  0  0  0
  -27.2330  -28.4100   20.8120 C   0  0  0  0  0  3  0  0  0  0  0  0
  -25.9810  -26.7730   19.5860 C   0  0  0  0  0  3  0  0  0  0  0  0
  -24.8650  -27.6460   19.5670 C   0  0  0  0  0  3  0  0  0  0  0  0
  -23.6770  -29.8180   20.2450 C   0  0  0  0  0  2  0  0  0  0  0  0
  -24.7310  -31.0630   22.1690 N   0  0  0  0  0  0  0  0  0  0  0  0
  -23.5700  -32.1900   23.7790 O   0  0  0  0  0  0  0  0  0  0  0  0
  -22.7540  -29.5120   22.5860 C   0  0  0  0  0  0  0  0  0  0  0  0
  -21.4240  -29.3530   22.4540 N   0  0  0  0  0  0  0  0  0  0  0  0
  -23.4140  -28.8890   23.4210 O   0  0  0  0  0  0  0  0  0  0  0  0
  -20.9450  -29.9080   21.7590 H   0  0  0  0  0  0  0  0  0  0  0  0
  -18.0350  -28.1590   22.9440 C   0  0  0  0  0  0  0  0  0  0  0  0
  -20.5930  -28.4220   23.2260 C   0  0  0  0  0  3  0  0  0  0  0  0
  -20.6970  -26.9870   22.6600 C   0  0  0  0  0  2  0  0  0  0  0  0
  -19.6030  -26.6590   21.6410 C   0  0  0  0  0  2  0  0  0  0  0  0
  -18.2160  -26.8070   22.2740 C   0  0  0  0  0  2  0  0  0  0  0  0
  -19.1510  -28.9240   23.3780 C   0  0  0  0  0  0  0  0  0  0  0  0
  -18.9290  -30.1860   23.9700 C   0  0  0  0  0  3  0  0  0  0  0  0
  -17.6220  -30.6870   24.1270 C   0  0  0  0  0  3  0  0  0  0  0  0
  -16.5210  -29.9220   23.7100 C   0  0  0  0  0  3  0  0  0  0  0  0
  -16.7270  -28.6580   23.1270 C   0  0  0  0  0  3  0  0  0  0  0  0
  -25.9330  -32.5270   23.8910 C   0  0  0  0  0  3  0  0  0  0  0  0
  -25.6240  -33.9280   24.2250 N   0  0  0  0  0  0  0  0  0  0  0  0
  -25.9350  -34.9850   23.4630 C   0  0  0  0  0  0  0  0  0  0  0  0
  -26.5740  -34.8830   22.4130 O   0  0  0  0  0  0  0  0  0  0  0  0
  -25.0520  -34.0790   25.0430 H   0  0  0  0  0  0  0  0  0  0  0  0
  -24.1840  -36.7730   23.1890 C   0  0  0  0  0  1  0  0  0  0  0  0
  -25.4650  -36.3740   23.9390 C   0  0  0  0  0  3  0  0  0  0  0  0
  -27.6280  -37.2800   24.6640 C   0  0  0  0  0  1  0  0  0  0  0  0
  -26.4830  -37.4330   23.7710 N   0  0  0  0  0  0  0  0  0  0  0  0
  -26.0770  -38.3520   23.9290 H   0  0  0  0  0  0  0  0  0  0  0  0
  -26.4320  -31.7580   25.1770 C   0  0  1  0  0  0  0  0  0  0  0  0
  -25.3300  -31.5300   26.2380 C   0  0  0  0  0  1  0  0  0  0  0  0
  -27.0060  -30.3730   24.8020 C   0  0  0  0  0  1  0  0  0  0  0  0
  -27.5840  -32.5450   25.8450 C   0  0  0  0  0  1  0  0  0  0  0  0
  1  3  1  0
  2  4  2  0
  3  6  2  0
  4 47  1  0
  4  6  1  0
  5  2  1  0
  5  1  2  0
  7 18  1  0
  8 13  1  0
  9 10  1  0
  9  8  1  0
 11 10  1  0
 11 22  1  0
 11 12  1  0
 13  7  1  0
 13 12  1  0
 14  7  2  0
 15 17  1  0
 15 18  1  0
 17  3  1  0
 17 16  1  0
 18 16  1  0
 19 20  2  0
 20 39  1  0
 21 20  1  0
 21 24  1  0
 22 23  1  0
 22 19  1  0
 23 21  2  0
 24 25  1  0
 25 26  2  0
 27 30  1  0
 27 26  1  0
 28 27  2  0
 29 28  1  0
 29 24  2  0
 30 31  1  0
 31 32  1  0
 32 33  2  0
 34 33  1  0
 34 38  1  0
 35 34  2  0
 36 31  2  0
 36 35  1  0
 37 36  1  0
 39 40  1  0
 40 43  1  0
 40 42  1  0
 41 39  2  0
 44 45  1  0
 44 19  1  0
 46 44  1  0
 47 48  1  0
 49 60  2  0
 50 48  1  0
 50 55  1  0
 51 59  1  0
 51 61  1  0
 52 58  1  0
 52 54  1  0
 53 59  1  0
 54 53  1  0
 55 54  2  0
 56 50  2  0
 57 56  1  0
 57 52  2  0
 58 51  1  0
 59 49  1  0
 61 63  2  0
 62 61  1  0
 64 62  1  0
 65 74  2  0
 65 70  1  0
 66 62  1  0
 66 70  1  0
 67 66  1  0
 68 69  1  0
 68 67  1  0
 69 65  1  0
 70 71  2  0
 71 72  1  0
 73 72  2  0
 74 73  1  0
 75 49  1  0
 75 76  1  0
 75 85  1  0
 76 79  1  0
 77 81  1  0
 77 76  1  0
 78 77  2  0
 81 80  1  0
 83 84  1  0
 83 81  1  0
 83 82  1  0
 85 88  1  1
 85 86  1  0
 87 85  1  0
M  ISO  4   7 100  18 100  47 101  48 101
M  END
>  <TORSDO>  (65) 
F 17

>  <SCORE>  (65) 
-16.212

>  <name>  (65) 
64

>  <ligand_id>  (65) 
64

>  <original_smiles>  (65) 
[H]c1nc([H])c(C2([H])C([H])([H])N(C(=O)N3C([H])([H])C([H])([H])C([H])([H])C([H])(n4nc(-c5c([H])c([H])c(Oc6c([H])c([H])c(F)c([H])c6F)c([H])c5[H])c(C(=O)N([H])[H])c4N([H])[H])C3([H])[H])C2([H])[H])nc1C([H])([H])Oc1c([H])c([H])c2c(c1[H])C([H])([H])N(C(=O)C([H])(N([H])C(=O)C([H])(N([H])C([H])([H])[H])C([H])([H])[H])C(C([H])([H])[H])(C([H])([H])[H])C([H])([H])[H])C([H])(C(=O)N([H])C1([H])c3c([H])c([H])c([H])c([H])c3C([H])([H])C([H])([H])C1([H])[H])C2([H])[H]

>  <smiles>  (65) 
[H]c1nc([H])c(C2([H])C([H])([H])N(C(=O)N3C([H])([H])C([H])([H])C([H])([H])C([H])(n4nc(-c5c([H])c([H])c(Oc6c([H])c([H])c(F)c([H])c6F)c([H])c5[H])c(C(=O)N([H])[H])c4N([H])[H])C3([H])[H])C2([H])[H])nc1C([H])([H])Oc1c([H])c([H])c2c(c1[H])C([H])([H])N(C(=O)C([H])(N([H])C(=O)C([H])(N([H])C([H])([H])[H])C([H])([H])[H])C(C([H])([H])[H])(C([H])([H])[H])C([H])([H])[H])C([H])(C(=O)N([H])C1([H])c3c([H])c([H])c([H])c([H])c3C([H])([H])C([H])([H])C1([H])[H])C2([H])[H]

$$$$
65:0:0
     RDKit          3D

 93102  0  0  1  0  0  0  0  0999 V2000
  -28.4230  -21.3540   20.9000 C   0  0  0  0  0  3  0  0  0  0  0  0
  -29.7730  -21.1560   20.5590 C   0  0  0  0  0  0  0  0  0  0  0  0
  -27.8350  -22.6410   20.8120 C   0  0  0  0  0  0  0  0  0  0  0  0
  -30.4820  -22.3400   20.1910 C   0  0  0  0  0  0  0  0  0  0  0  0
  -28.6050  -23.7670   20.3770 C   0  0  0  0  0  0  0  0  0  0  0  0
  -26.3500  -22.7450   21.1390 C   0  0  0  0  0  1  0  0  0  0  0  0
  -31.9650  -22.3010   19.8730 C   0  0  0  0  0  1  0  0  0  0  0  0
  -29.9180  -23.5840   20.0880 N   0  0  0  0  0  0  0  0  0  0  0  0
  -30.8290  -19.2840   22.0540 C   0  0  0  0  0  2  0  0  0  0  0  0
  -31.0040  -17.7430   22.0210 C   0  0  0  0  0  2  0  0  0  0  0  0
  -29.6930  -18.4460   20.1170 C   0  0  0  0  0  2  0  0  0  0  0  0
  -30.4340  -19.7290   20.6370 C   0  0  0  0  0  3  0  0  0  0  0  0
  -30.5810  -17.2520   20.6210 C   0  0  0  0  0  3  0  0  0  0  0  0
  -30.7010  -14.7130   20.2960 C   0  0  0  0  0  0  0  0  0  0  0  0
  -30.3830  -12.4870   19.2480 C   0  0  0  0  0  2  0  0  0  0  0  0
  -29.4300  -12.6160   18.0430 C   0  0  0  0  0  2  0  0  0  0  0  0
  -27.9660  -12.4710   18.5000 C   0  0  0  0  0  2  0  0  0  0  0  0
  -27.6310  -13.3520   19.7320 C   0  0  0  0  0  3  0  0  0  0  0  0
  -28.7090  -13.2340   20.8340 C   0  0  0  0  0  2  0  0  0  0  0  0
  -30.0100  -13.5330   20.2210 N   0  0  0  0  0  0  0  0  0  0  0  0
  -31.8670  -14.7880   19.9020 O   0  0  0  0  0  0  0  0  0  0  0  0
  -30.0190  -15.8520   20.6280 N   0  0  0  0  0  0  0  0  0  0  0  0
  -29.0500  -15.7400   20.8820 H   0  0  0  0  0  0  0  0  0  0  0  0
  -25.2580  -13.9590   20.5020 C   0  0  0  0  0  0  0  0  0  0  0  0
  -24.1910  -13.1900   20.8820 C   0  0  0  0  0  0  0  0  0  0  0  0
  -24.6410  -11.8350   20.8270 C   0  0  0  0  0  0  0  0  0  0  0  0
  -26.2910  -13.0740   20.2410 N   0  0  0  0  0  0  0  0  0  0  0  0
  -25.9260  -11.7910   20.4970 N   0  0  0  0  0  0  0  0  0  0  0  0
  -23.9060  -10.5780   21.0130 C   0  0  0  0  0  0  0  0  0  0  0  0
  -24.3280   -9.6070   21.9490 C   0  0  0  0  0  3  0  0  0  0  0  0
  -23.5940   -8.4140   22.1250 C   0  0  0  0  0  3  0  0  0  0  0  0
  -22.4230   -8.1830   21.3640 C   0  0  0  0  0  0  0  0  0  0  0  0
  -22.0210   -9.1410   20.4170 C   0  0  0  0  0  3  0  0  0  0  0  0
  -22.7550  -10.3250   20.2400 C   0  0  0  0  0  3  0  0  0  0  0  0
  -21.6600   -7.0430   21.4490 O   0  0  0  0  0  0  0  0  0  0  0  0
  -21.5810   -6.3140   22.6080 C   0  0  0  0  0  0  0  0  0  0  0  0
  -21.0800   -6.8720   23.8060 C   0  0  0  0  0  3  0  0  0  0  0  0
  -20.9530   -6.0680   24.9560 C   0  0  0  0  0  3  0  0  0  0  0  0
  -21.3140   -4.7090   24.9100 C   0  0  0  0  0  0  0  0  0  0  0  0
  -21.8080   -4.1510   23.7170 C   0  0  0  0  0  3  0  0  0  0  0  0
  -21.9380   -4.9510   22.5700 C   0  0  0  0  0  0  0  0  0  0  0  0
  -22.3950   -4.4050   21.4170 F   0  0  0  0  0  0  0  0  0  0  0  0
  -21.1840   -3.9340   26.0130 F   0  0  0  0  0  0  0  0  0  0  0  0
  -22.8030  -13.6760   21.1830 C   0  0  0  0  0  0  0  0  0  0  0  0
  -22.0830  -12.9720   22.0500 N   0  0  0  0  0  0  0  0  0  0  0  0
  -22.3670  -14.7130   20.6850 O   0  0  0  0  0  0  0  0  0  0  0  0
  -22.4510  -12.1330   22.4730 H   0  0  0  0  0  0  0  0  0  0  0  0
  -21.1520  -13.2770   22.2960 H   0  0  0  0  0  0  0  0  0  0  0  0
  -25.4300  -15.3300   20.3360 N   0  0  0  0  0  0  0  0  0  0  0  0
  -24.6670  -15.9870   20.4620 H   0  0  0  0  0  0  0  0  0  0  0  0
  -26.2700  -15.7650   19.9780 H   0  0  0  0  0  0  0  0  0  0  0  0
  -27.8870  -25.1030   19.9460 C   0  0  0  0  0  2  0  0  0  0  0  0
  -28.2900  -26.5000   20.2660 O   0  0  0  0  0  0  0  0  0  0  0  0
  -24.6290  -31.9420   23.3080 C   0  0  0  0  0  0  0  0  0  0  0  0
  -27.2250  -27.4270   20.1700 C   0  0  0  0  0  0  0  0  0  0  0  0
  -23.4220  -30.5660   21.6570 C   0  0  0  0  0  3  0  0  0  0  0  0
  -24.8690  -29.0590   20.1940 C   0  0  0  0  0  0  0  0  0  0  0  0
  -25.9640  -30.8850   21.4750 C   0  0  0  0  0  2  0  0  0  0  0  0
  -26.0420  -29.5210   20.8050 C   0  0  0  0  0  0  0  0  0  0  0  0
  -27.2220  -28.7120   20.8000 C   0  0  0  0  0  3  0  0  0  0  0  0
  -26.0360  -27.0670   19.4800 C   0  0  0  0  0  3  0  0  0  0  0  0
  -24.8690  -27.8360   19.5230 C   0  0  0  0  0  3  0  0  0  0  0  0
  -23.6300  -29.9240   20.2640 C   0  0  0  0  0  2  0  0  0  0  0  0
  -24.6910  -31.1460   22.2030 N   0  0  0  0  0  0  0  0  0  0  0  0
  -23.5470  -32.2110   23.8480 O   0  0  0  0  0  0  0  0  0  0  0  0
  -22.7670  -29.5280   22.6010 C   0  0  0  0  0  0  0  0  0  0  0  0
  -21.4450  -29.3330   22.4610 N   0  0  0  0  0  0  0  0  0  0  0  0
  -23.4480  -28.9040   23.4180 O   0  0  0  0  0  0  0  0  0  0  0  0
  -20.9550  -29.8910   21.7760 H   0  0  0  0  0  0  0  0  0  0  0  0
  -18.0750  -28.1060   22.9420 C   0  0  0  0  0  0  0  0  0  0  0  0
  -20.6320  -28.3810   23.2200 C   0  0  0  0  0  3  0  0  0  0  0  0
  -20.7450  -26.9560   22.6310 C   0  0  0  0  0  2  0  0  0  0  0  0
  -19.6470  -26.6350   21.6120 C   0  0  0  0  0  2  0  0  0  0  0  0
  -18.2630  -26.7640   22.2540 C   0  0  0  0  0  2  0  0  0  0  0  0
  -19.1880  -28.8730   23.3810 C   0  0  0  0  0  0  0  0  0  0  0  0
  -18.9580  -30.1290   23.9840 C   0  0  0  0  0  3  0  0  0  0  0  0
  -17.6500  -30.6200   24.1500 C   0  0  0  0  0  3  0  0  0  0  0  0
  -16.5520  -29.8500   23.7280 C   0  0  0  0  0  3  0  0  0  0  0  0
  -16.7650  -28.5950   23.1310 C   0  0  0  0  0  3  0  0  0  0  0  0
  -25.9140  -32.5700   23.9310 C   0  0  0  0  0  3  0  0  0  0  0  0
  -25.6080  -33.9690   24.2580 N   0  0  0  0  0  0  0  0  0  0  0  0
  -25.9070  -35.0150   23.4760 C   0  0  0  0  0  0  0  0  0  0  0  0
  -26.5410  -34.9040   22.4230 O   0  0  0  0  0  0  0  0  0  0  0  0
  -25.0440  -34.1290   25.0780 H   0  0  0  0  0  0  0  0  0  0  0  0
  -24.1450  -36.7860   23.1820 C   0  0  0  0  0  1  0  0  0  0  0  0
  -25.4290  -36.4060   23.9360 C   0  0  0  0  0  3  0  0  0  0  0  0
  -27.5880  -37.3300   24.6550 C   0  0  0  0  0  1  0  0  0  0  0  0
  -26.4440  -37.4670   23.7570 N   0  0  0  0  0  0  0  0  0  0  0  0
  -26.0330  -38.3860   23.9050 H   0  0  0  0  0  0  0  0  0  0  0  0
  -26.4230  -31.7980   25.2100 C   0  0  1  0  0  0  0  0  0  0  0  0
  -25.3220  -31.5540   26.2690 C   0  0  0  0  0  1  0  0  0  0  0  0
  -27.0150  -30.4220   24.8220 C   0  0  0  0  0  1  0  0  0  0  0  0
  -27.5660  -32.5960   25.8800 C   0  0  0  0  0  1  0  0  0  0  0  0
  2  1  2  0
  3  1  1  0
  3  6  1  0
  4  2  1  0
  5  3  2  0
  7  4  1  0
  8  4  2  0
  8  5  1  0
 10  9  1  0
 11 13  1  0
 11 12  1  0
 12  2  1  0
 12  9  1  0
 13 22  1  0
 13 10  1  0
 14 22  1  0
 15 20  1  0
 16 17  1  0
 16 15  1  0
 18 17  1  0
 18 27  1  0
 18 19  1  0
 20 14  1  0
 20 19  1  0
 21 14  2  0
 22 23  1  0
 24 25  2  0
 25 44  1  0
 26 25  1  0
 26 29  1  0
 27 28  1  0
 27 24  1  0
 28 26  2  0
 29 30  1  0
 30 31  2  0
 32 35  1  0
 32 31  1  0
 33 32  2  0
 34 33  1  0
 34 29  2  0
 35 36  1  0
 36 37  1  0
 37 38  2  0
 39 38  1  0
 39 43  1  0
 40 39  2  0
 41 36  2  0
 41 40  1  0
 42 41  1  0
 44 45  1  0
 45 48  1  0
 45 47  1  0
 46 44  2  0
 49 50  1  0
 49 24  1  0
 51 49  1  0
 52 53  1  0
 52  5  1  0
 54 65  2  0
 55 53  1  0
 55 60  1  0
 56 64  1  0
 56 66  1  0
 57 63  1  0
 57 59  1  0
 58 64  1  0
 59 58  1  0
 60 59  2  0
 61 62  1  0
 61 55  2  0
 62 57  2  0
 63 56  1  0
 64 54  1  0
 66 68  2  0
 67 66  1  0
 69 67  1  0
 70 79  2  0
 70 75  1  0
 71 67  1  0
 71 75  1  0
 72 71  1  0
 73 74  1  0
 73 72  1  0
 74 70  1  0
 75 76  2  0
 76 77  1  0
 78 77  2  0
 79 78  1  0
 80 54  1  0
 80 81  1  0
 80 90  1  0
 81 84  1  0
 82 86  1  0
 82 81  1  0
 83 82  2  0
 86 85  1  0
 88 89  1  0
 88 86  1  0
 88 87  1  0
 90 93  1  1
 90 91  1  0
 92 90  1  0
M  ISO  4  14 100  22 100  52 101  53 101
M  END
>  <TORSDO>  (66) 
F 18

>  <SCORE>  (66) 
-14.710

>  <name>  (66) 
65

>  <ligand_id>  (66) 
65

>  <original_smiles>  (66) 
[H]c1c([H])c([H])c2c(c1[H])C([H])([H])C([H])([H])C([H])([H])C2([H])N([H])C(=O)C1([H])N(C(=O)C([H])(N([H])C(=O)C([H])(N([H])C([H])([H])[H])C([H])([H])[H])C(C([H])([H])[H])(C([H])([H])[H])C([H])([H])[H])C([H])([H])c2c([H])c(OC([H])([H])c3nc(C([H])([H])[H])c(C4([H])C([H])([H])C([H])([H])C([H])(N([H])C(=O)N5C([H])([H])C([H])([H])C([H])([H])C([H])(n6nc(-c7c([H])c([H])c(Oc8c([H])c([H])c(F)c([H])c8F)c([H])c7[H])c(C(=O)N([H])[H])c6N([H])[H])C5([H])[H])C4([H])[H])c([H])c3C([H])([H])[H])c([H])c([H])c2C1([H])[H]

>  <smiles>  (66) 
[H]c1c([H])c([H])c2c(c1[H])C([H])([H])C([H])([H])C([H])([H])C2([H])N([H])C(=O)C1([H])N(C(=O)C([H])(N([H])C(=O)C([H])(N([H])C([H])([H])[H])C([H])([H])[H])C(C([H])([H])[H])(C([H])([H])[H])C([H])([H])[H])C([H])([H])c2c([H])c(OC([H])([H])c3nc(C([H])([H])[H])c(C4([H])C([H])([H])C([H])([H])C([H])(N([H])C(=O)N5C([H])([H])C([H])([H])C([H])([H])C([H])(n6nc(-c7c([H])c([H])c(Oc8c([H])c([H])c(F)c([H])c8F)c([H])c7[H])c(C(=O)N([H])[H])c6N([H])[H])C5([H])[H])C4([H])[H])c([H])c3C([H])([H])[H])c([H])c([H])c2C1([H])[H]

$$$$
66:0:0
     RDKit          3D

 92101  0  0  1  0  0  0  0  0999 V2000
  -29.0410  -22.7960   19.0640 C   0  0  0  0  0  2  0  0  0  0  0  0
  -28.7410  -22.9240   21.5290 C   0  0  0  0  0  2  0  0  0  0  0  0
  -28.8970  -24.3610   18.9600 C   0  0  0  0  0  2  0  0  0  0  0  0
  -28.6590  -24.4730   21.5000 C   0  0  0  0  0  2  0  0  0  0  0  0
  -29.6810  -22.3830   20.4140 C   0  0  0  0  0  3  0  0  0  0  0  0
  -28.1670  -25.0520   20.1560 C   0  0  0  0  0  3  0  0  0  0  0  0
  -30.5540  -20.6760   22.0100 C   0  0  0  0  0  1  0  0  0  0  0  0
  -30.2100  -20.9620   20.5910 N   0  0  1  0  0  4  0  0  0  0  0  0
  -31.1180  -21.0210   20.1520 H   0  0  0  0  0  0  0  0  0  0  0  0
  -29.5920  -19.7800   19.8670 C   0  0  0  0  0  2  0  0  0  0  0  0
  -31.3350  -17.8070   20.2190 C   0  0  0  0  0  2  0  0  0  0  0  0
  -29.9450  -18.3650   20.4690 C   0  0  0  0  0  3  0  0  0  0  0  0
  -30.1520  -17.0130   19.7220 C   0  0  0  0  0  3  0  0  0  0  0  0
  -30.6390  -14.5900   20.2590 C   0  0  0  0  0  0  0  0  0  0  0  0
  -30.3430  -12.3570   19.2760 C   0  0  0  0  0  2  0  0  0  0  0  0
  -29.3950  -12.5210   18.0710 C   0  0  0  0  0  2  0  0  0  0  0  0
  -27.9210  -12.4030   18.5110 C   0  0  0  0  0  2  0  0  0  0  0  0
  -27.5910  -13.2670   19.7570 C   0  0  0  0  0  3  0  0  0  0  0  0
  -28.6660  -13.1170   20.8580 C   0  0  0  0  0  2  0  0  0  0  0  0
  -29.9750  -13.3960   20.2520 N   0  0  0  0  0  0  0  0  0  0  0  0
  -31.8190  -14.6790   19.9210 O   0  0  0  0  0  0  0  0  0  0  0  0
  -29.8680  -15.7100   20.3420 N   0  0  0  0  0  0  0  0  0  0  0  0
  -28.9030  -15.5400   20.5790 H   0  0  0  0  0  0  0  0  0  0  0  0
  -25.2110  -13.8820   20.5100 C   0  0  0  0  0  0  0  0  0  0  0  0
  -24.1420  -13.1170   20.8890 C   0  0  0  0  0  0  0  0  0  0  0  0
  -24.5910  -11.7620   20.8500 C   0  0  0  0  0  0  0  0  0  0  0  0
  -26.2460  -12.9940   20.2630 N   0  0  0  0  0  0  0  0  0  0  0  0
  -25.8790  -11.7120   20.5280 N   0  0  0  0  0  0  0  0  0  0  0  0
  -23.8540  -10.5070   21.0420 C   0  0  0  0  0  0  0  0  0  0  0  0
  -24.2890   -9.5280   21.9640 C   0  0  0  0  0  3  0  0  0  0  0  0
  -23.5550   -8.3360   22.1430 C   0  0  0  0  0  3  0  0  0  0  0  0
  -22.3700   -8.1150   21.4030 C   0  0  0  0  0  0  0  0  0  0  0  0
  -21.9520   -9.0810   20.4710 C   0  0  0  0  0  3  0  0  0  0  0  0
  -22.6880  -10.2630   20.2880 C   0  0  0  0  0  3  0  0  0  0  0  0
  -21.6030   -6.9780   21.4950 O   0  0  0  0  0  0  0  0  0  0  0  0
  -21.5620   -6.2260   22.6430 C   0  0  0  0  0  0  0  0  0  0  0  0
  -21.1570   -6.7760   23.8780 C   0  0  0  0  0  3  0  0  0  0  0  0
  -21.0650   -5.9510   25.0190 C   0  0  0  0  0  3  0  0  0  0  0  0
  -21.3680   -4.5800   24.9230 C   0  0  0  0  0  0  0  0  0  0  0  0
  -21.7650   -4.0290   23.6910 C   0  0  0  0  0  3  0  0  0  0  0  0
  -21.8590   -4.8520   22.5530 C   0  0  0  0  0  0  0  0  0  0  0  0
  -22.2220   -4.3120   21.3660 F   0  0  0  0  0  0  0  0  0  0  0  0
  -21.2710   -3.7870   26.0150 F   0  0  0  0  0  0  0  0  0  0  0  0
  -22.7510  -13.6070   21.1730 C   0  0  0  0  0  0  0  0  0  0  0  0
  -22.0210  -12.9170   22.0420 N   0  0  0  0  0  0  0  0  0  0  0  0
  -22.3200  -14.6380   20.6590 O   0  0  0  0  0  0  0  0  0  0  0  0
  -22.3780  -12.0840   22.4850 H   0  0  0  0  0  0  0  0  0  0  0  0
  -21.0890  -13.2320   22.2710 H   0  0  0  0  0  0  0  0  0  0  0  0
  -25.3860  -15.2520   20.3370 N   0  0  0  0  0  0  0  0  0  0  0  0
  -24.6270  -15.9140   20.4730 H   0  0  0  0  0  0  0  0  0  0  0  0
  -26.2340  -15.6890   20.0010 H   0  0  0  0  0  0  0  0  0  0  0  0
  -28.3200  -26.5200   20.1610 O   0  0  0  0  0  0  0  0  0  0  0  0
  -24.6070  -31.8820   23.2430 C   0  0  0  0  0  0  0  0  0  0  0  0
  -27.1880  -27.3340   20.1570 C   0  0  0  0  0  0  0  0  0  0  0  0
  -23.3930  -30.4830   21.6090 C   0  0  0  0  0  3  0  0  0  0  0  0
  -24.8290  -28.9320   20.1760 C   0  0  0  0  0  0  0  0  0  0  0  0
  -25.9320  -30.7930   21.4190 C   0  0  0  0  0  2  0  0  0  0  0  0
  -25.9990  -29.4150   20.7730 C   0  0  0  0  0  0  0  0  0  0  0  0
  -27.1820  -28.6250   20.7610 C   0  0  0  0  0  3  0  0  0  0  0  0
  -26.0010  -26.9040   19.5230 C   0  0  0  0  0  3  0  0  0  0  0  0
  -24.8290  -27.6800   19.5430 C   0  0  0  0  0  3  0  0  0  0  0  0
  -23.5990  -29.8090   20.2270 C   0  0  0  0  0  2  0  0  0  0  0  0
  -24.6630  -31.0720   22.1450 N   0  0  0  0  0  0  0  0  0  0  0  0
  -23.5270  -32.1630   23.7810 O   0  0  0  0  0  0  0  0  0  0  0  0
  -22.7340  -29.4670   22.5700 C   0  0  0  0  0  0  0  0  0  0  0  0
  -21.4080  -29.2930   22.4490 N   0  0  0  0  0  0  0  0  0  0  0  0
  -23.4160  -28.8380   23.3850 O   0  0  0  0  0  0  0  0  0  0  0  0
  -20.9220  -29.8580   21.7660 H   0  0  0  0  0  0  0  0  0  0  0  0
  -18.0260  -28.1120   22.9570 C   0  0  0  0  0  0  0  0  0  0  0  0
  -20.5860  -28.3600   23.2210 C   0  0  0  0  0  3  0  0  0  0  0  0
  -20.6800  -26.9280   22.6460 C   0  0  0  0  0  2  0  0  0  0  0  0
  -19.5750  -26.6070   21.6350 C   0  0  0  0  0  2  0  0  0  0  0  0
  -18.1960  -26.7610   22.2830 C   0  0  0  0  0  2  0  0  0  0  0  0
  -19.1490  -28.8700   23.3840 C   0  0  0  0  0  0  0  0  0  0  0  0
  -18.9350  -30.1330   23.9730 C   0  0  0  0  0  3  0  0  0  0  0  0
  -17.6340  -30.6420   24.1390 C   0  0  0  0  0  3  0  0  0  0  0  0
  -16.5260  -29.8790   23.7310 C   0  0  0  0  0  3  0  0  0  0  0  0
  -16.7230  -28.6160   23.1470 C   0  0  0  0  0  3  0  0  0  0  0  0
  -25.8970  -32.5080   23.8590 C   0  0  0  0  0  3  0  0  0  0  0  0
  -26.4160  -31.7350   25.1340 C   0  0  1  0  0  0  0  0  0  0  0  0
  -25.3280  -31.4990   26.2090 C   0  0  0  0  0  1  0  0  0  0  0  0
  -26.9880  -30.3550   24.7370 C   0  0  0  0  0  1  0  0  0  0  0  0
  -27.5750  -32.5230   25.7900 C   0  0  0  0  0  1  0  0  0  0  0  0
  -25.5960  -33.9070   24.1940 N   0  0  0  0  0  0  0  0  0  0  0  0
  -25.9190  -34.9570   23.4290 C   0  0  0  0  0  0  0  0  0  0  0  0
  -26.5770  -34.8510   22.3890 O   0  0  0  0  0  0  0  0  0  0  0  0
  -25.0220  -34.0630   25.0090 H   0  0  0  0  0  0  0  0  0  0  0  0
  -24.1950  -36.7540   23.0790 C   0  0  0  0  0  1  0  0  0  0  0  0
  -25.4390  -36.3480   23.8870 C   0  0  0  0  0  3  0  0  0  0  0  0
  -27.5800  -37.2300   24.7030 C   0  0  0  0  0  1  0  0  0  0  0  0
  -26.4740  -37.3970   23.7640 N   0  0  0  0  0  0  0  0  0  0  0  0
  -26.0740  -38.3220   23.8970 H   0  0  0  0  0  0  0  0  0  0  0  0
  1  5  1  0
  3  1  1  0
  3  6  1  0
  4  2  1  0
  5  8  1  0
  5  2  1  0
  6 52  1  0
  6  4  1  0
  8  7  1  0
  8  9  1  6
 10  8  1  0
 11 12  1  0
 12 10  1  0
 13 11  1  0
 13 22  1  0
 13 12  1  0
 14 22  1  0
 15 20  1  0
 16 17  1  0
 16 15  1  0
 18 17  1  0
 18 27  1  0
 18 19  1  0
 20 14  1  0
 20 19  1  0
 21 14  2  0
 22 23  1  0
 24 25  2  0
 25 44  1  0
 26 25  1  0
 26 29  1  0
 27 24  1  0
 27 28  1  0
 28 26  2  0
 29 30  1  0
 30 31  2  0
 32 35  1  0
 32 31  1  0
 33 32  2  0
 34 33  1  0
 34 29  2  0
 35 36  1  0
 36 37  1  0
 37 38  2  0
 39 38  1  0
 39 43  1  0
 40 39  2  0
 41 36  2  0
 41 40  1  0
 42 41  1  0
 44 45  1  0
 45 48  1  0
 45 47  1  0
 46 44  2  0
 49 50  1  0
 49 24  1  0
 51 49  1  0
 53 64  2  0
 54 52  1  0
 54 59  1  0
 55 63  1  0
 55 65  1  0
 56 62  1  0
 56 58  1  0
 57 63  1  0
 58 57  1  0
 59 58  2  0
 60 61  1  0
 60 54  2  0
 61 56  2  0
 62 55  1  0
 63 53  1  0
 65 67  2  0
 66 65  1  0
 68 66  1  0
 69 78  2  0
 69 74  1  0
 70 66  1  0
 70 74  1  0
 71 70  1  0
 72 73  1  0
 72 71  1  0
 73 69  1  0
 74 75  2  0
 75 76  1  0
 77 76  2  0
 78 77  1  0
 79 53  1  0
 79 84  1  0
 79 80  1  0
 80 83  1  1
 80 81  1  0
 82 80  1  0
 84 87  1  0
 85 89  1  0
 85 84  1  0
 86 85  2  0
 89 88  1  0
 91 89  1  0
 91 92  1  0
 91 90  1  0
M  ISO  4   6 101  14 100  22 100  52 101
M  END
>  <TORSDO>  (67) 
F 19

>  <SCORE>  (67) 
-14.303

>  <name>  (67) 
66

>  <ligand_id>  (67) 
66

>  <original_smiles>  (67) 
[H]c1c([H])c([H])c2c(c1[H])C([H])([H])C([H])([H])C([H])([H])C2([H])N([H])C(=O)C1([H])N(C(=O)C([H])(N([H])C(=O)C([H])(N([H])C([H])([H])[H])C([H])([H])[H])C(C([H])([H])[H])(C([H])([H])[H])C([H])([H])[H])C([H])([H])c2c([H])c(OC3([H])C([H])([H])C([H])([H])C([H])([N+]([H])(C([H])([H])[H])C([H])([H])C4([H])C([H])([H])C4([H])N([H])C(=O)N4C([H])([H])C([H])([H])C([H])([H])C([H])(n5nc(-c6c([H])c([H])c(Oc7c([H])c([H])c(F)c([H])c7F)c([H])c6[H])c(C(=O)N([H])[H])c5N([H])[H])C4([H])[H])C([H])([H])C3([H])[H])c([H])c([H])c2C1([H])[H]

>  <smiles>  (67) 
[H]c1c([H])c([H])c2c(c1[H])C([H])([H])C([H])([H])C([H])([H])C2([H])N([H])C(=O)C1([H])N(C(=O)C([H])(N([H])C(=O)C([H])(N([H])C([H])([H])[H])C([H])([H])[H])C(C([H])([H])[H])(C([H])([H])[H])C([H])([H])[H])C([H])([H])c2c([H])c(OC3([H])C([H])([H])C([H])([H])C([H])([N+]([H])(C([H])([H])[H])C([H])([H])C4([H])C([H])([H])C4([H])N([H])C(=O)N4C([H])([H])C([H])([H])C([H])([H])C([H])(n5nc(-c6c([H])c([H])c(Oc7c([H])c([H])c(F)c([H])c7F)c([H])c6[H])c(C(=O)N([H])[H])c5N([H])[H])C4([H])[H])C([H])([H])C3([H])[H])c([H])c([H])c2C1([H])[H]

$$$$
67:0:0
     RDKit          3D

 93102  0  0  1  0  0  0  0  0999 V2000
  -29.0580  -19.2140   21.3440 C   0  0  0  0  0  3  0  0  0  0  0  0
  -30.2480  -18.8640   20.6700 C   0  0  0  0  0  0  0  0  0  0  0  0
  -30.9140  -19.9990   20.1150 C   0  0  0  0  0  0  0  0  0  0  0  0
  -29.2840  -21.4650   20.8450 C   0  0  0  0  0  0  0  0  0  0  0  0
  -32.2300  -19.8730   19.3730 C   0  0  0  0  0  1  0  0  0  0  0  0
  -28.5880  -20.4910   21.4190 N   0  0  0  0  0  0  0  0  0  0  0  0
  -30.4260  -21.2710   20.2000 N   0  0  0  0  0  0  0  0  0  0  0  0
  -28.7420  -22.7570   20.9670 N   0  0  0  0  0  0  0  0  0  0  0  0
  -27.8770  -22.7800   21.4920 H   0  0  0  0  0  0  0  0  0  0  0  0
  -30.8500  -17.3900   20.6370 C   0  0  0  0  0  2  0  0  0  0  0  0
  -30.8530  -14.9210   20.2030 C   0  0  0  0  0  0  0  0  0  0  0  0
  -30.5970  -12.6440   19.2370 C   0  0  0  0  0  2  0  0  0  0  0  0
  -29.6270  -12.6440   18.0370 C   0  0  0  0  0  2  0  0  0  0  0  0
  -28.1650  -12.5020   18.5120 C   0  0  0  0  0  2  0  0  0  0  0  0
  -27.8060  -13.3930   19.7320 C   0  0  0  0  0  3  0  0  0  0  0  0
  -28.9090  -13.3860   20.8130 C   0  0  0  0  0  2  0  0  0  0  0  0
  -30.1740  -13.7240   20.1500 N   0  0  0  0  0  0  0  0  0  0  0  0
  -32.0790  -14.9290   20.0800 O   0  0  0  0  0  0  0  0  0  0  0  0
  -30.1580  -16.1330   20.1090 N   0  0  0  0  0  0  0  0  0  0  0  0
  -25.4440  -13.9530   20.5600 C   0  0  0  0  0  0  0  0  0  0  0  0
  -24.3940  -13.1610   20.9320 C   0  0  0  0  0  0  0  0  0  0  0  0
  -24.8710  -11.8170   20.8600 C   0  0  0  0  0  0  0  0  0  0  0  0
  -26.4880  -13.0880   20.2720 N   0  0  0  0  0  0  0  0  0  0  0  0
  -26.1540  -11.7980   20.5210 N   0  0  0  0  0  0  0  0  0  0  0  0
  -24.1660  -10.5440   21.0370 C   0  0  0  0  0  0  0  0  0  0  0  0
  -24.6050   -9.5840   21.9750 C   0  0  0  0  0  3  0  0  0  0  0  0
  -23.8980   -8.3740   22.1410 C   0  0  0  0  0  3  0  0  0  0  0  0
  -22.7420   -8.1160   21.3690 C   0  0  0  0  0  0  0  0  0  0  0  0
  -22.3240   -9.0650   20.4190 C   0  0  0  0  0  3  0  0  0  0  0  0
  -23.0310  -10.2670   20.2510 C   0  0  0  0  0  3  0  0  0  0  0  0
  -22.0060   -6.9590   21.4460 O   0  0  0  0  0  0  0  0  0  0  0  0
  -21.9110   -6.2450   22.6130 C   0  0  0  0  0  0  0  0  0  0  0  0
  -21.3640   -6.8050   23.7880 C   0  0  0  0  0  3  0  0  0  0  0  0
  -21.2210   -6.0140   24.9450 C   0  0  0  0  0  3  0  0  0  0  0  0
  -21.6130   -4.6620   24.9270 C   0  0  0  0  0  0  0  0  0  0  0  0
  -22.1530   -4.1000   23.7560 C   0  0  0  0  0  3  0  0  0  0  0  0
  -22.2990   -4.8900   22.6020 C   0  0  0  0  0  0  0  0  0  0  0  0
  -22.7990   -4.3380   21.4690 F   0  0  0  0  0  0  0  0  0  0  0  0
  -21.4680   -3.8980   26.0350 F   0  0  0  0  0  0  0  0  0  0  0  0
  -23.0000  -13.6180   21.2450 C   0  0  0  0  0  0  0  0  0  0  0  0
  -22.2940  -12.8840   22.0980 N   0  0  0  0  0  0  0  0  0  0  0  0
  -22.5450  -14.6580   20.7710 O   0  0  0  0  0  0  0  0  0  0  0  0
  -22.6750  -12.0410   22.5030 H   0  0  0  0  0  0  0  0  0  0  0  0
  -21.3580  -13.1690   22.3530 H   0  0  0  0  0  0  0  0  0  0  0  0
  -25.5900  -15.3300   20.4210 N   0  0  0  0  0  0  0  0  0  0  0  0
  -24.8310  -15.9790   20.5970 H   0  0  0  0  0  0  0  0  0  0  0  0
  -26.4460  -15.7850   20.1340 H   0  0  0  0  0  0  0  0  0  0  0  0
  -27.9890  -16.9580   18.9820 C   0  0  0  0  0  2  0  0  0  0  0  0
  -29.0710  -17.5600   18.1260 C   0  0  0  0  0  2  0  0  0  0  0  0
  -29.3450  -16.2840   18.9050 C   0  0  0  0  0  3  0  0  0  0  0  0
  -29.2140  -24.0890   20.4780 C   0  0  0  0  0  2  0  0  0  0  0  0
  -28.1760  -25.2670   20.7330 C   0  0  0  0  0  2  0  0  0  0  0  0
  -28.4300  -26.6490   20.2620 O   0  0  0  0  0  0  0  0  0  0  0  0
  -24.6090  -31.9860   23.2530 C   0  0  0  0  0  0  0  0  0  0  0  0
  -27.3120  -27.4940   20.2060 C   0  0  0  0  0  0  0  0  0  0  0  0
  -23.4410  -30.5810   21.5910 C   0  0  0  0  0  3  0  0  0  0  0  0
  -24.9280  -29.0660   20.1700 C   0  0  0  0  0  0  0  0  0  0  0  0
  -25.9760  -30.9410   21.4360 C   0  0  0  0  0  2  0  0  0  0  0  0
  -26.0820  -29.5690   20.7840 C   0  0  0  0  0  0  0  0  0  0  0  0
  -27.2800  -28.7940   20.7930 C   0  0  0  0  0  3  0  0  0  0  0  0
  -26.1430  -27.0530   19.5470 C   0  0  0  0  0  3  0  0  0  0  0  0
  -24.9600  -27.8130   19.5400 C   0  0  0  0  0  3  0  0  0  0  0  0
  -23.6780  -29.9180   20.2090 C   0  0  0  0  0  2  0  0  0  0  0  0
  -24.6930  -31.1860   22.1500 N   0  0  0  0  0  0  0  0  0  0  0  0
  -23.5170  -32.2450   23.7790 O   0  0  0  0  0  0  0  0  0  0  0  0
  -22.7840  -29.5490   22.5380 C   0  0  0  0  0  0  0  0  0  0  0  0
  -21.4620  -29.3570   22.3980 N   0  0  0  0  0  0  0  0  0  0  0  0
  -23.4630  -28.9240   23.3570 O   0  0  0  0  0  0  0  0  0  0  0  0
  -20.9730  -29.9140   21.7110 H   0  0  0  0  0  0  0  0  0  0  0  0
  -18.0840  -28.1660   22.9040 C   0  0  0  0  0  0  0  0  0  0  0  0
  -20.6460  -28.4060   23.1550 C   0  0  0  0  0  3  0  0  0  0  0  0
  -20.7350  -26.9870   22.5460 C   0  0  0  0  0  2  0  0  0  0  0  0
  -19.6220  -26.6940   21.5350 C   0  0  0  0  0  2  0  0  0  0  0  0
  -18.2470  -26.8310   22.1960 C   0  0  0  0  0  2  0  0  0  0  0  0
  -19.2100  -28.9120   23.3400 C   0  0  0  0  0  0  0  0  0  0  0  0
  -19.0030  -30.1630   23.9620 C   0  0  0  0  0  3  0  0  0  0  0  0
  -17.7030  -30.6670   24.1520 C   0  0  0  0  0  3  0  0  0  0  0  0
  -16.5910  -29.9170   23.7310 C   0  0  0  0  0  3  0  0  0  0  0  0
  -16.7820  -28.6680   23.1130 C   0  0  0  0  0  3  0  0  0  0  0  0
  -25.8780  -32.6300   23.8920 C   0  0  0  0  0  3  0  0  0  0  0  0
  -26.3820  -31.8670   25.1780 C   0  0  1  0  0  0  0  0  0  0  0  0
  -25.2700  -31.6060   26.2200 C   0  0  0  0  0  1  0  0  0  0  0  0
  -27.0030  -30.5020   24.7970 C   0  0  0  0  0  1  0  0  0  0  0  0
  -27.5000  -32.6840   25.8670 C   0  0  0  0  0  1  0  0  0  0  0  0
  -25.5530  -34.0260   24.2130 N   0  0  0  0  0  0  0  0  0  0  0  0
  -25.8970  -35.0810   23.4620 C   0  0  0  0  0  0  0  0  0  0  0  0
  -26.5920  -34.9810   22.4470 O   0  0  0  0  0  0  0  0  0  0  0  0
  -24.9380  -34.1780   24.9990 H   0  0  0  0  0  0  0  0  0  0  0  0
  -24.1820  -36.8740   23.0480 C   0  0  0  0  0  1  0  0  0  0  0  0
  -25.3900  -36.4670   23.9060 C   0  0  0  0  0  3  0  0  0  0  0  0
  -27.4830  -37.3560   24.8320 C   0  0  0  0  0  1  0  0  0  0  0  0
  -26.4250  -37.5220   23.8390 N   0  0  0  0  0  0  0  0  0  0  0  0
  -26.0110  -38.4410   23.9670 H   0  0  0  0  0  0  0  0  0  0  0  0
  1  6  1  0
  2  1  2  0
  3  7  2  0
  3  2  1  0
  4  8  1  0
  4  6  2  0
  5  3  1  0
  7  4  1  0
  8  9  1  0
 10  2  1  0
 12 17  1  0
 13 14  1  0
 13 12  1  0
 15 14  1  0
 15 23  1  0
 15 16  1  0
 17 11  1  0
 17 16  1  0
 18 11  2  0
 19 11  1  0
 19 10  1  0
 20 21  2  0
 21 40  1  0
 22 21  1  0
 22 25  1  0
 23 24  1  0
 23 20  1  0
 24 22  2  0
 25 26  1  0
 26 27  2  0
 28 31  1  0
 28 27  1  0
 29 28  2  0
 30 29  1  0
 30 25  2  0
 31 32  1  0
 32 33  1  0
 33 34  2  0
 35 34  1  0
 35 39  1  0
 36 35  2  0
 37 32  2  0
 37 36  1  0
 38 37  1  0
 40 41  1  0
 41 44  1  0
 41 43  1  0
 42 40  2  0
 45 20  1  0
 45 46  1  0
 47 45  1  0
 49 50  1  0
 49 48  1  0
 50 48  1  0
 50 19  1  0
 51 52  1  0
 51  8  1  0
 53 52  1  0
 54 65  2  0
 55 53  1  0
 55 60  1  0
 56 64  1  0
 56 66  1  0
 57 63  1  0
 57 59  1  0
 58 64  1  0
 59 60  2  0
 59 58  1  0
 61 55  2  0
 62 61  1  0
 62 57  2  0
 63 56  1  0
 64 54  1  0
 66 68  2  0
 67 66  1  0
 69 67  1  0
 70 79  2  0
 70 75  1  0
 71 67  1  0
 71 75  1  0
 72 71  1  0
 73 74  1  0
 73 72  1  0
 74 70  1  0
 75 76  2  0
 76 77  1  0
 78 77  2  0
 79 78  1  0
 80 54  1  0
 80 85  1  0
 80 81  1  0
 81 84  1  1
 81 82  1  0
 83 81  1  0
 85 88  1  0
 86 90  1  0
 86 85  1  0
 87 86  2  0
 90 89  1  0
 92 90  1  0
 92 93  1  0
 92 91  1  0
M  ISO  4  11 100  19 100  52 101  53 101
M  END
>  <TORSDO>  (68) 
F 20

>  <SCORE>  (68) 
-13.023

>  <name>  (68) 
67

>  <ligand_id>  (68) 
67

>  <original_smiles>  (68) 
[H]c1nc(N([H])C([H])([H])C([H])([H])Oc2c([H])c([H])c3c(c2[H])C([H])([H])N(C(=O)C([H])(N([H])C(=O)C([H])(N([H])C([H])([H])[H])C([H])([H])[H])C(C([H])([H])[H])(C([H])([H])[H])C([H])([H])[H])C([H])(C(=O)N([H])C2([H])c4c([H])c([H])c([H])c([H])c4C([H])([H])C([H])([H])C2([H])[H])C3([H])[H])nc(C([H])([H])[H])c1C([H])([H])N(C(=O)N1C([H])([H])C([H])([H])C([H])([H])C([H])(n2nc(-c3c([H])c([H])c(Oc4c([H])c([H])c(F)c([H])c4F)c([H])c3[H])c(C(=O)N([H])[H])c2N([H])[H])C1([H])[H])C1([H])C([H])([H])C1([H])[H]

>  <smiles>  (68) 
[H]c1nc(N([H])C([H])([H])C([H])([H])Oc2c([H])c([H])c3c(c2[H])C([H])([H])N(C(=O)C([H])(N([H])C(=O)C([H])(N([H])C([H])([H])[H])C([H])([H])[H])C(C([H])([H])[H])(C([H])([H])[H])C([H])([H])[H])C([H])(C(=O)N([H])C2([H])c4c([H])c([H])c([H])c([H])c4C([H])([H])C([H])([H])C2([H])[H])C3([H])[H])nc(C([H])([H])[H])c1C([H])([H])N(C(=O)N1C([H])([H])C([H])([H])C([H])([H])C([H])(n2nc(-c3c([H])c([H])c(Oc4c([H])c([H])c(F)c([H])c4F)c([H])c3[H])c(C(=O)N([H])[H])c2N([H])[H])C1([H])[H])C1([H])C([H])([H])C1([H])[H]

$$$$
68:0:0
     RDKit          3D

 92100  0  0  1  0  0  0  0  0999 V2000
  -29.8000  -19.6320   18.9870 C   0  0  0  0  0  2  0  0  0  0  0  0
  -30.6910  -15.1420   18.4730 C   0  0  0  0  0  0  0  0  0  0  0  0
  -30.1750  -12.8230   17.3870 C   0  0  0  0  0  2  0  0  0  0  0  0
  -28.8360  -12.7550   16.6060 C   0  0  0  0  0  2  0  0  0  0  0  0
  -27.6470  -12.4570   17.5410 C   0  0  0  0  0  2  0  0  0  0  0  0
  -27.7300  -13.2870   18.8440 C   0  0  0  0  0  3  0  0  0  0  0  0
  -29.1470  -13.2160   19.4690 C   0  0  0  0  0  2  0  0  0  0  0  0
  -30.0500  -13.8550   18.4840 N   0  0  0  0  0  0  0  0  0  0  0  0
  -31.7500  -15.1110   17.8270 O   0  0  0  0  0  0  0  0  0  0  0  0
  -30.6170  -17.9400   20.8580 C   0  0  0  0  0  2  0  0  0  0  0  0
  -28.9940  -16.4530   19.8850 C   0  0  0  0  0  2  0  0  0  0  0  0
  -29.5930  -16.8570   21.2320 C   0  0  0  0  0  3  0  0  0  0  0  0
  -30.5690  -18.0290   19.3160 C   0  0  0  0  0  3  0  0  0  0  0  0
  -30.1130  -16.4510   18.9560 N   0  0  0  0  0  0  0  0  0  0  0  0
  -25.9290  -13.8560   20.5720 C   0  0  0  0  0  0  0  0  0  0  0  0
  -24.9960  -13.0950   21.2150 C   0  0  0  0  0  0  0  0  0  0  0  0
  -25.2090  -11.7530   20.7720 C   0  0  0  0  0  0  0  0  0  0  0  0
  -26.6650  -12.9800   19.7900 N   0  0  0  0  0  0  0  0  0  0  0  0
  -26.2620  -11.6950   19.9630 N   0  0  0  0  0  0  0  0  0  0  0  0
  -24.4300  -10.5350   21.0230 C   0  0  0  0  0  0  0  0  0  0  0  0
  -24.9590   -9.4650   21.7760 C   0  0  0  0  0  3  0  0  0  0  0  0
  -24.1820   -8.3120   22.0210 C   0  0  0  0  0  3  0  0  0  0  0  0
  -22.8630   -8.2250   21.5190 C   0  0  0  0  0  0  0  0  0  0  0  0
  -22.3500   -9.2840   20.7490 C   0  0  0  0  0  3  0  0  0  0  0  0
  -23.1260  -10.4280   20.5000 C   0  0  0  0  0  3  0  0  0  0  0  0
  -22.0420   -7.1370   21.6910 O   0  0  0  0  0  0  0  0  0  0  0  0
  -21.9740   -6.4680   22.8870 C   0  0  0  0  0  0  0  0  0  0  0  0
  -21.5550   -7.1080   24.0740 C   0  0  0  0  0  3  0  0  0  0  0  0
  -21.4320   -6.3660   25.2660 C   0  0  0  0  0  3  0  0  0  0  0  0
  -21.7170   -4.9880   25.2710 C   0  0  0  0  0  0  0  0  0  0  0  0
  -22.1310   -4.3480   24.0890 C   0  0  0  0  0  3  0  0  0  0  0  0
  -22.2550   -5.0870   22.8990 C   0  0  0  0  0  0  0  0  0  0  0  0
  -22.6310   -4.4630   21.7570 F   0  0  0  0  0  0  0  0  0  0  0  0
  -21.5910   -4.2720   26.4140 F   0  0  0  0  0  0  0  0  0  0  0  0
  -23.8940  -13.6030   22.0980 C   0  0  0  0  0  0  0  0  0  0  0  0
  -23.4980  -12.8230   23.0960 N   0  0  0  0  0  0  0  0  0  0  0  0
  -23.4130  -14.7240   21.9330 O   0  0  0  0  0  0  0  0  0  0  0  0
  -23.9120  -11.9140   23.2450 H   0  0  0  0  0  0  0  0  0  0  0  0
  -22.7700  -13.1380   23.7220 H   0  0  0  0  0  0  0  0  0  0  0  0
  -26.1770  -15.2270   20.5680 N   0  0  0  0  0  0  0  0  0  0  0  0
  -25.4390  -15.8040   20.9590 H   0  0  0  0  0  0  0  0  0  0  0  0
  -26.5470  -15.6290   19.7160 H   0  0  0  0  0  0  0  0  0  0  0  0
  -28.9770  -17.2350   23.6140 C   0  0  0  0  0  1  0  0  0  0  0  0
  -28.5500  -17.2670   22.2010 N   0  0  0  0  0  4  0  0  0  0  0  0
  -27.7650  -16.6390   22.1100 H   0  0  0  0  0  0  0  0  0  0  0  0
  -28.2070  -18.1890   21.9840 H   0  0  0  0  0  0  0  0  0  0  0  0
  -29.9030  -21.0580   19.8500 N   0  0  0  0  0  4  0  0  0  0  0  0
  -30.8510  -21.0760   20.1920 H   0  0  0  0  0  0  0  0  0  0  0  0
  -29.3350  -20.9050   20.6680 H   0  0  0  0  0  0  0  0  0  0  0  0
  -29.5960  -22.6410   19.4160 C   0  0  0  0  0  2  0  0  0  0  0  0
  -28.9550  -24.0200   20.3780 C   0  0  0  0  0  2  0  0  0  0  0  0
  -28.9920  -25.6650   20.3000 O   0  0  0  0  0  0  0  0  0  0  0  0
  -24.6350  -31.2720   22.9320 C   0  0  0  0  0  0  0  0  0  0  0  0
  -27.8670  -26.6370   20.2140 C   0  0  0  0  0  0  0  0  0  0  0  0
  -23.7350  -29.8100   21.1680 C   0  0  0  0  0  3  0  0  0  0  0  0
  -25.4450  -28.3240   19.9210 C   0  0  0  0  0  0  0  0  0  0  0  0
  -26.2790  -30.2140   21.3060 C   0  0  0  0  0  2  0  0  0  0  0  0
  -26.5250  -28.8180   20.6640 C   0  0  0  0  0  0  0  0  0  0  0  0
  -27.7340  -27.9990   20.7780 C   0  0  0  0  0  3  0  0  0  0  0  0
  -26.7430  -26.2790   19.4370 C   0  0  0  0  0  3  0  0  0  0  0  0
  -25.5760  -27.0750   19.2940 C   0  0  0  0  0  3  0  0  0  0  0  0
  -24.1660  -29.1540   19.8260 C   0  0  0  0  0  2  0  0  0  0  0  0
  -24.8970  -30.4580   21.8590 N   0  0  0  0  0  0  0  0  0  0  0  0
  -23.4760  -31.4780   23.3290 O   0  0  0  0  0  0  0  0  0  0  0  0
  -23.0100  -28.7600   22.0470 C   0  0  0  0  0  0  0  0  0  0  0  0
  -21.7040  -28.5350   21.8030 N   0  0  0  0  0  0  0  0  0  0  0  0
  -23.6310  -28.1450   22.9190 O   0  0  0  0  0  0  0  0  0  0  0  0
  -21.2560  -29.0850   21.0830 H   0  0  0  0  0  0  0  0  0  0  0  0
  -18.3310  -27.2230   22.0540 C   0  0  0  0  0  0  0  0  0  0  0  0
  -20.8640  -27.5410   22.4780 C   0  0  0  0  0  3  0  0  0  0  0  0
  -21.0390  -26.1420   21.8410 C   0  0  0  0  0  2  0  0  0  0  0  0
  -20.0040  -25.8440   20.7510 C   0  0  0  0  0  2  0  0  0  0  0  0
  -18.5850  -25.9170   21.3210 C   0  0  0  0  0  2  0  0  0  0  0  0
  -19.4010  -27.9930   22.5830 C   0  0  0  0  0  0  0  0  0  0  0  0
  -19.1100  -29.2140   23.2300 C   0  0  0  0  0  3  0  0  0  0  0  0
  -17.7830  -29.6660   23.3530 C   0  0  0  0  0  3  0  0  0  0  0  0
  -16.7270  -28.8930   22.8390 C   0  0  0  0  0  3  0  0  0  0  0  0
  -17.0010  -27.6740   22.1950 C   0  0  0  0  0  3  0  0  0  0  0  0
  -25.7790  -31.9960   23.7060 C   0  0  0  0  0  3  0  0  0  0  0  0
  -26.1220  -31.3090   25.0850 C   0  0  1  0  0  0  0  0  0  0  0  0
  -24.8880  -31.0590   25.9840 C   0  0  0  0  0  1  0  0  0  0  0  0
  -26.8230  -29.9510   24.8670 C   0  0  0  0  0  1  0  0  0  0  0  0
  -27.1180  -32.1910   25.8760 C   0  0  0  0  0  1  0  0  0  0  0  0
  -25.3640  -33.3930   23.9260 N   0  0  0  0  0  0  0  0  0  0  0  0
  -25.7380  -34.4320   23.1680 C   0  0  0  0  0  0  0  0  0  0  0  0
  -26.5260  -34.3190   22.2270 O   0  0  0  0  0  0  0  0  0  0  0  0
  -24.6740  -33.5480   24.6460 H   0  0  0  0  0  0  0  0  0  0  0  0
  -23.9750  -36.1240   22.5560 C   0  0  0  0  0  1  0  0  0  0  0  0
  -25.1450  -35.8170   23.5050 C   0  0  0  0  0  3  0  0  0  0  0  0
  -27.1260  -36.8610   24.5120 C   0  0  0  0  0  1  0  0  0  0  0  0
  -26.1340  -36.9150   23.4420 N   0  0  0  0  0  0  0  0  0  0  0  0
  -25.6710  -37.8190   23.4830 H   0  0  0  0  0  0  0  0  0  0  0  0
  1 47  1  0
  2  8  1  0
  2 14  1  0
  3  8  1  0
  4  3  1  0
  4  5  1  0
  6  5  1  0
  6  7  1  0
  6 18  1  0
  8  7  1  0
  9  2  2  0
 10 12  1  0
 11 12  1  0
 12 44  1  0
 13  1  1  0
 13 10  1  0
 14 13  1  0
 14 11  1  0
 15 16  2  0
 16 35  1  0
 17 20  1  0
 17 16  1  0
 18 19  1  0
 18 15  1  0
 19 17  2  0
 20 21  1  0
 21 22  2  0
 23 26  1  0
 23 22  1  0
 24 23  2  0
 25 24  1  0
 25 20  2  0
 26 27  1  0
 27 32  2  0
 27 28  1  0
 28 29  2  0
 29 30  1  0
 30 34  1  0
 31 30  2  0
 32 31  1  0
 33 32  1  0
 35 36  1  0
 36 38  1  0
 36 39  1  0
 37 35  2  0
 40 15  1  0
 40 41  1  0
 42 40  1  0
 44 43  1  0
 45 44  1  0
 46 44  1  0
 47 48  1  0
 47 49  1  0
 50 47  1  0
 50 51  1  0
 52 51  1  0
 53 64  2  0
 54 52  1  0
 54 59  1  0
 55 63  1  0
 55 65  1  0
 56 58  1  0
 57 63  1  0
 58 59  2  0
 58 57  1  0
 60 54  2  0
 61 60  1  0
 61 56  2  0
 62 56  1  0
 62 55  1  0
 63 53  1  0
 65 67  2  0
 66 65  1  0
 68 66  1  0
 69 78  2  0
 69 74  1  0
 70 66  1  0
 70 74  1  0
 71 70  1  0
 72 73  1  0
 72 71  1  0
 73 69  1  0
 74 75  2  0
 75 76  1  0
 77 76  2  0
 78 77  1  0
 79 53  1  0
 79 84  1  0
 79 80  1  0
 80 83  1  1
 80 81  1  0
 82 80  1  0
 84 87  1  0
 85 89  1  0
 85 84  1  0
 86 85  2  0
 89 88  1  0
 91 92  1  0
 91 89  1  0
 91 90  1  0
M  ISO  4   2 100  14 100  51 101  52 101
M  END
>  <TORSDO>  (69) 
F 20

>  <SCORE>  (69) 
2.374

>  <name>  (69) 
68

>  <ligand_id>  (69) 
68

>  <original_smiles>  (69) 
[H]c1c([H])c([H])c2c(c1[H])C([H])([H])C([H])([H])C([H])([H])C2([H])N([H])C(=O)C1([H])N(C(=O)C([H])(N([H])C(=O)C([H])(N([H])C([H])([H])[H])C([H])([H])[H])C(C([H])([H])[H])(C([H])([H])[H])C([H])([H])[H])C([H])([H])c2c([H])c(OC([H])([H])C([H])([H])[N+]([H])([H])C([H])([H])C3([H])N(C(=O)N4C([H])([H])C([H])([H])C([H])([H])C([H])(n5nc(-c6c([H])c([H])c(Oc7c([H])c([H])c(F)c([H])c7F)c([H])c6[H])c(C(=O)N([H])[H])c5N([H])[H])C4([H])[H])C([H])([H])C([H])([N+]([H])([H])C([H])([H])[H])C3([H])[H])c([H])c([H])c2C1([H])[H]

>  <smiles>  (69) 
[H]c1c([H])c([H])c2c(c1[H])C([H])([H])C([H])([H])C([H])([H])C2([H])N([H])C(=O)C1([H])N(C(=O)C([H])(N([H])C(=O)C([H])(N([H])C([H])([H])[H])C([H])([H])[H])C(C([H])([H])[H])(C([H])([H])[H])C([H])([H])[H])C([H])([H])c2c([H])c(OC([H])([H])C([H])([H])[N+]([H])([H])C([H])([H])C3([H])N(C(=O)N4C([H])([H])C([H])([H])C([H])([H])C([H])(n5nc(-c6c([H])c([H])c(Oc7c([H])c([H])c(F)c([H])c7F)c([H])c6[H])c(C(=O)N([H])[H])c5N([H])[H])C4([H])[H])C([H])([H])C([H])([N+]([H])([H])C([H])([H])[H])C3([H])[H])c([H])c([H])c2C1([H])[H]

$$$$
69:0:0
     RDKit          3D

 92101  0  0  1  0  0  0  0  0999 V2000
  -28.7010  -22.3140   19.9770 C   0  0  0  0  0  3  0  0  0  0  0  0
  -28.8740  -23.7300   20.2790 C   0  0  0  0  0  0  0  0  0  0  0  0
  -29.7510  -21.6310   20.5630 C   0  0  0  0  0  0  0  0  0  0  0  0
  -31.7150  -22.5140   21.9430 C   0  0  0  0  0  1  0  0  0  0  0  0
  -29.9790  -23.8930   20.9930 N   0  0  0  0  0  0  0  0  0  0  0  0
  -30.4980  -22.6430   21.1620 N   0  0  0  0  0  0  0  0  0  0  0  0
  -30.2200  -20.2760   20.7010 N   0  0  0  0  0  0  0  0  0  0  0  0
  -31.1010  -20.1980   21.1990 H   0  0  0  0  0  0  0  0  0  0  0  0
  -30.6980  -14.6570   19.9740 C   0  0  0  0  0  0  0  0  0  0  0  0
  -30.3810  -12.4150   18.9400 C   0  0  0  0  0  2  0  0  0  0  0  0
  -29.3710  -12.5280   17.7780 C   0  0  0  0  0  2  0  0  0  0  0  0
  -27.9310  -12.3630   18.2990 C   0  0  0  0  0  2  0  0  0  0  0  0
  -27.6420  -13.2280   19.5550 C   0  0  0  0  0  3  0  0  0  0  0  0
  -28.7700  -13.1130   20.6030 C   0  0  0  0  0  2  0  0  0  0  0  0
  -30.0280  -13.4580   19.9300 N   0  0  0  0  0  0  0  0  0  0  0  0
  -31.8570  -14.7210   19.5510 O   0  0  0  0  0  0  0  0  0  0  0  0
  -29.6950  -17.9280   21.5010 C   0  0  0  0  0  2  0  0  0  0  0  0
  -30.3680  -18.2560   19.1730 C   0  0  0  0  0  2  0  0  0  0  0  0
  -29.3000  -16.4290   21.1940 C   0  0  0  0  0  2  0  0  0  0  0  0
  -29.9230  -16.7820   18.8650 C   0  0  0  0  0  2  0  0  0  0  0  0
  -29.6050  -18.9610   20.3280 C   0  0  0  0  0  3  0  0  0  0  0  0
  -29.9480  -15.8240   20.0050 N   0  0  0  0  0  0  0  0  0  0  0  0
  -25.3080  -13.8040   20.4510 C   0  0  0  0  0  0  0  0  0  0  0  0
  -24.2650  -13.0240   20.8670 C   0  0  0  0  0  0  0  0  0  0  0  0
  -24.7170  -11.6720   20.7690 C   0  0  0  0  0  0  0  0  0  0  0  0
  -26.3310  -12.9300   20.1250 N   0  0  0  0  0  0  0  0  0  0  0  0
  -25.9860  -11.6400   20.3770 N   0  0  0  0  0  0  0  0  0  0  0  0
  -23.9990  -10.4070   20.9710 C   0  0  0  0  0  0  0  0  0  0  0  0
  -24.4500   -9.4410   21.8980 C   0  0  0  0  0  3  0  0  0  0  0  0
  -23.7320   -8.2410   22.0870 C   0  0  0  0  0  3  0  0  0  0  0  0
  -22.5490   -7.9970   21.3500 C   0  0  0  0  0  0  0  0  0  0  0  0
  -22.1170   -8.9520   20.4120 C   0  0  0  0  0  3  0  0  0  0  0  0
  -22.8350  -10.1440   20.2200 C   0  0  0  0  0  3  0  0  0  0  0  0
  -21.8000   -6.8500   21.4500 O   0  0  0  0  0  0  0  0  0  0  0  0
  -21.7180   -6.1430   22.6230 C   0  0  0  0  0  0  0  0  0  0  0  0
  -21.2320   -6.7270   23.8130 C   0  0  0  0  0  3  0  0  0  0  0  0
  -21.1000   -5.9460   24.9790 C   0  0  0  0  0  3  0  0  0  0  0  0
  -21.4450   -4.5810   24.9540 C   0  0  0  0  0  0  0  0  0  0  0  0
  -21.9240   -3.9960   23.7680 C   0  0  0  0  0  3  0  0  0  0  0  0
  -22.0570   -4.7750   22.6060 C   0  0  0  0  0  0  0  0  0  0  0  0
  -22.4990   -4.2020   21.4610 F   0  0  0  0  0  0  0  0  0  0  0  0
  -21.3110   -3.8280   26.0700 F   0  0  0  0  0  0  0  0  0  0  0  0
  -22.8900  -13.4970   21.2400 C   0  0  0  0  0  0  0  0  0  0  0  0
  -22.2160  -12.7840   22.1360 N   0  0  0  0  0  0  0  0  0  0  0  0
  -22.4230  -14.5350   20.7740 O   0  0  0  0  0  0  0  0  0  0  0  0
  -22.6080  -11.9430   22.5360 H   0  0  0  0  0  0  0  0  0  0  0  0
  -21.2980  -13.0850   22.4280 H   0  0  0  0  0  0  0  0  0  0  0  0
  -25.4680  -15.1790   20.2990 N   0  0  0  0  0  0  0  0  0  0  0  0
  -24.7170  -15.8360   20.4760 H   0  0  0  0  0  0  0  0  0  0  0  0
  -26.3020  -15.6170   19.9320 H   0  0  0  0  0  0  0  0  0  0  0  0
  -27.9320  -24.9320   19.9320 C   0  0  0  0  0  2  0  0  0  0  0  0
  -28.2290  -26.3520   20.3010 O   0  0  0  0  0  0  0  0  0  0  0  0
  -24.6290  -31.8780   23.2990 C   0  0  0  0  0  0  0  0  0  0  0  0
  -27.1540  -27.2660   20.2210 C   0  0  0  0  0  0  0  0  0  0  0  0
  -23.3990  -30.4950   21.6700 C   0  0  0  0  0  3  0  0  0  0  0  0
  -24.8190  -28.9350   20.2300 C   0  0  0  0  0  0  0  0  0  0  0  0
  -25.9450  -30.7740   21.4740 C   0  0  0  0  0  2  0  0  0  0  0  0
  -26.0020  -29.3950   20.8240 C   0  0  0  0  0  0  0  0  0  0  0  0
  -27.1720  -28.5700   20.8150 C   0  0  0  0  0  3  0  0  0  0  0  0
  -25.9490  -26.8880   19.5770 C   0  0  0  0  0  3  0  0  0  0  0  0
  -24.7960  -27.6870   19.5990 C   0  0  0  0  0  3  0  0  0  0  0  0
  -23.5960  -29.8250   20.2880 C   0  0  0  0  0  2  0  0  0  0  0  0
  -24.6770  -31.0650   22.2040 N   0  0  0  0  0  0  0  0  0  0  0  0
  -23.5510  -32.1700   23.8380 O   0  0  0  0  0  0  0  0  0  0  0  0
  -22.7310  -29.4830   22.6320 C   0  0  0  0  0  0  0  0  0  0  0  0
  -21.4060  -29.3020   22.4950 N   0  0  0  0  0  0  0  0  0  0  0  0
  -23.4020  -28.8660   23.4620 O   0  0  0  0  0  0  0  0  0  0  0  0
  -20.9240  -29.8530   21.7990 H   0  0  0  0  0  0  0  0  0  0  0  0
  -18.0290  -28.0880   22.9590 C   0  0  0  0  0  0  0  0  0  0  0  0
  -20.5800  -28.3720   23.2680 C   0  0  0  0  0  3  0  0  0  0  0  0
  -20.7030  -26.9310   22.7210 C   0  0  0  0  0  2  0  0  0  0  0  0
  -19.6200  -26.5810   21.6940 C   0  0  0  0  0  2  0  0  0  0  0  0
  -18.2270  -26.7280   22.3110 C   0  0  0  0  0  2  0  0  0  0  0  0
  -19.1340  -28.8660   23.3940 C   0  0  0  0  0  0  0  0  0  0  0  0
  -18.8940  -30.1390   23.9580 C   0  0  0  0  0  3  0  0  0  0  0  0
  -17.5830  -30.6320   24.0910 C   0  0  0  0  0  3  0  0  0  0  0  0
  -16.4920  -29.8500   23.6750 C   0  0  0  0  0  3  0  0  0  0  0  0
  -16.7150  -28.5800   23.1130 C   0  0  0  0  0  3  0  0  0  0  0  0
  -25.9230  -32.4960   23.9120 C   0  0  0  0  0  3  0  0  0  0  0  0
  -25.6360  -33.9040   24.2270 N   0  0  0  0  0  0  0  0  0  0  0  0
  -25.9560  -34.9400   23.4400 C   0  0  0  0  0  0  0  0  0  0  0  0
  -26.5930  -34.8120   22.3920 O   0  0  0  0  0  0  0  0  0  0  0  0
  -25.0690  -34.0770   25.0430 H   0  0  0  0  0  0  0  0  0  0  0  0
  -24.2220  -36.7350   23.1250 C   0  0  0  0  0  1  0  0  0  0  0  0
  -25.4950  -36.3410   23.8900 C   0  0  0  0  0  3  0  0  0  0  0  0
  -27.6660  -37.2330   24.6120 C   0  0  0  0  0  1  0  0  0  0  0  0
  -26.5270  -37.3860   23.7100 N   0  0  0  0  0  0  0  0  0  0  0  0
  -26.1310  -38.3110   23.8550 H   0  0  0  0  0  0  0  0  0  0  0  0
  -26.4260  -31.7320   25.1960 C   0  0  1  0  0  0  0  0  0  0  0  0
  -25.3300  -31.5180   26.2660 C   0  0  0  0  0  1  0  0  0  0  0  0
  -26.9920  -30.3420   24.8210 C   0  0  0  0  0  1  0  0  0  0  0  0
  -27.5870  -32.5170   25.8530 C   0  0  0  0  0  1  0  0  0  0  0  0
  1  2  1  0
  1  3  2  0
  2  5  2  0
  3  7  1  0
  3  6  1  0
  5  6  1  0
  6  4  1  0
  7  8  1  0
  9 22  1  0
 10 15  1  0
 11 12  1  0
 11 10  1  0
 13 12  1  0
 13 26  1  0
 13 14  1  0
 15  9  1  0
 15 14  1  0
 16  9  2  0
 18 21  1  0
 19 17  1  0
 20 18  1  0
 20 22  1  0
 21  7  1  0
 21 17  1  0
 22 19  1  0
 23 24  2  0
 24 43  1  0
 25 24  1  0
 25 28  1  0
 26 27  1  0
 26 23  1  0
 27 25  2  0
 28 29  1  0
 29 30  2  0
 31 34  1  0
 31 30  1  0
 32 31  2  0
 33 32  1  0
 33 28  2  0
 34 35  1  0
 35 36  1  0
 36 37  2  0
 38 37  1  0
 38 42  1  0
 39 38  2  0
 40 35  2  0
 40 39  1  0
 41 40  1  0
 43 44  1  0
 44 47  1  0
 44 46  1  0
 45 43  2  0
 48 23  1  0
 48 49  1  0
 50 48  1  0
 51  2  1  0
 51 52  1  0
 53 64  2  0
 54 52  1  0
 54 59  1  0
 55 63  1  0
 55 65  1  0
 56 62  1  0
 56 58  1  0
 57 63  1  0
 58 57  1  0
 59 58  2  0
 60 61  1  0
 60 54  2  0
 61 56  2  0
 62 55  1  0
 63 53  1  0
 65 67  2  0
 66 65  1  0
 68 66  1  0
 69 78  2  0
 69 74  1  0
 70 66  1  0
 70 74  1  0
 71 70  1  0
 72 73  1  0
 72 71  1  0
 73 69  1  0
 74 75  2  0
 75 76  1  0
 77 76  2  0
 78 77  1  0
 79 53  1  0
 79 80  1  0
 79 89  1  0
 80 83  1  0
 81 85  1  0
 81 80  1  0
 82 81  2  0
 85 84  1  0
 87 88  1  0
 87 85  1  0
 87 86  1  0
 89 92  1  1
 89 90  1  0
 91 89  1  0
M  ISO  4   9 100  22 100  51 101  52 101
M  END
>  <TORSDO>  (70) 
F 18

>  <SCORE>  (70) 
-13.800

>  <name>  (70) 
69

>  <ligand_id>  (70) 
69

>  <original_smiles>  (70) 
[H]c1c([H])c([H])c2c(c1[H])C([H])([H])C([H])([H])C([H])([H])C2([H])N([H])C(=O)C1([H])N(C(=O)C([H])(N([H])C(=O)C([H])(N([H])C([H])([H])[H])C([H])([H])[H])C(C([H])([H])[H])(C([H])([H])[H])C([H])([H])[H])C([H])([H])c2c([H])c(OC([H])([H])c3nn(C([H])([H])[H])c(N([H])C4([H])C([H])([H])C([H])([H])N(C(=O)N5C([H])([H])C([H])([H])C([H])([H])C([H])(n6nc(-c7c([H])c([H])c(Oc8c([H])c([H])c(F)c([H])c8F)c([H])c7[H])c(C(=O)N([H])[H])c6N([H])[H])C5([H])[H])C([H])([H])C4([H])[H])c3[H])c([H])c([H])c2C1([H])[H]

>  <smiles>  (70) 
[H]c1c([H])c([H])c2c(c1[H])C([H])([H])C([H])([H])C([H])([H])C2([H])N([H])C(=O)C1([H])N(C(=O)C([H])(N([H])C(=O)C([H])(N([H])C([H])([H])[H])C([H])([H])[H])C(C([H])([H])[H])(C([H])([H])[H])C([H])([H])[H])C([H])([H])c2c([H])c(OC([H])([H])c3nn(C([H])([H])[H])c(N([H])C4([H])C([H])([H])C([H])([H])N(C(=O)N5C([H])([H])C([H])([H])C([H])([H])C([H])(n6nc(-c7c([H])c([H])c(Oc8c([H])c([H])c(F)c([H])c8F)c([H])c7[H])c(C(=O)N([H])[H])c6N([H])[H])C5([H])[H])C([H])([H])C4([H])[H])c3[H])c([H])c([H])c2C1([H])[H]

$$$$
70:0:0
     RDKit          3D

 93103  0  0  1  0  0  0  0  0999 V2000
  -30.8060  -15.2760   20.7470 C   0  0  0  0  0  0  0  0  0  0  0  0
  -30.7620  -12.8780   19.9140 C   0  0  0  0  0  2  0  0  0  0  0  0
  -29.9190  -12.6990   18.6310 C   0  0  0  0  0  2  0  0  0  0  0  0
  -28.4320  -12.5000   18.9700 C   0  0  0  0  0  2  0  0  0  0  0  0
  -27.9190  -13.4840   20.0530 C   0  0  0  0  0  3  0  0  0  0  0  0
  -28.8950  -13.6190   21.2400 C   0  0  0  0  0  2  0  0  0  0  0  0
  -30.1870  -14.0250   20.6710 N   0  0  0  0  0  0  0  0  0  0  0  0
  -32.0430  -15.2530   20.7950 O   0  0  0  0  0  0  0  0  0  0  0  0
  -29.3150  -19.0700   20.3030 C   0  0  0  0  0  0  0  0  0  0  0  0
  -29.5610  -20.4760   20.7030 C   0  0  0  0  0  0  0  0  0  0  0  0
  -30.1500  -17.9210   20.7760 C   0  0  0  0  0  0  0  0  0  0  0  0
  -31.2040  -19.5740   22.0610 C   0  0  0  0  0  0  0  0  0  0  0  0
  -28.1110  -18.8290   19.4030 C   0  0  0  0  0  1  0  0  0  0  0  0
  -32.2780  -19.8530   23.0900 C   0  0  0  0  0  1  0  0  0  0  0  0
  -30.5400  -20.6410   21.6080 N   0  0  0  0  0  0  0  0  0  0  0  0
  -31.0590  -18.2950   21.6990 N   0  0  0  0  0  0  0  0  0  0  0  0
  -30.1500  -16.4610   20.2510 N   0  0  0  0  0  0  0  0  0  0  0  0
  -25.4890  -14.0490   20.6090 C   0  0  0  0  0  0  0  0  0  0  0  0
  -24.4080  -13.2670   20.9070 C   0  0  0  0  0  0  0  0  0  0  0  0
  -24.8900  -11.9230   20.9420 C   0  0  0  0  0  0  0  0  0  0  0  0
  -26.5580  -13.1810   20.4710 N   0  0  0  0  0  0  0  0  0  0  0  0
  -26.2030  -11.8980   20.7420 N   0  0  0  0  0  0  0  0  0  0  0  0
  -24.1680  -10.6540   21.0970 C   0  0  0  0  0  0  0  0  0  0  0  0
  -24.5390   -9.7080   22.0780 C   0  0  0  0  0  3  0  0  0  0  0  0
  -23.8160   -8.5050   22.2210 C   0  0  0  0  0  3  0  0  0  0  0  0
  -22.7070   -8.2390   21.3810 C   0  0  0  0  0  0  0  0  0  0  0  0
  -22.3580   -9.1740   20.3920 C   0  0  0  0  0  3  0  0  0  0  0  0
  -23.0820  -10.3680   20.2470 C   0  0  0  0  0  3  0  0  0  0  0  0
  -21.9610   -7.0860   21.4320 O   0  0  0  0  0  0  0  0  0  0  0  0
  -21.8120   -6.3760   22.5970 C   0  0  0  0  0  0  0  0  0  0  0  0
  -21.1830   -6.9320   23.7320 C   0  0  0  0  0  3  0  0  0  0  0  0
  -20.9880   -6.1440   24.8840 C   0  0  0  0  0  3  0  0  0  0  0  0
  -21.4120   -4.8010   24.9010 C   0  0  0  0  0  0  0  0  0  0  0  0
  -22.0340   -4.2450   23.7680 C   0  0  0  0  0  3  0  0  0  0  0  0
  -22.2300   -5.0310   22.6190 C   0  0  0  0  0  0  0  0  0  0  0  0
  -22.8110   -4.4830   21.5230 F   0  0  0  0  0  0  0  0  0  0  0  0
  -21.2180   -4.0420   26.0040 F   0  0  0  0  0  0  0  0  0  0  0  0
  -22.9880  -13.7300   21.0510 C   0  0  0  0  0  0  0  0  0  0  0  0
  -22.1970  -13.0360   21.8620 N   0  0  0  0  0  0  0  0  0  0  0  0
  -22.5860  -14.7420   20.4800 O   0  0  0  0  0  0  0  0  0  0  0  0
  -22.5350  -12.2170   22.3460 H   0  0  0  0  0  0  0  0  0  0  0  0
  -21.2410  -13.3290   22.0020 H   0  0  0  0  0  0  0  0  0  0  0  0
  -25.6500  -15.4190   20.4180 N   0  0  0  0  0  0  0  0  0  0  0  0
  -24.8700  -16.0660   20.4630 H   0  0  0  0  0  0  0  0  0  0  0  0
  -26.5230  -15.8670   20.1740 H   0  0  0  0  0  0  0  0  0  0  0  0
  -30.4350  -17.4660   17.8760 C   0  0  0  0  0  2  0  0  0  0  0  0
  -31.0170  -16.0880   17.8220 C   0  0  0  0  0  2  0  0  0  0  0  0
  -29.8980  -16.3910   18.8200 C   0  0  0  0  0  3  0  0  0  0  0  0
  -29.5660  -22.7370   19.2400 C   0  0  0  0  0  2  0  0  0  0  0  0
  -28.8210  -21.8820   20.2340 C   0  0  0  0  0  3  0  0  0  0  0  0
  -29.0750  -23.5350   20.4280 C   0  0  0  0  0  3  0  0  0  0  0  0
  -28.1060  -24.8620   20.1120 C   0  0  0  0  0  2  0  0  0  0  0  0
  -28.3910  -26.3930   20.2280 O   0  0  0  0  0  0  0  0  0  0  0  0
  -24.6830  -32.0010   23.2760 C   0  0  0  0  0  0  0  0  0  0  0  0
  -27.3230  -27.3670   20.1750 C   0  0  0  0  0  0  0  0  0  0  0  0
  -23.5020  -30.6120   21.6180 C   0  0  0  0  0  3  0  0  0  0  0  0
  -24.9710  -29.0820   20.1690 C   0  0  0  0  0  0  0  0  0  0  0  0
  -26.0520  -30.9170   21.4570 C   0  0  0  0  0  2  0  0  0  0  0  0
  -26.1460  -29.5350   20.7840 C   0  0  0  0  0  0  0  0  0  0  0  0
  -27.3230  -28.6950   20.7680 C   0  0  0  0  0  3  0  0  0  0  0  0
  -26.1190  -27.0190   19.5240 C   0  0  0  0  0  3  0  0  0  0  0  0
  -24.9720  -27.8390   19.5230 C   0  0  0  0  0  3  0  0  0  0  0  0
  -23.7320  -29.9610   20.2290 C   0  0  0  0  0  2  0  0  0  0  0  0
  -24.7660  -31.1970   22.1720 N   0  0  0  0  0  0  0  0  0  0  0  0
  -23.5930  -32.2620   23.8090 O   0  0  0  0  0  0  0  0  0  0  0  0
  -22.8390  -29.5810   22.5650 C   0  0  0  0  0  0  0  0  0  0  0  0
  -21.5210  -29.3650   22.4120 N   0  0  0  0  0  0  0  0  0  0  0  0
  -23.5140  -28.9760   23.4030 O   0  0  0  0  0  0  0  0  0  0  0  0
  -21.0300  -29.9050   21.7120 H   0  0  0  0  0  0  0  0  0  0  0  0
  -18.1610  -28.0950   22.8900 C   0  0  0  0  0  0  0  0  0  0  0  0
  -20.7140  -28.4010   23.1660 C   0  0  0  0  0  3  0  0  0  0  0  0
  -20.8430  -26.9790   22.5700 C   0  0  0  0  0  2  0  0  0  0  0  0
  -19.7490  -26.6520   21.5490 C   0  0  0  0  0  2  0  0  0  0  0  0
  -18.3640  -26.7610   22.1920 C   0  0  0  0  0  2  0  0  0  0  0  0
  -19.2650  -28.8720   23.3330 C   0  0  0  0  0  0  0  0  0  0  0  0
  -19.0190  -30.1190   23.9470 C   0  0  0  0  0  3  0  0  0  0  0  0
  -17.7030  -30.5910   24.1210 C   0  0  0  0  0  3  0  0  0  0  0  0
  -16.6160  -29.8110   23.6930 C   0  0  0  0  0  3  0  0  0  0  0  0
  -16.8450  -28.5650   23.0830 C   0  0  0  0  0  3  0  0  0  0  0  0
  -25.9520  -32.6450   23.9120 C   0  0  0  0  0  3  0  0  0  0  0  0
  -25.6330  -34.0480   24.2250 N   0  0  0  0  0  0  0  0  0  0  0  0
  -25.9490  -35.0950   23.4520 C   0  0  0  0  0  0  0  0  0  0  0  0
  -26.6060  -34.9840   22.4140 O   0  0  0  0  0  0  0  0  0  0  0  0
  -25.0480  -34.2080   25.0320 H   0  0  0  0  0  0  0  0  0  0  0  0
  -24.1950  -36.8690   23.1140 C   0  0  0  0  0  1  0  0  0  0  0  0
  -25.4590  -36.4870   23.9010 C   0  0  0  0  0  3  0  0  0  0  0  0
  -27.5920  -37.4210   24.6830 C   0  0  0  0  0  1  0  0  0  0  0  0
  -26.4790  -37.5480   23.7460 N   0  0  0  0  0  0  0  0  0  0  0  0
  -26.0630  -38.4670   23.8700 H   0  0  0  0  0  0  0  0  0  0  0  0
  -26.4470  -31.8920   25.2070 C   0  0  1  0  0  0  0  0  0  0  0  0
  -25.3220  -31.6020   26.2270 C   0  0  0  0  0  1  0  0  0  0  0  0
  -27.1070  -30.5430   24.8410 C   0  0  0  0  0  1  0  0  0  0  0  0
  -27.5340  -32.7330   25.9190 C   0  0  0  0  0  1  0  0  0  0  0  0
  1  8  2  0
  2  7  1  0
  3  4  1  0
  3  2  1  0
  5  4  1  0
  5 21  1  0
  5  6  1  0
  7  1  1  0
  7  6  1  0
  9 10  2  0
  9 11  1  0
 10 15  1  0
 11 16  2  0
 12 14  1  0
 13  9  1  0
 15 12  2  0
 16 12  1  0
 17  1  1  0
 17 11  1  0
 18 19  2  0
 19 20  1  0
 19 38  1  0
 20 23  1  0
 21 18  1  0
 21 22  1  0
 22 20  2  0
 23 24  1  0
 24 25  2  0
 26 29  1  0
 26 25  1  0
 27 26  2  0
 28 27  1  0
 28 23  2  0
 29 30  1  0
 30 35  2  0
 30 31  1  0
 31 32  2  0
 32 33  1  0
 33 37  1  0
 34 33  2  0
 35 34  1  0
 36 35  1  0
 38 39  1  0
 39 42  1  0
 39 41  1  0
 40 38  2  0
 43 44  1  0
 43 18  1  0
 45 43  1  0
 46 48  1  0
 47 46  1  0
 47 48  1  0
 48 17  1  0
 49 50  1  0
 49 51  1  0
 50 51  1  0
 50 10  1  0
 51 52  1  0
 52 53  1  0
 54 65  2  0
 55 53  1  0
 55 60  1  0
 56 64  1  0
 56 66  1  0
 57 63  1  0
 57 59  1  0
 58 64  1  0
 59 58  1  0
 60 59  2  0
 61 55  2  0
 62 61  1  0
 62 57  2  0
 63 56  1  0
 64 54  1  0
 66 68  2  0
 67 66  1  0
 69 67  1  0
 70 79  2  0
 70 75  1  0
 71 67  1  0
 71 75  1  0
 72 71  1  0
 73 74  1  0
 73 72  1  0
 74 70  1  0
 75 76  2  0
 76 77  1  0
 78 77  2  0
 79 78  1  0
 80 54  1  0
 80 81  1  0
 80 90  1  0
 81 84  1  0
 82 86  1  0
 82 81  1  0
 83 82  2  0
 86 85  1  0
 88 89  1  0
 88 86  1  0
 88 87  1  0
 90 93  1  1
 90 91  1  0
 92 90  1  0
M  ISO  4   1 100  17 100  52 101  53 101
M  END
>  <TORSDO>  (71) 
F 18

>  <SCORE>  (71) 
-14.225

>  <name>  (71) 
70

>  <ligand_id>  (71) 
70

>  <original_smiles>  (71) 
[H]c1c([H])c([H])c2c(c1[H])C([H])([H])C([H])([H])C([H])([H])C2([H])N([H])C(=O)C1([H])N(C(=O)C([H])(N([H])C(=O)C([H])(N([H])C([H])([H])[H])C([H])([H])[H])C(C([H])([H])[H])(C([H])([H])[H])C([H])([H])[H])C([H])([H])c2c([H])c(OC([H])([H])C3([H])C([H])([H])C3([H])c3nc(C([H])([H])[H])nc(N(C(=O)N4C([H])([H])C([H])([H])C([H])([H])C([H])(n5nc(-c6c([H])c([H])c(Oc7c([H])c([H])c(F)c([H])c7F)c([H])c6[H])c(C(=O)N([H])[H])c5N([H])[H])C4([H])[H])C4([H])C([H])([H])C4([H])[H])c3C([H])([H])[H])c([H])c([H])c2C1([H])[H]

>  <smiles>  (71) 
[H]c1c([H])c([H])c2c(c1[H])C([H])([H])C([H])([H])C([H])([H])C2([H])N([H])C(=O)C1([H])N(C(=O)C([H])(N([H])C(=O)C([H])(N([H])C([H])([H])[H])C([H])([H])[H])C(C([H])([H])[H])(C([H])([H])[H])C([H])([H])[H])C([H])([H])c2c([H])c(OC([H])([H])C3([H])C([H])([H])C3([H])c3nc(C([H])([H])[H])nc(N(C(=O)N4C([H])([H])C([H])([H])C([H])([H])C([H])(n5nc(-c6c([H])c([H])c(Oc7c([H])c([H])c(F)c([H])c7F)c([H])c6[H])c(C(=O)N([H])[H])c5N([H])[H])C4([H])[H])C4([H])C([H])([H])C4([H])[H])c3C([H])([H])[H])c([H])c([H])c2C1([H])[H]

$$$$
71:0:0
     RDKit          3D

 94104  0  0  1  0  0  0  0  0999 V2000
  -29.5990  -23.4800   19.6960 C   0  0  0  0  0  3  0  0  0  0  0  0
  -28.4890  -22.6130   19.8710 C   0  0  0  0  0  0  0  0  0  0  0  0
  -27.2650  -23.3490   19.7050 C   0  0  0  0  0  3  0  0  0  0  0  0
  -28.3100  -25.4220   19.2960 C   0  0  0  0  0  0  0  0  0  0  0  0
  -29.5080  -24.8290   19.4270 N   0  0  0  0  0  0  0  0  0  0  0  0
  -27.1950  -24.6940   19.4100 N   0  0  0  0  0  0  0  0  0  0  0  0
  -24.6370  -23.5520   19.9380 C   0  0  0  0  0  2  0  0  0  0  0  0
  -25.1650  -22.9690   21.2160 C   0  0  0  0  0  2  0  0  0  0  0  0
  -25.9110  -22.7240   19.9180 C   0  0  0  0  0  3  0  0  0  0  0  0
  -28.2950  -26.8350   19.1530 O   0  0  0  0  0  0  0  0  0  0  0  0
  -24.7400  -31.7450   23.2330 C   0  0  0  0  0  0  0  0  0  0  0  0
  -27.1740  -27.6840   19.3600 C   0  0  0  0  0  0  0  0  0  0  0  0
  -23.4680  -30.6590   21.4190 C   0  0  0  0  0  3  0  0  0  0  0  0
  -24.8500  -29.3550   19.6990 C   0  0  0  0  0  0  0  0  0  0  0  0
  -26.0100  -30.9640   21.2110 C   0  0  0  0  0  2  0  0  0  0  0  0
  -26.0460  -29.7060   20.3380 C   0  0  0  0  0  0  0  0  0  0  0  0
  -27.2080  -28.8840   20.1600 C   0  0  0  0  0  3  0  0  0  0  0  0
  -25.9600  -27.4210   18.6930 C   0  0  0  0  0  3  0  0  0  0  0  0
  -24.8130  -28.2230   18.8680 C   0  0  0  0  0  3  0  0  0  0  0  0
  -23.6340  -30.2300   19.9370 C   0  0  0  0  0  2  0  0  0  0  0  0
  -24.7600  -31.1340   22.0110 N   0  0  0  0  0  0  0  0  0  0  0  0
  -23.6780  -31.9340   23.8430 O   0  0  0  0  0  0  0  0  0  0  0  0
  -22.8220  -29.4980   22.2130 C   0  0  0  0  0  0  0  0  0  0  0  0
  -21.4970  -29.3240   22.0680 N   0  0  0  0  0  0  0  0  0  0  0  0
  -23.5140  -28.7630   22.9230 O   0  0  0  0  0  0  0  0  0  0  0  0
  -20.9950  -29.9740   21.4780 H   0  0  0  0  0  0  0  0  0  0  0  0
  -18.1280  -28.0610   22.4630 C   0  0  0  0  0  0  0  0  0  0  0  0
  -20.6960  -28.2640   22.6860 C   0  0  0  0  0  3  0  0  0  0  0  0
  -20.7680  -26.9590   21.8610 C   0  0  0  0  0  2  0  0  0  0  0  0
  -19.6300  -26.8240   20.8430 C   0  0  0  0  0  2  0  0  0  0  0  0
  -18.2720  -26.8530   21.5510 C   0  0  0  0  0  2  0  0  0  0  0  0
  -19.2660  -28.7310   22.9840 C   0  0  0  0  0  0  0  0  0  0  0  0
  -19.0770  -29.8690   23.7990 C   0  0  0  0  0  3  0  0  0  0  0  0
  -17.7820  -30.3330   24.0960 C   0  0  0  0  0  3  0  0  0  0  0  0
  -16.6590  -29.6560   23.5910 C   0  0  0  0  0  3  0  0  0  0  0  0
  -16.8330  -28.5210   22.7800 C   0  0  0  0  0  3  0  0  0  0  0  0
  -26.0480  -32.2560   23.9130 C   0  0  0  0  0  3  0  0  0  0  0  0
  -25.7800  -33.6030   24.4370 N   0  0  0  0  0  0  0  0  0  0  0  0
  -26.0970  -34.7440   23.8090 C   0  0  0  0  0  0  0  0  0  0  0  0
  -26.7130  -34.7690   22.7410 O   0  0  0  0  0  0  0  0  0  0  0  0
  -25.2280  -33.6570   25.2790 H   0  0  0  0  0  0  0  0  0  0  0  0
  -24.3770  -36.5810   23.8050 C   0  0  0  0  0  1  0  0  0  0  0  0
  -25.6640  -36.0670   24.4710 C   0  0  0  0  0  3  0  0  0  0  0  0
  -27.8560  -36.8330   25.2690 C   0  0  0  0  0  1  0  0  0  0  0  0
  -26.7030  -37.1180   24.4180 N   0  0  0  0  0  0  0  0  0  0  0  0
  -26.3190  -38.0190   24.6950 H   0  0  0  0  0  0  0  0  0  0  0  0
  -26.5600  -31.3060   25.0650 C   0  0  1  0  0  0  0  0  0  0  0  0
  -25.4790  -30.9650   26.1170 C   0  0  0  0  0  1  0  0  0  0  0  0
  -27.0870  -29.9740   24.4840 C   0  0  0  0  0  1  0  0  0  0  0  0
  -27.7490  -31.9690   25.8000 C   0  0  0  0  0  1  0  0  0  0  0  0
  -28.5550  -21.1040   20.4960 C   0  0  0  0  0  2  0  0  0  0  0  0
  -30.7880  -15.4200   20.0510 C   0  0  0  0  0  0  0  0  0  0  0  0
  -30.6680  -13.0340   19.2740 C   0  0  0  0  0  2  0  0  0  0  0  0
  -29.7300  -12.8720   18.0610 C   0  0  0  0  0  2  0  0  0  0  0  0
  -28.2830  -12.6390   18.5310 C   0  0  0  0  0  2  0  0  0  0  0  0
  -27.8520  -13.6270   19.6480 C   0  0  0  0  0  3  0  0  0  0  0  0
  -28.9260  -13.7610   20.7520 C   0  0  0  0  0  2  0  0  0  0  0  0
  -30.1580  -14.1810   20.0770 N   0  0  0  0  0  0  0  0  0  0  0  0
  -31.9970  -15.4070   19.7970 O   0  0  0  0  0  0  0  0  0  0  0  0
  -28.6780  -17.0500   20.0420 C   0  0  0  0  0  2  0  0  0  0  0  0
  -30.8710  -17.9080   19.5630 C   0  0  0  0  0  2  0  0  0  0  0  0
  -28.2380  -18.5400   20.4510 C   0  0  0  0  0  2  0  0  0  0  0  0
  -30.4160  -19.3700   20.0080 C   0  0  0  0  0  2  0  0  0  0  0  0
  -30.1250  -16.6830   20.0310 N   0  0  0  0  0  0  0  0  0  0  0  0
  -28.9670  -19.7290   19.8560 N   0  0  2  0  0  4  0  0  0  0  0  0
  -28.7420  -19.7500   18.8730 H   0  0  0  0  0  0  0  0  0  0  0  0
  -25.5020  -14.1650   20.5080 C   0  0  0  0  0  0  0  0  0  0  0  0
  -24.4580  -13.3700   20.8880 C   0  0  0  0  0  0  0  0  0  0  0  0
  -24.9250  -12.0240   20.7730 C   0  0  0  0  0  0  0  0  0  0  0  0
  -26.5370  -13.3040   20.1860 N   0  0  0  0  0  0  0  0  0  0  0  0
  -26.2020  -12.0080   20.4110 N   0  0  0  0  0  0  0  0  0  0  0  0
  -24.2110  -10.7510   20.9320 C   0  0  0  0  0  0  0  0  0  0  0  0
  -24.6210   -9.7860   21.8760 C   0  0  0  0  0  3  0  0  0  0  0  0
  -23.9070   -8.5780   22.0200 C   0  0  0  0  0  3  0  0  0  0  0  0
  -22.7670   -8.3270   21.2200 C   0  0  0  0  0  0  0  0  0  0  0  0
  -22.3760   -9.2820   20.2650 C   0  0  0  0  0  3  0  0  0  0  0  0
  -23.0930  -10.4810   20.1180 C   0  0  0  0  0  3  0  0  0  0  0  0
  -22.0250   -7.1710   21.2750 O   0  0  0  0  0  0  0  0  0  0  0  0
  -21.8530   -6.4820   22.4490 C   0  0  0  0  0  0  0  0  0  0  0  0
  -21.2600   -7.0770   23.5840 C   0  0  0  0  0  3  0  0  0  0  0  0
  -21.0400   -6.3100   24.7460 C   0  0  0  0  0  3  0  0  0  0  0  0
  -21.4040   -4.9510   24.7730 C   0  0  0  0  0  0  0  0  0  0  0  0
  -21.9890   -4.3550   23.6420 C   0  0  0  0  0  3  0  0  0  0  0  0
  -22.2120   -5.1180   22.4830 C   0  0  0  0  0  0  0  0  0  0  0  0
  -22.7590   -4.5340   21.3890 F   0  0  0  0  0  0  0  0  0  0  0  0
  -21.1850   -4.2130   25.8870 F   0  0  0  0  0  0  0  0  0  0  0  0
  -23.0720  -13.8290   21.2330 C   0  0  0  0  0  0  0  0  0  0  0  0
  -22.3830  -13.1010   22.1040 N   0  0  0  0  0  0  0  0  0  0  0  0
  -22.6090  -14.8690   20.7670 O   0  0  0  0  0  0  0  0  0  0  0  0
  -22.7710  -12.2590   22.5070 H   0  0  0  0  0  0  0  0  0  0  0  0
  -21.4550  -13.3920   22.3760 H   0  0  0  0  0  0  0  0  0  0  0  0
  -25.6450  -15.5430   20.3780 N   0  0  0  0  0  0  0  0  0  0  0  0
  -24.8510  -16.1610   20.5060 H   0  0  0  0  0  0  0  0  0  0  0  0
  -26.4180  -15.9830   19.9010 H   0  0  0  0  0  0  0  0  0  0  0  0
  1  2  2  0
  2 51  1  0
  3  2  1  0
  3  9  1  0
  4  6  2  0
  4  5  2  0
  5  1  1  0
  6  3  1  0
  7  8  1  0
  9  7  1  0
  9  8  1  0
 10  4  1  0
 10 12  1  0
 11 22  2  0
 12 17  1  0
 13 21  1  0
 13 23  1  0
 14 20  1  0
 14 16  1  0
 15 21  1  0
 16 15  1  0
 17 16  2  0
 18 19  1  0
 18 12  2  0
 19 14  2  0
 20 13  1  0
 21 11  1  0
 23 25  2  0
 24 23  1  0
 26 24  1  0
 27 36  2  0
 27 32  1  0
 28 24  1  0
 28 32  1  0
 29 28  1  0
 30 31  1  0
 30 29  1  0
 31 27  1  0
 32 33  2  0
 33 34  1  0
 35 34  2  0
 36 35  1  0
 37 11  1  0
 37 38  1  0
 37 47  1  0
 38 41  1  0
 39 38  1  0
 39 43  1  0
 40 39  2  0
 43 42  1  0
 45 43  1  0
 45 46  1  0
 45 44  1  0
 47 50  1  1
 47 48  1  0
 49 47  1  0
 52 58  1  0
 53 58  1  0
 54 55  1  0
 54 53  1  0
 56 55  1  0
 56 70  1  0
 56 57  1  0
 58 57  1  0
 59 52  2  0
 60 62  1  0
 61 63  1  0
 61 64  1  0
 64 60  1  0
 64 52  1  0
 65 63  1  0
 65 62  1  0
 65 51  1  0
 65 66  1  6
 67 68  2  0
 68 87  1  0
 69 68  1  0
 69 72  1  0
 70 71  1  0
 70 67  1  0
 71 69  2  0
 72 73  1  0
 73 74  2  0
 75 78  1  0
 75 74  1  0
 76 75  2  0
 77 76  1  0
 77 72  2  0
 78 79  1  0
 79 84  2  0
 79 80  1  0
 80 81  2  0
 81 82  1  0
 82 86  1  0
 83 82  2  0
 84 83  1  0
 85 84  1  0
 87 88  1  0
 88 91  1  0
 88 90  1  0
 89 87  2  0
 92 93  1  0
 92 67  1  0
 94 92  1  0
M  ISO  4   4 101  10 101  52 100  64 100
M  END
>  <TORSDO>  (72) 
F 18

>  <SCORE>  (72) 
-13.131

>  <name>  (72) 
71

>  <ligand_id>  (72) 
71

>  <original_smiles>  (72) 
[H]c1nc(Oc2c([H])c([H])c3c(c2[H])C([H])([H])N(C(=O)C([H])(N([H])C(=O)C([H])(N([H])C([H])([H])[H])C([H])([H])[H])C(C([H])([H])[H])(C([H])([H])[H])C([H])([H])[H])C([H])(C(=O)N([H])C2([H])c4c([H])c([H])c([H])c([H])c4C([H])([H])C([H])([H])C2([H])[H])C3([H])[H])nc(C2([H])C([H])([H])C2([H])[H])c1C([H])([H])[N+]1([H])C([H])([H])C([H])([H])N(C(=O)N2C([H])([H])C([H])([H])C([H])([H])C([H])(n3nc(-c4c([H])c([H])c(Oc5c([H])c([H])c(F)c([H])c5F)c([H])c4[H])c(C(=O)N([H])[H])c3N([H])[H])C2([H])[H])C([H])([H])C1([H])[H]

>  <smiles>  (72) 
[H]c1nc(Oc2c([H])c([H])c3c(c2[H])C([H])([H])N(C(=O)C([H])(N([H])C(=O)C([H])(N([H])C([H])([H])[H])C([H])([H])[H])C(C([H])([H])[H])(C([H])([H])[H])C([H])([H])[H])C([H])(C(=O)N([H])C2([H])c4c([H])c([H])c([H])c([H])c4C([H])([H])C([H])([H])C2([H])[H])C3([H])[H])nc(C2([H])C([H])([H])C2([H])[H])c1C([H])([H])[N+]1([H])C([H])([H])C([H])([H])N(C(=O)N2C([H])([H])C([H])([H])C([H])([H])C([H])(n3nc(-c4c([H])c([H])c(Oc5c([H])c([H])c(F)c([H])c5F)c([H])c4[H])c(C(=O)N([H])[H])c3N([H])[H])C2([H])[H])C([H])([H])C1([H])[H]

$$$$
72:0:0
     RDKit          3D

 94103  0  0  1  0  0  0  0  0999 V2000
  -30.5190  -15.0770   20.4410 C   0  0  0  0  0  0  0  0  0  0  0  0
  -30.4320  -12.6950   19.4970 C   0  0  0  0  0  2  0  0  0  0  0  0
  -29.5100  -12.5310   18.2650 C   0  0  0  0  0  2  0  0  0  0  0  0
  -28.0590  -12.2820   18.7060 C   0  0  0  0  0  2  0  0  0  0  0  0
  -27.6110  -13.2570   19.8270 C   0  0  0  0  0  3  0  0  0  0  0  0
  -28.6520  -13.3700   20.9600 C   0  0  0  0  0  2  0  0  0  0  0  0
  -29.9000  -13.8200   20.3340 N   0  0  0  0  0  0  0  0  0  0  0  0
  -31.7390  -15.0540   20.2180 O   0  0  0  0  0  0  0  0  0  0  0  0
  -31.7620  -18.1990   22.9170 C   0  0  0  0  0  3  0  0  0  0  0  0
  -29.9670  -19.2420   21.0740 C   0  0  0  0  0  0  0  0  0  0  0  0
  -31.5900  -19.5730   22.7810 C   0  0  0  0  0  0  0  0  0  0  0  0
  -30.2470  -17.7030   21.1470 C   0  0  0  0  0  0  0  0  0  0  0  0
  -31.1350  -17.3310   22.1150 N   0  0  0  0  0  0  0  0  0  0  0  0
  -30.7240  -20.0620   21.8750 N   0  0  0  0  0  0  0  0  0  0  0  0
  -29.8110  -16.3510   20.5120 N   0  0  0  0  0  0  0  0  0  0  0  0
  -28.8290  -16.2930   20.2890 H   0  0  0  0  0  0  0  0  0  0  0  0
  -25.2340  -13.8200   20.5660 C   0  0  0  0  0  0  0  0  0  0  0  0
  -24.1680  -13.0420   20.9210 C   0  0  0  0  0  0  0  0  0  0  0  0
  -24.6340  -11.6910   20.8770 C   0  0  0  0  0  0  0  0  0  0  0  0
  -26.2770  -12.9460   20.3190 N   0  0  0  0  0  0  0  0  0  0  0  0
  -25.9270  -11.6590   20.5740 N   0  0  0  0  0  0  0  0  0  0  0  0
  -23.9050  -10.4280   21.0430 C   0  0  0  0  0  0  0  0  0  0  0  0
  -24.3610   -9.4190   21.9210 C   0  0  0  0  0  3  0  0  0  0  0  0
  -23.6260   -8.2240   22.0790 C   0  0  0  0  0  3  0  0  0  0  0  0
  -22.4240   -8.0290   21.3590 C   0  0  0  0  0  0  0  0  0  0  0  0
  -21.9880   -9.0250   20.4680 C   0  0  0  0  0  3  0  0  0  0  0  0
  -22.7230  -10.2110   20.3080 C   0  0  0  0  0  3  0  0  0  0  0  0
  -21.6640   -6.8870   21.4240 O   0  0  0  0  0  0  0  0  0  0  0  0
  -21.6840   -6.0730   22.5270 C   0  0  0  0  0  0  0  0  0  0  0  0
  -21.4010   -6.5640   23.8200 C   0  0  0  0  0  3  0  0  0  0  0  0
  -21.3660   -5.6790   24.9160 C   0  0  0  0  0  3  0  0  0  0  0  0
  -21.6050   -4.3050   24.7210 C   0  0  0  0  0  0  0  0  0  0  0  0
  -21.8810   -3.8130   23.4330 C   0  0  0  0  0  3  0  0  0  0  0  0
  -21.9190   -4.6950   22.3390 C   0  0  0  0  0  0  0  0  0  0  0  0
  -22.1650   -4.2130   21.0960 F   0  0  0  0  0  0  0  0  0  0  0  0
  -21.5640   -3.4550   25.7740 F   0  0  0  0  0  0  0  0  0  0  0  0
  -22.7720  -13.5210   21.1860 C   0  0  0  0  0  0  0  0  0  0  0  0
  -22.0350  -12.8230   22.0450 N   0  0  0  0  0  0  0  0  0  0  0  0
  -22.3450  -14.5550   20.6740 O   0  0  0  0  0  0  0  0  0  0  0  0
  -22.3960  -11.9880   22.4820 H   0  0  0  0  0  0  0  0  0  0  0  0
  -21.1030  -13.1370   22.2740 H   0  0  0  0  0  0  0  0  0  0  0  0
  -25.3960  -15.1940   20.4130 N   0  0  0  0  0  0  0  0  0  0  0  0
  -24.6150  -15.8350   20.5000 H   0  0  0  0  0  0  0  0  0  0  0  0
  -26.2350  -15.6420   20.0690 H   0  0  0  0  0  0  0  0  0  0  0  0
  -28.9050  -20.2880   20.4180 C   0  0  0  0  0  0  0  0  0  0  0  0
  -29.1210  -21.7200   20.4890 N   0  0  0  0  0  0  0  0  0  0  0  0
  -27.8510  -19.8560   19.9440 O   0  0  0  0  0  0  0  0  0  0  0  0
  -30.0640  -21.8480   20.8400 H   0  0  0  0  0  0  0  0  0  0  0  0
  -28.2620  -23.0770   20.6550 C   0  0  0  0  0  2  0  0  0  0  0  0
  -28.3980  -24.5820   19.8310 C   0  0  0  0  0  2  0  0  0  0  0  0
  -28.2910  -26.0930   20.3130 O   0  0  0  0  0  0  0  0  0  0  0  0
  -24.6480  -31.8390   23.1830 C   0  0  0  0  0  0  0  0  0  0  0  0
  -27.2260  -27.0770   20.1730 C   0  0  0  0  0  0  0  0  0  0  0  0
  -23.4550  -30.4550   21.5250 C   0  0  0  0  0  3  0  0  0  0  0  0
  -24.9080  -28.8610   20.1080 C   0  0  0  0  0  0  0  0  0  0  0  0
  -26.0060  -30.7020   21.3790 C   0  0  0  0  0  2  0  0  0  0  0  0
  -26.0790  -29.2990   20.7350 C   0  0  0  0  0  0  0  0  0  0  0  0
  -27.2310  -28.4170   20.7500 C   0  0  0  0  0  3  0  0  0  0  0  0
  -26.0320  -26.7530   19.4960 C   0  0  0  0  0  3  0  0  0  0  0  0
  -24.9010  -27.6070   19.4730 C   0  0  0  0  0  3  0  0  0  0  0  0
  -23.6870  -29.7730   20.1450 C   0  0  0  0  0  2  0  0  0  0  0  0
  -24.7230  -31.0190   22.0870 N   0  0  0  0  0  0  0  0  0  0  0  0
  -23.5600  -32.1270   23.7040 O   0  0  0  0  0  0  0  0  0  0  0  0
  -22.7570  -29.4550   22.4800 C   0  0  0  0  0  0  0  0  0  0  0  0
  -21.4270  -29.3130   22.3560 N   0  0  0  0  0  0  0  0  0  0  0  0
  -23.4210  -28.8130   23.2980 O   0  0  0  0  0  0  0  0  0  0  0  0
  -20.9520  -29.8840   21.6730 H   0  0  0  0  0  0  0  0  0  0  0  0
  -18.0300  -28.1480   22.8480 C   0  0  0  0  0  0  0  0  0  0  0  0
  -20.5900  -28.3820   23.1190 C   0  0  0  0  0  3  0  0  0  0  0  0
  -20.6780  -26.9510   22.5420 C   0  0  0  0  0  2  0  0  0  0  0  0
  -19.5760  -26.6450   21.5220 C   0  0  0  0  0  2  0  0  0  0  0  0
  -18.1940  -26.8030   22.1640 C   0  0  0  0  0  2  0  0  0  0  0  0
  -19.1550  -28.8980   23.2840 C   0  0  0  0  0  0  0  0  0  0  0  0
  -18.9490  -30.1560   23.8880 C   0  0  0  0  0  3  0  0  0  0  0  0
  -17.6490  -30.6660   24.0600 C   0  0  0  0  0  3  0  0  0  0  0  0
  -16.5370  -29.9170   23.6360 C   0  0  0  0  0  3  0  0  0  0  0  0
  -16.7290  -28.6610   23.0350 C   0  0  0  0  0  3  0  0  0  0  0  0
  -25.9250  -32.4680   23.8190 C   0  0  0  0  0  3  0  0  0  0  0  0
  -26.4560  -31.6590   25.0670 C   0  0  1  0  0  0  0  0  0  0  0  0
  -25.3730  -31.3850   26.1390 C   0  0  0  0  0  1  0  0  0  0  0  0
  -27.0440  -30.2980   24.6310 C   0  0  0  0  0  1  0  0  0  0  0  0
  -27.6060  -32.4360   25.7500 C   0  0  0  0  0  1  0  0  0  0  0  0
  -25.5980  -33.8460   24.2140 N   0  0  0  0  0  0  0  0  0  0  0  0
  -25.9070  -34.9400   23.5030 C   0  0  0  0  0  0  0  0  0  0  0  0
  -26.5610  -34.8910   22.4580 O   0  0  0  0  0  0  0  0  0  0  0  0
  -25.0120  -33.9530   25.0300 H   0  0  0  0  0  0  0  0  0  0  0  0
  -24.1460  -36.7260   23.2640 C   0  0  0  0  0  1  0  0  0  0  0  0
  -25.4100  -36.3000   24.0290 C   0  0  0  0  0  3  0  0  0  0  0  0
  -27.5520  -37.1800   24.8460 C   0  0  0  0  0  1  0  0  0  0  0  0
  -26.4250  -37.3730   23.9380 N   0  0  0  0  0  0  0  0  0  0  0  0
  -26.0110  -38.2790   24.1390 H   0  0  0  0  0  0  0  0  0  0  0  0
  -32.3260  -22.0310   23.5370 C   0  0  0  0  0  2  0  0  0  0  0  0
  -33.5540  -21.2430   23.1450 C   0  0  0  0  0  2  0  0  0  0  0  0
  -32.3310  -20.5270   23.6770 C   0  0  0  0  0  3  0  0  0  0  0  0
  1 15  1  0
  2  7  1  0
  3  4  1  0
  3  2  1  0
  5  4  1  0
  5 20  1  0
  5  6  1  0
  7  1  1  0
  7  6  1  0
  8  1  2  0
 10 12  2  0
 10 14  1  0
 11  9  1  0
 11 94  1  0
 12 13  1  0
 13  9  2  0
 14 11  2  0
 15 12  1  0
 16 15  1  0
 17 18  2  0
 18 37  1  0
 19 18  1  0
 19 22  1  0
 20 17  1  0
 20 21  1  0
 21 19  2  0
 22 23  1  0
 23 24  2  0
 25 28  1  0
 25 24  1  0
 26 25  2  0
 27 26  1  0
 27 22  2  0
 28 29  1  0
 29 30  1  0
 30 31  2  0
 32 31  1  0
 32 36  1  0
 33 32  2  0
 34 29  2  0
 34 33  1  0
 35 34  1  0
 37 38  1  0
 38 41  1  0
 38 40  1  0
 39 37  2  0
 42 43  1  0
 42 17  1  0
 44 42  1  0
 45 46  1  0
 45 10  1  0
 46 49  1  0
 46 48  1  0
 47 45  2  0
 50 51  1  0
 50 49  1  0
 52 63  2  0
 53 51  1  0
 53 58  1  0
 54 62  1  0
 54 64  1  0
 55 61  1  0
 55 57  1  0
 56 62  1  0
 57 58  2  0
 57 56  1  0
 59 53  2  0
 60 59  1  0
 60 55  2  0
 61 54  1  0
 62 52  1  0
 64 66  2  0
 65 64  1  0
 67 65  1  0
 68 77  2  0
 68 73  1  0
 69 65  1  0
 69 73  1  0
 70 69  1  0
 71 72  1  0
 71 70  1  0
 72 68  1  0
 73 74  2  0
 74 75  1  0
 76 75  2  0
 77 76  1  0
 78 52  1  0
 78 83  1  0
 78 79  1  0
 79 82  1  1
 79 80  1  0
 81 79  1  0
 83 86  1  0
 84 88  1  0
 84 83  1  0
 85 84  2  0
 88 87  1  0
 90 88  1  0
 90 91  1  0
 90 89  1  0
 92 94  1  0
 93 92  1  0
 93 94  1  0
M  ISO  4   1 100  15 100  50 101  51 101
M  END
>  <TORSDO>  (73) 
F 19

>  <SCORE>  (73) 
-12.812

>  <name>  (73) 
72

>  <ligand_id>  (73) 
72

>  <original_smiles>  (73) 
[H]c1nc(N([H])C(=O)N2C([H])([H])C([H])([H])C([H])([H])C([H])(n3nc(-c4c([H])c([H])c(Oc5c([H])c([H])c(F)c([H])c5F)c([H])c4[H])c(C(=O)N([H])[H])c3N([H])[H])C2([H])[H])c(C(=O)N([H])C([H])([H])C([H])([H])Oc2c([H])c([H])c3c(c2[H])C([H])([H])N(C(=O)C([H])(N([H])C(=O)C([H])(N([H])C([H])([H])[H])C([H])([H])[H])C(C([H])([H])[H])(C([H])([H])[H])C([H])([H])[H])C([H])(C(=O)N([H])C2([H])c4c([H])c([H])c([H])c([H])c4C([H])([H])C([H])([H])C2([H])[H])C3([H])[H])nc1C1([H])C([H])([H])C1([H])[H]

>  <smiles>  (73) 
[H]c1nc(N([H])C(=O)N2C([H])([H])C([H])([H])C([H])([H])C([H])(n3nc(-c4c([H])c([H])c(Oc5c([H])c([H])c(F)c([H])c5F)c([H])c4[H])c(C(=O)N([H])[H])c3N([H])[H])C2([H])[H])c(C(=O)N([H])C([H])([H])C([H])([H])Oc2c([H])c([H])c3c(c2[H])C([H])([H])N(C(=O)C([H])(N([H])C(=O)C([H])(N([H])C([H])([H])[H])C([H])([H])[H])C(C([H])([H])[H])(C([H])([H])[H])C([H])([H])[H])C([H])(C(=O)N([H])C2([H])c4c([H])c([H])c([H])c([H])c4C([H])([H])C([H])([H])C2([H])[H])C3([H])[H])nc1C1([H])C([H])([H])C1([H])[H]

$$$$
73:0:0
     RDKit          3D

 94103  0  0  1  0  0  0  0  0999 V2000
  -30.3320  -23.9530   20.3670 C   0  0  0  0  0  3  0  0  0  0  0  0
  -28.9550  -23.6590   20.3400 C   0  0  0  0  0  0  0  0  0  0  0  0
  -30.8920  -21.6930   20.5670 C   0  0  0  0  0  0  0  0  0  0  0  0
  -29.5180  -21.2920   20.5430 C   0  0  0  0  0  0  0  0  0  0  0  0
  -31.2770  -22.9920   20.4840 N   0  0  0  0  0  0  0  0  0  0  0  0
  -28.5620  -22.3100   20.4270 N   0  0  0  0  0  0  0  0  0  0  0  0
  -29.1390  -19.9280   20.8880 N   0  0  0  0  0  0  0  0  0  0  0  0
  -29.2730  -19.7610   21.8850 H   0  0  0  0  0  0  0  0  0  0  0  0
  -29.8440  -18.7170   18.7140 C   0  0  0  0  0  2  0  0  0  0  0  0
  -30.9110  -17.6730   19.0960 C   0  0  0  0  0  2  0  0  0  0  0  0
  -29.1890  -18.6130   20.1000 C   0  0  0  0  0  3  0  0  0  0  0  0
  -30.2320  -17.4130   20.4680 C   0  0  0  0  0  3  0  0  0  0  0  0
  -30.5440  -14.7820   20.4550 C   0  0  0  0  0  0  0  0  0  0  0  0
  -30.3720  -12.4820   19.4970 C   0  0  0  0  0  2  0  0  0  0  0  0
  -29.4740  -12.5370   18.2380 C   0  0  0  0  0  2  0  0  0  0  0  0
  -27.9880  -12.3860   18.6320 C   0  0  0  0  0  2  0  0  0  0  0  0
  -27.5810  -13.2820   19.8350 C   0  0  0  0  0  3  0  0  0  0  0  0
  -28.6080  -13.2210   20.9830 C   0  0  0  0  0  2  0  0  0  0  0  0
  -29.9130  -13.5580   20.4100 N   0  0  0  0  0  0  0  0  0  0  0  0
  -31.7440  -14.8480   20.1830 O   0  0  0  0  0  0  0  0  0  0  0  0
  -29.7810  -15.9460   20.5800 N   0  0  0  0  0  0  0  0  0  0  0  0
  -28.8070  -15.8080   20.8030 H   0  0  0  0  0  0  0  0  0  0  0  0
  -25.1820  -13.8720   20.5220 C   0  0  0  0  0  0  0  0  0  0  0  0
  -24.1110  -13.1030   20.8780 C   0  0  0  0  0  0  0  0  0  0  0  0
  -24.5740  -11.7520   20.8670 C   0  0  0  0  0  0  0  0  0  0  0  0
  -26.2300  -12.9900   20.3060 N   0  0  0  0  0  0  0  0  0  0  0  0
  -25.8680  -11.7090   20.5770 N   0  0  0  0  0  0  0  0  0  0  0  0
  -23.8400  -10.4910   21.0580 C   0  0  0  0  0  0  0  0  0  0  0  0
  -24.2680   -9.5220   21.9920 C   0  0  0  0  0  3  0  0  0  0  0  0
  -23.5340   -8.3290   22.1740 C   0  0  0  0  0  3  0  0  0  0  0  0
  -22.3580   -8.1000   21.4190 C   0  0  0  0  0  0  0  0  0  0  0  0
  -21.9490   -9.0570   20.4740 C   0  0  0  0  0  3  0  0  0  0  0  0
  -22.6840  -10.2400   20.2910 C   0  0  0  0  0  3  0  0  0  0  0  0
  -21.5990   -6.9600   21.5040 O   0  0  0  0  0  0  0  0  0  0  0  0
  -21.5550   -6.2070   22.6480 C   0  0  0  0  0  0  0  0  0  0  0  0
  -21.1530   -6.7540   23.8860 C   0  0  0  0  0  3  0  0  0  0  0  0
  -21.0560   -5.9300   25.0220 C   0  0  0  0  0  3  0  0  0  0  0  0
  -21.3530   -4.5580   24.9240 C   0  0  0  0  0  0  0  0  0  0  0  0
  -21.7500   -4.0090   23.6930 C   0  0  0  0  0  3  0  0  0  0  0  0
  -21.8470   -4.8310   22.5560 C   0  0  0  0  0  0  0  0  0  0  0  0
  -22.2110   -4.2920   21.3680 F   0  0  0  0  0  0  0  0  0  0  0  0
  -21.2530   -3.7640   26.0160 F   0  0  0  0  0  0  0  0  0  0  0  0
  -22.7110  -13.5870   21.1200 C   0  0  0  0  0  0  0  0  0  0  0  0
  -21.9650  -12.9070   21.9840 N   0  0  0  0  0  0  0  0  0  0  0  0
  -22.2840  -14.6060   20.5800 O   0  0  0  0  0  0  0  0  0  0  0  0
  -22.3180  -12.0870   22.4510 H   0  0  0  0  0  0  0  0  0  0  0  0
  -21.0260  -13.2180   22.1860 H   0  0  0  0  0  0  0  0  0  0  0  0
  -25.3450  -15.2410   20.3370 N   0  0  0  0  0  0  0  0  0  0  0  0
  -24.5660  -15.8840   20.4360 H   0  0  0  0  0  0  0  0  0  0  0  0
  -26.1830  -15.6840   19.9860 H   0  0  0  0  0  0  0  0  0  0  0  0
  -33.2970  -20.9570   19.9860 C   0  0  0  0  0  1  0  0  0  0  0  0
  -32.0450  -20.7420   20.8780 C   0  0  0  0  0  2  0  0  0  0  0  0
  -27.8950  -24.8430   20.1650 C   0  0  0  0  0  2  0  0  0  0  0  0
  -28.2490  -26.3170   20.2500 O   0  0  0  0  0  0  0  0  0  0  0  0
  -24.6330  -31.8960   23.2550 C   0  0  0  0  0  0  0  0  0  0  0  0
  -27.1850  -27.2570   20.1880 C   0  0  0  0  0  0  0  0  0  0  0  0
  -23.4180  -30.5060   21.6240 C   0  0  0  0  0  3  0  0  0  0  0  0
  -24.8530  -28.9500   20.1890 C   0  0  0  0  0  0  0  0  0  0  0  0
  -25.9660  -30.7890   21.4380 C   0  0  0  0  0  2  0  0  0  0  0  0
  -26.0360  -29.4070   20.7840 C   0  0  0  0  0  0  0  0  0  0  0  0
  -27.2060  -28.5740   20.7710 C   0  0  0  0  0  3  0  0  0  0  0  0
  -25.9770  -26.8860   19.5500 C   0  0  0  0  0  3  0  0  0  0  0  0
  -24.8310  -27.7000   19.5600 C   0  0  0  0  0  3  0  0  0  0  0  0
  -23.6270  -29.8400   20.2410 C   0  0  0  0  0  2  0  0  0  0  0  0
  -24.6930  -31.0810   22.1610 N   0  0  0  0  0  0  0  0  0  0  0  0
  -23.5520  -32.1830   23.7890 O   0  0  0  0  0  0  0  0  0  0  0  0
  -22.7470  -29.4940   22.5860 C   0  0  0  0  0  0  0  0  0  0  0  0
  -21.4190  -29.3240   22.4590 N   0  0  0  0  0  0  0  0  0  0  0  0
  -23.4230  -28.8650   23.4050 O   0  0  0  0  0  0  0  0  0  0  0  0
  -20.9340  -29.8750   21.7650 H   0  0  0  0  0  0  0  0  0  0  0  0
  -18.0370  -28.1340   22.9560 C   0  0  0  0  0  0  0  0  0  0  0  0
  -20.5940  -28.3940   23.2350 C   0  0  0  0  0  3  0  0  0  0  0  0
  -20.7010  -26.9590   22.6680 C   0  0  0  0  0  2  0  0  0  0  0  0
  -19.6030  -26.6300   21.6520 C   0  0  0  0  0  2  0  0  0  0  0  0
  -18.2180  -26.7810   22.2880 C   0  0  0  0  0  2  0  0  0  0  0  0
  -19.1540  -28.8990   23.3860 C   0  0  0  0  0  0  0  0  0  0  0  0
  -18.9310  -30.1640   23.9700 C   0  0  0  0  0  3  0  0  0  0  0  0
  -17.6270  -30.6660   24.1290 C   0  0  0  0  0  3  0  0  0  0  0  0
  -16.5250  -29.8990   23.7150 C   0  0  0  0  0  3  0  0  0  0  0  0
  -16.7310  -28.6360   23.1340 C   0  0  0  0  0  3  0  0  0  0  0  0
  -25.9190  -32.5250   23.8720 C   0  0  0  0  0  3  0  0  0  0  0  0
  -26.4340  -31.7500   25.1470 C   0  0  1  0  0  0  0  0  0  0  0  0
  -25.3400  -31.5230   26.2170 C   0  0  0  0  0  1  0  0  0  0  0  0
  -27.0040  -30.3680   24.7530 C   0  0  0  0  0  1  0  0  0  0  0  0
  -27.5950  -32.5350   25.8040 C   0  0  0  0  0  1  0  0  0  0  0  0
  -25.6150  -33.9230   24.2080 N   0  0  0  0  0  0  0  0  0  0  0  0
  -25.9360  -34.9780   23.4450 C   0  0  0  0  0  0  0  0  0  0  0  0
  -26.5890  -34.8740   22.4020 O   0  0  0  0  0  0  0  0  0  0  0  0
  -25.0380  -34.0790   25.0210 H   0  0  0  0  0  0  0  0  0  0  0  0
  -24.2000  -36.7690   23.1320 C   0  0  0  0  0  1  0  0  0  0  0  0
  -25.4610  -36.3660   23.9130 C   0  0  0  0  0  3  0  0  0  0  0  0
  -27.6210  -37.2480   24.6840 C   0  0  0  0  0  1  0  0  0  0  0  0
  -26.4910  -37.4220   23.7760 N   0  0  0  0  0  0  0  0  0  0  0  0
  -26.0880  -38.3400   23.9440 H   0  0  0  0  0  0  0  0  0  0  0  0
  1  5  1  0
  2  1  2  0
  2  6  1  0
  3 52  1  0
  4  3  1  0
  4  7  1  0
  5  3  2  0
  6  4  2  0
  7  8  1  0
  9 10  1  0
  9 11  1  0
 10 12  1  0
 11 12  1  0
 11  7  1  0
 12 21  1  0
 13 21  1  0
 14 19  1  0
 15 16  1  0
 15 14  1  0
 17 16  1  0
 17 26  1  0
 17 18  1  0
 19 13  1  0
 19 18  1  0
 20 13  2  0
 21 22  1  0
 23 24  2  0
 24 43  1  0
 25 24  1  0
 25 28  1  0
 26 23  1  0
 26 27  1  0
 27 25  2  0
 28 29  1  0
 29 30  2  0
 31 34  1  0
 31 30  1  0
 32 31  2  0
 33 32  1  0
 33 28  2  0
 34 35  1  0
 35 36  1  0
 36 37  2  0
 38 37  1  0
 38 42  1  0
 39 38  2  0
 40 35  2  0
 40 39  1  0
 41 40  1  0
 43 44  1  0
 44 47  1  0
 44 46  1  0
 45 43  2  0
 48 49  1  0
 48 23  1  0
 50 48  1  0
 51 52  1  0
 53 54  1  0
 53  2  1  0
 55 66  2  0
 56 54  1  0
 56 61  1  0
 57 65  1  0
 57 67  1  0
 58 64  1  0
 58 60  1  0
 59 65  1  0
 60 59  1  0
 61 60  2  0
 62 63  1  0
 62 56  2  0
 63 58  2  0
 64 57  1  0
 65 55  1  0
 67 69  2  0
 68 67  1  0
 70 68  1  0
 71 80  2  0
 71 76  1  0
 72 68  1  0
 72 76  1  0
 73 72  1  0
 74 75  1  0
 74 73  1  0
 75 71  1  0
 76 77  2  0
 77 78  1  0
 79 78  2  0
 80 79  1  0
 81 55  1  0
 81 86  1  0
 81 82  1  0
 82 85  1  1
 82 83  1  0
 84 82  1  0
 86 89  1  0
 87 91  1  0
 87 86  1  0
 88 87  2  0
 91 90  1  0
 93 91  1  0
 93 94  1  0
 93 92  1  0
M  ISO  4  13 100  21 100  53 101  54 101
M  END
>  <TORSDO>  (74) 
F 19

>  <SCORE>  (74) 
-14.538

>  <name>  (74) 
73

>  <ligand_id>  (74) 
73

>  <original_smiles>  (74) 
[H]c1nc(C([H])([H])C([H])([H])[H])c(N([H])C2([H])C([H])([H])C([H])([H])C2([H])N([H])C(=O)N2C([H])([H])C([H])([H])C([H])([H])C([H])(n3nc(-c4c([H])c([H])c(Oc5c([H])c([H])c(F)c([H])c5F)c([H])c4[H])c(C(=O)N([H])[H])c3N([H])[H])C2([H])[H])nc1C([H])([H])Oc1c([H])c([H])c2c(c1[H])C([H])([H])N(C(=O)C([H])(N([H])C(=O)C([H])(N([H])C([H])([H])[H])C([H])([H])[H])C(C([H])([H])[H])(C([H])([H])[H])C([H])([H])[H])C([H])(C(=O)N([H])C1([H])c3c([H])c([H])c([H])c([H])c3C([H])([H])C([H])([H])C1([H])[H])C2([H])[H]

>  <smiles>  (74) 
[H]c1nc(C([H])([H])C([H])([H])[H])c(N([H])C2([H])C([H])([H])C([H])([H])C2([H])N([H])C(=O)N2C([H])([H])C([H])([H])C([H])([H])C([H])(n3nc(-c4c([H])c([H])c(Oc5c([H])c([H])c(F)c([H])c5F)c([H])c4[H])c(C(=O)N([H])[H])c3N([H])[H])C2([H])[H])nc1C([H])([H])Oc1c([H])c([H])c2c(c1[H])C([H])([H])N(C(=O)C([H])(N([H])C(=O)C([H])(N([H])C([H])([H])[H])C([H])([H])[H])C(C([H])([H])[H])(C([H])([H])[H])C([H])([H])[H])C([H])(C(=O)N([H])C1([H])c3c([H])c([H])c([H])c([H])c3C([H])([H])C([H])([H])C1([H])[H])C2([H])[H]

$$$$
74:0:0
     RDKit          3D

 88 97  0  0  1  0  0  0  0  0999 V2000
  -29.7710  -22.6920   20.9670 C   0  0  0  0  0  3  0  0  0  0  0  0
  -28.3330  -21.8060   19.6950 C   0  0  0  0  0  3  0  0  0  0  0  0
  -28.6490  -23.1210   20.1660 C   0  0  0  0  0  0  0  0  0  0  0  0
  -30.0450  -21.3480   20.9720 N   0  0  0  0  0  0  0  0  0  0  0  0
  -29.1620  -20.7010   20.1560 N   0  0  0  0  0  0  0  0  0  0  0  0
  -30.5160  -15.1790   20.0790 C   0  0  0  0  0  0  0  0  0  0  0  0
  -30.3900  -12.8070   19.1300 C   0  0  0  0  0  2  0  0  0  0  0  0
  -29.4280  -12.7030   17.9250 C   0  0  0  0  0  2  0  0  0  0  0  0
  -27.9850  -12.4500   18.4020 C   0  0  0  0  0  2  0  0  0  0  0  0
  -27.5920  -13.3610   19.5940 C   0  0  0  0  0  3  0  0  0  0  0  0
  -28.6850  -13.4140   20.6810 C   0  0  0  0  0  2  0  0  0  0  0  0
  -29.9000  -13.9110   20.0200 N   0  0  0  0  0  0  0  0  0  0  0  0
  -31.7200  -15.1700   19.7930 O   0  0  0  0  0  0  0  0  0  0  0  0
  -28.1940  -18.2870   20.8610 C   0  0  0  0  0  2  0  0  0  0  0  0
  -28.4270  -16.7440   20.5890 C   0  0  0  0  0  2  0  0  0  0  0  0
  -30.3130  -17.9470   19.9670 C   0  0  0  0  0  2  0  0  0  0  0  0
  -29.1080  -19.0920   19.9300 C   0  0  0  0  0  3  0  0  0  0  0  0
  -29.8250  -16.4640   20.1900 N   0  0  0  0  0  0  0  0  0  0  0  0
  -25.2330  -13.9110   20.4170 C   0  0  0  0  0  0  0  0  0  0  0  0
  -24.1840  -13.1240   20.8050 C   0  0  0  0  0  0  0  0  0  0  0  0
  -24.6580  -11.7780   20.7450 C   0  0  0  0  0  0  0  0  0  0  0  0
  -26.2750  -13.0440   20.1340 N   0  0  0  0  0  0  0  0  0  0  0  0
  -25.9410  -11.7540   20.3990 N   0  0  0  0  0  0  0  0  0  0  0  0
  -23.9460  -10.5090   20.9390 C   0  0  0  0  0  0  0  0  0  0  0  0
  -24.3750   -9.5590   21.8910 C   0  0  0  0  0  3  0  0  0  0  0  0
  -23.6600   -8.3560   22.0740 C   0  0  0  0  0  3  0  0  0  0  0  0
  -22.5020   -8.0940   21.3040 C   0  0  0  0  0  0  0  0  0  0  0  0
  -22.0920   -9.0350   20.3420 C   0  0  0  0  0  3  0  0  0  0  0  0
  -22.8080  -10.2290   20.1580 C   0  0  0  0  0  3  0  0  0  0  0  0
  -21.7580   -6.9430   21.3940 O   0  0  0  0  0  0  0  0  0  0  0  0
  -21.6460   -6.2500   22.5730 C   0  0  0  0  0  0  0  0  0  0  0  0
  -21.1080   -6.8410   23.7370 C   0  0  0  0  0  3  0  0  0  0  0  0
  -20.9440   -6.0720   24.9060 C   0  0  0  0  0  3  0  0  0  0  0  0
  -21.3110   -4.7130   24.9120 C   0  0  0  0  0  0  0  0  0  0  0  0
  -21.8420   -4.1220   23.7530 C   0  0  0  0  0  3  0  0  0  0  0  0
  -22.0060   -4.8880   22.5860 C   0  0  0  0  0  0  0  0  0  0  0  0
  -22.4990   -4.3060   21.4650 F   0  0  0  0  0  0  0  0  0  0  0  0
  -21.1480   -3.9720   26.0320 F   0  0  0  0  0  0  0  0  0  0  0  0
  -22.7920  -13.5930   21.1150 C   0  0  0  0  0  0  0  0  0  0  0  0
  -22.0890  -12.8920   21.9970 N   0  0  0  0  0  0  0  0  0  0  0  0
  -22.3370  -14.6190   20.6130 O   0  0  0  0  0  0  0  0  0  0  0  0
  -22.4670  -12.0620   22.4290 H   0  0  0  0  0  0  0  0  0  0  0  0
  -21.1580  -13.1970   22.2470 H   0  0  0  0  0  0  0  0  0  0  0  0
  -25.3800  -15.2830   20.2580 N   0  0  0  0  0  0  0  0  0  0  0  0
  -24.6320  -15.9410   20.4390 H   0  0  0  0  0  0  0  0  0  0  0  0
  -26.2370  -15.7300   19.9620 H   0  0  0  0  0  0  0  0  0  0  0  0
  -27.8540  -24.6020   19.9210 C   0  0  0  0  0  2  0  0  0  0  0  0
  -28.2130  -26.1110   20.2560 O   0  0  0  0  0  0  0  0  0  0  0  0
  -24.6380  -31.9030   23.2760 C   0  0  0  0  0  0  0  0  0  0  0  0
  -27.1980  -27.1650   20.1850 C   0  0  0  0  0  0  0  0  0  0  0  0
  -23.4400  -30.5350   21.6170 C   0  0  0  0  0  3  0  0  0  0  0  0
  -24.8870  -28.9720   20.1700 C   0  0  0  0  0  0  0  0  0  0  0  0
  -26.0020  -30.7740   21.4700 C   0  0  0  0  0  2  0  0  0  0  0  0
  -26.0720  -29.3860   20.7930 C   0  0  0  0  0  0  0  0  0  0  0  0
  -27.2260  -28.5020   20.7820 C   0  0  0  0  0  3  0  0  0  0  0  0
  -25.9850  -26.8790   19.5170 C   0  0  0  0  0  3  0  0  0  0  0  0
  -24.8620  -27.7330   19.5160 C   0  0  0  0  0  3  0  0  0  0  0  0
  -23.6650  -29.8790   20.2300 C   0  0  0  0  0  2  0  0  0  0  0  0
  -24.7130  -31.0920   22.1760 N   0  0  0  0  0  0  0  0  0  0  0  0
  -23.5490  -32.1860   23.8020 O   0  0  0  0  0  0  0  0  0  0  0  0
  -22.7490  -29.5190   22.5640 C   0  0  0  0  0  0  0  0  0  0  0  0
  -21.4220  -29.3460   22.4200 N   0  0  0  0  0  0  0  0  0  0  0  0
  -23.4110  -28.8900   23.3920 O   0  0  0  0  0  0  0  0  0  0  0  0
  -20.9410  -29.9060   21.7300 H   0  0  0  0  0  0  0  0  0  0  0  0
  -18.0380  -28.1260   22.8820 C   0  0  0  0  0  0  0  0  0  0  0  0
  -20.5940  -28.3990   23.1760 C   0  0  0  0  0  3  0  0  0  0  0  0
  -20.7080  -26.9720   22.5920 C   0  0  0  0  0  2  0  0  0  0  0  0
  -19.6180  -26.6500   21.5660 C   0  0  0  0  0  2  0  0  0  0  0  0
  -18.2280  -26.7840   22.1950 C   0  0  0  0  0  2  0  0  0  0  0  0
  -19.1490  -28.8920   23.3290 C   0  0  0  0  0  0  0  0  0  0  0  0
  -18.9160  -30.1470   23.9310 C   0  0  0  0  0  3  0  0  0  0  0  0
  -17.6050  -30.6360   24.0920 C   0  0  0  0  0  3  0  0  0  0  0  0
  -16.5100  -29.8680   23.6620 C   0  0  0  0  0  3  0  0  0  0  0  0
  -16.7270  -28.6150   23.0620 C   0  0  0  0  0  3  0  0  0  0  0  0
  -25.9130  -32.5280   23.9170 C   0  0  0  0  0  3  0  0  0  0  0  0
  -25.6130  -33.9320   24.2410 N   0  0  0  0  0  0  0  0  0  0  0  0
  -25.9270  -34.9800   23.4710 C   0  0  0  0  0  0  0  0  0  0  0  0
  -26.5660  -34.8670   22.4220 O   0  0  0  0  0  0  0  0  0  0  0  0
  -25.0420  -34.0910   25.0600 H   0  0  0  0  0  0  0  0  0  0  0  0
  -24.1810  -36.7690   23.1810 C   0  0  0  0  0  1  0  0  0  0  0  0
  -25.4610  -36.3750   23.9350 C   0  0  0  0  0  3  0  0  0  0  0  0
  -27.6260  -37.2810   24.6550 C   0  0  0  0  0  1  0  0  0  0  0  0
  -26.4830  -37.4290   23.7580 N   0  0  0  0  0  0  0  0  0  0  0  0
  -26.0800  -38.3510   23.9040 H   0  0  0  0  0  0  0  0  0  0  0  0
  -26.3960  -31.7600   25.2090 C   0  0  1  0  0  0  0  0  0  0  0  0
  -25.2800  -31.5440   26.2590 C   0  0  0  0  0  1  0  0  0  0  0  0
  -26.9690  -30.3730   24.8450 C   0  0  0  0  0  1  0  0  0  0  0  0
  -27.5440  -32.5440   25.8850 C   0  0  0  0  0  1  0  0  0  0  0  0
  1  4  2  0
  2  5  1  0
  2  3  2  0
  3  1  1  0
  5  4  1  0
  6 18  1  0
  7 12  1  0
  8  9  1  0
  8  7  1  0
 10  9  1  0
 10 22  1  0
 10 11  1  0
 12  6  1  0
 12 11  1  0
 13  6  2  0
 15 14  1  0
 16 18  1  0
 17 16  1  0
 17  5  1  0
 17 14  1  0
 18 15  1  0
 19 20  2  0
 20 39  1  0
 21 20  1  0
 21 24  1  0
 22 23  1  0
 22 19  1  0
 23 21  2  0
 24 25  1  0
 25 26  2  0
 27 30  1  0
 27 26  1  0
 28 27  2  0
 29 28  1  0
 29 24  2  0
 30 31  1  0
 31 36  2  0
 31 32  1  0
 32 33  2  0
 33 34  1  0
 34 38  1  0
 35 34  2  0
 36 35  1  0
 37 36  1  0
 39 40  1  0
 40 43  1  0
 40 42  1  0
 41 39  2  0
 44 19  1  0
 44 45  1  0
 46 44  1  0
 47  3  1  0
 47 48  1  0
 49 60  2  0
 50 48  1  0
 50 55  1  0
 51 59  1  0
 51 61  1  0
 52 58  1  0
 52 54  1  0
 53 59  1  0
 54 53  1  0
 55 54  2  0
 56 50  2  0
 57 56  1  0
 57 52  2  0
 58 51  1  0
 59 49  1  0
 61 63  2  0
 62 61  1  0
 64 62  1  0
 65 74  2  0
 65 70  1  0
 66 62  1  0
 66 70  1  0
 67 66  1  0
 68 69  1  0
 68 67  1  0
 69 65  1  0
 70 71  2  0
 71 72  1  0
 73 72  2  0
 74 73  1  0
 75 49  1  0
 75 76  1  0
 75 85  1  0
 76 79  1  0
 77 81  1  0
 77 76  1  0
 78 77  2  0
 81 80  1  0
 83 84  1  0
 83 81  1  0
 83 82  1  0
 85 88  1  1
 85 86  1  0
 87 85  1  0
M  ISO  4   6 100  18 100  47 101  48 101
M  END
>  <TORSDO>  (75) 
F 17

>  <SCORE>  (75) 
-15.332

>  <name>  (75) 
74

>  <ligand_id>  (75) 
74

>  <original_smiles>  (75) 
[H]c1nn(C2([H])C([H])([H])N(C(=O)N3C([H])([H])C([H])([H])C([H])([H])C([H])(n4nc(-c5c([H])c([H])c(Oc6c([H])c([H])c(F)c([H])c6F)c([H])c5[H])c(C(=O)N([H])[H])c4N([H])[H])C3([H])[H])C([H])([H])C2([H])[H])c([H])c1C([H])([H])Oc1c([H])c([H])c2c(c1[H])C([H])([H])N(C(=O)C([H])(N([H])C(=O)C([H])(N([H])C([H])([H])[H])C([H])([H])[H])C(C([H])([H])[H])(C([H])([H])[H])C([H])([H])[H])C([H])(C(=O)N([H])C1([H])c3c([H])c([H])c([H])c([H])c3C([H])([H])C([H])([H])C1([H])[H])C2([H])[H]

>  <smiles>  (75) 
[H]c1nn(C2([H])C([H])([H])N(C(=O)N3C([H])([H])C([H])([H])C([H])([H])C([H])(n4nc(-c5c([H])c([H])c(Oc6c([H])c([H])c(F)c([H])c6F)c([H])c5[H])c(C(=O)N([H])[H])c4N([H])[H])C3([H])[H])C([H])([H])C2([H])[H])c([H])c1C([H])([H])Oc1c([H])c([H])c2c(c1[H])C([H])([H])N(C(=O)C([H])(N([H])C(=O)C([H])(N([H])C([H])([H])[H])C([H])([H])[H])C(C([H])([H])[H])(C([H])([H])[H])C([H])([H])[H])C([H])(C(=O)N([H])C1([H])c3c([H])c([H])c([H])c([H])c3C([H])([H])C([H])([H])C1([H])[H])C2([H])[H]

$$$$
75:0:0
     RDKit          3D

 94103  0  0  1  0  0  0  0  0999 V2000
  -30.1150  -21.6480   20.4000 C   0  0  0  0  0  3  0  0  0  0  0  0
  -29.9420  -21.1860   21.7270 C   0  0  0  0  0  0  0  0  0  0  0  0
  -29.8090  -22.2150   22.6880 C   0  0  0  0  0  0  0  0  0  0  0  0
  -30.0990  -23.8450   21.0910 C   0  0  0  0  0  0  0  0  0  0  0  0
  -29.5640  -21.9130   24.1540 C   0  0  0  0  0  1  0  0  0  0  0  0
  -30.1900  -22.9640   20.0940 N   0  0  0  0  0  0  0  0  0  0  0  0
  -29.9110  -23.5210   22.3660 N   0  0  0  0  0  0  0  0  0  0  0  0
  -29.8880  -19.8280   22.1280 N   0  0  0  0  0  0  0  0  0  0  0  0
  -29.6660  -19.6310   23.1010 H   0  0  0  0  0  0  0  0  0  0  0  0
  -31.2690  -14.6540   19.9760 C   0  0  0  0  0  0  0  0  0  0  0  0
  -30.7550  -12.5560   18.7630 C   0  0  0  0  0  2  0  0  0  0  0  0
  -29.7460  -12.8190   17.6270 C   0  0  0  0  0  2  0  0  0  0  0  0
  -28.3020  -12.6890   18.1480 C   0  0  0  0  0  2  0  0  0  0  0  0
  -28.0790  -13.5020   19.4480 C   0  0  0  0  0  3  0  0  0  0  0  0
  -29.2030  -13.2230   20.4820 C   0  0  0  0  0  2  0  0  0  0  0  0
  -30.4880  -13.5340   19.8400 N   0  0  0  0  0  0  0  0  0  0  0  0
  -32.3710  -14.6990   19.4200 O   0  0  0  0  0  0  0  0  0  0  0  0
  -29.1790  -17.6540   21.2460 C   0  0  0  0  0  2  0  0  0  0  0  0
  -31.4850  -17.9350   21.9470 C   0  0  0  0  0  2  0  0  0  0  0  0
  -29.5380  -16.3860   20.4400 C   0  0  0  0  0  2  0  0  0  0  0  0
  -31.9130  -16.6970   21.1210 C   0  0  0  0  0  2  0  0  0  0  0  0
  -30.3050  -18.6790   21.3160 C   0  0  0  0  0  3  0  0  0  0  0  0
  -30.8450  -15.7400   20.7140 N   0  0  0  0  0  0  0  0  0  0  0  0
  -25.7730  -14.2030   20.3490 C   0  0  0  0  0  0  0  0  0  0  0  0
  -24.6960  -13.4680   20.7660 C   0  0  0  0  0  0  0  0  0  0  0  0
  -25.0880  -12.0990   20.6560 C   0  0  0  0  0  0  0  0  0  0  0  0
  -26.7520  -13.2820   20.0130 N   0  0  0  0  0  0  0  0  0  0  0  0
  -26.3490  -12.0110   20.2570 N   0  0  0  0  0  0  0  0  0  0  0  0
  -24.3180  -10.8660   20.8480 C   0  0  0  0  0  0  0  0  0  0  0  0
  -24.7350   -9.8730   21.7600 C   0  0  0  0  0  3  0  0  0  0  0  0
  -23.9690   -8.7010   21.9390 C   0  0  0  0  0  3  0  0  0  0  0  0
  -22.7730   -8.5160   21.2070 C   0  0  0  0  0  0  0  0  0  0  0  0
  -22.3750   -9.4990   20.2830 C   0  0  0  0  0  3  0  0  0  0  0  0
  -23.1410  -10.6610   20.1010 C   0  0  0  0  0  3  0  0  0  0  0  0
  -21.9780   -7.3990   21.2970 O   0  0  0  0  0  0  0  0  0  0  0  0
  -21.8750   -6.6820   22.4610 C   0  0  0  0  0  0  0  0  0  0  0  0
  -21.4430   -7.2770   23.6670 C   0  0  0  0  0  3  0  0  0  0  0  0
  -21.2850   -6.4880   24.8230 C   0  0  0  0  0  3  0  0  0  0  0  0
  -21.5480   -5.1050   24.7760 C   0  0  0  0  0  0  0  0  0  0  0  0
  -21.9720   -4.5110   23.5750 C   0  0  0  0  0  3  0  0  0  0  0  0
  -22.1330   -5.2970   22.4200 C   0  0  0  0  0  0  0  0  0  0  0  0
  -22.5220   -4.7150   21.2610 F   0  0  0  0  0  0  0  0  0  0  0  0
  -21.3880   -4.3460   25.8850 F   0  0  0  0  0  0  0  0  0  0  0  0
  -23.3450  -14.0000   21.1530 C   0  0  0  0  0  0  0  0  0  0  0  0
  -22.6500  -13.3120   22.0510 N   0  0  0  0  0  0  0  0  0  0  0  0
  -22.9200  -15.0590   20.6930 O   0  0  0  0  0  0  0  0  0  0  0  0
  -23.0100  -12.4560   22.4460 H   0  0  0  0  0  0  0  0  0  0  0  0
  -21.7460  -13.6500   22.3510 H   0  0  0  0  0  0  0  0  0  0  0  0
  -25.9860  -15.5700   20.2050 N   0  0  0  0  0  0  0  0  0  0  0  0
  -25.2570  -16.2500   20.3990 H   0  0  0  0  0  0  0  0  0  0  0  0
  -26.8190  -15.9850   19.8110 H   0  0  0  0  0  0  0  0  0  0  0  0
  -30.4800  -25.3040   20.7930 C   0  0  0  0  0  2  0  0  0  0  0  0
  -29.3720  -26.3920   20.8890 C   0  0  0  0  0  2  0  0  0  0  0  0
  -28.7080  -26.6680   19.6510 O   0  0  0  0  0  0  0  0  0  0  0  0
  -24.7320  -31.5740   23.0440 C   0  0  0  0  0  0  0  0  0  0  0  0
  -27.5420  -27.3970   19.7460 C   0  0  0  0  0  0  0  0  0  0  0  0
  -23.5680  -30.1820   21.3630 C   0  0  0  0  0  3  0  0  0  0  0  0
  -25.0760  -28.7800   19.8510 C   0  0  0  0  0  0  0  0  0  0  0  0
  -26.0680  -30.6740   21.1430 C   0  0  0  0  0  2  0  0  0  0  0  0
  -26.2140  -29.3330   20.4530 C   0  0  0  0  0  0  0  0  0  0  0  0
  -27.4500  -28.6470   20.4100 C   0  0  0  0  0  3  0  0  0  0  0  0
  -26.3940  -26.8660   19.1300 C   0  0  0  0  0  3  0  0  0  0  0  0
  -25.1590  -27.5430   19.1880 C   0  0  0  0  0  3  0  0  0  0  0  0
  -23.7880  -29.5700   19.9520 C   0  0  0  0  0  2  0  0  0  0  0  0
  -24.8080  -30.8250   21.9080 N   0  0  0  0  0  0  0  0  0  0  0  0
  -23.6490  -31.7700   23.6130 O   0  0  0  0  0  0  0  0  0  0  0  0
  -22.9860  -29.0930   22.2900 C   0  0  0  0  0  0  0  0  0  0  0  0
  -21.6770  -28.8240   22.1510 N   0  0  0  0  0  0  0  0  0  0  0  0
  -23.7080  -28.4920   23.0900 O   0  0  0  0  0  0  0  0  0  0  0  0
  -21.1520  -29.3640   21.4780 H   0  0  0  0  0  0  0  0  0  0  0  0
  -18.4020  -27.3520   22.5590 C   0  0  0  0  0  0  0  0  0  0  0  0
  -20.9240  -27.8100   22.8900 C   0  0  0  0  0  3  0  0  0  0  0  0
  -21.1540  -26.4030   22.2930 C   0  0  0  0  0  2  0  0  0  0  0  0
  -20.1030  -26.0110   21.2500 C   0  0  0  0  0  2  0  0  0  0  0  0
  -18.7010  -26.0330   21.8660 C   0  0  0  0  0  2  0  0  0  0  0  0
  -19.4470  -28.1950   23.0250 C   0  0  0  0  0  0  0  0  0  0  0  0
  -19.1150  -29.4260   23.6300 C   0  0  0  0  0  3  0  0  0  0  0  0
  -17.7720  -29.8190   23.7740 C   0  0  0  0  0  3  0  0  0  0  0  0
  -16.7420  -28.9760   23.3260 C   0  0  0  0  0  3  0  0  0  0  0  0
  -17.0580  -27.7440   22.7250 C   0  0  0  0  0  3  0  0  0  0  0  0
  -25.9980  -32.2420   23.6690 C   0  0  0  0  0  3  0  0  0  0  0  0
  -26.5810  -31.4420   24.8980 C   0  0  1  0  0  0  0  0  0  0  0  0
  -25.5280  -31.1070   25.9780 C   0  0  0  0  0  1  0  0  0  0  0  0
  -27.2210  -30.1130   24.4300 C   0  0  0  0  0  1  0  0  0  0  0  0
  -27.7080  -32.2630   25.5670 C   0  0  0  0  0  1  0  0  0  0  0  0
  -25.6280  -33.6070   24.0650 N   0  0  0  0  0  0  0  0  0  0  0  0
  -25.8910  -34.7050   23.3440 C   0  0  0  0  0  0  0  0  0  0  0  0
  -26.5430  -34.6780   22.2960 O   0  0  0  0  0  0  0  0  0  0  0  0
  -25.0420  -33.6980   24.8820 H   0  0  0  0  0  0  0  0  0  0  0  0
  -24.0650  -36.4170   23.1020 C   0  0  0  0  0  1  0  0  0  0  0  0
  -25.3450  -36.0470   23.8690 C   0  0  0  0  0  3  0  0  0  0  0  0
  -27.4510  -37.0090   24.6880 C   0  0  0  0  0  1  0  0  0  0  0  0
  -26.3200  -37.1560   23.7750 N   0  0  0  0  0  0  0  0  0  0  0  0
  -25.8710  -38.0480   23.9650 H   0  0  0  0  0  0  0  0  0  0  0  0
  1  2  2  0
  2  8  1  0
  2  3  1  0
  3  5  1  0
  4  7  1  0
  6  1  1  0
  6  4  2  0
  7  3  2  0
  8  9  1  0
 10 23  1  0
 11 16  1  0
 12 13  1  0
 12 11  1  0
 14 13  1  0
 14 27  1  0
 14 15  1  0
 16 10  1  0
 16 15  1  0
 17 10  2  0
 18 22  1  0
 20 23  1  0
 20 18  1  0
 21 19  1  0
 22 19  1  0
 22  8  1  0
 23 21  1  0
 24 25  2  0
 25 44  1  0
 26 25  1  0
 26 29  1  0
 27 28  1  0
 27 24  1  0
 28 26  2  0
 29 30  1  0
 30 31  2  0
 32 35  1  0
 32 31  1  0
 33 32  2  0
 34 33  1  0
 34 29  2  0
 35 36  1  0
 36 37  1  0
 37 38  2  0
 39 38  1  0
 39 43  1  0
 40 39  2  0
 41 36  2  0
 41 40  1  0
 42 41  1  0
 44 45  1  0
 45 48  1  0
 45 47  1  0
 46 44  2  0
 49 24  1  0
 49 50  1  0
 51 49  1  0
 52 53  1  0
 52  4  1  0
 54 56  1  0
 54 53  1  0
 55 66  2  0
 56 61  1  0
 57 65  1  0
 57 67  1  0
 58 64  1  0
 58 60  1  0
 59 65  1  0
 60 59  1  0
 61 60  2  0
 62 63  1  0
 62 56  2  0
 63 58  2  0
 64 57  1  0
 65 55  1  0
 67 69  2  0
 68 67  1  0
 70 68  1  0
 71 80  2  0
 71 76  1  0
 72 68  1  0
 72 76  1  0
 73 72  1  0
 74 75  1  0
 74 73  1  0
 75 71  1  0
 76 77  2  0
 77 78  1  0
 79 78  2  0
 80 79  1  0
 81 55  1  0
 81 86  1  0
 81 82  1  0
 82 85  1  1
 82 83  1  0
 84 82  1  0
 86 89  1  0
 87 91  1  0
 87 86  1  0
 88 87  2  0
 91 90  1  0
 93 91  1  0
 93 94  1  0
 93 92  1  0
M  ISO  4  10 100  23 100  53 101  54 101
M  END
>  <TORSDO>  (76) 
F 19

>  <SCORE>  (76) 
-12.298

>  <name>  (76) 
75

>  <ligand_id>  (76) 
75

>  <original_smiles>  (76) 
[H]c1nc(C([H])([H])C([H])([H])Oc2c([H])c([H])c3c(c2[H])C([H])([H])N(C(=O)C([H])(N([H])C(=O)C([H])(N([H])C([H])([H])[H])C([H])([H])[H])C(C([H])([H])[H])(C([H])([H])[H])C([H])([H])[H])C([H])(C(=O)N([H])C2([H])c4c([H])c([H])c([H])c([H])c4C([H])([H])C([H])([H])C2([H])[H])C3([H])[H])nc(C([H])([H])[H])c1N([H])C1([H])C([H])([H])C([H])([H])N(C(=O)N2C([H])([H])C([H])([H])C([H])([H])C([H])(n3nc(-c4c([H])c([H])c(Oc5c([H])c([H])c(F)c([H])c5F)c([H])c4[H])c(C(=O)N([H])[H])c3N([H])[H])C2([H])[H])C([H])([H])C1([H])[H]

>  <smiles>  (76) 
[H]c1nc(C([H])([H])C([H])([H])Oc2c([H])c([H])c3c(c2[H])C([H])([H])N(C(=O)C([H])(N([H])C(=O)C([H])(N([H])C([H])([H])[H])C([H])([H])[H])C(C([H])([H])[H])(C([H])([H])[H])C([H])([H])[H])C([H])(C(=O)N([H])C2([H])c4c([H])c([H])c([H])c([H])c4C([H])([H])C([H])([H])C2([H])[H])C3([H])[H])nc(C([H])([H])[H])c1N([H])C1([H])C([H])([H])C([H])([H])N(C(=O)N2C([H])([H])C([H])([H])C([H])([H])C([H])(n3nc(-c4c([H])c([H])c(Oc5c([H])c([H])c(F)c([H])c5F)c([H])c4[H])c(C(=O)N([H])[H])c3N([H])[H])C2([H])[H])C([H])([H])C1([H])[H]

$$$$
76:0:0
     RDKit          3D

 86 94  0  0  1  0  0  0  0  0999 V2000
  -28.9570  -22.5610   20.2160 C   0  0  0  0  0  0  0  0  0  0  0  0
  -30.1500  -22.8720   20.1440 O   0  0  0  0  0  0  0  0  0  0  0  0
  -30.3660  -15.5560   20.0340 C   0  0  0  0  0  0  0  0  0  0  0  0
  -30.3290  -13.0760   19.1470 C   0  0  0  0  0  2  0  0  0  0  0  0
  -29.3740  -12.7580   17.9680 C   0  0  0  0  0  2  0  0  0  0  0  0
  -27.9630  -12.4330   18.4800 C   0  0  0  0  0  2  0  0  0  0  0  0
  -27.5250  -13.4040   19.6040 C   0  0  0  0  0  3  0  0  0  0  0  0
  -28.6160  -13.6570   20.6690 C   0  0  0  0  0  2  0  0  0  0  0  0
  -29.7710  -14.2400   19.9570 N   0  0  0  0  0  0  0  0  0  0  0  0
  -31.5930  -15.4500   19.8490 O   0  0  0  0  0  0  0  0  0  0  0  0
  -28.9040  -19.5810   19.1400 C   0  0  0  0  0  2  0  0  0  0  0  0
  -29.6420  -19.7170   21.2910 C   0  0  0  0  0  2  0  0  0  0  0  0
  -28.8040  -17.8610   19.3520 C   0  0  0  0  0  2  0  0  0  0  0  0
  -30.3830  -18.2010   20.9220 C   0  0  0  0  0  2  0  0  0  0  0  0
  -28.7500  -20.7440   20.3220 C   0  0  0  0  0  3  0  0  0  0  0  0
  -29.7430  -16.9530   20.2260 N   0  0  0  0  0  0  0  0  0  0  0  0
  -25.2060  -13.9140   20.5110 C   0  0  0  0  0  0  0  0  0  0  0  0
  -24.1660  -13.1210   20.9050 C   0  0  0  0  0  0  0  0  0  0  0  0
  -24.6350  -11.7730   20.8050 C   0  0  0  0  0  0  0  0  0  0  0  0
  -26.2360  -13.0530   20.1830 N   0  0  0  0  0  0  0  0  0  0  0  0
  -25.9100  -11.7560   20.4290 N   0  0  0  0  0  0  0  0  0  0  0  0
  -23.9170  -10.5040   20.9890 C   0  0  0  0  0  0  0  0  0  0  0  0
  -24.3580   -9.5310   21.9130 C   0  0  0  0  0  3  0  0  0  0  0  0
  -23.6370   -8.3300   22.0870 C   0  0  0  0  0  3  0  0  0  0  0  0
  -22.4600   -8.0930   21.3370 C   0  0  0  0  0  0  0  0  0  0  0  0
  -22.0390   -9.0540   20.4010 C   0  0  0  0  0  3  0  0  0  0  0  0
  -22.7610  -10.2460   20.2250 C   0  0  0  0  0  3  0  0  0  0  0  0
  -21.7100   -6.9440   21.4210 O   0  0  0  0  0  0  0  0  0  0  0  0
  -21.6190   -6.2270   22.5880 C   0  0  0  0  0  0  0  0  0  0  0  0
  -21.1210   -6.8000   23.7780 C   0  0  0  0  0  3  0  0  0  0  0  0
  -20.9790   -6.0080   24.9350 C   0  0  0  0  0  3  0  0  0  0  0  0
  -21.3260   -4.6440   24.9020 C   0  0  0  0  0  0  0  0  0  0  0  0
  -21.8170   -4.0710   23.7160 C   0  0  0  0  0  3  0  0  0  0  0  0
  -21.9590   -4.8600   22.5610 C   0  0  0  0  0  0  0  0  0  0  0  0
  -22.4130   -4.2960   21.4160 F   0  0  0  0  0  0  0  0  0  0  0  0
  -21.1830   -3.8810   26.0110 F   0  0  0  0  0  0  0  0  0  0  0  0
  -22.7830  -13.5860   21.2510 C   0  0  0  0  0  0  0  0  0  0  0  0
  -22.0970  -12.8660   22.1320 N   0  0  0  0  0  0  0  0  0  0  0  0
  -22.3210  -14.6230   20.7770 O   0  0  0  0  0  0  0  0  0  0  0  0
  -22.4840  -12.0270   22.5390 H   0  0  0  0  0  0  0  0  0  0  0  0
  -21.1700  -13.1590   22.4050 H   0  0  0  0  0  0  0  0  0  0  0  0
  -25.3580  -15.2910   20.3730 N   0  0  0  0  0  0  0  0  0  0  0  0
  -24.5990  -15.9400   20.5530 H   0  0  0  0  0  0  0  0  0  0  0  0
  -26.1970  -15.7450   20.0350 H   0  0  0  0  0  0  0  0  0  0  0  0
  -27.8690  -24.0180   20.2010 C   0  0  0  0  0  2  0  0  0  0  0  0
  -28.1660  -25.7060   20.2710 O   0  0  0  0  0  0  0  0  0  0  0  0
  -24.6790  -31.8780   23.2380 C   0  0  0  0  0  0  0  0  0  0  0  0
  -27.1890  -26.8800   20.2270 C   0  0  0  0  0  0  0  0  0  0  0  0
  -23.4800  -30.4910   21.5970 C   0  0  0  0  0  3  0  0  0  0  0  0
  -24.9190  -28.8580   20.1780 C   0  0  0  0  0  0  0  0  0  0  0  0
  -26.0550  -30.6510   21.4650 C   0  0  0  0  0  2  0  0  0  0  0  0
  -26.1140  -29.2290   20.8060 C   0  0  0  0  0  0  0  0  0  0  0  0
  -27.2400  -28.2660   20.7990 C   0  0  0  0  0  3  0  0  0  0  0  0
  -25.9620  -26.6950   19.5480 C   0  0  0  0  0  3  0  0  0  0  0  0
  -24.8760  -27.6150   19.5260 C   0  0  0  0  0  3  0  0  0  0  0  0
  -23.7120  -29.8030   20.2230 C   0  0  0  0  0  2  0  0  0  0  0  0
  -24.7610  -31.0370   22.1520 N   0  0  0  0  0  0  0  0  0  0  0  0
  -23.5890  -32.1780   23.7550 O   0  0  0  0  0  0  0  0  0  0  0  0
  -22.7690  -29.5070   22.5650 C   0  0  0  0  0  0  0  0  0  0  0  0
  -21.4380  -29.3500   22.4370 N   0  0  0  0  0  0  0  0  0  0  0  0
  -23.4260  -28.8820   23.4010 O   0  0  0  0  0  0  0  0  0  0  0  0
  -20.9590  -29.9070   21.7420 H   0  0  0  0  0  0  0  0  0  0  0  0
  -18.0480  -28.1480   22.9440 C   0  0  0  0  0  0  0  0  0  0  0  0
  -20.6080  -28.4160   23.2080 C   0  0  0  0  0  3  0  0  0  0  0  0
  -20.7090  -26.9830   22.6350 C   0  0  0  0  0  2  0  0  0  0  0  0
  -19.6080  -26.6600   21.6190 C   0  0  0  0  0  2  0  0  0  0  0  0
  -18.2260  -26.8010   22.2630 C   0  0  0  0  0  2  0  0  0  0  0  0
  -19.1660  -28.9130   23.3730 C   0  0  0  0  0  0  0  0  0  0  0  0
  -18.9430  -30.1690   23.9750 C   0  0  0  0  0  3  0  0  0  0  0  0
  -17.6360  -30.6650   24.1480 C   0  0  0  0  0  3  0  0  0  0  0  0
  -16.5330  -29.8980   23.7310 C   0  0  0  0  0  3  0  0  0  0  0  0
  -16.7410  -28.6410   23.1360 C   0  0  0  0  0  3  0  0  0  0  0  0
  -25.9480  -32.5180   23.8760 C   0  0  0  0  0  3  0  0  0  0  0  0
  -25.6350  -33.9200   24.2140 N   0  0  0  0  0  0  0  0  0  0  0  0
  -25.9430  -34.9830   23.4570 C   0  0  0  0  0  0  0  0  0  0  0  0
  -26.5800  -34.8860   22.4060 O   0  0  0  0  0  0  0  0  0  0  0  0
  -25.0640  -34.0670   25.0330 H   0  0  0  0  0  0  0  0  0  0  0  0
  -24.1870  -36.7730   23.1980 C   0  0  0  0  0  1  0  0  0  0  0  0
  -25.4720  -36.3710   23.9410 C   0  0  0  0  0  3  0  0  0  0  0  0
  -27.6380  -37.2800   24.6620 C   0  0  0  0  0  1  0  0  0  0  0  0
  -26.4900  -37.4310   23.7720 N   0  0  0  0  0  0  0  0  0  0  0  0
  -26.0850  -38.3500   23.9320 H   0  0  0  0  0  0  0  0  0  0  0  0
  -26.4440  -31.7540   25.1670 C   0  0  1  0  0  0  0  0  0  0  0  0
  -25.3380  -31.5330   26.2260 C   0  0  0  0  0  1  0  0  0  0  0  0
  -27.0230  -30.3680   24.8040 C   0  0  0  0  0  1  0  0  0  0  0  0
  -27.5930  -32.5460   25.8350 C   0  0  0  0  0  1  0  0  0  0  0  0
  2  1  2  0
  3 16  1  0
  4  9  1  0
  5  6  1  0
  5  4  1  0
  7  6  1  0
  7 20  1  0
  7  8  1  0
  9  3  1  0
  9  8  1  0
 10  3  2  0
 11 13  1  0
 11 15  1  0
 13 16  1  0
 14 12  1  0
 15  1  1  0
 15 12  1  0
 16 14  1  0
 17 18  2  0
 18 37  1  0
 19 18  1  0
 19 22  1  0
 20 21  1  0
 20 17  1  0
 21 19  2  0
 22 23  1  0
 23 24  2  0
 25 28  1  0
 25 24  1  0
 26 25  2  0
 27 26  1  0
 27 22  2  0
 28 29  1  0
 29 30  1  0
 30 31  2  0
 32 31  1  0
 32 36  1  0
 33 32  2  0
 34 29  2  0
 34 33  1  0
 35 34  1  0
 37 38  1  0
 38 41  1  0
 38 40  1  0
 39 37  2  0
 42 17  1  0
 42 43  1  0
 44 42  1  0
 45  1  1  0
 45 46  1  0
 47 58  2  0
 48 46  1  0
 48 53  1  0
 49 57  1  0
 49 59  1  0
 50 56  1  0
 50 52  1  0
 51 57  1  0
 52 51  1  0
 53 52  2  0
 54 48  2  0
 55 54  1  0
 55 50  2  0
 56 49  1  0
 57 47  1  0
 59 61  2  0
 60 59  1  0
 62 60  1  0
 63 72  2  0
 63 68  1  0
 64 60  1  0
 64 68  1  0
 65 64  1  0
 66 67  1  0
 66 65  1  0
 67 63  1  0
 68 69  2  0
 69 70  1  0
 71 70  2  0
 72 71  1  0
 73 47  1  0
 73 74  1  0
 73 83  1  0
 74 77  1  0
 75 79  1  0
 75 74  1  0
 76 75  2  0
 79 78  1  0
 81 82  1  0
 81 79  1  0
 81 80  1  0
 83 86  1  1
 83 84  1  0
 85 83  1  0
M  ISO  4   3 100  16 100  45 101  46 101
M  END
>  <TORSDO>  (77) 
F 17

>  <SCORE>  (77) 
-16.469

>  <name>  (77) 
76

>  <ligand_id>  (77) 
76

>  <original_smiles>  (77) 
[H]c1c([H])c([H])c2c(c1[H])C([H])([H])C([H])([H])C([H])([H])C2([H])N([H])C(=O)C1([H])N(C(=O)C([H])(N([H])C(=O)C([H])(N([H])C([H])([H])[H])C([H])([H])[H])C(C([H])([H])[H])(C([H])([H])[H])C([H])([H])[H])C([H])([H])c2c([H])c(OC([H])([H])C(=O)C3([H])C([H])([H])C([H])([H])N(C(=O)N4C([H])([H])C([H])([H])C([H])([H])C([H])(n5nc(-c6c([H])c([H])c(Oc7c([H])c([H])c(F)c([H])c7F)c([H])c6[H])c(C(=O)N([H])[H])c5N([H])[H])C4([H])[H])C([H])([H])C3([H])[H])c([H])c([H])c2C1([H])[H]

>  <smiles>  (77) 
[H]c1c([H])c([H])c2c(c1[H])C([H])([H])C([H])([H])C([H])([H])C2([H])N([H])C(=O)C1([H])N(C(=O)C([H])(N([H])C(=O)C([H])(N([H])C([H])([H])[H])C([H])([H])[H])C(C([H])([H])[H])(C([H])([H])[H])C([H])([H])[H])C([H])([H])c2c([H])c(OC([H])([H])C(=O)C3([H])C([H])([H])C([H])([H])N(C(=O)N4C([H])([H])C([H])([H])C([H])([H])C([H])(n5nc(-c6c([H])c([H])c(Oc7c([H])c([H])c(F)c([H])c7F)c([H])c6[H])c(C(=O)N([H])[H])c5N([H])[H])C4([H])[H])C([H])([H])C3([H])[H])c([H])c([H])c2C1([H])[H]

$$$$
77:0:0
     RDKit          3D

 93102  0  0  1  0  0  0  0  0999 V2000
  -30.5730  -14.9140   20.3270 C   0  0  0  0  0  0  0  0  0  0  0  0
  -30.4260  -12.5290   19.4800 C   0  0  0  0  0  2  0  0  0  0  0  0
  -29.5310  -12.4240   18.2260 C   0  0  0  0  0  2  0  0  0  0  0  0
  -28.0600  -12.2310   18.6350 C   0  0  0  0  0  2  0  0  0  0  0  0
  -27.6230  -13.2160   19.7520 C   0  0  0  0  0  3  0  0  0  0  0  0
  -28.6480  -13.3000   20.9020 C   0  0  0  0  0  2  0  0  0  0  0  0
  -29.9300  -13.6760   20.2980 N   0  0  0  0  0  0  0  0  0  0  0  0
  -31.7820  -14.8950   20.0560 O   0  0  0  0  0  0  0  0  0  0  0  0
  -29.4330  -22.2660   20.6630 C   0  0  0  0  0  0  0  0  0  0  0  0
  -30.1760  -23.1060   21.5460 C   0  0  0  0  0  0  0  0  0  0  0  0
  -29.8590  -20.8080   20.7230 C   0  0  0  0  0  0  0  0  0  0  0  0
  -31.6040  -21.4520   22.1340 C   0  0  0  0  0  0  0  0  0  0  0  0
  -30.4480  -18.6670   19.5230 C   0  0  0  0  0  2  0  0  0  0  0  0
  -28.9460  -18.5170   21.3090 C   0  0  0  0  0  2  0  0  0  0  0  0
  -30.1100  -17.1620   19.1110 C   0  0  0  0  0  2  0  0  0  0  0  0
  -28.9620  -16.8800   21.1550 C   0  0  0  0  0  2  0  0  0  0  0  0
  -29.8070  -24.5400   21.8830 C   0  0  0  0  0  1  0  0  0  0  0  0
  -32.8270  -21.0050   22.9060 C   0  0  0  0  0  1  0  0  0  0  0  0
  -31.2520  -22.7070   22.2340 N   0  0  0  0  0  0  0  0  0  0  0  0
  -30.9570  -20.5330   21.4550 N   0  0  0  0  0  0  0  0  0  0  0  0
  -29.3930  -19.4770   20.2240 N   0  0  0  0  0  0  0  0  0  0  0  0
  -29.8720  -16.1580   20.1980 N   0  0  0  0  0  0  0  0  0  0  0  0
  -25.2360  -13.8200   20.4410 C   0  0  0  0  0  0  0  0  0  0  0  0
  -24.1590  -13.0560   20.8010 C   0  0  0  0  0  0  0  0  0  0  0  0
  -24.6140  -11.7020   20.7990 C   0  0  0  0  0  0  0  0  0  0  0  0
  -26.2760  -12.9320   20.2330 N   0  0  0  0  0  0  0  0  0  0  0  0
  -25.9120  -11.6540   20.5170 N   0  0  0  0  0  0  0  0  0  0  0  0
  -23.8760  -10.4470   20.9930 C   0  0  0  0  0  0  0  0  0  0  0  0
  -24.2910   -9.4840   21.9390 C   0  0  0  0  0  3  0  0  0  0  0  0
  -23.5510   -8.2950   22.1200 C   0  0  0  0  0  3  0  0  0  0  0  0
  -22.3810   -8.0630   21.3560 C   0  0  0  0  0  0  0  0  0  0  0  0
  -21.9870   -9.0160   20.4010 C   0  0  0  0  0  3  0  0  0  0  0  0
  -22.7270  -10.1950   20.2170 C   0  0  0  0  0  3  0  0  0  0  0  0
  -21.6140   -6.9270   21.4470 O   0  0  0  0  0  0  0  0  0  0  0  0
  -21.5500   -6.1910   22.6020 C   0  0  0  0  0  0  0  0  0  0  0  0
  -21.1400   -6.7620   23.8270 C   0  0  0  0  0  3  0  0  0  0  0  0
  -21.0230   -5.9540   24.9760 C   0  0  0  0  0  3  0  0  0  0  0  0
  -21.3050   -4.5770   24.9010 C   0  0  0  0  0  0  0  0  0  0  0  0
  -21.7080   -4.0060   23.6810 C   0  0  0  0  0  3  0  0  0  0  0  0
  -21.8270   -4.8110   22.5350 C   0  0  0  0  0  0  0  0  0  0  0  0
  -22.1960   -4.2510   21.3580 F   0  0  0  0  0  0  0  0  0  0  0  0
  -21.1830   -3.8010   26.0030 F   0  0  0  0  0  0  0  0  0  0  0  0
  -22.7600  -13.5480   21.0320 C   0  0  0  0  0  0  0  0  0  0  0  0
  -22.0130  -12.8830   21.9050 N   0  0  0  0  0  0  0  0  0  0  0  0
  -22.3400  -14.5600   20.4740 O   0  0  0  0  0  0  0  0  0  0  0  0
  -22.3660  -12.0690   22.3820 H   0  0  0  0  0  0  0  0  0  0  0  0
  -21.0730  -13.1970   22.1010 H   0  0  0  0  0  0  0  0  0  0  0  0
  -25.4110  -15.1870   20.2460 N   0  0  0  0  0  0  0  0  0  0  0  0
  -24.6450  -15.8450   20.3370 H   0  0  0  0  0  0  0  0  0  0  0  0
  -26.2650  -15.6160   19.9140 H   0  0  0  0  0  0  0  0  0  0  0  0
  -28.2680  -23.1110   19.8900 C   0  0  0  0  0  2  0  0  0  0  0  0
  -28.3660  -24.7010   19.2770 C   0  0  0  0  0  2  0  0  0  0  0  0
  -28.2750  -26.1340   19.8840 O   0  0  0  0  0  0  0  0  0  0  0  0
  -24.5060  -31.6240   22.9880 C   0  0  0  0  0  0  0  0  0  0  0  0
  -27.1780  -27.0670   19.8010 C   0  0  0  0  0  0  0  0  0  0  0  0
  -23.3290  -30.2420   21.3200 C   0  0  0  0  0  3  0  0  0  0  0  0
  -24.8040  -28.7500   19.8330 C   0  0  0  0  0  0  0  0  0  0  0  0
  -25.8720  -30.5800   21.1430 C   0  0  0  0  0  2  0  0  0  0  0  0
  -25.9740  -29.2110   20.4490 C   0  0  0  0  0  0  0  0  0  0  0  0
  -27.1570  -28.3820   20.4190 C   0  0  0  0  0  3  0  0  0  0  0  0
  -25.9770  -26.7060   19.1530 C   0  0  0  0  0  3  0  0  0  0  0  0
  -24.8180  -27.5130   19.1700 C   0  0  0  0  0  3  0  0  0  0  0  0
  -23.5540  -29.6110   19.9190 C   0  0  0  0  0  2  0  0  0  0  0  0
  -24.5890  -30.8370   21.8710 N   0  0  0  0  0  0  0  0  0  0  0  0
  -23.4180  -31.8640   23.5330 O   0  0  0  0  0  0  0  0  0  0  0  0
  -22.6880  -29.1910   22.2580 C   0  0  0  0  0  0  0  0  0  0  0  0
  -21.3590  -29.0090   22.1580 N   0  0  0  0  0  0  0  0  0  0  0  0
  -23.3870  -28.5420   23.0410 O   0  0  0  0  0  0  0  0  0  0  0  0
  -20.8500  -29.5870   21.5040 H   0  0  0  0  0  0  0  0  0  0  0  0
  -18.0020  -27.7670   22.7120 C   0  0  0  0  0  0  0  0  0  0  0  0
  -20.5650  -28.0340   22.9130 C   0  0  0  0  0  3  0  0  0  0  0  0
  -20.6560  -26.6290   22.2730 C   0  0  0  0  0  2  0  0  0  0  0  0
  -19.5260  -26.3440   21.2790 C   0  0  0  0  0  2  0  0  0  0  0  0
  -18.1650  -26.4500   21.9710 C   0  0  0  0  0  2  0  0  0  0  0  0
  -19.1280  -28.5180   23.1400 C   0  0  0  0  0  0  0  0  0  0  0  0
  -18.9180  -29.7510   23.7950 C   0  0  0  0  0  3  0  0  0  0  0  0
  -17.6160  -30.2330   24.0260 C   0  0  0  0  0  3  0  0  0  0  0  0
  -16.5040  -29.4790   23.6110 C   0  0  0  0  0  3  0  0  0  0  0  0
  -16.6980  -28.2460   22.9610 C   0  0  0  0  0  3  0  0  0  0  0  0
  -25.7720  -32.2750   23.6230 C   0  0  0  0  0  3  0  0  0  0  0  0
  -25.4150  -33.6430   24.0330 N   0  0  0  0  0  0  0  0  0  0  0  0
  -25.7030  -34.7500   23.3360 C   0  0  0  0  0  0  0  0  0  0  0  0
  -26.3650  -34.7290   22.2960 O   0  0  0  0  0  0  0  0  0  0  0  0
  -24.8240  -33.7290   24.8470 H   0  0  0  0  0  0  0  0  0  0  0  0
  -23.9150  -36.5060   23.1030 C   0  0  0  0  0  1  0  0  0  0  0  0
  -25.1760  -36.0940   23.8800 C   0  0  0  0  0  3  0  0  0  0  0  0
  -27.2900  -36.9990   24.7440 C   0  0  0  0  0  1  0  0  0  0  0  0
  -26.1730  -37.1850   23.8210 N   0  0  0  0  0  0  0  0  0  0  0  0
  -25.7400  -38.0820   24.0230 H   0  0  0  0  0  0  0  0  0  0  0  0
  -26.3360  -31.4630   24.8550 C   0  0  1  0  0  0  0  0  0  0  0  0
  -25.2730  -31.1450   25.9330 C   0  0  0  0  0  1  0  0  0  0  0  0
  -26.9540  -30.1220   24.3940 C   0  0  0  0  0  1  0  0  0  0  0  0
  -27.4760  -32.2630   25.5300 C   0  0  0  0  0  1  0  0  0  0  0  0
  2  7  1  0
  3  4  1  0
  3  2  1  0
  5  4  1  0
  5 26  1  0
  5  6  1  0
  7  1  1  0
  7  6  1  0
  8  1  2  0
  9 11  1  0
  9 10  2  0
 10 17  1  0
 10 19  1  0
 11 20  2  0
 12 19  2  0
 12 18  1  0
 13 21  1  0
 15 13  1  0
 15 22  1  0
 16 14  1  0
 20 12  1  0
 21 11  1  0
 21 14  1  0
 22  1  1  0
 22 16  1  0
 23 24  2  0
 24 43  1  0
 25 24  1  0
 25 28  1  0
 26 23  1  0
 26 27  1  0
 27 25  2  0
 28 29  1  0
 29 30  2  0
 31 34  1  0
 31 30  1  0
 32 31  2  0
 33 32  1  0
 33 28  2  0
 34 35  1  0
 35 36  1  0
 36 37  2  0
 38 37  1  0
 38 42  1  0
 39 38  2  0
 40 35  2  0
 40 39  1  0
 41 40  1  0
 43 44  1  0
 44 47  1  0
 44 46  1  0
 45 43  2  0
 48 49  1  0
 48 23  1  0
 50 48  1  0
 51  9  1  0
 52 53  1  0
 52 51  1  0
 54 65  2  0
 55 53  1  0
 55 60  1  0
 56 64  1  0
 56 66  1  0
 57 63  1  0
 57 59  1  0
 58 64  1  0
 59 58  1  0
 60 59  2  0
 61 62  1  0
 61 55  2  0
 62 57  2  0
 63 56  1  0
 64 54  1  0
 66 68  2  0
 67 66  1  0
 69 67  1  0
 70 79  2  0
 70 75  1  0
 71 67  1  0
 71 75  1  0
 72 71  1  0
 73 74  1  0
 73 72  1  0
 74 70  1  0
 75 76  2  0
 76 77  1  0
 78 77  2  0
 79 78  1  0
 80 54  1  0
 80 81  1  0
 80 90  1  0
 81 84  1  0
 82 86  1  0
 82 81  1  0
 83 82  2  0
 86 85  1  0
 88 86  1  0
 88 89  1  0
 88 87  1  0
 90 93  1  1
 90 91  1  0
 92 90  1  0
M  ISO  4   1 100  22 100  52 101  53 101
M  END
>  <TORSDO>  (78) 
F 17

>  <SCORE>  (78) 
-14.818

>  <name>  (78) 
77

>  <ligand_id>  (78) 
77

>  <original_smiles>  (78) 
[H]c1c([H])c([H])c2c(c1[H])C([H])([H])C([H])([H])C([H])([H])C2([H])N([H])C(=O)C1([H])N(C(=O)C([H])(N([H])C(=O)C([H])(N([H])C([H])([H])[H])C([H])([H])[H])C(C([H])([H])[H])(C([H])([H])[H])C([H])([H])[H])C([H])([H])c2c([H])c(OC([H])([H])C([H])([H])c3c(N4C([H])([H])C([H])([H])N(C(=O)N5C([H])([H])C([H])([H])C([H])([H])C([H])(n6nc(-c7c([H])c([H])c(Oc8c([H])c([H])c(F)c([H])c8F)c([H])c7[H])c(C(=O)N([H])[H])c6N([H])[H])C5([H])[H])C([H])([H])C4([H])[H])nc(C([H])([H])[H])nc3C([H])([H])[H])c([H])c([H])c2C1([H])[H]

>  <smiles>  (78) 
[H]c1c([H])c([H])c2c(c1[H])C([H])([H])C([H])([H])C([H])([H])C2([H])N([H])C(=O)C1([H])N(C(=O)C([H])(N([H])C(=O)C([H])(N([H])C([H])([H])[H])C([H])([H])[H])C(C([H])([H])[H])(C([H])([H])[H])C([H])([H])[H])C([H])([H])c2c([H])c(OC([H])([H])C([H])([H])c3c(N4C([H])([H])C([H])([H])N(C(=O)N5C([H])([H])C([H])([H])C([H])([H])C([H])(n6nc(-c7c([H])c([H])c(Oc8c([H])c([H])c(F)c([H])c8F)c([H])c7[H])c(C(=O)N([H])[H])c6N([H])[H])C5([H])[H])C([H])([H])C4([H])[H])nc(C([H])([H])[H])nc3C([H])([H])[H])c([H])c([H])c2C1([H])[H]

$$$$
78:0:0
     RDKit          3D

 92101  0  0  1  0  0  0  0  0999 V2000
  -27.3130  -23.2710   19.4060 C   0  0  0  0  0  3  0  0  0  0  0  0
  -27.0710  -21.9070   19.1510 C   0  0  0  0  0  0  0  0  0  0  0  0
  -28.3420  -23.6380   20.2910 C   0  0  0  0  0  0  0  0  0  0  0  0
  -28.8080  -21.2240   20.5090 C   0  0  0  0  0  0  0  0  0  0  0  0
  -27.7960  -20.9120   19.7120 N   0  0  0  0  0  0  0  0  0  0  0  0
  -29.0900  -22.5520   20.8220 N   0  0  0  0  0  0  0  0  0  0  0  0
  -29.5730  -20.0740   21.0090 N   0  0  0  0  0  0  0  0  0  0  0  0
  -30.3680  -20.3560   21.5690 H   0  0  0  0  0  0  0  0  0  0  0  0
  -30.6650  -15.2740   20.2770 C   0  0  0  0  0  0  0  0  0  0  0  0
  -30.4950  -13.0300   19.1130 C   0  0  0  0  0  2  0  0  0  0  0  0
  -29.5180  -13.1380   17.9190 C   0  0  0  0  0  2  0  0  0  0  0  0
  -28.0710  -12.8740   18.3860 C   0  0  0  0  0  2  0  0  0  0  0  0
  -27.7180  -13.6660   19.6740 C   0  0  0  0  0  3  0  0  0  0  0  0
  -28.8150  -13.5640   20.7530 C   0  0  0  0  0  2  0  0  0  0  0  0
  -30.0650  -14.0240   20.1360 N   0  0  0  0  0  0  0  0  0  0  0  0
  -31.8420  -15.3820   19.9100 O   0  0  0  0  0  0  0  0  0  0  0  0
  -29.6090  -17.6180   19.7480 C   0  0  0  0  0  2  0  0  0  0  0  0
  -30.3280  -17.5090   21.6030 C   0  0  0  0  0  2  0  0  0  0  0  0
  -29.2890  -18.5340   20.9920 C   0  0  0  0  0  3  0  0  0  0  0  0
  -29.9040  -16.4210   20.6370 N   0  0  0  0  0  0  0  0  0  0  0  0
  -25.3550  -14.1590   20.5250 C   0  0  0  0  0  0  0  0  0  0  0  0
  -24.3160  -13.3460   20.8900 C   0  0  0  0  0  0  0  0  0  0  0  0
  -24.8020  -12.0060   20.7610 C   0  0  0  0  0  0  0  0  0  0  0  0
  -26.4000  -13.3150   20.1930 N   0  0  0  0  0  0  0  0  0  0  0  0
  -26.0820  -12.0110   20.4040 N   0  0  0  0  0  0  0  0  0  0  0  0
  -24.1020  -10.7210   20.9050 C   0  0  0  0  0  0  0  0  0  0  0  0
  -24.5150   -9.7540   21.8490 C   0  0  0  0  0  3  0  0  0  0  0  0
  -23.8150   -8.5340   21.9830 C   0  0  0  0  0  3  0  0  0  0  0  0
  -22.6870   -8.2720   21.1720 C   0  0  0  0  0  0  0  0  0  0  0  0
  -22.2910   -9.2280   20.2180 C   0  0  0  0  0  3  0  0  0  0  0  0
  -22.9930  -10.4380   20.0830 C   0  0  0  0  0  3  0  0  0  0  0  0
  -21.9610   -7.1070   21.2120 O   0  0  0  0  0  0  0  0  0  0  0  0
  -21.8040   -6.3990   22.3780 C   0  0  0  0  0  0  0  0  0  0  0  0
  -21.1780   -6.9590   23.5120 C   0  0  0  0  0  3  0  0  0  0  0  0
  -20.9740   -6.1730   24.6630 C   0  0  0  0  0  3  0  0  0  0  0  0
  -21.3850   -4.8260   24.6810 C   0  0  0  0  0  0  0  0  0  0  0  0
  -22.0040   -4.2680   23.5500 C   0  0  0  0  0  3  0  0  0  0  0  0
  -22.2110   -5.0500   22.4020 C   0  0  0  0  0  0  0  0  0  0  0  0
  -22.7890   -4.4970   21.3070 F   0  0  0  0  0  0  0  0  0  0  0  0
  -21.1830   -4.0690   25.7860 F   0  0  0  0  0  0  0  0  0  0  0  0
  -22.9240  -13.7820   21.2400 C   0  0  0  0  0  0  0  0  0  0  0  0
  -22.2460  -13.0470   22.1140 N   0  0  0  0  0  0  0  0  0  0  0  0
  -22.4400  -14.8100   20.7710 O   0  0  0  0  0  0  0  0  0  0  0  0
  -22.6500  -12.2190   22.5250 H   0  0  0  0  0  0  0  0  0  0  0  0
  -21.3140  -13.3310   22.3840 H   0  0  0  0  0  0  0  0  0  0  0  0
  -25.4990  -15.5370   20.4190 N   0  0  0  0  0  0  0  0  0  0  0  0
  -24.7400  -16.1820   20.6090 H   0  0  0  0  0  0  0  0  0  0  0  0
  -26.3450  -16.0010   20.1160 H   0  0  0  0  0  0  0  0  0  0  0  0
  -24.6190  -22.2710   18.4850 C   0  0  0  0  0  1  0  0  0  0  0  0
  -25.9190  -21.4830   18.2430 C   0  0  0  0  0  2  0  0  0  0  0  0
  -28.3770  -25.1860   20.8560 C   0  0  0  0  0  2  0  0  0  0  0  0
  -28.2670  -26.5190   20.0820 O   0  0  0  0  0  0  0  0  0  0  0  0
  -24.6350  -32.0510   23.3590 C   0  0  0  0  0  0  0  0  0  0  0  0
  -27.1830  -27.4490   20.1860 C   0  0  0  0  0  0  0  0  0  0  0  0
  -23.4120  -30.6870   21.7040 C   0  0  0  0  0  3  0  0  0  0  0  0
  -24.8460  -29.1590   20.2190 C   0  0  0  0  0  0  0  0  0  0  0  0
  -25.9550  -30.9880   21.4920 C   0  0  0  0  0  2  0  0  0  0  0  0
  -26.0300  -29.6090   20.8170 C   0  0  0  0  0  0  0  0  0  0  0  0
  -27.2050  -28.7710   20.7820 C   0  0  0  0  0  3  0  0  0  0  0  0
  -25.9800  -27.0910   19.5540 C   0  0  0  0  0  3  0  0  0  0  0  0
  -24.8320  -27.9160   19.5700 C   0  0  0  0  0  3  0  0  0  0  0  0
  -23.6100  -30.0430   20.3060 C   0  0  0  0  0  2  0  0  0  0  0  0
  -24.6870  -31.2630   22.2390 N   0  0  0  0  0  0  0  0  0  0  0  0
  -23.5570  -32.3120   23.9180 O   0  0  0  0  0  0  0  0  0  0  0  0
  -22.7620  -29.6490   22.6560 C   0  0  0  0  0  0  0  0  0  0  0  0
  -21.4470  -29.4160   22.5010 N   0  0  0  0  0  0  0  0  0  0  0  0
  -23.4470  -29.0540   23.4910 O   0  0  0  0  0  0  0  0  0  0  0  0
  -20.9490  -29.9520   21.8060 H   0  0  0  0  0  0  0  0  0  0  0  0
  -18.1140  -28.0640   22.9350 C   0  0  0  0  0  0  0  0  0  0  0  0
  -20.6520  -28.4410   23.2540 C   0  0  0  0  0  3  0  0  0  0  0  0
  -20.8280  -27.0140   22.6820 C   0  0  0  0  0  2  0  0  0  0  0  0
  -19.7620  -26.6450   21.6440 C   0  0  0  0  0  2  0  0  0  0  0  0
  -18.3630  -26.7250   22.2600 C   0  0  0  0  0  2  0  0  0  0  0  0
  -19.1880  -28.8750   23.3870 C   0  0  0  0  0  0  0  0  0  0  0  0
  -18.9000  -30.1240   23.9770 C   0  0  0  0  0  3  0  0  0  0  0  0
  -17.5710  -30.5650   24.1210 C   0  0  0  0  0  3  0  0  0  0  0  0
  -16.5110  -29.7510   23.6860 C   0  0  0  0  0  3  0  0  0  0  0  0
  -16.7830  -28.5020   23.0980 C   0  0  0  0  0  3  0  0  0  0  0  0
  -25.9200  -32.6780   23.9760 C   0  0  0  0  0  3  0  0  0  0  0  0
  -25.6200  -34.0820   24.2960 N   0  0  0  0  0  0  0  0  0  0  0  0
  -25.9570  -35.1310   23.5320 C   0  0  0  0  0  0  0  0  0  0  0  0
  -26.6200  -35.0150   22.4990 O   0  0  0  0  0  0  0  0  0  0  0  0
  -25.0360  -34.2450   25.1030 H   0  0  0  0  0  0  0  0  0  0  0  0
  -24.2310  -36.9310   23.1980 C   0  0  0  0  0  1  0  0  0  0  0  0
  -25.4880  -36.5270   23.9850 C   0  0  0  0  0  3  0  0  0  0  0  0
  -27.6400  -37.4230   24.7590 C   0  0  0  0  0  1  0  0  0  0  0  0
  -26.5210  -37.5750   23.8330 N   0  0  0  0  0  0  0  0  0  0  0  0
  -26.1210  -38.4990   23.9690 H   0  0  0  0  0  0  0  0  0  0  0  0
  -26.4250  -31.9140   25.2630 C   0  0  1  0  0  0  0  0  0  0  0  0
  -25.3120  -31.6360   26.3020 C   0  0  0  0  0  1  0  0  0  0  0  0
  -27.0590  -30.5560   24.8820 C   0  0  0  0  0  1  0  0  0  0  0  0
  -27.5350  -32.7370   25.9600 C   0  0  0  0  0  1  0  0  0  0  0  0
  1  3  1  0
  2  1  2  0
  2  5  1  0
  3  6  2  0
  3 51  1  0
  4  6  1  0
  4  7  1  0
  5  4  2  0
  7  8  1  0
  9 20  1  0
 10 15  1  0
 11 12  1  0
 11 10  1  0
 13 12  1  0
 13 24  1  0
 13 14  1  0
 15  9  1  0
 15 14  1  0
 16  9  2  0
 17 20  1  0
 17 19  1  0
 19  7  1  0
 19 18  1  0
 20 18  1  0
 21 22  2  0
 22 41  1  0
 23 22  1  0
 23 26  1  0
 24 25  1  0
 24 21  1  0
 25 23  2  0
 26 27  1  0
 27 28  2  0
 29 32  1  0
 29 28  1  0
 30 29  2  0
 31 30  1  0
 31 26  2  0
 32 33  1  0
 33 38  2  0
 33 34  1  0
 34 35  2  0
 35 36  1  0
 36 40  1  0
 37 36  2  0
 38 37  1  0
 39 38  1  0
 41 42  1  0
 42 45  1  0
 42 44  1  0
 43 41  2  0
 46 21  1  0
 46 47  1  0
 48 46  1  0
 50 49  1  0
 50  2  1  0
 52 54  1  0
 52 51  1  0
 53 64  2  0
 54 59  1  0
 55 63  1  0
 55 65  1  0
 56 62  1  0
 56 58  1  0
 57 63  1  0
 58 57  1  0
 59 58  2  0
 60 61  1  0
 60 54  2  0
 61 56  2  0
 62 55  1  0
 63 53  1  0
 65 67  2  0
 66 65  1  0
 68 66  1  0
 69 78  2  0
 69 74  1  0
 70 66  1  0
 70 74  1  0
 71 70  1  0
 72 73  1  0
 72 71  1  0
 73 69  1  0
 74 75  2  0
 75 76  1  0
 77 76  2  0
 78 77  1  0
 79 53  1  0
 79 80  1  0
 79 89  1  0
 80 83  1  0
 81 85  1  0
 81 80  1  0
 82 81  2  0
 85 84  1  0
 87 88  1  0
 87 85  1  0
 87 86  1  0
 89 92  1  1
 89 90  1  0
 91 89  1  0
M  ISO  4   9 100  20 100  51 101  52 101
M  END
>  <TORSDO>  (79) 
F 18

>  <SCORE>  (79) 
-14.400

>  <name>  (79) 
78

>  <ligand_id>  (79) 
78

>  <original_smiles>  (79) 
[H]c1c(C([H])([H])Oc2c([H])c([H])c3c(c2[H])C([H])([H])N(C(=O)C([H])(N([H])C(=O)C([H])(N([H])C([H])([H])[H])C([H])([H])[H])C(C([H])([H])[H])(C([H])([H])[H])C([H])([H])[H])C([H])(C(=O)N([H])C2([H])c4c([H])c([H])c([H])c([H])c4C([H])([H])C([H])([H])C2([H])[H])C3([H])[H])nc(N([H])C2([H])C([H])([H])N(C(=O)N3C([H])([H])C([H])([H])C([H])([H])C([H])(n4nc(-c5c([H])c([H])c(Oc6c([H])c([H])c(F)c([H])c6F)c([H])c5[H])c(C(=O)N([H])[H])c4N([H])[H])C3([H])[H])C2([H])[H])nc1C([H])([H])C([H])([H])[H]

>  <smiles>  (79) 
[H]c1c(C([H])([H])Oc2c([H])c([H])c3c(c2[H])C([H])([H])N(C(=O)C([H])(N([H])C(=O)C([H])(N([H])C([H])([H])[H])C([H])([H])[H])C(C([H])([H])[H])(C([H])([H])[H])C([H])([H])[H])C([H])(C(=O)N([H])C2([H])c4c([H])c([H])c([H])c([H])c4C([H])([H])C([H])([H])C2([H])[H])C3([H])[H])nc(N([H])C2([H])C([H])([H])N(C(=O)N3C([H])([H])C([H])([H])C([H])([H])C([H])(n4nc(-c5c([H])c([H])c(Oc6c([H])c([H])c(F)c([H])c6F)c([H])c5[H])c(C(=O)N([H])[H])c4N([H])[H])C3([H])[H])C2([H])[H])nc1C([H])([H])C([H])([H])[H]

$$$$
79:0:0
     RDKit          3D

 89 98  0  0  1  0  0  0  0  0999 V2000
  -29.2800  -22.3090   20.2260 C   0  0  0  0  0  0  0  0  0  0  0  0
  -28.8550  -20.8450   19.9200 C   0  0  0  0  0  0  0  0  0  0  0  0
  -30.5680  -22.6120   20.4720 C   0  0  0  0  0  2  0  0  0  0  0  0
  -27.4120  -21.0060   19.4530 C   0  0  0  0  0  2  0  0  0  0  0  0
  -27.1570  -22.5380   19.2140 C   0  0  0  0  0  2  0  0  0  0  0  0
  -28.1230  -23.3930   20.0920 C   0  0  0  0  0  3  0  0  0  0  0  0
  -29.5730  -19.7160   20.0360 N   0  0  0  0  0  0  0  0  0  0  0  0
  -30.5330  -14.9320   20.0980 C   0  0  0  0  0  0  0  0  0  0  0  0
  -30.3360  -12.5950   19.2020 C   0  0  0  0  0  2  0  0  0  0  0  0
  -29.3710  -12.5750   17.9970 C   0  0  0  0  0  2  0  0  0  0  0  0
  -27.9170  -12.3980   18.4790 C   0  0  0  0  0  2  0  0  0  0  0  0
  -27.5490  -13.3210   19.6700 C   0  0  0  0  0  3  0  0  0  0  0  0
  -28.6420  -13.3460   20.7590 C   0  0  0  0  0  2  0  0  0  0  0  0
  -29.8920  -13.7040   20.0820 N   0  0  0  0  0  0  0  0  0  0  0  0
  -31.7540  -14.9400   19.9020 O   0  0  0  0  0  0  0  0  0  0  0  0
  -30.3260  -17.3340   19.0870 C   0  0  0  0  0  2  0  0  0  0  0  0
  -29.2470  -17.1270   20.8260 C   0  0  0  0  0  2  0  0  0  0  0  0
  -29.1920  -18.2450   19.6940 C   0  0  0  0  0  3  0  0  0  0  0  0
  -29.8070  -16.1250   19.8500 N   0  0  0  0  0  0  0  0  0  0  0  0
  -25.1800  -13.8950   20.4600 C   0  0  0  0  0  0  0  0  0  0  0  0
  -24.1260  -13.1160   20.8460 C   0  0  0  0  0  0  0  0  0  0  0  0
  -24.5920  -11.7660   20.8080 C   0  0  0  0  0  0  0  0  0  0  0  0
  -26.2260  -13.0200   20.2070 N   0  0  0  0  0  0  0  0  0  0  0  0
  -25.8820  -11.7360   20.4840 N   0  0  0  0  0  0  0  0  0  0  0  0
  -23.8720  -10.5000   21.0020 C   0  0  0  0  0  0  0  0  0  0  0  0
  -24.3110   -9.5330   21.9330 C   0  0  0  0  0  3  0  0  0  0  0  0
  -23.5890   -8.3360   22.1180 C   0  0  0  0  0  3  0  0  0  0  0  0
  -22.4130   -8.0930   21.3730 C   0  0  0  0  0  0  0  0  0  0  0  0
  -21.9890   -9.0470   20.4290 C   0  0  0  0  0  3  0  0  0  0  0  0
  -22.7130  -10.2380   20.2440 C   0  0  0  0  0  3  0  0  0  0  0  0
  -21.6580   -6.9480   21.4690 O   0  0  0  0  0  0  0  0  0  0  0  0
  -21.6110   -6.2110   22.6250 C   0  0  0  0  0  0  0  0  0  0  0  0
  -21.1740   -6.7660   23.8470 C   0  0  0  0  0  3  0  0  0  0  0  0
  -21.0770   -5.9560   24.9940 C   0  0  0  0  0  3  0  0  0  0  0  0
  -21.4060   -4.5890   24.9230 C   0  0  0  0  0  0  0  0  0  0  0  0
  -21.8350   -4.0310   23.7040 C   0  0  0  0  0  3  0  0  0  0  0  0
  -21.9340   -4.8390   22.5580 C   0  0  0  0  0  0  0  0  0  0  0  0
  -22.3270   -4.2930   21.3840 F   0  0  0  0  0  0  0  0  0  0  0  0
  -21.3040   -3.8080   26.0220 F   0  0  0  0  0  0  0  0  0  0  0  0
  -22.7310  -13.5840   21.1340 C   0  0  0  0  0  0  0  0  0  0  0  0
  -22.0140  -12.8840   22.0060 N   0  0  0  0  0  0  0  0  0  0  0  0
  -22.2810  -14.6080   20.6140 O   0  0  0  0  0  0  0  0  0  0  0  0
  -22.3930  -12.0560   22.4450 H   0  0  0  0  0  0  0  0  0  0  0  0
  -21.0770  -13.1760   22.2420 H   0  0  0  0  0  0  0  0  0  0  0  0
  -25.3430  -15.2640   20.2770 N   0  0  0  0  0  0  0  0  0  0  0  0
  -24.5730  -15.9160   20.3880 H   0  0  0  0  0  0  0  0  0  0  0  0
  -26.1750  -15.6980   19.8960 H   0  0  0  0  0  0  0  0  0  0  0  0
  -28.3700  -24.9420   19.5170 C   0  0  0  0  0  2  0  0  0  0  0  0
  -28.3010  -26.2990   20.2320 O   0  0  0  0  0  0  0  0  0  0  0  0
  -24.6150  -31.8750   23.2390 C   0  0  0  0  0  0  0  0  0  0  0  0
  -27.2210  -27.2300   20.1600 C   0  0  0  0  0  0  0  0  0  0  0  0
  -23.4310  -30.4820   21.5890 C   0  0  0  0  0  3  0  0  0  0  0  0
  -24.8840  -28.9360   20.1500 C   0  0  0  0  0  0  0  0  0  0  0  0
  -25.9820  -30.7720   21.4290 C   0  0  0  0  0  2  0  0  0  0  0  0
  -26.0590  -29.3900   20.7630 C   0  0  0  0  0  0  0  0  0  0  0  0
  -27.2270  -28.5480   20.7590 C   0  0  0  0  0  3  0  0  0  0  0  0
  -26.0140  -26.8520   19.5400 C   0  0  0  0  0  3  0  0  0  0  0  0
  -24.8700  -27.6750   19.5300 C   0  0  0  0  0  3  0  0  0  0  0  0
  -23.6530  -29.8290   20.1980 C   0  0  0  0  0  2  0  0  0  0  0  0
  -24.6950  -31.0690   22.1400 N   0  0  0  0  0  0  0  0  0  0  0  0
  -23.5280  -32.1450   23.7700 O   0  0  0  0  0  0  0  0  0  0  0  0
  -22.7600  -29.4590   22.5390 C   0  0  0  0  0  0  0  0  0  0  0  0
  -21.4320  -29.2910   22.4160 N   0  0  0  0  0  0  0  0  0  0  0  0
  -23.4390  -28.8280   23.3530 O   0  0  0  0  0  0  0  0  0  0  0  0
  -20.9410  -29.8470   21.7270 H   0  0  0  0  0  0  0  0  0  0  0  0
  -18.0450  -28.1060   22.9200 C   0  0  0  0  0  0  0  0  0  0  0  0
  -20.6090  -28.3470   23.1830 C   0  0  0  0  0  3  0  0  0  0  0  0
  -20.7050  -26.9250   22.5870 C   0  0  0  0  0  2  0  0  0  0  0  0
  -19.5910  -26.6230   21.5760 C   0  0  0  0  0  2  0  0  0  0  0  0
  -18.2140  -26.7650   22.2260 C   0  0  0  0  0  2  0  0  0  0  0  0
  -19.1740  -28.8530   23.3570 C   0  0  0  0  0  0  0  0  0  0  0  0
  -18.9600  -30.1070   23.9680 C   0  0  0  0  0  3  0  0  0  0  0  0
  -17.6600  -30.6160   24.1440 C   0  0  0  0  0  3  0  0  0  0  0  0
  -16.5480  -29.8630   23.7290 C   0  0  0  0  0  3  0  0  0  0  0  0
  -16.7440  -28.6100   23.1230 C   0  0  0  0  0  3  0  0  0  0  0  0
  -25.8890  -32.5160   23.8710 C   0  0  0  0  0  3  0  0  0  0  0  0
  -25.5780  -33.9140   24.1970 N   0  0  0  0  0  0  0  0  0  0  0  0
  -25.9060  -34.9650   23.4360 C   0  0  0  0  0  0  0  0  0  0  0  0
  -26.5810  -34.8620   22.4080 O   0  0  0  0  0  0  0  0  0  0  0  0
  -24.9950  -34.0720   25.0080 H   0  0  0  0  0  0  0  0  0  0  0  0
  -24.1760  -36.7470   23.0730 C   0  0  0  0  0  1  0  0  0  0  0  0
  -25.4140  -36.3500   23.8940 C   0  0  0  0  0  3  0  0  0  0  0  0
  -27.5420  -37.2420   24.7320 C   0  0  0  0  0  1  0  0  0  0  0  0
  -26.4420  -37.4090   23.7860 N   0  0  0  0  0  0  0  0  0  0  0  0
  -26.0300  -38.3240   23.9380 H   0  0  0  0  0  0  0  0  0  0  0  0
  -26.3830  -31.7500   25.1600 C   0  0  1  0  0  0  0  0  0  0  0  0
  -25.2730  -31.5300   26.2120 C   0  0  0  0  0  1  0  0  0  0  0  0
  -26.9610  -30.3650   24.7870 C   0  0  0  0  0  1  0  0  0  0  0  0
  -27.5270  -32.5450   25.8340 C   0  0  0  0  0  1  0  0  0  0  0  0
  1  3  2  0
  2  7  2  0
  2  1  1  0
  4  2  1  0
  5  4  1  0
  5  6  1  0
  6 48  1  0
  6  1  1  0
  9 14  1  0
 10 11  1  0
 10  9  1  0
 12 11  1  0
 12 23  1  0
 12 13  1  0
 14  8  1  0
 14 13  1  0
 15  8  2  0
 16 18  1  0
 16 19  1  0
 18  7  1  0
 18 17  1  0
 19  8  1  0
 19 17  1  0
 20 21  2  0
 21 40  1  0
 22 21  1  0
 22 25  1  0
 23 20  1  0
 23 24  1  0
 24 22  2  0
 25 26  1  0
 26 27  2  0
 28 31  1  0
 28 27  1  0
 29 28  2  0
 30 29  1  0
 30 25  2  0
 31 32  1  0
 32 33  1  0
 33 34  2  0
 35 34  1  0
 35 39  1  0
 36 35  2  0
 37 32  2  0
 37 36  1  0
 38 37  1  0
 40 41  1  0
 41 44  1  0
 41 43  1  0
 42 40  2  0
 45 46  1  0
 45 20  1  0
 47 45  1  0
 48 49  1  0
 50 61  2  0
 51 49  1  0
 51 56  1  0
 52 60  1  0
 52 62  1  0
 53 59  1  0
 53 55  1  0
 54 60  1  0
 55 54  1  0
 56 55  2  0
 57 51  2  0
 58 57  1  0
 58 53  2  0
 59 52  1  0
 60 50  1  0
 62 64  2  0
 63 62  1  0
 65 63  1  0
 66 75  2  0
 66 71  1  0
 67 63  1  0
 67 71  1  0
 68 67  1  0
 69 70  1  0
 69 68  1  0
 70 66  1  0
 71 72  2  0
 72 73  1  0
 74 73  2  0
 75 74  1  0
 76 50  1  0
 76 77  1  0
 76 86  1  0
 77 80  1  0
 78 82  1  0
 78 77  1  0
 79 78  2  0
 82 81  1  0
 84 82  1  0
 84 85  1  0
 84 83  1  0
 86 89  1  1
 86 87  1  0
 88 86  1  0
M  ISO  4   8 100  19 100  48 101  49 101
M  END
>  <TORSDO>  (80) 
F 17

>  <SCORE>  (80) 
-15.068

>  <name>  (80) 
79

>  <ligand_id>  (80) 
79

>  <original_smiles>  (80) 
[H]C([H])=C1C(=NC2([H])C([H])([H])N(C(=O)N3C([H])([H])C([H])([H])C([H])([H])C([H])(n4nc(-c5c([H])c([H])c(Oc6c([H])c([H])c(F)c([H])c6F)c([H])c5[H])c(C(=O)N([H])[H])c4N([H])[H])C3([H])[H])C2([H])[H])C([H])([H])C([H])([H])C1([H])C([H])([H])Oc1c([H])c([H])c2c(c1[H])C([H])([H])N(C(=O)C([H])(N([H])C(=O)C([H])(N([H])C([H])([H])[H])C([H])([H])[H])C(C([H])([H])[H])(C([H])([H])[H])C([H])([H])[H])C([H])(C(=O)N([H])C1([H])c3c([H])c([H])c([H])c([H])c3C([H])([H])C([H])([H])C1([H])[H])C2([H])[H]

>  <smiles>  (80) 
[H]C([H])=C1C(=NC2([H])C([H])([H])N(C(=O)N3C([H])([H])C([H])([H])C([H])([H])C([H])(n4nc(-c5c([H])c([H])c(Oc6c([H])c([H])c(F)c([H])c6F)c([H])c5[H])c(C(=O)N([H])[H])c4N([H])[H])C3([H])[H])C2([H])[H])C([H])([H])C([H])([H])C1([H])C([H])([H])Oc1c([H])c([H])c2c(c1[H])C([H])([H])N(C(=O)C([H])(N([H])C(=O)C([H])(N([H])C([H])([H])[H])C([H])([H])[H])C(C([H])([H])[H])(C([H])([H])[H])C([H])([H])[H])C([H])(C(=O)N([H])C1([H])c3c([H])c([H])c([H])c([H])c3C([H])([H])C([H])([H])C1([H])[H])C2([H])[H]

$$$$
80:0:0
     RDKit          3D

 93102  0  0  1  0  0  0  0  0999 V2000
  -29.0920  -21.0410   21.9060 C   0  0  0  0  0  2  0  0  0  0  0  0
  -28.6130  -21.0860   19.4140 C   0  0  0  0  0  2  0  0  0  0  0  0
  -28.3440  -22.3880   22.0100 C   0  0  0  0  0  2  0  0  0  0  0  0
  -27.9100  -22.4480   19.6300 C   0  0  0  0  0  2  0  0  0  0  0  0
  -28.6160  -20.2100   20.6950 C   0  0  0  0  0  3  0  0  0  0  0  0
  -28.5410  -23.1740   20.7640 N   0  0  1  0  0  4  0  0  0  0  0  0
  -29.5360  -23.1620   20.6020 H   0  0  0  0  0  0  0  0  0  0  0  0
  -29.0320  -17.6820   20.8760 C   0  0  0  0  0  3  0  0  0  0  0  0
  -30.1550  -16.9450   20.6100 C   0  0  0  0  0  0  0  0  0  0  0  0
  -31.1600  -17.7970   20.1530 N   0  0  0  0  0  0  0  0  0  0  0  0
  -30.6980  -19.0150   20.1320 N   0  0  0  0  0  0  0  0  0  0  0  0
  -29.4060  -18.9780   20.5620 N   0  0  0  0  0  0  0  0  0  0  0  0
  -30.9330  -14.6200   20.1140 C   0  0  0  0  0  0  0  0  0  0  0  0
  -30.6190  -12.4860   18.9130 C   0  0  0  0  0  2  0  0  0  0  0  0
  -29.6160  -12.7350   17.7670 C   0  0  0  0  0  2  0  0  0  0  0  0
  -28.1570  -12.6100   18.2580 C   0  0  0  0  0  2  0  0  0  0  0  0
  -27.8940  -13.3950   19.5740 C   0  0  0  0  0  3  0  0  0  0  0  0
  -28.9970  -13.0880   20.6130 C   0  0  0  0  0  2  0  0  0  0  0  0
  -30.3000  -13.4200   20.0020 N   0  0  0  0  0  0  0  0  0  0  0  0
  -32.0220  -14.8570   19.5750 O   0  0  0  0  0  0  0  0  0  0  0  0
  -30.2130  -15.5390   20.7860 N   0  0  0  0  0  0  0  0  0  0  0  0
  -29.4080  -15.1340   21.2410 H   0  0  0  0  0  0  0  0  0  0  0  0
  -25.5370  -14.0130   20.4040 C   0  0  0  0  0  0  0  0  0  0  0  0
  -24.4810  -13.2430   20.8180 C   0  0  0  0  0  0  0  0  0  0  0  0
  -24.9240  -11.8880   20.7270 C   0  0  0  0  0  0  0  0  0  0  0  0
  -26.5590  -13.1260   20.1040 N   0  0  0  0  0  0  0  0  0  0  0  0
  -26.1950  -11.8420   20.3500 N   0  0  0  0  0  0  0  0  0  0  0  0
  -24.1930  -10.6310   20.9270 C   0  0  0  0  0  0  0  0  0  0  0  0
  -24.6220   -9.6720   21.8710 C   0  0  0  0  0  3  0  0  0  0  0  0
  -23.9000   -8.4740   22.0540 C   0  0  0  0  0  3  0  0  0  0  0  0
  -22.7320   -8.2280   21.2940 C   0  0  0  0  0  0  0  0  0  0  0  0
  -22.3230   -9.1730   20.3360 C   0  0  0  0  0  3  0  0  0  0  0  0
  -23.0470  -10.3630   20.1520 C   0  0  0  0  0  3  0  0  0  0  0  0
  -21.9780   -7.0830   21.3880 O   0  0  0  0  0  0  0  0  0  0  0  0
  -21.8600   -6.3920   22.5680 C   0  0  0  0  0  0  0  0  0  0  0  0
  -21.3350   -6.9930   23.7320 C   0  0  0  0  0  3  0  0  0  0  0  0
  -21.1660   -6.2260   24.9050 C   0  0  0  0  0  3  0  0  0  0  0  0
  -21.5130   -4.8630   24.9120 C   0  0  0  0  0  0  0  0  0  0  0  0
  -22.0310   -4.2630   23.7510 C   0  0  0  0  0  3  0  0  0  0  0  0
  -22.2000   -5.0250   22.5810 C   0  0  0  0  0  0  0  0  0  0  0  0
  -22.6810   -4.4360   21.4610 F   0  0  0  0  0  0  0  0  0  0  0  0
  -21.3430   -4.1260   26.0350 F   0  0  0  0  0  0  0  0  0  0  0  0
  -23.1070  -13.7250   21.1770 C   0  0  0  0  0  0  0  0  0  0  0  0
  -22.4200  -13.0200   22.0710 N   0  0  0  0  0  0  0  0  0  0  0  0
  -22.6480  -14.7610   20.6980 O   0  0  0  0  0  0  0  0  0  0  0  0
  -22.8010  -12.1810   22.4810 H   0  0  0  0  0  0  0  0  0  0  0  0
  -21.4980  -13.3260   22.3510 H   0  0  0  0  0  0  0  0  0  0  0  0
  -25.6980  -15.3850   20.2380 N   0  0  0  0  0  0  0  0  0  0  0  0
  -24.9200  -16.0220   20.3720 H   0  0  0  0  0  0  0  0  0  0  0  0
  -26.4650  -15.8010   19.7240 H   0  0  0  0  0  0  0  0  0  0  0  0
  -28.1650  -24.6180   20.8870 C   0  0  0  0  0  2  0  0  0  0  0  0
  -28.7690  -25.5280   19.7780 C   0  0  0  0  0  2  0  0  0  0  0  0
  -28.7070  -26.9250   20.1110 O   0  0  0  0  0  0  0  0  0  0  0  0
  -24.6700  -31.8870   23.2210 C   0  0  0  0  0  0  0  0  0  0  0  0
  -27.4960  -27.5910   20.0840 C   0  0  0  0  0  0  0  0  0  0  0  0
  -23.5460  -30.5050   21.5080 C   0  0  0  0  0  3  0  0  0  0  0  0
  -25.0660  -29.0480   20.0820 C   0  0  0  0  0  0  0  0  0  0  0  0
  -26.0650  -30.9330   21.3840 C   0  0  0  0  0  2  0  0  0  0  0  0
  -26.1980  -29.5790   20.7120 C   0  0  0  0  0  0  0  0  0  0  0  0
  -27.4150  -28.8610   20.7050 C   0  0  0  0  0  3  0  0  0  0  0  0
  -26.3400  -27.0730   19.4530 C   0  0  0  0  0  3  0  0  0  0  0  0
  -25.1310  -27.7940   19.4520 C   0  0  0  0  0  3  0  0  0  0  0  0
  -23.8080  -29.8840   20.1140 C   0  0  0  0  0  2  0  0  0  0  0  0
  -24.7780  -31.1190   22.1000 N   0  0  0  0  0  0  0  0  0  0  0  0
  -23.5670  -32.1130   23.7410 O   0  0  0  0  0  0  0  0  0  0  0  0
  -22.8950  -29.4360   22.4200 C   0  0  0  0  0  0  0  0  0  0  0  0
  -21.5710  -29.2590   22.2880 N   0  0  0  0  0  0  0  0  0  0  0  0
  -23.5780  -28.7740   23.2070 O   0  0  0  0  0  0  0  0  0  0  0  0
  -21.0780  -29.8500   21.6330 H   0  0  0  0  0  0  0  0  0  0  0  0
  -18.1890  -28.0760   22.7730 C   0  0  0  0  0  0  0  0  0  0  0  0
  -20.7560  -28.2860   23.0160 C   0  0  0  0  0  3  0  0  0  0  0  0
  -20.8310  -26.8890   22.3560 C   0  0  0  0  0  2  0  0  0  0  0  0
  -19.7070  -26.6400   21.3460 C   0  0  0  0  0  2  0  0  0  0  0  0
  -18.3380  -26.7650   22.0210 C   0  0  0  0  0  2  0  0  0  0  0  0
  -19.3250  -28.7970   23.2290 C   0  0  0  0  0  0  0  0  0  0  0  0
  -19.1310  -30.0260   23.8970 C   0  0  0  0  0  3  0  0  0  0  0  0
  -17.8350  -30.5300   24.1140 C   0  0  0  0  0  3  0  0  0  0  0  0
  -16.7160  -29.8070   23.6700 C   0  0  0  0  0  3  0  0  0  0  0  0
  -16.8930  -28.5810   23.0060 C   0  0  0  0  0  3  0  0  0  0  0  0
  -25.9220  -32.5340   23.8930 C   0  0  0  0  0  3  0  0  0  0  0  0
  -26.4200  -31.7480   25.1660 C   0  0  1  0  0  0  0  0  0  0  0  0
  -25.3010  -31.4510   26.1920 C   0  0  0  0  0  1  0  0  0  0  0  0
  -27.0570  -30.4010   24.7550 C   0  0  0  0  0  1  0  0  0  0  0  0
  -27.5220  -32.5600   25.8830 C   0  0  0  0  0  1  0  0  0  0  0  0
  -25.5690  -33.9170   24.2390 N   0  0  0  0  0  0  0  0  0  0  0  0
  -25.8990  -34.9900   23.5080 C   0  0  0  0  0  0  0  0  0  0  0  0
  -26.5990  -34.9200   22.4940 O   0  0  0  0  0  0  0  0  0  0  0  0
  -24.9480  -34.0420   25.0250 H   0  0  0  0  0  0  0  0  0  0  0  0
  -24.1410  -36.7530   23.1360 C   0  0  0  0  0  1  0  0  0  0  0  0
  -25.3670  -36.3600   23.9740 C   0  0  0  0  0  3  0  0  0  0  0  0
  -27.4550  -37.2780   24.8870 C   0  0  0  0  0  1  0  0  0  0  0  0
  -26.3810  -37.4350   23.9090 N   0  0  0  0  0  0  0  0  0  0  0  0
  -25.9510  -38.3440   24.0570 H   0  0  0  0  0  0  0  0  0  0  0  0
  1  3  1  0
  2  4  1  0
  4  6  1  0
  5  2  1  0
  5  1  1  0
  6 51  1  0
  6  3  1  0
  6  7  1  6
  9 21  1  0
  9  8  2  0
 10  9  1  0
 11 10  2  0
 11 12  1  0
 12  5  1  0
 12  8  1  0
 13 21  1  0
 14 19  1  0
 15 16  1  0
 15 14  1  0
 17 16  1  0
 17 26  1  0
 17 18  1  0
 19 13  1  0
 19 18  1  0
 20 13  2  0
 21 22  1  0
 23 24  2  0
 24 43  1  0
 25 24  1  0
 25 28  1  0
 26 27  1  0
 26 23  1  0
 27 25  2  0
 28 29  1  0
 29 30  2  0
 31 34  1  0
 31 30  1  0
 32 31  2  0
 33 32  1  0
 33 28  2  0
 34 35  1  0
 35 40  2  0
 35 36  1  0
 36 37  2  0
 37 38  1  0
 38 42  1  0
 39 38  2  0
 40 39  1  0
 41 40  1  0
 43 44  1  0
 44 47  1  0
 44 46  1  0
 45 43  2  0
 48 49  1  0
 48 23  1  0
 50 48  1  0
 52 53  1  0
 52 51  1  0
 54 65  2  0
 55 53  1  0
 55 60  1  0
 56 64  1  0
 56 66  1  0
 57 63  1  0
 57 59  1  0
 58 64  1  0
 59 58  1  0
 60 59  2  0
 61 55  2  0
 62 61  1  0
 62 57  2  0
 63 56  1  0
 64 54  1  0
 66 68  2  0
 67 66  1  0
 69 67  1  0
 70 79  2  0
 70 75  1  0
 71 67  1  0
 71 75  1  0
 72 71  1  0
 73 74  1  0
 73 72  1  0
 74 70  1  0
 75 76  2  0
 76 77  1  0
 78 77  2  0
 79 78  1  0
 80 54  1  0
 80 85  1  0
 80 81  1  0
 81 84  1  1
 81 82  1  0
 83 81  1  0
 85 88  1  0
 86 90  1  0
 86 85  1  0
 87 86  2  0
 90 89  1  0
 92 90  1  0
 92 93  1  0
 92 91  1  0
M  ISO  4  13 100  21 100  52 101  53 101
M  END
>  <TORSDO>  (81) 
F 19

>  <SCORE>  (81) 
-13.915

>  <name>  (81) 
80

>  <ligand_id>  (81) 
80

>  <original_smiles>  (81) 
[H]c1c([H])c([H])c2c(c1[H])C([H])([H])C([H])([H])C([H])([H])C2([H])N([H])C(=O)C1([H])N(C(=O)C([H])(N([H])C(=O)C([H])(N([H])C([H])([H])[H])C([H])([H])[H])C(C([H])([H])[H])(C([H])([H])[H])C([H])([H])[H])C([H])([H])c2c([H])c(OC([H])([H])C([H])([H])[N+]3([H])C([H])([H])C([H])([H])C([H])(n4nnc(N([H])C(=O)N5C([H])([H])C([H])([H])C([H])([H])C([H])(n6nc(-c7c([H])c([H])c(Oc8c([H])c([H])c(F)c([H])c8F)c([H])c7[H])c(C(=O)N([H])[H])c6N([H])[H])C5([H])[H])c4[H])C([H])([H])C3([H])[H])c([H])c([H])c2C1([H])[H]

>  <smiles>  (81) 
[H]c1c([H])c([H])c2c(c1[H])C([H])([H])C([H])([H])C([H])([H])C2([H])N([H])C(=O)C1([H])N(C(=O)C([H])(N([H])C(=O)C([H])(N([H])C([H])([H])[H])C([H])([H])[H])C(C([H])([H])[H])(C([H])([H])[H])C([H])([H])[H])C([H])([H])c2c([H])c(OC([H])([H])C([H])([H])[N+]3([H])C([H])([H])C([H])([H])C([H])(n4nnc(N([H])C(=O)N5C([H])([H])C([H])([H])C([H])([H])C([H])(n6nc(-c7c([H])c([H])c(Oc8c([H])c([H])c(F)c([H])c8F)c([H])c7[H])c(C(=O)N([H])[H])c6N([H])[H])C5([H])[H])c4[H])C([H])([H])C3([H])[H])c([H])c([H])c2C1([H])[H]

$$$$
81:0:0
     RDKit          3D

 95104  0  0  1  0  0  0  0  0999 V2000
  -27.2730  -22.5490   21.0590 C   0  0  0  0  0  2  0  0  0  0  0  0
  -27.0560  -24.1110   21.0190 C   0  0  0  0  0  2  0  0  0  0  0  0
  -28.3900  -22.1580   20.0690 C   0  0  0  0  0  3  0  0  0  0  0  0
  -29.1780  -23.5810   20.0690 C   0  0  0  0  0  3  0  0  0  0  0  0
  -28.0540  -24.7840   20.0370 C   0  0  0  0  0  3  0  0  0  0  0  0
  -30.5340  -15.0290   20.3340 C   0  0  0  0  0  0  0  0  0  0  0  0
  -30.4550  -12.6900   19.3720 C   0  0  0  0  0  2  0  0  0  0  0  0
  -29.5080  -12.6670   18.1480 C   0  0  0  0  0  2  0  0  0  0  0  0
  -28.0470  -12.4460   18.5850 C   0  0  0  0  0  2  0  0  0  0  0  0
  -27.6430  -13.3570   19.7730 C   0  0  0  0  0  3  0  0  0  0  0  0
  -28.7030  -13.3350   20.8950 C   0  0  0  0  0  2  0  0  0  0  0  0
  -29.9790  -13.7540   20.2970 N   0  0  0  0  0  0  0  0  0  0  0  0
  -31.7230  -15.1530   20.0170 O   0  0  0  0  0  0  0  0  0  0  0  0
  -28.6370  -18.1480   19.4700 C   0  0  0  0  0  3  0  0  0  0  0  0
  -29.9280  -19.9880   20.9770 C   0  0  0  0  0  3  0  0  0  0  0  0
  -28.9230  -20.5820   20.1290 C   0  0  0  0  0  0  0  0  0  0  0  0
  -28.2960  -19.5450   19.3490 C   0  0  0  0  0  0  0  0  0  0  0  0
  -29.6260  -17.6310   20.3510 C   0  0  0  0  0  0  0  0  0  0  0  0
  -27.1870  -19.8880   18.3690 C   0  0  0  0  0  1  0  0  0  0  0  0
  -30.2500  -18.6250   21.0800 N   0  0  0  0  0  0  0  0  0  0  0  0
  -29.6670  -16.1220   20.5620 N   0  0  0  0  0  0  0  0  0  0  0  0
  -28.7500  -15.7620   20.7660 H   0  0  0  0  0  0  0  0  0  0  0  0
  -25.2590  -13.9250   20.5250 C   0  0  0  0  0  0  0  0  0  0  0  0
  -24.2000  -13.1430   20.8940 C   0  0  0  0  0  0  0  0  0  0  0  0
  -24.6700  -11.7950   20.8460 C   0  0  0  0  0  0  0  0  0  0  0  0
  -26.3050  -13.0540   20.2700 N   0  0  0  0  0  0  0  0  0  0  0  0
  -25.9580  -11.7660   20.5290 N   0  0  0  0  0  0  0  0  0  0  0  0
  -23.9480  -10.5280   21.0250 C   0  0  0  0  0  0  0  0  0  0  0  0
  -24.3660   -9.5690   21.9730 C   0  0  0  0  0  3  0  0  0  0  0  0
  -23.6440   -8.3650   22.1420 C   0  0  0  0  0  3  0  0  0  0  0  0
  -22.4910   -8.1150   21.3620 C   0  0  0  0  0  0  0  0  0  0  0  0
  -22.0930   -9.0640   20.4030 C   0  0  0  0  0  3  0  0  0  0  0  0
  -22.8150  -10.2570   20.2330 C   0  0  0  0  0  3  0  0  0  0  0  0
  -21.7430   -6.9640   21.4380 O   0  0  0  0  0  0  0  0  0  0  0  0
  -21.6440   -6.2490   22.6040 C   0  0  0  0  0  0  0  0  0  0  0  0
  -21.1190   -6.8160   23.7850 C   0  0  0  0  0  3  0  0  0  0  0  0
  -20.9680   -6.0230   24.9400 C   0  0  0  0  0  3  0  0  0  0  0  0
  -21.3320   -4.6630   24.9160 C   0  0  0  0  0  0  0  0  0  0  0  0
  -21.8510   -4.0960   23.7390 C   0  0  0  0  0  3  0  0  0  0  0  0
  -22.0030   -4.8860   22.5860 C   0  0  0  0  0  0  0  0  0  0  0  0
  -22.4820   -4.3290   21.4480 F   0  0  0  0  0  0  0  0  0  0  0  0
  -21.1800   -3.9000   26.0230 F   0  0  0  0  0  0  0  0  0  0  0  0
  -22.8010  -13.6120   21.1750 C   0  0  0  0  0  0  0  0  0  0  0  0
  -22.0810  -12.9070   22.0380 N   0  0  0  0  0  0  0  0  0  0  0  0
  -22.3580  -14.6400   20.6630 O   0  0  0  0  0  0  0  0  0  0  0  0
  -22.4530  -12.0790   22.4770 H   0  0  0  0  0  0  0  0  0  0  0  0
  -21.1430  -13.2040   22.2690 H   0  0  0  0  0  0  0  0  0  0  0  0
  -25.4130  -15.2980   20.3580 N   0  0  0  0  0  0  0  0  0  0  0  0
  -24.6300  -15.9330   20.4690 H   0  0  0  0  0  0  0  0  0  0  0  0
  -26.2260  -15.7450   19.9600 H   0  0  0  0  0  0  0  0  0  0  0  0
  -31.0800  -24.7690   18.9810 C   0  0  0  0  0  1  0  0  0  0  0  0
  -30.1290  -23.6400   18.9350 N   0  0  0  0  0  4  0  0  0  0  0  0
  -29.6290  -23.6690   18.0600 H   0  0  0  0  0  0  0  0  0  0  0  0
  -30.6690  -22.7900   18.9380 H   0  0  0  0  0  0  0  0  0  0  0  0
  -28.2600  -26.3070   20.2710 O   0  0  0  0  0  0  0  0  0  0  0  0
  -24.6330  -31.9650   23.2650 C   0  0  0  0  0  0  0  0  0  0  0  0
  -27.1920  -27.2730   20.2010 C   0  0  0  0  0  0  0  0  0  0  0  0
  -23.4230  -30.5810   21.6230 C   0  0  0  0  0  3  0  0  0  0  0  0
  -24.8620  -29.0110   20.1860 C   0  0  0  0  0  0  0  0  0  0  0  0
  -25.9750  -30.8430   21.4520 C   0  0  0  0  0  2  0  0  0  0  0  0
  -26.0440  -29.4550   20.7950 C   0  0  0  0  0  0  0  0  0  0  0  0
  -27.2070  -28.6010   20.7870 C   0  0  0  0  0  3  0  0  0  0  0  0
  -25.9850  -26.9300   19.5510 C   0  0  0  0  0  3  0  0  0  0  0  0
  -24.8450  -27.7620   19.5520 C   0  0  0  0  0  3  0  0  0  0  0  0
  -23.6360  -29.9090   20.2410 C   0  0  0  0  0  2  0  0  0  0  0  0
  -24.6970  -31.1500   22.1680 N   0  0  0  0  0  0  0  0  0  0  0  0
  -23.5500  -32.2530   23.7970 O   0  0  0  0  0  0  0  0  0  0  0  0
  -22.7440  -29.5720   22.5810 C   0  0  0  0  0  0  0  0  0  0  0  0
  -21.4160  -29.4000   22.4510 N   0  0  0  0  0  0  0  0  0  0  0  0
  -23.4140  -28.9450   23.4060 O   0  0  0  0  0  0  0  0  0  0  0  0
  -20.9320  -29.9550   21.7580 H   0  0  0  0  0  0  0  0  0  0  0  0
  -18.0330  -28.2100   22.9520 C   0  0  0  0  0  0  0  0  0  0  0  0
  -20.5930  -28.4640   23.2200 C   0  0  0  0  0  3  0  0  0  0  0  0
  -20.6890  -27.0320   22.6410 C   0  0  0  0  0  2  0  0  0  0  0  0
  -19.5870  -26.7160   21.6240 C   0  0  0  0  0  2  0  0  0  0  0  0
  -18.2060  -26.8630   22.2700 C   0  0  0  0  0  2  0  0  0  0  0  0
  -19.1540  -28.9680   23.3820 C   0  0  0  0  0  0  0  0  0  0  0  0
  -18.9380  -30.2280   23.9810 C   0  0  0  0  0  3  0  0  0  0  0  0
  -17.6350  -30.7310   24.1510 C   0  0  0  0  0  3  0  0  0  0  0  0
  -16.5280  -29.9710   23.7360 C   0  0  0  0  0  3  0  0  0  0  0  0
  -16.7270  -28.7120   23.1410 C   0  0  0  0  0  3  0  0  0  0  0  0
  -25.9170  -32.5920   23.8890 C   0  0  0  0  0  3  0  0  0  0  0  0
  -26.4240  -31.8200   25.1680 C   0  0  1  0  0  0  0  0  0  0  0  0
  -25.3250  -31.5890   26.2330 C   0  0  0  0  0  1  0  0  0  0  0  0
  -27.0010  -30.4380   24.7850 C   0  0  0  0  0  1  0  0  0  0  0  0
  -27.5760  -32.6080   25.8350 C   0  0  0  0  0  1  0  0  0  0  0  0
  -25.6140  -33.9930   24.2230 N   0  0  0  0  0  0  0  0  0  0  0  0
  -25.9270  -35.0470   23.4570 C   0  0  0  0  0  0  0  0  0  0  0  0
  -26.5690  -34.9420   22.4080 O   0  0  0  0  0  0  0  0  0  0  0  0
  -25.0360  -34.1480   25.0360 H   0  0  0  0  0  0  0  0  0  0  0  0
  -24.1830  -36.8370   23.1620 C   0  0  0  0  0  1  0  0  0  0  0  0
  -25.4540  -36.4370   23.9270 C   0  0  0  0  0  3  0  0  0  0  0  0
  -27.6120  -37.3370   24.6780 C   0  0  0  0  0  1  0  0  0  0  0  0
  -26.4790  -37.4920   23.7710 N   0  0  0  0  0  0  0  0  0  0  0  0
  -26.0740  -38.4120   23.9220 H   0  0  0  0  0  0  0  0  0  0  0  0
  2  1  1  0
  3 16  1  0
  3  1  1  0
  4 52  1  0
  4  3  1  0
  5  4  1  0
  5 55  1  0
  5  2  1  0
  6 21  1  0
  7 12  1  0
  8  9  1  0
  8  7  1  0
 10  9  1  0
 10 26  1  0
 10 11  1  0
 12  6  1  0
 12 11  1  0
 13  6  2  0
 14 18  1  0
 15 20  1  0
 16 15  2  0
 17 14  2  0
 17 16  1  0
 18 21  1  0
 18 20  2  0
 19 17  1  0
 21 22  1  0
 23 24  2  0
 24 43  1  0
 25 24  1  0
 25 28  1  0
 26 23  1  0
 26 27  1  0
 27 25  2  0
 28 29  1  0
 29 30  2  0
 31 34  1  0
 31 30  1  0
 32 31  2  0
 33 32  1  0
 33 28  2  0
 34 35  1  0
 35 36  1  0
 36 37  2  0
 38 37  1  0
 38 42  1  0
 39 38  2  0
 40 35  2  0
 40 39  1  0
 41 40  1  0
 43 44  1  0
 44 47  1  0
 44 46  1  0
 45 43  2  0
 48 49  1  0
 48 23  1  0
 50 48  1  0
 52 54  1  0
 52 51  1  0
 53 52  1  0
 56 67  2  0
 57 55  1  0
 57 62  1  0
 58 66  1  0
 58 68  1  0
 59 65  1  0
 59 61  1  0
 60 66  1  0
 61 60  1  0
 62 61  2  0
 63 64  1  0
 63 57  2  0
 64 59  2  0
 65 58  1  0
 66 56  1  0
 68 70  2  0
 69 68  1  0
 71 69  1  0
 72 81  2  0
 72 77  1  0
 73 69  1  0
 73 77  1  0
 74 73  1  0
 75 76  1  0
 75 74  1  0
 76 72  1  0
 77 78  2  0
 78 79  1  0
 80 79  2  0
 81 80  1  0
 82 56  1  0
 82 87  1  0
 82 83  1  0
 83 86  1  1
 83 84  1  0
 85 83  1  0
 87 90  1  0
 88 92  1  0
 88 87  1  0
 89 88  2  0
 92 91  1  0
 94 95  1  0
 94 92  1  0
 94 93  1  0
M  ISO  4   5 101   6 100  21 100  55 101
M  END
>  <TORSDO>  (82) 
F 17

>  <SCORE>  (82) 
-15.437

>  <name>  (82) 
81

>  <ligand_id>  (82) 
81

>  <original_smiles>  (82) 
[H]c1nc(N([H])C(=O)N2C([H])([H])C([H])([H])C([H])([H])C([H])(n3nc(-c4c([H])c([H])c(Oc5c([H])c([H])c(F)c([H])c5F)c([H])c4[H])c(C(=O)N([H])[H])c3N([H])[H])C2([H])[H])c([H])c(C([H])([H])[H])c1C1([H])C([H])([H])C([H])([H])C([H])(Oc2c([H])c([H])c3c(c2[H])C([H])([H])N(C(=O)C([H])(N([H])C(=O)C([H])(N([H])C([H])([H])[H])C([H])([H])[H])C(C([H])([H])[H])(C([H])([H])[H])C([H])([H])[H])C([H])(C(=O)N([H])C2([H])c4c([H])c([H])c([H])c([H])c4C([H])([H])C([H])([H])C2([H])[H])C3([H])[H])C1([H])[N+]([H])([H])C([H])([H])[H]

>  <smiles>  (82) 
[H]c1nc(N([H])C(=O)N2C([H])([H])C([H])([H])C([H])([H])C([H])(n3nc(-c4c([H])c([H])c(Oc5c([H])c([H])c(F)c([H])c5F)c([H])c4[H])c(C(=O)N([H])[H])c3N([H])[H])C2([H])[H])c([H])c(C([H])([H])[H])c1C1([H])C([H])([H])C([H])([H])C([H])(Oc2c([H])c([H])c3c(c2[H])C([H])([H])N(C(=O)C([H])(N([H])C(=O)C([H])(N([H])C([H])([H])[H])C([H])([H])[H])C(C([H])([H])[H])(C([H])([H])[H])C([H])([H])[H])C([H])(C(=O)N([H])C2([H])c4c([H])c([H])c([H])c([H])c4C([H])([H])C([H])([H])C2([H])[H])C3([H])[H])C1([H])[N+]([H])([H])C([H])([H])[H]

$$$$
82:0:0
     RDKit          3D

 90 99  0  0  1  0  0  0  0  0999 V2000
  -28.6920  -21.3430   21.4050 C   0  0  0  0  0  3  0  0  0  0  0  0
  -29.1920  -20.5280   20.3320 C   0  0  0  0  0  0  0  0  0  0  0  0
  -29.2360  -22.6080   19.1100 C   0  0  0  0  0  0  0  0  0  0  0  0
  -28.6640  -23.4110   20.1660 C   0  0  0  0  0  0  0  0  0  0  0  0
  -29.5270  -23.2130   17.7500 C   0  0  0  0  0  1  0  0  0  0  0  0
  -28.4310  -22.7100   21.3260 N   0  0  0  0  0  0  0  0  0  0  0  0
  -29.4830  -21.2390   19.1920 N   0  0  0  0  0  0  0  0  0  0  0  0
  -29.6110  -18.2100   19.0420 C   0  0  0  0  0  2  0  0  0  0  0  0
  -29.1040  -18.8950   20.2900 C   0  0  0  0  0  3  0  0  0  0  0  0
  -30.1190  -17.5900   20.3190 C   0  0  0  0  0  3  0  0  0  0  0  0
  -30.5450  -14.9390   20.3360 C   0  0  0  0  0  0  0  0  0  0  0  0
  -30.3740  -12.6230   19.3660 C   0  0  0  0  0  2  0  0  0  0  0  0
  -29.4290  -12.6370   18.1430 C   0  0  0  0  0  2  0  0  0  0  0  0
  -27.9640  -12.4480   18.5820 C   0  0  0  0  0  2  0  0  0  0  0  0
  -27.5810  -13.3480   19.7880 C   0  0  0  0  0  3  0  0  0  0  0  0
  -28.6490  -13.3140   20.9030 C   0  0  0  0  0  2  0  0  0  0  0  0
  -29.9290  -13.6980   20.2900 N   0  0  0  0  0  0  0  0  0  0  0  0
  -31.7390  -15.0140   20.0320 O   0  0  0  0  0  0  0  0  0  0  0  0
  -29.7690  -16.1030   20.4860 N   0  0  0  0  0  0  0  0  0  0  0  0
  -28.8020  -15.9190   20.7090 H   0  0  0  0  0  0  0  0  0  0  0  0
  -25.2020  -13.9190   20.5470 C   0  0  0  0  0  0  0  0  0  0  0  0
  -24.1420  -13.1400   20.9190 C   0  0  0  0  0  0  0  0  0  0  0  0
  -24.6050  -11.7900   20.8700 C   0  0  0  0  0  0  0  0  0  0  0  0
  -26.2450  -13.0450   20.2920 N   0  0  0  0  0  0  0  0  0  0  0  0
  -25.8940  -11.7580   20.5500 N   0  0  0  0  0  0  0  0  0  0  0  0
  -23.8800  -10.5260   21.0510 C   0  0  0  0  0  0  0  0  0  0  0  0
  -24.3040   -9.5550   21.9830 C   0  0  0  0  0  3  0  0  0  0  0  0
  -23.5770   -8.3580   22.1520 C   0  0  0  0  0  3  0  0  0  0  0  0
  -22.4090   -8.1210   21.3870 C   0  0  0  0  0  0  0  0  0  0  0  0
  -22.0040   -9.0800   20.4430 C   0  0  0  0  0  3  0  0  0  0  0  0
  -22.7330  -10.2700   20.2730 C   0  0  0  0  0  3  0  0  0  0  0  0
  -21.6560   -6.9750   21.4650 O   0  0  0  0  0  0  0  0  0  0  0  0
  -21.5800   -6.2410   22.6220 C   0  0  0  0  0  0  0  0  0  0  0  0
  -21.0880   -6.7930   23.8240 C   0  0  0  0  0  3  0  0  0  0  0  0
  -20.9620   -5.9840   24.9710 C   0  0  0  0  0  3  0  0  0  0  0  0
  -21.3170   -4.6230   24.9150 C   0  0  0  0  0  0  0  0  0  0  0  0
  -21.8030   -4.0700   23.7170 C   0  0  0  0  0  3  0  0  0  0  0  0
  -21.9300   -4.8770   22.5730 C   0  0  0  0  0  0  0  0  0  0  0  0
  -22.3790   -4.3330   21.4160 F   0  0  0  0  0  0  0  0  0  0  0  0
  -21.1890   -3.8430   26.0150 F   0  0  0  0  0  0  0  0  0  0  0  0
  -22.7470  -13.6150   21.2060 C   0  0  0  0  0  0  0  0  0  0  0  0
  -22.0250  -12.9120   22.0720 N   0  0  0  0  0  0  0  0  0  0  0  0
  -22.3060  -14.6460   20.6990 O   0  0  0  0  0  0  0  0  0  0  0  0
  -22.3950  -12.0810   22.5080 H   0  0  0  0  0  0  0  0  0  0  0  0
  -21.0900  -13.2130   22.3060 H   0  0  0  0  0  0  0  0  0  0  0  0
  -25.3580  -15.2920   20.3730 N   0  0  0  0  0  0  0  0  0  0  0  0
  -24.5690  -15.9240   20.4500 H   0  0  0  0  0  0  0  0  0  0  0  0
  -26.1650  -15.7220   19.9420 H   0  0  0  0  0  0  0  0  0  0  0  0
  -27.8660  -24.8180   19.9090 C   0  0  0  0  0  2  0  0  0  0  0  0
  -28.2280  -26.2710   20.2650 O   0  0  0  0  0  0  0  0  0  0  0  0
  -24.6340  -31.9470   23.2560 C   0  0  0  0  0  0  0  0  0  0  0  0
  -27.1850  -27.2610   20.1920 C   0  0  0  0  0  0  0  0  0  0  0  0
  -23.4230  -30.5630   21.6200 C   0  0  0  0  0  3  0  0  0  0  0  0
  -24.8590  -28.9990   20.1840 C   0  0  0  0  0  0  0  0  0  0  0  0
  -25.9770  -30.8240   21.4470 C   0  0  0  0  0  2  0  0  0  0  0  0
  -26.0430  -29.4370   20.7920 C   0  0  0  0  0  0  0  0  0  0  0  0
  -27.2070  -28.5830   20.7860 C   0  0  0  0  0  3  0  0  0  0  0  0
  -25.9750  -26.9320   19.5330 C   0  0  0  0  0  3  0  0  0  0  0  0
  -24.8360  -27.7570   19.5430 C   0  0  0  0  0  3  0  0  0  0  0  0
  -23.6350  -29.8950   20.2370 C   0  0  0  0  0  2  0  0  0  0  0  0
  -24.6980  -31.1300   22.1630 N   0  0  0  0  0  0  0  0  0  0  0  0
  -23.5510  -32.2370   23.7880 O   0  0  0  0  0  0  0  0  0  0  0  0
  -22.7450  -29.5510   22.5790 C   0  0  0  0  0  0  0  0  0  0  0  0
  -21.4170  -29.3810   22.4500 N   0  0  0  0  0  0  0  0  0  0  0  0
  -23.4160  -28.9240   23.4020 O   0  0  0  0  0  0  0  0  0  0  0  0
  -20.9340  -29.9380   21.7590 H   0  0  0  0  0  0  0  0  0  0  0  0
  -18.0310  -28.2010   22.9600 C   0  0  0  0  0  0  0  0  0  0  0  0
  -20.5920  -28.4490   23.2210 C   0  0  0  0  0  3  0  0  0  0  0  0
  -20.6840  -27.0170   22.6450 C   0  0  0  0  0  2  0  0  0  0  0  0
  -19.5770  -26.7000   21.6350 C   0  0  0  0  0  2  0  0  0  0  0  0
  -18.1980  -26.8510   22.2830 C   0  0  0  0  0  2  0  0  0  0  0  0
  -19.1540  -28.9580   23.3870 C   0  0  0  0  0  0  0  0  0  0  0  0
  -18.9430  -30.2200   23.9830 C   0  0  0  0  0  3  0  0  0  0  0  0
  -17.6400  -30.7270   24.1530 C   0  0  0  0  0  3  0  0  0  0  0  0
  -16.5320  -29.9670   23.7400 C   0  0  0  0  0  3  0  0  0  0  0  0
  -16.7270  -28.7060   23.1500 C   0  0  0  0  0  3  0  0  0  0  0  0
  -25.9190  -32.5750   23.8790 C   0  0  0  0  0  3  0  0  0  0  0  0
  -25.6150  -33.9750   24.2140 N   0  0  0  0  0  0  0  0  0  0  0  0
  -25.9250  -35.0280   23.4470 C   0  0  0  0  0  0  0  0  0  0  0  0
  -26.5650  -34.9230   22.3960 O   0  0  0  0  0  0  0  0  0  0  0  0
  -25.0450  -34.1300   25.0320 H   0  0  0  0  0  0  0  0  0  0  0  0
  -24.1800  -36.8170   23.1490 C   0  0  0  0  0  1  0  0  0  0  0  0
  -25.4500  -36.4180   23.9160 C   0  0  0  0  0  3  0  0  0  0  0  0
  -27.6090  -37.3160   24.6690 C   0  0  0  0  0  1  0  0  0  0  0  0
  -26.4750  -37.4730   23.7620 N   0  0  0  0  0  0  0  0  0  0  0  0
  -26.0710  -38.3920   23.9170 H   0  0  0  0  0  0  0  0  0  0  0  0
  -26.4270  -31.8000   25.1560 C   0  0  1  0  0  0  0  0  0  0  0  0
  -25.3340  -31.5690   26.2250 C   0  0  0  0  0  1  0  0  0  0  0  0
  -27.0040  -30.4190   24.7680 C   0  0  0  0  0  1  0  0  0  0  0  0
  -27.5830  -32.5890   25.8200 C   0  0  0  0  0  1  0  0  0  0  0  0
  2  1  2  0
  3  7  2  0
  3  4  1  0
  4  6  2  0
  5  3  1  0
  6  1  1  0
  7  2  1  0
  8  9  1  0
  8 10  1  0
  9 10  1  0
  9  2  1  0
 10 19  1  0
 11 19  1  0
 12 17  1  0
 13 14  1  0
 13 12  1  0
 15 14  1  0
 15 24  1  0
 15 16  1  0
 17 11  1  0
 17 16  1  0
 18 11  2  0
 19 20  1  0
 21 22  2  0
 22 41  1  0
 23 22  1  0
 23 26  1  0
 24 21  1  0
 24 25  1  0
 25 23  2  0
 26 27  1  0
 27 28  2  0
 29 32  1  0
 29 28  1  0
 30 29  2  0
 31 30  1  0
 31 26  2  0
 32 33  1  0
 33 34  1  0
 34 35  2  0
 36 35  1  0
 36 40  1  0
 37 36  2  0
 38 33  2  0
 38 37  1  0
 39 38  1  0
 41 42  1  0
 42 45  1  0
 42 44  1  0
 43 41  2  0
 46 47  1  0
 46 21  1  0
 48 46  1  0
 49  4  1  0
 49 50  1  0
 51 62  2  0
 52 50  1  0
 52 57  1  0
 53 61  1  0
 53 63  1  0
 54 60  1  0
 54 56  1  0
 55 61  1  0
 56 55  1  0
 57 56  2  0
 58 59  1  0
 58 52  2  0
 59 54  2  0
 60 53  1  0
 61 51  1  0
 63 65  2  0
 64 63  1  0
 66 64  1  0
 67 76  2  0
 67 72  1  0
 68 64  1  0
 68 72  1  0
 69 68  1  0
 70 71  1  0
 70 69  1  0
 71 67  1  0
 72 73  2  0
 73 74  1  0
 75 74  2  0
 76 75  1  0
 77 51  1  0
 77 78  1  0
 77 87  1  0
 78 81  1  0
 79 83  1  0
 79 78  1  0
 80 79  2  0
 83 82  1  0
 85 83  1  0
 85 86  1  0
 85 84  1  0
 87 90  1  1
 87 88  1  0
 89 87  1  0
M  ISO  4  11 100  19 100  49 101  50 101
M  END
>  <TORSDO>  (83) 
F 18

>  <SCORE>  (83) 
-14.726

>  <name>  (83) 
82

>  <ligand_id>  (83) 
82

>  <original_smiles>  (83) 
[H]c1nc(C([H])([H])Oc2c([H])c([H])c3c(c2[H])C([H])([H])N(C(=O)C([H])(N([H])C(=O)C([H])(N([H])C([H])([H])[H])C([H])([H])[H])C(C([H])([H])[H])(C([H])([H])[H])C([H])([H])[H])C([H])(C(=O)N([H])C2([H])c4c([H])c([H])c([H])c([H])c4C([H])([H])C([H])([H])C2([H])[H])C3([H])[H])c(C([H])([H])[H])nc1C1([H])C([H])([H])C1([H])N([H])C(=O)N1C([H])([H])C([H])([H])C([H])([H])C([H])(n2nc(-c3c([H])c([H])c(Oc4c([H])c([H])c(F)c([H])c4F)c([H])c3[H])c(C(=O)N([H])[H])c2N([H])[H])C1([H])[H]

>  <smiles>  (83) 
[H]c1nc(C([H])([H])Oc2c([H])c([H])c3c(c2[H])C([H])([H])N(C(=O)C([H])(N([H])C(=O)C([H])(N([H])C([H])([H])[H])C([H])([H])[H])C(C([H])([H])[H])(C([H])([H])[H])C([H])([H])[H])C([H])(C(=O)N([H])C2([H])c4c([H])c([H])c([H])c([H])c4C([H])([H])C([H])([H])C2([H])[H])C3([H])[H])c(C([H])([H])[H])nc1C1([H])C([H])([H])C1([H])N([H])C(=O)N1C([H])([H])C([H])([H])C([H])([H])C([H])(n2nc(-c3c([H])c([H])c(Oc4c([H])c([H])c(F)c([H])c4F)c([H])c3[H])c(C(=O)N([H])[H])c2N([H])[H])C1([H])[H]

$$$$
83:0:0
     RDKit          3D

 94103  0  0  1  0  0  0  0  0999 V2000
  -28.9280  -22.1460   19.0300 C   0  0  0  0  0  3  0  0  0  0  0  0
  -28.6180  -21.7740   21.2550 C   0  0  0  0  0  3  0  0  0  0  0  0
  -29.3550  -20.7340   18.8930 C   0  0  0  0  0  0  0  0  0  0  0  0
  -28.5330  -22.8260   20.2340 C   0  0  0  0  0  0  0  0  0  0  0  0
  -29.3930  -19.7440   19.9740 C   0  0  0  0  0  0  0  0  0  0  0  0
  -29.7810  -20.2690   17.4950 C   0  0  0  0  0  3  0  0  0  0  0  0
  -30.1080  -18.1400   19.7850 C   0  0  0  0  0  3  0  0  0  0  0  0
  -30.3470  -17.9880   18.2300 C   0  0  0  0  0  3  0  0  0  0  0  0
  -30.2760  -21.3790   16.5410 C   0  0  0  0  0  1  0  0  0  0  0  0
  -31.2910  -16.8750   17.7250 C   0  0  0  0  0  1  0  0  0  0  0  0
  -29.0220  -20.3990   21.1530 N   0  0  0  0  0  0  0  0  0  0  0  0
  -30.8220  -19.2390   17.6100 N   0  0  0  0  0  4  0  0  0  0  0  0
  -31.6290  -19.5980   18.0930 H   0  0  0  0  0  0  0  0  0  0  0  0
  -31.1130  -19.0080   16.6740 H   0  0  0  0  0  0  0  0  0  0  0  0
  -30.4820  -15.3140   20.3120 C   0  0  0  0  0  0  0  0  0  0  0  0
  -30.4150  -12.8930   19.4220 C   0  0  0  0  0  2  0  0  0  0  0  0
  -29.4970  -12.7170   18.1880 C   0  0  0  0  0  2  0  0  0  0  0  0
  -28.0460  -12.4540   18.6270 C   0  0  0  0  0  2  0  0  0  0  0  0
  -27.5990  -13.4090   19.7620 C   0  0  0  0  0  3  0  0  0  0  0  0
  -28.6470  -13.5450   20.8870 C   0  0  0  0  0  2  0  0  0  0  0  0
  -29.8830  -14.0310   20.2530 N   0  0  0  0  0  0  0  0  0  0  0  0
  -31.7060  -15.2810   20.1350 O   0  0  0  0  0  0  0  0  0  0  0  0
  -29.7580  -16.6020   20.2980 N   0  0  0  0  0  0  0  0  0  0  0  0
  -28.7750  -16.4900   20.4920 H   0  0  0  0  0  0  0  0  0  0  0  0
  -25.2250  -13.9600   20.5150 C   0  0  0  0  0  0  0  0  0  0  0  0
  -24.1650  -13.1790   20.8800 C   0  0  0  0  0  0  0  0  0  0  0  0
  -24.6370  -11.8300   20.8470 C   0  0  0  0  0  0  0  0  0  0  0  0
  -26.2710  -13.0890   20.2690 N   0  0  0  0  0  0  0  0  0  0  0  0
  -25.9290  -11.8010   20.5390 N   0  0  0  0  0  0  0  0  0  0  0  0
  -23.9120  -10.5650   21.0290 C   0  0  0  0  0  0  0  0  0  0  0  0
  -24.3330   -9.6010   21.9720 C   0  0  0  0  0  3  0  0  0  0  0  0
  -23.6050   -8.4030   22.1440 C   0  0  0  0  0  3  0  0  0  0  0  0
  -22.4430   -8.1610   21.3720 C   0  0  0  0  0  0  0  0  0  0  0  0
  -22.0430   -9.1140   20.4190 C   0  0  0  0  0  3  0  0  0  0  0  0
  -22.7710  -10.3020   20.2450 C   0  0  0  0  0  3  0  0  0  0  0  0
  -21.6890   -7.0150   21.4530 O   0  0  0  0  0  0  0  0  0  0  0  0
  -21.6080   -6.2860   22.6130 C   0  0  0  0  0  0  0  0  0  0  0  0
  -21.1190   -6.8480   23.8130 C   0  0  0  0  0  3  0  0  0  0  0  0
  -20.9870   -6.0450   24.9640 C   0  0  0  0  0  3  0  0  0  0  0  0
  -21.3340   -4.6820   24.9150 C   0  0  0  0  0  0  0  0  0  0  0  0
  -21.8170   -4.1200   23.7200 C   0  0  0  0  0  3  0  0  0  0  0  0
  -21.9500   -4.9200   22.5710 C   0  0  0  0  0  0  0  0  0  0  0  0
  -22.3950   -4.3680   21.4170 F   0  0  0  0  0  0  0  0  0  0  0  0
  -21.2010   -3.9090   26.0170 F   0  0  0  0  0  0  0  0  0  0  0  0
  -22.7660  -13.6520   21.1430 C   0  0  0  0  0  0  0  0  0  0  0  0
  -22.0370  -12.9580   22.0100 N   0  0  0  0  0  0  0  0  0  0  0  0
  -22.3270  -14.6730   20.6160 O   0  0  0  0  0  0  0  0  0  0  0  0
  -22.4040  -12.1320   22.4590 H   0  0  0  0  0  0  0  0  0  0  0  0
  -21.0980  -13.2580   22.2300 H   0  0  0  0  0  0  0  0  0  0  0  0
  -25.3810  -15.3320   20.3400 N   0  0  0  0  0  0  0  0  0  0  0  0
  -24.6050  -15.9770   20.4450 H   0  0  0  0  0  0  0  0  0  0  0  0
  -26.2140  -15.7740   19.9740 H   0  0  0  0  0  0  0  0  0  0  0  0
  -27.7330  -24.3680   20.3290 C   0  0  0  0  0  2  0  0  0  0  0  0
  -28.1360  -25.9460   20.2060 O   0  0  0  0  0  0  0  0  0  0  0  0
  -24.6190  -31.9030   23.2270 C   0  0  0  0  0  0  0  0  0  0  0  0
  -27.1380  -27.0500   20.1780 C   0  0  0  0  0  0  0  0  0  0  0  0
  -23.4080  -30.5110   21.5980 C   0  0  0  0  0  3  0  0  0  0  0  0
  -24.8420  -28.9190   20.1580 C   0  0  0  0  0  0  0  0  0  0  0  0
  -25.9730  -30.7280   21.4270 C   0  0  0  0  0  2  0  0  0  0  0  0
  -26.0370  -29.3230   20.7690 C   0  0  0  0  0  0  0  0  0  0  0  0
  -27.1820  -28.4100   20.7560 C   0  0  0  0  0  3  0  0  0  0  0  0
  -25.9160  -26.8020   19.5110 C   0  0  0  0  0  3  0  0  0  0  0  0
  -24.8050  -27.6780   19.5080 C   0  0  0  0  0  3  0  0  0  0  0  0
  -23.6230  -29.8360   20.2170 C   0  0  0  0  0  2  0  0  0  0  0  0
  -24.6890  -31.0730   22.1380 N   0  0  0  0  0  0  0  0  0  0  0  0
  -23.5360  -32.1910   23.7600 O   0  0  0  0  0  0  0  0  0  0  0  0
  -22.7260  -29.5100   22.5660 C   0  0  0  0  0  0  0  0  0  0  0  0
  -21.3970  -29.3340   22.4450 N   0  0  0  0  0  0  0  0  0  0  0  0
  -23.3980  -28.8910   23.3960 O   0  0  0  0  0  0  0  0  0  0  0  0
  -20.9070  -29.8840   21.7530 H   0  0  0  0  0  0  0  0  0  0  0  0
  -18.0260  -28.0950   22.9570 C   0  0  0  0  0  0  0  0  0  0  0  0
  -20.5830  -28.3930   23.2220 C   0  0  0  0  0  3  0  0  0  0  0  0
  -20.7010  -26.9580   22.6590 C   0  0  0  0  0  2  0  0  0  0  0  0
  -19.6050  -26.6140   21.6470 C   0  0  0  0  0  2  0  0  0  0  0  0
  -18.2210  -26.7440   22.2890 C   0  0  0  0  0  2  0  0  0  0  0  0
  -19.1340  -28.8750   23.3810 C   0  0  0  0  0  0  0  0  0  0  0  0
  -18.8960  -30.1360   23.9710 C   0  0  0  0  0  3  0  0  0  0  0  0
  -17.5850  -30.6180   24.1380 C   0  0  0  0  0  3  0  0  0  0  0  0
  -16.4910  -29.8340   23.7280 C   0  0  0  0  0  3  0  0  0  0  0  0
  -16.7120  -28.5740   23.1440 C   0  0  0  0  0  3  0  0  0  0  0  0
  -25.8970  -32.5430   23.8470 C   0  0  0  0  0  3  0  0  0  0  0  0
  -25.5850  -33.9440   24.1810 N   0  0  0  0  0  0  0  0  0  0  0  0
  -25.9060  -35.0030   23.4260 C   0  0  0  0  0  0  0  0  0  0  0  0
  -26.5590  -34.9030   22.3840 O   0  0  0  0  0  0  0  0  0  0  0  0
  -25.0010  -34.0940   24.9910 H   0  0  0  0  0  0  0  0  0  0  0  0
  -24.1760  -36.8060   23.1120 C   0  0  0  0  0  1  0  0  0  0  0  0
  -25.4300  -36.3920   23.8990 C   0  0  0  0  0  3  0  0  0  0  0  0
  -27.5750  -37.2770   24.7030 C   0  0  0  0  0  1  0  0  0  0  0  0
  -26.4620  -37.4430   23.7720 N   0  0  0  0  0  0  0  0  0  0  0  0
  -26.0590  -38.3650   23.9220 H   0  0  0  0  0  0  0  0  0  0  0  0
  -26.4110  -31.7790   25.1300 C   0  0  1  0  0  0  0  0  0  0  0  0
  -25.3180  -31.5550   26.2020 C   0  0  0  0  0  1  0  0  0  0  0  0
  -26.9890  -30.3960   24.7570 C   0  0  0  0  0  1  0  0  0  0  0  0
  -27.5660  -32.5750   25.7850 C   0  0  0  0  0  1  0  0  0  0  0  0
  1  4  1  0
  3  1  2  0
  3  5  1  0
  4 53  1  0
  4  2  2  0
  5 11  2  0
  6  9  1  0
  6 12  1  0
  6  3  1  0
  7  5  1  0
  7 23  1  0
  8 10  1  0
  8  7  1  0
 11  2  1  0
 12 13  1  0
 12  8  1  0
 14 12  1  0
 16 21  1  0
 17 18  1  0
 17 16  1  0
 19 18  1  0
 19 28  1  0
 19 20  1  0
 21 15  1  0
 21 20  1  0
 22 15  2  0
 23 15  1  0
 23 24  1  0
 25 26  2  0
 26 45  1  0
 27 26  1  0
 27 30  1  0
 28 25  1  0
 28 29  1  0
 29 27  2  0
 30 31  1  0
 31 32  2  0
 33 36  1  0
 33 32  1  0
 34 33  2  0
 35 34  1  0
 35 30  2  0
 36 37  1  0
 37 38  1  0
 38 39  2  0
 40 39  1  0
 40 44  1  0
 41 40  2  0
 42 37  2  0
 42 41  1  0
 43 42  1  0
 45 46  1  0
 46 49  1  0
 46 48  1  0
 47 45  2  0
 50 51  1  0
 50 25  1  0
 52 50  1  0
 54 53  1  0
 55 66  2  0
 56 54  1  0
 56 61  1  0
 57 65  1  0
 57 67  1  0
 58 64  1  0
 58 60  1  0
 59 65  1  0
 60 59  1  0
 61 60  2  0
 62 56  2  0
 63 62  1  0
 63 58  2  0
 64 57  1  0
 65 55  1  0
 67 69  2  0
 68 67  1  0
 70 68  1  0
 71 80  2  0
 71 76  1  0
 72 68  1  0
 72 76  1  0
 73 72  1  0
 74 75  1  0
 74 73  1  0
 75 71  1  0
 76 77  2  0
 77 78  1  0
 79 78  2  0
 80 79  1  0
 81 55  1  0
 81 82  1  0
 81 91  1  0
 82 85  1  0
 83 87  1  0
 83 82  1  0
 84 83  2  0
 87 86  1  0
 89 87  1  0
 89 90  1  0
 89 88  1  0
 91 94  1  1
 91 92  1  0
 93 91  1  0
M  ISO  4  15 100  23 100  53 101  54 101
M  END
>  <TORSDO>  (84) 
F 17

>  <SCORE>  (84) 
-15.780

>  <name>  (84) 
83

>  <ligand_id>  (84) 
83

>  <original_smiles>  (84) 
[H]c1nc2c(c([H])c1C([H])([H])Oc1c([H])c([H])c3c(c1[H])C([H])([H])N(C(=O)C([H])(N([H])C(=O)C([H])(N([H])C([H])([H])[H])C([H])([H])[H])C(C([H])([H])[H])(C([H])([H])[H])C([H])([H])[H])C([H])(C(=O)N([H])C1([H])c4c([H])c([H])c([H])c([H])c4C([H])([H])C([H])([H])C1([H])[H])C3([H])[H])C([H])(C([H])([H])[H])[N+]([H])([H])C([H])(C([H])([H])[H])C2([H])N([H])C(=O)N1C([H])([H])C([H])([H])C([H])([H])C([H])(n2nc(-c3c([H])c([H])c(Oc4c([H])c([H])c(F)c([H])c4F)c([H])c3[H])c(C(=O)N([H])[H])c2N([H])[H])C1([H])[H]

>  <smiles>  (84) 
[H]c1nc2c(c([H])c1C([H])([H])Oc1c([H])c([H])c3c(c1[H])C([H])([H])N(C(=O)C([H])(N([H])C(=O)C([H])(N([H])C([H])([H])[H])C([H])([H])[H])C(C([H])([H])[H])(C([H])([H])[H])C([H])([H])[H])C([H])(C(=O)N([H])C1([H])c4c([H])c([H])c([H])c([H])c4C([H])([H])C([H])([H])C1([H])[H])C3([H])[H])C([H])(C([H])([H])[H])[N+]([H])([H])C([H])(C([H])([H])[H])C2([H])N([H])C(=O)N1C([H])([H])C([H])([H])C([H])([H])C([H])(n2nc(-c3c([H])c([H])c(Oc4c([H])c([H])c(F)c([H])c4F)c([H])c3[H])c(C(=O)N([H])[H])c2N([H])[H])C1([H])[H]

$$$$
84:0:0
     RDKit          3D

 90 99  0  0  1  0  0  0  0  0999 V2000
  -29.4190  -22.1460   21.1910 C   0  0  0  0  0  3  0  0  0  0  0  0
  -29.7850  -20.7090   21.1520 C   0  0  0  0  0  0  0  0  0  0  0  0
  -29.2910  -19.7170   20.2540 C   0  0  0  0  0  0  0  0  0  0  0  0
  -28.5020  -22.7870   20.2590 C   0  0  0  0  0  0  0  0  0  0  0  0
  -28.3920  -20.4090   19.3490 C   0  0  0  0  0  0  0  0  0  0  0  0
  -30.8130  -20.0310   22.0360 C   0  0  0  0  0  2  0  0  0  0  0  0
  -30.8360  -18.4950   21.6880 C   0  0  0  0  0  2  0  0  0  0  0  0
  -30.0720  -18.1880   20.3650 C   0  0  0  0  0  3  0  0  0  0  0  0
  -27.7590  -19.6260   18.2190 C   0  0  0  0  0  1  0  0  0  0  0  0
  -28.0350  -21.7910   19.3820 N   0  0  0  0  0  0  0  0  0  0  0  0
  -30.4200  -15.3080   20.2160 C   0  0  0  0  0  0  0  0  0  0  0  0
  -30.3670  -12.8770   19.3310 C   0  0  0  0  0  2  0  0  0  0  0  0
  -29.4240  -12.6800   18.1190 C   0  0  0  0  0  2  0  0  0  0  0  0
  -27.9840  -12.4100   18.5880 C   0  0  0  0  0  2  0  0  0  0  0  0
  -27.5540  -13.3680   19.7270 C   0  0  0  0  0  3  0  0  0  0  0  0
  -28.6240  -13.5160   20.8290 C   0  0  0  0  0  2  0  0  0  0  0  0
  -29.8410  -14.0130   20.1690 N   0  0  0  0  0  0  0  0  0  0  0  0
  -31.6370  -15.3040   19.9790 O   0  0  0  0  0  0  0  0  0  0  0  0
  -29.6750  -16.5790   20.3280 N   0  0  0  0  0  0  0  0  0  0  0  0
  -28.6860  -16.4190   20.4430 H   0  0  0  0  0  0  0  0  0  0  0  0
  -25.2020  -13.9110   20.5490 C   0  0  0  0  0  0  0  0  0  0  0  0
  -24.1490  -13.1260   20.9290 C   0  0  0  0  0  0  0  0  0  0  0  0
  -24.6150  -11.7770   20.8600 C   0  0  0  0  0  0  0  0  0  0  0  0
  -26.2390  -13.0420   20.2640 N   0  0  0  0  0  0  0  0  0  0  0  0
  -25.9000  -11.7500   20.5180 N   0  0  0  0  0  0  0  0  0  0  0  0
  -23.8930  -10.5110   21.0410 C   0  0  0  0  0  0  0  0  0  0  0  0
  -24.3250   -9.5380   21.9690 C   0  0  0  0  0  3  0  0  0  0  0  0
  -23.5990   -8.3390   22.1390 C   0  0  0  0  0  3  0  0  0  0  0  0
  -22.4260   -8.1040   21.3810 C   0  0  0  0  0  0  0  0  0  0  0  0
  -22.0140   -9.0660   20.4420 C   0  0  0  0  0  3  0  0  0  0  0  0
  -22.7410  -10.2560   20.2690 C   0  0  0  0  0  3  0  0  0  0  0  0
  -21.6720   -6.9590   21.4610 O   0  0  0  0  0  0  0  0  0  0  0  0
  -21.5950   -6.2280   22.6190 C   0  0  0  0  0  0  0  0  0  0  0  0
  -21.1040   -6.7850   23.8200 C   0  0  0  0  0  3  0  0  0  0  0  0
  -20.9760   -5.9800   24.9690 C   0  0  0  0  0  3  0  0  0  0  0  0
  -21.3260   -4.6180   24.9170 C   0  0  0  0  0  0  0  0  0  0  0  0
  -21.8090   -4.0590   23.7210 C   0  0  0  0  0  3  0  0  0  0  0  0
  -21.9400   -4.8620   22.5740 C   0  0  0  0  0  0  0  0  0  0  0  0
  -22.3850   -4.3140   21.4180 F   0  0  0  0  0  0  0  0  0  0  0  0
  -21.1960   -3.8410   26.0190 F   0  0  0  0  0  0  0  0  0  0  0  0
  -22.7580  -13.5970   21.2370 C   0  0  0  0  0  0  0  0  0  0  0  0
  -22.0490  -12.8880   22.1070 N   0  0  0  0  0  0  0  0  0  0  0  0
  -22.3100  -14.6310   20.7420 O   0  0  0  0  0  0  0  0  0  0  0  0
  -22.4260  -12.0510   22.5290 H   0  0  0  0  0  0  0  0  0  0  0  0
  -21.1160  -13.1850   22.3560 H   0  0  0  0  0  0  0  0  0  0  0  0
  -25.3560  -15.2850   20.3930 N   0  0  0  0  0  0  0  0  0  0  0  0
  -24.5840  -15.9310   20.5230 H   0  0  0  0  0  0  0  0  0  0  0  0
  -26.1820  -15.7280   20.0130 H   0  0  0  0  0  0  0  0  0  0  0  0
  -27.7200  -24.3500   20.2980 C   0  0  0  0  0  2  0  0  0  0  0  0
  -28.1380  -25.9320   20.3410 O   0  0  0  0  0  0  0  0  0  0  0  0
  -24.6340  -31.9450   23.2530 C   0  0  0  0  0  0  0  0  0  0  0  0
  -27.1520  -27.0440   20.2750 C   0  0  0  0  0  0  0  0  0  0  0  0
  -23.4300  -30.5480   21.6260 C   0  0  0  0  0  3  0  0  0  0  0  0
  -24.8670  -28.9320   20.2140 C   0  0  0  0  0  0  0  0  0  0  0  0
  -25.9980  -30.7450   21.4770 C   0  0  0  0  0  2  0  0  0  0  0  0
  -26.0590  -29.3330   20.8320 C   0  0  0  0  0  0  0  0  0  0  0  0
  -27.1970  -28.4110   20.8380 C   0  0  0  0  0  3  0  0  0  0  0  0
  -25.9300  -26.7980   19.6040 C   0  0  0  0  0  3  0  0  0  0  0  0
  -24.8280  -27.6840   19.5790 C   0  0  0  0  0  3  0  0  0  0  0  0
  -23.6550  -29.8580   20.2530 C   0  0  0  0  0  2  0  0  0  0  0  0
  -24.7090  -31.1060   22.1710 N   0  0  0  0  0  0  0  0  0  0  0  0
  -23.5470  -32.2460   23.7730 O   0  0  0  0  0  0  0  0  0  0  0  0
  -22.7300  -29.5610   22.5960 C   0  0  0  0  0  0  0  0  0  0  0  0
  -21.4000  -29.3970   22.4650 N   0  0  0  0  0  0  0  0  0  0  0  0
  -23.3890  -28.9420   23.4350 O   0  0  0  0  0  0  0  0  0  0  0  0
  -20.9220  -29.9460   21.7650 H   0  0  0  0  0  0  0  0  0  0  0  0
  -18.0100  -28.2080   22.9720 C   0  0  0  0  0  0  0  0  0  0  0  0
  -20.5700  -28.4710   23.2420 C   0  0  0  0  0  3  0  0  0  0  0  0
  -20.6700  -27.0320   22.6850 C   0  0  0  0  0  2  0  0  0  0  0  0
  -19.5700  -26.7010   21.6690 C   0  0  0  0  0  2  0  0  0  0  0  0
  -18.1860  -26.8530   22.3070 C   0  0  0  0  0  2  0  0  0  0  0  0
  -19.1290  -28.9740   23.3970 C   0  0  0  0  0  0  0  0  0  0  0  0
  -18.9070  -30.2390   23.9820 C   0  0  0  0  0  3  0  0  0  0  0  0
  -17.6010  -30.7400   24.1440 C   0  0  0  0  0  3  0  0  0  0  0  0
  -16.4980  -29.9720   23.7330 C   0  0  0  0  0  3  0  0  0  0  0  0
  -16.7020  -28.7070   23.1540 C   0  0  0  0  0  3  0  0  0  0  0  0
  -25.9100  -32.5830   23.8810 C   0  0  0  0  0  3  0  0  0  0  0  0
  -25.6000  -33.9850   24.2120 N   0  0  0  0  0  0  0  0  0  0  0  0
  -25.9090  -35.0400   23.4470 C   0  0  0  0  0  0  0  0  0  0  0  0
  -26.5480  -34.9370   22.3970 O   0  0  0  0  0  0  0  0  0  0  0  0
  -25.0330  -34.1380   25.0330 H   0  0  0  0  0  0  0  0  0  0  0  0
  -24.1600  -36.8290   23.1590 C   0  0  0  0  0  1  0  0  0  0  0  0
  -25.4350  -36.4300   23.9200 C   0  0  0  0  0  3  0  0  0  0  0  0
  -27.5950  -37.3340   24.6620 C   0  0  0  0  0  1  0  0  0  0  0  0
  -26.4570  -37.4880   23.7600 N   0  0  0  0  0  0  0  0  0  0  0  0
  -26.0530  -38.4070   23.9160 H   0  0  0  0  0  0  0  0  0  0  0  0
  -26.4130  -31.8200   25.1690 C   0  0  1  0  0  0  0  0  0  0  0  0
  -25.3120  -31.5980   26.2320 C   0  0  0  0  0  1  0  0  0  0  0  0
  -26.9920  -30.4340   24.8010 C   0  0  0  0  0  1  0  0  0  0  0  0
  -27.5640  -32.6130   25.8320 C   0  0  0  0  0  1  0  0  0  0  0  0
  2  1  1  0
  2  6  1  0
  3  8  1  0
  3  2  2  0
  4 49  1  0
  4  1  2  0
  5 10  2  0
  5  3  1  0
  7  6  1  0
  8 19  1  0
  8  7  1  0
  9  5  1  0
 10  4  1  0
 11 19  1  0
 12 17  1  0
 13 14  1  0
 13 12  1  0
 15 14  1  0
 15 24  1  0
 15 16  1  0
 17 11  1  0
 17 16  1  0
 18 11  2  0
 19 20  1  0
 21 22  2  0
 22 41  1  0
 23 22  1  0
 23 26  1  0
 24 25  1  0
 24 21  1  0
 25 23  2  0
 26 27  1  0
 27 28  2  0
 29 32  1  0
 29 28  1  0
 30 29  2  0
 31 30  1  0
 31 26  2  0
 32 33  1  0
 33 34  1  0
 34 35  2  0
 36 35  1  0
 36 40  1  0
 37 36  2  0
 38 33  2  0
 38 37  1  0
 39 38  1  0
 41 42  1  0
 42 45  1  0
 42 44  1  0
 43 41  2  0
 46 47  1  0
 46 21  1  0
 48 46  1  0
 49 50  1  0
 51 62  2  0
 52 50  1  0
 52 57  1  0
 53 61  1  0
 53 63  1  0
 54 60  1  0
 54 56  1  0
 55 61  1  0
 56 57  2  0
 56 55  1  0
 58 52  2  0
 59 58  1  0
 59 54  2  0
 60 53  1  0
 61 51  1  0
 63 65  2  0
 64 63  1  0
 66 64  1  0
 67 76  2  0
 67 72  1  0
 68 64  1  0
 68 72  1  0
 69 68  1  0
 70 71  1  0
 70 69  1  0
 71 67  1  0
 72 73  2  0
 73 74  1  0
 75 74  2  0
 76 75  1  0
 77 51  1  0
 77 78  1  0
 77 87  1  0
 78 81  1  0
 79 83  1  0
 79 78  1  0
 80 79  2  0
 83 82  1  0
 85 86  1  0
 85 83  1  0
 85 84  1  0
 87 90  1  1
 87 88  1  0
 89 87  1  0
M  ISO  4  11 100  19 100  49 101  50 101
M  END
>  <TORSDO>  (85) 
F 17

>  <SCORE>  (85) 
-15.980

>  <name>  (85) 
84

>  <ligand_id>  (85) 
84

>  <original_smiles>  (85) 
[H]c1c([H])c([H])c2c(c1[H])C([H])([H])C([H])([H])C([H])([H])C2([H])N([H])C(=O)C1([H])N(C(=O)C([H])(N([H])C(=O)C([H])(N([H])C([H])([H])[H])C([H])([H])[H])C(C([H])([H])[H])(C([H])([H])[H])C([H])([H])[H])C([H])([H])c2c([H])c(OC([H])([H])c3nc(C([H])([H])[H])c4c(c3[H])C([H])([H])C([H])([H])C4([H])N([H])C(=O)N3C([H])([H])C([H])([H])C([H])([H])C([H])(n4nc(-c5c([H])c([H])c(Oc6c([H])c([H])c(F)c([H])c6F)c([H])c5[H])c(C(=O)N([H])[H])c4N([H])[H])C3([H])[H])c([H])c([H])c2C1([H])[H]

>  <smiles>  (85) 
[H]c1c([H])c([H])c2c(c1[H])C([H])([H])C([H])([H])C([H])([H])C2([H])N([H])C(=O)C1([H])N(C(=O)C([H])(N([H])C(=O)C([H])(N([H])C([H])([H])[H])C([H])([H])[H])C(C([H])([H])[H])(C([H])([H])[H])C([H])([H])[H])C([H])([H])c2c([H])c(OC([H])([H])c3nc(C([H])([H])[H])c4c(c3[H])C([H])([H])C([H])([H])C4([H])N([H])C(=O)N3C([H])([H])C([H])([H])C([H])([H])C([H])(n4nc(-c5c([H])c([H])c(Oc6c([H])c([H])c(F)c([H])c6F)c([H])c5[H])c(C(=O)N([H])[H])c4N([H])[H])C3([H])[H])c([H])c([H])c2C1([H])[H]

$$$$
85:0:0
     RDKit          3D

 92101  0  0  1  0  0  0  0  0999 V2000
  -28.9800  -22.1560   19.0900 C   0  0  0  0  0  3  0  0  0  0  0  0
  -29.0280  -22.6260   21.3920 C   0  0  0  0  0  3  0  0  0  0  0  0
  -28.7990  -23.1870   20.1000 C   0  0  0  0  0  0  0  0  0  0  0  0
  -29.3230  -20.7540   19.3640 C   0  0  0  0  0  0  0  0  0  0  0  0
  -29.5050  -20.3390   20.7060 C   0  0  0  0  0  0  0  0  0  0  0  0
  -29.7990  -18.8170   21.0620 C   0  0  0  0  0  0  0  0  0  0  0  0
  -29.4170  -18.2810   18.6140 C   0  0  0  0  0  2  0  0  0  0  0  0
  -30.1360  -17.7320   19.9020 C   0  0  0  0  0  3  0  0  0  0  0  0
  -29.3600  -21.3090   21.6770 N   0  0  0  0  0  0  0  0  0  0  0  0
  -29.4680  -19.7620   18.3490 N   0  0  0  0  0  0  0  0  0  0  0  0
  -29.7850  -18.4340   22.2400 O   0  0  0  0  0  0  0  0  0  0  0  0
  -29.3130  -20.0490   17.3830 H   0  0  0  0  0  0  0  0  0  0  0  0
  -30.7360  -15.0050   19.9120 C   0  0  0  0  0  0  0  0  0  0  0  0
  -30.5900  -12.6470   18.9860 C   0  0  0  0  0  2  0  0  0  0  0  0
  -29.5850  -12.5950   17.8110 C   0  0  0  0  0  2  0  0  0  0  0  0
  -28.1530  -12.3640   18.3290 C   0  0  0  0  0  2  0  0  0  0  0  0
  -27.8080  -13.2810   19.5320 C   0  0  0  0  0  3  0  0  0  0  0  0
  -28.9300  -13.3060   20.5930 C   0  0  0  0  0  2  0  0  0  0  0  0
  -30.1590  -13.7330   19.9140 N   0  0  0  0  0  0  0  0  0  0  0  0
  -31.9020  -15.0920   19.5140 O   0  0  0  0  0  0  0  0  0  0  0  0
  -29.9580  -16.1690   20.1600 N   0  0  0  0  0  0  0  0  0  0  0  0
  -29.0420  -15.9470   20.5190 H   0  0  0  0  0  0  0  0  0  0  0  0
  -25.4900  -13.8340   20.4630 C   0  0  0  0  0  0  0  0  0  0  0  0
  -24.4490  -13.0480   20.8720 C   0  0  0  0  0  0  0  0  0  0  0  0
  -24.9000  -11.6970   20.7460 C   0  0  0  0  0  0  0  0  0  0  0  0
  -26.5070  -12.9640   20.1080 N   0  0  0  0  0  0  0  0  0  0  0  0
  -26.1650  -11.6700   20.3430 N   0  0  0  0  0  0  0  0  0  0  0  0
  -24.1770  -10.4310   20.9280 C   0  0  0  0  0  0  0  0  0  0  0  0
  -24.5910   -9.4750   21.8800 C   0  0  0  0  0  3  0  0  0  0  0  0
  -23.8670   -8.2750   22.0500 C   0  0  0  0  0  3  0  0  0  0  0  0
  -22.7150   -8.0230   21.2680 C   0  0  0  0  0  0  0  0  0  0  0  0
  -22.3210   -8.9690   20.3050 C   0  0  0  0  0  3  0  0  0  0  0  0
  -23.0460  -10.1590   20.1330 C   0  0  0  0  0  3  0  0  0  0  0  0
  -21.9650   -6.8740   21.3470 O   0  0  0  0  0  0  0  0  0  0  0  0
  -21.7790   -6.2170   22.5360 C   0  0  0  0  0  0  0  0  0  0  0  0
  -21.1770   -6.8440   23.6480 C   0  0  0  0  0  3  0  0  0  0  0  0
  -20.9400   -6.1100   24.8280 C   0  0  0  0  0  3  0  0  0  0  0  0
  -21.2960   -4.7490   24.8950 C   0  0  0  0  0  0  0  0  0  0  0  0
  -21.8920   -4.1220   23.7870 C   0  0  0  0  0  3  0  0  0  0  0  0
  -22.1290   -4.8520   22.6100 C   0  0  0  0  0  0  0  0  0  0  0  0
  -22.6830   -4.2380   21.5370 F   0  0  0  0  0  0  0  0  0  0  0  0
  -21.0640   -4.0430   26.0250 F   0  0  0  0  0  0  0  0  0  0  0  0
  -23.0780  -13.5190   21.2610 C   0  0  0  0  0  0  0  0  0  0  0  0
  -22.4130  -12.7970   22.1550 N   0  0  0  0  0  0  0  0  0  0  0  0
  -22.6100  -14.5620   20.8090 O   0  0  0  0  0  0  0  0  0  0  0  0
  -22.8080  -11.9530   22.5430 H   0  0  0  0  0  0  0  0  0  0  0  0
  -21.4950  -13.0930   22.4580 H   0  0  0  0  0  0  0  0  0  0  0  0
  -25.6500  -15.2110   20.3360 N   0  0  0  0  0  0  0  0  0  0  0  0
  -24.8890  -15.8570   20.5170 H   0  0  0  0  0  0  0  0  0  0  0  0
  -26.4550  -15.6580   19.9170 H   0  0  0  0  0  0  0  0  0  0  0  0
  -28.0550  -24.6500   19.8230 C   0  0  0  0  0  2  0  0  0  0  0  0
  -28.3820  -26.1120   20.2780 O   0  0  0  0  0  0  0  0  0  0  0  0
  -24.7930  -31.8200   23.3170 C   0  0  0  0  0  0  0  0  0  0  0  0
  -27.3670  -27.1480   20.1900 C   0  0  0  0  0  0  0  0  0  0  0  0
  -23.6040  -30.4770   21.6280 C   0  0  0  0  0  3  0  0  0  0  0  0
  -25.0590  -28.9360   20.1750 C   0  0  0  0  0  0  0  0  0  0  0  0
  -26.1640  -30.7180   21.5070 C   0  0  0  0  0  2  0  0  0  0  0  0
  -26.2350  -29.3430   20.8170 C   0  0  0  0  0  0  0  0  0  0  0  0
  -27.3880  -28.4660   20.8140 C   0  0  0  0  0  3  0  0  0  0  0  0
  -26.1710  -26.8670   19.4890 C   0  0  0  0  0  3  0  0  0  0  0  0
  -25.0420  -27.7120   19.4950 C   0  0  0  0  0  3  0  0  0  0  0  0
  -23.8380  -29.8390   20.2340 C   0  0  0  0  0  2  0  0  0  0  0  0
  -24.8730  -31.0260   22.2050 N   0  0  0  0  0  0  0  0  0  0  0  0
  -23.7010  -32.0990   23.8380 O   0  0  0  0  0  0  0  0  0  0  0  0
  -22.9050  -29.4490   22.5550 C   0  0  0  0  0  0  0  0  0  0  0  0
  -21.5810  -29.2750   22.3920 N   0  0  0  0  0  0  0  0  0  0  0  0
  -23.5580  -28.8110   23.3840 O   0  0  0  0  0  0  0  0  0  0  0  0
  -21.1110  -29.8430   21.7000 H   0  0  0  0  0  0  0  0  0  0  0  0
  -18.1920  -28.0580   22.7950 C   0  0  0  0  0  0  0  0  0  0  0  0
  -20.7430  -28.3230   23.1260 C   0  0  0  0  0  3  0  0  0  0  0  0
  -20.8620  -26.9010   22.5290 C   0  0  0  0  0  2  0  0  0  0  0  0
  -19.7840  -26.5930   21.4840 C   0  0  0  0  0  2  0  0  0  0  0  0
  -18.3880  -26.7230   22.0980 C   0  0  0  0  0  2  0  0  0  0  0  0
  -19.2980  -28.8160   23.2640 C   0  0  0  0  0  0  0  0  0  0  0  0
  -19.0590  -30.0660   23.8770 C   0  0  0  0  0  3  0  0  0  0  0  0
  -17.7490  -30.5570   24.0250 C   0  0  0  0  0  3  0  0  0  0  0  0
  -16.6580  -29.7970   23.5720 C   0  0  0  0  0  3  0  0  0  0  0  0
  -16.8790  -28.5490   22.9630 C   0  0  0  0  0  3  0  0  0  0  0  0
  -26.0660  -32.4300   23.9750 C   0  0  0  0  0  3  0  0  0  0  0  0
  -25.7730  -33.8350   24.3040 N   0  0  0  0  0  0  0  0  0  0  0  0
  -26.1040  -34.8830   23.5400 C   0  0  0  0  0  0  0  0  0  0  0  0
  -26.7550  -34.7710   22.4970 O   0  0  0  0  0  0  0  0  0  0  0  0
  -25.1940  -33.9960   25.1150 H   0  0  0  0  0  0  0  0  0  0  0  0
  -24.3760  -36.6880   23.2300 C   0  0  0  0  0  1  0  0  0  0  0  0
  -25.6400  -36.2800   24.0030 C   0  0  0  0  0  3  0  0  0  0  0  0
  -27.8020  -37.1630   24.7650 C   0  0  0  0  0  1  0  0  0  0  0  0
  -26.6750  -37.3250   23.8490 N   0  0  0  0  0  0  0  0  0  0  0  0
  -26.2770  -38.2500   23.9970 H   0  0  0  0  0  0  0  0  0  0  0  0
  -26.5310  -31.6500   25.2680 C   0  0  1  0  0  0  0  0  0  0  0  0
  -25.4010  -31.4320   26.3020 C   0  0  0  0  0  1  0  0  0  0  0  0
  -27.1010  -30.2610   24.8990 C   0  0  0  0  0  1  0  0  0  0  0  0
  -27.6740  -32.4250   25.9640 C   0  0  0  0  0  1  0  0  0  0  0  0
  1  4  2  0
  1  3  1  0
  2  9  1  0
  3  2  2  0
  4  5  1  0
  5  6  1  0
  5  9  2  0
  6 11  2  0
  7  8  1  0
  8 21  1  0
  8  6  1  0
 10  7  1  0
 10  4  1  0
 12 10  1  0
 13 19  1  0
 13 21  1  0
 14 19  1  0
 15 16  1  0
 15 14  1  0
 17 16  1  0
 17 26  1  0
 17 18  1  0
 19 18  1  0
 20 13  2  0
 21 22  1  0
 23 24  2  0
 24 43  1  0
 25 24  1  0
 25 28  1  0
 26 27  1  0
 26 23  1  0
 27 25  2  0
 28 29  1  0
 29 30  2  0
 31 34  1  0
 31 30  1  0
 32 31  2  0
 33 32  1  0
 33 28  2  0
 34 35  1  0
 35 40  2  0
 35 36  1  0
 36 37  2  0
 37 38  1  0
 38 42  1  0
 39 38  2  0
 40 39  1  0
 41 40  1  0
 43 44  1  0
 44 47  1  0
 44 46  1  0
 45 43  2  0
 48 23  1  0
 48 49  1  0
 50 48  1  0
 51  3  1  0
 51 52  1  0
 53 64  2  0
 54 52  1  0
 54 59  1  0
 55 63  1  0
 55 65  1  0
 56 62  1  0
 56 58  1  0
 57 63  1  0
 58 57  1  0
 59 58  2  0
 60 61  1  0
 60 54  2  0
 61 56  2  0
 62 55  1  0
 63 53  1  0
 65 67  2  0
 66 65  1  0
 68 66  1  0
 69 78  2  0
 69 74  1  0
 70 66  1  0
 70 74  1  0
 71 70  1  0
 72 73  1  0
 72 71  1  0
 73 69  1  0
 74 75  2  0
 75 76  1  0
 77 76  2  0
 78 77  1  0
 79 53  1  0
 79 80  1  0
 79 89  1  0
 80 83  1  0
 81 85  1  0
 81 80  1  0
 82 81  2  0
 85 84  1  0
 87 88  1  0
 87 85  1  0
 87 86  1  0
 89 92  1  1
 89 90  1  0
 91 89  1  0
M  ISO  4  13 100  21 100  51 101  52 101
M  END
>  <TORSDO>  (86) 
F 17

>  <SCORE>  (86) 
-13.998

>  <name>  (86) 
85

>  <ligand_id>  (86) 
85

>  <original_smiles>  (86) 
[H]c1nc2c(c([H])c1C([H])([H])Oc1c([H])c([H])c3c(c1[H])C([H])([H])N(C(=O)C([H])(N([H])C(=O)C([H])(N([H])C([H])([H])[H])C([H])([H])[H])C(C([H])([H])[H])(C([H])([H])[H])C([H])([H])[H])C([H])(C(=O)N([H])C1([H])c4c([H])c([H])c([H])c([H])c4C([H])([H])C([H])([H])C1([H])[H])C3([H])[H])N([H])C([H])([H])C([H])(N([H])C(=O)N1C([H])([H])C([H])([H])C([H])([H])C([H])(n3nc(-c4c([H])c([H])c(Oc5c([H])c([H])c(F)c([H])c5F)c([H])c4[H])c(C(=O)N([H])[H])c3N([H])[H])C1([H])[H])C2=O

>  <smiles>  (86) 
[H]c1nc2c(c([H])c1C([H])([H])Oc1c([H])c([H])c3c(c1[H])C([H])([H])N(C(=O)C([H])(N([H])C(=O)C([H])(N([H])C([H])([H])[H])C([H])([H])[H])C(C([H])([H])[H])(C([H])([H])[H])C([H])([H])[H])C([H])(C(=O)N([H])C1([H])c4c([H])c([H])c([H])c([H])c4C([H])([H])C([H])([H])C1([H])[H])C3([H])[H])N([H])C([H])([H])C([H])(N([H])C(=O)N1C([H])([H])C([H])([H])C([H])([H])C([H])(n3nc(-c4c([H])c([H])c(Oc5c([H])c([H])c(F)c([H])c5F)c([H])c4[H])c(C(=O)N([H])[H])c3N([H])[H])C1([H])[H])C2=O

$$$$
86:0:0
     RDKit          3D

 93101  0  0  1  0  0  0  0  0999 V2000
  -29.3440  -19.6980   19.1730 C   0  0  0  0  0  2  0  0  0  0  0  0
  -29.6280  -19.1670   21.5180 C   0  0  0  0  0  2  0  0  0  0  0  0
  -28.9070  -21.8300   21.5670 C   0  0  0  0  0  2  0  0  0  0  0  0
  -30.1020  -18.4930   20.1420 C   0  0  0  0  0  3  0  0  0  0  0  0
  -29.4240  -21.4720   19.1400 C   0  0  2  0  0  0  0  0  0  0  0  0
  -28.6540  -22.6270   20.1730 C   0  0  1  0  0  0  0  0  0  0  0  0
  -27.1340  -22.5320   19.8790 C   0  0  0  0  0  1  0  0  0  0  0  0
  -31.3580  -21.0390   21.7890 C   0  0  0  0  0  1  0  0  0  0  0  0
  -29.9180  -20.6660   21.7620 N   0  0  2  0  0  4  0  0  0  0  0  0
  -28.7700  -21.6750   17.9930 F   0  0  0  0  0  0  0  0  0  0  0  0
  -29.7980  -20.6160   22.7640 H   0  0  0  0  0  0  0  0  0  0  0  0
  -30.7280  -15.5060   20.0490 C   0  0  0  0  0  0  0  0  0  0  0  0
  -30.7200  -13.0070   19.2750 C   0  0  0  0  0  2  0  0  0  0  0  0
  -29.7880  -12.7070   18.0740 C   0  0  0  0  0  2  0  0  0  0  0  0
  -28.3570  -12.4270   18.5550 C   0  0  0  0  0  2  0  0  0  0  0  0
  -27.9000  -13.4670   19.6070 C   0  0  0  0  0  3  0  0  0  0  0  0
  -28.9490  -13.6930   20.7150 C   0  0  0  0  0  2  0  0  0  0  0  0
  -30.1650  -14.1880   20.0440 N   0  0  0  0  0  0  0  0  0  0  0  0
  -31.9550  -15.4890   19.8740 O   0  0  0  0  0  0  0  0  0  0  0  0
  -29.9510  -16.7920   20.0590 N   0  0  0  0  0  0  0  0  0  0  0  0
  -28.9740  -16.5440   20.0780 H   0  0  0  0  0  0  0  0  0  0  0  0
  -25.5610  -14.0800   20.4010 C   0  0  0  0  0  0  0  0  0  0  0  0
  -24.4880  -13.3270   20.7840 C   0  0  0  0  0  0  0  0  0  0  0  0
  -24.9230  -11.9680   20.7420 C   0  0  0  0  0  0  0  0  0  0  0  0
  -26.5770  -13.1820   20.1370 N   0  0  0  0  0  0  0  0  0  0  0  0
  -26.2080  -11.9040   20.4110 N   0  0  0  0  0  0  0  0  0  0  0  0
  -24.1720  -10.7190   20.9370 C   0  0  0  0  0  0  0  0  0  0  0  0
  -24.5680   -9.7540   21.8880 C   0  0  0  0  0  3  0  0  0  0  0  0
  -23.8100   -8.5780   22.0680 C   0  0  0  0  0  3  0  0  0  0  0  0
  -22.6460   -8.3560   21.2950 C   0  0  0  0  0  0  0  0  0  0  0  0
  -22.2730   -9.3080   20.3310 C   0  0  0  0  0  3  0  0  0  0  0  0
  -23.0300  -10.4760   20.1490 C   0  0  0  0  0  3  0  0  0  0  0  0
  -21.8650   -7.2290   21.3810 O   0  0  0  0  0  0  0  0  0  0  0  0
  -21.7390   -6.5310   22.5540 C   0  0  0  0  0  0  0  0  0  0  0  0
  -21.2300   -7.1280   23.7270 C   0  0  0  0  0  3  0  0  0  0  0  0
  -21.0480   -6.3550   24.8910 C   0  0  0  0  0  3  0  0  0  0  0  0
  -21.3730   -4.9850   24.8840 C   0  0  0  0  0  0  0  0  0  0  0  0
  -21.8780   -4.3870   23.7150 C   0  0  0  0  0  3  0  0  0  0  0  0
  -22.0570   -5.1570   22.5530 C   0  0  0  0  0  0  0  0  0  0  0  0
  -22.5220   -4.5720   21.4230 F   0  0  0  0  0  0  0  0  0  0  0  0
  -21.1950   -4.2370   25.9980 F   0  0  0  0  0  0  0  0  0  0  0  0
  -23.1050  -13.8370   21.0710 C   0  0  0  0  0  0  0  0  0  0  0  0
  -22.3780  -13.1590   21.9540 N   0  0  0  0  0  0  0  0  0  0  0  0
  -22.6830  -14.8680   20.5540 O   0  0  0  0  0  0  0  0  0  0  0  0
  -22.7350  -12.3190   22.3860 H   0  0  0  0  0  0  0  0  0  0  0  0
  -21.4520  -13.4830   22.1960 H   0  0  0  0  0  0  0  0  0  0  0  0
  -25.7540  -15.4460   20.2210 N   0  0  0  0  0  0  0  0  0  0  0  0
  -25.0020  -16.1150   20.3370 H   0  0  0  0  0  0  0  0  0  0  0  0
  -26.5930  -15.8590   19.8360 H   0  0  0  0  0  0  0  0  0  0  0  0
  -31.8060  -21.3270   18.2060 C   0  0  0  0  0  2  0  0  0  0  0  0
  -30.8260  -21.9850   18.8440 C   0  0  0  0  0  3  0  0  0  0  0  0
  -28.7980  -24.4550   20.4360 C   0  0  0  0  0  2  0  0  0  0  0  0
  -28.5560  -26.0010   19.8540 O   0  0  0  0  0  0  0  0  0  0  0  0
  -24.5790  -31.6770   23.0730 C   0  0  0  0  0  0  0  0  0  0  0  0
  -27.4490  -27.0050   19.9770 C   0  0  0  0  0  0  0  0  0  0  0  0
  -23.4920  -30.2590   21.3790 C   0  0  0  0  0  3  0  0  0  0  0  0
  -25.0470  -28.7680   19.9480 C   0  0  0  0  0  0  0  0  0  0  0  0
  -26.0450  -30.6150   21.2770 C   0  0  0  0  0  2  0  0  0  0  0  0
  -26.2060  -29.2220   20.5930 C   0  0  0  0  0  0  0  0  0  0  0  0
  -27.4030  -28.3680   20.5690 C   0  0  0  0  0  3  0  0  0  0  0  0
  -26.2440  -26.7020   19.3050 C   0  0  0  0  0  3  0  0  0  0  0  0
  -25.0910  -27.5310   19.2850 C   0  0  0  0  0  3  0  0  0  0  0  0
  -23.7810  -29.6240   19.9900 C   0  0  0  0  0  2  0  0  0  0  0  0
  -24.7260  -30.8780   21.9650 N   0  0  0  0  0  0  0  0  0  0  0  0
  -23.4670  -31.8870   23.5860 O   0  0  0  0  0  0  0  0  0  0  0  0
  -22.8390  -29.2020   22.3090 C   0  0  0  0  0  0  0  0  0  0  0  0
  -21.5210  -28.9700   22.1600 N   0  0  0  0  0  0  0  0  0  0  0  0
  -23.5260  -28.5930   23.1320 O   0  0  0  0  0  0  0  0  0  0  0  0
  -21.0210  -29.5200   21.4750 H   0  0  0  0  0  0  0  0  0  0  0  0
  -18.2000  -27.5640   22.5900 C   0  0  0  0  0  0  0  0  0  0  0  0
  -20.7400  -27.9640   22.8890 C   0  0  0  0  0  3  0  0  0  0  0  0
  -20.9240  -26.5580   22.2710 C   0  0  0  0  0  2  0  0  0  0  0  0
  -19.8510  -26.2070   21.2350 C   0  0  0  0  0  2  0  0  0  0  0  0
  -18.4590  -26.2510   21.8690 C   0  0  0  0  0  2  0  0  0  0  0  0
  -19.2720  -28.3750   23.0540 C   0  0  0  0  0  0  0  0  0  0  0  0
  -18.9740  -29.6000   23.6910 C   0  0  0  0  0  3  0  0  0  0  0  0
  -17.6410  -30.0170   23.8670 C   0  0  0  0  0  3  0  0  0  0  0  0
  -16.5870  -29.2040   23.4170 C   0  0  0  0  0  3  0  0  0  0  0  0
  -16.8660  -27.9790   22.7850 C   0  0  0  0  0  3  0  0  0  0  0  0
  -25.8010  -32.3750   23.7440 C   0  0  0  0  0  3  0  0  0  0  0  0
  -25.4050  -33.7520   24.0890 N   0  0  0  0  0  0  0  0  0  0  0  0
  -25.6920  -34.8400   23.3650 C   0  0  0  0  0  0  0  0  0  0  0  0
  -26.3810  -34.7960   22.3430 O   0  0  0  0  0  0  0  0  0  0  0  0
  -24.7940  -33.8540   24.8860 H   0  0  0  0  0  0  0  0  0  0  0  0
  -23.8770  -36.5580   23.0320 C   0  0  0  0  0  1  0  0  0  0  0  0
  -25.1300  -36.1950   23.8470 C   0  0  0  0  0  3  0  0  0  0  0  0
  -27.2030  -37.1810   24.7220 C   0  0  0  0  0  1  0  0  0  0  0  0
  -26.1060  -37.3050   23.7670 N   0  0  0  0  0  0  0  0  0  0  0  0
  -25.6480  -38.2000   23.9220 H   0  0  0  0  0  0  0  0  0  0  0  0
  -26.3140  -31.6200   25.0330 C   0  0  1  0  0  0  0  0  0  0  0  0
  -25.2010  -31.3230   26.0670 C   0  0  0  0  0  1  0  0  0  0  0  0
  -26.9730  -30.2750   24.6580 C   0  0  0  0  0  1  0  0  0  0  0  0
  -27.4050  -32.4630   25.7330 C   0  0  0  0  0  1  0  0  0  0  0  0
  1  4  1  0
  2  9  1  0
  3  9  1  0
  4 20  1  0
  4  2  1  0
  5 10  1  6
  5  1  1  0
  5  6  1  0
  6  7  1  6
  6 52  1  0
  6  3  1  0
  9  8  1  0
  9 11  1  1
 12 20  1  0
 13 18  1  0
 14 15  1  0
 14 13  1  0
 16 15  1  0
 16 25  1  0
 16 17  1  0
 18 12  1  0
 18 17  1  0
 19 12  2  0
 20 21  1  0
 22 23  2  0
 23 42  1  0
 24 23  1  0
 24 27  1  0
 25 22  1  0
 25 26  1  0
 26 24  2  0
 27 28  1  0
 28 29  2  0
 30 33  1  0
 30 29  1  0
 31 30  2  0
 32 31  1  0
 32 27  2  0
 33 34  1  0
 34 35  1  0
 35 36  2  0
 37 36  1  0
 37 41  1  0
 38 37  2  0
 39 34  2  0
 39 38  1  0
 40 39  1  0
 42 43  1  0
 43 46  1  0
 43 45  1  0
 44 42  2  0
 47 48  1  0
 47 22  1  0
 49 47  1  0
 50 51  2  0
 51  5  1  0
 53 55  1  0
 53 52  1  0
 54 65  2  0
 55 60  1  0
 56 64  1  0
 56 66  1  0
 57 63  1  0
 57 59  1  0
 58 64  1  0
 59 58  1  0
 60 59  2  0
 61 55  2  0
 62 61  1  0
 62 57  2  0
 63 56  1  0
 64 54  1  0
 66 68  2  0
 67 66  1  0
 69 67  1  0
 70 79  2  0
 70 75  1  0
 71 67  1  0
 71 75  1  0
 72 71  1  0
 73 74  1  0
 73 72  1  0
 74 70  1  0
 75 76  2  0
 76 77  1  0
 78 77  2  0
 79 78  1  0
 80 54  1  0
 80 81  1  0
 80 90  1  0
 81 84  1  0
 82 86  1  0
 82 81  1  0
 83 82  2  0
 86 85  1  0
 88 86  1  0
 88 89  1  0
 88 87  1  0
 90 93  1  1
 90 91  1  0
 92 90  1  0
M  ISO  4  12 100  20 100  52 101  53 101
M  END
>  <TORSDO>  (87) 
F 18

>  <SCORE>  (87) 
-15.583

>  <name>  (87) 
86

>  <ligand_id>  (87) 
86

>  <original_smiles>  (87) 
[H]C([H])=C([H])C1(F)C([H])([H])C([H])(N([H])C(=O)N2C([H])([H])C([H])([H])C([H])([H])C([H])(n3nc(-c4c([H])c([H])c(Oc5c([H])c([H])c(F)c([H])c5F)c([H])c4[H])c(C(=O)N([H])[H])c3N([H])[H])C2([H])[H])C([H])([H])[N+]([H])(C([H])([H])[H])C([H])([H])C1(C([H])([H])[H])C([H])([H])Oc1c([H])c([H])c2c(c1[H])C([H])([H])N(C(=O)C([H])(N([H])C(=O)C([H])(N([H])C([H])([H])[H])C([H])([H])[H])C(C([H])([H])[H])(C([H])([H])[H])C([H])([H])[H])C([H])(C(=O)N([H])C1([H])c3c([H])c([H])c([H])c([H])c3C([H])([H])C([H])([H])C1([H])[H])C2([H])[H]

>  <smiles>  (87) 
[H]C([H])=C([H])C1(F)C([H])([H])C([H])(N([H])C(=O)N2C([H])([H])C([H])([H])C([H])([H])C([H])(n3nc(-c4c([H])c([H])c(Oc5c([H])c([H])c(F)c([H])c5F)c([H])c4[H])c(C(=O)N([H])[H])c3N([H])[H])C2([H])[H])C([H])([H])[N+]([H])(C([H])([H])[H])C([H])([H])C1(C([H])([H])[H])C([H])([H])Oc1c([H])c([H])c2c(c1[H])C([H])([H])N(C(=O)C([H])(N([H])C(=O)C([H])(N([H])C([H])([H])[H])C([H])([H])[H])C(C([H])([H])[H])(C([H])([H])[H])C([H])([H])[H])C([H])(C(=O)N([H])C1([H])c3c([H])c([H])c([H])c([H])c3C([H])([H])C([H])([H])C1([H])[H])C2([H])[H]

$$$$
87:0:0
     RDKit          3D

 92101  0  0  1  0  0  0  0  0999 V2000
  -30.1800  -21.0170   18.2010 C   0  0  0  0  0  3  0  0  0  0  0  0
  -29.4280  -20.5090   19.3420 C   0  0  0  0  0  3  0  0  0  0  0  0
  -30.3170  -22.4510   18.0910 C   0  0  0  0  0  0  0  0  0  0  0  0
  -28.8220  -22.9920   19.7700 C   0  0  0  0  0  0  0  0  0  0  0  0
  -31.1470  -23.2080   17.0560 C   0  0  0  0  0  1  0  0  0  0  0  0
  -28.7280  -21.5830   20.0440 N   0  0  0  0  0  0  0  0  0  0  0  0
  -29.6760  -23.3570   18.8450 N   0  0  0  0  0  0  0  0  0  0  0  0
  -30.4340  -15.1710   20.0830 C   0  0  0  0  0  0  0  0  0  0  0  0
  -30.3090  -12.7310   19.3110 C   0  0  0  0  0  2  0  0  0  0  0  0
  -29.3740  -12.5840   18.0920 C   0  0  0  0  0  2  0  0  0  0  0  0
  -27.9280  -12.3420   18.5580 C   0  0  0  0  0  2  0  0  0  0  0  0
  -27.5090  -13.3050   19.6950 C   0  0  0  0  0  3  0  0  0  0  0  0
  -28.5840  -13.4530   20.7890 C   0  0  0  0  0  2  0  0  0  0  0  0
  -29.8080  -13.9010   20.1040 N   0  0  0  0  0  0  0  0  0  0  0  0
  -31.6640  -15.1060   19.9750 O   0  0  0  0  0  0  0  0  0  0  0  0
  -29.1150  -17.4020   19.0120 C   0  0  0  0  0  2  0  0  0  0  0  0
  -30.4260  -17.8300   20.5000 C   0  0  0  0  0  2  0  0  0  0  0  0
  -29.3710  -18.8200   19.7750 C   0  0  0  0  0  3  0  0  0  0  0  0
  -29.7750  -16.4950   20.0870 N   0  0  0  0  0  0  0  0  0  0  0  0
  -25.1620  -13.8620   20.5040 C   0  0  0  0  0  0  0  0  0  0  0  0
  -24.1040  -13.0890   20.8730 C   0  0  0  0  0  0  0  0  0  0  0  0
  -24.5690  -11.7370   20.8410 C   0  0  0  0  0  0  0  0  0  0  0  0
  -26.1970  -12.9890   20.2400 N   0  0  0  0  0  0  0  0  0  0  0  0
  -25.8580  -11.7030   20.5210 N   0  0  0  0  0  0  0  0  0  0  0  0
  -23.8430  -10.4740   21.0330 C   0  0  0  0  0  0  0  0  0  0  0  0
  -24.2900   -9.5040   21.9580 C   0  0  0  0  0  3  0  0  0  0  0  0
  -23.5680   -8.3070   22.1430 C   0  0  0  0  0  3  0  0  0  0  0  0
  -22.3830   -8.0700   21.4050 C   0  0  0  0  0  0  0  0  0  0  0  0
  -21.9550   -9.0270   20.4690 C   0  0  0  0  0  3  0  0  0  0  0  0
  -22.6760  -10.2160   20.2850 C   0  0  0  0  0  3  0  0  0  0  0  0
  -21.6330   -6.9230   21.4970 O   0  0  0  0  0  0  0  0  0  0  0  0
  -21.6090   -6.1690   22.6440 C   0  0  0  0  0  0  0  0  0  0  0  0
  -21.2080   -6.7110   23.8840 C   0  0  0  0  0  3  0  0  0  0  0  0
  -21.1330   -5.8830   25.0210 C   0  0  0  0  0  3  0  0  0  0  0  0
  -21.4500   -4.5150   24.9190 C   0  0  0  0  0  0  0  0  0  0  0  0
  -21.8440   -3.9730   23.6820 C   0  0  0  0  0  3  0  0  0  0  0  0
  -21.9190   -4.8000   22.5470 C   0  0  0  0  0  0  0  0  0  0  0  0
  -22.2800   -4.2690   21.3520 F   0  0  0  0  0  0  0  0  0  0  0  0
  -21.3660   -3.7170   26.0070 F   0  0  0  0  0  0  0  0  0  0  0  0
  -22.7090  -13.5570   21.1540 C   0  0  0  0  0  0  0  0  0  0  0  0
  -21.9920  -12.8610   22.0290 N   0  0  0  0  0  0  0  0  0  0  0  0
  -22.2640  -14.5790   20.6280 O   0  0  0  0  0  0  0  0  0  0  0  0
  -22.3650  -12.0320   22.4730 H   0  0  0  0  0  0  0  0  0  0  0  0
  -21.0540  -13.1540   22.2600 H   0  0  0  0  0  0  0  0  0  0  0  0
  -25.3380  -15.2360   20.3360 N   0  0  0  0  0  0  0  0  0  0  0  0
  -24.5950  -15.9160   20.4390 H   0  0  0  0  0  0  0  0  0  0  0  0
  -26.2230  -15.6390   20.0610 H   0  0  0  0  0  0  0  0  0  0  0  0
  -29.6020  -19.7490   15.9830 C   0  0  0  0  0  1  0  0  0  0  0  0
  -31.8340  -19.0810   17.2600 C   0  0  0  0  0  1  0  0  0  0  0  0
  -30.7200  -20.1620   16.9940 C   0  0  0  0  0  3  0  0  0  0  0  0
  -27.8780  -24.3280   20.2750 C   0  0  0  0  0  2  0  0  0  0  0  0
  -28.1810  -25.9290   20.1670 O   0  0  0  0  0  0  0  0  0  0  0  0
  -24.6260  -31.8460   23.2090 C   0  0  0  0  0  0  0  0  0  0  0  0
  -27.1600  -26.9980   20.1790 C   0  0  0  0  0  0  0  0  0  0  0  0
  -23.4250  -30.4430   21.5880 C   0  0  0  0  0  3  0  0  0  0  0  0
  -24.8550  -28.8370   20.1680 C   0  0  0  0  0  0  0  0  0  0  0  0
  -25.9840  -30.6620   21.4160 C   0  0  0  0  0  2  0  0  0  0  0  0
  -26.0460  -29.2560   20.7670 C   0  0  0  0  0  0  0  0  0  0  0  0
  -27.2030  -28.3560   20.7430 C   0  0  0  0  0  3  0  0  0  0  0  0
  -25.9330  -26.7190   19.5410 C   0  0  0  0  0  3  0  0  0  0  0  0
  -24.8160  -27.5820   19.5410 C   0  0  0  0  0  3  0  0  0  0  0  0
  -23.6390  -29.7580   20.2140 C   0  0  0  0  0  2  0  0  0  0  0  0
  -24.7000  -31.0100   22.1250 N   0  0  0  0  0  0  0  0  0  0  0  0
  -23.5400  -32.1360   23.7350 O   0  0  0  0  0  0  0  0  0  0  0  0
  -22.7420  -29.4490   22.5640 C   0  0  0  0  0  0  0  0  0  0  0  0
  -21.4130  -29.2800   22.4450 N   0  0  0  0  0  0  0  0  0  0  0  0
  -23.4120  -28.8340   23.3990 O   0  0  0  0  0  0  0  0  0  0  0  0
  -20.9310  -29.8310   21.7480 H   0  0  0  0  0  0  0  0  0  0  0  0
  -18.0350  -28.0580   22.9570 C   0  0  0  0  0  0  0  0  0  0  0  0
  -20.5920  -28.3430   23.2210 C   0  0  0  0  0  3  0  0  0  0  0  0
  -20.7050  -26.9080   22.6580 C   0  0  0  0  0  2  0  0  0  0  0  0
  -19.6020  -26.5660   21.6490 C   0  0  0  0  0  2  0  0  0  0  0  0
  -18.2200  -26.7070   22.2920 C   0  0  0  0  0  2  0  0  0  0  0  0
  -19.1480  -28.8340   23.3810 C   0  0  0  0  0  0  0  0  0  0  0  0
  -18.9200  -30.0980   23.9670 C   0  0  0  0  0  3  0  0  0  0  0  0
  -17.6120  -30.5860   24.1360 C   0  0  0  0  0  3  0  0  0  0  0  0
  -16.5120  -29.8120   23.7250 C   0  0  0  0  0  3  0  0  0  0  0  0
  -16.7270  -28.5500   23.1400 C   0  0  0  0  0  3  0  0  0  0  0  0
  -25.9010  -32.4890   23.8330 C   0  0  0  0  0  3  0  0  0  0  0  0
  -25.5810  -33.8860   24.1730 N   0  0  0  0  0  0  0  0  0  0  0  0
  -25.8970  -34.9510   23.4240 C   0  0  0  0  0  0  0  0  0  0  0  0
  -26.5560  -34.8610   22.3850 O   0  0  0  0  0  0  0  0  0  0  0  0
  -24.9830  -34.0310   24.9740 H   0  0  0  0  0  0  0  0  0  0  0  0
  -24.1550  -36.7500   23.1150 C   0  0  0  0  0  1  0  0  0  0  0  0
  -25.4110  -36.3370   23.8990 C   0  0  0  0  0  3  0  0  0  0  0  0
  -27.5590  -37.2360   24.6920 C   0  0  0  0  0  1  0  0  0  0  0  0
  -26.4370  -37.3980   23.7730 N   0  0  0  0  0  0  0  0  0  0  0  0
  -26.0260  -38.3170   23.9180 H   0  0  0  0  0  0  0  0  0  0  0  0
  -26.4100  -31.7260   25.1190 C   0  0  1  0  0  0  0  0  0  0  0  0
  -25.3160  -31.4980   26.1900 C   0  0  0  0  0  1  0  0  0  0  0  0
  -26.9900  -30.3410   24.7460 C   0  0  0  0  0  1  0  0  0  0  0  0
  -27.5610  -32.5230   25.7720 C   0  0  0  0  0  1  0  0  0  0  0  0
  1 50  1  0
  1  2  1  0
  2 18  1  0
  2  6  1  0
  3  1  1  0
  3  7  2  0
  4  6  2  0
  4 51  1  0
  5  3  1  0
  7  4  1  0
  8 19  1  0
  8 14  1  0
  9 14  1  0
 10 11  1  0
 10  9  1  0
 12 11  1  0
 12 23  1  0
 12 13  1  0
 14 13  1  0
 15  8  2  0
 16 19  1  0
 18 16  1  0
 18 17  1  0
 19 17  1  0
 20 21  2  0
 21 40  1  0
 22 21  1  0
 22 25  1  0
 23 20  1  0
 23 24  1  0
 24 22  2  0
 25 26  1  0
 26 27  2  0
 28 31  1  0
 28 27  1  0
 29 28  2  0
 30 29  1  0
 30 25  2  0
 31 32  1  0
 32 33  1  0
 33 34  2  0
 35 34  1  0
 35 39  1  0
 36 35  2  0
 37 32  2  0
 37 36  1  0
 38 37  1  0
 40 41  1  0
 41 44  1  0
 41 43  1  0
 42 40  2  0
 45 46  1  0
 45 20  1  0
 47 45  1  0
 48 50  1  0
 50 49  1  0
 52 54  1  0
 52 51  1  0
 53 64  2  0
 54 59  1  0
 55 63  1  0
 55 65  1  0
 56 62  1  0
 56 58  1  0
 57 63  1  0
 58 57  1  0
 59 58  2  0
 60 54  2  0
 61 60  1  0
 61 56  2  0
 62 55  1  0
 63 53  1  0
 65 67  2  0
 66 65  1  0
 68 66  1  0
 69 78  2  0
 69 74  1  0
 70 66  1  0
 70 74  1  0
 71 70  1  0
 72 73  1  0
 72 71  1  0
 73 69  1  0
 74 75  2  0
 75 76  1  0
 77 76  2  0
 78 77  1  0
 79 53  1  0
 79 80  1  0
 79 89  1  0
 80 83  1  0
 81 85  1  0
 81 80  1  0
 82 81  2  0
 85 84  1  0
 87 85  1  0
 87 88  1  0
 87 86  1  0
 89 92  1  1
 89 90  1  0
 91 89  1  0
M  ISO  4   8 100  19 100  51 101  52 101
M  END
>  <TORSDO>  (88) 
F 18

>  <SCORE>  (88) 
-15.728

>  <name>  (88) 
87

>  <ligand_id>  (88) 
87

>  <original_smiles>  (88) 
[H]c1c([H])c([H])c2c(c1[H])C([H])([H])C([H])([H])C([H])([H])C2([H])N([H])C(=O)C1([H])N(C(=O)C([H])(N([H])C(=O)C([H])(N([H])C([H])([H])[H])C([H])([H])[H])C(C([H])([H])[H])(C([H])([H])[H])C([H])([H])[H])C([H])([H])c2c([H])c(OC([H])([H])c3nc(C([H])([H])[H])c(C([H])(C([H])([H])[H])C([H])([H])[H])c(C4([H])C([H])([H])N(C(=O)N5C([H])([H])C([H])([H])C([H])([H])C([H])(n6nc(-c7c([H])c([H])c(Oc8c([H])c([H])c(F)c([H])c8F)c([H])c7[H])c(C(=O)N([H])[H])c6N([H])[H])C5([H])[H])C4([H])[H])n3)c([H])c([H])c2C1([H])[H]

>  <smiles>  (88) 
[H]c1c([H])c([H])c2c(c1[H])C([H])([H])C([H])([H])C([H])([H])C2([H])N([H])C(=O)C1([H])N(C(=O)C([H])(N([H])C(=O)C([H])(N([H])C([H])([H])[H])C([H])([H])[H])C(C([H])([H])[H])(C([H])([H])[H])C([H])([H])[H])C([H])([H])c2c([H])c(OC([H])([H])c3nc(C([H])([H])[H])c(C([H])(C([H])([H])[H])C([H])([H])[H])c(C4([H])C([H])([H])N(C(=O)N5C([H])([H])C([H])([H])C([H])([H])C([H])(n6nc(-c7c([H])c([H])c(Oc8c([H])c([H])c(F)c([H])c8F)c([H])c7[H])c(C(=O)N([H])[H])c6N([H])[H])C5([H])[H])C4([H])[H])n3)c([H])c([H])c2C1([H])[H]

$$$$
88:0:0
     RDKit          3D

 91100  0  0  1  0  0  0  0  0999 V2000
  -27.0900  -21.8120   19.2560 C   0  0  0  0  0  2  0  0  0  0  0  0
  -27.8120  -21.9950   17.9590 C   0  0  0  0  0  2  0  0  0  0  0  0
  -28.5980  -22.0410   19.2650 C   0  0  2  0  0  0  0  0  0  0  0  0
  -29.4310  -20.6700   19.5700 C   0  0  0  0  0  0  0  0  0  0  0  0
  -30.1000  -19.8170   18.6080 C   0  0  0  0  0  0  0  0  0  0  0  0
  -29.5610  -18.7510   20.9930 C   0  0  0  0  0  0  0  0  0  0  0  0
  -30.1610  -17.8750   20.0150 C   0  0  0  0  0  0  0  0  0  0  0  0
  -30.4380  -20.3360   17.2240 C   0  0  0  0  0  1  0  0  0  0  0  0
  -29.2050  -18.2380   22.3770 C   0  0  0  0  0  1  0  0  0  0  0  0
  -29.2170  -20.0730   20.7800 N   0  0  0  0  0  0  0  0  0  0  0  0
  -30.4440  -18.4790   18.8160 N   0  0  0  0  0  0  0  0  0  0  0  0
  -30.3600  -16.2890   20.3670 C   0  0  0  0  0  2  0  0  0  0  0  0
  -31.0550  -15.0340   19.5820 C   0  0  0  0  0  0  0  0  0  0  0  0
  -30.7250  -12.7880   18.4550 C   0  0  0  0  0  2  0  0  0  0  0  0
  -29.6280  -12.9170   17.3720 C   0  0  0  0  0  2  0  0  0  0  0  0
  -28.2190  -12.7500   17.9790 C   0  0  0  0  0  2  0  0  0  0  0  0
  -28.0340  -13.5820   19.2740 C   0  0  0  0  0  3  0  0  0  0  0  0
  -29.2250  -13.3910   20.2380 C   0  0  0  0  0  2  0  0  0  0  0  0
  -30.4430  -13.7890   19.5150 N   0  0  0  0  0  0  0  0  0  0  0  0
  -32.1480  -15.1690   19.0180 O   0  0  0  0  0  0  0  0  0  0  0  0
  -25.8170  -14.2230   20.3980 C   0  0  0  0  0  0  0  0  0  0  0  0
  -24.7570  -13.4740   20.8310 C   0  0  0  0  0  0  0  0  0  0  0  0
  -25.1090  -12.1120   20.5870 C   0  0  0  0  0  0  0  0  0  0  0  0
  -26.7510  -13.3180   19.9190 N   0  0  0  0  0  0  0  0  0  0  0  0
  -26.3380  -12.0340   20.0920 N   0  0  0  0  0  0  0  0  0  0  0  0
  -24.3230  -10.8810   20.7410 C   0  0  0  0  0  0  0  0  0  0  0  0
  -24.7870   -9.8000   21.5240 C   0  0  0  0  0  3  0  0  0  0  0  0
  -24.0030   -8.6350   21.6740 C   0  0  0  0  0  3  0  0  0  0  0  0
  -22.7410   -8.5430   21.0410 C   0  0  0  0  0  0  0  0  0  0  0  0
  -22.2930   -9.6110   20.2440 C   0  0  0  0  0  3  0  0  0  0  0  0
  -23.0770  -10.7680   20.0920 C   0  0  0  0  0  3  0  0  0  0  0  0
  -21.9240   -7.4400   21.1080 O   0  0  0  0  0  0  0  0  0  0  0  0
  -21.9230   -6.6100   22.2000 C   0  0  0  0  0  0  0  0  0  0  0  0
  -21.6660   -7.0930   23.5020 C   0  0  0  0  0  3  0  0  0  0  0  0
  -21.6060   -6.1940   24.5860 C   0  0  0  0  0  3  0  0  0  0  0  0
  -21.7940   -4.8170   24.3710 C   0  0  0  0  0  0  0  0  0  0  0  0
  -22.0440   -4.3330   23.0750 C   0  0  0  0  0  3  0  0  0  0  0  0
  -22.1050   -5.2280   21.9920 C   0  0  0  0  0  0  0  0  0  0  0  0
  -22.3260   -4.7550   20.7420 F   0  0  0  0  0  0  0  0  0  0  0  0
  -21.7280   -3.9520   25.4110 F   0  0  0  0  0  0  0  0  0  0  0  0
  -23.4490  -13.9970   21.3510 C   0  0  0  0  0  0  0  0  0  0  0  0
  -22.8060  -13.2570   22.2480 N   0  0  0  0  0  0  0  0  0  0  0  0
  -23.0140  -15.0940   20.9990 O   0  0  0  0  0  0  0  0  0  0  0  0
  -23.1730  -12.3680   22.5520 H   0  0  0  0  0  0  0  0  0  0  0  0
  -21.9340  -13.5860   22.6370 H   0  0  0  0  0  0  0  0  0  0  0  0
  -26.0570  -15.5930   20.3490 N   0  0  0  0  0  0  0  0  0  0  0  0
  -25.3550  -16.2700   20.6290 H   0  0  0  0  0  0  0  0  0  0  0  0
  -26.8630  -16.0190   19.9110 H   0  0  0  0  0  0  0  0  0  0  0  0
  -29.0610  -23.5360   19.7560 C   0  0  0  0  0  3  0  0  0  0  0  0
  -28.0420  -24.8390   19.5480 C   0  0  0  0  0  3  0  0  0  0  0  0
  -28.2780  -26.3260   19.8340 O   0  0  0  0  0  0  0  0  0  0  0  0
  -24.5020  -31.7100   23.0600 C   0  0  0  0  0  0  0  0  0  0  0  0
  -27.1770  -27.2420   19.8090 C   0  0  0  0  0  0  0  0  0  0  0  0
  -23.3140  -30.3330   21.3960 C   0  0  0  0  0  3  0  0  0  0  0  0
  -24.7820  -28.8680   19.8880 C   0  0  0  0  0  0  0  0  0  0  0  0
  -25.8500  -30.7020   21.1900 C   0  0  0  0  0  2  0  0  0  0  0  0
  -25.9550  -29.3420   20.4890 C   0  0  0  0  0  0  0  0  0  0  0  0
  -27.1520  -28.5440   20.4370 C   0  0  0  0  0  3  0  0  0  0  0  0
  -25.9730  -26.8620   19.1690 C   0  0  0  0  0  3  0  0  0  0  0  0
  -24.8010  -27.6390   19.2150 C   0  0  0  0  0  3  0  0  0  0  0  0
  -23.5250  -29.7130   19.9900 C   0  0  0  0  0  2  0  0  0  0  0  0
  -24.5750  -30.9330   21.9370 N   0  0  0  0  0  0  0  0  0  0  0  0
  -23.4190  -31.9410   23.6180 O   0  0  0  0  0  0  0  0  0  0  0  0
  -22.6890  -29.2690   22.3330 C   0  0  0  0  0  0  0  0  0  0  0  0
  -21.3670  -29.0530   22.2170 N   0  0  0  0  0  0  0  0  0  0  0  0
  -23.3950  -28.6430   23.1280 O   0  0  0  0  0  0  0  0  0  0  0  0
  -20.8540  -29.6130   21.5520 H   0  0  0  0  0  0  0  0  0  0  0  0
  -18.0430  -27.7020   22.7020 C   0  0  0  0  0  0  0  0  0  0  0  0
  -20.5890  -28.0650   22.9690 C   0  0  0  0  0  3  0  0  0  0  0  0
  -20.7490  -26.6520   22.3630 C   0  0  0  0  0  2  0  0  0  0  0  0
  -19.6580  -26.3050   21.3440 C   0  0  0  0  0  2  0  0  0  0  0  0
  -18.2740  -26.3770   21.9960 C   0  0  0  0  0  2  0  0  0  0  0  0
  -19.1290  -28.5020   23.1460 C   0  0  0  0  0  0  0  0  0  0  0  0
  -18.8590  -29.7390   23.7690 C   0  0  0  0  0  3  0  0  0  0  0  0
  -17.5340  -30.1800   23.9500 C   0  0  0  0  0  3  0  0  0  0  0  0
  -16.4620  -29.3780   23.5220 C   0  0  0  0  0  3  0  0  0  0  0  0
  -16.7180  -28.1410   22.9050 C   0  0  0  0  0  3  0  0  0  0  0  0
  -25.7730  -32.3620   23.6830 C   0  0  0  0  0  3  0  0  0  0  0  0
  -26.3280  -31.5710   24.9310 C   0  0  1  0  0  0  0  0  0  0  0  0
  -25.2580  -31.2810   26.0110 C   0  0  0  0  0  1  0  0  0  0  0  0
  -26.9350  -30.2170   24.4990 C   0  0  0  0  0  1  0  0  0  0  0  0
  -27.4710  -32.3740   25.5950 C   0  0  0  0  0  1  0  0  0  0  0  0
  -25.4290  -33.7410   24.0600 N   0  0  0  0  0  0  0  0  0  0  0  0
  -25.7080  -34.8260   23.3260 C   0  0  0  0  0  0  0  0  0  0  0  0
  -26.3520  -34.7730   22.2740 O   0  0  0  0  0  0  0  0  0  0  0  0
  -24.8520  -33.8530   24.8810 H   0  0  0  0  0  0  0  0  0  0  0  0
  -23.9130  -36.5720   23.0820 C   0  0  0  0  0  1  0  0  0  0  0  0
  -25.1950  -36.1860   23.8380 C   0  0  0  0  0  3  0  0  0  0  0  0
  -27.3300  -37.1180   24.6160 C   0  0  0  0  0  1  0  0  0  0  0  0
  -26.1890  -37.2750   23.7180 N   0  0  0  0  0  0  0  0  0  0  0  0
  -25.7590  -38.1770   23.9050 H   0  0  0  0  0  0  0  0  0  0  0  0
  1  3  1  0
  2  1  1  0
  2  3  1  0
  3  4  1  0
  3 49  1  1
  4 10  1  0
  5 11  1  0
  5  4  2  0
  6  9  1  0
  7 12  1  0
  7  6  1  0
  8  5  1  0
 10  6  2  0
 11  7  2  0
 13 12  1  0
 14 19  1  0
 15 16  1  0
 15 14  1  0
 17 16  1  0
 17 24  1  0
 17 18  1  0
 19 13  1  0
 19 18  1  0
 20 13  2  0
 21 22  2  0
 22 41  1  0
 23 26  1  0
 23 22  1  0
 24 25  1  0
 24 21  1  0
 25 23  2  0
 26 27  1  0
 27 28  2  0
 29 32  1  0
 29 28  1  0
 30 29  2  0
 31 30  1  0
 31 26  2  0
 32 33  1  0
 33 34  1  0
 34 35  2  0
 36 35  1  0
 36 40  1  0
 37 36  2  0
 38 33  2  0
 38 37  1  0
 39 38  1  0
 41 42  1  0
 42 44  1  0
 42 45  1  0
 43 41  2  0
 46 21  1  0
 46 47  1  0
 48 46  1  0
 50 49  2  0
 50 51  1  0
 52 63  2  0
 53 51  1  0
 53 58  1  0
 54 62  1  0
 54 64  1  0
 55 61  1  0
 55 57  1  0
 56 62  1  0
 57 56  1  0
 58 57  2  0
 59 60  1  0
 59 53  2  0
 60 55  2  0
 61 54  1  0
 62 52  1  0
 64 66  2  0
 65 64  1  0
 67 65  1  0
 68 77  2  0
 68 73  1  0
 69 65  1  0
 69 73  1  0
 70 69  1  0
 71 72  1  0
 71 70  1  0
 72 68  1  0
 73 74  2  0
 74 75  1  0
 76 75  2  0
 77 76  1  0
 78 52  1  0
 78 83  1  0
 78 79  1  0
 79 82  1  1
 79 80  1  0
 81 79  1  0
 83 86  1  0
 84 88  1  0
 84 83  1  0
 85 84  2  0
 88 87  1  0
 90 88  1  0
 90 91  1  0
 90 89  1  0
M  ISO  4  12 100  13 100  50 101  51 101
M  END
>  <TORSDO>  (89) 
F 20

>  <SCORE>  (89) 
-9.950

>  <name>  (89) 
88

>  <ligand_id>  (89) 
88

>  <original_smiles>  (89) 
[H]c1c([H])c([H])c2c(c1[H])C([H])([H])C([H])([H])C([H])([H])C2([H])N([H])C(=O)C1([H])N(C(=O)C([H])(N([H])C(=O)C([H])(N([H])C([H])([H])[H])C([H])([H])[H])C(C([H])([H])[H])(C([H])([H])[H])C([H])([H])[H])C([H])([H])c2c([H])c(OC([H])([H])C([H])([H])C3(c4nc(C([H])([H])[H])c(C([H])([H])C(=O)N5C([H])([H])C([H])([H])C([H])([H])C([H])(n6nc(-c7c([H])c([H])c(Oc8c([H])c([H])c(F)c([H])c8F)c([H])c7[H])c(C(=O)N([H])[H])c6N([H])[H])C5([H])[H])nc4C([H])([H])[H])C([H])([H])C3([H])[H])c([H])c([H])c2C1([H])[H]

>  <smiles>  (89) 
[H]c1c([H])c([H])c2c(c1[H])C([H])([H])C([H])([H])C([H])([H])C2([H])N([H])C(=O)C1([H])N(C(=O)C([H])(N([H])C(=O)C([H])(N([H])C([H])([H])[H])C([H])([H])[H])C(C([H])([H])[H])(C([H])([H])[H])C([H])([H])[H])C([H])([H])c2c([H])c(OC([H])([H])C([H])([H])C3(c4nc(C([H])([H])[H])c(C([H])([H])C(=O)N5C([H])([H])C([H])([H])C([H])([H])C([H])(n6nc(-c7c([H])c([H])c(Oc8c([H])c([H])c(F)c([H])c8F)c([H])c7[H])c(C(=O)N([H])[H])c6N([H])[H])C5([H])[H])nc4C([H])([H])[H])C([H])([H])C3([H])[H])c([H])c([H])c2C1([H])[H]

$$$$
89:0:0
     RDKit          3D

 94103  0  0  1  0  0  0  0  0999 V2000
  -28.1180  -20.7560   19.0470 C   0  0  0  0  0  2  0  0  0  0  0  0
  -27.6300  -22.2540   19.1930 C   0  0  0  0  0  2  0  0  0  0  0  0
  -29.6390  -20.6040   19.3360 C   0  0  0  0  0  3  0  0  0  0  0  0
  -28.8000  -23.2770   19.1300 C   0  0  0  0  0  3  0  0  0  0  0  0
  -29.9680  -22.2140   19.6650 C   0  0  0  0  0  3  0  0  0  0  0  0
  -30.3620  -17.9710   22.2430 C   0  0  0  0  0  3  0  0  0  0  0  0
  -30.9090  -16.8580   21.5970 C   0  0  0  0  0  3  0  0  0  0  0  0
  -29.9140  -19.1010   21.5310 C   0  0  0  0  0  0  0  0  0  0  0  0
  -30.9720  -16.7730   20.1960 C   0  0  0  0  0  0  0  0  0  0  0  0
  -30.1180  -19.1970   20.1260 C   0  0  0  0  0  0  0  0  0  0  0  0
  -29.1740  -20.1330   22.3710 C   0  0  0  0  0  1  0  0  0  0  0  0
  -30.6170  -17.9940   19.5060 N   0  0  0  0  0  0  0  0  0  0  0  0
  -31.5630  -15.3760   19.5980 C   0  0  0  0  0  0  0  0  0  0  0  0
  -31.2340  -13.0430   18.6030 C   0  0  0  0  0  2  0  0  0  0  0  0
  -30.1800  -13.0690   17.4660 C   0  0  0  0  0  2  0  0  0  0  0  0
  -28.7560  -12.9120   18.0300 C   0  0  0  0  0  2  0  0  0  0  0  0
  -28.5180  -13.8210   19.2610 C   0  0  0  0  0  3  0  0  0  0  0  0
  -29.6710  -13.7200   20.2740 C   0  0  0  0  0  2  0  0  0  0  0  0
  -30.9090  -14.1290   19.5850 N   0  0  0  0  0  0  0  0  0  0  0  0
  -32.6740  -15.3960   19.0500 O   0  0  0  0  0  0  0  0  0  0  0  0
  -26.3050  -14.5110   20.3470 C   0  0  0  0  0  0  0  0  0  0  0  0
  -25.2220  -13.7920   20.7700 C   0  0  0  0  0  0  0  0  0  0  0  0
  -25.5500  -12.4180   20.5510 C   0  0  0  0  0  0  0  0  0  0  0  0
  -27.2220  -13.5820   19.8890 N   0  0  0  0  0  0  0  0  0  0  0  0
  -26.7850  -12.3090   20.0760 N   0  0  0  0  0  0  0  0  0  0  0  0
  -24.7330  -11.2080   20.7090 C   0  0  0  0  0  0  0  0  0  0  0  0
  -25.1150  -10.1670   21.5860 C   0  0  0  0  0  3  0  0  0  0  0  0
  -24.3020   -9.0230   21.7350 C   0  0  0  0  0  3  0  0  0  0  0  0
  -23.0930   -8.9110   21.0080 C   0  0  0  0  0  0  0  0  0  0  0  0
  -22.7290   -9.9400   20.1210 C   0  0  0  0  0  3  0  0  0  0  0  0
  -23.5420  -11.0750   19.9690 C   0  0  0  0  0  3  0  0  0  0  0  0
  -22.2540   -7.8250   21.0690 O   0  0  0  0  0  0  0  0  0  0  0  0
  -22.1000   -7.0990   22.2220 C   0  0  0  0  0  0  0  0  0  0  0  0
  -21.7020   -7.7020   23.4350 C   0  0  0  0  0  3  0  0  0  0  0  0
  -21.4860   -6.9070   24.5800 C   0  0  0  0  0  3  0  0  0  0  0  0
  -21.6610   -5.5120   24.5120 C   0  0  0  0  0  0  0  0  0  0  0  0
  -22.0540   -4.9100   23.3040 C   0  0  0  0  0  3  0  0  0  0  0  0
  -22.2690   -5.7000   22.1610 C   0  0  0  0  0  0  0  0  0  0  0  0
  -22.6250   -5.1120   20.9940 F   0  0  0  0  0  0  0  0  0  0  0  0
  -21.4470   -4.7480   25.6080 F   0  0  0  0  0  0  0  0  0  0  0  0
  -23.9180  -14.3520   21.2600 C   0  0  0  0  0  0  0  0  0  0  0  0
  -23.2650  -13.6630   22.1880 N   0  0  0  0  0  0  0  0  0  0  0  0
  -23.4950  -15.4330   20.8540 O   0  0  0  0  0  0  0  0  0  0  0  0
  -23.6230  -12.7850   22.5350 H   0  0  0  0  0  0  0  0  0  0  0  0
  -22.3950  -14.0190   22.5590 H   0  0  0  0  0  0  0  0  0  0  0  0
  -26.5780  -15.8750   20.2910 N   0  0  0  0  0  0  0  0  0  0  0  0
  -25.9020  -16.5740   20.5780 H   0  0  0  0  0  0  0  0  0  0  0  0
  -27.4410  -16.2770   19.9470 H   0  0  0  0  0  0  0  0  0  0  0  0
  -30.3320  -22.4810   21.0650 N   0  0  0  0  0  4  0  0  0  0  0  0
  -31.0890  -21.8800   21.3420 H   0  0  0  0  0  0  0  0  0  0  0  0
  -29.5550  -22.3380   21.6860 H   0  0  0  0  0  0  0  0  0  0  0  0
  -30.6600  -23.4260   21.1660 H   0  0  0  0  0  0  0  0  0  0  0  0
  -28.4090  -24.8340   19.7420 C   0  0  0  0  0  2  0  0  0  0  0  0
  -28.3800  -26.2650   19.0990 O   0  0  0  0  0  0  0  0  0  0  0  0
  -24.6400  -31.5410   22.7240 C   0  0  0  0  0  0  0  0  0  0  0  0
  -27.2730  -27.1840   19.2350 C   0  0  0  0  0  0  0  0  0  0  0  0
  -23.4260  -30.2240   21.0310 C   0  0  0  0  0  3  0  0  0  0  0  0
  -24.8730  -28.8220   19.4340 C   0  0  0  0  0  0  0  0  0  0  0  0
  -25.9570  -30.6150   20.7790 C   0  0  0  0  0  2  0  0  0  0  0  0
  -26.0600  -29.2790   20.0210 C   0  0  0  0  0  0  0  0  0  0  0  0
  -27.2620  -28.4800   19.8970 C   0  0  0  0  0  3  0  0  0  0  0  0
  -26.0510  -26.8250   18.6290 C   0  0  0  0  0  3  0  0  0  0  0  0
  -24.8800  -27.6120   18.7220 C   0  0  0  0  0  3  0  0  0  0  0  0
  -23.6120  -29.6600   19.5980 C   0  0  0  0  0  2  0  0  0  0  0  0
  -24.6960  -30.8120   21.5680 N   0  0  0  0  0  0  0  0  0  0  0  0
  -23.5680  -31.7350   23.3190 O   0  0  0  0  0  0  0  0  0  0  0  0
  -22.8320  -29.1200   21.9400 C   0  0  0  0  0  0  0  0  0  0  0  0
  -21.4980  -28.9460   21.9050 N   0  0  0  0  0  0  0  0  0  0  0  0
  -23.5700  -28.4220   22.6400 O   0  0  0  0  0  0  0  0  0  0  0  0
  -20.9560  -29.5620   21.3150 H   0  0  0  0  0  0  0  0  0  0  0  0
  -18.1730  -27.6690   22.5680 C   0  0  0  0  0  0  0  0  0  0  0  0
  -20.7450  -27.9270   22.6410 C   0  0  0  0  0  3  0  0  0  0  0  0
  -20.7970  -26.5630   21.9120 C   0  0  0  0  0  2  0  0  0  0  0  0
  -19.6120  -26.3390   20.9670 C   0  0  0  0  0  2  0  0  0  0  0  0
  -18.2910  -26.4010   21.7400 C   0  0  0  0  0  2  0  0  0  0  0  0
  -19.3230  -28.3940   22.9780 C   0  0  0  0  0  0  0  0  0  0  0  0
  -19.1540  -29.5840   23.7190 C   0  0  0  0  0  3  0  0  0  0  0  0
  -17.8670  -30.0490   24.0510 C   0  0  0  0  0  3  0  0  0  0  0  0
  -16.7320  -29.3200   23.6540 C   0  0  0  0  0  3  0  0  0  0  0  0
  -16.8870  -28.1310   22.9180 C   0  0  0  0  0  3  0  0  0  0  0  0
  -25.9180  -32.1820   23.3480 C   0  0  0  0  0  3  0  0  0  0  0  0
  -26.5720  -31.2920   24.4770 C   0  0  1  0  0  0  0  0  0  0  0  0
  -25.5780  -30.8590   25.5820 C   0  0  0  0  0  1  0  0  0  0  0  0
  -27.1920  -30.0080   23.8770 C   0  0  0  0  0  1  0  0  0  0  0  0
  -27.7270  -32.0670   25.1520 C   0  0  0  0  0  1  0  0  0  0  0  0
  -25.5410  -33.4980   23.8890 N   0  0  0  0  0  0  0  0  0  0  0  0
  -25.7910  -34.6700   23.2910 C   0  0  0  0  0  0  0  0  0  0  0  0
  -26.4290  -34.7590   22.2380 O   0  0  0  0  0  0  0  0  0  0  0  0
  -24.9680  -33.4970   24.7190 H   0  0  0  0  0  0  0  0  0  0  0  0
  -23.9630  -36.4010   23.2580 C   0  0  0  0  0  1  0  0  0  0  0  0
  -25.2500  -35.9460   23.9660 C   0  0  0  0  0  3  0  0  0  0  0  0
  -27.3610  -36.8190   24.8720 C   0  0  0  0  0  1  0  0  0  0  0  0
  -26.2240  -37.0610   23.9880 N   0  0  0  0  0  0  0  0  0  0  0  0
  -25.7750  -37.9250   24.2760 H   0  0  0  0  0  0  0  0  0  0  0  0
  1  2  1  0
  1  3  1  0
  3  5  1  0
  3 10  1  0
  4  2  1  0
  4  5  1  0
  4 53  1  0
  5 49  1  0
  7  6  1  0
  8  6  2  0
  8 11  1  0
  9  7  2  0
 10  8  1  0
 12 10  2  0
 12  9  1  0
 13  9  1  0
 14 19  1  0
 15 16  1  0
 15 14  1  0
 17 16  1  0
 17 24  1  0
 17 18  1  0
 19 13  1  0
 19 18  1  0
 20 13  2  0
 21 22  2  0
 22 41  1  0
 23 26  1  0
 23 22  1  0
 24 25  1  0
 24 21  1  0
 25 23  2  0
 26 27  1  0
 27 28  2  0
 29 32  1  0
 29 28  1  0
 30 29  2  0
 31 30  1  0
 31 26  2  0
 32 33  1  0
 33 34  1  0
 34 35  2  0
 36 35  1  0
 36 40  1  0
 37 36  2  0
 38 33  2  0
 38 37  1  0
 39 38  1  0
 41 42  1  0
 42 44  1  0
 42 45  1  0
 43 41  2  0
 46 21  1  0
 46 47  1  0
 48 46  1  0
 49 52  1  0
 49 50  1  0
 49 51  1  0
 54 56  1  0
 54 53  1  0
 55 66  2  0
 56 61  1  0
 57 65  1  0
 57 67  1  0
 58 64  1  0
 58 60  1  0
 59 65  1  0
 60 59  1  0
 61 60  2  0
 62 63  1  0
 62 56  2  0
 63 58  2  0
 64 57  1  0
 65 55  1  0
 67 69  2  0
 68 67  1  0
 70 68  1  0
 71 80  2  0
 71 76  1  0
 72 68  1  0
 72 76  1  0
 73 72  1  0
 74 75  1  0
 74 73  1  0
 75 71  1  0
 76 77  2  0
 77 78  1  0
 79 78  2  0
 80 79  1  0
 81 55  1  0
 81 86  1  0
 81 82  1  0
 82 85  1  1
 82 83  1  0
 84 82  1  0
 86 89  1  0
 87 86  1  0
 87 91  1  0
 88 87  2  0
 91 90  1  0
 91 93  1  0
 93 94  1  0
 93 92  1  0
M  ISO  4   9 100  13 100  53 101  54 101
M  END
>  <TORSDO>  (90) 
F 19

>  <SCORE>  (90) 
-9.720

>  <name>  (90) 
89

>  <ligand_id>  (90) 
89

>  <original_smiles>  (90) 
[H]c1c(C(=O)N2C([H])([H])C([H])([H])C([H])([H])C([H])(n3nc(-c4c([H])c([H])c(Oc5c([H])c([H])c(F)c([H])c5F)c([H])c4[H])c(C(=O)N([H])[H])c3N([H])[H])C2([H])[H])nc(C2([H])C([H])([H])C([H])([H])C([H])(C([H])([H])Oc3c([H])c([H])c4c(c3[H])C([H])([H])N(C(=O)C([H])(N([H])C(=O)C([H])(N([H])C([H])([H])[H])C([H])([H])[H])C(C([H])([H])[H])(C([H])([H])[H])C([H])([H])[H])C([H])(C(=O)N([H])C3([H])c5c([H])c([H])c([H])c([H])c5C([H])([H])C([H])([H])C3([H])[H])C4([H])[H])C2([H])[N+]([H])([H])[H])c(C([H])([H])[H])c1[H]

>  <smiles>  (90) 
[H]c1c(C(=O)N2C([H])([H])C([H])([H])C([H])([H])C([H])(n3nc(-c4c([H])c([H])c(Oc5c([H])c([H])c(F)c([H])c5F)c([H])c4[H])c(C(=O)N([H])[H])c3N([H])[H])C2([H])[H])nc(C2([H])C([H])([H])C([H])([H])C([H])(C([H])([H])Oc3c([H])c([H])c4c(c3[H])C([H])([H])N(C(=O)C([H])(N([H])C(=O)C([H])(N([H])C([H])([H])[H])C([H])([H])[H])C(C([H])([H])[H])(C([H])([H])[H])C([H])([H])[H])C([H])(C(=O)N([H])C3([H])c5c([H])c([H])c([H])c([H])c5C([H])([H])C([H])([H])C3([H])[H])C4([H])[H])C2([H])[N+]([H])([H])[H])c(C([H])([H])[H])c1[H]

$$$$
90:0:0
     RDKit          3D

 95104  0  0  1  0  0  0  0  0999 V2000
  -28.6480  -23.8460   20.7540 C   0  0  0  0  0  2  0  0  0  0  0  0
  -28.3000  -24.6220   18.5380 C   0  0  0  0  0  2  0  0  0  0  0  0
  -27.9380  -25.0420   19.9770 C   0  0  0  0  0  3  0  0  0  0  0  0
  -28.9490  -22.6190   19.7590 C   0  0  0  0  0  3  0  0  0  0  0  0
  -28.3530  -23.1230   18.4990 N   0  0  0  0  0  4  0  0  0  0  0  0
  -28.8700  -22.7980   17.6980 H   0  0  0  0  0  0  0  0  0  0  0  0
  -27.4090  -22.7730   18.4240 H   0  0  0  0  0  0  0  0  0  0  0  0
  -28.1610  -26.5120   20.3010 O   0  0  0  0  0  0  0  0  0  0  0  0
  -24.5650  -32.0400   23.3640 C   0  0  0  0  0  0  0  0  0  0  0  0
  -27.0870  -27.4390   20.2330 C   0  0  0  0  0  0  0  0  0  0  0  0
  -23.3340  -30.6710   21.7210 C   0  0  0  0  0  3  0  0  0  0  0  0
  -24.7570  -29.1280   20.2520 C   0  0  0  0  0  0  0  0  0  0  0  0
  -25.8790  -30.9530   21.5220 C   0  0  0  0  0  2  0  0  0  0  0  0
  -25.9390  -29.5790   20.8540 C   0  0  0  0  0  0  0  0  0  0  0  0
  -27.1070  -28.7470   20.8350 C   0  0  0  0  0  3  0  0  0  0  0  0
  -25.8900  -27.0780   19.5760 C   0  0  0  0  0  3  0  0  0  0  0  0
  -24.7400  -27.8880   19.5980 C   0  0  0  0  0  3  0  0  0  0  0  0
  -23.5280  -30.0140   20.3300 C   0  0  0  0  0  2  0  0  0  0  0  0
  -24.6120  -31.2390   22.2580 N   0  0  0  0  0  0  0  0  0  0  0  0
  -23.4890  -32.3210   23.9120 O   0  0  0  0  0  0  0  0  0  0  0  0
  -22.6720  -29.6480   22.6760 C   0  0  0  0  0  0  0  0  0  0  0  0
  -21.3530  -29.4420   22.5290 N   0  0  0  0  0  0  0  0  0  0  0  0
  -23.3480  -29.0420   23.5130 O   0  0  0  0  0  0  0  0  0  0  0  0
  -20.8630  -29.9920   21.8350 H   0  0  0  0  0  0  0  0  0  0  0  0
  -17.9990  -28.1460   22.9500 C   0  0  0  0  0  0  0  0  0  0  0  0
  -20.5390  -28.4920   23.2910 C   0  0  0  0  0  3  0  0  0  0  0  0
  -20.7020  -27.0540   22.7470 C   0  0  0  0  0  2  0  0  0  0  0  0
  -19.6430  -26.6770   21.7060 C   0  0  0  0  0  2  0  0  0  0  0  0
  -18.2380  -26.7910   22.3050 C   0  0  0  0  0  2  0  0  0  0  0  0
  -19.0800  -28.9500   23.3970 C   0  0  0  0  0  0  0  0  0  0  0  0
  -18.8040  -30.2150   23.9600 C   0  0  0  0  0  3  0  0  0  0  0  0
  -17.4810  -30.6780   24.0800 C   0  0  0  0  0  3  0  0  0  0  0  0
  -16.4130  -29.8720   23.6490 C   0  0  0  0  0  3  0  0  0  0  0  0
  -16.6740  -28.6080   23.0890 C   0  0  0  0  0  3  0  0  0  0  0  0
  -25.8560  -32.6590   23.9800 C   0  0  0  0  0  3  0  0  0  0  0  0
  -25.5680  -34.0640   24.3000 N   0  0  0  0  0  0  0  0  0  0  0  0
  -25.8970  -35.1070   23.5260 C   0  0  0  0  0  0  0  0  0  0  0  0
  -26.5420  -34.9880   22.4820 O   0  0  0  0  0  0  0  0  0  0  0  0
  -24.9920  -34.2320   25.1120 H   0  0  0  0  0  0  0  0  0  0  0  0
  -24.1740  -36.9160   23.2070 C   0  0  0  0  0  1  0  0  0  0  0  0
  -25.4360  -36.5050   23.9830 C   0  0  0  0  0  3  0  0  0  0  0  0
  -27.6020  -37.3830   24.7370 C   0  0  0  0  0  1  0  0  0  0  0  0
  -26.4740  -37.5470   23.8250 N   0  0  0  0  0  0  0  0  0  0  0  0
  -26.0810  -38.4720   23.9720 H   0  0  0  0  0  0  0  0  0  0  0  0
  -26.3610  -31.8920   25.2630 C   0  0  1  0  0  0  0  0  0  0  0  0
  -25.2560  -31.6560   26.3200 C   0  0  0  0  0  1  0  0  0  0  0  0
  -26.9500  -30.5140   24.8830 C   0  0  0  0  0  1  0  0  0  0  0  0
  -27.5020  -32.6910   25.9350 C   0  0  0  0  0  1  0  0  0  0  0  0
  -28.5350  -21.0850   20.1530 C   0  0  0  0  0  2  0  0  0  0  0  0
  -29.0610  -19.7050   19.4180 C   0  0  0  0  0  2  0  0  0  0  0  0
  -30.8450  -15.0920   19.4770 C   0  0  0  0  0  0  0  0  0  0  0  0
  -30.5280  -12.7780   18.5650 C   0  0  0  0  0  2  0  0  0  0  0  0
  -29.4500  -12.7700   17.4620 C   0  0  0  0  0  2  0  0  0  0  0  0
  -28.0640  -12.5500   18.0890 C   0  0  0  0  0  2  0  0  0  0  0  0
  -27.8080  -13.4740   19.3080 C   0  0  0  0  0  3  0  0  0  0  0  0
  -29.0030  -13.5050   20.2860 C   0  0  0  0  0  2  0  0  0  0  0  0
  -30.1870  -13.8760   19.5060 N   0  0  0  0  0  0  0  0  0  0  0  0
  -31.9670  -15.1140   18.9600 O   0  0  0  0  0  0  0  0  0  0  0  0
  -32.4970  -19.8040   20.5830 C   0  0  0  0  0  3  0  0  0  0  0  0
  -32.9190  -18.4940   20.8220 C   0  0  0  0  0  0  0  0  0  0  0  0
  -30.3960  -19.0220   19.9160 C   0  0  0  0  0  0  0  0  0  0  0  0
  -30.8570  -17.6050   20.0750 C   0  0  0  0  0  0  0  0  0  0  0  0
  -34.3160  -18.1900   21.3160 C   0  0  0  0  0  1  0  0  0  0  0  0
  -31.2550  -20.0510   20.1390 N   0  0  0  0  0  0  0  0  0  0  0  0
  -32.1120  -17.4430   20.5850 N   0  0  0  0  0  0  0  0  0  0  0  0
  -30.1940  -16.3000   19.7840 N   0  0  0  0  0  0  0  0  0  0  0  0
  -29.2000  -16.2570   19.9360 H   0  0  0  0  0  0  0  0  0  0  0  0
  -25.5690  -14.0050   20.4300 C   0  0  0  0  0  0  0  0  0  0  0  0
  -24.5620  -13.2070   20.8970 C   0  0  0  0  0  0  0  0  0  0  0  0
  -25.0010  -11.8610   20.7040 C   0  0  0  0  0  0  0  0  0  0  0  0
  -26.5560  -13.1460   19.9790 N   0  0  0  0  0  0  0  0  0  0  0  0
  -26.2320  -11.8460   20.2040 N   0  0  0  0  0  0  0  0  0  0  0  0
  -24.2960  -10.5880   20.9060 C   0  0  0  0  0  0  0  0  0  0  0  0
  -24.7340   -9.6440   21.8610 C   0  0  0  0  0  3  0  0  0  0  0  0
  -24.0250   -8.4380   22.0520 C   0  0  0  0  0  3  0  0  0  0  0  0
  -22.8650   -8.1670   21.2860 C   0  0  0  0  0  0  0  0  0  0  0  0
  -22.4470   -9.1000   20.3210 C   0  0  0  0  0  3  0  0  0  0  0  0
  -23.1570  -10.2960   20.1290 C   0  0  0  0  0  3  0  0  0  0  0  0
  -22.1290   -7.0110   21.3850 O   0  0  0  0  0  0  0  0  0  0  0  0
  -21.9310   -6.3850   22.5900 C   0  0  0  0  0  0  0  0  0  0  0  0
  -21.3110   -7.0390   23.6770 C   0  0  0  0  0  3  0  0  0  0  0  0
  -21.0650   -6.3380   24.8750 C   0  0  0  0  0  3  0  0  0  0  0  0
  -21.4270   -4.9820   24.9840 C   0  0  0  0  0  0  0  0  0  0  0  0
  -22.0390   -4.3270   23.9010 C   0  0  0  0  0  3  0  0  0  0  0  0
  -22.2870   -5.0260   22.7060 C   0  0  0  0  0  0  0  0  0  0  0  0
  -22.8580   -4.3840   21.6580 F   0  0  0  0  0  0  0  0  0  0  0  0
  -21.1840   -4.3050   26.1300 F   0  0  0  0  0  0  0  0  0  0  0  0
  -23.2270  -13.6640   21.4070 C   0  0  0  0  0  0  0  0  0  0  0  0
  -22.6420  -12.9270   22.3450 N   0  0  0  0  0  0  0  0  0  0  0  0
  -22.7160  -14.7090   21.0070 O   0  0  0  0  0  0  0  0  0  0  0  0
  -23.0710  -12.0780   22.6820 H   0  0  0  0  0  0  0  0  0  0  0  0
  -21.7570  -13.2180   22.7330 H   0  0  0  0  0  0  0  0  0  0  0  0
  -25.7190  -15.3860   20.3260 N   0  0  0  0  0  0  0  0  0  0  0  0
  -24.9800  -16.0290   20.5890 H   0  0  0  0  0  0  0  0  0  0  0  0
  -26.4970  -15.8450   19.8720 H   0  0  0  0  0  0  0  0  0  0  0  0
  2  3  1  0
  3  8  1  0
  3  1  1  0
  4 49  1  0
  4  1  1  0
  5  2  1  0
  5  4  1  0
  6  5  1  0
  7  5  1  0
  9 20  2  0
 10  8  1  0
 10 15  1  0
 11 19  1  0
 11 21  1  0
 12 18  1  0
 12 14  1  0
 13 19  1  0
 14 13  1  0
 15 14  2  0
 16 17  1  0
 16 10  2  0
 17 12  2  0
 18 11  1  0
 19  9  1  0
 21 23  2  0
 22 21  1  0
 24 22  1  0
 25 34  2  0
 25 30  1  0
 26 22  1  0
 26 30  1  0
 27 26  1  0
 28 29  1  0
 28 27  1  0
 29 25  1  0
 30 31  2  0
 31 32  1  0
 33 32  2  0
 34 33  1  0
 35  9  1  0
 35 36  1  0
 35 45  1  0
 36 39  1  0
 37 41  1  0
 37 36  1  0
 38 37  2  0
 41 40  1  0
 43 44  1  0
 43 41  1  0
 43 42  1  0
 45 48  1  1
 45 46  1  0
 47 45  1  0
 50 61  1  0
 50 49  1  0
 51 57  1  0
 51 66  1  0
 52 57  1  0
 53 54  1  0
 53 52  1  0
 55 54  1  0
 55 71  1  0
 55 56  1  0
 57 56  1  0
 58 51  2  0
 59 60  1  0
 60 63  1  0
 61 62  2  0
 61 64  1  0
 62 65  1  0
 64 59  2  0
 65 60  2  0
 66 67  1  0
 66 62  1  0
 68 69  2  0
 69 88  1  0
 70 69  1  0
 70 73  1  0
 71 72  1  0
 71 68  1  0
 72 70  2  0
 73 74  1  0
 74 75  2  0
 76 79  1  0
 76 75  1  0
 77 76  2  0
 78 77  1  0
 78 73  2  0
 79 80  1  0
 80 85  2  0
 80 81  1  0
 81 82  2  0
 82 83  1  0
 83 87  1  0
 84 83  2  0
 85 84  1  0
 86 85  1  0
 88 89  1  0
 89 91  1  0
 89 92  1  0
 90 88  2  0
 93 68  1  0
 93 94  1  0
 95 93  1  0
M  ISO  4   3 101   8 101  51 100  66 100
M  END
>  <TORSDO>  (91) 
F 18

>  <SCORE>  (91) 
-12.352

>  <name>  (91) 
90

>  <ligand_id>  (91) 
90

>  <original_smiles>  (91) 
[H]c1nc(C([H])([H])C([H])([H])C2([H])C([H])([H])C([H])(Oc3c([H])c([H])c4c(c3[H])C([H])([H])N(C(=O)C([H])(N([H])C(=O)C([H])(N([H])C([H])([H])[H])C([H])([H])[H])C(C([H])([H])[H])(C([H])([H])[H])C([H])([H])[H])C([H])(C(=O)N([H])C3([H])c5c([H])c([H])c([H])c([H])c5C([H])([H])C([H])([H])C3([H])[H])C4([H])[H])C([H])([H])[N+]2([H])[H])c(N([H])C(=O)N2C([H])([H])C([H])([H])C([H])([H])C([H])(n3nc(-c4c([H])c([H])c(Oc5c([H])c([H])c(F)c([H])c5F)c([H])c4[H])c(C(=O)N([H])[H])c3N([H])[H])C2([H])[H])nc1C([H])([H])[H]

>  <smiles>  (91) 
[H]c1nc(C([H])([H])C([H])([H])C2([H])C([H])([H])C([H])(Oc3c([H])c([H])c4c(c3[H])C([H])([H])N(C(=O)C([H])(N([H])C(=O)C([H])(N([H])C([H])([H])[H])C([H])([H])[H])C(C([H])([H])[H])(C([H])([H])[H])C([H])([H])[H])C([H])(C(=O)N([H])C3([H])c5c([H])c([H])c([H])c([H])c5C([H])([H])C([H])([H])C3([H])[H])C4([H])[H])C([H])([H])[N+]2([H])[H])c(N([H])C(=O)N2C([H])([H])C([H])([H])C([H])([H])C([H])(n3nc(-c4c([H])c([H])c(Oc5c([H])c([H])c(F)c([H])c5F)c([H])c4[H])c(C(=O)N([H])[H])c3N([H])[H])C2([H])[H])nc1C([H])([H])[H]

$$$$
91:0:0
     RDKit          3D

 89 98  0  0  1  0  0  0  0  0999 V2000
  -30.1240  -20.3800   21.5920 C   0  0  0  0  0  3  0  0  0  0  0  0
  -29.3760  -20.0890   20.4300 C   0  0  0  0  0  0  0  0  0  0  0  0
  -29.6200  -22.7320   21.6230 C   0  0  0  0  0  0  0  0  0  0  0  0
  -28.8080  -22.7240   20.4580 C   0  0  0  0  0  0  0  0  0  0  0  0
  -29.8400  -24.0180   22.3970 C   0  0  0  0  0  1  0  0  0  0  0  0
  -30.2380  -21.6260   22.1460 N   0  0  0  0  0  0  0  0  0  0  0  0
  -28.7300  -21.3340   19.8990 N   0  0  0  0  0  0  0  0  0  0  0  0
  -30.4180  -15.5160   20.1340 C   0  0  0  0  0  0  0  0  0  0  0  0
  -30.4420  -13.0470   19.2480 C   0  0  0  0  0  2  0  0  0  0  0  0
  -29.4950  -12.7890   18.0430 C   0  0  0  0  0  2  0  0  0  0  0  0
  -28.0680  -12.4690   18.5190 C   0  0  0  0  0  2  0  0  0  0  0  0
  -27.6250  -13.4140   19.6630 C   0  0  0  0  0  3  0  0  0  0  0  0
  -28.7070  -13.5660   20.7600 C   0  0  0  0  0  2  0  0  0  0  0  0
  -29.8860  -14.1740   20.1040 N   0  0  0  0  0  0  0  0  0  0  0  0
  -31.6090  -15.5160   19.7860 O   0  0  0  0  0  0  0  0  0  0  0  0
  -27.9900  -17.9000   19.7530 C   0  0  0  0  0  2  0  0  0  0  0  0
  -28.3380  -16.9540   20.9160 C   0  0  0  0  0  2  0  0  0  0  0  0
  -29.4210  -18.4250   19.8000 C   0  0  0  0  0  3  0  0  0  0  0  0
  -29.6670  -16.8210   20.3330 N   0  0  0  0  0  0  0  0  0  0  0  0
  -25.2560  -13.9170   20.4680 C   0  0  0  0  0  0  0  0  0  0  0  0
  -24.2220  -13.1190   20.8630 C   0  0  0  0  0  0  0  0  0  0  0  0
  -24.7120  -11.7790   20.8040 C   0  0  0  0  0  0  0  0  0  0  0  0
  -26.3140  -13.0670   20.1970 N   0  0  0  0  0  0  0  0  0  0  0  0
  -25.9980  -11.7720   20.4630 N   0  0  0  0  0  0  0  0  0  0  0  0
  -24.0090  -10.5050   20.9930 C   0  0  0  0  0  0  0  0  0  0  0  0
  -24.4600   -9.5440   21.9250 C   0  0  0  0  0  3  0  0  0  0  0  0
  -23.7510   -8.3360   22.1060 C   0  0  0  0  0  3  0  0  0  0  0  0
  -22.5780   -8.0810   21.3550 C   0  0  0  0  0  0  0  0  0  0  0  0
  -22.1470   -9.0310   20.4130 C   0  0  0  0  0  3  0  0  0  0  0  0
  -22.8560  -10.2300   20.2310 C   0  0  0  0  0  3  0  0  0  0  0  0
  -21.8410   -6.9250   21.4470 O   0  0  0  0  0  0  0  0  0  0  0  0
  -21.7760   -6.2030   22.6110 C   0  0  0  0  0  0  0  0  0  0  0  0
  -21.2750   -6.7610   23.8080 C   0  0  0  0  0  3  0  0  0  0  0  0
  -21.1590   -5.9610   24.9630 C   0  0  0  0  0  3  0  0  0  0  0  0
  -21.5370   -4.6050   24.9230 C   0  0  0  0  0  0  0  0  0  0  0  0
  -22.0320   -4.0470   23.7310 C   0  0  0  0  0  3  0  0  0  0  0  0
  -22.1480   -4.8440   22.5780 C   0  0  0  0  0  0  0  0  0  0  0  0
  -22.6050   -4.2960   21.4260 F   0  0  0  0  0  0  0  0  0  0  0  0
  -21.4200   -3.8350   26.0300 F   0  0  0  0  0  0  0  0  0  0  0  0
  -22.8250  -13.5710   21.1720 C   0  0  0  0  0  0  0  0  0  0  0  0
  -22.1330  -12.8650   22.0580 N   0  0  0  0  0  0  0  0  0  0  0  0
  -22.3580  -14.5900   20.6630 O   0  0  0  0  0  0  0  0  0  0  0  0
  -22.5270  -12.0430   22.4920 H   0  0  0  0  0  0  0  0  0  0  0  0
  -21.1980  -13.1520   22.3080 H   0  0  0  0  0  0  0  0  0  0  0  0
  -25.3650  -15.2910   20.2840 N   0  0  0  0  0  0  0  0  0  0  0  0
  -24.5720  -15.9080   20.4170 H   0  0  0  0  0  0  0  0  0  0  0  0
  -26.1650  -15.7540   19.8760 H   0  0  0  0  0  0  0  0  0  0  0  0
  -27.9780  -24.2350   19.9950 C   0  0  0  0  0  2  0  0  0  0  0  0
  -28.1840  -25.8640   20.3530 O   0  0  0  0  0  0  0  0  0  0  0  0
  -24.6510  -31.9360   23.2620 C   0  0  0  0  0  0  0  0  0  0  0  0
  -27.1960  -27.0010   20.2560 C   0  0  0  0  0  0  0  0  0  0  0  0
  -23.4600  -30.5470   21.6150 C   0  0  0  0  0  3  0  0  0  0  0  0
  -24.9090  -28.9290   20.1980 C   0  0  0  0  0  0  0  0  0  0  0  0
  -26.0310  -30.7290   21.4890 C   0  0  0  0  0  2  0  0  0  0  0  0
  -26.0970  -29.3160   20.8300 C   0  0  0  0  0  0  0  0  0  0  0  0
  -27.2300  -28.3740   20.8350 C   0  0  0  0  0  3  0  0  0  0  0  0
  -25.9790  -26.7830   19.5690 C   0  0  0  0  0  3  0  0  0  0  0  0
  -24.8780  -27.6840   19.5460 C   0  0  0  0  0  3  0  0  0  0  0  0
  -23.6970  -29.8610   20.2400 C   0  0  0  0  0  2  0  0  0  0  0  0
  -24.7370  -31.1000   22.1760 N   0  0  0  0  0  0  0  0  0  0  0  0
  -23.5590  -32.2330   23.7760 O   0  0  0  0  0  0  0  0  0  0  0  0
  -22.7500  -29.5590   22.5790 C   0  0  0  0  0  0  0  0  0  0  0  0
  -21.4220  -29.3870   22.4320 N   0  0  0  0  0  0  0  0  0  0  0  0
  -23.4020  -28.9460   23.4270 O   0  0  0  0  0  0  0  0  0  0  0  0
  -20.9480  -29.9340   21.7270 H   0  0  0  0  0  0  0  0  0  0  0  0
  -18.0390  -28.1540   22.8920 C   0  0  0  0  0  0  0  0  0  0  0  0
  -20.5920  -28.4490   23.1960 C   0  0  0  0  0  3  0  0  0  0  0  0
  -20.7170  -27.0130   22.6380 C   0  0  0  0  0  2  0  0  0  0  0  0
  -19.6360  -26.6700   21.6080 C   0  0  0  0  0  2  0  0  0  0  0  0
  -18.2420  -26.8030   22.2260 C   0  0  0  0  0  2  0  0  0  0  0  0
  -19.1420  -28.9330   23.3340 C   0  0  0  0  0  0  0  0  0  0  0  0
  -18.8960  -30.1930   23.9200 C   0  0  0  0  0  3  0  0  0  0  0  0
  -17.5820  -30.6760   24.0670 C   0  0  0  0  0  3  0  0  0  0  0  0
  -16.4940  -29.8960   23.6390 C   0  0  0  0  0  3  0  0  0  0  0  0
  -16.7240  -28.6360   23.0580 C   0  0  0  0  0  3  0  0  0  0  0  0
  -25.9200  -32.5730   23.9060 C   0  0  0  0  0  3  0  0  0  0  0  0
  -25.6140  -33.9810   24.2180 N   0  0  0  0  0  0  0  0  0  0  0  0
  -25.9440  -35.0290   23.4520 C   0  0  0  0  0  0  0  0  0  0  0  0
  -26.5990  -34.9110   22.4140 O   0  0  0  0  0  0  0  0  0  0  0  0
  -25.0290  -34.1450   25.0250 H   0  0  0  0  0  0  0  0  0  0  0  0
  -24.2170  -36.8340   23.1260 C   0  0  0  0  0  1  0  0  0  0  0  0
  -25.4770  -36.4270   23.9070 C   0  0  0  0  0  3  0  0  0  0  0  0
  -27.6320  -37.3230   24.6760 C   0  0  0  0  0  1  0  0  0  0  0  0
  -26.5120  -37.4750   23.7520 N   0  0  0  0  0  0  0  0  0  0  0  0
  -26.1130  -38.3990   23.8870 H   0  0  0  0  0  0  0  0  0  0  0  0
  -26.3960  -31.8210   25.2120 C   0  0  1  0  0  0  0  0  0  0  0  0
  -25.2750  -31.6190   26.2580 C   0  0  0  0  0  1  0  0  0  0  0  0
  -26.9720  -30.4290   24.8710 C   0  0  0  0  0  1  0  0  0  0  0  0
  -27.5390  -32.6150   25.8850 C   0  0  0  0  0  1  0  0  0  0  0  0
  1  6  1  0
  2  1  2  0
  3  6  2  0
  3  5  1  0
  4  3  1  0
  7  2  1  0
  7  4  2  0
  8 19  1  0
  9 14  1  0
 10 11  1  0
 10  9  1  0
 12 11  1  0
 12 23  1  0
 12 13  1  0
 14  8  1  0
 14 13  1  0
 15  8  2  0
 16 18  1  0
 16 17  1  0
 18 19  1  0
 18  2  1  0
 19 17  1  0
 20 21  2  0
 21 40  1  0
 22 21  1  0
 22 25  1  0
 23 24  1  0
 23 20  1  0
 24 22  2  0
 25 26  1  0
 26 27  2  0
 28 31  1  0
 28 27  1  0
 29 28  2  0
 30 29  1  0
 30 25  2  0
 31 32  1  0
 32 33  1  0
 33 34  2  0
 35 34  1  0
 35 39  1  0
 36 35  2  0
 37 32  2  0
 37 36  1  0
 38 37  1  0
 40 41  1  0
 41 44  1  0
 41 43  1  0
 42 40  2  0
 45 46  1  0
 45 20  1  0
 47 45  1  0
 48 49  1  0
 48  4  1  0
 50 61  2  0
 51 49  1  0
 51 56  1  0
 52 60  1  0
 52 62  1  0
 53 59  1  0
 53 55  1  0
 54 60  1  0
 55 56  2  0
 55 54  1  0
 57 51  2  0
 58 57  1  0
 58 53  2  0
 59 52  1  0
 60 50  1  0
 62 64  2  0
 63 62  1  0
 65 63  1  0
 66 75  2  0
 66 71  1  0
 67 63  1  0
 67 71  1  0
 68 67  1  0
 69 70  1  0
 69 68  1  0
 70 66  1  0
 71 72  2  0
 72 73  1  0
 74 73  2  0
 75 74  1  0
 76 50  1  0
 76 77  1  0
 76 86  1  0
 77 80  1  0
 78 82  1  0
 78 77  1  0
 79 78  2  0
 82 81  1  0
 84 85  1  0
 84 82  1  0
 84 83  1  0
 86 89  1  1
 86 87  1  0
 88 86  1  0
M  ISO  4   8 100  19 100  48 101  49 101
M  END
>  <TORSDO>  (92) 
F 17

>  <SCORE>  (92) 
-16.804

>  <name>  (92) 
91

>  <ligand_id>  (92) 
91

>  <original_smiles>  (92) 
[H]c1nc(C([H])([H])[H])c(C([H])([H])Oc2c([H])c([H])c3c(c2[H])C([H])([H])N(C(=O)C([H])(N([H])C(=O)C([H])(N([H])C([H])([H])[H])C([H])([H])[H])C(C([H])([H])[H])(C([H])([H])[H])C([H])([H])[H])C([H])(C(=O)N([H])C2([H])c4c([H])c([H])c([H])c([H])c4C([H])([H])C([H])([H])C2([H])[H])C3([H])[H])nc1C1([H])N(C(=O)N2C([H])([H])C([H])([H])C([H])([H])C([H])(n3nc(-c4c([H])c([H])c(Oc5c([H])c([H])c(F)c([H])c5F)c([H])c4[H])c(C(=O)N([H])[H])c3N([H])[H])C2([H])[H])C([H])([H])C1([H])[H]

>  <smiles>  (92) 
[H]c1nc(C([H])([H])[H])c(C([H])([H])Oc2c([H])c([H])c3c(c2[H])C([H])([H])N(C(=O)C([H])(N([H])C(=O)C([H])(N([H])C([H])([H])[H])C([H])([H])[H])C(C([H])([H])[H])(C([H])([H])[H])C([H])([H])[H])C([H])(C(=O)N([H])C2([H])c4c([H])c([H])c([H])c([H])c4C([H])([H])C([H])([H])C2([H])[H])C3([H])[H])nc1C1([H])N(C(=O)N2C([H])([H])C([H])([H])C([H])([H])C([H])(n3nc(-c4c([H])c([H])c(Oc5c([H])c([H])c(F)c([H])c5F)c([H])c4[H])c(C(=O)N([H])[H])c3N([H])[H])C2([H])[H])C([H])([H])C1([H])[H]

$$$$
92:0:0
     RDKit          3D

 89 97  0  0  1  0  0  0  0  0999 V2000
  -30.4610  -19.1130   19.7040 C   0  0  0  0  0  2  0  0  0  0  0  0
  -28.2080  -18.8550   20.2830 C   0  0  0  0  0  2  0  0  0  0  0  0
  -30.4340  -20.7200   20.1110 C   0  0  0  0  0  2  0  0  0  0  0  0
  -29.5880  -18.0330   20.4910 C   0  0  0  0  0  3  0  0  0  0  0  0
  -27.9820  -20.5160   20.3230 C   0  0  0  0  0  3  0  0  0  0  0  0
  -26.9970  -20.9280   19.2120 C   0  0  0  0  0  1  0  0  0  0  0  0
  -29.1430  -21.5220   20.4060 N   0  0  2  0  0  4  0  0  0  0  0  0
  -29.2240  -21.6430   21.4060 H   0  0  0  0  0  0  0  0  0  0  0  0
  -30.3810  -15.2050   20.0680 C   0  0  0  0  0  0  0  0  0  0  0  0
  -30.2970  -12.8240   19.0840 C   0  0  0  0  0  2  0  0  0  0  0  0
  -29.3130  -12.7060   17.8930 C   0  0  0  0  0  2  0  0  0  0  0  0
  -27.8740  -12.4590   18.3880 C   0  0  0  0  0  2  0  0  0  0  0  0
  -27.4920  -13.3790   19.5760 C   0  0  0  0  0  3  0  0  0  0  0  0
  -28.5960  -13.4240   20.6530 C   0  0  0  0  0  2  0  0  0  0  0  0
  -29.8110  -13.9170   19.9860 N   0  0  0  0  0  0  0  0  0  0  0  0
  -31.5950  -15.2540   19.8320 O   0  0  0  0  0  0  0  0  0  0  0  0
  -29.5610  -16.4040   20.2160 N   0  0  0  0  0  0  0  0  0  0  0  0
  -28.6030  -16.0890   20.2640 H   0  0  0  0  0  0  0  0  0  0  0  0
  -25.1440  -13.9300   20.4160 C   0  0  0  0  0  0  0  0  0  0  0  0
  -24.0980  -13.1460   20.8170 C   0  0  0  0  0  0  0  0  0  0  0  0
  -24.5680  -11.7980   20.7620 C   0  0  0  0  0  0  0  0  0  0  0  0
  -26.1810  -13.0590   20.1280 N   0  0  0  0  0  0  0  0  0  0  0  0
  -25.8480  -11.7710   20.4030 N   0  0  0  0  0  0  0  0  0  0  0  0
  -23.8530  -10.5320   20.9660 C   0  0  0  0  0  0  0  0  0  0  0  0
  -24.3090   -9.5640   21.8890 C   0  0  0  0  0  3  0  0  0  0  0  0
  -23.5910   -8.3640   22.0800 C   0  0  0  0  0  3  0  0  0  0  0  0
  -22.4030   -8.1230   21.3500 C   0  0  0  0  0  0  0  0  0  0  0  0
  -21.9680   -9.0770   20.4150 C   0  0  0  0  0  3  0  0  0  0  0  0
  -22.6860  -10.2680   20.2200 C   0  0  0  0  0  3  0  0  0  0  0  0
  -21.6530   -6.9750   21.4540 O   0  0  0  0  0  0  0  0  0  0  0  0
  -21.6180   -6.2420   22.6130 C   0  0  0  0  0  0  0  0  0  0  0  0
  -21.1870   -6.8000   23.8360 C   0  0  0  0  0  3  0  0  0  0  0  0
  -21.1020   -5.9910   24.9880 C   0  0  0  0  0  3  0  0  0  0  0  0
  -21.4350   -4.6260   24.9180 C   0  0  0  0  0  0  0  0  0  0  0  0
  -21.8580   -4.0670   23.6990 C   0  0  0  0  0  3  0  0  0  0  0  0
  -21.9460   -4.8720   22.5500 C   0  0  0  0  0  0  0  0  0  0  0  0
  -22.3360   -4.3230   21.3750 F   0  0  0  0  0  0  0  0  0  0  0  0
  -21.3440   -3.8460   26.0220 F   0  0  0  0  0  0  0  0  0  0  0  0
  -22.7080  -13.6160   21.1340 C   0  0  0  0  0  0  0  0  0  0  0  0
  -22.0070  -12.9130   22.0170 N   0  0  0  0  0  0  0  0  0  0  0  0
  -22.2510  -14.6420   20.6290 O   0  0  0  0  0  0  0  0  0  0  0  0
  -22.3890  -12.0860   22.4510 H   0  0  0  0  0  0  0  0  0  0  0  0
  -21.0740  -13.2110   22.2680 H   0  0  0  0  0  0  0  0  0  0  0  0
  -25.2880  -15.3020   20.2440 N   0  0  0  0  0  0  0  0  0  0  0  0
  -24.5040  -15.9360   20.3730 H   0  0  0  0  0  0  0  0  0  0  0  0
  -26.0880  -15.7450   19.8140 H   0  0  0  0  0  0  0  0  0  0  0  0
  -29.0740  -23.0950   19.9040 C   0  0  0  0  0  3  0  0  0  0  0  0
  -28.1680  -24.4850   20.4710 C   0  0  0  0  0  3  0  0  0  0  0  0
  -28.3460  -26.0660   20.1910 O   0  0  0  0  0  0  0  0  0  0  0  0
  -24.6790  -31.8670   23.1950 C   0  0  0  0  0  0  0  0  0  0  0  0
  -27.2860  -27.0840   20.1830 C   0  0  0  0  0  0  0  0  0  0  0  0
  -23.4920  -30.4560   21.5640 C   0  0  0  0  0  3  0  0  0  0  0  0
  -24.9500  -28.8740   20.1420 C   0  0  0  0  0  0  0  0  0  0  0  0
  -26.0490  -30.7220   21.3960 C   0  0  0  0  0  2  0  0  0  0  0  0
  -26.1330  -29.3160   20.7500 C   0  0  0  0  0  0  0  0  0  0  0  0
  -27.2980  -28.4400   20.7460 C   0  0  0  0  0  3  0  0  0  0  0  0
  -26.0710  -26.7690   19.5360 C   0  0  0  0  0  3  0  0  0  0  0  0
  -24.9400  -27.6180   19.5160 C   0  0  0  0  0  3  0  0  0  0  0  0
  -23.7200  -29.7730   20.1870 C   0  0  0  0  0  2  0  0  0  0  0  0
  -24.7610  -31.0390   22.1060 N   0  0  0  0  0  0  0  0  0  0  0  0
  -23.5900  -32.1440   23.7230 O   0  0  0  0  0  0  0  0  0  0  0  0
  -22.8180  -29.4480   22.5310 C   0  0  0  0  0  0  0  0  0  0  0  0
  -21.4900  -29.2710   22.4130 N   0  0  0  0  0  0  0  0  0  0  0  0
  -23.4960  -28.8300   23.3550 O   0  0  0  0  0  0  0  0  0  0  0  0
  -20.9960  -29.8240   21.7270 H   0  0  0  0  0  0  0  0  0  0  0  0
  -18.1200  -28.0440   22.9470 C   0  0  0  0  0  0  0  0  0  0  0  0
  -20.6810  -28.3250   23.1900 C   0  0  0  0  0  3  0  0  0  0  0  0
  -20.7850  -26.8950   22.6120 C   0  0  0  0  0  2  0  0  0  0  0  0
  -19.6760  -26.5680   21.6060 C   0  0  0  0  0  2  0  0  0  0  0  0
  -18.3000  -26.7000   22.2640 C   0  0  0  0  0  2  0  0  0  0  0  0
  -19.2380  -28.8140   23.3670 C   0  0  0  0  0  0  0  0  0  0  0  0
  -19.0150  -30.0700   23.9710 C   0  0  0  0  0  3  0  0  0  0  0  0
  -17.7070  -30.5580   24.1570 C   0  0  0  0  0  3  0  0  0  0  0  0
  -16.6050  -29.7860   23.7510 C   0  0  0  0  0  3  0  0  0  0  0  0
  -16.8120  -28.5320   23.1520 C   0  0  0  0  0  3  0  0  0  0  0  0
  -25.9500  -32.5220   23.8190 C   0  0  0  0  0  3  0  0  0  0  0  0
  -25.6190  -33.9170   24.1610 N   0  0  0  0  0  0  0  0  0  0  0  0
  -25.9240  -34.9820   23.4070 C   0  0  0  0  0  0  0  0  0  0  0  0
  -26.5770  -34.8950   22.3650 O   0  0  0  0  0  0  0  0  0  0  0  0
  -25.0380  -34.0590   24.9730 H   0  0  0  0  0  0  0  0  0  0  0  0
  -24.1620  -36.7550   23.1010 C   0  0  0  0  0  1  0  0  0  0  0  0
  -25.4250  -36.3620   23.8840 C   0  0  0  0  0  3  0  0  0  0  0  0
  -27.5590  -37.2770   24.6810 C   0  0  0  0  0  1  0  0  0  0  0  0
  -26.4390  -37.4320   23.7570 N   0  0  0  0  0  0  0  0  0  0  0  0
  -26.0210  -38.3440   23.9170 H   0  0  0  0  0  0  0  0  0  0  0  0
  -26.4730  -31.7590   25.0990 C   0  0  1  0  0  0  0  0  0  0  0  0
  -25.3810  -31.5100   26.1680 C   0  0  0  0  0  1  0  0  0  0  0  0
  -27.0720  -30.3870   24.7150 C   0  0  0  0  0  1  0  0  0  0  0  0
  -27.6150  -32.5660   25.7580 C   0  0  0  0  0  1  0  0  0  0  0  0
  1  3  1  0
  1  4  1  0
  2  5  1  0
  2  4  1  0
  3  7  1  0
  4 17  1  0
  5  6  1  0
  5  7  1  0
  7  8  1  1
  9 17  1  0
 10 15  1  0
 11 12  1  0
 11 10  1  0
 13 12  1  0
 13 22  1  0
 13 14  1  0
 15  9  1  0
 15 14  1  0
 16  9  2  0
 17 18  1  0
 19 20  2  0
 20 39  1  0
 21 20  1  0
 21 24  1  0
 22 23  1  0
 22 19  1  0
 23 21  2  0
 24 25  1  0
 25 26  2  0
 27 30  1  0
 27 26  1  0
 28 27  2  0
 29 28  1  0
 29 24  2  0
 30 31  1  0
 31 32  1  0
 32 33  2  0
 34 33  1  0
 34 38  1  0
 35 34  2  0
 36 31  2  0
 36 35  1  0
 37 36  1  0
 39 40  1  0
 40 43  1  0
 40 42  1  0
 41 39  2  0
 44 45  1  0
 44 19  1  0
 46 44  1  0
 47  7  1  0
 47 48  2  0
 49 48  1  0
 50 61  2  0
 51 49  1  0
 51 56  1  0
 52 60  1  0
 52 62  1  0
 53 59  1  0
 53 55  1  0
 54 60  1  0
 55 54  1  0
 56 55  2  0
 57 51  2  0
 58 57  1  0
 58 53  2  0
 59 52  1  0
 60 50  1  0
 62 64  2  0
 63 62  1  0
 65 63  1  0
 66 75  2  0
 66 71  1  0
 67 63  1  0
 67 71  1  0
 68 67  1  0
 69 70  1  0
 69 68  1  0
 70 66  1  0
 71 72  2  0
 72 73  1  0
 74 73  2  0
 75 74  1  0
 76 50  1  0
 76 77  1  0
 76 86  1  0
 77 80  1  0
 78 82  1  0
 78 77  1  0
 79 78  2  0
 82 81  1  0
 84 82  1  0
 84 85  1  0
 84 83  1  0
 86 89  1  1
 86 87  1  0
 88 86  1  0
M  ISO  4   9 100  17 100  48 101  49 101
M  END
>  <TORSDO>  (93) 
F 18

>  <SCORE>  (93) 
-15.226

>  <name>  (93) 
92

>  <ligand_id>  (93) 
92

>  <original_smiles>  (93) 
[H]c1c([H])c([H])c2c(c1[H])C([H])([H])C([H])([H])C([H])([H])C2([H])N([H])C(=O)C1([H])N(C(=O)C([H])(N([H])C(=O)C([H])(N([H])C([H])([H])[H])C([H])([H])[H])C(C([H])([H])[H])(C([H])([H])[H])C([H])([H])[H])C([H])([H])c2c([H])c(OC([H])([H])C([H])([H])[N+]3([H])C([H])([H])C([H])([H])C([H])(N([H])C(=O)N4C([H])([H])C([H])([H])C([H])([H])C([H])(n5nc(-c6c([H])c([H])c(Oc7c([H])c([H])c(F)c([H])c7F)c([H])c6[H])c(C(=O)N([H])[H])c5N([H])[H])C4([H])[H])C([H])([H])C3([H])C([H])([H])[H])c([H])c([H])c2C1([H])[H]

>  <smiles>  (93) 
[H]c1c([H])c([H])c2c(c1[H])C([H])([H])C([H])([H])C([H])([H])C2([H])N([H])C(=O)C1([H])N(C(=O)C([H])(N([H])C(=O)C([H])(N([H])C([H])([H])[H])C([H])([H])[H])C(C([H])([H])[H])(C([H])([H])[H])C([H])([H])[H])C([H])([H])c2c([H])c(OC([H])([H])C([H])([H])[N+]3([H])C([H])([H])C([H])([H])C([H])(N([H])C(=O)N4C([H])([H])C([H])([H])C([H])([H])C([H])(n5nc(-c6c([H])c([H])c(Oc7c([H])c([H])c(F)c([H])c7F)c([H])c6[H])c(C(=O)N([H])[H])c5N([H])[H])C4([H])[H])C([H])([H])C3([H])C([H])([H])[H])c([H])c([H])c2C1([H])[H]

$$$$
93:0:0
     RDKit          3D

 87 96  0  0  1  0  0  0  0  0999 V2000
  -30.3680  -15.6770   20.1700 C   0  0  0  0  0  0  0  0  0  0  0  0
  -30.5010  -13.0800   19.4990 C   0  0  0  0  0  2  0  0  0  0  0  0
  -29.6490  -12.6060   18.2840 C   0  0  0  0  0  2  0  0  0  0  0  0
  -28.2060  -12.2840   18.6990 C   0  0  0  0  0  2  0  0  0  0  0  0
  -27.6650  -13.3350   19.6940 C   0  0  0  0  0  3  0  0  0  0  0  0
  -28.6660  -13.6700   20.8280 C   0  0  0  0  0  2  0  0  0  0  0  0
  -29.8560  -14.2940   20.1860 N   0  0  0  0  0  0  0  0  0  0  0  0
  -31.5940  -15.6110   19.9520 O   0  0  0  0  0  0  0  0  0  0  0  0
  -28.0640  -20.9190   20.3900 C   0  0  0  0  0  3  0  0  0  0  0  0
  -30.2590  -19.8710   19.2980 C   0  0  0  0  0  3  0  0  0  0  0  0
  -28.4340  -19.4450   20.4870 C   0  0  0  0  0  0  0  0  0  0  0  0
  -29.5660  -18.7210   19.9610 C   0  0  0  0  0  0  0  0  0  0  0  0
  -28.7840  -22.0440   19.7270 C   0  0  0  0  0  0  0  0  0  0  0  0
  -27.6050  -18.3710   21.1610 C   0  0  0  0  0  3  0  0  0  0  0  0
  -28.3310  -16.9680   21.0100 C   0  0  0  0  0  3  0  0  0  0  0  0
  -29.9000  -21.3080   19.1820 N   0  0  0  0  0  0  0  0  0  0  0  0
  -29.5930  -17.0450   20.2440 N   0  0  0  0  0  0  0  0  0  0  0  0
  -25.2740  -13.9110   20.3460 C   0  0  0  0  0  0  0  0  0  0  0  0
  -24.2010  -13.1550   20.7160 C   0  0  0  0  0  0  0  0  0  0  0  0
  -24.6600  -11.8030   20.7460 C   0  0  0  0  0  0  0  0  0  0  0  0
  -26.3250  -13.0280   20.1760 N   0  0  0  0  0  0  0  0  0  0  0  0
  -25.9650  -11.7530   20.4800 N   0  0  0  0  0  0  0  0  0  0  0  0
  -23.9130  -10.5560   20.9520 C   0  0  0  0  0  0  0  0  0  0  0  0
  -24.3130   -9.6040   21.9130 C   0  0  0  0  0  3  0  0  0  0  0  0
  -23.5600   -8.4240   22.1090 C   0  0  0  0  0  3  0  0  0  0  0  0
  -22.3940   -8.1910   21.3420 C   0  0  0  0  0  0  0  0  0  0  0  0
  -22.0120   -9.1320   20.3690 C   0  0  0  0  0  3  0  0  0  0  0  0
  -22.7660  -10.3010   20.1720 C   0  0  0  0  0  3  0  0  0  0  0  0
  -21.6160   -7.0630   21.4450 O   0  0  0  0  0  0  0  0  0  0  0  0
  -21.5490   -6.3390   22.6090 C   0  0  0  0  0  0  0  0  0  0  0  0
  -21.1490   -6.9250   23.8290 C   0  0  0  0  0  3  0  0  0  0  0  0
  -21.0280   -6.1300   24.9870 C   0  0  0  0  0  3  0  0  0  0  0  0
  -21.2960   -4.7490   24.9240 C   0  0  0  0  0  0  0  0  0  0  0  0
  -21.6900   -4.1620   23.7070 C   0  0  0  0  0  3  0  0  0  0  0  0
  -21.8130   -4.9550   22.5530 C   0  0  0  0  0  0  0  0  0  0  0  0
  -22.1720   -4.3820   21.3800 F   0  0  0  0  0  0  0  0  0  0  0  0
  -21.1730   -3.9830   26.0330 F   0  0  0  0  0  0  0  0  0  0  0  0
  -22.8010  -13.6550   20.9180 C   0  0  0  0  0  0  0  0  0  0  0  0
  -22.0380  -13.0080   21.7900 N   0  0  0  0  0  0  0  0  0  0  0  0
  -22.3940  -14.6610   20.3370 O   0  0  0  0  0  0  0  0  0  0  0  0
  -22.3830  -12.1970   22.2820 H   0  0  0  0  0  0  0  0  0  0  0  0
  -21.0970  -13.3280   21.9690 H   0  0  0  0  0  0  0  0  0  0  0  0
  -25.4250  -15.2700   20.1030 N   0  0  0  0  0  0  0  0  0  0  0  0
  -24.6330  -15.9010   20.1300 H   0  0  0  0  0  0  0  0  0  0  0  0
  -26.2470  -15.6810   19.6820 H   0  0  0  0  0  0  0  0  0  0  0  0
  -28.1100  -23.7610   19.3290 C   0  0  0  0  0  2  0  0  0  0  0  0
  -28.3130  -25.4890   19.6030 O   0  0  0  0  0  0  0  0  0  0  0  0
  -24.6440  -31.5200   22.8630 C   0  0  0  0  0  0  0  0  0  0  0  0
  -27.3130  -26.6850   19.5930 C   0  0  0  0  0  0  0  0  0  0  0  0
  -23.4840  -30.1640   21.1720 C   0  0  0  0  0  3  0  0  0  0  0  0
  -24.9710  -28.6390   19.6620 C   0  0  0  0  0  0  0  0  0  0  0  0
  -26.0550  -30.4010   21.0300 C   0  0  0  0  0  2  0  0  0  0  0  0
  -26.1610  -29.0050   20.3020 C   0  0  0  0  0  0  0  0  0  0  0  0
  -27.3120  -28.0560   20.2390 C   0  0  0  0  0  3  0  0  0  0  0  0
  -26.0810  -26.5350   18.9040 C   0  0  0  0  0  3  0  0  0  0  0  0
  -24.9690  -27.4330   18.9400 C   0  0  0  0  0  3  0  0  0  0  0  0
  -23.7310  -29.5430   19.7670 C   0  0  0  0  0  2  0  0  0  0  0  0
  -24.7510  -30.7270   21.7420 N   0  0  0  0  0  0  0  0  0  0  0  0
  -23.5480  -31.7570   23.4000 O   0  0  0  0  0  0  0  0  0  0  0  0
  -22.8130  -29.1180   22.1030 C   0  0  0  0  0  0  0  0  0  0  0  0
  -21.4770  -28.9570   22.0170 N   0  0  0  0  0  0  0  0  0  0  0  0
  -23.5050  -28.4480   22.8740 O   0  0  0  0  0  0  0  0  0  0  0  0
  -20.9670  -29.5480   21.3770 H   0  0  0  0  0  0  0  0  0  0  0  0
  -18.1190  -27.6960   22.6010 C   0  0  0  0  0  0  0  0  0  0  0  0
  -20.6890  -27.9620   22.7570 C   0  0  0  0  0  3  0  0  0  0  0  0
  -20.7640  -26.5750   22.0750 C   0  0  0  0  0  2  0  0  0  0  0  0
  -19.6160  -26.3220   21.0930 C   0  0  0  0  0  2  0  0  0  0  0  0
  -18.2670  -26.4060   21.8120 C   0  0  0  0  0  2  0  0  0  0  0  0
  -19.2540  -28.4340   23.0300 C   0  0  0  0  0  0  0  0  0  0  0  0
  -19.0560  -29.6410   23.7360 C   0  0  0  0  0  3  0  0  0  0  0  0
  -17.7570  -30.1110   24.0110 C   0  0  0  0  0  3  0  0  0  0  0  0
  -16.6380  -29.3700   23.5930 C   0  0  0  0  0  3  0  0  0  0  0  0
  -16.8200  -28.1630   22.8950 C   0  0  0  0  0  3  0  0  0  0  0  0
  -25.8920  -32.1830   23.5210 C   0  0  0  0  0  3  0  0  0  0  0  0
  -25.5020  -33.5190   24.0120 N   0  0  0  0  0  0  0  0  0  0  0  0
  -25.7530  -34.6770   23.3860 C   0  0  0  0  0  0  0  0  0  0  0  0
  -26.3960  -34.7350   22.3360 O   0  0  0  0  0  0  0  0  0  0  0  0
  -24.9220  -33.5410   24.8390 H   0  0  0  0  0  0  0  0  0  0  0  0
  -23.9190  -36.4040   23.3050 C   0  0  0  0  0  1  0  0  0  0  0  0
  -25.2100  -35.9740   24.0220 C   0  0  0  0  0  3  0  0  0  0  0  0
  -27.3230  -36.8840   24.8860 C   0  0  0  0  0  1  0  0  0  0  0  0
  -26.1780  -37.0930   24.0040 N   0  0  0  0  0  0  0  0  0  0  0  0
  -25.7270  -37.9640   24.2700 H   0  0  0  0  0  0  0  0  0  0  0  0
  -26.4870  -31.3310   24.7110 C   0  0  1  0  0  0  0  0  0  0  0  0
  -25.4430  -30.9440   25.7860 C   0  0  0  0  0  1  0  0  0  0  0  0
  -27.1270  -30.0240   24.1940 C   0  0  0  0  0  1  0  0  0  0  0  0
  -27.6170  -32.1240   25.4090 C   0  0  0  0  0  1  0  0  0  0  0  0
  1  7  1  0
  1 17  1  0
  2  7  1  0
  3  4  1  0
  3  2  1  0
  5  4  1  0
  5 21  1  0
  5  6  1  0
  7  6  1  0
  8  1  2  0
  9 11  1  0
 10 12  1  0
 11 14  1  0
 12 17  1  0
 12 11  2  0
 13  9  2  0
 15 14  2  0
 16 10  2  0
 16 13  1  0
 17 15  1  0
 18 19  2  0
 19 20  1  0
 19 38  1  0
 20 23  1  0
 21 18  1  0
 21 22  1  0
 22 20  2  0
 23 24  1  0
 24 25  2  0
 26 29  1  0
 26 25  1  0
 27 26  2  0
 28 27  1  0
 28 23  2  0
 29 30  1  0
 30 31  1  0
 31 32  2  0
 33 32  1  0
 33 37  1  0
 34 33  2  0
 35 30  2  0
 35 34  1  0
 36 35  1  0
 38 39  1  0
 39 42  1  0
 39 41  1  0
 40 38  2  0
 43 44  1  0
 43 18  1  0
 45 43  1  0
 46 47  1  0
 46 13  1  0
 48 59  2  0
 49 47  1  0
 49 54  1  0
 50 58  1  0
 50 60  1  0
 51 57  1  0
 51 53  1  0
 52 58  1  0
 53 52  1  0
 54 53  2  0
 55 56  1  0
 55 49  2  0
 56 51  2  0
 57 50  1  0
 58 48  1  0
 60 62  2  0
 61 60  1  0
 63 61  1  0
 64 73  2  0
 64 69  1  0
 65 61  1  0
 65 69  1  0
 66 65  1  0
 67 68  1  0
 67 66  1  0
 68 64  1  0
 69 70  2  0
 70 71  1  0
 72 71  2  0
 73 72  1  0
 74 48  1  0
 74 75  1  0
 74 84  1  0
 75 78  1  0
 76 75  1  0
 76 80  1  0
 77 76  2  0
 80 79  1  0
 82 80  1  0
 82 83  1  0
 82 81  1  0
 84 87  1  1
 84 85  1  0
 86 84  1  0
M  ISO  4   1 100  17 100  46 101  47 101
M  END
>  <TORSDO>  (94) 
F 16

>  <SCORE>  (94) 
-13.559

>  <name>  (94) 
93

>  <ligand_id>  (94) 
93

>  <original_smiles>  (94) 
[H]c1nc(C([H])([H])Oc2c([H])c([H])c3c(c2[H])C([H])([H])N(C(=O)C([H])(N([H])C(=O)C([H])(N([H])C([H])([H])[H])C([H])([H])[H])C(C([H])([H])[H])(C([H])([H])[H])C([H])([H])[H])C([H])(C(=O)N([H])C2([H])c4c([H])c([H])c([H])c([H])c4C([H])([H])C([H])([H])C2([H])[H])C3([H])[H])c([H])c2c1N(C(=O)N1C([H])([H])C([H])([H])C([H])([H])C([H])(n3nc(-c4c([H])c([H])c(Oc5c([H])c([H])c(F)c([H])c5F)c([H])c4[H])c(C(=O)N([H])[H])c3N([H])[H])C1([H])[H])C([H])([H])C2([H])[H]

>  <smiles>  (94) 
[H]c1nc(C([H])([H])Oc2c([H])c([H])c3c(c2[H])C([H])([H])N(C(=O)C([H])(N([H])C(=O)C([H])(N([H])C([H])([H])[H])C([H])([H])[H])C(C([H])([H])[H])(C([H])([H])[H])C([H])([H])[H])C([H])(C(=O)N([H])C2([H])c4c([H])c([H])c([H])c([H])c4C([H])([H])C([H])([H])C2([H])[H])C3([H])[H])c([H])c2c1N(C(=O)N1C([H])([H])C([H])([H])C([H])([H])C([H])(n3nc(-c4c([H])c([H])c(Oc5c([H])c([H])c(F)c([H])c5F)c([H])c4[H])c(C(=O)N([H])[H])c3N([H])[H])C1([H])[H])C([H])([H])C2([H])[H]

$$$$
94:0:0
     RDKit          3D

 90 99  0  0  1  0  0  0  0  0999 V2000
  -28.4970  -21.0270   21.0600 C   0  0  0  0  0  3  0  0  0  0  0  0
  -29.0840  -22.0010   20.1950 C   0  0  0  0  0  0  0  0  0  0  0  0
  -29.9700  -21.3830   19.3110 C   0  0  0  0  0  0  0  0  0  0  0  0
  -29.6980  -19.1630   20.1190 C   0  0  0  0  0  0  0  0  0  0  0  0
  -30.7180  -22.4220   18.5150 C   0  0  0  0  0  2  0  0  0  0  0  0
  -30.0910  -23.7950   18.9140 C   0  0  0  0  0  2  0  0  0  0  0  0
  -29.1890  -23.6310   20.1720 C   0  0  0  0  0  3  0  0  0  0  0  0
  -28.8120  -19.6660   21.0170 N   0  0  0  0  0  0  0  0  0  0  0  0
  -30.2690  -20.0370   19.2570 N   0  0  0  0  0  0  0  0  0  0  0  0
  -30.4320  -17.7040   20.3110 C   0  0  0  0  0  2  0  0  0  0  0  0
  -30.5940  -15.0450   20.0840 C   0  0  0  0  0  0  0  0  0  0  0  0
  -30.4000  -12.7100   19.1420 C   0  0  0  0  0  2  0  0  0  0  0  0
  -29.4180  -12.6770   17.9490 C   0  0  0  0  0  2  0  0  0  0  0  0
  -27.9740  -12.4750   18.4430 C   0  0  0  0  0  2  0  0  0  0  0  0
  -27.6180  -13.4020   19.6360 C   0  0  0  0  0  3  0  0  0  0  0  0
  -28.7190  -13.4130   20.7170 C   0  0  0  0  0  2  0  0  0  0  0  0
  -29.9660  -13.8060   20.0510 N   0  0  0  0  0  0  0  0  0  0  0  0
  -31.7890  -15.0850   19.7750 O   0  0  0  0  0  0  0  0  0  0  0  0
  -29.8730  -16.2460   20.2620 N   0  0  0  0  0  0  0  0  0  0  0  0
  -28.8840  -16.1640   20.4320 H   0  0  0  0  0  0  0  0  0  0  0  0
  -25.2810  -13.9790   20.5040 C   0  0  0  0  0  0  0  0  0  0  0  0
  -24.2280  -13.2040   20.9000 C   0  0  0  0  0  0  0  0  0  0  0  0
  -24.6770  -11.8500   20.8100 C   0  0  0  0  0  0  0  0  0  0  0  0
  -26.3030  -13.1000   20.1900 N   0  0  0  0  0  0  0  0  0  0  0  0
  -25.9520  -11.8130   20.4400 N   0  0  0  0  0  0  0  0  0  0  0  0
  -23.9470  -10.5890   20.9950 C   0  0  0  0  0  0  0  0  0  0  0  0
  -24.3740   -9.6180   21.9270 C   0  0  0  0  0  3  0  0  0  0  0  0
  -23.6430   -8.4220   22.1010 C   0  0  0  0  0  3  0  0  0  0  0  0
  -22.4710   -8.1910   21.3440 C   0  0  0  0  0  0  0  0  0  0  0  0
  -22.0630   -9.1510   20.4020 C   0  0  0  0  0  3  0  0  0  0  0  0
  -22.7940  -10.3370   20.2250 C   0  0  0  0  0  3  0  0  0  0  0  0
  -21.7110   -7.0490   21.4290 O   0  0  0  0  0  0  0  0  0  0  0  0
  -21.6110   -6.3360   22.5960 C   0  0  0  0  0  0  0  0  0  0  0  0
  -21.0760   -6.9030   23.7730 C   0  0  0  0  0  3  0  0  0  0  0  0
  -20.9280   -6.1140   24.9320 C   0  0  0  0  0  3  0  0  0  0  0  0
  -21.3040   -4.7580   24.9130 C   0  0  0  0  0  0  0  0  0  0  0  0
  -21.8310   -4.1890   23.7400 C   0  0  0  0  0  3  0  0  0  0  0  0
  -21.9820   -4.9750   22.5840 C   0  0  0  0  0  0  0  0  0  0  0  0
  -22.4710   -4.4170   21.4510 F   0  0  0  0  0  0  0  0  0  0  0  0
  -21.1540   -3.9970   26.0220 F   0  0  0  0  0  0  0  0  0  0  0  0
  -22.8490  -13.6850   21.2470 C   0  0  0  0  0  0  0  0  0  0  0  0
  -22.1530  -12.9710   22.1250 N   0  0  0  0  0  0  0  0  0  0  0  0
  -22.3990  -14.7270   20.7740 O   0  0  0  0  0  0  0  0  0  0  0  0
  -22.5310  -12.1270   22.5280 H   0  0  0  0  0  0  0  0  0  0  0  0
  -21.2290  -13.2750   22.3980 H   0  0  0  0  0  0  0  0  0  0  0  0
  -25.4470  -15.3540   20.3570 N   0  0  0  0  0  0  0  0  0  0  0  0
  -24.6870  -16.0060   20.5170 H   0  0  0  0  0  0  0  0  0  0  0  0
  -26.2700  -15.7950   19.9670 H   0  0  0  0  0  0  0  0  0  0  0  0
  -27.9970  -24.8000   20.1650 C   0  0  0  0  0  2  0  0  0  0  0  0
  -28.2560  -26.3300   20.2110 O   0  0  0  0  0  0  0  0  0  0  0  0
  -24.6270  -31.9650   23.2520 C   0  0  0  0  0  0  0  0  0  0  0  0
  -27.1860  -27.2900   20.1720 C   0  0  0  0  0  0  0  0  0  0  0  0
  -23.4170  -30.5820   21.6100 C   0  0  0  0  0  3  0  0  0  0  0  0
  -24.8550  -29.0210   20.1670 C   0  0  0  0  0  0  0  0  0  0  0  0
  -25.9670  -30.8540   21.4300 C   0  0  0  0  0  2  0  0  0  0  0  0
  -26.0370  -29.4690   20.7680 C   0  0  0  0  0  0  0  0  0  0  0  0
  -27.2050  -28.6200   20.7510 C   0  0  0  0  0  3  0  0  0  0  0  0
  -25.9740  -26.9380   19.5380 C   0  0  0  0  0  3  0  0  0  0  0  0
  -24.8340  -27.7690   19.5370 C   0  0  0  0  0  3  0  0  0  0  0  0
  -23.6280  -29.9160   20.2250 C   0  0  0  0  0  2  0  0  0  0  0  0
  -24.6910  -31.1540   22.1520 N   0  0  0  0  0  0  0  0  0  0  0  0
  -23.5440  -32.2460   23.7880 O   0  0  0  0  0  0  0  0  0  0  0  0
  -22.7450  -29.5670   22.5670 C   0  0  0  0  0  0  0  0  0  0  0  0
  -21.4180  -29.3860   22.4360 N   0  0  0  0  0  0  0  0  0  0  0  0
  -23.4180  -28.9450   23.3930 O   0  0  0  0  0  0  0  0  0  0  0  0
  -20.9310  -29.9400   21.7450 H   0  0  0  0  0  0  0  0  0  0  0  0
  -18.0390  -28.1860   22.9470 C   0  0  0  0  0  0  0  0  0  0  0  0
  -20.5990  -28.4430   23.2030 C   0  0  0  0  0  3  0  0  0  0  0  0
  -20.6970  -27.0150   22.6150 C   0  0  0  0  0  2  0  0  0  0  0  0
  -19.5890  -26.7030   21.6050 C   0  0  0  0  0  2  0  0  0  0  0  0
  -18.2110  -26.8430   22.2580 C   0  0  0  0  0  2  0  0  0  0  0  0
  -19.1610  -28.9440   23.3760 C   0  0  0  0  0  0  0  0  0  0  0  0
  -18.9450  -30.2000   23.9830 C   0  0  0  0  0  3  0  0  0  0  0  0
  -17.6400  -30.6990   24.1630 C   0  0  0  0  0  3  0  0  0  0  0  0
  -16.5330  -29.9380   23.7480 C   0  0  0  0  0  3  0  0  0  0  0  0
  -16.7340  -28.6830   23.1460 C   0  0  0  0  0  3  0  0  0  0  0  0
  -25.9090  -32.5960   23.8760 C   0  0  0  0  0  3  0  0  0  0  0  0
  -25.6000  -33.9920   24.2190 N   0  0  0  0  0  0  0  0  0  0  0  0
  -25.8980  -35.0510   23.4540 C   0  0  0  0  0  0  0  0  0  0  0  0
  -26.5310  -34.9550   22.3990 O   0  0  0  0  0  0  0  0  0  0  0  0
  -25.0330  -34.1400   25.0410 H   0  0  0  0  0  0  0  0  0  0  0  0
  -24.1410  -36.8330   23.1830 C   0  0  0  0  0  1  0  0  0  0  0  0
  -25.4220  -36.4360   23.9360 C   0  0  0  0  0  3  0  0  0  0  0  0
  -27.5770  -37.3490   24.6800 C   0  0  0  0  0  1  0  0  0  0  0  0
  -26.4400  -37.4980   23.7760 N   0  0  0  0  0  0  0  0  0  0  0  0
  -26.0300  -38.4160   23.9300 H   0  0  0  0  0  0  0  0  0  0  0  0
  -26.4240  -31.8180   25.1490 C   0  0  1  0  0  0  0  0  0  0  0  0
  -25.3260  -31.5540   26.2060 C   0  0  0  0  0  1  0  0  0  0  0  0
  -27.0290  -30.4520   24.7510 C   0  0  0  0  0  1  0  0  0  0  0  0
  -27.5590  -32.6200   25.8290 C   0  0  0  0  0  1  0  0  0  0  0  0
  2  1  2  0
  3  2  1  0
  4 10  1  0
  4  8  2  0
  5  6  1  0
  5  3  1  0
  6  7  1  0
  7 49  1  0
  7  2  1  0
  8  1  1  0
  9  3  2  0
  9  4  1  0
 11 19  1  0
 12 17  1  0
 13 14  1  0
 13 12  1  0
 15 14  1  0
 15 24  1  0
 15 16  1  0
 17 11  1  0
 17 16  1  0
 18 11  2  0
 19 10  1  0
 19 20  1  0
 21 22  2  0
 22 41  1  0
 23 22  1  0
 23 26  1  0
 24 25  1  0
 24 21  1  0
 25 23  2  0
 26 27  1  0
 27 28  2  0
 29 32  1  0
 29 28  1  0
 30 29  2  0
 31 30  1  0
 31 26  2  0
 32 33  1  0
 33 34  1  0
 34 35  2  0
 36 35  1  0
 36 40  1  0
 37 36  2  0
 38 33  2  0
 38 37  1  0
 39 38  1  0
 41 42  1  0
 42 45  1  0
 42 44  1  0
 43 41  2  0
 46 21  1  0
 46 47  1  0
 48 46  1  0
 49 50  1  0
 51 62  2  0
 52 50  1  0
 52 57  1  0
 53 61  1  0
 53 63  1  0
 54 60  1  0
 54 56  1  0
 55 61  1  0
 56 55  1  0
 57 56  2  0
 58 52  2  0
 59 58  1  0
 59 54  2  0
 60 53  1  0
 61 51  1  0
 63 65  2  0
 64 63  1  0
 66 64  1  0
 67 76  2  0
 67 72  1  0
 68 64  1  0
 68 72  1  0
 69 68  1  0
 70 71  1  0
 70 69  1  0
 71 67  1  0
 72 73  2  0
 73 74  1  0
 75 74  2  0
 76 75  1  0
 77 51  1  0
 77 78  1  0
 77 87  1  0
 78 81  1  0
 79 83  1  0
 79 78  1  0
 80 79  2  0
 83 82  1  0
 85 86  1  0
 85 83  1  0
 85 84  1  0
 87 90  1  1
 87 88  1  0
 89 87  1  0
M  ISO  4  11 100  19 100  49 101  50 101
M  END
>  <TORSDO>  (95) 
F 18

>  <SCORE>  (95) 
-14.391

>  <name>  (95) 
94

>  <ligand_id>  (95) 
94

>  <original_smiles>  (95) 
[H]c1nc(C([H])([H])N([H])C(=O)N2C([H])([H])C([H])([H])C([H])([H])C([H])(n3nc(-c4c([H])c([H])c(Oc5c([H])c([H])c(F)c([H])c5F)c([H])c4[H])c(C(=O)N([H])[H])c3N([H])[H])C2([H])[H])nc2c1C([H])(C([H])([H])Oc1c([H])c([H])c3c(c1[H])C([H])([H])N(C(=O)C([H])(N([H])C(=O)C([H])(N([H])C([H])([H])[H])C([H])([H])[H])C(C([H])([H])[H])(C([H])([H])[H])C([H])([H])[H])C([H])(C(=O)N([H])C1([H])c4c([H])c([H])c([H])c([H])c4C([H])([H])C([H])([H])C1([H])[H])C3([H])[H])C([H])([H])C2([H])[H]

>  <smiles>  (95) 
[H]c1nc(C([H])([H])N([H])C(=O)N2C([H])([H])C([H])([H])C([H])([H])C([H])(n3nc(-c4c([H])c([H])c(Oc5c([H])c([H])c(F)c([H])c5F)c([H])c4[H])c(C(=O)N([H])[H])c3N([H])[H])C2([H])[H])nc2c1C([H])(C([H])([H])Oc1c([H])c([H])c3c(c1[H])C([H])([H])N(C(=O)C([H])(N([H])C(=O)C([H])(N([H])C([H])([H])[H])C([H])([H])[H])C(C([H])([H])[H])(C([H])([H])[H])C([H])([H])[H])C([H])(C(=O)N([H])C1([H])c4c([H])c([H])c([H])c([H])c4C([H])([H])C([H])([H])C1([H])[H])C3([H])[H])C([H])([H])C2([H])[H]

$$$$
96:0:0
     RDKit          3D

 90 99  0  0  1  0  0  0  0  0999 V2000
  -30.3780  -15.4280   20.3170 C   0  0  0  0  0  0  0  0  0  0  0  0
  -30.3950  -12.9270   19.5330 C   0  0  0  0  0  2  0  0  0  0  0  0
  -29.5050  -12.6510   18.2930 C   0  0  0  0  0  2  0  0  0  0  0  0
  -28.0620  -12.3520   18.7220 C   0  0  0  0  0  2  0  0  0  0  0  0
  -27.5730  -13.3490   19.7990 C   0  0  0  0  0  3  0  0  0  0  0  0
  -28.5940  -13.5730   20.9360 C   0  0  0  0  0  2  0  0  0  0  0  0
  -29.8250  -14.0990   20.3170 N   0  0  0  0  0  0  0  0  0  0  0  0
  -31.5960  -15.3780   20.0670 O   0  0  0  0  0  0  0  0  0  0  0  0
  -29.7770  -20.8440   18.7760 C   0  0  0  0  0  3  0  0  0  0  0  0
  -30.2930  -19.6380   18.2420 C   0  0  0  0  0  0  0  0  0  0  0  0
  -29.1490  -20.8840   20.0260 C   0  0  0  0  0  0  0  0  0  0  0  0
  -29.6910  -18.2610   20.0520 C   0  0  0  0  0  0  0  0  0  0  0  0
  -30.2500  -18.4250   18.8580 N   0  0  0  0  0  0  0  0  0  0  0  0
  -29.1380  -19.5070   20.6210 N   0  0  0  0  0  0  0  0  0  0  0  0
  -29.6420  -16.7390   20.4960 N   0  0  0  0  0  0  0  0  0  0  0  0
  -28.7670  -16.5530   20.9570 H   0  0  0  0  0  0  0  0  0  0  0  0
  -25.1970  -13.9040   20.5240 C   0  0  0  0  0  0  0  0  0  0  0  0
  -24.1300  -13.1280   20.8810 C   0  0  0  0  0  0  0  0  0  0  0  0
  -24.5990  -11.7780   20.8600 C   0  0  0  0  0  0  0  0  0  0  0  0
  -26.2420  -13.0280   20.2940 N   0  0  0  0  0  0  0  0  0  0  0  0
  -25.8950  -11.7430   20.5670 N   0  0  0  0  0  0  0  0  0  0  0  0
  -23.8660  -10.5160   21.0440 C   0  0  0  0  0  0  0  0  0  0  0  0
  -24.2860   -9.5470   21.9830 C   0  0  0  0  0  3  0  0  0  0  0  0
  -23.5530   -8.3540   22.1550 C   0  0  0  0  0  3  0  0  0  0  0  0
  -22.3870   -8.1190   21.3900 C   0  0  0  0  0  0  0  0  0  0  0  0
  -21.9880   -9.0750   20.4390 C   0  0  0  0  0  3  0  0  0  0  0  0
  -22.7200  -10.2610   20.2640 C   0  0  0  0  0  3  0  0  0  0  0  0
  -21.6270   -6.9780   21.4730 O   0  0  0  0  0  0  0  0  0  0  0  0
  -21.5590   -6.2380   22.6260 C   0  0  0  0  0  0  0  0  0  0  0  0
  -21.1250   -6.8000   23.8460 C   0  0  0  0  0  3  0  0  0  0  0  0
  -21.0040   -5.9870   24.9930 C   0  0  0  0  0  3  0  0  0  0  0  0
  -21.3070   -4.6150   24.9170 C   0  0  0  0  0  0  0  0  0  0  0  0
  -21.7350   -4.0530   23.7010 C   0  0  0  0  0  3  0  0  0  0  0  0
  -21.8570   -4.8630   22.5590 C   0  0  0  0  0  0  0  0  0  0  0  0
  -22.2480   -4.3120   21.3840 F   0  0  0  0  0  0  0  0  0  0  0  0
  -21.1850   -3.8320   26.0140 F   0  0  0  0  0  0  0  0  0  0  0  0
  -22.7290  -13.6070   21.1260 C   0  0  0  0  0  0  0  0  0  0  0  0
  -21.9880  -12.9180   21.9850 N   0  0  0  0  0  0  0  0  0  0  0  0
  -22.3020  -14.6280   20.5870 O   0  0  0  0  0  0  0  0  0  0  0  0
  -22.3490  -12.0950   22.4420 H   0  0  0  0  0  0  0  0  0  0  0  0
  -21.0460  -13.2200   22.1910 H   0  0  0  0  0  0  0  0  0  0  0  0
  -25.3630  -15.2720   20.3440 N   0  0  0  0  0  0  0  0  0  0  0  0
  -24.5900  -15.9240   20.4380 H   0  0  0  0  0  0  0  0  0  0  0  0
  -26.2040  -15.7060   19.9880 H   0  0  0  0  0  0  0  0  0  0  0  0
  -30.5650  -20.5760   15.7810 C   0  0  0  0  0  2  0  0  0  0  0  0
  -30.1510  -19.1270   15.6930 C   0  0  0  0  0  2  0  0  0  0  0  0
  -30.9390  -19.6140   16.8870 C   0  0  0  0  0  3  0  0  0  0  0  0
  -28.7340  -22.5090   20.6380 C   0  0  0  0  0  2  0  0  0  0  0  0
  -28.1570  -24.1260   19.9340 C   0  0  0  0  0  2  0  0  0  0  0  0
  -28.1980  -25.7710   20.3280 O   0  0  0  0  0  0  0  0  0  0  0  0
  -24.6140  -31.8420   23.1690 C   0  0  0  0  0  0  0  0  0  0  0  0
  -27.1970  -26.8960   20.2020 C   0  0  0  0  0  0  0  0  0  0  0  0
  -23.4350  -30.4270   21.5360 C   0  0  0  0  0  3  0  0  0  0  0  0
  -24.8980  -28.8110   20.1250 C   0  0  0  0  0  0  0  0  0  0  0  0
  -26.0030  -30.6310   21.4070 C   0  0  0  0  0  2  0  0  0  0  0  0
  -26.0810  -29.2120   20.7570 C   0  0  0  0  0  0  0  0  0  0  0  0
  -27.2180  -28.2750   20.7700 C   0  0  0  0  0  3  0  0  0  0  0  0
  -25.9860  -26.6690   19.5060 C   0  0  0  0  0  3  0  0  0  0  0  0
  -24.8800  -27.5640   19.4770 C   0  0  0  0  0  3  0  0  0  0  0  0
  -23.6760  -29.7330   20.1650 C   0  0  0  0  0  2  0  0  0  0  0  0
  -24.7060  -30.9960   22.0900 N   0  0  0  0  0  0  0  0  0  0  0  0
  -23.5190  -32.1330   23.6810 O   0  0  0  0  0  0  0  0  0  0  0  0
  -22.7370  -29.4400   22.5080 C   0  0  0  0  0  0  0  0  0  0  0  0
  -21.4040  -29.2850   22.3920 N   0  0  0  0  0  0  0  0  0  0  0  0
  -23.4010  -28.8120   23.3350 O   0  0  0  0  0  0  0  0  0  0  0  0
  -20.9190  -29.8390   21.6990 H   0  0  0  0  0  0  0  0  0  0  0  0
  -18.0160  -28.1010   22.9320 C   0  0  0  0  0  0  0  0  0  0  0  0
  -20.5790  -28.3520   23.1700 C   0  0  0  0  0  3  0  0  0  0  0  0
  -20.6670  -26.9200   22.5930 C   0  0  0  0  0  2  0  0  0  0  0  0
  -19.5540  -26.6060   21.5890 C   0  0  0  0  0  2  0  0  0  0  0  0
  -18.1800  -26.7550   22.2450 C   0  0  0  0  0  2  0  0  0  0  0  0
  -19.1420  -28.8580   23.3520 C   0  0  0  0  0  0  0  0  0  0  0  0
  -18.9320  -30.1150   23.9600 C   0  0  0  0  0  3  0  0  0  0  0  0
  -17.6300  -30.6160   24.1460 C   0  0  0  0  0  3  0  0  0  0  0  0
  -16.5190  -29.8560   23.7400 C   0  0  0  0  0  3  0  0  0  0  0  0
  -16.7130  -28.6010   23.1400 C   0  0  0  0  0  3  0  0  0  0  0  0
  -25.8760  -32.4970   23.8040 C   0  0  0  0  0  3  0  0  0  0  0  0
  -25.5450  -33.8940   24.1390 N   0  0  0  0  0  0  0  0  0  0  0  0
  -25.8690  -34.9620   23.3990 C   0  0  0  0  0  0  0  0  0  0  0  0
  -26.5410  -34.8760   22.3680 O   0  0  0  0  0  0  0  0  0  0  0  0
  -24.9450  -34.0330   24.9400 H   0  0  0  0  0  0  0  0  0  0  0  0
  -24.1280  -36.7530   23.0730 C   0  0  0  0  0  1  0  0  0  0  0  0
  -25.3750  -36.3450   23.8740 C   0  0  0  0  0  3  0  0  0  0  0  0
  -27.5050  -37.2410   24.7090 C   0  0  0  0  0  1  0  0  0  0  0  0
  -26.4000  -37.4070   23.7690 N   0  0  0  0  0  0  0  0  0  0  0  0
  -25.9880  -38.3230   23.9220 H   0  0  0  0  0  0  0  0  0  0  0  0
  -26.3850  -31.7390   25.0920 C   0  0  1  0  0  0  0  0  0  0  0  0
  -25.2840  -31.5080   26.1540 C   0  0  0  0  0  1  0  0  0  0  0  0
  -26.9760  -30.3580   24.7270 C   0  0  0  0  0  1  0  0  0  0  0  0
  -27.5300  -32.5420   25.7550 C   0  0  0  0  0  1  0  0  0  0  0  0
  1 15  1  0
  2  7  1  0
  3  4  1  0
  3  2  1  0
  5  4  1  0
  5 20  1  0
  5  6  1  0
  7  1  1  0
  7  6  1  0
  8  1  2  0
  9 11  1  0
 10  9  2  0
 10 13  1  0
 11 14  2  0
 11 48  1  0
 12 15  1  0
 12 14  1  0
 13 12  2  0
 15 16  1  0
 17 18  2  0
 18 37  1  0
 19 18  1  0
 19 22  1  0
 20 17  1  0
 20 21  1  0
 21 19  2  0
 22 23  1  0
 23 24  2  0
 25 28  1  0
 25 24  1  0
 26 25  2  0
 27 26  1  0
 27 22  2  0
 28 29  1  0
 29 30  1  0
 30 31  2  0
 32 31  1  0
 32 36  1  0
 33 32  2  0
 34 29  2  0
 34 33  1  0
 35 34  1  0
 37 38  1  0
 38 41  1  0
 38 40  1  0
 39 37  2  0
 42 43  1  0
 42 17  1  0
 44 42  1  0
 45 47  1  0
 46 45  1  0
 46 47  1  0
 47 10  1  0
 49 50  1  0
 49 48  1  0
 51 62  2  0
 52 50  1  0
 52 57  1  0
 53 61  1  0
 53 63  1  0
 54 60  1  0
 54 56  1  0
 55 61  1  0
 56 57  2  0
 56 55  1  0
 58 52  2  0
 59 58  1  0
 59 54  2  0
 60 53  1  0
 61 51  1  0
 63 65  2  0
 64 63  1  0
 66 64  1  0
 67 76  2  0
 67 72  1  0
 68 64  1  0
 68 72  1  0
 69 68  1  0
 70 71  1  0
 70 69  1  0
 71 67  1  0
 72 73  2  0
 73 74  1  0
 75 74  2  0
 76 75  1  0
 77 51  1  0
 77 78  1  0
 77 87  1  0
 78 81  1  0
 79 83  1  0
 79 78  1  0
 80 79  2  0
 83 82  1  0
 85 83  1  0
 85 86  1  0
 85 84  1  0
 87 90  1  1
 87 88  1  0
 89 87  1  0
M  ISO  4   1 100  15 100  49 101  50 101
M  END
>  <TORSDO>  (96) 
F 18

>  <SCORE>  (96) 
-16.139

>  <name>  (96) 
96

>  <ligand_id>  (96) 
96

>  <original_smiles>  (96) 
[H]c1c(C([H])([H])C([H])([H])Oc2c([H])c([H])c3c(c2[H])C([H])([H])N(C(=O)C([H])(N([H])C(=O)C([H])(N([H])C([H])([H])[H])C([H])([H])[H])C(C([H])([H])[H])(C([H])([H])[H])C([H])([H])[H])C([H])(C(=O)N([H])C2([H])c4c([H])c([H])c([H])c([H])c4C([H])([H])C([H])([H])C2([H])[H])C3([H])[H])nc(N([H])C(=O)N2C([H])([H])C([H])([H])C([H])([H])C([H])(n3nc(-c4c([H])c([H])c(Oc5c([H])c([H])c(F)c([H])c5F)c([H])c4[H])c(C(=O)N([H])[H])c3N([H])[H])C2([H])[H])nc1C1([H])C([H])([H])C1([H])[H]

>  <smiles>  (96) 
[H]c1c(C([H])([H])C([H])([H])Oc2c([H])c([H])c3c(c2[H])C([H])([H])N(C(=O)C([H])(N([H])C(=O)C([H])(N([H])C([H])([H])[H])C([H])([H])[H])C(C([H])([H])[H])(C([H])([H])[H])C([H])([H])[H])C([H])(C(=O)N([H])C2([H])c4c([H])c([H])c([H])c([H])c4C([H])([H])C([H])([H])C2([H])[H])C3([H])[H])nc(N([H])C(=O)N2C([H])([H])C([H])([H])C([H])([H])C([H])(n3nc(-c4c([H])c([H])c(Oc5c([H])c([H])c(F)c([H])c5F)c([H])c4[H])c(C(=O)N([H])[H])c3N([H])[H])C2([H])[H])nc1C1([H])C([H])([H])C1([H])[H]

$$$$
97:0:0
     RDKit          3D

 93103  0  0  1  0  0  0  0  0999 V2000
  -27.9700  -21.7550   21.0040 C   0  0  0  0  0  3  0  0  0  0  0  0
  -29.2860  -19.8140   20.2570 C   0  0  0  0  0  0  0  0  0  0  0  0
  -28.5790  -22.8200   20.1910 C   0  0  0  0  0  0  0  0  0  0  0  0
  -29.9180  -20.8340   19.4800 C   0  0  0  0  0  0  0  0  0  0  0  0
  -31.0190  -18.7440   19.0200 C   0  0  0  0  0  2  0  0  0  0  0  0
  -30.1080  -18.3180   20.2160 C   0  0  0  0  0  3  0  0  0  0  0  0
  -28.2990  -20.3620   21.0680 N   0  0  0  0  0  0  0  0  0  0  0  0
  -29.5890  -22.2270   19.4080 N   0  0  0  0  0  0  0  0  0  0  0  0
  -31.0140  -20.2300   18.8370 N   0  0  0  0  0  0  0  0  0  0  0  0
  -30.4910  -15.4180   20.0790 C   0  0  0  0  0  0  0  0  0  0  0  0
  -30.4380  -12.9760   19.2010 C   0  0  0  0  0  2  0  0  0  0  0  0
  -29.4740  -12.7550   18.0080 C   0  0  0  0  0  2  0  0  0  0  0  0
  -28.0480  -12.4720   18.5070 C   0  0  0  0  0  2  0  0  0  0  0  0
  -27.6280  -13.4410   19.6380 C   0  0  0  0  0  3  0  0  0  0  0  0
  -28.7150  -13.6090   20.7230 C   0  0  0  0  0  2  0  0  0  0  0  0
  -29.9170  -14.1170   20.0410 N   0  0  0  0  0  0  0  0  0  0  0  0
  -31.7040  -15.4150   19.8230 O   0  0  0  0  0  0  0  0  0  0  0  0
  -29.7450  -16.6910   20.2030 N   0  0  0  0  0  0  0  0  0  0  0  0
  -28.7580  -16.5310   20.3420 H   0  0  0  0  0  0  0  0  0  0  0  0
  -25.2930  -13.9830   20.5050 C   0  0  0  0  0  0  0  0  0  0  0  0
  -24.2460  -13.1980   20.8960 C   0  0  0  0  0  0  0  0  0  0  0  0
  -24.7090  -11.8490   20.8130 C   0  0  0  0  0  0  0  0  0  0  0  0
  -26.3240  -13.1140   20.1960 N   0  0  0  0  0  0  0  0  0  0  0  0
  -25.9880  -11.8220   20.4500 N   0  0  0  0  0  0  0  0  0  0  0  0
  -23.9880  -10.5830   20.9970 C   0  0  0  0  0  0  0  0  0  0  0  0
  -24.4230   -9.6100   21.9240 C   0  0  0  0  0  3  0  0  0  0  0  0
  -23.6970   -8.4130   22.0990 C   0  0  0  0  0  3  0  0  0  0  0  0
  -22.5220   -8.1770   21.3460 C   0  0  0  0  0  0  0  0  0  0  0  0
  -22.1060   -9.1380   20.4070 C   0  0  0  0  0  3  0  0  0  0  0  0
  -22.8320  -10.3270   20.2310 C   0  0  0  0  0  3  0  0  0  0  0  0
  -21.7680   -7.0310   21.4300 O   0  0  0  0  0  0  0  0  0  0  0  0
  -21.6790   -6.3130   22.5960 C   0  0  0  0  0  0  0  0  0  0  0  0
  -21.1580   -6.8780   23.7810 C   0  0  0  0  0  3  0  0  0  0  0  0
  -21.0190   -6.0840   24.9370 C   0  0  0  0  0  3  0  0  0  0  0  0
  -21.3890   -4.7270   24.9090 C   0  0  0  0  0  0  0  0  0  0  0  0
  -21.9020   -4.1610   23.7280 C   0  0  0  0  0  3  0  0  0  0  0  0
  -22.0430   -4.9520   22.5750 C   0  0  0  0  0  0  0  0  0  0  0  0
  -22.5180   -4.3970   21.4350 F   0  0  0  0  0  0  0  0  0  0  0  0
  -21.2480   -3.9620   26.0170 F   0  0  0  0  0  0  0  0  0  0  0  0
  -22.8610  -13.6710   21.2300 C   0  0  0  0  0  0  0  0  0  0  0  0
  -22.1650  -12.9570   22.1070 N   0  0  0  0  0  0  0  0  0  0  0  0
  -22.4070  -14.7080   20.7480 O   0  0  0  0  0  0  0  0  0  0  0  0
  -22.5470  -12.1170   22.5170 H   0  0  0  0  0  0  0  0  0  0  0  0
  -21.2390  -13.2560   22.3750 H   0  0  0  0  0  0  0  0  0  0  0  0
  -25.4500  -15.3580   20.3550 N   0  0  0  0  0  0  0  0  0  0  0  0
  -24.6880  -16.0080   20.5110 H   0  0  0  0  0  0  0  0  0  0  0  0
  -26.2750  -15.8030   19.9720 H   0  0  0  0  0  0  0  0  0  0  0  0
  -32.5300  -22.1320   18.0610 C   0  0  0  0  0  2  0  0  0  0  0  0
  -33.2120  -20.8330   17.7090 C   0  0  0  0  0  2  0  0  0  0  0  0
  -31.7020  -20.9040   17.7420 C   0  0  1  0  0  0  0  0  0  0  0  0
  -30.9150  -20.8210   16.4480 C   0  0  0  0  0  1  0  0  0  0  0  0
  -27.8540  -24.3980   19.9240 C   0  0  0  0  0  2  0  0  0  0  0  0
  -28.1880  -25.9750   20.2440 O   0  0  0  0  0  0  0  0  0  0  0  0
  -24.6540  -31.9200   23.2570 C   0  0  0  0  0  0  0  0  0  0  0  0
  -27.1970  -27.0900   20.1700 C   0  0  0  0  0  0  0  0  0  0  0  0
  -23.4520  -30.5440   21.6110 C   0  0  0  0  0  3  0  0  0  0  0  0
  -24.8950  -28.9660   20.1550 C   0  0  0  0  0  0  0  0  0  0  0  0
  -26.0170  -30.7630   21.4500 C   0  0  0  0  0  2  0  0  0  0  0  0
  -26.0860  -29.3640   20.7750 C   0  0  0  0  0  0  0  0  0  0  0  0
  -27.2310  -28.4470   20.7600 C   0  0  0  0  0  3  0  0  0  0  0  0
  -25.9780  -26.8500   19.4940 C   0  0  0  0  0  3  0  0  0  0  0  0
  -24.8670  -27.7300   19.4930 C   0  0  0  0  0  3  0  0  0  0  0  0
  -23.6730  -29.8820   20.2230 C   0  0  0  0  0  2  0  0  0  0  0  0
  -24.7290  -31.1020   22.1600 N   0  0  0  0  0  0  0  0  0  0  0  0
  -23.5680  -32.2010   23.7900 O   0  0  0  0  0  0  0  0  0  0  0  0
  -22.7670  -29.5320   22.5670 C   0  0  0  0  0  0  0  0  0  0  0  0
  -21.4410  -29.3430   22.4280 N   0  0  0  0  0  0  0  0  0  0  0  0
  -23.4350  -28.9170   23.4020 O   0  0  0  0  0  0  0  0  0  0  0  0
  -20.9530  -29.8900   21.7320 H   0  0  0  0  0  0  0  0  0  0  0  0
  -18.0790  -28.0590   22.8890 C   0  0  0  0  0  0  0  0  0  0  0  0
  -20.6280  -28.3900   23.1920 C   0  0  0  0  0  3  0  0  0  0  0  0
  -20.7750  -26.9570   22.6280 C   0  0  0  0  0  2  0  0  0  0  0  0
  -19.6970  -26.6020   21.5990 C   0  0  0  0  0  2  0  0  0  0  0  0
  -18.3010  -26.7130   22.2200 C   0  0  0  0  0  2  0  0  0  0  0  0
  -19.1710  -28.8530   23.3320 C   0  0  0  0  0  0  0  0  0  0  0  0
  -18.9090  -30.1070   23.9230 C   0  0  0  0  0  3  0  0  0  0  0  0
  -17.5870  -30.5710   24.0710 C   0  0  0  0  0  3  0  0  0  0  0  0
  -16.5110  -29.7760   23.6420 C   0  0  0  0  0  3  0  0  0  0  0  0
  -16.7570  -28.5210   23.0570 C   0  0  0  0  0  3  0  0  0  0  0  0
  -25.9280  -32.5570   23.8890 C   0  0  0  0  0  3  0  0  0  0  0  0
  -25.6180  -33.9620   24.2130 N   0  0  0  0  0  0  0  0  0  0  0  0
  -25.9370  -35.0140   23.4490 C   0  0  0  0  0  0  0  0  0  0  0  0
  -26.5820  -34.9050   22.4030 O   0  0  0  0  0  0  0  0  0  0  0  0
  -25.0400  -34.1180   25.0250 H   0  0  0  0  0  0  0  0  0  0  0  0
  -24.1940  -36.8080   23.1500 C   0  0  0  0  0  1  0  0  0  0  0  0
  -25.4660  -36.4070   23.9150 C   0  0  0  0  0  3  0  0  0  0  0  0
  -27.6230  -37.3120   24.6680 C   0  0  0  0  0  1  0  0  0  0  0  0
  -26.4920  -37.4620   23.7550 N   0  0  0  0  0  0  0  0  0  0  0  0
  -26.0880  -38.3830   23.8970 H   0  0  0  0  0  0  0  0  0  0  0  0
  -26.4240  -31.7970   25.1820 C   0  0  1  0  0  0  0  0  0  0  0  0
  -25.3140  -31.5770   26.2370 C   0  0  0  0  0  1  0  0  0  0  0  0
  -27.0050  -30.4110   24.8220 C   0  0  0  0  0  1  0  0  0  0  0  0
  -27.5710  -32.5920   25.8480 C   0  0  0  0  0  1  0  0  0  0  0  0
  1  7  1  0
  2  7  2  0
  3  1  2  0
  4  2  1  0
  5  6  1  0
  6 18  1  0
  6  2  1  0
  8  4  2  0
  8  3  1  0
  9  5  1  0
  9  4  1  0
 10 18  1  0
 11 16  1  0
 12 13  1  0
 12 11  1  0
 14 13  1  0
 14 23  1  0
 14 15  1  0
 16 10  1  0
 16 15  1  0
 17 10  2  0
 18 19  1  0
 20 21  2  0
 21 40  1  0
 22 21  1  0
 22 25  1  0
 23 24  1  0
 23 20  1  0
 24 22  2  0
 25 26  1  0
 26 27  2  0
 28 31  1  0
 28 27  1  0
 29 28  2  0
 30 29  1  0
 30 25  2  0
 31 32  1  0
 32 33  1  0
 33 34  2  0
 35 34  1  0
 35 39  1  0
 36 35  2  0
 37 32  2  0
 37 36  1  0
 38 37  1  0
 40 41  1  0
 41 44  1  0
 41 43  1  0
 42 40  2  0
 45 20  1  0
 45 46  1  0
 47 45  1  0
 49 50  1  0
 49 48  1  0
 50 48  1  0
 50  9  1  0
 50 51  1  6
 52  3  1  0
 52 53  1  0
 54 65  2  0
 55 53  1  0
 55 60  1  0
 56 64  1  0
 56 66  1  0
 57 63  1  0
 57 59  1  0
 58 64  1  0
 59 58  1  0
 60 59  2  0
 61 55  2  0
 62 61  1  0
 62 57  2  0
 63 56  1  0
 64 54  1  0
 66 68  2  0
 67 66  1  0
 69 67  1  0
 70 79  2  0
 70 75  1  0
 71 67  1  0
 71 75  1  0
 72 71  1  0
 73 74  1  0
 73 72  1  0
 74 70  1  0
 75 76  2  0
 76 77  1  0
 78 77  2  0
 79 78  1  0
 80 54  1  0
 80 81  1  0
 80 90  1  0
 81 84  1  0
 82 86  1  0
 82 81  1  0
 83 82  2  0
 86 85  1  0
 88 89  1  0
 88 86  1  0
 88 87  1  0
 90 93  1  1
 90 91  1  0
 92 90  1  0
M  ISO  4  10 100  18 100  52 101  53 101
M  END
>  <TORSDO>  (97) 
F 18

>  <SCORE>  (97) 
-15.238

>  <name>  (97) 
97

>  <ligand_id>  (97) 
97

>  <original_smiles>  (97) 
[H]c1nc2c(nc1C([H])([H])Oc1c([H])c([H])c3c(c1[H])C([H])([H])N(C(=O)C([H])(N([H])C(=O)C([H])(N([H])C([H])([H])[H])C([H])([H])[H])C(C([H])([H])[H])(C([H])([H])[H])C([H])([H])[H])C([H])(C(=O)N([H])C1([H])c4c([H])c([H])c([H])c([H])c4C([H])([H])C([H])([H])C1([H])[H])C3([H])[H])N(C1(C([H])([H])[H])C([H])([H])C1([H])[H])C([H])([H])C2([H])N([H])C(=O)N1C([H])([H])C([H])([H])C([H])([H])C([H])(n2nc(-c3c([H])c([H])c(Oc4c([H])c([H])c(F)c([H])c4F)c([H])c3[H])c(C(=O)N([H])[H])c2N([H])[H])C1([H])[H]

>  <smiles>  (97) 
[H]c1nc2c(nc1C([H])([H])Oc1c([H])c([H])c3c(c1[H])C([H])([H])N(C(=O)C([H])(N([H])C(=O)C([H])(N([H])C([H])([H])[H])C([H])([H])[H])C(C([H])([H])[H])(C([H])([H])[H])C([H])([H])[H])C([H])(C(=O)N([H])C1([H])c4c([H])c([H])c([H])c([H])c4C([H])([H])C([H])([H])C1([H])[H])C3([H])[H])N(C1(C([H])([H])[H])C([H])([H])C1([H])[H])C([H])([H])C2([H])N([H])C(=O)N1C([H])([H])C([H])([H])C([H])([H])C([H])(n2nc(-c3c([H])c([H])c(Oc4c([H])c([H])c(F)c([H])c4F)c([H])c3[H])c(C(=O)N([H])[H])c2N([H])[H])C1([H])[H]

$$$$
98:0:0
     RDKit          3D

 93 96  0  0  1  0  0  0  0  0999 V2000
  -27.7920  -14.1060   21.4810 C   0  0  0  0  0 15  0  0  0  0  0  0
  -26.2540  -15.2600   20.6990 C   0  0  0  0  0  1  0  0  0  0  0  0
  -26.7510  -16.8300   19.5790 C   0  0  0  0  0  1  0  0  0  0  0  0
  -29.6050  -14.7390   20.6470 C   0  0  0  0  0  2  0  0  0  0  0  0
  -28.5000  -17.7480   19.4490 C   0  0  0  0  0  1  0  0  0  0  0  0
  -24.3530  -16.6660   20.3050 C   0  0  0  0  0  2  0  0  0  0  0  0
  -24.9280  -15.6040   21.3020 C   0  0  0  0  0  3  0  0  0  0  0  0
  -25.4470  -17.6260   19.6710 C   0  0  2  0  0  0  0  0  0  0  0  0
  -24.0050  -14.4490   21.7110 C   0  0  0  0  0  1  0  0  0  0  0  0
  -25.0230  -18.1570   18.2930 C   0  0  0  0  0  1  0  0  0  0  0  0
  -25.6120  -18.8170   20.6330 C   0  0  0  0  0  1  0  0  0  0  0  0
  -29.6660  -16.3190   19.6000 N   0  0  0  0  0  0  0  0  0  0  0  0
  -30.9770  -14.5310   21.2570 C   0  0  0  0  0  2  0  0  0  0  0  0
  -32.3290  -12.8190   22.2410 C   0  0  0  0  0  0  0  0  0  0  0  0
  -32.8030  -10.6680   21.1150 C   0  0  0  0  0  2  0  0  0  0  0  0
  -32.7780  -10.8070   19.5670 C   0  0  0  0  0  2  0  0  0  0  0  0
  -31.3330  -10.8210   18.9700 C   0  0  0  0  0  2  0  0  0  0  0  0
  -30.4420  -11.8910   19.7010 C   0  0  0  0  0  3  0  0  0  0  0  0
  -30.5050  -11.4020   21.2080 C   0  0  0  0  0  2  0  0  0  0  0  0
  -31.8840  -11.6570   21.6880 N   0  0  0  0  0  0  0  0  0  0  0  0
  -33.5090  -13.0570   22.5070 O   0  0  0  0  0  0  0  0  0  0  0  0
  -31.3960  -13.7670   22.4280 N   0  0  0  0  0  0  0  0  0  0  0  0
  -31.6160  -14.3880   23.1890 H   0  0  0  0  0  0  0  0  0  0  0  0
  -28.3770  -13.4770   18.2190 C   0  0  0  0  0  3  0  0  0  0  0  0
  -27.1500  -12.4670   18.7450 C   0  0  0  0  0  0  0  0  0  0  0  0
  -27.1760  -11.2660   19.7760 C   0  0  0  0  0  0  0  0  0  0  0  0
  -29.0460  -12.2480   19.1590 N   0  0  0  0  0  0  0  0  0  0  0  0
  -28.4130  -11.2630   19.9800 N   0  0  0  0  0  0  0  0  0  0  0  0
  -26.2440  -10.0640   20.5480 C   0  0  0  0  0  0  0  0  0  0  0  0
  -26.0520   -9.8250   21.9850 C   0  0  0  0  0  3  0  0  0  0  0  0
  -25.1970   -8.8160   22.6060 C   0  0  0  0  0  3  0  0  0  0  0  0
  -24.4350   -7.8910   21.8390 C   0  0  0  0  0  0  0  0  0  0  0  0
  -24.6430   -8.0300   20.4440 C   0  0  0  0  0  3  0  0  0  0  0  0
  -25.4900   -9.0450   19.8510 C   0  0  0  0  0  3  0  0  0  0  0  0
  -23.6040   -6.8530   22.3150 O   0  0  0  0  0  0  0  0  0  0  0  0
  -22.6720   -6.9440   23.3530 C   0  0  0  0  0  0  0  0  0  0  0  0
  -21.7880   -8.0420   23.4750 C   0  0  0  0  0  3  0  0  0  0  0  0
  -20.8240   -8.0890   24.5110 C   0  0  0  0  0  3  0  0  0  0  0  0
  -20.7200   -7.0350   25.4380 C   0  0  0  0  0  0  0  0  0  0  0  0
  -21.5600   -5.9180   25.3080 C   0  0  0  0  0  3  0  0  0  0  0  0
  -22.5150   -5.8640   24.2680 C   0  0  0  0  0  0  0  0  0  0  0  0
  -23.2790   -4.7530   24.1530 F   0  0  0  0  0  0  0  0  0  0  0  0
  -19.8160   -7.0950   26.4480 F   0  0  0  0  0  0  0  0  0  0  0  0
  -25.6870  -12.4140   18.2990 C   0  0  0  0  0  0  0  0  0  0  0  0
  -24.6730  -12.1360   19.1530 N   0  0  0  0  0  0  0  0  0  0  0  0
  -25.4220  -12.5620   17.1280 O   0  0  0  0  0  0  0  0  0  0  0  0
  -24.8370  -11.9940   20.1370 H   0  0  0  0  0  0  0  0  0  0  0  0
  -23.7300  -12.0840   18.7960 H   0  0  0  0  0  0  0  0  0  0  0  0
  -28.9070  -16.1590   18.4620 N   0  0  0  0  0  0  0  0  0  0  0  0
  -28.1360  -16.3350   17.8030 H   0  0  0  0  0  0  0  0  0  0  0  0
  -29.7220  -15.9150   17.8470 H   0  0  0  0  0  0  0  0  0  0  0  0
  -29.0300  -20.1720   19.5060 C   0  0  0  0  0 15  0  0  0  0  0  0
  -29.9180  -22.2600   20.1550 O   0  0  0  0  0  1  0  0  0  0  0  0
  -27.8280  -29.6350   24.2710 C   0  0  0  0  0  0  0  0  0  0  0  0
  -29.7340  -24.0880   20.4560 C   0  0  0  0  0  0  0  0  0  0  0  0
  -26.9130  -28.7340   22.1990 C   0  0  0  0  0  3  0  0  0  0  0  0
  -28.3810  -27.1190   20.6590 C   0  0  0  0  0  0  0  0  0  0  0  0
  -29.4040  -28.1900   22.6180 C   0  0  0  0  0  2  0  0  0  0  0  0
  -29.3560  -26.8500   21.6090 C   0  0  0  0  0  0  0  0  0  0  0  0
  -30.0220  -25.3980   21.4700 C   0  0  0  0  0  3  0  0  0  0  0  0
  -29.0180  -24.9030   19.5090 C   0  0  0  0  0  3  0  0  0  0  0  0
  -28.3570  -26.1960   19.5980 C   0  0  0  0  0  3  0  0  0  0  0  0
  -27.3960  -28.3210   20.7650 C   0  0  0  0  0  2  0  0  0  0  0  0
  -28.0950  -28.9110   23.0970 N   0  0  0  0  0  0  0  0  0  0  0  0
  -26.6700  -29.9790   24.5900 O   0  0  0  0  0  0  0  0  0  0  0  0
  -25.9240  -27.6900   22.7900 C   0  0  0  0  0  0  0  0  0  0  0  0
  -24.6470  -27.6770   22.3610 N   0  0  0  0  0  0  0  0  0  0  0  0
  -26.3320  -26.8870   23.6340 O   0  0  0  0  0  0  0  0  0  0  0  0
  -24.3610  -28.3770   21.6900 H   0  0  0  0  0  0  0  0  0  0  0  0
  -21.2340  -26.5300   21.8240 C   0  0  0  0  0  0  0  0  0  0  0  0
  -23.6480  -26.6690   22.7480 C   0  0  0  0  0  3  0  0  0  0  0  0
  -23.8950  -25.3380   21.9980 C   0  0  0  0  0  2  0  0  0  0  0  0
  -23.0890  -25.2220   20.7010 C   0  0  0  0  0  2  0  0  0  0  0  0
  -21.5890  -25.3060   20.9950 C   0  0  0  0  0  2  0  0  0  0  0  0
  -22.2060  -27.1790   22.6340 C   0  0  0  0  0  0  0  0  0  0  0  0
  -21.8280  -28.3240   23.3670 C   0  0  0  0  0  3  0  0  0  0  0  0
  -20.5130  -28.8230   23.2990 C   0  0  0  0  0  3  0  0  0  0  0  0
  -19.5530  -28.1690   22.5060 C   0  0  0  0  0  3  0  0  0  0  0  0
  -19.9140  -27.0240   21.7730 C   0  0  0  0  0  3  0  0  0  0  0  0
  -28.9250  -30.0840   25.2940 C   0  0  0  0  0  3  0  0  0  0  0  0
  -28.4630  -31.3030   26.0180 N   0  0  0  0  0  0  0  0  0  0  0  0
  -28.9550  -32.5450   25.8900 C   0  0  0  0  0  0  0  0  0  0  0  0
  -29.8890  -32.8000   25.1300 O   0  0  0  0  0  0  0  0  0  0  0  0
  -27.6570  -31.1800   26.6130 H   0  0  0  0  0  0  0  0  0  0  0  0
  -27.3870  -34.5330   25.8530 C   0  0  0  0  0  1  0  0  0  0  0  0
  -28.3230  -33.6850   26.7310 C   0  0  0  0  0  3  0  0  0  0  0  0
  -30.0650  -33.9380   28.4520 C   0  0  0  0  0  1  0  0  0  0  0  0
  -29.3170  -34.5780   27.3740 N   0  0  0  0  0  0  0  0  0  0  0  0
  -28.8670  -35.4090   27.7490 H   0  0  0  0  0  0  0  0  0  0  0  0
  -29.2580  -28.9710   26.3670 C   0  0  1  0  0  0  0  0  0  0  0  0
  -28.0110  -28.4050   27.0920 C   0  0  0  0  0  1  0  0  0  0  0  0
  -29.9950  -27.7790   25.7310 C   0  0  0  0  0  1  0  0  0  0  0  0
  -30.2160  -29.5410   27.4420 C   0  0  0  0  0  1  0  0  0  0  0  0
  2  7  1  0
  8  3  1  6
  4 13  1  0
  5 12  1  0
  6  7  1  0
  7  9  1  0
  8  6  1  0
  8 11  1  0
 10  8  1  0
 12  4  1  0
 13 22  1  0
 14 22  1  0
 14 21  2  0
 15 20  1  0
 16 15  1  0
 17 16  1  0
 18 17  1  0
 18 19  1  0
 19 20  1  0
 20 14  1  0
 22 23  1  0
 24 25  2  0
 24 27  1  0
 25 26  1  0
 26 28  2  0
 26 29  1  0
 27 18  1  0
 27 28  1  0
 29 30  1  0
 30 31  2  0
 32 35  1  0
 32 31  1  0
 33 32  2  0
 34 33  1  0
 34 29  2  0
 35 36  1  0
 36 37  2  0
 36 41  1  0
 37 38  1  0
 38 39  2  0
 39 43  1  0
 40 39  1  0
 41 40  2  0
 42 41  1  0
 44 25  1  0
 44 45  1  0
 45 47  1  0
 46 44  2  0
 48 45  1  0
 49 12  1  0
 50 49  1  0
 51 49  1  0
 53 55  1  0
 54 65  2  0
 55 60  1  0
 56 66  1  0
 56 64  1  0
 57 63  1  0
 57 59  1  0
 58 64  1  0
 59 58  1  0
 60 59  2  0
 61 62  1  0
 61 55  2  0
 62 57  2  0
 63 56  1  0
 64 54  1  0
 66 68  2  0
 67 66  1  0
 69 67  1  0
 70 75  1  0
 71 67  1  0
 72 71  1  0
 73 74  1  0
 73 72  1  0
 74 70  1  0
 75 71  1  0
 75 76  2  0
 77 76  1  0
 78 77  2  0
 79 70  2  0
 79 78  1  0
 80 54  1  0
 80 81  1  0
 80 90  1  0
 81 84  1  0
 82 81  1  0
 82 86  1  0
 83 82  2  0
 86 85  1  0
 86 88  1  0
 88 89  1  0
 88 87  1  0
 90 91  1  1
 90 93  1  0
 92 90  1  0
M  ISO  4  14 100  22 100  52 101  53 101
M  END
>  <TORSDO>  (98) 
F 18

>  <SCORE>  (98) 
11.137

>  <name>  (98) 
98

>  <ligand_id>  (98) 
98

>  <original_smiles>  (98) 
[H]c1c([H])c([H])c2c(c1[H])C([H])([H])C([H])([H])C([H])([H])C2([H])N([H])C(=O)C1([H])N(C(=O)C([H])(N([H])C(=O)C([H])(N([H])C([H])([H])[H])C([H])([H])[H])C(C([H])([H])[H])(C([H])([H])[H])C([H])([H])[H])C([H])([H])c2c([H])c(OC([H])([H])c3nc(C([H])([H])N([H])C(=O)N4C([H])([H])C([H])([H])C([H])([H])C([H])(n5nc(-c6c([H])c([H])c(Oc7c([H])c([H])c(F)c([H])c7F)c([H])c6[H])c(C(=O)N([H])[H])c5N([H])[H])C4([H])[H])c([H])c4c3C(C([H])([H])[H])(C([H])([H])[H])C([H])([H])C4([H])C([H])([H])[H])c([H])c([H])c2C1([H])[H]

>  <smiles>  (98) 
[H]c1c([H])c([H])c2c(c1[H])C([H])([H])C([H])([H])C([H])([H])C2([H])N([H])C(=O)C1([H])N(C(=O)C([H])(N([H])C(=O)C([H])(N([H])C([H])([H])[H])C([H])([H])[H])C(C([H])([H])[H])(C([H])([H])[H])C([H])([H])[H])C([H])([H])c2c([H])c(OC([H])([H])c3nc(C([H])([H])N([H])C(=O)N4C([H])([H])C([H])([H])C([H])([H])C([H])(n5nc(-c6c([H])c([H])c(Oc7c([H])c([H])c(F)c([H])c7F)c([H])c6[H])c(C(=O)N([H])[H])c5N([H])[H])C4([H])[H])c([H])c4c3C(C([H])([H])[H])(C([H])([H])[H])C([H])([H])C4([H])C([H])([H])[H])c([H])c([H])c2C1([H])[H]

$$$$
